data_PCOD9273431
_publ_section_title
;
Structure prediction by ZEFSAII (Michael W. Deem and Ramdas Pophale) SiO2 
 PCOD9273431
Probable space group: C 2/C
;
_chemical_formula_sum "Si O2"
_cell_formula_units_Z 40
_cell_length_a 33.106023
_cell_length_b 8.437794
_cell_length_c 22.247857
_cell_angle_alpha 90.000000
_cell_angle_beta 15.635398
_cell_angle_gamma 90.000000
_cell_volume 1674.968986
_symmetry_space_group_name_H-M "C 2/C"
_symmetry_group_IT_number 15
_symmetry_cell_setting 'monoclinic'
loop_
_space_group_symop_operation_xyz
x,y,z
-x,y,1/2-z
-x,-y,-z
x,-y,1/2+z
1/2+x,1/2+y,z
1/2-x,1/2+y,1/2-z
1/2-x,1/2-y,-z
1/2+x,1/2-y,1/2+z
loop_
_atom_site_type_symbol
_atom_site_label
_atom_site_fract_x
_atom_site_fract_y
_atom_site_fract_z
Si Si1 0.238857 0.813750 0.918225
Si Si2 0.467404 0.340304 0.176335
Si Si3 0.149405 0.468194 0.997906
Si Si4 0.685107 0.120743 0.312441
Si Si5 0.567508 0.622706 0.354657
O O1 0.379256 0.786948 0.761804
O O2 0.278226 0.937293 0.808725
O O3 0.096477 0.834435 0.165187
O O4 0.209107 0.643092 0.929711
O O5 0.417850 0.513793 0.224777
O O6 0.644947 0.324975 0.914269
O O7 0.000000 0.443724 0.250000
O O8 0.136073 0.462070 0.944912
O O9 0.271172 0.342283 0.848375
O O10 0.049941 0.258178 0.992210
O O11 0.500000 0.500000 0.500000
#
# Coordination Sequence:
#
# PCOD9273431 Si02
#       5
#     8   8   8   8   8
#     4  10  21  38  64  95 121 161 221 265 313 379
#     4  10  20  37  65  95 122 166 213 266 317 375
#     4  11  23  40  62  91 127 173 210 261 320 373
#     4  12  19  35  65  89 127 169 207 255 327 370
#     4  11  21  42  61  94 129 164 210 264 313 373
#
# _framework density 23.881036999999999
#
# number of rings (size 3 to 8) (size 9 to 14) (size 15 to 20)
#    0.000    1.200    6.000    1.800    0.000    0.800 
#    0.000    4.000    0.000   46.800    0.000    0.000 
#    0.000    0.000    0.000    0.000    0.000    0.000 
#
# Total GULP energy -111564.619855 kJ/mol
# GULP energy per Si atom -5578.230993 kJ/mol
# Density = 2.382668 g / cm^3
# Si number density = 23.881037 Si / 1000 Ang^3
#
#
#
# Elastic Constant Matrix: (Units=GPa)
#
#
# Indices 1 2 3 4 5 6 
#
# 1 139.6460 21.6993 49.6052 0.0001 39.2144 0.0000
# 2 21.6993 32.5107 10.5858 0.0002 17.2178 0.0000
# 3 49.6052 10.5858 142.6855 0.0002 33.1396 0.0000
# 4 0.0001 0.0002 0.0002 16.4431 -0.0001 5.7521
# 5 39.2144 17.2178 33.1396 -0.0001 59.9634 0.0000
# 6 0.0000 0.0000 0.0000 5.7521 0.0000 41.5441
#
#
#
# Elastic Compliance Matrix: (Units=1/GPa)
#
#
# Indices 1 2 3 4 5 6 
#
# 1 0.009620 -0.003560 -0.002130 0.000000 -0.004092 0.000000
# 2 -0.003560 0.037605 0.000476 -0.000001 -0.008733 0.000000
# 3 -0.002130 0.000476 0.008515 0.000000 -0.003450 0.000000
# 4 0.000000 -0.000001 0.000000 0.063911 0.000000 -0.008849
# 5 -0.004092 -0.008733 -0.003450 0.000000 0.023767 0.000000
# 6 0.000000 0.000000 0.000000 -0.008849 0.000000 0.025296
#
#
# Mechanical properties :
#
#
# Convention : Reuss Voigt Hill
#
# Bulk Modulus (GPa) = 22.06944 53.18030 37.62487
# Shear Modulus (GPa) = 25.74057 39.12024 32.43040
#
# Velocity S-wave (km/s) = 3.28665 4.05177 3.68910
# Velocity P-wave (km/s) = 4.86459 6.64878 5.82540
#
# Compressibility (1/GPa) = 0.04531153
#
# Stress axis : x y z
#
# Youngs Moduli (GPa) = 103.95269 26.59204 117.44310
#
# Poissons Ratio (x) = 0.09467 0.25014
# Poissons Ratio (y) = 0.37010 -0.05591
# Poissons Ratio (z) = 0.22141 -0.01266
#
# Static dielectric constant tensor:
#      x y z
#    x 2.030130 0.000000 -0.001020 
#    y 0.000000 1.976850 0.000000 
#    z -0.001020 0.000000 1.955900 
# 
# From -- ./inp_files/196989.got.cif
#   From: 2010.05.17/outbox.cif.g08.bks.cpg/sg15_99_cif.got.tgz:196989.got - 2010.06.03 18:47:42.
