data_PCOD9273098
_publ_section_title
;
Structure prediction by ZEFSAII (Michael W. Deem and Ramdas Pophale) SiO2 
 PCOD9273098
Probable space group: C 2/C
;
_chemical_formula_sum "Si O2"
_cell_formula_units_Z 52
_cell_length_a 16.193188
_cell_length_b 9.821394
_cell_length_c 21.424133
_cell_angle_alpha 90.000000
_cell_angle_beta 130.949615
_cell_angle_gamma 90.000000
_cell_volume 2573.477091
_symmetry_space_group_name_H-M "C 2/C"
_symmetry_group_IT_number 15
_symmetry_cell_setting 'monoclinic'
loop_
_space_group_symop_operation_xyz
x,y,z
-x,y,1/2-z
-x,-y,-z
x,-y,1/2+z
1/2+x,1/2+y,z
1/2-x,1/2+y,1/2-z
1/2-x,1/2-y,-z
1/2+x,1/2-y,1/2+z
loop_
_atom_site_type_symbol
_atom_site_label
_atom_site_fract_x
_atom_site_fract_y
_atom_site_fract_z
Si Si1 0.376095 0.242801 0.584734
Si Si2 0.176818 0.006100 0.760278
Si Si3 0.483865 0.026111 0.097538
Si Si4 0.513147 0.652539 0.483903
Si Si5 0.500000 0.614167 0.250000
Si Si6 0.355930 0.870967 0.421613
Si Si7 0.650640 0.765743 0.666085
O O1 0.250000 0.250000 0.500000
O O2 0.440281 0.324153 0.561856
O O3 0.405176 0.302219 0.667041
O O4 0.428195 0.090775 0.610483
O O5 0.245167 0.866748 0.783016
O O6 0.057363 0.970663 0.724282
O O7 0.235646 0.085243 0.845963
O O8 0.178550 0.117109 0.706293
O O9 0.557472 0.150779 0.158898
O O10 0.568150 0.951142 0.091346
O O11 0.389541 0.085726 0.006984
O O12 0.500000 0.500000 0.500000
O O13 0.392617 0.717670 0.429073
O O14 0.592956 0.738437 0.570199
#
# Coordination Sequence:
#
# PCOD9273098 Si02
#       7
#     8   8   8   8   4   8   8
#     4  11  22  40  62  88 130 169 207 263 322 391
#     4  11  23  39  61  93 127 164 212 263 322 379
#     4   8  16  35  58  84 115 155 208 251 311 367
#     4  10  20  37  62  92 119 156 217 267 308 376
#     4  12  26  38  60  94 134 168 206 264 338 388
#     4   8  16  33  58  83 114 156 195 260 309 361
#     4  10  22  37  65  92 124 164 216 265 317 379
#
# _framework density 20.206125
#
# number of rings (size 3 to 8) (size 9 to 14) (size 15 to 20)
#    0.000    2.154    0.000    5.538    8.615    0.000 
#    0.000    2.308    0.000    5.538    0.000    0.000 
#    0.000    0.000    0.000    0.000    0.000    0.000 
#
# Total GULP energy -144893.125763 kJ/mol
# GULP energy per Si atom -5572.812529 kJ/mol
# Density = 2.016014 g / cm^3
# Si number density = 20.206125 Si / 1000 Ang^3
#
#
#
# Elastic Constant Matrix: (Units=GPa)
#
#
# Indices 1 2 3 4 5 6 
#
# 1 44.1302 31.4222 14.9607 0.0000 7.0692 0.0000
# 2 31.4222 105.1562 30.3572 0.0000 -4.8783 0.0000
# 3 14.9607 30.3572 68.5137 0.0000 10.5120 0.0000
# 4 0.0000 0.0000 0.0000 33.4224 0.0000 5.9678
# 5 7.0692 -4.8783 10.5120 0.0000 23.5107 0.0000
# 6 0.0000 0.0000 0.0000 5.9678 0.0000 22.0987
#
#
#
# Elastic Compliance Matrix: (Units=1/GPa)
#
#
# Indices 1 2 3 4 5 6 
#
# 1 0.031671 -0.009721 -0.000900 0.000000 -0.011137 0.000000
# 2 -0.009721 0.014405 -0.005548 0.000000 0.008392 0.000000
# 3 -0.000900 -0.005548 0.018666 0.000000 -0.009226 0.000000
# 4 0.000000 0.000000 0.000000 0.031436 0.000000 -0.008489
# 5 -0.011137 0.008392 -0.009226 0.000000 0.051749 0.000000
# 6 0.000000 0.000000 0.000000 -0.008489 0.000000 0.047544
#
#
# Mechanical properties :
#
#
# Convention : Reuss Voigt Hill
#
# Bulk Modulus (GPa) = 30.85898 41.25335 36.05616
# Shear Modulus (GPa) = 20.95482 25.21038 23.08260
#
# Velocity S-wave (km/s) = 3.22382 3.53606 3.38354
# Velocity P-wave (km/s) = 5.40024 6.09362 5.75738
#
# Compressibility (1/GPa) = 0.03240548
#
# Stress axis : x y z
#
# Youngs Moduli (GPa) = 31.57489 69.41950 53.57401
#
# Poissons Ratio (x) = 0.67480 0.04821
# Poissons Ratio (y) = 0.30693 0.29721
# Poissons Ratio (z) = 0.02841 0.38512
#
# Static dielectric constant tensor:
#      x y z
#    x 1.719670 0.000000 0.023770 
#    y 0.000000 1.776600 0.000000 
#    z 0.023770 0.000000 1.769910 
# 
# From -- ./inp_files/247886.got.cif
#   From: 2010.05.17/outbox.cif.g08.bks.cpg/sg15_124_cif.got.tgz:247886.got - 2010.06.03 18:47:42.
