data_PCOD9273424
_publ_section_title
;
Structure prediction by ZEFSAII (Michael W. Deem and Ramdas Pophale) SiO2 
 PCOD9273424
Probable space group: C 2/C
;
_chemical_formula_sum "Si O2"
_cell_formula_units_Z 56
_cell_length_a 13.518245
_cell_length_b 12.172275
_cell_length_c 18.481170
_cell_angle_alpha 90.000000
_cell_angle_beta 114.224406
_cell_angle_gamma 90.000000
_cell_volume 2773.258658
_symmetry_space_group_name_H-M "C 2/C"
_symmetry_group_IT_number 15
_symmetry_cell_setting 'monoclinic'
loop_
_space_group_symop_operation_xyz
x,y,z
-x,y,1/2-z
-x,-y,-z
x,-y,1/2+z
1/2+x,1/2+y,z
1/2-x,1/2+y,1/2-z
1/2-x,1/2-y,-z
1/2+x,1/2-y,1/2+z
loop_
_atom_site_type_symbol
_atom_site_label
_atom_site_fract_x
_atom_site_fract_y
_atom_site_fract_z
Si Si1 0.827061 0.216108 0.818741
Si Si2 0.544337 0.376809 0.524042
Si Si3 0.358141 0.215328 0.490946
Si Si4 0.739482 0.820928 0.831335
Si Si5 0.538630 0.035456 0.882855
Si Si6 0.437537 0.230218 0.114256
Si Si7 0.158319 0.451884 0.271019
O O1 0.737526 0.260296 0.736404
O O2 0.780218 0.094268 0.812381
O O3 0.946035 0.229565 0.820241
O O4 0.833896 0.277227 0.897674
O O5 0.500000 0.500000 0.500000
O O6 0.448817 0.307626 0.532641
O O7 0.654515 0.369675 0.601150
O O8 0.569755 0.306727 0.458840
O O9 0.250000 0.250000 0.500000
O O10 0.409895 0.101458 0.534718
O O11 0.667527 0.753657 0.867150
O O12 0.662606 0.918249 0.781627
O O13 0.414618 0.063307 0.822822
O O14 0.601041 0.080548 0.829600
O O15 0.554047 0.902911 0.896586
#
# Coordination Sequence:
#
# PCOD9273424 Si02
#       7
#     8   8   8   8   8   8   8
#     4  11  21  37  61  95 130 162 215 271 326 377
#     4  11  25  42  66  95 133 174 212 265 338 393
#     4  11  23  42  64  96 130 174 213 274 327 392
#     4  11  21  41  61  94 129 167 221 264 322 394
#     4  10  20  39  67  93 127 172 226 264 322 391
#     4  10  22  40  67  96 127 174 220 267 321 397
#     4  10  20  37  65  93 125 173 209 274 327 380
#
# _framework density 20.192851999999998
#
# number of rings (size 3 to 8) (size 9 to 14) (size 15 to 20)
#    0.000    1.429    2.857    3.429    2.000    2.286 
#    2.571    0.000    0.000    1.714    0.000    0.000 
#    0.000    0.000    0.000    0.000    0.000    0.000 
#
# Total GULP energy -155906.848172 kJ/mol
# GULP energy per Si atom -5568.101720 kJ/mol
# Density = 2.014689 g / cm^3
# Si number density = 20.192852 Si / 1000 Ang^3
#
#
#
# Elastic Constant Matrix: (Units=GPa)
#
#
# Indices 1 2 3 4 5 6 
#
# 1 94.9597 19.2247 34.0365 0.0000 9.9633 0.0000
# 2 19.2247 80.2597 41.0857 0.0000 3.7081 0.0000
# 3 34.0365 41.0857 122.4404 0.0000 15.8484 0.0000
# 4 0.0000 0.0000 0.0000 33.3052 0.0000 9.2276
# 5 9.9633 3.7081 15.8484 0.0000 24.8866 0.0000
# 6 0.0000 0.0000 0.0000 9.2276 0.0000 30.0917
#
#
#
# Elastic Compliance Matrix: (Units=1/GPa)
#
#
# Indices 1 2 3 4 5 6 
#
# 1 0.012029 -0.001486 -0.002453 0.000000 -0.003032 0.000000
# 2 -0.001486 0.015253 -0.004891 0.000000 0.001437 0.000000
# 3 -0.002453 -0.004891 0.011191 0.000000 -0.005416 0.000000
# 4 0.000000 0.000000 0.000000 0.032813 0.000000 -0.010062
# 5 -0.003032 0.001437 -0.005416 0.000000 0.044631 0.000000
# 6 0.000000 0.000000 0.000000 -0.010062 0.000000 0.036317
#
#
# Mechanical properties :
#
#
# Convention : Reuss Voigt Hill
#
# Bulk Modulus (GPa) = 48.04480 54.03931 51.04205
# Shear Modulus (GPa) = 28.27536 31.21088 29.74312
#
# Velocity S-wave (km/s) = 3.74607 3.93573 3.84207
# Velocity P-wave (km/s) = 6.52345 6.89006 6.70926
#
# Compressibility (1/GPa) = 0.02081391
#
# Stress axis : x y z
#
# Youngs Moduli (GPa) = 83.13336 65.56136 89.35392
#
# Poissons Ratio (x) = 0.09739 0.21917
# Poissons Ratio (y) = 0.12350 0.43705
# Poissons Ratio (z) = 0.20391 0.32068
#
# Static dielectric constant tensor:
#      x y z
#    x 1.799520 0.000000 -0.060020 
#    y 0.000000 1.796370 0.000000 
#    z -0.060020 0.000000 1.827440 
# 
# From -- ./inp_files/204552.got.cif
#   From: 2010.05.17/outbox.cif.g08.bks.cpg/sg15_103_cif.got.tgz:204552.got - 2010.06.03 18:47:42.
