data_PCOD9273748
_publ_section_title
;
Structure prediction by ZEFSAII (Michael W. Deem and Ramdas Pophale) SiO2 
 PCOD9273748
Probable space group: C 2/C
;
_chemical_formula_sum "Si O2"
_cell_formula_units_Z 64
_cell_length_a 15.028441
_cell_length_b 21.674735
_cell_length_c 29.065021
_cell_angle_alpha 90.000000
_cell_angle_beta 160.341999
_cell_angle_gamma 90.000000
_cell_volume 3184.937214
_symmetry_space_group_name_H-M "C 2/C"
_symmetry_group_IT_number 15
_symmetry_cell_setting 'monoclinic'
loop_
_space_group_symop_operation_xyz
x,y,z
-x,y,1/2-z
-x,-y,-z
x,-y,1/2+z
1/2+x,1/2+y,z
1/2-x,1/2+y,1/2-z
1/2-x,1/2-y,-z
1/2+x,1/2-y,1/2+z
loop_
_atom_site_type_symbol
_atom_site_label
_atom_site_fract_x
_atom_site_fract_y
_atom_site_fract_z
Si Si1 0.440155 0.889529 0.942558
Si Si2 0.216657 0.050717 0.612932
Si Si3 0.726600 0.181417 0.897310
Si Si4 0.202567 0.729244 0.619507
Si Si5 0.495881 0.816606 0.385084
Si Si6 0.799436 0.937018 0.289165
Si Si7 0.835111 0.486545 0.517243
Si Si8 0.593330 0.390809 0.863529
O O1 0.586084 0.948286 0.990626
O O2 0.258093 0.905727 0.897488
O O3 0.210688 0.874217 0.793549
O O4 0.617211 0.832920 0.048751
O O5 0.500000 0.018405 0.750000
O O6 0.209449 0.107962 0.574161
O O7 0.210359 0.075622 0.661525
O O8 0.000000 0.000000 0.500000
O O9 0.500000 0.193040 0.750000
O O10 0.605821 0.199560 0.888132
O O11 0.981501 0.218772 0.004374
O O12 0.500000 0.744791 0.750000
O O13 0.175581 0.721962 0.661991
O O14 0.321275 0.878108 0.294645
O O15 0.759330 0.834335 0.541319
O O16 0.110144 0.945029 0.430943
O O17 0.598691 0.992004 0.173747
O O18 0.661323 0.548442 0.425337
#
# Coordination Sequence:
#
# PCOD9273748 Si02
#       8
#     8   8   8   8   8   8   8   8
#     4  10  20  38  58  91 133 172 212 265 320 386
#     4  11  23  42  66  94 127 165 212 271 326 377
#     4  11  24  45  72  92 130 174 228 270 327 397
#     4  11  25  44  68  98 133 169 220 279 331 386
#     4  10  21  42  68  95 127 174 219 267 327 397
#     4  11  21  36  60  93 129 169 212 259 323 385
#     4  11  20  34  58  90 135 169 210 263 313 390
#     4   9  20  34  58  93 126 170 222 251 322 387
#
# _framework density 20.094588000000002
#
# number of rings (size 3 to 8) (size 9 to 14) (size 15 to 20)
#    0.000    1.500    3.750    2.250    5.250    0.500 
#    2.250    1.875    0.000    0.000    0.000    0.000 
#    0.000    0.000    0.000    0.000    0.000    0.000 
#
# Total GULP energy -178143.540099 kJ/mol
# GULP energy per Si atom -5566.985628 kJ/mol
# Density = 2.004885 g / cm^3
# Si number density = 20.094588 Si / 1000 Ang^3
#
#
#
# Elastic Constant Matrix: (Units=GPa)
#
#
# Indices 1 2 3 4 5 6 
#
# 1 90.3058 23.0549 30.7590 0.0218 7.9184 0.0403
# 2 23.0549 67.5923 33.3180 -0.0681 18.1369 -0.0987
# 3 30.7590 33.3180 97.5341 0.0330 29.8577 0.5618
# 4 0.0218 -0.0681 0.0330 15.1665 0.0146 -11.8909
# 5 7.9184 18.1369 29.8577 0.0146 28.4683 -0.1076
# 6 0.0403 -0.0987 0.5618 -11.8909 -0.1076 -102.9082
#
#
#
# Elastic Compliance Matrix: (Units=1/GPa)
#
#
# Indices 1 2 3 4 5 6 
#
# 1 0.012950 -0.003219 -0.003696 -0.000035 0.002325 -0.000010
# 2 -0.003219 0.019686 -0.003158 0.000078 -0.008334 -0.000038
# 3 -0.003696 -0.003158 0.017035 0.000050 -0.014826 0.000104
# 4 -0.000035 0.000078 0.000050 0.060458 -0.000150 -0.006986
# 5 0.002325 -0.008334 -0.014826 -0.000150 0.055339 -0.000113
# 6 -0.000010 -0.000038 0.000104 -0.006986 -0.000113 -0.008910
#
#
# Mechanical properties :
#
#
# Convention : Reuss Voigt Hill
#
# Bulk Modulus (GPa) = 33.87010 47.74398 40.80704
# Shear Modulus (GPa) = 26.80277 -0.63466 13.08405
#
# Velocity S-wave (km/s) = 3.65613 -0.56260 2.55448
# Velocity P-wave (km/s) = 5.89194 4.83624 5.39000
#
# Compressibility (1/GPa) = 0.02952456
#
# Stress axis : x y z
#
# Youngs Moduli (GPa) = 77.21747 50.79866 58.70140
#
# Poissons Ratio (x) = 0.16354 0.21697
# Poissons Ratio (y) = 0.24859 0.18537
# Poissons Ratio (z) = 0.28541 0.16042
#
# Static dielectric constant tensor:
#      x y z
#    x 1.805180 -0.000030 0.047510 
#    y -0.000030 1.769490 0.000000 
#    z 0.047510 0.000000 1.667790 
# 
# From -- ./inp_files/314553.got.cif
#   From: 2010.05.17/outbox.cif.g08.bks.cpg/sg15_158_cif.got.tgz:314553.got - 2010.06.03 18:47:42.
