data_PCOD9273484
_publ_section_title
;
Structure prediction by ZEFSAII (Michael W. Deem and Ramdas Pophale) SiO2 
 PCOD9273484
Probable space group: C 2/C
;
_chemical_formula_sum "Si O2"
_cell_formula_units_Z 56
_cell_length_a 8.671583
_cell_length_b 24.007343
_cell_length_c 13.046561
_cell_angle_alpha 90.000000
_cell_angle_beta 58.524305
_cell_angle_gamma 90.000000
_cell_volume 2316.419223
_symmetry_space_group_name_H-M "C 2/C"
_symmetry_group_IT_number 15
_symmetry_cell_setting 'monoclinic'
loop_
_space_group_symop_operation_xyz
x,y,z
-x,y,1/2-z
-x,-y,-z
x,-y,1/2+z
1/2+x,1/2+y,z
1/2-x,1/2+y,1/2-z
1/2-x,1/2-y,-z
1/2+x,1/2-y,1/2+z
loop_
_atom_site_type_symbol
_atom_site_label
_atom_site_fract_x
_atom_site_fract_y
_atom_site_fract_z
Si Si1 0.000000 0.405106 0.250000
Si Si2 0.080592 0.857605 0.861059
Si Si3 0.273007 0.682278 0.597832
Si Si4 0.807224 0.491728 0.427065
Si Si5 0.105457 0.613645 0.106548
Si Si6 0.047412 0.733602 0.109997
Si Si7 0.063852 0.978171 0.827952
Si Si8 0.000000 0.764682 0.750000
O O1 0.823931 0.365858 0.302156
O O2 0.954852 0.444121 0.362959
O O3 0.116981 0.914310 0.787762
O O4 0.123990 0.804885 0.775681
O O5 0.195631 0.866849 0.924064
O O6 0.875853 0.845930 0.967837
O O7 0.416727 0.720487 0.606539
O O8 0.109566 0.725215 0.634755
O O9 0.878032 0.551338 0.443003
O O10 0.624132 0.474508 0.546181
O O11 0.726383 0.499755 0.339722
O O12 0.025177 0.668662 0.081855
O O13 0.000000 0.606094 0.250000
O O14 0.000000 0.733406 0.250000
O O15 0.250000 0.750000 0.000000
O O16 0.000000 0.010373 0.750000
#
# Coordination Sequence:
#
# PCOD9273484 Si02
#       8
#     4   8   8   8   8   8   8   4
#     4  11  22  44  66  94 136 184 219 280 350 415
#     4  11  20  38  62  91 126 170 221 275 338 406
#     4  11  24  39  64  93 133 178 222 277 352 401
#     4  10  21  40  70  93 131 178 222 284 342 402
#     4  10  20  37  66  93 127 173 225 278 341 401
#     4  11  23  43  68 100 140 176 231 290 346 422
#     4  10  21  40  69  97 127 173 227 281 344 409
#     4  11  22  36  60  88 128 174 219 274 334 409
#
# _framework density 24.175242999999998
#
# number of rings (size 3 to 8) (size 9 to 14) (size 15 to 20)
#    0.000    1.429    4.286    2.143    0.000    0.000 
#    0.000    3.571    3.143    0.000    0.000    0.000 
#    0.000    0.000    0.000    0.000    0.000    0.000 
#
# Total GULP energy -156137.595900 kJ/mol
# GULP energy per Si atom -5576.342711 kJ/mol
# Density = 2.412022 g / cm^3
# Si number density = 24.175243 Si / 1000 Ang^3
#
#
#
# Elastic Constant Matrix: (Units=GPa)
#
#
# Indices 1 2 3 4 5 6 
#
# 1 48.4133 26.0560 20.8397 0.0000 -8.3259 0.0000
# 2 26.0560 141.9811 9.1893 0.0000 -16.3610 0.0000
# 3 20.8397 9.1893 50.1533 0.0000 -22.8841 0.0000
# 4 0.0000 0.0000 0.0000 23.8726 0.0000 -9.5735
# 5 -8.3259 -16.3610 -22.8841 0.0000 39.4976 0.0000
# 6 0.0000 0.0000 0.0000 -9.5735 0.0000 12.1838
#
#
#
# Elastic Compliance Matrix: (Units=1/GPa)
#
#
# Indices 1 2 3 4 5 6 
#
# 1 0.027868 -0.004686 -0.012134 0.000000 -0.003097 0.000000
# 2 -0.004686 0.008184 0.002098 0.000000 0.003618 0.000000
# 3 -0.012134 0.002098 0.032388 0.000000 0.017076 0.000000
# 4 0.000000 0.000000 0.000000 0.061161 0.000000 0.048058
# 5 -0.003097 0.003618 0.017076 0.000000 0.036058 0.000000
# 6 0.000000 0.000000 0.000000 0.048058 0.000000 0.119838
#
#
# Mechanical properties :
#
#
# Convention : Reuss Voigt Hill
#
# Bulk Modulus (GPa) = 25.64296 39.19087 32.41691
# Shear Modulus (GPa) = 15.24672 27.40832 21.32752
#
# Velocity S-wave (km/s) = 2.51405 3.37075 2.97342
# Velocity P-wave (km/s) = 4.36548 5.60318 5.02260
#
# Compressibility (1/GPa) = 0.03899706
#
# Stress axis : x y z
#
# Youngs Moduli (GPa) = 35.88343 122.18613 30.87561
#
# Poissons Ratio (x) = 0.57254 0.37465
# Poissons Ratio (y) = 0.16814 -0.06479
# Poissons Ratio (z) = 0.43542 -0.25639
#
# Static dielectric constant tensor:
#      x y z
#    x 2.039050 0.000000 0.003500 
#    y 0.000000 1.976100 0.000000 
#    z 0.003500 0.000000 1.957930 
# 
# From -- ./inp_files/137748.got.cif
#   From: 2010.05.17/outbox.cif.g08.bks.cpg/sg15_69_cif.got.tgz:137748.got - 2010.06.03 18:47:42.
