data_PCOD9273928
_publ_section_title
;
Structure prediction by ZEFSAII (Michael W. Deem and Ramdas Pophale) SiO2 
 PCOD9273928
Probable space group: C 2/C
;
_chemical_formula_sum "Si O2"
_cell_formula_units_Z 52
_cell_length_a 9.202402
_cell_length_b 12.359579
_cell_length_c 23.187378
_cell_angle_alpha 90.000000
_cell_angle_beta 110.126168
_cell_angle_gamma 90.000000
_cell_volume 2476.241890
_symmetry_space_group_name_H-M "C 2/C"
_symmetry_group_IT_number 15
_symmetry_cell_setting 'monoclinic'
loop_
_space_group_symop_operation_xyz
x,y,z
-x,y,1/2-z
-x,-y,-z
x,-y,1/2+z
1/2+x,1/2+y,z
1/2-x,1/2+y,1/2-z
1/2-x,1/2-y,-z
1/2+x,1/2-y,1/2+z
loop_
_atom_site_type_symbol
_atom_site_label
_atom_site_fract_x
_atom_site_fract_y
_atom_site_fract_z
Si Si1 0.936287 0.993827 0.367348
Si Si2 0.652485 0.028063 0.743811
Si Si3 0.244821 0.895105 0.059778
Si Si4 0.938845 0.475413 0.427803
Si Si5 0.194251 0.149567 0.416518
Si Si6 0.500000 0.175238 0.250000
Si Si7 0.302778 0.349178 0.156962
O O1 0.890925 0.955341 0.425035
O O2 0.056212 0.911188 0.354373
O O3 0.780233 0.987720 0.310075
O O4 0.023200 0.108626 0.377126
O O5 0.500000 0.084607 0.750000
O O6 0.592254 0.907602 0.721490
O O7 0.730145 0.087968 0.701595
O O8 0.405547 0.961184 0.087625
O O9 0.272234 0.774930 0.088571
O O10 0.211461 0.877143 0.987348
O O11 0.818994 0.573262 0.401382
O O12 0.839591 0.363816 0.407722
O O13 0.000000 0.500000 0.500000
O O14 0.380284 0.243821 0.195421
#
# Coordination Sequence:
#
# PCOD9273928 Si02
#       7
#     8   8   8   8   8   4   8
#     4  11  21  38  60  87 121 156 198 254 302 357
#     4  10  23  40  58  89 117 155 209 250 300 365
#     4  10  20  38  60  88 121 160 202 244 307 358
#     4   9  20  38  63  90 122 157 199 254 299 357
#     4   9  21  38  59  88 120 159 204 248 298 362
#     4  10  24  40  64  84 120 164 198 252 306 356
#     4  11  21  43  63  88 127 157 207 252 307 369
#
# _framework density 20.999563999999999
#
# number of rings (size 3 to 8) (size 9 to 14) (size 15 to 20)
#    0.462    1.538    1.538    1.385    2.154    2.462 
#    0.000    0.000    0.000   11.077    0.000    0.000 
#    0.000    0.000    0.000    0.000    0.000    0.000 
#
# Total GULP energy -144923.767994 kJ/mol
# GULP energy per Si atom -5573.991077 kJ/mol
# Density = 2.095177 g / cm^3
# Si number density = 20.999564 Si / 1000 Ang^3
#
#
#
# Elastic Constant Matrix: (Units=GPa)
#
#
# Indices 1 2 3 4 5 6 
#
# 1 130.8026 23.5940 23.2938 0.0000 -8.9552 0.0000
# 2 23.5940 49.0069 2.4151 0.0000 -15.9840 0.0000
# 3 23.2938 2.4151 59.3667 0.0000 5.5345 0.0000
# 4 0.0000 0.0000 0.0000 17.2744 0.0000 6.2024
# 5 -8.9552 -15.9840 5.5345 0.0000 35.2320 0.0000
# 6 0.0000 0.0000 0.0000 6.2024 0.0000 26.4429
#
#
#
# Elastic Compliance Matrix: (Units=1/GPa)
#
#
# Indices 1 2 3 4 5 6 
#
# 1 0.009031 -0.003812 -0.003492 0.000000 0.001115 0.000000
# 2 -0.003812 0.025799 -0.000563 0.000000 0.010824 0.000000
# 3 -0.003492 -0.000563 0.018617 0.000000 -0.004067 0.000000
# 4 0.000000 0.000000 0.000000 0.063213 0.000000 -0.014827
# 5 0.001115 0.010824 -0.004067 0.000000 0.034216 0.000000
# 6 0.000000 0.000000 0.000000 -0.014827 0.000000 0.041295
#
#
# Mechanical properties :
#
#
# Convention : Reuss Voigt Hill
#
# Bulk Modulus (GPa) = 26.51689 37.53133 32.02411
# Shear Modulus (GPa) = 22.67827 28.44810 25.56318
#
# Velocity S-wave (km/s) = 3.28981 3.68462 3.49280
# Velocity P-wave (km/s) = 5.20435 6.00109 5.61686
#
# Compressibility (1/GPa) = 0.03771181
#
# Stress axis : x y z
#
# Youngs Moduli (GPa) = 110.72980 38.76177 53.71489
#
# Poissons Ratio (x) = 0.14777 0.18759
# Poissons Ratio (y) = 0.42213 0.03023
# Poissons Ratio (z) = 0.38670 0.02181
#
# Static dielectric constant tensor:
#      x y z
#    x 1.768510 0.000000 0.046700 
#    y 0.000000 1.762250 0.000000 
#    z 0.046700 0.000000 1.828210 
# 
# From -- ./inp_files/263963.got.cif
#   From: 2010.05.17/outbox.cif.g08.bks.cpg/sg15_132_cif.got.tgz:263963.got - 2010.06.03 18:47:42.
