data_PCOD9273108
_publ_section_title
;
Structure prediction by ZEFSAII (Michael W. Deem and Ramdas Pophale) SiO2 
 PCOD9273108
Probable space group: C 2/C
;
_chemical_formula_sum "Si O2"
_cell_formula_units_Z 64
_cell_length_a 18.849548
_cell_length_b 15.116283
_cell_length_c 14.318386
_cell_angle_alpha 90.000000
_cell_angle_beta 51.188636
_cell_angle_gamma 90.000000
_cell_volume 3179.044325
_symmetry_space_group_name_H-M "C 2/C"
_symmetry_group_IT_number 15
_symmetry_cell_setting 'monoclinic'
loop_
_space_group_symop_operation_xyz
x,y,z
-x,y,1/2-z
-x,-y,-z
x,-y,1/2+z
1/2+x,1/2+y,z
1/2-x,1/2+y,1/2-z
1/2-x,1/2-y,-z
1/2+x,1/2-y,1/2+z
loop_
_atom_site_type_symbol
_atom_site_label
_atom_site_fract_x
_atom_site_fract_y
_atom_site_fract_z
Si Si1 0.620574 0.466571 0.740518
Si Si2 0.697409 0.043271 0.965478
Si Si3 0.452168 0.098355 0.877870
Si Si4 0.741915 0.043864 0.147159
Si Si5 0.272477 0.694842 0.268114
Si Si6 0.344507 0.257513 0.979822
Si Si7 0.868470 0.616582 0.658110
Si Si8 0.420305 0.453959 0.941458
O O1 0.708992 0.529619 0.670699
O O2 0.661415 0.369643 0.727042
O O3 0.525985 0.473535 0.874282
O O4 0.594589 0.478778 0.654216
O O5 0.715664 0.060511 0.059951
O O6 0.636037 0.955361 0.017698
O O7 0.640324 0.107303 0.946414
O O8 0.500000 0.051888 0.750000
O O9 0.527567 0.112293 0.894153
O O10 0.414499 0.192021 0.873283
O O11 0.745705 0.135370 0.200961
O O12 0.680416 0.966105 0.245810
O O13 0.845026 0.006083 0.062071
O O14 0.181251 0.716397 0.399349
O O15 0.321968 0.789232 0.217570
O O16 0.250000 0.250000 0.000000
O O17 0.389210 0.351613 0.963758
#
# Coordination Sequence:
#
# PCOD9273108 Si02
#       8
#     8   8   8   8   8   8   8   8
#     4  10  20  37  62  93 120 166 211 267 324 380
#     4  11  23  44  65  90 132 171 217 275 326 393
#     4  12  23  37  67  99 128 169 213 273 336 397
#     4  11  23  43  64  95 132 175 219 268 330 394
#     4  12  23  39  63  93 133 171 217 266 325 399
#     4  12  20  36  61  95 138 164 202 267 329 387
#     4  12  24  42  65  97 131 175 220 269 332 393
#     4  10  21  35  62  92 129 164 207 263 326 388
#
# _framework density 20.131837000000001
#
# number of rings (size 3 to 8) (size 9 to 14) (size 15 to 20)
#    0.000    0.750    6.250    2.625    1.750    1.000 
#    0.000    0.000    0.000    0.000    3.250    0.000 
#    0.000    0.000    0.000    0.000    0.000    0.000 
#
# Total GULP energy -178391.194477 kJ/mol
# GULP energy per Si atom -5574.724827 kJ/mol
# Density = 2.008602 g / cm^3
# Si number density = 20.131837 Si / 1000 Ang^3
#
#
#
# Elastic Constant Matrix: (Units=GPa)
#
#
# Indices 1 2 3 4 5 6 
#
# 1 128.6107 23.0413 30.0355 0.0000 -7.6164 0.0000
# 2 23.0413 37.1675 11.0193 0.0000 7.9205 0.0000
# 3 30.0355 11.0193 69.4794 0.0000 -15.7826 0.0000
# 4 0.0000 0.0000 0.0000 2.0720 0.0000 10.5597
# 5 -7.6164 7.9205 -15.7826 0.0000 29.5973 0.0000
# 6 0.0000 0.0000 0.0000 10.5597 0.0000 2.6215
#
#
#
# Elastic Compliance Matrix: (Units=1/GPa)
#
#
# Indices 1 2 3 4 5 6 
#
# 1 0.009566 -0.005694 -0.002648 0.000000 0.002574 0.000000
# 2 -0.005694 0.035396 -0.006414 0.000000 -0.014358 0.000000
# 3 -0.002648 -0.006414 0.019104 0.000000 0.011222 0.000000
# 4 0.000000 0.000000 0.000000 -0.024713 0.000000 0.099549
# 5 0.002574 -0.014358 0.011222 0.000000 0.044275 0.000000
# 6 0.000000 0.000000 0.000000 0.099549 0.000000 -0.019533
#
#
# Mechanical properties :
#
#
# Convention : Reuss Voigt Hill
#
# Bulk Modulus (GPa) = 28.93906 40.38328 34.66117
# Shear Modulus (GPa) = 47.56274 18.26893 32.91583
#
# Velocity S-wave (km/s) = 4.86589 3.01568 4.04792
# Velocity P-wave (km/s) = 6.78050 5.67704 6.25316
#
# Compressibility (1/GPa) = 0.03455537
#
# Stress axis : x y z
#
# Youngs Moduli (GPa) = 104.53409 28.25161 52.34582
#
# Poissons Ratio (x) = 0.16086 0.13860
# Poissons Ratio (y) = 0.59520 0.33573
# Poissons Ratio (z) = 0.27679 0.18120
#
# Static dielectric constant tensor:
#      x y z
#    x 1.982090 0.000000 0.171900 
#    y 0.000000 1.735340 0.000000 
#    z 0.171900 0.000000 1.903010 
# 
# From -- ./inp_files/162547.got.cif
#   From: 2010.05.17/outbox.cif.g08.bks.cpg/sg15_82_cif.got.tgz:162547.got - 2010.06.03 18:47:42.
