data_PCOD9273250
_publ_section_title
;
Structure prediction by ZEFSAII (Michael W. Deem and Ramdas Pophale) SiO2 
 PCOD9273250
Probable space group: C 2/C
;
_chemical_formula_sum "Si O2"
_cell_formula_units_Z 40
_cell_length_a 21.806381
_cell_length_b 8.522630
_cell_length_c 12.977360
_cell_angle_alpha 90.000000
_cell_angle_beta 136.346947
_cell_angle_gamma 90.000000
_cell_volume 1664.849712
_symmetry_space_group_name_H-M "C 2/C"
_symmetry_group_IT_number 15
_symmetry_cell_setting 'monoclinic'
loop_
_space_group_symop_operation_xyz
x,y,z
-x,y,1/2-z
-x,-y,-z
x,-y,1/2+z
1/2+x,1/2+y,z
1/2-x,1/2+y,1/2-z
1/2-x,1/2-y,-z
1/2+x,1/2-y,1/2+z
loop_
_atom_site_type_symbol
_atom_site_label
_atom_site_fract_x
_atom_site_fract_y
_atom_site_fract_z
Si Si1 0.908824 0.348011 0.821635
Si Si2 0.850918 0.186041 0.968940
Si Si3 0.890911 0.505540 0.107579
Si Si4 0.843128 0.359261 0.329876
Si Si5 0.446928 0.593541 0.520322
O O1 0.872988 0.264180 0.881932
O O2 0.853556 0.379908 0.650906
O O3 0.916153 0.534267 0.860012
O O4 0.989646 0.240650 0.879406
O O5 0.751290 0.124409 0.837799
O O6 0.913605 0.034500 0.060534
O O7 0.864478 0.321870 0.069350
O O8 0.000000 0.505073 0.250000
O O9 0.849698 0.574889 0.953010
O O10 0.864177 0.176277 0.363833
O O11 0.500000 0.500000 0.500000
#
# Coordination Sequence:
#
# PCOD9273250 Si02
#       5
#     8   8   8   8   8
#     4  10  22  41  69  93 133 181 220 269 333 406
#     4  10  24  42  66  98 139 171 222 282 335 389
#     4  11  23  41  68  97 127 180 227 268 332 399
#     4  11  22  43  67  93 140 178 214 278 346 393
#     4  10  20  37  63  97 127 175 220 272 327 395
#
# _framework density 24.026192999999999
#
# number of rings (size 3 to 8) (size 9 to 14) (size 15 to 20)
#    0.000    1.600    2.000    3.000    5.600    1.600 
#    3.600    0.000    0.000    0.000    0.000    0.000 
#    0.000    0.000    0.000    0.000    0.000    0.000 
#
# Total GULP energy -111398.117928 kJ/mol
# GULP energy per Si atom -5569.905896 kJ/mol
# Density = 2.397151 g / cm^3
# Si number density = 24.026193 Si / 1000 Ang^3
#
#
#
# Elastic Constant Matrix: (Units=GPa)
#
#
# Indices 1 2 3 4 5 6 
#
# 1 34.5370 26.8174 18.0957 0.0000 2.3413 0.0000
# 2 26.8174 151.4493 33.4236 0.0000 10.4154 0.0000
# 3 18.0957 33.4236 83.8046 0.0000 6.4374 0.0000
# 4 0.0000 0.0000 0.0000 39.3473 0.0000 5.0051
# 5 2.3413 10.4154 6.4374 0.0000 31.3969 0.0000
# 6 0.0000 0.0000 0.0000 5.0051 0.0000 23.6976
#
#
#
# Elastic Compliance Matrix: (Units=1/GPa)
#
#
# Indices 1 2 3 4 5 6 
#
# 1 0.035910 -0.005107 -0.005732 0.000000 0.000191 0.000000
# 2 -0.005107 0.008072 -0.001971 0.000000 -0.001893 0.000000
# 3 -0.005732 -0.001971 0.014095 0.000000 -0.001809 0.000000
# 4 0.000000 0.000000 0.000000 0.026116 0.000000 -0.005516
# 5 0.000191 -0.001893 -0.001809 0.000000 0.032835 0.000000
# 6 0.000000 0.000000 0.000000 -0.005516 0.000000 0.043363
#
#
# Mechanical properties :
#
#
# Convention : Reuss Voigt Hill
#
# Bulk Modulus (GPa) = 30.80947 47.38492 39.09720
# Shear Modulus (GPa) = 25.40238 31.65196 28.52717
#
# Velocity S-wave (km/s) = 3.25511 3.63353 3.44951
# Velocity P-wave (km/s) = 5.19411 6.11297 5.67218
#
# Compressibility (1/GPa) = 0.03245755
#
# Stress axis : x y z
#
# Youngs Moduli (GPa) = 27.84733 123.87906 70.94530
#
# Poissons Ratio (x) = 0.63263 0.40665
# Poissons Ratio (y) = 0.14221 0.13986
# Poissons Ratio (z) = 0.15962 0.24421
#
# Static dielectric constant tensor:
#      x y z
#    x 2.021900 0.000000 -0.016250 
#    y 0.000000 1.989120 0.000000 
#    z -0.016250 0.000000 1.991310 
# 
# From -- ./inp_files/172141.got.cif
#   From: 2010.05.17/outbox.cif.g08.bks.cpg/sg15_87_cif.got.tgz:172141.got - 2010.06.03 18:47:42.
