data_PCOD9273017
_publ_section_title
;
Structure prediction by ZEFSAII (Michael W. Deem and Ramdas Pophale) SiO2 
 PCOD9273017
Probable space group: C 2/C
;
_chemical_formula_sum "Si O2"
_cell_formula_units_Z 60
_cell_length_a 12.192178
_cell_length_b 15.014215
_cell_length_c 20.551128
_cell_angle_alpha 90.000000
_cell_angle_beta 47.944095
_cell_angle_gamma 90.000000
_cell_volume 2793.258470
_symmetry_space_group_name_H-M "C 2/C"
_symmetry_group_IT_number 15
_symmetry_cell_setting 'monoclinic'
loop_
_space_group_symop_operation_xyz
x,y,z
-x,y,1/2-z
-x,-y,-z
x,-y,1/2+z
1/2+x,1/2+y,z
1/2-x,1/2+y,1/2-z
1/2-x,1/2-y,-z
1/2+x,1/2-y,1/2+z
loop_
_atom_site_type_symbol
_atom_site_label
_atom_site_fract_x
_atom_site_fract_y
_atom_site_fract_z
Si Si1 0.275432 0.582921 0.262115
Si Si2 0.893100 0.941159 0.997902
Si Si3 0.835661 0.465803 0.301880
Si Si4 0.142653 0.898512 0.067382
Si Si5 0.000000 0.953898 0.250000
Si Si6 0.478835 0.087269 0.464270
Si Si7 0.965876 0.777355 0.031229
Si Si8 0.153016 0.271834 0.227799
O O1 0.258709 0.537468 0.198980
O O2 0.377478 0.519313 0.266468
O O3 0.332862 0.684027 0.234366
O O4 0.112190 0.585849 0.359549
O O5 0.740108 0.943091 0.099122
O O6 0.951428 0.841771 0.975557
O O7 0.888203 0.996841 0.935082
O O8 0.000000 0.000000 0.000000
O O9 0.843514 0.376274 0.253987
O O10 0.000000 0.497512 0.250000
O O11 0.074805 0.890378 0.165911
O O12 0.065353 0.830721 0.046376
O O13 0.319466 0.898583 0.994317
O O14 0.486728 0.178017 0.503002
O O15 0.500000 0.000000 0.500000
O O16 0.801397 0.767271 0.125538
O O17 0.000000 0.262828 0.250000
#
# Coordination Sequence:
#
# PCOD9273017 Si02
#       8
#     8   8   8   8   4   8   8   8
#     4  11  21  37  62  90 124 159 205 253 306 367
#     4   9  18  37  60  87 113 154 199 246 297 351
#     4  10  20  37  62  87 118 156 203 250 301 363
#     4  11  22  40  66  86 123 163 202 255 305 365
#     4  12  22  36  64  92 120 160 208 248 314 362
#     4  11  22  40  60  89 126 163 199 251 310 363
#     4   9  20  38  64  86 120 161 207 247 303 368
#     4   9  18  35  59  86 123 161 195 248 307 357
#
# _framework density 21.480288999999999
#
# number of rings (size 3 to 8) (size 9 to 14) (size 15 to 20)
#    0.000    1.867    2.000    3.600    0.000    0.000 
#    0.000    4.667   27.867    0.000    0.000    0.000 
#    0.000    0.000    0.000    0.000    0.000    0.000 
#
# Total GULP energy -167207.468578 kJ/mol
# GULP energy per Si atom -5573.582286 kJ/mol
# Density = 2.143140 g / cm^3
# Si number density = 21.480289 Si / 1000 Ang^3
#
#
#
# Elastic Constant Matrix: (Units=GPa)
#
#
# Indices 1 2 3 4 5 6 
#
# 1 61.1551 31.9492 32.1725 0.0000 -31.7747 0.0000
# 2 31.9492 144.7258 4.7035 0.0000 1.9781 0.0000
# 3 32.1725 4.7035 87.5459 0.0000 -16.9889 0.0000
# 4 0.0000 0.0000 0.0000 17.9148 0.0000 9.7982
# 5 -31.7747 1.9781 -16.9889 0.0000 39.3272 0.0000
# 6 0.0000 0.0000 0.0000 9.7982 0.0000 14.5319
#
#
#
# Elastic Compliance Matrix: (Units=1/GPa)
#
#
# Indices 1 2 3 4 5 6 
#
# 1 0.041630 -0.009313 -0.008929 0.000000 0.030247 0.000000
# 2 -0.009313 0.009016 0.001517 0.000000 -0.007323 0.000000
# 3 -0.008929 0.001517 0.014416 0.000000 -0.001063 0.000000
# 4 0.000000 0.000000 0.000000 0.088431 0.000000 -0.059625
# 5 0.030247 -0.007323 -0.001063 0.000000 0.049775 0.000000
# 6 0.000000 0.000000 0.000000 -0.059625 0.000000 0.109016
#
#
# Mechanical properties :
#
#
# Convention : Reuss Voigt Hill
#
# Bulk Modulus (GPa) = 31.63308 47.89747 39.76527
# Shear Modulus (GPa) = 14.03423 29.32823 21.68123
#
# Velocity S-wave (km/s) = 2.55885 3.69908 3.18048
# Velocity P-wave (km/s) = 4.84653 6.37111 5.66038
#
# Compressibility (1/GPa) = 0.03161248
#
# Stress axis : x y z
#
# Youngs Moduli (GPa) = 24.02111 110.90927 69.36690
#
# Poissons Ratio (x) = 1.03293 0.61936
# Poissons Ratio (y) = 0.22372 -0.10524
# Poissons Ratio (z) = 0.21448 -0.16826
#
# Static dielectric constant tensor:
#      x y z
#    x 1.822960 0.000000 -0.045030 
#    y 0.000000 1.843630 0.000000 
#    z -0.045030 0.000000 1.918190 
# 
# From -- ./inp_files/269947.got.cif
#   From: 2010.05.17/outbox.cif.g08.bks.cpg/sg15_135_cif.got.tgz:269947.got - 2010.06.03 18:47:42.
