data_PCOD9273938
_publ_section_title
;
Structure prediction by ZEFSAII (Michael W. Deem and Ramdas Pophale) SiO2 
 PCOD9273938
Probable space group: C 2/C
;
_chemical_formula_sum "Si O2"
_cell_formula_units_Z 40
_cell_length_a 19.212382
_cell_length_b 13.958809
_cell_length_c 8.813255
_cell_angle_alpha 90.000000
_cell_angle_beta 140.000342
_cell_angle_gamma 90.000000
_cell_volume 1519.253765
_symmetry_space_group_name_H-M "C 2/C"
_symmetry_group_IT_number 15
_symmetry_cell_setting 'monoclinic'
loop_
_space_group_symop_operation_xyz
x,y,z
-x,y,1/2-z
-x,-y,-z
x,-y,1/2+z
1/2+x,1/2+y,z
1/2-x,1/2+y,1/2-z
1/2-x,1/2-y,-z
1/2+x,1/2-y,1/2+z
loop_
_atom_site_type_symbol
_atom_site_label
_atom_site_fract_x
_atom_site_fract_y
_atom_site_fract_z
Si Si1 0.618628 0.535842 0.258662
Si Si2 0.000000 0.746441 0.250000
Si Si3 0.595196 0.101330 0.609734
Si Si4 0.500000 0.939294 0.250000
Si Si5 0.196513 0.206525 0.564161
Si Si6 0.787576 0.127774 0.382955
O O1 0.608919 0.629142 0.355610
O O2 0.696358 0.453904 0.462237
O O3 0.500000 0.500000 0.000000
O O4 0.684099 0.573037 0.224120
O O5 0.007686 0.676733 0.404954
O O6 0.105361 0.809116 0.411428
O O7 0.582318 0.107246 0.768762
O O8 0.706835 0.135963 0.724904
O O9 0.568699 0.001721 0.484746
O O10 0.250000 0.250000 0.500000
O O11 0.194917 0.291501 0.688719
#
# Coordination Sequence:
#
# PCOD9273938 Si02
#       6
#     8   4   8   4   8   8
#     4  11  20  37  64  94 121 171 221 260 315 395
#     4   9  16  34  54  79 118 166 198 251 316 379
#     4   9  18  33  57  81 119 157 205 253 325 368
#     4   9  18  34  56  87 110 158 206 263 300 389
#     4   9  21  37  59  88 127 169 205 263 327 383
#     4  10  20  38  60  88 126 166 216 265 327 380
#
# _framework density 26.328717000000001
#
# number of rings (size 3 to 8) (size 9 to 14) (size 15 to 20)
#    0.000    2.400    2.000    0.000    0.000    3.200 
#    0.000    7.000    0.000    0.000    0.000    0.000 
#    0.000    0.000    0.000    0.000    0.000    0.000 
#
# Total GULP energy -111530.162948 kJ/mol
# GULP energy per Si atom -5576.508147 kJ/mol
# Density = 2.626879 g / cm^3
# Si number density = 26.328717 Si / 1000 Ang^3
#
#
#
# Elastic Constant Matrix: (Units=GPa)
#
#
# Indices 1 2 3 4 5 6 
#
# 1 73.0316 33.4801 36.7413 0.0000 -16.7507 0.0000
# 2 33.4801 144.2027 74.1638 0.0000 -4.8444 0.0000
# 3 36.7413 74.1638 155.6066 0.0000 0.7006 0.0000
# 4 0.0000 0.0000 0.0000 -490.2178 0.0000 360.4455
# 5 -16.7507 -4.8444 0.7006 0.0000 33.1257 0.0000
# 6 0.0000 0.0000 0.0000 360.4455 0.0000 -196.4959
#
#
#
# Elastic Compliance Matrix: (Units=1/GPa)
#
#
# Indices 1 2 3 4 5 6 
#
# 1 0.018493 -0.002281 -0.003321 0.000000 0.009088 0.000000
# 2 -0.002281 0.009537 -0.004008 0.000000 0.000326 0.000000
# 3 -0.003321 -0.004008 0.009132 0.000000 -0.002458 0.000000
# 4 0.000000 0.000000 0.000000 0.005849 0.000000 0.010729
# 5 0.009088 0.000326 -0.002458 0.000000 0.034883 0.000000
# 6 0.000000 0.000000 0.000000 0.010729 0.000000 0.014592
#
#
# Mechanical properties :
#
#
# Convention : Reuss Voigt Hill
#
# Bulk Modulus (GPa) = 55.73187 73.51237 64.62212
# Shear Modulus (GPa) = 42.48611 -115.48720 -36.50054
#
# Velocity S-wave (km/s) = 4.02142 -6.63014 -3.72740
# Velocity P-wave (km/s) = 6.54034 5.53445 2.46434
#
# Compressibility (1/GPa) = 0.01794306
#
# Stress axis : x y z
#
# Youngs Moduli (GPa) = 54.07396 104.85956 109.50594
#
# Poissons Ratio (x) = 0.23914 0.36362
# Poissons Ratio (y) = 0.12332 0.43892
# Poissons Ratio (z) = 0.17955 0.42030
#
# Static dielectric constant tensor:
#      x y z
#    x 2.022480 0.000000 0.012460 
#    y 0.000000 2.252420 0.000000 
#    z 0.012460 0.000000 2.233660 
# 
# From -- ./inp_files/66067.got.cif
#   From: 2010.05.17/outbox.cif.g08.bks.cpg/sg15_34_cif.got.tgz:66067.got - 2010.06.03 18:47:42.
