data_PCOD9273235
_publ_section_title
;
Structure prediction by ZEFSAII (Michael W. Deem and Ramdas Pophale) SiO2 
 PCOD9273235
Probable space group: C 2/C
;
_chemical_formula_sum "Si O2"
_cell_formula_units_Z 40
_cell_length_a 11.441616
_cell_length_b 11.375740
_cell_length_c 13.866107
_cell_angle_alpha 90.000000
_cell_angle_beta 109.710786
_cell_angle_gamma 90.000000
_cell_volume 1699.022100
_symmetry_space_group_name_H-M "C 2/C"
_symmetry_group_IT_number 15
_symmetry_cell_setting 'monoclinic'
loop_
_space_group_symop_operation_xyz
x,y,z
-x,y,1/2-z
-x,-y,-z
x,-y,1/2+z
1/2+x,1/2+y,z
1/2-x,1/2+y,1/2-z
1/2-x,1/2-y,-z
1/2+x,1/2-y,1/2+z
loop_
_atom_site_type_symbol
_atom_site_label
_atom_site_fract_x
_atom_site_fract_y
_atom_site_fract_z
Si Si1 0.620512 0.729428 0.714382
Si Si2 0.837790 0.392704 0.941899
Si Si3 0.509008 0.489459 0.136163
Si Si4 0.244721 0.142127 0.927389
Si Si5 0.438756 0.273321 0.629385
O O1 0.500000 0.733786 0.750000
O O2 0.616221 0.842825 0.647425
O O3 0.611238 0.610132 0.647109
O O4 0.731475 0.700548 0.817927
O O5 0.696522 0.337956 0.899308
O O6 0.912203 0.332678 0.049856
O O7 0.161235 0.466851 0.048739
O O8 0.500000 0.507013 0.250000
O O9 0.380724 0.426766 0.077015
O O10 0.520563 0.621701 0.103637
O O11 0.250000 0.250000 0.000000
O O12 0.500000 0.241808 0.750000
#
# Coordination Sequence:
#
# PCOD9273235 Si02
#       5
#     8   8   8   8   8
#     4   9  19  39  60  87 124 168 219 262 316 393
#     4  10  20  37  63  94 126 164 220 271 317 390
#     4   7  14  32  57  78 116 159 208 255 298 373
#     4   9  18  37  58  83 122 165 206 256 322 384
#     4   9  18  37  61  93 128 162 214 279 322 373
#
# _framework density 23.542954999999999
#
# number of rings (size 3 to 8) (size 9 to 14) (size 15 to 20)
#    0.000    3.600    0.000    1.200    0.000    0.800 
#   18.000    8.000    0.000    0.000    0.000    0.000 
#    0.000    0.000    0.000    0.000    0.000    0.000 
#
# Total GULP energy -111494.509956 kJ/mol
# GULP energy per Si atom -5574.725498 kJ/mol
# Density = 2.348937 g / cm^3
# Si number density = 23.542955 Si / 1000 Ang^3
#
#
#
# Elastic Constant Matrix: (Units=GPa)
#
#
# Indices 1 2 3 4 5 6 
#
# 1 38.4840 36.5932 22.4434 0.0000 -6.4519 0.0000
# 2 36.5932 204.1763 119.7657 0.0000 6.2761 0.0000
# 3 22.4434 119.7657 168.6677 0.0000 1.0346 0.0000
# 4 0.0000 0.0000 0.0000 19.7580 0.0000 -6.7493
# 5 -6.4519 6.2761 1.0346 0.0000 22.2476 0.0000
# 6 0.0000 0.0000 0.0000 -6.7493 0.0000 20.7521
#
#
#
# Elastic Compliance Matrix: (Units=1/GPa)
#
#
# Indices 1 2 3 4 5 6 
#
# 1 0.034103 -0.006458 -0.000024 0.000000 0.011713 0.000000
# 2 -0.006458 0.009715 -0.006013 0.000000 -0.004334 0.000000
# 3 -0.000024 -0.006013 0.010194 0.000000 0.001215 0.000000
# 4 0.000000 0.000000 0.000000 0.056938 0.000000 0.018518
# 5 0.011713 -0.004334 0.001215 0.000000 0.049512 0.000000
# 6 0.000000 0.000000 0.000000 0.018518 0.000000 0.054211
#
#
# Mechanical properties :
#
#
# Convention : Reuss Voigt Hill
#
# Bulk Modulus (GPa) = 34.45532 85.43697 59.94614
# Shear Modulus (GPa) = 20.05317 28.05325 24.05321
#
# Velocity S-wave (km/s) = 2.92168 3.45567 3.19983
# Velocity P-wave (km/s) = 5.10377 7.23124 6.25856
#
# Compressibility (1/GPa) = 0.02902310
#
# Stress axis : x y z
#
# Youngs Moduli (GPa) = 29.32261 102.93112 98.09777
#
# Poissons Ratio (x) = 0.66473 0.00236
# Poissons Ratio (y) = 0.18937 0.58982
# Poissons Ratio (z) = 0.00071 0.61888
#
# Static dielectric constant tensor:
#      x y z
#    x 2.052380 0.000000 0.027400 
#    y 0.000000 1.967680 0.000000 
#    z 0.027400 0.000000 1.966810 
# 
# From -- ./inp_files/143142.got.cif
#   From: 2010.05.17/outbox.cif.g08.bks.cpg/sg15_72_cif.got.tgz:143142.got - 2010.06.03 18:47:42.
