data_PCOD9273532
_publ_section_title
;
Structure prediction by ZEFSAII (Michael W. Deem and Ramdas Pophale) SiO2 
 PCOD9273532
Probable space group: C 2/C
;
_chemical_formula_sum "Si O2"
_cell_formula_units_Z 52
_cell_length_a 14.444323
_cell_length_b 10.048800
_cell_length_c 15.646312
_cell_angle_alpha 90.000000
_cell_angle_beta 111.957234
_cell_angle_gamma 90.000000
_cell_volume 2106.299232
_symmetry_space_group_name_H-M "C 2/C"
_symmetry_group_IT_number 15
_symmetry_cell_setting 'monoclinic'
loop_
_space_group_symop_operation_xyz
x,y,z
-x,y,1/2-z
-x,-y,-z
x,-y,1/2+z
1/2+x,1/2+y,z
1/2-x,1/2+y,1/2-z
1/2-x,1/2-y,-z
1/2+x,1/2-y,1/2+z
loop_
_atom_site_type_symbol
_atom_site_label
_atom_site_fract_x
_atom_site_fract_y
_atom_site_fract_z
Si Si1 0.056553 0.310589 0.453187
Si Si2 0.678381 0.413962 0.912610
Si Si3 0.834550 0.275859 0.344204
Si Si4 0.500000 0.552391 0.750000
Si Si5 0.789634 0.553672 0.277187
Si Si6 0.520473 0.785467 0.639576
Si Si7 0.164303 0.588816 0.472499
O O1 0.142935 0.221553 0.442725
O O2 0.035604 0.270987 0.543641
O O3 0.087580 0.464900 0.459943
O O4 0.952897 0.280188 0.369183
O O5 0.582486 0.472610 0.830616
O O6 0.757754 0.403125 0.862687
O O7 0.729503 0.514351 0.998878
O O8 0.786519 0.394727 0.271734
O O9 0.783802 0.136411 0.307831
O O10 0.820940 0.323311 0.437166
O O11 0.548003 0.651687 0.697627
O O12 0.903137 0.600970 0.304511
O O13 0.402982 0.820687 0.613020
#
# Coordination Sequence:
#
# PCOD9273532 Si02
#       7
#     8   8   8   4   8   8   8
#     4  11  20  42  71  98 120 178 223 275 318 394
#     4  11  24  41  69  98 136 165 225 277 326 382
#     4  10  20  37  67  94 136 172 219 266 335 386
#     4  12  28  46  56 102 144 168 206 286 336 396
#     4  11  21  41  66  98 131 179 212 282 329 392
#     4  11  22  43  68  88 134 172 219 264 336 392
#     4  10  20  42  69  95 125 175 224 273 316 396
#
# _framework density 24.687850999999998
#
# number of rings (size 3 to 8) (size 9 to 14) (size 15 to 20)
#    0.000    1.231    4.615    4.154    0.000    1.231 
#    2.769    3.077    0.000    0.000    0.000    0.000 
#    0.000    0.000    0.000    0.000    0.000    0.000 
#
# Total GULP energy -145452.688881 kJ/mol
# GULP energy per Si atom -5594.334188 kJ/mol
# Density = 2.463166 g / cm^3
# Si number density = 24.687851 Si / 1000 Ang^3
#
#
#
# Elastic Constant Matrix: (Units=GPa)
#
#
# Indices 1 2 3 4 5 6 
#
# 1 71.4530 22.2129 40.1328 0.0000 29.1071 0.0000
# 2 22.2129 67.7451 40.4257 0.0000 -1.9430 0.0000
# 3 40.1328 40.4257 90.4205 0.0000 21.0442 0.0000
# 4 0.0000 0.0000 0.0000 45.1449 0.0000 11.4723
# 5 29.1071 -1.9430 21.0442 0.0000 47.1694 0.0000
# 6 0.0000 0.0000 0.0000 11.4723 0.0000 40.0804
#
#
#
# Elastic Compliance Matrix: (Units=1/GPa)
#
#
# Indices 1 2 3 4 5 6 
#
# 1 0.023569 -0.004842 -0.005428 0.000000 -0.012321 0.000000
# 2 -0.004842 0.022443 -0.009815 0.000000 0.008291 0.000000
# 3 -0.005428 -0.009815 0.019161 0.000000 -0.005603 0.000000
# 4 0.000000 0.000000 0.000000 0.023888 0.000000 -0.006838
# 5 -0.012321 0.008291 -0.005603 0.000000 0.031645 0.000000
# 6 0.000000 0.000000 0.000000 -0.006838 0.000000 0.026907
#
#
# Mechanical properties :
#
#
# Convention : Reuss Voigt Hill
#
# Bulk Modulus (GPa) = 39.99571 48.35126 44.17348
# Shear Modulus (GPa) = 25.49494 34.93540 30.21517
#
# Velocity S-wave (km/s) = 3.21704 3.76584 3.50221
# Velocity P-wave (km/s) = 5.48041 6.20776 5.85539
#
# Compressibility (1/GPa) = 0.02500268
#
# Stress axis : x y z
#
# Youngs Moduli (GPa) = 42.42929 44.55659 52.18970
#
# Poissons Ratio (x) = 0.21574 0.28331
# Poissons Ratio (y) = 0.20544 0.51222
# Poissons Ratio (z) = 0.23033 0.43731
#
# Static dielectric constant tensor:
#      x y z
#    x 2.038770 0.000000 0.003210 
#    y 0.000000 1.902140 0.000000 
#    z 0.003210 0.000000 1.993750 
# 
# From -- ./inp_files/204199.got.cif
#   From: 2010.05.17/outbox.cif.g08.bks.cpg/sg15_103_cif.got.tgz:204199.got - 2010.06.03 18:47:42.
