data_PCOD9273696
_publ_section_title
;
Structure prediction by ZEFSAII (Michael W. Deem and Ramdas Pophale) SiO2 
 PCOD9273696
Probable space group: C 2/C
;
_chemical_formula_sum "Si O2"
_cell_formula_units_Z 60
_cell_length_a 28.467306
_cell_length_b 14.008142
_cell_length_c 8.783817
_cell_angle_alpha 90.000000
_cell_angle_beta 81.964979
_cell_angle_gamma 90.000000
_cell_volume 3468.371188
_symmetry_space_group_name_H-M "C 2/C"
_symmetry_group_IT_number 15
_symmetry_cell_setting 'monoclinic'
loop_
_space_group_symop_operation_xyz
x,y,z
-x,y,1/2-z
-x,-y,-z
x,-y,1/2+z
1/2+x,1/2+y,z
1/2-x,1/2+y,1/2-z
1/2-x,1/2-y,-z
1/2+x,1/2-y,1/2+z
loop_
_atom_site_type_symbol
_atom_site_label
_atom_site_fract_x
_atom_site_fract_y
_atom_site_fract_z
Si Si1 0.566913 0.561185 0.470922
Si Si2 0.861327 0.898796 0.066726
Si Si3 0.801015 0.245153 0.741502
Si Si4 0.687524 0.548819 0.208440
Si Si5 0.000000 0.978984 0.750000
Si Si6 0.290601 0.059582 0.079241
Si Si7 0.157982 0.197022 0.446633
Si Si8 0.197736 0.363446 0.257567
O O1 0.590267 0.456354 0.426287
O O2 0.532601 0.544448 0.628042
O O3 0.534363 0.583299 0.340891
O O4 0.608787 0.637499 0.481707
O O5 0.843534 0.793340 0.111771
O O6 0.826709 0.952471 0.202772
O O7 0.852024 0.919581 0.893669
O O8 0.796414 0.356373 0.700533
O O9 0.749717 0.191262 0.740778
O O10 0.819362 0.227868 0.904291
O O11 0.734150 0.546010 0.088173
O O12 0.691602 0.621761 0.345162
O O13 0.305811 0.956484 0.133364
O O14 0.309114 0.098286 0.910324
O O15 0.159273 0.287586 0.334588
#
# Coordination Sequence:
#
# PCOD9273696 Si02
#       8
#     8   8   8   8   4   8   8   8
#     4  10  21  36  58  84 113 143 175 227 284 347
#     4  11  20  32  52  77 107 146 188 225 269 325
#     4  12  22  34  53  74 108 152 197 235 263 310
#     4  11  19  31  48  71 105 144 196 229 256 306
#     4  10  20  38  58  84 114 136 172 228 296 346
#     4  12  23  35  49  73 104 154 199 234 266 291
#     4  11  23  35  53  77 107 147 190 222 275 329
#     4  12  24  36  50  72 111 150 198 238 261 309
#
# _framework density 17.299187
#
# number of rings (size 3 to 8) (size 9 to 14) (size 15 to 20)
#    0.000    0.800    4.000    6.400    1.867    0.000 
#    0.000    0.000    0.000    0.000    0.000    0.000 
#    0.000   36.267    0.000    0.000    0.000    0.000 
#
# Total GULP energy -167200.060139 kJ/mol
# GULP energy per Si atom -5573.335338 kJ/mol
# Density = 1.725981 g / cm^3
# Si number density = 17.299187 Si / 1000 Ang^3
#
#
#
# Elastic Constant Matrix: (Units=GPa)
#
#
# Indices 1 2 3 4 5 6 
#
# 1 56.5812 22.5977 21.6682 0.0000 -5.4783 0.0000
# 2 22.5977 77.7518 7.2005 0.0000 -11.8674 0.0000
# 3 21.6682 7.2005 83.2214 0.0000 0.9226 0.0000
# 4 0.0000 0.0000 0.0000 24.8145 0.0000 -3.1532
# 5 -5.4783 -11.8674 0.9226 0.0000 27.0934 0.0000
# 6 0.0000 0.0000 0.0000 -3.1532 0.0000 14.1589
#
#
#
# Elastic Compliance Matrix: (Units=1/GPa)
#
#
# Indices 1 2 3 4 5 6 
#
# 1 0.022162 -0.005613 -0.005309 0.000000 0.002203 0.000000
# 2 -0.005613 0.015338 0.000073 0.000000 0.005581 0.000000
# 3 -0.005309 0.000073 0.013409 0.000000 -0.001498 0.000000
# 4 0.000000 0.000000 0.000000 0.041473 0.000000 0.009236
# 5 0.002203 0.005581 -0.001498 0.000000 0.039850 0.000000
# 6 0.000000 0.000000 0.000000 0.009236 0.000000 0.072684
#
#
# Mechanical properties :
#
#
# Convention : Reuss Voigt Hill
#
# Bulk Modulus (GPa) = 34.23559 35.60969 34.92264
# Shear Modulus (GPa) = 21.15494 24.28589 22.72041
#
# Velocity S-wave (km/s) = 3.50077 3.75090 3.62799
# Velocity P-wave (km/s) = 6.01447 6.27601 6.14663
#
# Compressibility (1/GPa) = 0.02920937
#
# Stress axis : x y z
#
# Youngs Moduli (GPa) = 45.12228 65.19777 74.57801
#
# Poissons Ratio (x) = 0.36597 0.39594
# Poissons Ratio (y) = 0.25328 -0.00541
# Poissons Ratio (z) = 0.23956 -0.00473
#
# Static dielectric constant tensor:
#      x y z
#    x 1.608260 0.000000 0.018270 
#    y 0.000000 1.651240 0.000000 
#    z 0.018270 0.000000 1.644940 
# 
# From -- ./inp_files/65968.got.cif
#   From: 2010.05.17/outbox.cif.g08.bks.cpg/sg15_33_cif.got.tgz:65968.got - 2010.06.03 18:47:42.
