data_PCOD9273327
_publ_section_title
;
Structure prediction by ZEFSAII (Michael W. Deem and Ramdas Pophale) SiO2 
 PCOD9273327
Probable space group: C 2/C
;
_chemical_formula_sum "Si O2"
_cell_formula_units_Z 36
_cell_length_a 20.418010
_cell_length_b 15.471633
_cell_length_c 8.909562
_cell_angle_alpha 90.000000
_cell_angle_beta 40.022401
_cell_angle_gamma 90.000000
_cell_volume 1809.987993
_symmetry_space_group_name_H-M "C 2/C"
_symmetry_group_IT_number 15
_symmetry_cell_setting 'monoclinic'
loop_
_space_group_symop_operation_xyz
x,y,z
-x,y,1/2-z
-x,-y,-z
x,-y,1/2+z
1/2+x,1/2+y,z
1/2-x,1/2+y,1/2-z
1/2-x,1/2-y,-z
1/2+x,1/2-y,1/2+z
loop_
_atom_site_type_symbol
_atom_site_label
_atom_site_fract_x
_atom_site_fract_y
_atom_site_fract_z
Si Si1 0.904764 0.385261 0.643340
Si Si2 0.823148 0.088827 0.919572
Si Si3 0.900595 0.945216 0.612657
Si Si4 0.014144 0.198164 0.050261
Si Si5 0.000000 0.479950 0.750000
O O1 0.970183 0.299706 0.496378
O O2 0.932553 0.458311 0.473586
O O3 0.934051 0.421078 0.755145
O O4 0.784272 0.369992 0.849910
O O5 0.888751 0.153561 0.701136
O O6 0.810828 0.999948 0.846836
O O7 0.882228 0.061965 0.968159
O O8 0.918895 0.848258 0.637424
O O9 0.000000 0.000000 0.500000
O O10 0.000000 0.176881 0.250000
#
# Coordination Sequence:
#
# PCOD9273327 Si02
#       5
#     8   8   8   8   4
#     4  11  23  43  64  90 122 162 214 253 310 369
#     4  11  22  39  65  95 123 162 208 257 303 374
#     4  10  20  37  64  93 125 162 201 249 316 366
#     4  11  22  39  61  91 130 161 199 255 311 369
#     4  10  24  42  66  82 120 170 202 256 316 376
#
# _framework density 19.889634999999998
#
# number of rings (size 3 to 8) (size 9 to 14) (size 15 to 20)
#    0.000    1.333    1.111    7.333    3.111    0.000 
#    0.000    1.111    0.000    0.000    0.000    0.000 
#    0.000    0.000    0.000    0.000    0.000    0.000 
#
# Total GULP energy -100410.286534 kJ/mol
# GULP energy per Si atom -5578.349252 kJ/mol
# Density = 1.984437 g / cm^3
# Si number density = 19.889635 Si / 1000 Ang^3
#
#
#
# Elastic Constant Matrix: (Units=GPa)
#
#
# Indices 1 2 3 4 5 6 
#
# 1 104.9753 36.5407 44.6025 0.0000 43.8729 0.0000
# 2 36.5407 74.0184 7.3249 0.0000 14.3659 0.0000
# 3 44.6025 7.3249 41.2847 0.0000 33.9779 0.0000
# 4 0.0000 0.0000 0.0000 30.3433 0.0000 3.6047
# 5 43.8729 14.3659 33.9779 0.0000 33.7368 0.0000
# 6 0.0000 0.0000 0.0000 3.6047 0.0000 19.7730
#
#
#
# Elastic Compliance Matrix: (Units=1/GPa)
#
#
# Indices 1 2 3 4 5 6 
#
# 1 0.023591 -0.007107 -0.008576 0.000000 -0.019015 0.000000
# 2 -0.007107 0.018622 0.019250 0.000000 -0.018075 0.000000
# 3 -0.008576 0.019250 0.161536 0.000000 -0.159735 0.000000
# 4 0.000000 0.000000 0.000000 0.033686 0.000000 -0.006141
# 5 -0.019015 -0.018075 -0.159735 0.000000 0.222943 0.000000
# 6 0.000000 0.000000 0.000000 -0.006141 0.000000 0.051694
#
#
# Mechanical properties :
#
#
# Convention : Reuss Voigt Hill
#
# Bulk Modulus (GPa) = 4.74196 44.13497 24.43847
# Shear Modulus (GPa) = 8.69216 25.55796 17.12506
#
# Velocity S-wave (km/s) = 2.09277 3.58856 2.93747
# Velocity P-wave (km/s) = 2.86860 6.27762 4.88044
#
# Compressibility (1/GPa) = 0.21088322
#
# Stress axis : x y z
#
# Youngs Moduli (GPa) = 42.38962 53.70067 6.19056
#
# Poissons Ratio (x) = 0.38164 0.05309
# Poissons Ratio (y) = 0.30126 -0.11917
# Poissons Ratio (z) = 0.36354 -1.03376
#
# Static dielectric constant tensor:
#      x y z
#    x 1.697690 0.000000 -0.021330 
#    y 0.000000 1.726230 0.000000 
#    z -0.021330 0.000000 1.745590 
# 
# From -- ./inp_files/37584.got.cif
#   From: 2010.05.17/outbox.cif.g08.bks.cpg/sg15_19_cif.got.tgz:37584.got - 2010.06.03 18:47:42.
