data_PCOD9273203
_publ_section_title
;
Structure prediction by ZEFSAII (Michael W. Deem and Ramdas Pophale) SiO2 
 PCOD9273203
Probable space group: C 2/C
;
_chemical_formula_sum "Si O2"
_cell_formula_units_Z 48
_cell_length_a 7.487362
_cell_length_b 18.803614
_cell_length_c 15.496740
_cell_angle_alpha 90.000000
_cell_angle_beta 66.848591
_cell_angle_gamma 90.000000
_cell_volume 2006.077209
_symmetry_space_group_name_H-M "C 2/C"
_symmetry_group_IT_number 15
_symmetry_cell_setting 'monoclinic'
loop_
_space_group_symop_operation_xyz
x,y,z
-x,y,1/2-z
-x,-y,-z
x,-y,1/2+z
1/2+x,1/2+y,z
1/2-x,1/2+y,1/2-z
1/2-x,1/2-y,-z
1/2+x,1/2-y,1/2+z
loop_
_atom_site_type_symbol
_atom_site_label
_atom_site_fract_x
_atom_site_fract_y
_atom_site_fract_z
Si Si1 0.240855 0.870001 0.994268
Si Si2 0.057781 0.205378 0.835333
Si Si3 0.225648 0.561740 0.685530
Si Si4 0.237532 0.593663 0.202669
Si Si5 0.199545 0.660500 0.383243
Si Si6 0.718651 0.025492 0.485022
O O1 0.195678 0.875068 0.901054
O O2 0.471463 0.855766 0.947558
O O3 0.134054 0.812879 0.073177
O O4 0.180159 0.948393 0.041384
O O5 0.166020 0.130933 0.802175
O O6 0.189140 0.254067 0.874979
O O7 0.000000 0.234308 0.750000
O O8 0.300812 0.486941 0.708352
O O9 0.228193 0.548705 0.582406
O O10 0.000000 0.570448 0.750000
O O11 0.279682 0.643141 0.273697
O O12 0.000000 0.588789 0.250000
O O13 0.288689 0.595654 0.421798
O O14 0.500000 0.000000 0.500000
#
# Coordination Sequence:
#
# PCOD9273203 Si02
#       6
#     8   8   8   8   8   8
#     4   9  19  37  61  90 120 159 210 268 303 371
#     4  12  26  36  60  97 132 161 206 269 325 366
#     4  10  22  40  63  89 124 168 212 260 310 383
#     4   8  16  35  62  84 113 161 209 246 300 372
#     4  10  20  37  63  91 124 166 209 248 321 390
#     4   9  19  36  68  89 114 164 218 248 314 376
#
# _framework density 23.927295000000001
#
# number of rings (size 3 to 8) (size 9 to 14) (size 15 to 20)
#    0.000    2.333    0.000    5.000    7.000    3.333 
#    0.000    0.000    3.667    0.000    0.000    0.000 
#    0.000    0.000    0.000    0.000    0.000    0.000 
#
# Total GULP energy -133782.402307 kJ/mol
# GULP energy per Si atom -5574.266763 kJ/mol
# Density = 2.387284 g / cm^3
# Si number density = 23.927295 Si / 1000 Ang^3
#
#
#
# Elastic Constant Matrix: (Units=GPa)
#
#
# Indices 1 2 3 4 5 6 
#
# 1 53.3657 -1.7626 9.5670 0.0000 -8.7837 0.0000
# 2 -1.7626 94.6999 39.6736 0.0000 6.8651 0.0000
# 3 9.5670 39.6736 75.7844 0.0000 -9.8293 0.0000
# 4 0.0000 0.0000 0.0000 35.5149 0.0000 -0.6295
# 5 -8.7837 6.8651 -9.8293 0.0000 13.2554 0.0000
# 6 0.0000 0.0000 0.0000 -0.6295 0.0000 21.2322
#
#
#
# Elastic Compliance Matrix: (Units=1/GPa)
#
#
# Indices 1 2 3 4 5 6 
#
# 1 0.021097 -0.000270 -0.000764 0.000000 0.013553 0.000000
# 2 -0.000270 0.016161 -0.010550 0.000000 -0.016372 0.000000
# 3 -0.000764 -0.010550 0.021528 0.000000 0.020921 0.000000
# 4 0.000000 0.000000 0.000000 0.028172 0.000000 0.000835
# 5 0.013553 -0.016372 0.020921 0.000000 0.108414 0.000000
# 6 0.000000 0.000000 0.000000 0.000835 0.000000 0.047123
#
#
# Mechanical properties :
#
#
# Convention : Reuss Voigt Hill
#
# Bulk Modulus (GPa) = 28.07470 35.42290 31.74880
# Shear Modulus (GPa) = 18.01560 25.75864 21.88712
#
# Velocity S-wave (km/s) = 2.74694 3.28462 3.02774
# Velocity P-wave (km/s) = 4.67115 5.40569 5.05179
#
# Compressibility (1/GPa) = 0.03561925
#
# Stress axis : x y z
#
# Youngs Moduli (GPa) = 47.39899 61.87632 46.45061
#
# Poissons Ratio (x) = 0.01668 0.03550
# Poissons Ratio (y) = 0.01278 0.49005
# Poissons Ratio (z) = 0.03623 0.65279
#
# Static dielectric constant tensor:
#      x y z
#    x 2.022910 0.000000 -0.004800 
#    y 0.000000 2.027820 0.000000 
#    z -0.004800 0.000000 1.890220 
# 
# From -- ./inp_files/190268.got.cif
#   From: 2010.05.17/outbox.cif.g08.bks.cpg/sg15_96_cif.got.tgz:190268.got - 2010.06.03 18:47:42.
