data_PCOD9273022
_publ_section_title
;
Structure prediction by ZEFSAII (Michael W. Deem and Ramdas Pophale) SiO2 
 PCOD9273022
Probable space group: C 2/C
;
_chemical_formula_sum "Si O2"
_cell_formula_units_Z 48
_cell_length_a 18.688815
_cell_length_b 8.475110
_cell_length_c 31.119990
_cell_angle_alpha 90.000000
_cell_angle_beta 29.623718
_cell_angle_gamma 90.000000
_cell_volume 2436.456783
_symmetry_space_group_name_H-M "C 2/C"
_symmetry_group_IT_number 15
_symmetry_cell_setting 'monoclinic'
loop_
_space_group_symop_operation_xyz
x,y,z
-x,y,1/2-z
-x,-y,-z
x,-y,1/2+z
1/2+x,1/2+y,z
1/2-x,1/2+y,1/2-z
1/2-x,1/2-y,-z
1/2+x,1/2-y,1/2+z
loop_
_atom_site_type_symbol
_atom_site_label
_atom_site_fract_x
_atom_site_fract_y
_atom_site_fract_z
Si Si1 0.667209 0.702905 0.834325
Si Si2 0.584358 0.138144 0.245330
Si Si3 0.833541 0.306882 0.498691
Si Si4 0.895234 0.350021 0.931944
Si Si5 0.654468 0.675880 0.338832
Si Si6 0.839667 0.716528 0.826709
O O1 0.510210 0.762170 0.902275
O O2 0.659902 0.513596 0.837486
O O3 0.777993 0.759931 0.740233
O O4 0.733179 0.769595 0.844066
O O5 0.500000 0.218279 0.250000
O O6 0.480612 0.119781 0.341705
O O7 0.730506 0.224883 0.184372
O O8 0.631735 0.966970 0.201614
O O9 0.750000 0.250000 0.500000
O O10 0.854352 0.491073 0.478178
O O11 0.739607 0.249492 0.587681
O O12 0.991898 0.235237 0.424690
O O13 0.750000 0.250000 0.000000
O O14 0.000000 0.786932 0.750000
#
# Coordination Sequence:
#
# PCOD9273022 Si02
#       6
#     8   8   8   8   8   8
#     4  10  21  38  60  87 124 160 201 252 311 370
#     4   9  19  38  62  87 121 159 202 252 305 367
#     4  12  23  38  63  88 118 158 207 259 313 380
#     4  11  24  41  61  90 125 165 207 256 315 376
#     4  10  20  37  62  88 118 162 205 253 311 368
#     4  10  21  37  60  88 118 155 202 256 309 367
#
# _framework density 19.70074
#
# number of rings (size 3 to 8) (size 9 to 14) (size 15 to 20)
#    0.000    1.667    0.000    7.000    0.000    4.667 
#    0.000    4.167    0.000    0.000    0.000    0.000 
#    0.000    0.000    0.000    0.000    0.000    0.000 
#
# Total GULP energy -133849.365968 kJ/mol
# GULP energy per Si atom -5577.056915 kJ/mol
# Density = 1.965590 g / cm^3
# Si number density = 19.700740 Si / 1000 Ang^3
#
#
#
# Elastic Constant Matrix: (Units=GPa)
#
#
# Indices 1 2 3 4 5 6 
#
# 1 216.5961 41.3549 106.3325 0.0002 -13.3984 0.0000
# 2 41.3549 76.5346 48.0615 0.0004 -7.1630 -0.0001
# 3 106.3325 48.0615 165.6370 0.0000 -26.1621 0.0000
# 4 0.0002 0.0004 0.0000 27.4751 0.0000 -2.9920
# 5 -13.3984 -7.1630 -26.1621 0.0000 33.9751 0.0000
# 6 0.0000 -0.0001 0.0000 -2.9920 0.0000 43.2295
#
#
#
# Elastic Compliance Matrix: (Units=1/GPa)
#
#
# Indices 1 2 3 4 5 6 
#
# 1 0.006840 -0.001142 -0.004180 0.000000 -0.000762 0.000000
# 2 -0.001142 0.016170 -0.003975 0.000000 -0.000102 0.000000
# 3 -0.004180 -0.003975 0.010794 0.000000 0.005825 0.000000
# 4 0.000000 0.000000 0.000000 0.036673 0.000000 0.002538
# 5 -0.000762 -0.000102 0.005825 0.000000 0.033597 0.000000
# 6 0.000000 0.000000 0.000000 0.002538 0.000000 0.023308
#
#
# Mechanical properties :
#
#
# Convention : Reuss Voigt Hill
#
# Bulk Modulus (GPa) = 65.74652 94.47396 80.11024
# Shear Modulus (GPa) = 33.10273 38.47052 35.78662
#
# Velocity S-wave (km/s) = 4.10357 4.42378 4.26668
# Velocity P-wave (km/s) = 7.47646 8.61114 8.06378
#
# Compressibility (1/GPa) = 0.01520993
#
# Stress axis : x y z
#
# Youngs Moduli (GPa) = 146.20235 61.84438 92.64454
#
# Poissons Ratio (x) = 0.07065 0.38724
# Poissons Ratio (y) = 0.16702 0.36822
# Poissons Ratio (z) = 0.61110 0.24580
#
# Static dielectric constant tensor:
#      x y z
#    x 1.785980 0.000000 -0.134930 
#    y 0.000000 1.886510 0.000000 
#    z -0.134930 0.000000 1.892170 
# 
# From -- ./inp_files/315641.got.cif
#   From: 2010.05.17/outbox.cif.g08.bks.cpg/sg15_158_cif.got.tgz:315641.got - 2010.06.03 18:47:42.
