data_PCOD9273233
_publ_section_title
;
Structure prediction by ZEFSAII (Michael W. Deem and Ramdas Pophale) SiO2 
 PCOD9273233
Probable space group: C 2/C
;
_chemical_formula_sum "Si O2"
_cell_formula_units_Z 64
_cell_length_a 21.578353
_cell_length_b 15.162863
_cell_length_c 14.423730
_cell_angle_alpha 90.000000
_cell_angle_beta 40.371967
_cell_angle_gamma 90.000000
_cell_volume 3056.909989
_symmetry_space_group_name_H-M "C 2/C"
_symmetry_group_IT_number 15
_symmetry_cell_setting 'monoclinic'
loop_
_space_group_symop_operation_xyz
x,y,z
-x,y,1/2-z
-x,-y,-z
x,-y,1/2+z
1/2+x,1/2+y,z
1/2-x,1/2+y,1/2-z
1/2-x,1/2-y,-z
1/2+x,1/2-y,1/2+z
loop_
_atom_site_type_symbol
_atom_site_label
_atom_site_fract_x
_atom_site_fract_y
_atom_site_fract_z
Si Si1 0.562254 0.147503 0.594161
Si Si2 0.653869 0.197635 0.092437
Si Si3 0.003973 0.044190 0.634833
Si Si4 0.252131 0.739842 0.385533
Si Si5 0.095381 0.644046 0.873438
Si Si6 0.999674 0.761097 0.119621
Si Si7 0.142051 0.065542 0.313569
Si Si8 0.669092 0.029280 0.955300
O O1 0.500000 0.182990 0.750000
O O2 0.643976 0.218435 0.475393
O O3 0.484037 0.117264 0.609158
O O4 0.619945 0.058293 0.551304
O O5 0.584749 0.248505 0.097960
O O6 0.586283 0.194649 0.259044
O O7 0.750000 0.250000 0.000000
O O8 0.675597 0.102763 0.026599
O O9 0.958122 0.141103 0.671279
O O10 0.103346 0.059946 0.464016
O O11 0.000000 0.029103 0.750000
O O12 0.945859 0.967711 0.649555
O O13 0.250000 0.750000 0.500000
O O14 0.304201 0.826023 0.285323
O O15 0.314278 0.656515 0.276818
O O16 0.111055 0.574532 0.937403
O O17 0.048137 0.732252 0.970515
O O18 0.228299 0.997300 0.201189
#
# Coordination Sequence:
#
# PCOD9273233 Si02
#       8
#     8   8   8   8   8   8   8   8
#     4  11  24  43  67  93 130 174 215 271 329 391
#     4  10  20  37  63  94 125 166 205 254 325 381
#     4  11  21  41  67  90 135 170 218 278 345 387
#     4  11  23  45  66  93 130 171 226 271 321 399
#     4  11  23  43  66  95 128 171 219 269 327 391
#     4  10  21  37  62  95 127 156 213 268 316 392
#     4  10  24  43  61  98 133 174 221 277 327 402
#     4  10  24  41  64  96 135 165 215 266 333 394
#
# _framework density 20.936174999999999
#
# number of rings (size 3 to 8) (size 9 to 14) (size 15 to 20)
#    0.000    1.500    3.750    1.125    3.500    4.000 
#    2.250    0.000    0.000    0.000    0.000    0.000 
#    0.000    0.000    0.000    0.000    0.000    0.000 
#
# Total GULP energy -178457.567315 kJ/mol
# GULP energy per Si atom -5576.798979 kJ/mol
# Density = 2.088852 g / cm^3
# Si number density = 20.936175 Si / 1000 Ang^3
#
#
#
# Elastic Constant Matrix: (Units=GPa)
#
#
# Indices 1 2 3 4 5 6 
#
# 1 35.5717 4.7635 32.0173 0.0000 -16.3171 0.0000
# 2 4.7635 41.0199 28.0552 0.0000 -12.2502 0.0000
# 3 32.0173 28.0552 155.6031 0.0000 -5.4446 0.0000
# 4 0.0000 0.0000 0.0000 30.7529 0.0000 -0.9817
# 5 -16.3171 -12.2502 -5.4446 0.0000 30.9880 0.0000
# 6 0.0000 0.0000 0.0000 -0.9817 0.0000 18.5105
#
#
#
# Elastic Compliance Matrix: (Units=1/GPa)
#
#
# Indices 1 2 3 4 5 6 
#
# 1 0.049679 0.010251 -0.011081 0.000000 0.028264 0.000000
# 2 0.010251 0.033524 -0.007547 0.000000 0.017324 0.000000
# 3 -0.011081 -0.007547 0.009819 0.000000 -0.007093 0.000000
# 4 0.000000 0.000000 0.000000 0.032572 0.000000 0.001727
# 5 0.028264 0.017324 -0.007093 0.000000 0.052756 0.000000
# 6 0.000000 0.000000 0.000000 0.001727 0.000000 0.054115
#
#
# Mechanical properties :
#
#
# Convention : Reuss Voigt Hill
#
# Bulk Modulus (GPa) = 13.11203 40.20741 26.65972
# Shear Modulus (GPa) = 18.20550 27.20753 22.70652
#
# Velocity S-wave (km/s) = 2.95205 3.60883 3.29684
# Velocity P-wave (km/s) = 4.23036 6.05073 5.22050
#
# Compressibility (1/GPa) = 0.07626585
#
# Stress axis : x y z
#
# Youngs Moduli (GPa) = 20.12942 29.82965 101.84027
#
# Poissons Ratio (x) = -0.30578 1.12851
# Poissons Ratio (y) = -0.20634 0.76862
# Poissons Ratio (z) = 0.22306 0.22514
#
# Static dielectric constant tensor:
#      x y z
#    x 1.782390 0.000000 0.040930 
#    y 0.000000 1.762090 0.000000 
#    z 0.040930 0.000000 1.810780 
# 
# From -- ./inp_files/173663.got.cif
#   From: 2010.05.17/outbox.cif.g08.bks.cpg/sg15_87_cif.got.tgz:173663.got - 2010.06.03 18:47:42.
