data_PCOD9273927
_publ_section_title
;
Structure prediction by ZEFSAII (Michael W. Deem and Ramdas Pophale) SiO2 
 PCOD9273927
Probable space group: C 2/C
;
_chemical_formula_sum "Si O2"
_cell_formula_units_Z 44
_cell_length_a 7.338695
_cell_length_b 17.699320
_cell_length_c 19.737472
_cell_angle_alpha 90.000000
_cell_angle_beta 112.705075
_cell_angle_gamma 90.000000
_cell_volume 2365.021861
_symmetry_space_group_name_H-M "C 2/C"
_symmetry_group_IT_number 15
_symmetry_cell_setting 'monoclinic'
loop_
_space_group_symop_operation_xyz
x,y,z
-x,y,1/2-z
-x,-y,-z
x,-y,1/2+z
1/2+x,1/2+y,z
1/2-x,1/2+y,1/2-z
1/2-x,1/2-y,-z
1/2+x,1/2-y,1/2+z
loop_
_atom_site_type_symbol
_atom_site_label
_atom_site_fract_x
_atom_site_fract_y
_atom_site_fract_z
Si Si1 0.018665 0.043272 0.073283
Si Si2 0.324376 0.498695 0.180828
Si Si3 0.534600 0.713944 0.477925
Si Si4 0.391907 0.259567 0.107775
Si Si5 0.000000 0.854153 0.250000
Si Si6 0.049320 0.406913 0.835010
O O1 0.244841 0.049013 0.129967
O O2 0.893149 0.001799 0.113212
O O3 0.957856 0.130671 0.053652
O O4 0.000000 0.000000 0.000000
O O5 0.500000 0.537709 0.250000
O O6 0.323282 0.414254 0.211658
O O7 0.123027 0.541326 0.161424
O O8 0.750000 0.750000 0.500000
O O9 0.469732 0.709256 0.547530
O O10 0.348200 0.761562 0.420847
O O11 0.499795 0.302932 0.183859
O O12 0.437569 0.170542 0.121060
O O13 0.000000 0.388390 0.750000
#
# Coordination Sequence:
#
# PCOD9273927 Si02
#       6
#     8   8   8   8   4   8
#     4  11  23  39  61  89 122 159 203 251 303 361
#     4  10  22  37  59  87 118 154 202 246 298 364
#     4  10  22  39  58  86 118 157 201 246 299 361
#     4  10  21  38  60  84 119 156 199 249 302 356
#     4  10  20  38  60  88 120 154 198 254 300 350
#     4  11  20  38  62  85 119 164 202 248 306 361
#
# _framework density 18.604479000000001
#
# number of rings (size 3 to 8) (size 9 to 14) (size 15 to 20)
#    0.545    1.091    2.727    2.182    0.000    2.182 
#    0.000    2.727    0.000    0.000    0.000    0.000 
#    0.000    0.000    0.000    0.000    0.000    0.000 
#
# Total GULP energy -122661.360151 kJ/mol
# GULP energy per Si atom -5575.516371 kJ/mol
# Density = 1.856213 g / cm^3
# Si number density = 18.604479 Si / 1000 Ang^3
#
#
#
# Elastic Constant Matrix: (Units=GPa)
#
#
# Indices 1 2 3 4 5 6 
#
# 1 82.7843 33.0749 19.5973 0.0000 8.9531 0.0000
# 2 33.0749 55.6659 14.2454 0.0000 10.5409 0.0000
# 3 19.5973 14.2454 92.6426 0.0000 -9.0923 0.0000
# 4 0.0000 0.0000 0.0000 26.5160 0.0000 -9.7129
# 5 8.9531 10.5409 -9.0923 0.0000 24.0078 0.0000
# 6 0.0000 0.0000 0.0000 -9.7129 0.0000 3.6465
#
#
#
# Elastic Compliance Matrix: (Units=1/GPa)
#
#
# Indices 1 2 3 4 5 6 
#
# 1 0.016423 -0.008485 -0.002497 0.000000 -0.003345 0.000000
# 2 -0.008485 0.025522 -0.003031 0.000000 -0.009189 0.000000
# 3 -0.002497 -0.003031 0.012474 0.000000 0.006987 0.000000
# 4 0.000000 0.000000 0.000000 1.551014 0.000000 4.131299
# 5 -0.003345 -0.009189 0.006987 0.000000 0.049581 0.000000
# 6 0.000000 0.000000 0.000000 4.131299 0.000000 11.278413
#
#
# Mechanical properties :
#
#
# Convention : Reuss Voigt Hill
#
# Bulk Modulus (GPa) = 37.89240 40.54754 39.21997
# Shear Modulus (GPa) = 0.38550 21.77907 11.08229
#
# Velocity S-wave (km/s) = 0.45569 3.42517 2.44330
# Velocity P-wave (km/s) = 4.54846 6.12243 5.39317
#
# Compressibility (1/GPa) = 0.02639051
#
# Stress axis : x y z
#
# Youngs Moduli (GPa) = 60.89133 39.18205 80.16488
#
# Poissons Ratio (x) = 0.33247 0.20021
# Poissons Ratio (y) = 0.51668 0.24301
# Poissons Ratio (z) = 0.15208 0.11877
#
# Static dielectric constant tensor:
#      x y z
#    x 1.471150 0.000000 -0.034820 
#    y 0.000000 1.646210 0.000000 
#    z -0.034820 0.000000 1.664280 
# 
# From -- ./inp_files/227260.got.cif
#   From: 2010.05.17/outbox.cif.g08.bks.cpg/sg15_114_cif.got.tgz:227260.got - 2010.06.03 18:47:42.
