data_PCOD9273800
_publ_section_title
;
Structure prediction by ZEFSAII (Michael W. Deem and Ramdas Pophale) SiO2 
 PCOD9273800
Probable space group: C 2/C
;
_chemical_formula_sum "Si O2"
_cell_formula_units_Z 52
_cell_length_a 7.238856
_cell_length_b 12.834653
_cell_length_c 25.344022
_cell_angle_alpha 90.000000
_cell_angle_beta 70.056875
_cell_angle_gamma 90.000000
_cell_volume 2213.462096
_symmetry_space_group_name_H-M "C 2/C"
_symmetry_group_IT_number 15
_symmetry_cell_setting 'monoclinic'
loop_
_space_group_symop_operation_xyz
x,y,z
-x,y,1/2-z
-x,-y,-z
x,-y,1/2+z
1/2+x,1/2+y,z
1/2-x,1/2+y,1/2-z
1/2-x,1/2-y,-z
1/2+x,1/2-y,1/2+z
loop_
_atom_site_type_symbol
_atom_site_label
_atom_site_fract_x
_atom_site_fract_y
_atom_site_fract_z
Si Si1 0.039760 0.208286 0.078169
Si Si2 0.647943 0.269483 0.066011
Si Si3 0.795630 0.141416 0.184644
Si Si4 0.152096 0.887434 0.462214
Si Si5 0.934565 0.452849 0.886181
Si Si6 0.500000 0.692228 0.750000
Si Si7 0.686174 0.977204 0.270335
O O1 0.839842 0.272740 0.084408
O O2 0.004630 0.174449 0.141763
O O3 0.224155 0.281698 0.055671
O O4 0.060807 0.120033 0.030253
O O5 0.511945 0.369683 0.067539
O O6 0.533036 0.163048 0.093690
O O7 0.750000 0.250000 0.000000
O O8 0.718742 0.064198 0.146854
O O9 0.630640 0.231344 0.201938
O O10 0.784319 0.084632 0.241292
O O11 0.312658 0.977308 0.439052
O O12 0.113991 0.508908 0.837878
O O13 0.663146 0.614686 0.756595
O O14 0.500000 0.961797 0.250000
#
# Coordination Sequence:
#
# PCOD9273800 Si02
#       7
#     8   8   8   8   8   4   8
#     4   9  20  37  59  86 119 156 198 250 299 356
#     4   9  20  36  57  84 117 158 194 240 305 351
#     4  10  21  41  59  87 126 151 203 260 291 368
#     4  10  20  38  59  86 119 157 199 245 304 358
#     4  10  20  39  61  86 125 152 204 259 288 371
#     4  12  22  42  66  82 126 164 196 260 312 354
#     4  10  23  42  61  92 119 162 209 247 314 363
#
# _framework density 23.492608000000001
#
# number of rings (size 3 to 8) (size 9 to 14) (size 15 to 20)
#    0.000    2.154    2.308    0.923    0.000   11.692 
#    1.385   11.538    0.000    0.000    0.000    0.000 
#    0.000    0.000    0.000    0.000    0.000    0.000 
#
# Total GULP energy -144864.934249 kJ/mol
# GULP energy per Si atom -5571.728240 kJ/mol
# Density = 2.343914 g / cm^3
# Si number density = 23.492608 Si / 1000 Ang^3
#
#
#
# Elastic Constant Matrix: (Units=GPa)
#
#
# Indices 1 2 3 4 5 6 
#
# 1 53.0516 14.7860 25.7761 0.0000 -8.2842 0.0000
# 2 14.7860 68.8421 47.7783 0.0000 -10.2317 0.0000
# 3 25.7761 47.7783 140.8482 0.0000 -33.9578 0.0000
# 4 0.0000 0.0000 0.0000 108.5783 0.0000 -33.4436
# 5 -8.2842 -10.2317 -33.9578 0.0000 20.2076 0.0000
# 6 0.0000 0.0000 0.0000 -33.4436 0.0000 39.6225
#
#
#
# Elastic Compliance Matrix: (Units=1/GPa)
#
#
# Indices 1 2 3 4 5 6 
#
# 1 0.021173 -0.002526 -0.002074 0.000000 0.003916 0.000000
# 2 -0.002526 0.019350 -0.006706 0.000000 -0.002507 0.000000
# 3 -0.002074 -0.006706 0.014677 0.000000 0.020418 0.000000
# 4 0.000000 0.000000 0.000000 0.012446 0.000000 0.010505
# 5 0.003916 -0.002507 0.020418 0.000000 0.084134 0.000000
# 6 0.000000 0.000000 0.000000 0.010505 0.000000 0.034105
#
#
# Mechanical properties :
#
#
# Convention : Reuss Voigt Hill
#
# Bulk Modulus (GPa) = 30.68647 48.82473 39.75560
# Shear Modulus (GPa) = 22.79371 45.30844 34.05108
#
# Velocity S-wave (km/s) = 3.11826 4.39638 3.81128
# Velocity P-wave (km/s) = 5.10444 6.82634 6.02720
#
# Compressibility (1/GPa) = 0.03258766
#
# Stress axis : x y z
#
# Youngs Moduli (GPa) = 47.23060 51.67913 68.13424
#
# Poissons Ratio (x) = 0.13056 0.14128
# Poissons Ratio (y) = 0.11932 0.45692
# Poissons Ratio (z) = 0.09794 0.34657
#
# Static dielectric constant tensor:
#      x y z
#    x 1.901180 0.000000 -0.000730 
#    y 0.000000 1.956340 0.000000 
#    z -0.000730 0.000000 1.970830 
# 
# From -- ./inp_files/307041.got.cif
#   From: 2010.05.17/outbox.cif.g08.bks.cpg/sg15_154_cif.got.tgz:307041.got - 2010.06.03 18:47:42.
