data_PCOD9273012
_publ_section_title
;
Structure prediction by ZEFSAII (Michael W. Deem and Ramdas Pophale) SiO2 
 PCOD9273012
Probable space group: C 2/C
;
_chemical_formula_sum "Si O2"
_cell_formula_units_Z 40
_cell_length_a 6.738905
_cell_length_b 12.341039
_cell_length_c 19.915016
_cell_angle_alpha 90.000000
_cell_angle_beta 73.564031
_cell_angle_gamma 90.000000
_cell_volume 1588.554628
_symmetry_space_group_name_H-M "C 2/C"
_symmetry_group_IT_number 15
_symmetry_cell_setting 'monoclinic'
loop_
_space_group_symop_operation_xyz
x,y,z
-x,y,1/2-z
-x,-y,-z
x,-y,1/2+z
1/2+x,1/2+y,z
1/2-x,1/2+y,1/2-z
1/2-x,1/2-y,-z
1/2+x,1/2-y,1/2+z
loop_
_atom_site_type_symbol
_atom_site_label
_atom_site_fract_x
_atom_site_fract_y
_atom_site_fract_z
Si Si1 0.017935 0.535962 0.167239
Si Si2 0.890351 0.307633 0.156739
Si Si3 0.982114 0.040439 0.597418
Si Si4 0.939617 0.170568 0.466721
Si Si5 0.333016 0.732986 0.687619
O O1 0.251908 0.513366 0.122068
O O2 0.000000 0.522680 0.250000
O O3 0.886225 0.436659 0.150140
O O4 0.935244 0.654161 0.158368
O O5 0.736644 0.263958 0.228187
O O6 0.892112 0.243898 0.087250
O O7 0.120587 0.284098 0.166098
O O8 0.008725 0.114762 0.529134
O O9 0.971068 0.127424 0.658374
O O10 0.117589 0.932619 0.575050
O O11 0.750000 0.250000 0.500000
#
# Coordination Sequence:
#
# PCOD9273012 Si02
#       5
#     8   8   8   8   8
#     4  11  19  37  62  86 118 156 199 251 296 343
#     4  10  20  38  60  89 116 156 198 240 295 351
#     4  10  22  39  61  89 117 158 199 239 298 355
#     4  11  20  39  67  83 122 163 189 243 303 345
#     4  10  20  37  62  87 117 152 198 247 287 351
#
# _framework density 25.180122000000001
#
# number of rings (size 3 to 8) (size 9 to 14) (size 15 to 20)
#    0.000    1.600    8.000    1.200    0.000    0.000 
#    0.000   12.000    0.000    0.000    0.000    0.000 
#    0.000    0.000    0.000    0.000    0.000    0.000 
#
# Total GULP energy -111990.936634 kJ/mol
# GULP energy per Si atom -5599.546832 kJ/mol
# Density = 2.512281 g / cm^3
# Si number density = 25.180122 Si / 1000 Ang^3
#
#
#
# Elastic Constant Matrix: (Units=GPa)
#
#
# Indices 1 2 3 4 5 6 
#
# 1 71.5687 55.5131 30.4907 0.0000 -9.4561 0.0000
# 2 55.5131 255.1167 69.1595 0.0000 -28.2413 0.0000
# 3 30.4907 69.1595 150.9777 0.0000 -25.7819 0.0000
# 4 0.0000 0.0000 0.0000 63.9588 0.0000 -4.8252
# 5 -9.4561 -28.2413 -25.7819 0.0000 19.3414 0.0000
# 6 0.0000 0.0000 0.0000 -4.8252 0.0000 44.4346
#
#
#
# Elastic Compliance Matrix: (Units=1/GPa)
#
#
# Indices 1 2 3 4 5 6 
#
# 1 0.017367 -0.003118 -0.001821 0.000000 0.001510 0.000000
# 2 -0.003118 0.005429 -0.000989 0.000000 0.005085 0.000000
# 3 -0.001821 -0.000989 0.009122 0.000000 0.009825 0.000000
# 4 0.000000 0.000000 0.000000 0.015764 0.000000 0.001712
# 5 0.001510 0.005085 0.009825 0.000000 0.072963 0.000000
# 6 0.000000 0.000000 0.000000 0.001712 0.000000 0.022691
#
#
# Mechanical properties :
#
#
# Convention : Reuss Voigt Hill
#
# Bulk Modulus (GPa) = 49.84620 87.55439 68.70030
# Shear Modulus (GPa) = 30.88725 47.04694 38.96710
#
# Velocity S-wave (km/s) = 3.50616 4.32721 3.93814
# Velocity P-wave (km/s) = 6.01911 7.73389 6.92974
#
# Compressibility (1/GPa) = 0.02006171
#
# Stress axis : x y z
#
# Youngs Moduli (GPa) = 57.58200 184.18736 109.62340
#
# Poissons Ratio (x) = 0.57431 0.19963
# Poissons Ratio (y) = 0.17955 0.10842
# Poissons Ratio (z) = 0.10486 0.18216
#
# Static dielectric constant tensor:
#      x y z
#    x 2.120300 0.000000 0.014130 
#    y 0.000000 1.956650 0.000000 
#    z 0.014130 0.000000 1.960650 
# 
# From -- ./inp_files/262988.got.cif
#   From: 2010.05.17/outbox.cif.g08.bks.cpg/sg15_132_cif.got.tgz:262988.got - 2010.06.03 18:47:42.
