data_PCOD9273695
_publ_section_title
;
Structure prediction by ZEFSAII (Michael W. Deem and Ramdas Pophale) SiO2 
 PCOD9273695
Probable space group: C 2/C
;
_chemical_formula_sum "Si O2"
_cell_formula_units_Z 36
_cell_length_a 10.049410
_cell_length_b 17.199908
_cell_length_c 13.308179
_cell_angle_alpha 90.000000
_cell_angle_beta 38.848155
_cell_angle_gamma 90.000000
_cell_volume 1442.885748
_symmetry_space_group_name_H-M "C 2/C"
_symmetry_group_IT_number 15
_symmetry_cell_setting 'monoclinic'
loop_
_space_group_symop_operation_xyz
x,y,z
-x,y,1/2-z
-x,-y,-z
x,-y,1/2+z
1/2+x,1/2+y,z
1/2-x,1/2+y,1/2-z
1/2-x,1/2-y,-z
1/2+x,1/2-y,1/2+z
loop_
_atom_site_type_symbol
_atom_site_label
_atom_site_fract_x
_atom_site_fract_y
_atom_site_fract_z
Si Si1 0.498806 0.893061 0.917020
Si Si2 0.159809 0.993633 0.238984
Si Si3 0.461781 0.225618 0.931330
Si Si4 0.000000 0.276349 0.750000
Si Si5 0.107032 0.837060 0.369364
O O1 0.583381 0.836210 0.954352
O O2 0.402352 0.839450 0.886001
O O3 0.698589 0.948262 0.778264
O O4 0.320433 0.946060 0.072006
O O5 0.068650 0.926169 0.364531
O O6 0.000000 0.029574 0.250000
O O7 0.525378 0.302191 0.959967
O O8 0.250000 0.250000 0.000000
O O9 0.643898 0.184168 0.758877
O O10 0.918040 0.214588 0.716364
#
# Coordination Sequence:
#
# PCOD9273695 Si02
#       5
#     8   8   8   4   8
#     4   9  22  38  56  86 121 151 187 253 299 335
#     4  10  20  38  58  83 117 155 194 240 295 357
#     4  10  21  38  59  88 118 152 198 245 293 349
#     4  10  20  38  60  86 118 146 198 244 286 352
#     4  10  21  35  64  87 114 158 198 241 293 350
#
# _framework density 24.950001
#
# number of rings (size 3 to 8) (size 9 to 14) (size 15 to 20)
#    0.000    2.222    1.111    0.667    3.111    6.222 
#   12.000    1.111    0.000    0.000    0.000    0.000 
#    0.000    0.000    0.000    0.000    0.000    0.000 
#
# Total GULP energy -100393.409946 kJ/mol
# GULP energy per Si atom -5577.411664 kJ/mol
# Density = 2.489321 g / cm^3
# Si number density = 24.950001 Si / 1000 Ang^3
#
#
#
# Elastic Constant Matrix: (Units=GPa)
#
#
# Indices 1 2 3 4 5 6 
#
# 1 105.3769 3.9981 -5.8294 0.0002 -0.4370 -0.0005
# 2 3.9981 71.5043 15.7040 -0.0014 -6.6743 0.0000
# 3 -5.8294 15.7040 45.6485 -0.0076 11.4316 0.0025
# 4 0.0002 -0.0014 -0.0076 40.9407 0.0010 -9.1696
# 5 -0.4370 -6.6743 11.4316 0.0010 22.2074 -0.0002
# 6 -0.0005 0.0000 0.0025 -9.1696 -0.0002 18.9811
#
#
#
# Elastic Compliance Matrix: (Units=1/GPa)
#
#
# Indices 1 2 3 4 5 6 
#
# 1 0.009628 -0.001048 0.001862 0.000000 -0.001084 0.000000
# 2 -0.001048 0.016702 -0.008187 -0.000001 0.009213 0.000001
# 3 0.001862 -0.008187 0.029351 0.000005 -0.017533 -0.000001
# 4 0.000000 -0.000001 0.000005 0.027389 -0.000004 0.013231
# 5 -0.001084 0.009213 -0.017533 -0.000004 0.056803 0.000001
# 6 0.000000 0.000001 -0.000001 0.013231 0.000001 0.059076
#
#
# Mechanical properties :
#
#
# Convention : Reuss Voigt Hill
#
# Bulk Modulus (GPa) = 24.42959 27.80833 26.11896
# Shear Modulus (GPa) = 21.99334 30.33631 26.16482
#
# Velocity S-wave (km/s) = 2.97222 3.49074 3.24186
# Velocity P-wave (km/s) = 4.64666 5.23611 4.95017
#
# Compressibility (1/GPa) = 0.04093397
#
# Stress axis : x y z
#
# Youngs Moduli (GPa) = 103.86360 59.87374 34.06987
#
# Poissons Ratio (x) = 0.06277 -0.06342
# Poissons Ratio (y) = 0.10889 0.27893
# Poissons Ratio (z) = -0.19335 0.49018
#
# Static dielectric constant tensor:
#      x y z
#    x 2.015640 0.000000 -0.069750 
#    y 0.000000 1.983830 0.000000 
#    z -0.069750 0.000000 2.087730 
# 
# From -- ./inp_files/57671.got.cif
#   From: 2010.05.17/outbox.cif.g08.bks.cpg/sg15_29_cif.got.tgz:57671.got - 2010.06.03 18:47:42.
