data_PCOD9273114
_publ_section_title
;
Structure prediction by ZEFSAII (Michael W. Deem and Ramdas Pophale) SiO2 
 PCOD9273114
Probable space group: C 2/C
;
_chemical_formula_sum "Si O2"
_cell_formula_units_Z 48
_cell_length_a 20.857949
_cell_length_b 6.843668
_cell_length_c 17.464630
_cell_angle_alpha 90.000000
_cell_angle_beta 87.036661
_cell_angle_gamma 90.000000
_cell_volume 2489.652903
_symmetry_space_group_name_H-M "C 2/C"
_symmetry_group_IT_number 15
_symmetry_cell_setting 'monoclinic'
loop_
_space_group_symop_operation_xyz
x,y,z
-x,y,1/2-z
-x,-y,-z
x,-y,1/2+z
1/2+x,1/2+y,z
1/2-x,1/2+y,1/2-z
1/2-x,1/2-y,-z
1/2+x,1/2-y,1/2+z
loop_
_atom_site_type_symbol
_atom_site_label
_atom_site_fract_x
_atom_site_fract_y
_atom_site_fract_z
Si Si1 0.849100 0.700151 0.134523
Si Si2 0.346309 0.952904 0.275475
Si Si3 0.076638 0.530796 0.077197
Si Si4 0.295664 0.401295 0.691865
Si Si5 0.971435 0.202679 0.530369
Si Si6 0.693052 0.856232 0.457008
O O1 0.874995 0.548134 0.196382
O O2 0.903968 0.792988 0.078362
O O3 0.800235 0.570613 0.084698
O O4 0.819807 0.879646 0.182229
O O5 0.324784 0.731152 0.257662
O O6 0.392171 0.973633 0.344684
O O7 0.280935 0.074179 0.296494
O O8 0.023533 0.698629 0.082831
O O9 0.041469 0.346135 0.040553
O O10 0.132608 0.608966 0.016500
O O11 0.316007 0.289134 0.613484
O O12 0.000000 0.000000 0.500000
O O13 0.750000 0.750000 0.500000
#
# Coordination Sequence:
#
# PCOD9273114 Si02
#       6
#     8   8   8   8   8   8
#     4  10  23  39  60  91 129 165 208 259 312 385
#     4  11  22  38  61  91 126 167 198 259 325 383
#     4  10  22  41  64  91 122 159 213 265 311 374
#     4  11  21  38  58  91 132 161 200 256 320 384
#     4  10  22  44  64  88 122 166 216 265 307 371
#     4  10  20  37  62  94 120 158 210 261 318 371
#
# _framework density 19.279798
#
# number of rings (size 3 to 8) (size 9 to 14) (size 15 to 20)
#    0.000    1.667    3.333    1.000    0.000    4.000 
#    3.000    0.000    0.000    0.000    0.000    0.000 
#    0.000    0.000    0.000    0.000    0.000    0.000 
#
# Total GULP energy -133771.062597 kJ/mol
# GULP energy per Si atom -5573.794275 kJ/mol
# Density = 1.923592 g / cm^3
# Si number density = 19.279798 Si / 1000 Ang^3
#
#
#
# Elastic Constant Matrix: (Units=GPa)
#
#
# Indices 1 2 3 4 5 6 
#
# 1 60.5599 58.8065 30.9665 0.0000 20.6698 0.0000
# 2 58.8065 139.6497 47.3607 0.0000 13.0408 0.0000
# 3 30.9665 47.3607 93.8819 0.0000 25.5570 0.0000
# 4 0.0000 0.0000 0.0000 28.2840 0.0000 -5.8918
# 5 20.6698 13.0408 25.5570 0.0000 34.3628 0.0000
# 6 0.0000 0.0000 0.0000 -5.8918 0.0000 34.6294
#
#
#
# Elastic Compliance Matrix: (Units=1/GPa)
#
#
# Indices 1 2 3 4 5 6 
#
# 1 0.034701 -0.012926 -0.000725 0.000000 -0.015428 0.000000
# 2 -0.012926 0.013454 -0.004075 0.000000 0.005700 0.000000
# 3 -0.000725 -0.004075 0.015557 0.000000 -0.009587 0.000000
# 4 0.000000 0.000000 0.000000 0.036655 0.000000 0.006236
# 5 -0.015428 0.005700 -0.009587 0.000000 0.043349 0.000000
# 6 0.000000 0.000000 0.000000 0.006236 0.000000 0.029938
#
#
# Mechanical properties :
#
#
# Convention : Reuss Voigt Hill
#
# Bulk Modulus (GPa) = 35.38747 63.15100 49.26923
# Shear Modulus (GPa) = 22.88067 29.91908 26.39988
#
# Velocity S-wave (km/s) = 3.44869 3.94361 3.70442
# Velocity P-wave (km/s) = 5.85256 7.31862 6.62626
#
# Compressibility (1/GPa) = 0.02825859
#
# Stress axis : x y z
#
# Youngs Moduli (GPa) = 28.81767 74.32950 64.28135
#
# Poissons Ratio (x) = 0.96077 0.04662
# Poissons Ratio (y) = 0.37249 0.26196
# Poissons Ratio (z) = 0.02090 0.30291
#
# Static dielectric constant tensor:
#      x y z
#    x 1.672690 0.000000 -0.023680 
#    y 0.000000 1.696490 0.000000 
#    z -0.023680 0.000000 1.678420 
# 
# From -- ./inp_files/217531.got.cif
#   From: 2010.05.17/outbox.cif.g08.bks.cpg/sg15_109_cif.got.tgz:217531.got - 2010.06.03 18:47:42.
