data_PCOD9273562
_publ_section_title
;
Structure prediction by ZEFSAII (Michael W. Deem and Ramdas Pophale) SiO2 
 PCOD9273562
Probable space group: C 2/C
;
_chemical_formula_sum "Si O2"
_cell_formula_units_Z 40
_cell_length_a 26.213519
_cell_length_b 14.613728
_cell_length_c 8.897708
_cell_angle_alpha 90.000000
_cell_angle_beta 28.612382
_cell_angle_gamma 90.000000
_cell_volume 1632.272380
_symmetry_space_group_name_H-M "C 2/C"
_symmetry_group_IT_number 15
_symmetry_cell_setting 'monoclinic'
loop_
_space_group_symop_operation_xyz
x,y,z
-x,y,1/2-z
-x,-y,-z
x,-y,1/2+z
1/2+x,1/2+y,z
1/2-x,1/2+y,1/2-z
1/2-x,1/2-y,-z
1/2+x,1/2-y,1/2+z
loop_
_atom_site_type_symbol
_atom_site_label
_atom_site_fract_x
_atom_site_fract_y
_atom_site_fract_z
Si Si1 0.713298 0.372559 0.438541
Si Si2 0.323524 0.738141 0.960224
Si Si3 0.682027 0.982616 0.065009
Si Si4 0.006485 0.370963 0.076952
Si Si5 0.014658 0.098127 0.032691
O O1 0.750598 0.424688 0.491018
O O2 0.589058 0.351407 0.761393
O O3 0.763535 0.275565 0.260498
O O4 0.749337 0.446182 0.213430
O O5 0.428151 0.803520 0.696066
O O6 0.373660 0.638695 0.811953
O O7 0.250000 0.750000 0.000000
O O8 0.589379 0.044387 0.383280
O O9 0.607694 0.910379 0.169129
O O10 0.000000 0.318401 0.250000
O O11 0.000000 0.096778 0.250000
O O12 0.000000 0.000000 0.000000
#
# Coordination Sequence:
#
# PCOD9273562 Si02
#       5
#     8   8   8   8   8
#     4  11  23  44  74 107 146 183 245 298 368 434
#     4  11  25  44  70  99 141 197 242 295 359 444
#     4  10  21  39  69 109 141 182 226 305 357 427
#     4  10  20  37  70  99 139 185 238 283 360 435
#     4  12  26  49  75 105 143 193 248 299 372 441
#
# _framework density 24.505714000000001
#
# number of rings (size 3 to 8) (size 9 to 14) (size 15 to 20)
#    0.000    1.200    4.000    1.800    2.800    0.000 
#    3.600    1.000    0.000    0.000    0.000    0.000 
#    0.000    0.000    0.000    0.000    0.000    0.000 
#
# Total GULP energy -111777.901231 kJ/mol
# GULP energy per Si atom -5588.895062 kJ/mol
# Density = 2.444994 g / cm^3
# Si number density = 24.505714 Si / 1000 Ang^3
#
#
#
# Elastic Constant Matrix: (Units=GPa)
#
#
# Indices 1 2 3 4 5 6 
#
# 1 106.7913 31.9081 18.8930 0.0000 -18.3286 0.0000
# 2 31.9081 117.7372 29.7381 0.0000 -8.6903 0.0000
# 3 18.8930 29.7381 78.3128 0.0000 -23.3079 0.0000
# 4 0.0000 0.0000 0.0000 50.5914 0.0000 -17.1763
# 5 -18.3286 -8.6903 -23.3079 0.0000 36.7177 0.0000
# 6 0.0000 0.0000 0.0000 -17.1763 0.0000 27.5250
#
#
#
# Elastic Compliance Matrix: (Units=1/GPa)
#
#
# Indices 1 2 3 4 5 6 
#
# 1 0.010985 -0.002560 -0.000279 0.000000 0.004700 0.000000
# 2 -0.002560 0.009991 -0.003517 0.000000 -0.001146 0.000000
# 3 -0.000279 -0.003517 0.017117 0.000000 0.009894 0.000000
# 4 0.000000 0.000000 0.000000 0.025080 0.000000 0.015650
# 5 0.004700 -0.001146 0.009894 0.000000 0.035590 0.000000
# 6 0.000000 0.000000 0.000000 0.015650 0.000000 0.046097
#
#
# Mechanical properties :
#
#
# Convention : Reuss Voigt Hill
#
# Bulk Modulus (GPa) = 39.40043 51.54663 45.47353
# Shear Modulus (GPa) = 30.11457 37.78695 33.95076
#
# Velocity S-wave (km/s) = 3.50934 3.93105 3.72616
# Velocity P-wave (km/s) = 5.70382 6.45634 6.09171
#
# Compressibility (1/GPa) = 0.02538044
#
# Stress axis : x y z
#
# Youngs Moduli (GPa) = 91.03358 100.08968 58.42144
#
# Poissons Ratio (x) = 0.25619 0.01631
# Poissons Ratio (y) = 0.23301 0.20550
# Poissons Ratio (z) = 0.02542 0.35206
#
# Static dielectric constant tensor:
#      x y z
#    x 1.944260 0.000000 0.035320 
#    y 0.000000 1.659450 0.000000 
#    z 0.035320 0.000000 2.420020 
# 
# From -- ./inp_files/66954.got.cif
#   From: 2010.05.17/outbox.cif.g08.bks.cpg/sg15_34_cif.got.tgz:66954.got - 2010.06.03 18:47:42.
