data_PCOD9273751
_publ_section_title
;
Structure prediction by ZEFSAII (Michael W. Deem and Ramdas Pophale) SiO2 
 PCOD9273751
Probable space group: C 2/C
;
_chemical_formula_sum "Si O2"
_cell_formula_units_Z 56
_cell_length_a 26.060959
_cell_length_b 10.984903
_cell_length_c 12.217290
_cell_angle_alpha 90.000000
_cell_angle_beta 51.109162
_cell_angle_gamma 90.000000
_cell_volume 2722.280268
_symmetry_space_group_name_H-M "C 2/C"
_symmetry_group_IT_number 15
_symmetry_cell_setting 'monoclinic'
loop_
_space_group_symop_operation_xyz
x,y,z
-x,y,1/2-z
-x,-y,-z
x,-y,1/2+z
1/2+x,1/2+y,z
1/2-x,1/2+y,1/2-z
1/2-x,1/2-y,-z
1/2+x,1/2-y,1/2+z
loop_
_atom_site_type_symbol
_atom_site_label
_atom_site_fract_x
_atom_site_fract_y
_atom_site_fract_z
Si Si1 0.277366 0.550697 0.465544
Si Si2 0.133505 0.032270 0.478241
Si Si3 0.258806 0.151659 0.206669
Si Si4 0.571768 0.218706 0.039873
Si Si5 0.170711 0.149764 0.754940
Si Si6 0.844081 0.543003 0.705754
Si Si7 0.075175 0.651250 0.280613
O O1 0.345484 0.547221 0.444233
O O2 0.266953 0.647186 0.382384
O O3 0.282937 0.423724 0.390327
O O4 0.215119 0.558312 0.628635
O O5 0.199924 0.108841 0.364012
O O6 0.079582 0.137859 0.557019
O O7 0.126720 0.945641 0.382301
O O8 0.286430 0.278130 0.213201
O O9 0.315163 0.048949 0.151728
O O10 0.579415 0.146965 0.143885
O O11 0.499132 0.190433 0.092575
O O12 0.626626 0.165196 0.884984
O O13 0.126332 0.245809 0.751262
O O14 0.902073 0.471164 0.690682
#
# Coordination Sequence:
#
# PCOD9273751 Si02
#       7
#     8   8   8   8   8   8   8
#     4  10  20  38  58  92 122 152 191 250 311 349
#     4  10  22  34  59  87 122 156 193 251 291 373
#     4   9  21  34  59  87 119 156 192 243 304 364
#     4  11  22  39  60  90 114 160 212 236 308 354
#     4  10  21  40  58  88 120 156 202 239 310 355
#     4  10  21  36  60  89 118 151 198 255 300 356
#     4  10  22  39  64  81 119 163 199 257 285 364
#
# _framework density 20.570989999999998
#
# number of rings (size 3 to 8) (size 9 to 14) (size 15 to 20)
#    0.000    2.000    1.429    1.286    8.000    2.857 
#    2.571    0.000    0.000    0.000    0.000    0.000 
#    0.000    0.000    0.000    0.000    0.000    0.000 
#
# Total GULP energy -156323.934902 kJ/mol
# GULP energy per Si atom -5582.997675 kJ/mol
# Density = 2.052417 g / cm^3
# Si number density = 20.570990 Si / 1000 Ang^3
#
#
#
# Elastic Constant Matrix: (Units=GPa)
#
#
# Indices 1 2 3 4 5 6 
#
# 1 88.4251 25.0120 25.0714 0.0000 4.3114 0.0000
# 2 25.0120 48.8977 25.1561 0.0000 5.5595 0.0000
# 3 25.0714 25.1561 77.2824 0.0000 9.3546 0.0000
# 4 0.0000 0.0000 0.0000 15.8569 0.0000 5.9571
# 5 4.3114 5.5595 9.3546 0.0000 25.1147 0.0000
# 6 0.0000 0.0000 0.0000 5.9571 0.0000 18.4767
#
#
#
# Elastic Compliance Matrix: (Units=1/GPa)
#
#
# Indices 1 2 3 4 5 6 
#
# 1 0.013640 -0.005638 -0.002574 0.000000 -0.000135 0.000000
# 2 -0.005638 0.027055 -0.006671 0.000000 -0.002537 0.000000
# 3 -0.002574 -0.006671 0.016455 0.000000 -0.004211 0.000000
# 4 0.000000 0.000000 0.000000 0.071756 0.000000 -0.023135
# 5 -0.000135 -0.002537 -0.004211 0.000000 0.041970 0.000000
# 6 0.000000 0.000000 0.000000 -0.023135 0.000000 0.061581
#
#
# Mechanical properties :
#
#
# Convention : Reuss Voigt Hill
#
# Bulk Modulus (GPa) = 36.51424 40.56489 38.53956
# Shear Modulus (GPa) = 18.42639 21.18071 19.80355
#
# Velocity S-wave (km/s) = 2.99615 3.21228 3.10610
# Velocity P-wave (km/s) = 5.45510 5.78970 5.62489
#
# Compressibility (1/GPa) = 0.02738658
#
# Stress axis : x y z
#
# Youngs Moduli (GPa) = 73.31404 36.96199 60.77007
#
# Poissons Ratio (x) = 0.20838 0.15639
# Poissons Ratio (y) = 0.41332 0.40537
# Poissons Ratio (z) = 0.18867 0.24656
#
# Static dielectric constant tensor:
#      x y z
#    x 1.762020 0.000000 0.023570 
#    y 0.000000 1.763150 0.000000 
#    z 0.023570 0.000000 1.723920 
# 
# From -- ./inp_files/117473.got.cif
#   From: 2010.05.17/outbox.cif.g08.bks.cpg/sg15_59_cif.got.tgz:117473.got - 2010.06.03 18:47:42.
