data_PCOD9273629
_publ_section_title
;
Structure prediction by ZEFSAII (Michael W. Deem and Ramdas Pophale) SiO2 
 PCOD9273629
Probable space group: C 2/C
;
_chemical_formula_sum "Si O2"
_cell_formula_units_Z 36
_cell_length_a 19.200550
_cell_length_b 7.950123
_cell_length_c 15.442185
_cell_angle_alpha 90.000000
_cell_angle_beta 135.139160
_cell_angle_gamma 90.000000
_cell_volume 1662.738259
_symmetry_space_group_name_H-M "C 2/C"
_symmetry_group_IT_number 15
_symmetry_cell_setting 'monoclinic'
loop_
_space_group_symop_operation_xyz
x,y,z
-x,y,1/2-z
-x,-y,-z
x,-y,1/2+z
1/2+x,1/2+y,z
1/2-x,1/2+y,1/2-z
1/2-x,1/2-y,-z
1/2+x,1/2-y,1/2+z
loop_
_atom_site_type_symbol
_atom_site_label
_atom_site_fract_x
_atom_site_fract_y
_atom_site_fract_z
Si Si1 0.000000 0.786553 0.250000
Si Si2 0.105856 0.820196 0.658842
Si Si3 0.791433 0.696292 0.442657
Si Si4 0.991265 0.464694 0.146516
Si Si5 0.585765 0.526898 0.965886
O O1 0.972859 0.653891 0.302371
O O2 0.084407 0.898615 0.367938
O O3 0.204648 0.844413 0.800200
O O4 0.116463 0.841340 0.565844
O O5 0.058125 0.640518 0.640908
O O6 0.025935 0.961102 0.617132
O O7 0.750000 0.750000 0.500000
O O8 0.876091 0.554190 0.523051
O O9 0.847711 0.864311 0.462323
O O10 0.000000 0.378519 0.250000
#
# Coordination Sequence:
#
# PCOD9273629 Si02
#       5
#     4   8   8   8   8
#     4  10  20  38  56  86 120 154 204 244 294 358
#     4  10  21  41  60  87 121 160 202 248 301 359
#     4  11  19  37  64  85 118 162 201 242 304 363
#     4   9  20  37  58  89 115 165 193 240 316 340
#     4  10  23  38  62  88 119 161 202 250 295 357
#
# _framework density 21.651033000000002
#
# number of rings (size 3 to 8) (size 9 to 14) (size 15 to 20)
#    0.667    1.333    2.222    1.333    3.111    2.667 
#    0.000   21.111    0.000    0.000    0.000    0.000 
#    0.000    0.000    0.000    0.000    0.000    0.000 
#
# Total GULP energy -100431.538560 kJ/mol
# GULP energy per Si atom -5579.529920 kJ/mol
# Density = 2.160175 g / cm^3
# Si number density = 21.651033 Si / 1000 Ang^3
#
#
#
# Elastic Constant Matrix: (Units=GPa)
#
#
# Indices 1 2 3 4 5 6 
#
# 1 38.7584 6.3130 48.1704 0.0000 4.6298 0.0000
# 2 6.3130 65.8052 36.9375 0.0000 -2.4452 0.0000
# 3 48.1704 36.9375 204.9895 0.0000 15.0625 0.0000
# 4 0.0000 0.0000 0.0000 31.3567 0.0000 -13.5356
# 5 4.6298 -2.4452 15.0625 0.0000 30.6156 0.0000
# 6 0.0000 0.0000 0.0000 -13.5356 0.0000 8.6153
#
#
#
# Elastic Compliance Matrix: (Units=1/GPa)
#
#
# Indices 1 2 3 4 5 6 
#
# 1 0.036607 0.001368 -0.008767 0.000000 -0.001113 0.000000
# 2 0.001368 0.017219 -0.003642 0.000000 0.002960 0.000000
# 3 -0.008767 -0.003642 0.007801 0.000000 -0.002803 0.000000
# 4 0.000000 0.000000 0.000000 0.099101 0.000000 0.155698
# 5 -0.001113 0.002960 -0.002803 0.000000 0.034447 0.000000
# 6 0.000000 0.000000 0.000000 0.155698 0.000000 0.360693
#
#
# Mechanical properties :
#
#
# Convention : Reuss Voigt Hill
#
# Bulk Modulus (GPa) = 25.28761 54.71056 39.99909
# Shear Modulus (GPa) = 8.45837 28.65968 18.55902
#
# Velocity S-wave (km/s) = 1.97868 3.64223 2.93096
# Velocity P-wave (km/s) = 4.11403 6.55835 5.47435
#
# Compressibility (1/GPa) = 0.03954506
#
# Stress axis : x y z
#
# Youngs Moduli (GPa) = 27.31728 58.07441 128.19558
#
# Poissons Ratio (x) = -0.07943 1.12387
# Poissons Ratio (y) = -0.03736 0.46685
# Poissons Ratio (z) = 0.23949 0.21149
#
# Static dielectric constant tensor:
#      x y z
#    x 1.812640 0.000000 -0.035970 
#    y 0.000000 1.840210 0.000000 
#    z -0.035970 0.000000 1.800170 
# 
# From -- ./inp_files/109517.got.cif
#   From: 2010.05.17/outbox.cif.g08.bks.cpg/sg15_55_cif.got.tgz:109517.got - 2010.06.03 18:47:42.
