data_PCOD9273682
_publ_section_title
;
Structure prediction by ZEFSAII (Michael W. Deem and Ramdas Pophale) SiO2 
 PCOD9273682
Probable space group: C 2/C
;
_chemical_formula_sum "Si O2"
_cell_formula_units_Z 24
_cell_length_a 16.068894
_cell_length_b 11.250915
_cell_length_c 5.033644
_cell_angle_alpha 90.000000
_cell_angle_beta 73.726799
_cell_angle_gamma 90.000000
_cell_volume 873.572221
_symmetry_space_group_name_H-M "C 2/C"
_symmetry_group_IT_number 15
_symmetry_cell_setting 'monoclinic'
loop_
_space_group_symop_operation_xyz
x,y,z
-x,y,1/2-z
-x,-y,-z
x,-y,1/2+z
1/2+x,1/2+y,z
1/2-x,1/2+y,1/2-z
1/2-x,1/2-y,-z
1/2+x,1/2-y,1/2+z
loop_
_atom_site_type_symbol
_atom_site_label
_atom_site_fract_x
_atom_site_fract_y
_atom_site_fract_z
Si Si1 0.703647 0.866836 0.659122
Si Si2 0.393034 0.565240 0.023172
Si Si3 0.407920 0.168704 0.719727
O O1 0.750000 0.750000 0.500000
O O2 0.787969 0.945730 0.627399
O O3 0.633513 0.901100 0.494867
O O4 0.657718 0.833851 0.974731
O O5 0.420947 0.461861 0.199502
O O6 0.417445 0.695424 0.106040
O O7 0.500000 0.127527 0.750000
#
# Coordination Sequence:
#
# PCOD9273682 Si02
#       3
#     8   8   8
#     4  10  20  38  58  79 110 153 196 220 259 336
#     4  11  21  35  58  85 113 145 182 230 280 328
#     4  11  22  37  59  85 114 147 184 230 280 331
#
# _framework density 27.473400999999999
#
# number of rings (size 3 to 8) (size 9 to 14) (size 15 to 20)
#    0.000    1.333    0.000   11.000    0.000    1.333 
#    0.000    0.000    0.000   20.000    0.000    0.000 
#    0.000    0.000    0.000    0.000    0.000    0.000 
#
# Total GULP energy -67349.125141 kJ/mol
# GULP energy per Si atom -5612.427095 kJ/mol
# Density = 2.741087 g / cm^3
# Si number density = 27.473401 Si / 1000 Ang^3
#
#
#
# Elastic Constant Matrix: (Units=GPa)
#
#
# Indices 1 2 3 4 5 6 
#
# 1 179.6934 15.8207 15.7412 0.0000 38.4800 0.0000
# 2 15.8207 93.6734 33.1702 0.0000 7.9502 0.0000
# 3 15.7412 33.1702 186.0401 0.0000 1.0872 0.0000
# 4 0.0000 0.0000 0.0000 36.2164 0.0000 7.6437
# 5 38.4800 7.9502 1.0872 0.0000 57.5932 0.0000
# 6 0.0000 0.0000 0.0000 7.6437 0.0000 40.7630
#
#
#
# Elastic Compliance Matrix: (Units=1/GPa)
#
#
# Indices 1 2 3 4 5 6 
#
# 1 0.006576 -0.000595 -0.000425 0.000000 -0.004304 0.000000
# 2 -0.000595 0.011586 -0.002009 0.000000 -0.001164 0.000000
# 3 -0.000425 -0.002009 0.005767 0.000000 0.000453 0.000000
# 4 0.000000 0.000000 0.000000 0.028750 0.000000 -0.005391
# 5 -0.004304 -0.001164 0.000453 0.000000 0.020391 0.000000
# 6 0.000000 0.000000 0.000000 -0.005391 0.000000 0.025543
#
#
# Mechanical properties :
#
#
# Convention : Reuss Voigt Hill
#
# Bulk Modulus (GPa) = 55.95506 65.43013 60.69259
# Shear Modulus (GPa) = 45.19714 53.22619 49.21166
#
# Velocity S-wave (km/s) = 4.06041 4.40633 4.23690
# Velocity P-wave (km/s) = 6.51105 7.05374 6.78782
#
# Compressibility (1/GPa) = 0.01787149
#
# Stress axis : x y z
#
# Youngs Moduli (GPa) = 152.06225 86.31191 173.41112
#
# Poissons Ratio (x) = 0.05134 0.07374
# Poissons Ratio (y) = 0.09045 0.34831
# Poissons Ratio (z) = 0.06466 0.17336
#
# Static dielectric constant tensor:
#      x y z
#    x 2.290730 0.000000 0.057370 
#    y 0.000000 2.186830 0.000000 
#    z 0.057370 0.000000 2.055820 
# 
# From -- ./inp_files/3224.got.cif
#   From: 2010.05.17/outbox.cif.g08.bks.cpg/sg15_2_cif.got.tgz:3224.got - 2010.06.03 18:47:42.
