data_PCOD9273996
_publ_section_title
;
Structure prediction by ZEFSAII (Michael W. Deem and Ramdas Pophale) SiO2 
 PCOD9273996
Probable space group: C 2/C
;
_chemical_formula_sum "Si O2"
_cell_formula_units_Z 64
_cell_length_a 19.845404
_cell_length_b 17.865100
_cell_length_c 24.246106
_cell_angle_alpha 90.000000
_cell_angle_beta 21.454009
_cell_angle_gamma 90.000000
_cell_volume 3144.103238
_symmetry_space_group_name_H-M "C 2/C"
_symmetry_group_IT_number 15
_symmetry_cell_setting 'monoclinic'
loop_
_space_group_symop_operation_xyz
x,y,z
-x,y,1/2-z
-x,-y,-z
x,-y,1/2+z
1/2+x,1/2+y,z
1/2-x,1/2+y,1/2-z
1/2-x,1/2-y,-z
1/2+x,1/2-y,1/2+z
loop_
_atom_site_type_symbol
_atom_site_label
_atom_site_fract_x
_atom_site_fract_y
_atom_site_fract_z
Si Si1 0.279368 0.513123 0.557826
Si Si2 0.370906 0.575477 0.148341
Si Si3 0.577899 0.642967 0.599673
Si Si4 0.550642 0.152614 0.435734
Si Si5 0.912040 0.470924 0.402243
Si Si6 0.220717 0.377894 0.448537
Si Si7 0.850272 0.418804 0.185564
Si Si8 0.001037 0.182278 0.540051
O O1 0.427339 0.555474 0.482587
O O2 0.373792 0.438508 0.462190
O O3 0.210294 0.557192 0.555764
O O4 0.095255 0.495171 0.732918
O O5 0.262844 0.630428 0.271694
O O6 0.255519 0.498449 0.232068
O O7 0.385663 0.620278 0.079927
O O8 0.727872 0.660552 0.532551
O O9 0.384667 0.638233 0.780007
O O10 0.568225 0.692039 0.551941
O O11 0.468074 0.141871 0.437448
O O12 0.449046 0.094319 0.552419
O O13 0.505999 0.237984 0.484406
O O14 0.798269 0.534628 0.521098
O O15 0.998620 0.416132 0.381268
O O16 0.701088 0.353512 0.303641
#
# Coordination Sequence:
#
# PCOD9273996 Si02
#       8
#     8   8   8   8   8   8   8   8
#     4  10  20  38  60  95 122 155 206 260 308 355
#     4  12  23  39  68  93 120 167 211 258 304 362
#     4  10  21  37  61  87 126 164 204 248 301 372
#     4  12  26  39  61  93 132 162 203 258 316 366
#     4  10  21  36  63  92 123 155 205 264 304 357
#     4  10  21  38  58  90 125 164 203 247 306 366
#     4  12  22  41  64  92 120 163 214 258 300 367
#     4  12  24  41  62  91 129 167 205 254 314 366
#
# _framework density 20.355566
#
# number of rings (size 3 to 8) (size 9 to 14) (size 15 to 20)
#    0.000    1.000    5.000    2.250    1.750    0.500 
#    0.000    0.000    0.000    4.500    0.000    0.000 
#    0.000    0.000    0.000    0.000    0.000    0.000 
#
# Total GULP energy -178655.981048 kJ/mol
# GULP energy per Si atom -5582.999408 kJ/mol
# Density = 2.030924 g / cm^3
# Si number density = 20.355566 Si / 1000 Ang^3
#
#
#
# Elastic Constant Matrix: (Units=GPa)
#
#
# Indices 1 2 3 4 5 6 
#
# 1 105.3216 24.3180 18.3189 0.0338 7.8070 0.0079
# 2 24.3180 56.4882 19.2802 -0.0311 13.4528 -0.0137
# 3 18.3189 19.2802 70.5677 0.0275 8.4870 -0.0173
# 4 0.0338 -0.0311 0.0275 14.8713 -0.0196 5.5590
# 5 7.8070 13.4528 8.4870 -0.0196 23.1666 -0.0046
# 6 0.0079 -0.0137 -0.0173 5.5590 -0.0046 17.5095
#
#
#
# Elastic Compliance Matrix: (Units=1/GPa)
#
#
# Indices 1 2 3 4 5 6 
#
# 1 0.010731 -0.003880 -0.001634 -0.000030 -0.000765 0.000000
# 2 -0.003880 0.023322 -0.004073 0.000052 -0.010743 -0.000003
# 3 -0.001634 -0.004073 0.016065 -0.000049 -0.002970 0.000028
# 4 -0.000030 0.000052 -0.000049 0.076299 0.000057 -0.024224
# 5 -0.000765 -0.010743 -0.002970 0.000057 0.050750 -0.000016
# 6 0.000000 -0.000003 0.000028 -0.024224 -0.000016 0.064803
#
#
# Mechanical properties :
#
#
# Convention : Reuss Voigt Hill
#
# Bulk Modulus (GPa) = 32.31518 39.57906 35.94712
# Shear Modulus (GPa) = 18.41908 22.47351 20.44629
#
# Velocity S-wave (km/s) = 3.01136 3.32633 3.17276
# Velocity P-wave (km/s) = 5.29159 5.85138 5.57851
#
# Compressibility (1/GPa) = 0.03094521
#
# Stress axis : x y z
#
# Youngs Moduli (GPa) = 93.18373 42.87840 62.24797
#
# Poissons Ratio (x) = 0.16637 0.10170
# Poissons Ratio (y) = 0.36157 0.25351
# Poissons Ratio (z) = 0.15224 0.17462
#
# Static dielectric constant tensor:
#      x y z
#    x 1.764340 0.000010 0.009270 
#    y 0.000010 1.705050 0.000060 
#    z 0.009270 0.000060 1.734140 
# 
# From -- ./inp_files/280485.got.cif
#   From: 2010.05.17/outbox.cif.g08.bks.cpg/sg15_141_cif.got.tgz:280485.got - 2010.06.03 18:47:42.
