data_PCOD9273626
_publ_section_title
;
Structure prediction by ZEFSAII (Michael W. Deem and Ramdas Pophale) SiO2 
 PCOD9273626
Probable space group: C 2/C
;
_chemical_formula_sum "Si O2"
_cell_formula_units_Z 44
_cell_length_a 8.935727
_cell_length_b 23.219269
_cell_length_c 10.930859
_cell_angle_alpha 90.000000
_cell_angle_beta 95.463867
_cell_angle_gamma 90.000000
_cell_volume 2257.641552
_symmetry_space_group_name_H-M "C 2/C"
_symmetry_group_IT_number 15
_symmetry_cell_setting 'monoclinic'
loop_
_space_group_symop_operation_xyz
x,y,z
-x,y,1/2-z
-x,-y,-z
x,-y,1/2+z
1/2+x,1/2+y,z
1/2-x,1/2+y,1/2-z
1/2-x,1/2-y,-z
1/2+x,1/2-y,1/2+z
loop_
_atom_site_type_symbol
_atom_site_label
_atom_site_fract_x
_atom_site_fract_y
_atom_site_fract_z
Si Si1 0.627597 0.588208 0.999320
Si Si2 0.296009 0.758870 0.863322
Si Si3 0.176760 0.385093 0.746355
Si Si4 0.122740 0.026472 0.367816
Si Si5 0.500000 0.744785 0.250000
Si Si6 0.906496 0.215067 0.515553
O O1 0.739618 0.602589 0.119415
O O2 0.470006 0.563939 0.040347
O O3 0.609534 0.650207 0.937837
O O4 0.677802 0.534950 0.920629
O O5 0.281702 0.823181 0.808154
O O6 0.161955 0.724497 0.782791
O O7 0.250000 0.750000 0.000000
O O8 0.471894 0.744396 0.886029
O O9 0.240185 0.434891 0.665069
O O10 0.000000 0.387241 0.750000
O O11 0.000000 0.017684 0.250000
O O12 0.470425 0.713083 0.379147
O O13 0.750000 0.250000 0.500000
#
# Coordination Sequence:
#
# PCOD9273626 Si02
#       6
#     8   8   8   8   4   8
#     4  10  20  39  64  86 116 160 206 248 300 370
#     4  10  21  35  59  90 119 161 205 248 307 371
#     4  11  21  36  63  90 121 161 203 251 310 372
#     4   9  20  38  62  89 114 154 209 252 294 358
#     4  10  20  38  56  82 120 162 202 244 300 358
#     4  11  22  37  61  91 123 159 205 251 309 381
#
# _framework density 19.489363999999998
#
# number of rings (size 3 to 8) (size 9 to 14) (size 15 to 20)
#    0.000    1.818    1.818    3.273    2.545    0.727 
#    3.273    0.000    6.000    0.000    0.000    0.000 
#    0.000    0.000    0.000    0.000    0.000    0.000 
#
# Total GULP energy -122509.523991 kJ/mol
# GULP energy per Si atom -5568.614727 kJ/mol
# Density = 1.944501 g / cm^3
# Si number density = 19.489364 Si / 1000 Ang^3
#
#
#
# Elastic Constant Matrix: (Units=GPa)
#
#
# Indices 1 2 3 4 5 6 
#
# 1 132.2911 53.8370 37.7099 0.0000 19.6179 0.0000
# 2 53.8370 147.2861 44.6773 0.0000 7.8448 0.0000
# 3 37.7099 44.6773 62.1009 0.0000 8.8011 0.0000
# 4 0.0000 0.0000 0.0000 33.3418 0.0000 4.1336
# 5 19.6179 7.8448 8.8011 0.0000 37.8453 0.0000
# 6 0.0000 0.0000 0.0000 4.1336 0.0000 19.7685
#
#
#
# Elastic Compliance Matrix: (Units=1/GPa)
#
#
# Indices 1 2 3 4 5 6 
#
# 1 0.010215 -0.002318 -0.003984 0.000000 -0.003888 0.000000
# 2 -0.002318 0.009216 -0.005296 0.000000 0.000523 0.000000
# 3 -0.003984 -0.005296 0.022630 0.000000 -0.002100 0.000000
# 4 0.000000 0.000000 0.000000 0.030791 0.000000 -0.006438
# 5 -0.003888 0.000523 -0.002100 0.000000 0.028819 0.000000
# 6 0.000000 0.000000 0.000000 -0.006438 0.000000 0.051932
#
#
# Mechanical properties :
#
#
# Convention : Reuss Voigt Hill
#
# Bulk Modulus (GPa) = 53.01334 68.23628 60.62481
# Shear Modulus (GPa) = 27.30953 31.88804 29.59879
#
# Velocity S-wave (km/s) = 3.74739 4.04936 3.90130
# Velocity P-wave (km/s) = 6.78116 7.54660 7.17409
#
# Compressibility (1/GPa) = 0.01886318
#
# Stress axis : x y z
#
# Youngs Moduli (GPa) = 97.89832 108.51158 44.18911
#
# Poissons Ratio (x) = 0.25155 0.17605
# Poissons Ratio (y) = 0.22695 0.23405
# Poissons Ratio (z) = 0.39002 0.57473
#
# Static dielectric constant tensor:
#      x y z
#    x 1.739490 0.000000 0.000630 
#    y 0.000000 1.681170 0.000000 
#    z 0.000630 0.000000 1.731470 
# 
# From -- ./inp_files/78185.got.cif
#   From: 2010.05.17/outbox.cif.g08.bks.cpg/sg15_40_cif.got.tgz:78185.got - 2010.06.03 18:47:42.
