data_PCOD9273383
_publ_section_title
;
Structure prediction by ZEFSAII (Michael W. Deem and Ramdas Pophale) SiO2 
 PCOD9273383
Probable space group: C 2/C
;
_chemical_formula_sum "Si O2"
_cell_formula_units_Z 40
_cell_length_a 10.722170
_cell_length_b 9.867868
_cell_length_c 18.225358
_cell_angle_alpha 90.000000
_cell_angle_beta 67.800360
_cell_angle_gamma 90.000000
_cell_volume 1785.391604
_symmetry_space_group_name_H-M "C 2/C"
_symmetry_group_IT_number 15
_symmetry_cell_setting 'monoclinic'
loop_
_space_group_symop_operation_xyz
x,y,z
-x,y,1/2-z
-x,-y,-z
x,-y,1/2+z
1/2+x,1/2+y,z
1/2-x,1/2+y,1/2-z
1/2-x,1/2-y,-z
1/2+x,1/2-y,1/2+z
loop_
_atom_site_type_symbol
_atom_site_label
_atom_site_fract_x
_atom_site_fract_y
_atom_site_fract_z
Si Si1 0.995900 0.742174 0.830495
Si Si2 0.189809 0.790803 0.402759
Si Si3 0.452583 0.453224 0.180472
Si Si4 0.429201 0.178565 0.529068
Si Si5 0.313122 0.449090 0.492689
O O1 0.836787 0.772797 0.876582
O O2 0.000000 0.672600 0.750000
O O3 0.044837 0.660895 0.890465
O O4 0.075236 0.885350 0.807862
O O5 0.161633 0.858972 0.329801
O O6 0.318281 0.584806 0.538178
O O7 0.068096 0.694332 0.453690
O O8 0.500000 0.407428 0.250000
O O9 0.574578 0.443871 0.095348
O O10 0.351747 0.323005 0.536503
O O11 0.331016 0.074306 0.511634
#
# Coordination Sequence:
#
# PCOD9273383 Si02
#       5
#     8   8   8   8   8
#     4  11  23  38  59  87 120 150 191 242 283 341
#     4  11  21  41  59  85 116 153 193 238 281 345
#     4  10  21  39  59  84 119 155 186 236 294 334
#     4  10  20  38  61  88 113 148 199 234 283 339
#     4  10  20  37  65  83 115 155 192 239 279 342
#
# _framework density 22.404050000000002
#
# number of rings (size 3 to 8) (size 9 to 14) (size 15 to 20)
#    0.000    1.600    4.000    1.800    2.800    0.800 
#    0.000    0.000    0.000    0.000    0.000    0.000 
#    0.000    0.000    0.000    0.000    0.000    0.000 
#
# Total GULP energy -111863.365274 kJ/mol
# GULP energy per Si atom -5593.168264 kJ/mol
# Density = 2.235306 g / cm^3
# Si number density = 22.404050 Si / 1000 Ang^3
#
#
#
# Elastic Constant Matrix: (Units=GPa)
#
#
# Indices 1 2 3 4 5 6 
#
# 1 110.1912 12.6600 22.2694 0.0000 26.0631 0.0000
# 2 12.6600 49.5909 -3.9403 0.0000 7.9600 0.0000
# 3 22.2694 -3.9403 102.1098 0.0000 47.7839 0.0000
# 4 0.0000 0.0000 0.0000 8.1360 0.0000 2.6714
# 5 26.0631 7.9600 47.7839 0.0000 41.3462 0.0000
# 6 0.0000 0.0000 0.0000 2.6714 0.0000 36.1365
#
#
#
# Elastic Compliance Matrix: (Units=1/GPa)
#
#
# Indices 1 2 3 4 5 6 
#
# 1 0.010896 -0.001336 0.001450 0.000000 -0.008287 0.000000
# 2 -0.001336 0.022699 0.006137 0.000000 -0.010621 0.000000
# 3 0.001450 0.006137 0.023291 0.000000 -0.029013 0.000000
# 4 0.000000 0.000000 0.000000 0.125968 0.000000 -0.009312
# 5 -0.008287 -0.010621 -0.029013 0.000000 0.064985 0.000000
# 6 0.000000 0.000000 0.000000 -0.009312 0.000000 0.028361
#
#
# Mechanical properties :
#
#
# Convention : Reuss Voigt Hill
#
# Bulk Modulus (GPa) = 14.41162 35.98559 25.19860
# Shear Modulus (GPa) = 17.43212 32.51726 24.97469
#
# Velocity S-wave (km/s) = 2.79243 3.81386 3.34239
# Velocity P-wave (km/s) = 4.10408 5.95743 5.11539
#
# Compressibility (1/GPa) = 0.06938846
#
# Stress axis : x y z
#
# Youngs Moduli (GPa) = 91.77979 44.05571 42.93457
#
# Poissons Ratio (x) = 0.05886 -0.06226
# Poissons Ratio (y) = 0.12263 -0.26351
# Poissons Ratio (z) = -0.13310 -0.27039
#
# Static dielectric constant tensor:
#      x y z
#    x 1.841320 0.000000 0.008620 
#    y 0.000000 1.829230 0.000000 
#    z 0.008620 0.000000 1.828320 
# 
# From -- ./inp_files/229863.got.cif
#   From: 2010.05.17/outbox.cif.g08.bks.cpg/sg15_115_cif.got.tgz:229863.got - 2010.06.03 18:47:42.
