data_PCOD9273214
_publ_section_title
;
Structure prediction by ZEFSAII (Michael W. Deem and Ramdas Pophale) SiO2 
 PCOD9273214
Probable space group: C 2/C
;
_chemical_formula_sum "Si O2"
_cell_formula_units_Z 64
_cell_length_a 14.058463
_cell_length_b 12.102213
_cell_length_c 19.028750
_cell_angle_alpha 90.000000
_cell_angle_beta 108.382069
_cell_angle_gamma 90.000000
_cell_volume 3072.327806
_symmetry_space_group_name_H-M "C 2/C"
_symmetry_group_IT_number 15
_symmetry_cell_setting 'monoclinic'
loop_
_space_group_symop_operation_xyz
x,y,z
-x,y,1/2-z
-x,-y,-z
x,-y,1/2+z
1/2+x,1/2+y,z
1/2-x,1/2+y,1/2-z
1/2-x,1/2-y,-z
1/2+x,1/2-y,1/2+z
loop_
_atom_site_type_symbol
_atom_site_label
_atom_site_fract_x
_atom_site_fract_y
_atom_site_fract_z
Si Si1 0.010248 0.875049 0.936625
Si Si2 0.181822 0.684515 0.143277
Si Si3 0.510774 0.181039 0.325545
Si Si4 0.883224 0.515988 0.487156
Si Si5 0.135940 0.729183 0.497216
Si Si6 0.369534 0.562525 0.900764
Si Si7 0.405951 0.272677 0.682848
Si Si8 0.353939 0.026563 0.644970
O O1 0.065176 0.803180 0.890458
O O2 0.954436 0.981670 0.890336
O O3 0.926003 0.807610 0.962925
O O4 0.093451 0.919690 0.010457
O O5 0.160265 0.615104 0.068207
O O6 0.149645 0.813403 0.130591
O O7 0.300066 0.676802 0.182796
O O8 0.099820 0.640760 0.178267
O O9 0.500000 0.249418 0.250000
O O10 0.566347 0.225841 0.409649
O O11 0.578678 0.076863 0.321849
O O12 0.848785 0.391418 0.464307
O O13 0.862849 0.540904 0.563183
O O14 0.000000 0.500000 0.500000
O O15 0.250000 0.750000 0.500000
O O16 0.262479 0.505082 0.867800
O O17 0.500000 0.309283 0.750000
O O18 0.389810 0.141120 0.686236
#
# Coordination Sequence:
#
# PCOD9273214 Si02
#       8
#     8   8   8   8   8   8   8   8
#     4  11  21  39  65  89 131 165 211 259 321 381
#     4  11  22  42  63  94 124 166 210 263 323 375
#     4  11  23  41  66  91 130 168 213 264 321 383
#     4  11  18  35  65  96 122 150 209 269 306 362
#     4  11  23  39  66 100 129 165 219 264 319 378
#     4  10  21  38  65  91 122 163 207 258 317 378
#     4  11  25  40  61  92 130 167 212 262 320 385
#     4  10  20  37  63  92 120 164 208 254 312 375
#
# _framework density 20.831109999999999
#
# number of rings (size 3 to 8) (size 9 to 14) (size 15 to 20)
#    0.000    1.250    3.750    4.125    0.000    5.000 
#    0.000    0.625    0.000    0.000    0.000    0.000 
#    0.000    0.000    0.000    0.000    0.000    0.000 
#
# Total GULP energy -178396.885777 kJ/mol
# GULP energy per Si atom -5574.902681 kJ/mol
# Density = 2.078370 g / cm^3
# Si number density = 20.831110 Si / 1000 Ang^3
#
#
#
# Elastic Constant Matrix: (Units=GPa)
#
#
# Indices 1 2 3 4 5 6 
#
# 1 137.2789 21.1581 21.2462 0.0000 32.0710 0.0000
# 2 21.1581 63.1614 -0.1355 0.0000 10.9766 0.0000
# 3 21.2462 -0.1355 55.6191 0.0000 6.6390 0.0000
# 4 0.0000 0.0000 0.0000 7.5653 0.0000 4.4730
# 5 32.0710 10.9766 6.6390 0.0000 29.4996 0.0000
# 6 0.0000 0.0000 0.0000 4.4730 0.0000 33.3360
#
#
#
# Elastic Compliance Matrix: (Units=1/GPa)
#
#
# Indices 1 2 3 4 5 6 
#
# 1 0.010297 -0.001729 -0.002752 0.000000 -0.009932 0.000000
# 2 -0.001729 0.017253 0.001279 0.000000 -0.004828 0.000000
# 3 -0.002752 0.001279 0.019251 0.000000 -0.001816 0.000000
# 4 0.000000 0.000000 0.000000 0.143571 0.000000 -0.019264
# 5 -0.009932 -0.004828 -0.001816 0.000000 0.046902 0.000000
# 6 0.000000 0.000000 0.000000 -0.019264 0.000000 0.032582
#
#
# Mechanical properties :
#
#
# Convention : Reuss Voigt Hill
#
# Bulk Modulus (GPa) = 24.75477 37.84410 31.29944
# Shear Modulus (GPa) = 17.25761 28.33289 22.79525
#
# Velocity S-wave (km/s) = 2.88141 3.69199 3.31159
# Velocity P-wave (km/s) = 4.79368 6.03166 5.44795
#
# Compressibility (1/GPa) = 0.04039625
#
# Stress axis : x y z
#
# Youngs Moduli (GPa) = 97.11370 57.95930 51.94631
#
# Poissons Ratio (x) = 0.10023 0.14296
# Poissons Ratio (y) = 0.16794 -0.06643
# Poissons Ratio (z) = 0.26727 -0.07412
#
# Static dielectric constant tensor:
#      x y z
#    x 1.770600 0.000000 -0.056990 
#    y 0.000000 1.747930 0.000000 
#    z -0.056990 0.000000 1.771430 
# 
# From -- ./inp_files/243742.got.cif
#   From: 2010.05.17/outbox.cif.g08.bks.cpg/sg15_122_cif.got.tgz:243742.got - 2010.06.03 18:47:42.
