data_PCOD9273577
_publ_section_title
;
Structure prediction by ZEFSAII (Michael W. Deem and Ramdas Pophale) SiO2 
 PCOD9273577
Probable space group: C 2/C
;
_chemical_formula_sum "Si O2"
_cell_formula_units_Z 32
_cell_length_a 22.961173
_cell_length_b 5.007731
_cell_length_c 18.794091
_cell_angle_alpha 90.000000
_cell_angle_beta 145.129578
_cell_angle_gamma 90.000000
_cell_volume 1235.496734
_symmetry_space_group_name_H-M "C 2/C"
_symmetry_group_IT_number 15
_symmetry_cell_setting 'monoclinic'
loop_
_space_group_symop_operation_xyz
x,y,z
-x,y,1/2-z
-x,-y,-z
x,-y,1/2+z
1/2+x,1/2+y,z
1/2-x,1/2+y,1/2-z
1/2-x,1/2-y,-z
1/2+x,1/2-y,1/2+z
loop_
_atom_site_type_symbol
_atom_site_label
_atom_site_fract_x
_atom_site_fract_y
_atom_site_fract_z
Si Si1 0.774333 0.828440 0.679488
Si Si2 0.616853 0.853141 0.942067
Si Si3 0.599780 0.567441 0.055749
Si Si4 0.633159 0.328239 0.867306
O O1 0.672207 0.648428 0.587633
O O2 0.865884 0.767704 0.715591
O O3 0.726146 0.092825 0.592405
O O4 0.823701 0.828189 0.806515
O O5 0.617876 0.625866 0.882138
O O6 0.581596 0.122950 0.869966
O O7 0.556203 0.753503 0.949236
O O8 0.500000 0.500000 0.000000
O O9 0.750000 0.250000 0.000000
#
# Coordination Sequence:
#
# PCOD9273577 Si02
#       4
#     8   8   8   8
#     4  11  23  43  72  98 139 185 225 292 352 406
#     4  11  21  42  72 101 131 187 229 288 349 414
#     4  12  26  43  71 105 144 183 237 284 354 424
#     4  10  20  37  74  97 131 183 234 279 356 406
#
# _framework density 25.900511999999999
#
# number of rings (size 3 to 8) (size 9 to 14) (size 15 to 20)
#    0.000    1.000    7.500    3.000    0.000    1.000 
#    0.000    1.250   11.000    0.000    0.000    0.000 
#    0.000    0.000    0.000    0.000    0.000    0.000 
#
# Total GULP energy -89130.698145 kJ/mol
# GULP energy per Si atom -5570.668634 kJ/mol
# Density = 2.584156 g / cm^3
# Si number density = 25.900512 Si / 1000 Ang^3
#
#
#
# Elastic Constant Matrix: (Units=GPa)
#
#
# Indices 1 2 3 4 5 6 
#
# 1 228.7963 55.4609 31.5907 -0.0002 -30.6991 0.0004
# 2 55.4609 105.2076 8.2118 0.0001 -12.4993 0.0017
# 3 31.5907 8.2118 97.4382 -0.0002 -8.6467 0.0001
# 4 -0.0002 0.0001 -0.0002 -27.6865 0.0002 6.3527
# 5 -30.6991 -12.4993 -8.6467 0.0002 56.5256 -0.0002
# 6 0.0004 0.0017 0.0001 6.3527 -0.0002 34.5558
#
#
#
# Elastic Compliance Matrix: (Units=1/GPa)
#
#
# Indices 1 2 3 4 5 6 
#
# 1 0.005464 -0.002512 -0.001364 0.000000 0.002203 0.000000
# 2 -0.002512 0.010956 -0.000015 0.000000 0.001056 0.000000
# 3 -0.001364 -0.000015 0.010787 0.000000 0.000906 0.000000
# 4 0.000000 0.000000 0.000000 -0.034657 0.000000 0.006371
# 5 0.002203 0.001056 0.000906 0.000000 0.019260 0.000000
# 6 0.000000 0.000000 0.000000 0.006371 0.000000 0.027767
#
#
# Mechanical properties :
#
#
# Convention : Reuss Voigt Hill
#
# Bulk Modulus (GPa) = 51.48357 69.10765 60.29561
# Shear Modulus (GPa) = 92.87848 35.09089 63.98468
#
# Velocity S-wave (km/s) = 5.99479 3.68480 4.97571
# Velocity P-wave (km/s) = 8.23634 6.69653 7.50603
#
# Compressibility (1/GPa) = 0.01942367
#
# Stress axis : x y z
#
# Youngs Moduli (GPa) = 183.03081 91.27542 92.70546
#
# Poissons Ratio (x) = 0.22928 0.12646
# Poissons Ratio (y) = 0.45976 0.00141
# Poissons Ratio (z) = 0.24968 0.00139
#
# Static dielectric constant tensor:
#      x y z
#    x 2.202320 0.000000 0.063550 
#    y 0.000000 2.239100 0.000000 
#    z 0.063550 0.000000 2.128760 
# 
# From -- ./inp_files/250934.got.cif
#   From: 2010.05.17/outbox.cif.g08.bks.cpg/sg15_126_cif.got.tgz:250934.got - 2010.06.03 18:47:42.
