data_PCOD9273044
_publ_section_title
;
Structure prediction by ZEFSAII (Michael W. Deem and Ramdas Pophale) SiO2 
 PCOD9273044
Probable space group: C 2/C
;
_chemical_formula_sum "Si O2"
_cell_formula_units_Z 48
_cell_length_a 10.576125
_cell_length_b 11.938406
_cell_length_c 18.208494
_cell_angle_alpha 90.000000
_cell_angle_beta 125.230693
_cell_angle_gamma 90.000000
_cell_volume 1877.940427
_symmetry_space_group_name_H-M "C 2/C"
_symmetry_group_IT_number 15
_symmetry_cell_setting 'monoclinic'
loop_
_space_group_symop_operation_xyz
x,y,z
-x,y,1/2-z
-x,-y,-z
x,-y,1/2+z
1/2+x,1/2+y,z
1/2-x,1/2+y,1/2-z
1/2-x,1/2-y,-z
1/2+x,1/2-y,1/2+z
loop_
_atom_site_type_symbol
_atom_site_label
_atom_site_fract_x
_atom_site_fract_y
_atom_site_fract_z
Si Si1 0.155966 0.458832 0.593418
Si Si2 0.120200 0.239117 0.519978
Si Si3 0.000000 0.207949 0.750000
Si Si4 0.500000 0.900572 0.250000
Si Si5 0.830755 0.310131 0.326827
Si Si6 0.933512 0.960076 0.095483
Si Si7 0.796586 0.009740 0.403485
O O1 0.133389 0.326151 0.592596
O O2 0.189901 0.555141 0.663937
O O3 0.306439 0.464473 0.592523
O O4 0.000000 0.500000 0.500000
O O5 0.250000 0.250000 0.500000
O O6 0.141238 0.115132 0.555788
O O7 0.960509 0.268208 0.426273
O O8 0.828491 0.256165 0.709553
O O9 0.972760 0.135568 0.666807
O O10 0.403049 0.818870 0.270546
O O11 0.618176 0.984685 0.330448
O O12 0.088757 0.028845 0.126589
O O13 0.839853 0.921334 0.990712
#
# Coordination Sequence:
#
# PCOD9273044 Si02
#       7
#     8   8   4   4   8   8   8
#     4   9  18  36  59  86 117 160 203 252 302 370
#     4  11  19  37  61  94 120 156 215 261 314 365
#     4  10  20  40  63  91 122 176 208 252 316 385
#     4  12  20  38  65  93 128 164 214 260 314 371
#     4  10  21  36  62  88 123 164 209 259 312 378
#     4  10  20  37  62  89 124 161 210 246 315 373
#     4  11  22  36  62  97 125 163 201 266 313 365
#
# _framework density 25.559916000000001
#
# number of rings (size 3 to 8) (size 9 to 14) (size 15 to 20)
#    0.000    1.667    5.000    1.000    0.000    0.000 
#    0.000   15.000    0.000    5.000    0.000    0.000 
#    0.000    0.000    0.000    0.000    0.000    0.000 
#
# Total GULP energy -133950.596520 kJ/mol
# GULP energy per Si atom -5581.274855 kJ/mol
# Density = 2.550174 g / cm^3
# Si number density = 25.559916 Si / 1000 Ang^3
#
#
#
# Elastic Constant Matrix: (Units=GPa)
#
#
# Indices 1 2 3 4 5 6 
#
# 1 141.7685 9.5368 36.3667 0.0000 27.0638 0.0000
# 2 9.5368 62.9714 0.2381 0.0000 -9.1306 0.0000
# 3 36.3667 0.2381 123.7748 0.0000 34.8131 0.0000
# 4 0.0000 0.0000 0.0000 23.7716 0.0000 7.7394
# 5 27.0638 -9.1306 34.8131 0.0000 56.0740 0.0000
# 6 0.0000 0.0000 0.0000 7.7394 0.0000 20.7977
#
#
#
# Elastic Compliance Matrix: (Units=1/GPa)
#
#
# Indices 1 2 3 4 5 6 
#
# 1 0.008178 -0.001714 -0.001467 0.000000 -0.003315 0.000000
# 2 -0.001714 0.016714 -0.000638 0.000000 0.003945 0.000000
# 3 -0.001467 -0.000638 0.010106 0.000000 -0.005670 0.000000
# 4 0.000000 0.000000 0.000000 0.047866 0.000000 -0.017812
# 5 -0.003315 0.003945 -0.005670 0.000000 0.023596 0.000000
# 6 0.000000 0.000000 0.000000 -0.017812 0.000000 0.054711
#
#
# Mechanical properties :
#
#
# Convention : Reuss Voigt Hill
#
# Bulk Modulus (GPa) = 36.54879 46.75534 41.65206
# Shear Modulus (GPa) = 28.10089 38.95354 33.52722
#
# Velocity S-wave (km/s) = 3.31934 3.90809 3.62568
# Velocity P-wave (km/s) = 5.38711 6.22064 5.81882
#
# Compressibility (1/GPa) = 0.02736069
#
# Stress axis : x y z
#
# Youngs Moduli (GPa) = 122.27480 59.82946 98.94830
#
# Poissons Ratio (x) = 0.10253 0.14517
# Poissons Ratio (y) = 0.20955 0.06315
# Poissons Ratio (z) = 0.17939 0.03818
#
# Static dielectric constant tensor:
#      x y z
#    x 2.153700 0.000000 -0.061050 
#    y 0.000000 2.515520 0.000000 
#    z -0.061050 0.000000 2.051190 
# 
# From -- ./inp_files/237763.got.cif
#   From: 2010.05.17/outbox.cif.g08.bks.cpg/sg15_119_cif.got.tgz:237763.got - 2010.06.03 18:47:42.
