data_PCOD9273274
_publ_section_title
;
Structure prediction by ZEFSAII (Michael W. Deem and Ramdas Pophale) SiO2 
 PCOD9273274
Probable space group: C 2/C
;
_chemical_formula_sum "Si O2"
_cell_formula_units_Z 48
_cell_length_a 21.324292
_cell_length_b 8.172705
_cell_length_c 14.427508
_cell_angle_alpha 90.000000
_cell_angle_beta 109.285427
_cell_angle_gamma 90.000000
_cell_volume 2373.290199
_symmetry_space_group_name_H-M "C 2/C"
_symmetry_group_IT_number 15
_symmetry_cell_setting 'monoclinic'
loop_
_space_group_symop_operation_xyz
x,y,z
-x,y,1/2-z
-x,-y,-z
x,-y,1/2+z
1/2+x,1/2+y,z
1/2-x,1/2+y,1/2-z
1/2-x,1/2-y,-z
1/2+x,1/2-y,1/2+z
loop_
_atom_site_type_symbol
_atom_site_label
_atom_site_fract_x
_atom_site_fract_y
_atom_site_fract_z
Si Si1 0.711157 0.417732 0.358763
Si Si2 0.071138 0.745822 0.307941
Si Si3 0.780801 0.584145 0.552869
Si Si4 0.425287 0.975380 0.052021
Si Si5 0.702400 0.768448 0.253532
Si Si6 0.070068 0.451006 0.158142
O O1 0.636296 0.354071 0.331398
O O2 0.745378 0.444631 0.475533
O O3 0.710807 0.592135 0.304844
O O4 0.754949 0.296253 0.317627
O O5 0.068099 0.661826 0.407636
O O6 0.076864 0.592351 0.238882
O O7 0.000000 0.825736 0.250000
O O8 0.750000 0.750000 0.500000
O O9 0.858402 0.588258 0.565215
O O10 0.773454 0.596087 0.659109
O O11 0.493536 0.891946 0.118968
O O12 0.419404 0.971174 0.938710
O O13 0.625544 0.813625 0.198494
#
# Coordination Sequence:
#
# PCOD9273274 Si02
#       6
#     8   8   8   8   8   8
#     4  11  24  40  61  88 125 153 198 252 299 354
#     4  10  22  41  62  88 123 161 196 247 299 354
#     4  10  22  37  56  92 121 154 193 245 299 347
#     4  10  20  37  64  86 119 158 197 243 290 358
#     4  11  22  39  62  91 117 160 199 247 297 353
#     4  10  20  38  64  91 115 155 206 240 294 354
#
# _framework density 20.225085
#
# number of rings (size 3 to 8) (size 9 to 14) (size 15 to 20)
#    0.000    1.667    3.333    1.000    2.333    2.000 
#    6.000    0.000    0.000    4.000    0.000    0.000 
#    0.000    0.000    0.000    0.000    0.000    0.000 
#
# Total GULP energy -133972.372282 kJ/mol
# GULP energy per Si atom -5582.182178 kJ/mol
# Density = 2.017905 g / cm^3
# Si number density = 20.225085 Si / 1000 Ang^3
#
#
#
# Elastic Constant Matrix: (Units=GPa)
#
#
# Indices 1 2 3 4 5 6 
#
# 1 116.7083 24.7904 20.6462 0.0000 20.8434 0.0000
# 2 24.7904 48.9400 11.0663 0.0000 8.8440 0.0000
# 3 20.6462 11.0663 90.5738 0.0000 -2.3380 0.0000
# 4 0.0000 0.0000 0.0000 20.8637 0.0000 3.4421
# 5 20.8434 8.8440 -2.3380 0.0000 33.1159 0.0000
# 6 0.0000 0.0000 0.0000 3.4421 0.0000 36.3133
#
#
#
# Elastic Compliance Matrix: (Units=1/GPa)
#
#
# Indices 1 2 3 4 5 6 
#
# 1 0.010842 -0.003937 -0.002143 0.000000 -0.005924 0.000000
# 2 -0.003937 0.023619 -0.002091 0.000000 -0.003978 0.000000
# 3 -0.002143 -0.002091 0.011856 0.000000 0.002744 0.000000
# 4 0.000000 0.000000 0.000000 0.048692 0.000000 -0.004615
# 5 -0.005924 -0.003978 0.002744 0.000000 0.035181 0.000000
# 6 0.000000 0.000000 0.000000 -0.004615 0.000000 0.027976
#
#
# Mechanical properties :
#
#
# Convention : Reuss Voigt Hill
#
# Bulk Modulus (GPa) = 33.36207 41.02531 37.19369
# Shear Modulus (GPa) = 27.10052 31.37320 29.23686
#
# Velocity S-wave (km/s) = 3.66450 3.94280 3.80620
# Velocity P-wave (km/s) = 5.86821 6.40750 6.14377
#
# Compressibility (1/GPa) = 0.02997416
#
# Stress axis : x y z
#
# Youngs Moduli (GPa) = 92.23654 42.33897 84.34825
#
# Poissons Ratio (x) = 0.16667 0.18078
# Poissons Ratio (y) = 0.36311 0.17638
# Poissons Ratio (z) = 0.19769 0.08853
#
# Static dielectric constant tensor:
#      x y z
#    x 1.726230 0.000000 0.017720 
#    y 0.000000 1.647100 0.000000 
#    z 0.017720 0.000000 1.771450 
# 
# From -- ./inp_files/166122.got.cif
#   From: 2010.05.17/outbox.cif.g08.bks.cpg/sg15_84_cif.got.tgz:166122.got - 2010.06.03 18:47:42.
