data_PCOD9273637
_publ_section_title
;
Structure prediction by ZEFSAII (Michael W. Deem and Ramdas Pophale) SiO2 
 PCOD9273637
Probable space group: C 2/C
;
_chemical_formula_sum "Si O2"
_cell_formula_units_Z 64
_cell_length_a 23.963214
_cell_length_b 20.255680
_cell_length_c 17.966862
_cell_angle_alpha 90.000000
_cell_angle_beta 21.491710
_cell_angle_gamma 90.000000
_cell_volume 3195.067246
_symmetry_space_group_name_H-M "C 2/C"
_symmetry_group_IT_number 15
_symmetry_cell_setting 'monoclinic'
loop_
_space_group_symop_operation_xyz
x,y,z
-x,y,1/2-z
-x,-y,-z
x,-y,1/2+z
1/2+x,1/2+y,z
1/2-x,1/2+y,1/2-z
1/2-x,1/2-y,-z
1/2+x,1/2-y,1/2+z
loop_
_atom_site_type_symbol
_atom_site_label
_atom_site_fract_x
_atom_site_fract_y
_atom_site_fract_z
Si Si1 0.608957 0.537621 0.546113
Si Si2 0.349200 0.283473 0.810972
Si Si3 0.565160 0.846637 0.373176
Si Si4 0.544071 0.056053 0.385964
Si Si5 0.036694 0.929444 0.416051
Si Si6 0.851904 0.530756 0.483346
Si Si7 0.591061 0.612373 0.013162
Si Si8 0.615971 0.880876 0.041796
O O1 0.500000 0.556219 0.750000
O O2 0.784750 0.542247 0.352551
O O3 0.588496 0.579021 0.493891
O O4 0.571993 0.461838 0.568085
O O5 0.434264 0.227295 0.658413
O O6 0.467502 0.336198 0.697380
O O7 0.250000 0.250000 0.000000
O O8 0.242115 0.324822 0.887728
O O9 0.470723 0.870898 0.561266
O O10 0.485190 0.886923 0.405792
O O11 0.739448 0.865920 0.173849
O O12 0.413614 0.047955 0.487622
O O13 0.500000 0.000000 0.500000
O O14 0.064386 0.886385 0.456062
O O15 0.192361 0.932800 0.174910
O O16 0.000000 0.000000 0.500000
O O17 0.817665 0.452525 0.520917
O O18 0.000000 0.544891 0.250000
O O19 0.500000 0.861689 0.250000
#
# Coordination Sequence:
#
# PCOD9273637 Si02
#       8
#     8   8   8   8   8   8   8   8
#     4  11  23  37  64  94 129 166 209 261 321 378
#     4  12  27  42  59  90 133 173 214 250 296 380
#     4  12  24  39  62  84 124 172 209 253 307 364
#     4  12  21  39  61  92 124 164 211 265 317 376
#     4  10  20  38  56  90 123 164 205 262 317 373
#     4  11  21  36  62  90 124 161 208 261 322 373
#     4  11  24  40  62  88 129 172 209 252 311 374
#     4  11  22  38  57  88 126 170 207 252 302 366
#
# _framework density 20.030878000000001
#
# number of rings (size 3 to 8) (size 9 to 14) (size 15 to 20)
#    0.000    0.750    5.000    3.750    3.500    2.000 
#    0.000    0.000    0.000    0.000    0.000    5.250 
#    0.000    0.000    0.000    0.000    0.000    0.000 
#
# Total GULP energy -178598.592300 kJ/mol
# GULP energy per Si atom -5581.206009 kJ/mol
# Density = 1.998529 g / cm^3
# Si number density = 20.030878 Si / 1000 Ang^3
#
#
#
# Elastic Constant Matrix: (Units=GPa)
#
#
# Indices 1 2 3 4 5 6 
#
# 1 50.3105 -5.0211 -2.5110 0.0040 -10.2076 -0.0013
# 2 -5.0211 46.3032 27.8698 0.0077 2.8103 -0.0050
# 3 -2.5110 27.8698 84.3717 0.0016 -6.2337 -0.0028
# 4 0.0040 0.0077 0.0016 31.4263 -0.0020 -1.0283
# 5 -10.2076 2.8103 -6.2337 -0.0020 32.4766 0.0020
# 6 -0.0013 -0.0050 -0.0028 -1.0283 0.0020 18.2542
#
#
#
# Elastic Compliance Matrix: (Units=1/GPa)
#
#
# Indices 1 2 3 4 5 6 
#
# 1 0.021425 0.001539 0.000626 -0.000003 0.006721 0.000001
# 2 0.001539 0.027616 -0.009350 -0.000006 -0.003701 0.000006
# 3 0.000626 -0.009350 0.015250 0.000002 0.003933 -0.000001
# 4 -0.000003 -0.000006 0.000002 0.031879 0.000002 0.001796
# 5 0.006721 -0.003701 0.003933 0.000002 0.033979 -0.000004
# 6 0.000001 0.000006 -0.000001 0.001796 -0.000004 0.054883
#
#
# Mechanical properties :
#
#
# Convention : Reuss Voigt Hill
#
# Bulk Modulus (GPa) = 20.03186 24.62899 22.33043
# Shear Modulus (GPa) = 23.14359 27.14127 25.14243
#
# Velocity S-wave (km/s) = 3.40280 3.68499 3.54670
# Velocity P-wave (km/s) = 5.04588 5.51613 5.28624
#
# Compressibility (1/GPa) = 0.04992047
#
# Stress axis : x y z
#
# Youngs Moduli (GPa) = 46.67444 36.21106 65.57394
#
# Poissons Ratio (x) = -0.05572 -0.04105
# Poissons Ratio (y) = -0.07181 0.61310
# Poissons Ratio (z) = -0.02922 0.33857
#
# Static dielectric constant tensor:
#      x y z
#    x 1.749240 0.000000 -0.003350 
#    y 0.000000 1.715390 0.000000 
#    z -0.003350 0.000000 1.731870 
# 
# From -- ./inp_files/220258.got.cif
#   From: 2010.05.17/outbox.cif.g08.bks.cpg/sg15_111_cif.got.tgz:220258.got - 2010.06.03 18:47:42.
