data_PCOD9273129
_publ_section_title
;
Structure prediction by ZEFSAII (Michael W. Deem and Ramdas Pophale) SiO2 
 PCOD9273129
Probable space group: C 2/C
;
_chemical_formula_sum "Si O2"
_cell_formula_units_Z 40
_cell_length_a 10.002089
_cell_length_b 22.611267
_cell_length_c 7.962560
_cell_angle_alpha 90.000000
_cell_angle_beta 95.677369
_cell_angle_gamma 90.000000
_cell_volume 1791.978330
_symmetry_space_group_name_H-M "C 2/C"
_symmetry_group_IT_number 15
_symmetry_cell_setting 'monoclinic'
loop_
_space_group_symop_operation_xyz
x,y,z
-x,y,1/2-z
-x,-y,-z
x,-y,1/2+z
1/2+x,1/2+y,z
1/2-x,1/2+y,1/2-z
1/2-x,1/2-y,-z
1/2+x,1/2-y,1/2+z
loop_
_atom_site_type_symbol
_atom_site_label
_atom_site_fract_x
_atom_site_fract_y
_atom_site_fract_z
Si Si1 0.861686 0.594472 0.785616
Si Si2 0.785954 0.505503 0.479681
Si Si3 0.357810 0.573494 0.320156
Si Si4 0.150140 0.201004 0.294734
Si Si5 0.849720 0.808552 0.306530
O O1 0.824713 0.549920 0.630452
O O2 0.741051 0.640304 0.787238
O O3 0.000000 0.625137 0.750000
O O4 0.882702 0.549299 0.943521
O O5 0.753541 0.546137 0.317342
O O6 0.655536 0.466603 0.517242
O O7 0.500000 0.565634 0.250000
O O8 0.336341 0.643682 0.322248
O O9 0.151876 0.181107 0.491202
O O10 0.268051 0.247318 0.274946
O O11 0.000000 0.226367 0.250000
O O12 0.000000 0.807070 0.250000
#
# Coordination Sequence:
#
# PCOD9273129 Si02
#       5
#     8   8   8   8   8
#     4  11  23  42  64  94 128 170 206 261 307 378
#     4  10  22  38  62  93 128 166 211 248 314 374
#     4  10  20  37  62  95 128 165 200 261 310 376
#     4  10  23  45  65  92 131 163 210 262 311 376
#     4  11  25  44  67  95 124 165 212 263 316 372
#
# _framework density 22.321698999999999
#
# number of rings (size 3 to 8) (size 9 to 14) (size 15 to 20)
#    0.000    1.600    2.000    1.800    5.600    4.000 
#    7.200    1.000    0.000    0.000    0.000    0.000 
#    0.000    0.000    0.000    0.000    0.000    0.000 
#
# Total GULP energy -111611.286628 kJ/mol
# GULP energy per Si atom -5580.564331 kJ/mol
# Density = 2.227089 g / cm^3
# Si number density = 22.321699 Si / 1000 Ang^3
#
#
#
# Elastic Constant Matrix: (Units=GPa)
#
#
# Indices 1 2 3 4 5 6 
#
# 1 136.7996 68.4146 4.0117 0.0000 -26.0326 0.0000
# 2 68.4146 116.7113 27.7986 0.0000 -15.4047 0.0000
# 3 4.0117 27.7986 37.1649 0.0000 -6.4784 0.0000
# 4 0.0000 0.0000 0.0000 14.4162 0.0000 2.0030
# 5 -26.0326 -15.4047 -6.4784 0.0000 23.3727 0.0000
# 6 0.0000 0.0000 0.0000 2.0030 0.0000 35.0498
#
#
#
# Elastic Compliance Matrix: (Units=1/GPa)
#
#
# Indices 1 2 3 4 5 6 
#
# 1 0.013130 -0.007711 0.006319 0.000000 0.011294 0.000000
# 2 -0.007711 0.015529 -0.011029 0.000000 -0.001411 0.000000
# 3 0.006319 -0.011029 0.036182 0.000000 0.009798 0.000000
# 4 0.000000 0.000000 0.000000 0.069921 0.000000 -0.003996
# 5 0.011294 -0.001411 0.009798 0.000000 0.057150 0.000000
# 6 0.000000 0.000000 0.000000 -0.003996 0.000000 0.028759
#
#
# Mechanical properties :
#
#
# Convention : Reuss Voigt Hill
#
# Bulk Modulus (GPa) = 25.00018 54.56952 39.78485
# Shear Modulus (GPa) = 19.31638 27.26448 23.29043
#
# Velocity S-wave (km/s) = 2.94490 3.49869 3.23367
# Velocity P-wave (km/s) = 4.77362 6.38914 5.63953
#
# Compressibility (1/GPa) = 0.03999970
#
# Stress axis : x y z
#
# Youngs Moduli (GPa) = 76.15990 64.39522 27.63769
#
# Poissons Ratio (x) = 0.49657 -0.17465
# Poissons Ratio (y) = 0.58729 0.30482
# Poissons Ratio (z) = -0.48127 0.71022
#
# Static dielectric constant tensor:
#      x y z
#    x 1.850520 0.000000 -0.045750 
#    y 0.000000 1.789280 0.000000 
#    z -0.045750 0.000000 1.900210 
# 
# From -- ./inp_files/23451.got.cif
#   From: 2010.05.17/outbox.cif.g08.bks.cpg/sg15_12_cif.got.tgz:23451.got - 2010.06.03 18:47:42.
