data_PCOD9273160
_publ_section_title
;
Structure prediction by ZEFSAII (Michael W. Deem and Ramdas Pophale) SiO2 
 PCOD9273160
Probable space group: C 2/C
;
_chemical_formula_sum "Si O2"
_cell_formula_units_Z 60
_cell_length_a 11.073863
_cell_length_b 14.035616
_cell_length_c 16.647424
_cell_angle_alpha 90.000000
_cell_angle_beta 92.058593
_cell_angle_gamma 90.000000
_cell_volume 2585.814029
_symmetry_space_group_name_H-M "C 2/C"
_symmetry_group_IT_number 15
_symmetry_cell_setting 'monoclinic'
loop_
_space_group_symop_operation_xyz
x,y,z
-x,y,1/2-z
-x,-y,-z
x,-y,1/2+z
1/2+x,1/2+y,z
1/2-x,1/2+y,1/2-z
1/2-x,1/2-y,-z
1/2+x,1/2-y,1/2+z
loop_
_atom_site_type_symbol
_atom_site_label
_atom_site_fract_x
_atom_site_fract_y
_atom_site_fract_z
Si Si1 0.478007 0.237672 0.005095
Si Si2 0.346788 0.238334 0.623843
Si Si3 0.867617 0.056336 0.454711
Si Si4 0.918749 0.958688 0.627884
Si Si5 0.694125 0.975335 0.691073
Si Si6 0.629444 0.956173 0.016194
Si Si7 0.412295 0.232265 0.318975
Si Si8 0.500000 0.119899 0.750000
O O1 0.502640 0.226323 0.100102
O O2 0.609537 0.221271 0.966454
O O3 0.416514 0.338232 0.980341
O O4 0.389997 0.155770 0.970425
O O5 0.374814 0.350176 0.634648
O O6 0.211277 0.216655 0.651304
O O7 0.446436 0.184203 0.678535
O O8 0.724224 0.041293 0.445521
O O9 0.937108 0.032521 0.374260
O O10 0.894388 0.995001 0.535926
O O11 0.836378 0.003273 0.695149
O O12 0.673558 0.988101 0.595026
O O13 0.610203 0.052830 0.728747
O O14 0.642099 0.870768 0.710793
O O15 0.500000 0.000000 0.000000
O O16 0.500000 0.269194 0.250000
#
# Coordination Sequence:
#
# PCOD9273160 Si02
#       8
#     8   8   8   8   8   8   8   4
#     4  11  21  39  66  97 126 169 221 272 309 389
#     4  10  23  41  65  95 128 169 219 257 324 385
#     4   9  19  36  62  93 127 161 213 267 323 375
#     4   8  18  39  60  84 125 170 198 258 323 381
#     4  10  20  37  63  87 126 170 209 259 331 378
#     4  11  20  35  61  99 126 166 218 267 320 389
#     4  11  23  41  62  92 131 168 209 266 332 380
#     4  12  22  40  68  94 124 170 214 276 308 380
#
# _framework density 23.203524999999999
#
# number of rings (size 3 to 8) (size 9 to 14) (size 15 to 20)
#    0.000    1.867    3.333    0.800    0.000    2.133 
#    7.200    0.000    7.333    0.000    0.000    0.000 
#    0.000    0.000    0.000    0.000    0.000    0.000 
#
# Total GULP energy -167093.612386 kJ/mol
# GULP energy per Si atom -5569.787080 kJ/mol
# Density = 2.315071 g / cm^3
# Si number density = 23.203525 Si / 1000 Ang^3
#
#
#
# Elastic Constant Matrix: (Units=GPa)
#
#
# Indices 1 2 3 4 5 6 
#
# 1 123.5530 20.6068 45.4507 0.0000 -60.8271 0.0000
# 2 20.6068 47.3811 -0.4642 0.0000 -7.7317 0.0000
# 3 45.4507 -0.4642 78.5922 0.0000 -28.8552 0.0000
# 4 0.0000 0.0000 0.0000 30.6293 0.0000 -2.1604
# 5 -60.8271 -7.7317 -28.8552 0.0000 51.6972 0.0000
# 6 0.0000 0.0000 0.0000 -2.1604 0.0000 22.9911
#
#
#
# Elastic Compliance Matrix: (Units=1/GPa)
#
#
# Indices 1 2 3 4 5 6 
#
# 1 0.021496 -0.005807 -0.004400 0.000000 0.021968 0.000000
# 2 -0.005807 0.023375 0.002857 0.000000 -0.001743 0.000000
# 3 -0.004400 0.002857 0.017032 0.000000 0.004756 0.000000
# 4 0.000000 0.000000 0.000000 0.032866 0.000000 0.003088
# 5 0.021968 -0.001743 0.004756 0.000000 0.047585 0.000000
# 6 0.000000 0.000000 0.000000 0.003088 0.000000 0.043785
#
#
# Mechanical properties :
#
#
# Convention : Reuss Voigt Hill
#
# Bulk Modulus (GPa) = 21.18602 42.30145 31.74373
# Shear Modulus (GPa) = 23.08673 33.32571 28.20622
#
# Velocity S-wave (km/s) = 3.15773 3.79388 3.49033
# Velocity P-wave (km/s) = 4.73765 6.12058 5.47298
#
# Compressibility (1/GPa) = 0.04720095
#
# Stress axis : x y z
#
# Youngs Moduli (GPa) = 46.52017 42.78112 58.71383
#
# Poissons Ratio (x) = 0.24845 0.25835
# Poissons Ratio (y) = 0.27016 -0.16773
# Poissons Ratio (z) = 0.20470 -0.12221
#
# Static dielectric constant tensor:
#      x y z
#    x 2.232670 0.000000 -0.010990 
#    y 0.000000 1.923600 0.000000 
#    z -0.010990 0.000000 1.833830 
# 
# From -- ./inp_files/197860.got.cif
#   From: 2010.05.17/outbox.cif.g08.bks.cpg/sg15_99_cif.got.tgz:197860.got - 2010.06.03 18:47:42.
