data_PCOD9273976
_publ_section_title
;
Structure prediction by ZEFSAII (Michael W. Deem and Ramdas Pophale) SiO2 
 PCOD9273976
Probable space group: C 2/C
;
_chemical_formula_sum "Si O2"
_cell_formula_units_Z 60
_cell_length_a 19.215091
_cell_length_b 5.112992
_cell_length_c 29.397046
_cell_angle_alpha 90.000000
_cell_angle_beta 101.312472
_cell_angle_gamma 90.000000
_cell_volume 2832.048788
_symmetry_space_group_name_H-M "C 2/C"
_symmetry_group_IT_number 15
_symmetry_cell_setting 'monoclinic'
loop_
_space_group_symop_operation_xyz
x,y,z
-x,y,1/2-z
-x,-y,-z
x,-y,1/2+z
1/2+x,1/2+y,z
1/2-x,1/2+y,1/2-z
1/2-x,1/2-y,-z
1/2+x,1/2-y,1/2+z
loop_
_atom_site_type_symbol
_atom_site_label
_atom_site_fract_x
_atom_site_fract_y
_atom_site_fract_z
Si Si1 0.203484 0.999726 0.507075
Si Si2 0.000000 0.092124 0.250000
Si Si3 0.784439 0.730277 0.819012
Si Si4 0.138279 0.021576 0.907887
Si Si5 0.646451 0.588774 0.746475
Si Si6 0.102945 0.351974 0.652711
Si Si7 0.986203 0.162972 0.353309
Si Si8 0.768640 0.526179 0.605799
O O1 0.250000 0.250000 0.500000
O O2 0.203238 0.003610 0.561524
O O3 0.250000 0.750000 0.500000
O O4 0.138844 0.994260 0.463391
O O5 0.925452 0.944913 0.234799
O O6 0.010340 0.210514 0.201096
O O7 0.712563 0.628037 0.787487
O O8 0.827292 0.514385 0.853865
O O9 0.830470 0.852013 0.783796
O O10 0.761379 0.966869 0.848629
O O11 0.061478 0.945756 0.879336
O O12 0.172604 0.299495 0.897863
O O13 0.192115 0.799981 0.896213
O O14 0.626692 0.818133 0.708774
O O15 0.070793 0.063399 0.639904
O O16 0.040295 0.556026 0.633136
#
# Coordination Sequence:
#
# PCOD9273976 Si02
#       8
#     8   4   8   8   8   8   8   8
#     4   8  16  34  56  87 122 150 192 252 312 357
#     4  10  22  40  54  88 114 154 202 246 300 346
#     4  12  23  40  63  88 124 161 212 245 312 368
#     4  10  20  38  60  93 122 155 201 254 311 365
#     4  11  24  40  61  86 118 164 199 257 296 359
#     4  11  23  40  55  82 115 161 199 243 297 356
#     4  11  23  37  59  82 117 160 197 251 299 360
#     4  10  22  34  63  92 120 156 200 259 306 367
#
# _framework density 21.186074999999999
#
# number of rings (size 3 to 8) (size 9 to 14) (size 15 to 20)
#    0.000    1.600    4.000    1.600    1.867    5.333 
#    0.000    0.000    0.000    1.600    0.000    0.000 
#    0.000    0.000    0.000    0.000    0.000    0.000 
#
# Total GULP energy -167072.748177 kJ/mol
# GULP energy per Si atom -5569.091606 kJ/mol
# Density = 2.113786 g / cm^3
# Si number density = 21.186075 Si / 1000 Ang^3
#
#
#
# Elastic Constant Matrix: (Units=GPa)
#
#
# Indices 1 2 3 4 5 6 
#
# 1 95.3861 4.3851 15.4452 0.0000 15.5982 0.0000
# 2 4.3851 101.9798 -6.7903 -0.0001 -7.7555 0.0001
# 3 15.4452 -6.7903 59.5169 -0.0001 19.3395 0.0000
# 4 0.0000 -0.0001 -0.0001 9.8539 0.0000 3.9118
# 5 15.5982 -7.7555 19.3395 0.0000 23.1367 0.0000
# 6 0.0000 0.0001 0.0000 3.9118 0.0000 21.1499
#
#
#
# Elastic Compliance Matrix: (Units=1/GPa)
#
#
# Indices 1 2 3 4 5 6 
#
# 1 0.011933 -0.001156 -0.000671 0.000000 -0.007872 0.000000
# 2 -0.001156 0.010175 0.000136 0.000000 0.004076 0.000000
# 3 -0.000671 0.000136 0.023105 0.000000 -0.018815 0.000000
# 4 0.000000 0.000000 0.000000 0.109524 0.000000 -0.020257
# 5 -0.007872 0.004076 -0.018815 0.000000 0.065622 0.000000
# 6 0.000000 0.000000 0.000000 -0.020257 0.000000 0.051028
#
#
# Mechanical properties :
#
#
# Convention : Reuss Voigt Hill
#
# Bulk Modulus (GPa) = 23.90550 31.44031 27.67290
# Shear Modulus (GPa) = 17.31826 27.08430 22.20128
#
# Velocity S-wave (km/s) = 2.86219 3.57935 3.24067
# Velocity P-wave (km/s) = 4.71496 5.65284 5.20507
#
# Compressibility (1/GPa) = 0.04183138
#
# Stress axis : x y z
#
# Youngs Moduli (GPa) = 83.80315 98.28336 43.27982
#
# Poissons Ratio (x) = 0.11366 0.02903
# Poissons Ratio (y) = 0.09691 -0.00590
# Poissons Ratio (z) = 0.05621 -0.01341
#
# Static dielectric constant tensor:
#      x y z
#    x 1.824230 0.000000 -0.015130 
#    y 0.000000 1.828380 0.000000 
#    z -0.015130 0.000000 1.835510 
# 
# From -- ./inp_files/315110.got.cif
#   From: 2010.05.17/outbox.cif.g08.bks.cpg/sg15_158_cif.got.tgz:315110.got - 2010.06.03 18:47:42.
