data_PCOD9273312
_publ_section_title
;
Structure prediction by ZEFSAII (Michael W. Deem and Ramdas Pophale) SiO2 
 PCOD9273312
Probable space group: C 2/C
;
_chemical_formula_sum "Si O2"
_cell_formula_units_Z 64
_cell_length_a 12.480520
_cell_length_b 26.478144
_cell_length_c 13.789044
_cell_angle_alpha 90.000000
_cell_angle_beta 138.084149
_cell_angle_gamma 90.000000
_cell_volume 3044.078406
_symmetry_space_group_name_H-M "C 2/C"
_symmetry_group_IT_number 15
_symmetry_cell_setting 'monoclinic'
loop_
_space_group_symop_operation_xyz
x,y,z
-x,y,1/2-z
-x,-y,-z
x,-y,1/2+z
1/2+x,1/2+y,z
1/2-x,1/2+y,1/2-z
1/2-x,1/2-y,-z
1/2+x,1/2-y,1/2+z
loop_
_atom_site_type_symbol
_atom_site_label
_atom_site_fract_x
_atom_site_fract_y
_atom_site_fract_z
Si Si1 0.523955 0.156508 0.494577
Si Si2 0.459471 0.756168 0.830417
Si Si3 0.236946 0.090788 0.222399
Si Si4 0.868645 0.564091 0.838203
Si Si5 0.425704 0.228803 0.601544
Si Si6 0.396986 0.304172 0.905070
Si Si7 0.226775 0.475584 0.579270
Si Si8 0.671209 0.503978 0.562939
O O1 0.571282 0.197579 0.445799
O O2 0.404174 0.117800 0.361070
O O3 0.647810 0.120710 0.633069
O O4 0.437144 0.189391 0.520226
O O5 0.500000 0.740482 0.750000
O O6 0.280553 0.779254 0.707843
O O7 0.492820 0.712679 0.930650
O O8 0.120590 0.136033 0.114963
O O9 0.187195 0.062046 0.287393
O O10 0.256778 0.048174 0.154062
O O11 0.814587 0.525495 0.886420
O O12 0.764162 0.550295 0.675075
O O13 0.054488 0.550535 0.939726
O O14 0.500000 0.206725 0.750000
O O15 0.250000 0.250000 0.500000
O O16 0.529472 0.277294 0.639275
O O17 0.321878 0.489173 0.546914
O O18 0.500000 0.500000 0.500000
#
# Coordination Sequence:
#
# PCOD9273312 Si02
#       8
#     8   8   8   8   8   8   8   8
#     4   9  20  37  59  92 118 156 218 259 299 386
#     4  10  20  37  64  91 130 167 209 263 317 372
#     4   9  20  40  60  85 119 163 210 248 329 375
#     4   9  19  37  59  89 115 158 215 260 313 373
#     4  11  22  40  61  91 131 168 208 266 322 374
#     4  10  21  41  61  91 130 162 215 259 311 395
#     4   9  19  38  64  83 117 160 209 268 306 376
#     4  11  23  39  57  89 129 162 208 271 330 381
#
# _framework density 21.024424
#
# number of rings (size 3 to 8) (size 9 to 14) (size 15 to 20)
#    0.000    2.250    0.000    3.750    0.000    6.000 
#   15.750    0.000    2.750    0.000    0.000    0.000 
#    0.000    0.000    0.000    0.000    0.000    0.000 
#
# Total GULP energy -178619.653898 kJ/mol
# GULP energy per Si atom -5581.864184 kJ/mol
# Density = 2.097657 g / cm^3
# Si number density = 21.024424 Si / 1000 Ang^3
#
#
#
# Elastic Constant Matrix: (Units=GPa)
#
#
# Indices 1 2 3 4 5 6 
#
# 1 85.4882 5.1514 28.6910 0.0000 -18.2801 0.0000
# 2 5.1514 82.6144 24.5361 0.0000 -14.7112 0.0000
# 3 28.6910 24.5361 55.4713 0.0000 -14.8791 0.0000
# 4 0.0000 0.0000 0.0000 32.7193 0.0000 2.7859
# 5 -18.2801 -14.7112 -14.8791 0.0000 34.8838 0.0000
# 6 0.0000 0.0000 0.0000 2.7859 0.0000 10.4747
#
#
#
# Elastic Compliance Matrix: (Units=1/GPa)
#
#
# Indices 1 2 3 4 5 6 
#
# 1 0.015269 0.002264 -0.007336 0.000000 0.005827 0.000000
# 2 0.002264 0.014699 -0.006427 0.000000 0.004644 0.000000
# 3 -0.007336 -0.006427 0.025866 0.000000 0.004478 0.000000
# 4 0.000000 0.000000 0.000000 0.031271 0.000000 -0.008317
# 5 0.005827 0.004644 0.004478 0.000000 0.035589 0.000000
# 6 0.000000 0.000000 0.000000 -0.008317 0.000000 0.097680
#
#
# Mechanical properties :
#
#
# Convention : Reuss Voigt Hill
#
# Bulk Modulus (GPa) = 30.45423 37.81452 34.13437
# Shear Modulus (GPa) = 19.66049 26.62859 23.14454
#
# Velocity S-wave (km/s) = 3.06130 3.56273 3.32149
# Velocity P-wave (km/s) = 5.19731 5.91178 5.56602
#
# Compressibility (1/GPa) = 0.03283616
#
# Stress axis : x y z
#
# Youngs Moduli (GPa) = 65.49119 68.03162 38.66128
#
# Poissons Ratio (x) = -0.15405 0.28362
# Poissons Ratio (y) = -0.14829 0.24848
# Poissons Ratio (z) = 0.48045 0.43725
#
# Static dielectric constant tensor:
#      x y z
#    x 1.707380 0.000000 -0.021230 
#    y 0.000000 1.772650 0.000000 
#    z -0.021230 0.000000 1.741860 
# 
# From -- ./inp_files/148773.got.cif
#   From: 2010.05.17/outbox.cif.g08.bks.cpg/sg15_75_cif.got.tgz:148773.got - 2010.06.03 18:47:42.
