data_PCOD9273128
_publ_section_title
;
Structure prediction by ZEFSAII (Michael W. Deem and Ramdas Pophale) SiO2 
 PCOD9273128
Probable space group: C 2/C
;
_chemical_formula_sum "Si O2"
_cell_formula_units_Z 40
_cell_length_a 9.745569
_cell_length_b 11.851452
_cell_length_c 16.748899
_cell_angle_alpha 90.000000
_cell_angle_beta 61.887193
_cell_angle_gamma 90.000000
_cell_volume 1706.256143
_symmetry_space_group_name_H-M "C 2/C"
_symmetry_group_IT_number 15
_symmetry_cell_setting 'monoclinic'
loop_
_space_group_symop_operation_xyz
x,y,z
-x,y,1/2-z
-x,-y,-z
x,-y,1/2+z
1/2+x,1/2+y,z
1/2-x,1/2+y,1/2-z
1/2-x,1/2-y,-z
1/2+x,1/2-y,1/2+z
loop_
_atom_site_type_symbol
_atom_site_label
_atom_site_fract_x
_atom_site_fract_y
_atom_site_fract_z
Si Si1 0.087645 0.496728 0.576269
Si Si2 0.065146 0.977891 0.568871
Si Si3 0.500000 0.866815 0.750000
Si Si4 0.430277 0.234075 0.858523
Si Si5 0.316102 0.841638 0.652394
Si Si6 0.500000 0.494371 0.750000
O O1 0.251889 0.499363 0.489166
O O2 0.101665 0.445023 0.662766
O O3 0.028371 0.622928 0.605893
O O4 0.043555 0.585544 0.422356
O O5 0.029746 0.848396 0.605263
O O6 0.000000 0.000000 0.500000
O O7 0.004129 0.049803 0.661587
O O8 0.382583 0.805965 0.720802
O O9 0.500000 0.225460 0.750000
O O10 0.245581 0.245246 0.889422
O O11 0.164444 0.923181 0.705050
#
# Coordination Sequence:
#
# PCOD9273128 Si02
#       6
#     8   8   4   8   8   4
#     4  10  21  36  63  94 122 171 221 265 327 397
#     4  11  22  37  64  93 127 175 215 271 333 394
#     4   8  18  35  58  93 122 154 220 256 317 397
#     4  11  20  37  62  92 130 167 216 274 322 393
#     4   9  18  35  63  90 127 168 208 272 329 382
#     4  10  20  37  62  95 126 166 224 264 329 401
#
# _framework density 23.443138999999999
#
# number of rings (size 3 to 8) (size 9 to 14) (size 15 to 20)
#    1.200    0.800    5.000    1.800    0.000    3.200 
#    0.000    0.000    0.000   31.200    0.000    0.000 
#    0.000    0.000    0.000    0.000    0.000    0.000 
#
# Total GULP energy -111403.533023 kJ/mol
# GULP energy per Si atom -5570.176651 kJ/mol
# Density = 2.338978 g / cm^3
# Si number density = 23.443139 Si / 1000 Ang^3
#
#
#
# Elastic Constant Matrix: (Units=GPa)
#
#
# Indices 1 2 3 4 5 6 
#
# 1 82.7906 4.9098 26.7245 0.0000 25.5274 0.0000
# 2 4.9098 52.7873 20.7368 0.0000 6.2431 0.0000
# 3 26.7245 20.7368 173.4856 0.0000 8.4796 0.0000
# 4 0.0000 0.0000 0.0000 24.8395 0.0000 7.4096
# 5 25.5274 6.2431 8.4796 0.0000 65.4326 0.0000
# 6 0.0000 0.0000 0.0000 7.4096 0.0000 4.0785
#
#
#
# Elastic Compliance Matrix: (Units=1/GPa)
#
#
# Indices 1 2 3 4 5 6 
#
# 1 0.014358 0.000067 -0.001958 0.000000 -0.005354 0.000000
# 2 0.000067 0.020045 -0.002326 0.000000 -0.001637 0.000000
# 3 -0.001958 -0.002326 0.006336 0.000000 0.000165 0.000000
# 4 0.000000 0.000000 0.000000 0.087890 0.000000 -0.159676
# 5 -0.005354 -0.001637 0.000165 0.000000 0.017507 0.000000
# 6 0.000000 0.000000 0.000000 -0.159676 0.000000 0.535287
#
#
# Mechanical properties :
#
#
# Convention : Reuss Voigt Hill
#
# Bulk Modulus (GPa) = 30.95600 45.97838 38.46719
# Shear Modulus (GPa) = 7.13649 35.98294 21.55972
#
# Velocity S-wave (km/s) = 1.74665 3.92203 3.03588
# Velocity P-wave (km/s) = 4.15946 6.33759 5.36033
#
# Compressibility (1/GPa) = 0.03230391
#
# Stress axis : x y z
#
# Youngs Moduli (GPa) = 69.64964 49.88724 157.83323
#
# Poissons Ratio (x) = -0.00334 0.30904
# Poissons Ratio (y) = -0.00467 0.36717
# Poissons Ratio (z) = 0.13638 0.11605
#
# Static dielectric constant tensor:
#      x y z
#    x 1.933680 0.000000 0.058630 
#    y 0.000000 1.932310 0.000000 
#    z 0.058630 0.000000 1.999070 
# 
# From -- ./inp_files/142655.got.cif
#   From: 2010.05.17/outbox.cif.g08.bks.cpg/sg15_72_cif.got.tgz:142655.got - 2010.06.03 18:47:42.
