data_PCOD9273175
_publ_section_title
;
Structure prediction by ZEFSAII (Michael W. Deem and Ramdas Pophale) SiO2 
 PCOD9273175
Probable space group: C 2/C
;
_chemical_formula_sum "Si O2"
_cell_formula_units_Z 48
_cell_length_a 26.689256
_cell_length_b 7.818801
_cell_length_c 21.945673
_cell_angle_alpha 90.000000
_cell_angle_beta 152.542020
_cell_angle_gamma 90.000000
_cell_volume 2111.634447
_symmetry_space_group_name_H-M "C 2/C"
_symmetry_group_IT_number 15
_symmetry_cell_setting 'monoclinic'
loop_
_space_group_symop_operation_xyz
x,y,z
-x,y,1/2-z
-x,-y,-z
x,-y,1/2+z
1/2+x,1/2+y,z
1/2-x,1/2+y,1/2-z
1/2-x,1/2-y,-z
1/2+x,1/2-y,1/2+z
loop_
_atom_site_type_symbol
_atom_site_label
_atom_site_fract_x
_atom_site_fract_y
_atom_site_fract_z
Si Si1 0.124400 0.941273 0.129306
Si Si2 0.313383 0.938349 0.137729
Si Si3 0.321312 0.021462 0.013669
Si Si4 0.079010 0.109864 0.887704
Si Si5 0.108007 0.205054 0.738045
Si Si6 0.230922 0.708251 0.146820
O O1 0.137999 0.808770 0.200081
O O2 0.163165 0.849787 0.109849
O O3 0.203007 0.097168 0.232859
O O4 0.000000 0.000000 0.000000
O O5 0.386446 0.099307 0.235451
O O6 0.316330 0.787928 0.190001
O O7 0.333034 0.909164 0.087270
O O8 0.189364 0.006071 0.009807
O O9 0.199195 0.097960 0.873572
O O10 0.342222 0.913744 0.975206
O O11 0.390164 0.193771 0.094439
O O12 0.000000 0.042276 0.750000
O O13 0.007916 0.123377 0.871890
#
# Coordination Sequence:
#
# PCOD9273175 Si02
#       6
#     8   8   8   8   8   8
#     4  11  25  46  64  90 124 169 223 262 307 367
#     4  11  20  37  62  94 125 161 196 251 321 375
#     4  10  21  37  60  94 126 157 197 250 317 375
#     4  11  18  35  62  92 127 159 192 241 308 383
#     4  10  20  37  63  89 122 161 202 247 308 376
#     4  11  25  43  63  88 124 168 211 267 314 366
#
# _framework density 22.731207000000001
#
# number of rings (size 3 to 8) (size 9 to 14) (size 15 to 20)
#    0.000    1.333    3.333    3.500    0.000    4.000 
#    0.000    3.333    0.000    0.000    0.000    0.000 
#    0.000    0.000    0.000    0.000    0.000    0.000 
#
# Total GULP energy -134174.803659 kJ/mol
# GULP energy per Si atom -5590.616819 kJ/mol
# Density = 2.267947 g / cm^3
# Si number density = 22.731207 Si / 1000 Ang^3
#
#
#
# Elastic Constant Matrix: (Units=GPa)
#
#
# Indices 1 2 3 4 5 6 
#
# 1 95.7620 7.8168 19.6321 0.0000 -11.1557 0.0000
# 2 7.8168 60.9023 14.9984 0.0000 -9.3110 0.0000
# 3 19.6321 14.9984 54.1564 0.0000 4.3242 0.0000
# 4 0.0000 0.0000 0.0000 14.9735 0.0000 -9.5446
# 5 -11.1557 -9.3110 4.3242 0.0000 31.5610 0.0000
# 6 0.0000 0.0000 0.0000 -9.5446 0.0000 42.7288
#
#
#
# Elastic Compliance Matrix: (Units=1/GPa)
#
#
# Indices 1 2 3 4 5 6 
#
# 1 0.011992 0.000429 -0.004868 0.000000 0.005032 0.000000
# 2 0.000429 0.018809 -0.005884 0.000000 0.006507 0.000000
# 3 -0.004868 -0.005884 0.022380 0.000000 -0.006523 0.000000
# 4 0.000000 0.000000 0.000000 0.077873 0.000000 0.017395
# 5 0.005032 0.006507 -0.006523 0.000000 0.036277 0.000000
# 6 0.000000 0.000000 0.000000 0.017395 0.000000 0.027289
#
#
# Mechanical properties :
#
#
# Convention : Reuss Voigt Hill
#
# Bulk Modulus (GPa) = 30.73636 32.85727 31.79681
# Shear Modulus (GPa) = 22.11325 29.07755 25.59540
#
# Velocity S-wave (km/s) = 3.12238 3.58046 3.35924
# Velocity P-wave (km/s) = 5.15267 5.61952 5.39115
#
# Compressibility (1/GPa) = 0.03253476
#
# Stress axis : x y z
#
# Youngs Moduli (GPa) = 83.39131 53.16740 44.68283
#
# Poissons Ratio (x) = -0.02281 0.21750
# Poissons Ratio (y) = -0.03577 0.26291
# Poissons Ratio (z) = 0.40592 0.31284
#
# Static dielectric constant tensor:
#      x y z
#    x 1.870230 0.000000 -0.015880 
#    y 0.000000 1.859290 0.000000 
#    z -0.015880 0.000000 1.830300 
# 
# From -- ./inp_files/257240.got.cif
#   From: 2010.05.17/outbox.cif.g08.bks.cpg/sg15_129_cif.got.tgz:257240.got - 2010.06.03 18:47:42.
