data_PCOD9273394
_publ_section_title
;
Structure prediction by ZEFSAII (Michael W. Deem and Ramdas Pophale) SiO2 
 PCOD9273394
Probable space group: C 2/C
;
_chemical_formula_sum "Si O2"
_cell_formula_units_Z 60
_cell_length_a 19.013842
_cell_length_b 16.463980
_cell_length_c 18.513978
_cell_angle_alpha 90.000000
_cell_angle_beta 152.223883
_cell_angle_gamma 90.000000
_cell_volume 2700.890815
_symmetry_space_group_name_H-M "C 2/C"
_symmetry_group_IT_number 15
_symmetry_cell_setting 'monoclinic'
loop_
_space_group_symop_operation_xyz
x,y,z
-x,y,1/2-z
-x,-y,-z
x,-y,1/2+z
1/2+x,1/2+y,z
1/2-x,1/2+y,1/2-z
1/2-x,1/2-y,-z
1/2+x,1/2-y,1/2+z
loop_
_atom_site_type_symbol
_atom_site_label
_atom_site_fract_x
_atom_site_fract_y
_atom_site_fract_z
Si Si1 0.500000 0.778331 0.750000
Si Si2 0.786916 0.774007 0.805053
Si Si3 0.592393 0.298261 0.006392
Si Si4 0.793269 0.576293 0.621075
Si Si5 0.808227 0.517960 0.883174
Si Si6 0.623273 0.869144 0.461846
Si Si7 0.234998 0.328708 0.078870
Si Si8 0.658743 0.946861 0.731307
O O1 0.619714 0.721087 0.816824
O O2 0.394149 0.830165 0.599968
O O3 0.671244 0.720156 0.654281
O O4 0.834518 0.720923 0.916911
O O5 0.717767 0.857181 0.772115
O O6 0.918599 0.793671 0.868432
O O7 0.647314 0.380786 0.020746
O O8 0.641170 0.224787 0.997288
O O9 0.809965 0.598419 0.552618
O O10 0.804712 0.483229 0.656910
O O11 0.943136 0.615396 0.793876
O O12 0.718106 0.583190 0.848135
O O13 0.771268 0.508091 0.765486
O O14 0.808945 0.427314 0.915579
O O15 0.980951 0.548538 0.051796
#
# Coordination Sequence:
#
# PCOD9273394 Si02
#       8
#     4   8   8   8   8   8   8   8
#     4  10  24  42  62  92 134 164 222 258 326 390
#     4  12  24  39  68  95 129 163 219 266 330 378
#     4  12  22  41  63  96 127 169 213 273 318 392
#     4  10  22  38  62  88 128 167 213 265 323 383
#     4  10  20  37  65  88 126 166 217 258 321 379
#     4  10  21  39  61  92 124 169 214 262 318 391
#     4  11  23  41  65  94 124 176 207 271 319 394
#     4  10  21  38  60  95 124 165 212 269 315 392
#
# _framework density 22.214894000000001
#
# number of rings (size 3 to 8) (size 9 to 14) (size 15 to 20)
#    0.000    1.333    2.667    3.600    1.867    4.800 
#    0.000    1.333    0.000    0.000    0.000    0.000 
#    0.000    0.000    0.000    0.000    0.000    0.000 
#
# Total GULP energy -167722.960538 kJ/mol
# GULP energy per Si atom -5590.765351 kJ/mol
# Density = 2.216433 g / cm^3
# Si number density = 22.214894 Si / 1000 Ang^3
#
#
#
# Elastic Constant Matrix: (Units=GPa)
#
#
# Indices 1 2 3 4 5 6 
#
# 1 59.5016 9.1211 9.8894 -0.0014 -7.9746 0.0004
# 2 9.1211 55.3994 -0.9110 -0.0013 -4.3038 0.0002
# 3 9.8894 -0.9110 38.8344 -0.0026 -6.1671 -0.0001
# 4 -0.0014 -0.0013 -0.0026 22.4674 -0.0018 -3.5777
# 5 -7.9746 -4.3038 -6.1671 -0.0018 32.1111 0.0001
# 6 0.0004 0.0002 -0.0001 -3.5777 0.0001 37.7737
#
#
#
# Elastic Compliance Matrix: (Units=1/GPa)
#
#
# Indices 1 2 3 4 5 6 
#
# 1 0.018394 -0.002835 -0.004214 0.000001 0.003379 0.000000
# 2 -0.002835 0.018704 0.001493 0.000001 0.002089 0.000000
# 3 -0.004214 0.001493 0.027565 0.000003 0.004447 0.000000
# 4 0.000001 0.000001 0.000003 0.045191 0.000004 0.004280
# 5 0.003379 0.002089 0.004447 0.000004 0.033115 0.000000
# 6 0.000000 0.000000 0.000000 0.004280 0.000000 0.026879
#
#
# Mechanical properties :
#
#
# Convention : Reuss Voigt Hill
#
# Bulk Modulus (GPa) = 18.67422 21.10383 19.88903
# Shear Modulus (GPa) = 25.14945 27.51282 26.33113
#
# Velocity S-wave (km/s) = 3.36832 3.52303 3.44654
# Velocity P-wave (km/s) = 4.85302 5.10583 4.98103
#
# Compressibility (1/GPa) = 0.05354975
#
# Stress axis : x y z
#
# Youngs Moduli (GPa) = 54.36519 53.46336 36.27815
#
# Poissons Ratio (x) = 0.15158 0.15288
# Poissons Ratio (y) = 0.15414 -0.05415
# Poissons Ratio (z) = 0.22910 -0.07980
#
# Static dielectric constant tensor:
#      x y z
#    x 1.842770 0.000000 -0.001560 
#    y 0.000000 1.801570 0.000000 
#    z -0.001560 0.000000 1.781730 
# 
# From -- ./inp_files/211752.got.cif
#   From: 2010.05.17/outbox.cif.g08.bks.cpg/sg15_106_cif.got.tgz:211752.got - 2010.06.03 18:47:42.
