data_PCOD9273618
_publ_section_title
;
Structure prediction by ZEFSAII (Michael W. Deem and Ramdas Pophale) SiO2 
 PCOD9273618
Probable space group: C 2/C
;
_chemical_formula_sum "Si O2"
_cell_formula_units_Z 56
_cell_length_a 19.677798
_cell_length_b 16.565379
_cell_length_c 12.361663
_cell_angle_alpha 90.000000
_cell_angle_beta 46.939147
_cell_angle_gamma 90.000000
_cell_volume 2944.093851
_symmetry_space_group_name_H-M "C 2/C"
_symmetry_group_IT_number 15
_symmetry_cell_setting 'monoclinic'
loop_
_space_group_symop_operation_xyz
x,y,z
-x,y,1/2-z
-x,-y,-z
x,-y,1/2+z
1/2+x,1/2+y,z
1/2-x,1/2+y,1/2-z
1/2-x,1/2-y,-z
1/2+x,1/2-y,1/2+z
loop_
_atom_site_type_symbol
_atom_site_label
_atom_site_fract_x
_atom_site_fract_y
_atom_site_fract_z
Si Si1 0.096175 0.034077 0.944690
Si Si2 0.068267 0.270445 0.327302
Si Si3 0.095114 0.450388 0.378068
Si Si4 0.245657 0.606730 0.880966
Si Si5 0.114131 0.202438 0.039709
Si Si6 0.735046 0.267861 0.772723
Si Si7 0.253104 0.928705 0.869435
O O1 0.165592 0.065761 0.774477
O O2 0.154074 0.964903 0.941998
O O3 0.091110 0.109517 0.034938
O O4 0.000000 0.000000 0.000000
O O5 0.081380 0.366090 0.329116
O O6 0.099950 0.231363 0.178132
O O7 0.127671 0.227036 0.355303
O O8 0.959718 0.252110 0.451159
O O9 0.151942 0.428323 0.426225
O O10 0.167689 0.505032 0.234264
O O11 0.000000 0.500000 0.500000
O O12 0.247615 0.701176 0.850847
O O13 0.248132 0.594230 0.004711
O O14 0.214225 0.228335 0.886433
O O15 0.772651 0.352819 0.770691
#
# Coordination Sequence:
#
# PCOD9273618 Si02
#       7
#     8   8   8   8   8   8   8
#     4  10  22  39  57  85 118 146 186 241 289 338
#     4  10  21  36  57  83 111 148 189 230 282 345
#     4  10  22  39  57  85 118 146 186 241 289 338
#     4   9  22  38  55  82 113 145 191 231 281 347
#     4  10  21  36  57  83 111 148 189 230 282 345
#     4  10  20  38  56  77 113 150 187 233 281 336
#     4  11  22  36  60  83 108 151 188 232 288 341
#
# _framework density 19.021132999999999
#
# number of rings (size 3 to 8) (size 9 to 14) (size 15 to 20)
#    0.000    2.000    0.000    3.429    0.000   10.286 
#    0.000    0.000    0.000    5.143    0.000    0.000 
#    0.000    0.000    0.000    0.000    0.000    0.000 
#
# Total GULP energy -156183.652517 kJ/mol
# GULP energy per Si atom -5577.987590 kJ/mol
# Density = 1.897784 g / cm^3
# Si number density = 19.021133 Si / 1000 Ang^3
#
#
#
# Elastic Constant Matrix: (Units=GPa)
#
#
# Indices 1 2 3 4 5 6 
#
# 1 83.4679 35.2504 20.8562 0.0000 -16.8595 0.0000
# 2 35.2504 109.4160 21.8134 0.0000 2.3076 0.0000
# 3 20.8562 21.8134 37.9186 0.0000 2.9001 0.0000
# 4 0.0000 0.0000 0.0000 29.5623 0.0000 -2.7528
# 5 -16.8595 2.3076 2.9001 0.0000 28.2992 0.0000
# 6 0.0000 0.0000 0.0000 -2.7528 0.0000 29.5007
#
#
#
# Elastic Compliance Matrix: (Units=1/GPa)
#
#
# Indices 1 2 3 4 5 6 
#
# 1 0.018491 -0.004520 -0.008508 0.000000 0.012257 0.000000
# 2 -0.004520 0.011430 -0.003842 0.000000 -0.003231 0.000000
# 3 -0.008508 -0.003842 0.033891 0.000000 -0.008229 0.000000
# 4 0.000000 0.000000 0.000000 0.034123 0.000000 0.003184
# 5 0.012257 -0.003231 -0.008229 0.000000 0.043745 0.000000
# 6 0.000000 0.000000 0.000000 0.003184 0.000000 0.034195
#
#
# Mechanical properties :
#
#
# Convention : Reuss Voigt Hill
#
# Bulk Modulus (GPa) = 33.25270 42.96026 38.10648
# Shear Modulus (GPa) = 22.76464 27.66460 25.21462
#
# Velocity S-wave (km/s) = 3.46324 3.81782 3.64484
# Velocity P-wave (km/s) = 5.78896 6.48605 6.14739
#
# Compressibility (1/GPa) = 0.03007275
#
# Stress axis : x y z
#
# Youngs Moduli (GPa) = 54.08058 87.49219 29.50596
#
# Poissons Ratio (x) = 0.39542 0.25104
# Poissons Ratio (y) = 0.24442 0.11337
# Poissons Ratio (z) = 0.46012 0.33616
#
# Static dielectric constant tensor:
#      x y z
#    x 1.647860 0.000000 -0.013260 
#    y 0.000000 1.673420 0.000000 
#    z -0.013260 0.000000 1.643920 
# 
# From -- ./inp_files/105632.got.cif
#   From: 2010.05.17/outbox.cif.g08.bks.cpg/sg15_53_cif.got.tgz:105632.got - 2010.06.03 18:47:42.
