data_PCOD9273038
_publ_section_title
;
Structure prediction by ZEFSAII (Michael W. Deem and Ramdas Pophale) SiO2 
 PCOD9273038
Probable space group: C 2/C
;
_chemical_formula_sum "Si O2"
_cell_formula_units_Z 36
_cell_length_a 19.634883
_cell_length_b 8.853437
_cell_length_c 10.284926
_cell_angle_alpha 90.000000
_cell_angle_beta 130.721618
_cell_angle_gamma 90.000000
_cell_volume 1355.022666
_symmetry_space_group_name_H-M "C 2/C"
_symmetry_group_IT_number 15
_symmetry_cell_setting 'monoclinic'
loop_
_space_group_symop_operation_xyz
x,y,z
-x,y,1/2-z
-x,-y,-z
x,-y,1/2+z
1/2+x,1/2+y,z
1/2-x,1/2+y,1/2-z
1/2-x,1/2-y,-z
1/2+x,1/2-y,1/2+z
loop_
_atom_site_type_symbol
_atom_site_label
_atom_site_fract_x
_atom_site_fract_y
_atom_site_fract_z
Si Si1 0.000000 0.500000 0.000000
Si Si2 0.208584 0.347287 0.833818
Si Si3 0.816991 0.037791 0.792018
Si Si4 0.058675 0.181388 0.196366
Si Si5 0.865893 0.550365 0.578739
O O1 0.978990 0.689820 0.948087
O O2 0.062905 0.507400 0.941707
O O3 0.287455 0.457253 0.886968
O O4 0.123116 0.446124 0.775285
O O5 0.180068 0.217970 0.697954
O O6 0.250000 0.250000 0.000000
O O7 0.901839 0.959287 0.832498
O O8 0.729851 0.991223 0.598392
O O9 0.133191 0.283427 0.362650
O O10 0.000000 0.135124 0.250000
#
# Coordination Sequence:
#
# PCOD9273038 Si02
#       5
#     4   8   8   8   8
#     4  10  20  38  62  88 124 168 218 266 328 396
#     4  10  21  36  61  92 125 164 210 267 326 389
#     4  11  21  38  61  90 126 165 217 270 323 389
#     4  10  21  37  58  85 122 166 212 265 328 390
#     4  10  20  37  62  89 119 166 215 265 324 390
#
# _framework density 26.567820000000001
#
# number of rings (size 3 to 8) (size 9 to 14) (size 15 to 20)
#    0.000    1.778    0.000    6.000    0.000    1.778 
#    0.000    5.556    0.000   14.667    0.000    0.000 
#    0.000    0.000    0.000    0.000    0.000    0.000 
#
# Total GULP energy -100315.439254 kJ/mol
# GULP energy per Si atom -5573.079959 kJ/mol
# Density = 2.650735 g / cm^3
# Si number density = 26.567820 Si / 1000 Ang^3
#
#
#
# Elastic Constant Matrix: (Units=GPa)
#
#
# Indices 1 2 3 4 5 6 
#
# 1 186.6353 90.8474 -3.1158 0.0000 -19.6150 0.0000
# 2 90.8474 140.8712 -7.8838 0.0000 -13.9540 0.0000
# 3 -3.1158 -7.8838 72.1104 0.0000 -13.3042 0.0000
# 4 0.0000 0.0000 0.0000 22.1989 0.0000 -15.2189
# 5 -19.6150 -13.9540 -13.3042 0.0000 52.0138 0.0000
# 6 0.0000 0.0000 0.0000 -15.2189 0.0000 61.9584
#
#
#
# Elastic Compliance Matrix: (Units=1/GPa)
#
#
# Indices 1 2 3 4 5 6 
#
# 1 0.007949 -0.004951 0.000116 0.000000 0.001699 0.000000
# 2 -0.004951 0.010480 0.001161 0.000000 0.001241 0.000000
# 3 0.000116 0.001161 0.014762 0.000000 0.004131 0.000000
# 4 0.000000 0.000000 0.000000 0.054169 0.000000 0.013306
# 5 0.001699 0.001241 0.004131 0.000000 0.021256 0.000000
# 6 0.000000 0.000000 0.000000 0.013306 0.000000 0.019408
#
#
# Mechanical properties :
#
#
# Convention : Reuss Voigt Hill
#
# Bulk Modulus (GPa) = 38.69974 62.14585 50.42279
# Shear Modulus (GPa) = 34.72551 48.55216 41.63883
#
# Velocity S-wave (km/s) = 3.61924 4.27954 3.96317
# Velocity P-wave (km/s) = 5.66244 6.91820 6.32158
#
# Compressibility (1/GPa) = 0.02583997
#
# Stress axis : x y z
#
# Youngs Moduli (GPa) = 125.80784 95.42277 67.74316
#
# Poissons Ratio (x) = 0.47247 -0.00783
# Poissons Ratio (y) = 0.62291 -0.07864
# Poissons Ratio (z) = -0.01454 -0.11077
#
# Static dielectric constant tensor:
#      x y z
#    x 2.186030 0.000000 -0.162270 
#    y 0.000000 2.065120 0.000000 
#    z -0.162270 0.000000 1.933620 
# 
# From -- ./inp_files/102904.got.cif
#   From: 2010.05.17/outbox.cif.g08.bks.cpg/sg15_52_cif.got.tgz:102904.got - 2010.06.03 18:47:42.
