data_PCOD9273569
_publ_section_title
;
Structure prediction by ZEFSAII (Michael W. Deem and Ramdas Pophale) SiO2 
 PCOD9273569
Probable space group: C 2/C
;
_chemical_formula_sum "Si O2"
_cell_formula_units_Z 60
_cell_length_a 22.111047
_cell_length_b 15.952718
_cell_length_c 12.616559
_cell_angle_alpha 90.000000
_cell_angle_beta 34.623099
_cell_angle_gamma 90.000000
_cell_volume 2528.526207
_symmetry_space_group_name_H-M "C 2/C"
_symmetry_group_IT_number 15
_symmetry_cell_setting 'monoclinic'
loop_
_space_group_symop_operation_xyz
x,y,z
-x,y,1/2-z
-x,-y,-z
x,-y,1/2+z
1/2+x,1/2+y,z
1/2-x,1/2+y,1/2-z
1/2-x,1/2-y,-z
1/2+x,1/2-y,1/2+z
loop_
_atom_site_type_symbol
_atom_site_label
_atom_site_fract_x
_atom_site_fract_y
_atom_site_fract_z
Si Si1 0.082186 0.316631 0.548610
Si Si2 0.158141 0.119121 0.992778
Si Si3 0.839323 0.523124 0.595441
Si Si4 0.662779 0.442280 0.720717
Si Si5 0.447305 0.391511 0.060624
Si Si6 0.286352 0.240040 0.327030
Si Si7 0.541369 0.122057 0.482294
Si Si8 0.000000 0.271220 0.250000
O O1 0.118455 0.406288 0.546306
O O2 0.186767 0.260022 0.395644
O O3 0.000000 0.277121 0.750000
O O4 0.030537 0.346272 0.512734
O O5 0.180450 0.087937 0.077646
O O6 0.106620 0.212552 0.085573
O O7 0.066721 0.084942 0.044015
O O8 0.261526 0.081091 0.781083
O O9 0.767523 0.456009 0.637460
O O10 0.933171 0.472525 0.516925
O O11 0.606605 0.533645 0.798153
O O12 0.571448 0.384108 0.904328
O O13 0.378398 0.309030 0.175241
O O14 0.250000 0.250000 0.500000
O O15 0.341269 0.153236 0.222264
O O16 0.499309 0.171914 0.646125
#
# Coordination Sequence:
#
# PCOD9273569 Si02
#       8
#     8   8   8   8   8   8   8   4
#     4  12  26  50  75  95 144 200 234 302 368 432
#     4  11  20  41  72  96 145 187 231 296 366 421
#     4  11  27  44  68 112 141 186 249 291 355 445
#     4  10  20  37  72  99 138 181 232 288 354 418
#     4  10  20  40  66 106 139 180 232 293 358 427
#     4  12  24  47  71 104 144 186 243 298 364 438
#     4  12  28  46  74 109 146 188 248 297 369 444
#     4  12  24  48  74 104 150 194 234 306 372 436
#
# _framework density 23.729239
#
# number of rings (size 3 to 8) (size 9 to 14) (size 15 to 20)
#    0.000    0.800    6.667    0.400    4.667    3.200 
#    0.000    2.000    2.933    0.000    0.000    0.000 
#    0.000    0.000    0.000    0.000    0.000    0.000 
#
# Total GULP energy -167369.505750 kJ/mol
# GULP energy per Si atom -5578.983525 kJ/mol
# Density = 2.367523 g / cm^3
# Si number density = 23.729239 Si / 1000 Ang^3
#
#
#
# Elastic Constant Matrix: (Units=GPa)
#
#
# Indices 1 2 3 4 5 6 
#
# 1 134.4367 10.2729 19.8150 0.0000 -9.7106 0.0000
# 2 10.2729 35.8654 4.9918 0.0000 -0.6047 0.0000
# 3 19.8150 4.9918 62.1379 0.0000 7.9704 0.0000
# 4 0.0000 0.0000 0.0000 34.7930 0.0000 -4.2619
# 5 -9.7106 -0.6047 7.9704 0.0000 39.0166 0.0000
# 6 0.0000 0.0000 0.0000 -4.2619 0.0000 25.3043
#
#
#
# Elastic Compliance Matrix: (Units=1/GPa)
#
#
# Indices 1 2 3 4 5 6 
#
# 1 0.008181 -0.001912 -0.002786 0.000000 0.002576 0.000000
# 2 -0.001912 0.028677 -0.001735 0.000000 0.000323 0.000000
# 3 -0.002786 -0.001735 0.017677 0.000000 -0.004331 0.000000
# 4 0.000000 0.000000 0.000000 0.029347 0.000000 0.004943
# 5 0.002576 0.000323 -0.004331 0.000000 0.027161 0.000000
# 6 0.000000 0.000000 0.000000 0.004943 0.000000 0.040351
#
#
# Mechanical properties :
#
#
# Convention : Reuss Voigt Hill
#
# Bulk Modulus (GPa) = 23.99923 33.62215 28.81069
# Shear Modulus (GPa) = 28.06631 32.98013 30.52322
#
# Velocity S-wave (km/s) = 3.44288 3.73212 3.59041
# Velocity P-wave (km/s) = 5.09316 5.72463 5.41810
#
# Compressibility (1/GPa) = 0.04166800
#
# Stress axis : x y z
#
# Youngs Moduli (GPa) = 122.23167 34.87145 56.57228
#
# Poissons Ratio (x) = 0.06668 0.15759
# Poissons Ratio (y) = 0.23373 0.09818
# Poissons Ratio (z) = 0.34049 0.06052
#
# Static dielectric constant tensor:
#      x y z
#    x 1.946090 0.000000 -0.028280 
#    y 0.000000 1.935580 0.000000 
#    z -0.028280 0.000000 1.989720 
# 
# From -- ./inp_files/113783.got.cif
#   From: 2010.05.17/outbox.cif.g08.bks.cpg/sg15_57_cif.got.tgz:113783.got - 2010.06.03 18:47:42.
