data_PCOD9273231
_publ_section_title
;
Structure prediction by ZEFSAII (Michael W. Deem and Ramdas Pophale) SiO2 
 PCOD9273231
Probable space group: C 2/C
;
_chemical_formula_sum "Si O2"
_cell_formula_units_Z 60
_cell_length_a 23.754824
_cell_length_b 19.813155
_cell_length_c 9.563458
_cell_angle_alpha 90.000000
_cell_angle_beta 38.238673
_cell_angle_gamma 90.000000
_cell_volume 2785.916125
_symmetry_space_group_name_H-M "C 2/C"
_symmetry_group_IT_number 15
_symmetry_cell_setting 'monoclinic'
loop_
_space_group_symop_operation_xyz
x,y,z
-x,y,1/2-z
-x,-y,-z
x,-y,1/2+z
1/2+x,1/2+y,z
1/2-x,1/2+y,1/2-z
1/2-x,1/2-y,-z
1/2+x,1/2-y,1/2+z
loop_
_atom_site_type_symbol
_atom_site_label
_atom_site_fract_x
_atom_site_fract_y
_atom_site_fract_z
Si Si1 0.243054 0.665719 0.390482
Si Si2 0.138774 0.061626 0.160362
Si Si3 0.824937 0.069715 0.737768
Si Si4 0.500000 0.127628 0.250000
Si Si5 0.100221 0.415881 0.046900
Si Si6 0.894734 0.264942 0.126729
Si Si7 0.120932 0.536569 0.206872
Si Si8 0.519390 0.330713 0.552311
O O1 0.287733 0.608595 0.402912
O O2 0.185161 0.633960 0.378853
O O3 0.167908 0.706695 0.625722
O O4 0.327135 0.712450 0.183189
O O5 0.046003 0.104326 0.343230
O O6 0.133379 0.990943 0.250855
O O7 0.164751 0.052995 0.947243
O O8 0.879246 0.139441 0.657865
O O9 0.719071 0.068066 0.981592
O O10 0.426316 0.175355 0.466914
O O11 0.546471 0.082149 0.276462
O O12 0.105300 0.462918 0.901933
O O13 0.113710 0.462626 0.155500
O O14 0.000000 0.383853 0.250000
O O15 0.981915 0.225888 0.020357
O O16 0.500000 0.308320 0.750000
#
# Coordination Sequence:
#
# PCOD9273231 Si02
#       8
#     8   8   8   4   8   8   8   8
#     4  10  22  42  67  90 122 164 220 245 306 370
#     4  10  20  37  63  93 127 165 203 257 313 366
#     4  11  21  37  61  96 129 159 205 260 313 367
#     4  12  26  44  62  90 132 162 208 250 322 362
#     4  12  25  42  66  99 127 157 206 262 318 372
#     4  10  23  43  64  88 123 178 205 253 295 380
#     4  12  26  40  66  97 128 163 200 261 321 368
#     4   9  21  40  62  89 124 168 213 252 302 365
#
# _framework density 21.536901
#
# number of rings (size 3 to 8) (size 9 to 14) (size 15 to 20)
#    0.000    1.333    2.000    3.200    1.867    3.733 
#    2.400    1.333    0.000    0.000    0.000    0.000 
#    0.000    0.000    0.000    0.000    0.000    0.000 
#
# Total GULP energy -167776.542906 kJ/mol
# GULP energy per Si atom -5592.551430 kJ/mol
# Density = 2.148788 g / cm^3
# Si number density = 21.536901 Si / 1000 Ang^3
#
#
#
# Elastic Constant Matrix: (Units=GPa)
#
#
# Indices 1 2 3 4 5 6 
#
# 1 78.7101 4.6921 1.6585 0.0000 -20.9961 0.0000
# 2 4.6921 38.4814 -13.2339 0.0000 -12.1274 0.0000
# 3 1.6585 -13.2339 29.3025 0.0000 -19.2059 0.0000
# 4 0.0000 0.0000 0.0000 22.0873 0.0000 -6.9279
# 5 -20.9961 -12.1274 -19.2059 0.0000 27.5276 0.0000
# 6 0.0000 0.0000 0.0000 -6.9279 0.0000 14.7075
#
#
#
# Elastic Compliance Matrix: (Units=1/GPa)
#
#
# Indices 1 2 3 4 5 6 
#
# 1 -0.011351 -0.071418 -0.106704 0.000000 -0.114567 0.000000
# 2 -0.071418 -0.166954 -0.286106 0.000000 -0.327640 0.000000
# 3 -0.106704 -0.286106 -0.414602 0.000000 -0.496697 0.000000
# 4 0.000000 0.000000 0.000000 0.053124 0.000000 0.025024
# 5 -0.114567 -0.327640 -0.496697 0.000000 -0.541943 0.000000
# 6 0.000000 0.000000 0.000000 0.025024 0.000000 0.079780
#
#
# Mechanical properties :
#
#
# Convention : Reuss Voigt Hill
#
# Bulk Modulus (GPa) = -0.65731 14.74750 7.04510
# Shear Modulus (GPa) = -8.61162 23.08964 7.23901
#
# Velocity S-wave (km/s) = -2.00181 3.27784 1.83535
# Velocity P-wave (km/s) = 2.37673 4.60305 2.78740
#
# Compressibility (1/GPa) = -1.52136112
#
# Stress axis : x y z
#
# Youngs Moduli (GPa) = -88.10115 -5.98969 -2.41195
#
# Poissons Ratio (x) = -0.42777 -0.25736
# Poissons Ratio (y) = -6.29198 -0.69007
# Poissons Ratio (z) = -9.40072 -1.71369
#
# Static dielectric constant tensor:
#      x y z
#    x 1.794770 0.000000 -0.029280 
#    y 0.000000 1.786260 0.000000 
#    z -0.029280 0.000000 1.765630 
# 
# From -- ./inp_files/63508.got.cif
#   From: 2010.05.17/outbox.cif.g08.bks.cpg/sg15_32_cif.got.tgz:63508.got - 2010.06.03 18:47:42.
