data_PCOD9273592
_publ_section_title
;
Structure prediction by ZEFSAII (Michael W. Deem and Ramdas Pophale) SiO2 
 PCOD9273592
Probable space group: C 2/C
;
_chemical_formula_sum "Si O2"
_cell_formula_units_Z 44
_cell_length_a 13.705937
_cell_length_b 6.499156
_cell_length_c 23.232700
_cell_angle_alpha 90.000000
_cell_angle_beta 61.395663
_cell_angle_gamma 90.000000
_cell_volume 1816.910551
_symmetry_space_group_name_H-M "C 2/C"
_symmetry_group_IT_number 15
_symmetry_cell_setting 'monoclinic'
loop_
_space_group_symop_operation_xyz
x,y,z
-x,y,1/2-z
-x,-y,-z
x,-y,1/2+z
1/2+x,1/2+y,z
1/2-x,1/2+y,1/2-z
1/2-x,1/2-y,-z
1/2+x,1/2-y,1/2+z
loop_
_atom_site_type_symbol
_atom_site_label
_atom_site_fract_x
_atom_site_fract_y
_atom_site_fract_z
Si Si1 0.824470 0.974461 0.365789
Si Si2 0.877297 0.341704 0.636349
Si Si3 0.376310 0.864617 0.766518
Si Si4 0.000000 0.767872 0.750000
Si Si5 0.032712 0.311576 0.450299
Si Si6 0.409923 0.577736 0.962005
O O1 0.725213 0.131208 0.378142
O O2 0.939598 0.090754 0.315093
O O3 0.807329 0.770475 0.331104
O O4 0.830200 0.906566 0.430285
O O5 0.844612 0.301938 0.711154
O O6 0.930257 0.571515 0.617364
O O7 0.972118 0.179963 0.591537
O O8 0.500000 0.796390 0.750000
O O9 0.398920 0.110401 0.761937
O O10 0.112865 0.179611 0.469621
O O11 0.000000 0.500000 0.500000
O O12 0.932364 0.161383 0.465417
#
# Coordination Sequence:
#
# PCOD9273592 Si02
#       6
#     8   8   8   4   8   8
#     4  12  23  38  63  90 128 167 211 268 320 388
#     4  11  23  38  62  95 122 165 216 256 320 387
#     4  10  22  39  58  88 128 167 207 257 315 376
#     4  10  20  38  54  82 118 172 198 254 330 360
#     4   9  21  41  67  88 122 167 207 266 318 380
#     4  10  20  43  62  88 125 162 211 261 324 377
#
# _framework density 24.216933000000001
#
# number of rings (size 3 to 8) (size 9 to 14) (size 15 to 20)
#    0.545    1.091    2.727    1.091    2.545    2.182 
#    0.000    8.182    0.000    0.000    0.000    0.000 
#    0.000    0.000    0.000    0.000    0.000    0.000 
#
# Total GULP energy -122558.100178 kJ/mol
# GULP energy per Si atom -5570.822735 kJ/mol
# Density = 2.416181 g / cm^3
# Si number density = 24.216933 Si / 1000 Ang^3
#
#
#
# Elastic Constant Matrix: (Units=GPa)
#
#
# Indices 1 2 3 4 5 6 
#
# 1 73.1506 5.0982 16.6676 0.0000 11.5460 0.0000
# 2 5.0982 91.0418 19.9088 0.0000 -4.3009 0.0000
# 3 16.6676 19.9088 100.2846 0.0000 34.4488 0.0000
# 4 0.0000 0.0000 0.0000 30.5019 0.0000 7.8524
# 5 11.5460 -4.3009 34.4488 0.0000 39.5682 0.0000
# 6 0.0000 0.0000 0.0000 7.8524 0.0000 5.2480
#
#
#
# Elastic Compliance Matrix: (Units=1/GPa)
#
#
# Indices 1 2 3 4 5 6 
#
# 1 0.014503 -0.000725 -0.001121 0.000000 -0.003335 0.000000
# 2 -0.000725 0.012141 -0.004017 0.000000 0.005028 0.000000
# 3 -0.001121 -0.004017 0.015683 0.000000 -0.013764 0.000000
# 4 0.000000 0.000000 0.000000 0.053326 0.000000 -0.079790
# 5 -0.003335 0.005028 -0.013764 0.000000 0.038775 0.000000
# 6 0.000000 0.000000 0.000000 -0.079790 0.000000 0.309937
#
#
# Mechanical properties :
#
#
# Convention : Reuss Voigt Hill
#
# Bulk Modulus (GPa) = 32.67829 38.64735 35.66282
# Shear Modulus (GPa) = 10.72293 29.91711 20.32002
#
# Velocity S-wave (km/s) = 2.10653 3.51861 2.89984
# Velocity P-wave (km/s) = 4.40907 5.70096 5.09612
#
# Compressibility (1/GPa) = 0.03060135
#
# Stress axis : x y z
#
# Youngs Moduli (GPa) = 68.95271 82.36886 63.76163
#
# Poissons Ratio (x) = 0.05968 0.07148
# Poissons Ratio (y) = 0.04996 0.25613
# Poissons Ratio (z) = 0.07730 0.33088
#
# Static dielectric constant tensor:
#      x y z
#    x 1.994510 0.000000 -0.086000 
#    y 0.000000 1.947040 0.000000 
#    z -0.086000 0.000000 1.984680 
# 
# From -- ./inp_files/271876.got.cif
#   From: 2010.05.17/outbox.cif.g08.bks.cpg/sg15_136_cif.got.tgz:271876.got - 2010.06.03 18:47:42.
