data_PCOD9273566
_publ_section_title
;
Structure prediction by ZEFSAII (Michael W. Deem and Ramdas Pophale) SiO2 
 PCOD9273566
Probable space group: C 2/C
;
_chemical_formula_sum "Si O2"
_cell_formula_units_Z 52
_cell_length_a 7.942868
_cell_length_b 28.431947
_cell_length_c 15.903100
_cell_angle_alpha 90.000000
_cell_angle_beta 44.100693
_cell_angle_gamma 90.000000
_cell_volume 2499.343678
_symmetry_space_group_name_H-M "C 2/C"
_symmetry_group_IT_number 15
_symmetry_cell_setting 'monoclinic'
loop_
_space_group_symop_operation_xyz
x,y,z
-x,y,1/2-z
-x,-y,-z
x,-y,1/2+z
1/2+x,1/2+y,z
1/2-x,1/2+y,1/2-z
1/2-x,1/2-y,-z
1/2+x,1/2-y,1/2+z
loop_
_atom_site_type_symbol
_atom_site_label
_atom_site_fract_x
_atom_site_fract_y
_atom_site_fract_z
Si Si1 0.906532 0.618778 0.375280
Si Si2 0.500000 0.243081 0.750000
Si Si3 0.957431 0.476127 0.606354
Si Si4 0.747837 0.688922 0.692147
Si Si5 0.500000 0.032605 0.750000
Si Si6 0.553702 0.401055 0.363996
Si Si7 0.532766 0.212005 0.057352
Si Si8 0.500000 0.471976 0.250000
O O1 0.620091 0.614335 0.498104
O O2 0.976478 0.672279 0.368459
O O3 0.000000 0.606077 0.250000
O O4 0.023330 0.579587 0.394260
O O5 0.426343 0.213941 0.693390
O O6 0.760752 0.268369 0.641411
O O7 0.688796 0.493478 0.723549
O O8 0.000000 0.500000 0.500000
O O9 0.089927 0.500845 0.638378
O O10 0.500000 0.715031 0.750000
O O11 0.647884 0.643291 0.776759
O O12 0.888646 0.683669 0.554684
O O13 0.718193 0.068084 0.692176
O O14 0.407408 0.436052 0.354245
O O15 0.750000 0.250000 0.000000
#
# Coordination Sequence:
#
# PCOD9273566 Si02
#       8
#     8   4   8   8   4   8   8   4
#     4  12  26  44  70 104 148 191 242 302 376 440
#     4  12  27  47  76 112 140 190 242 324 392 448
#     4  11  23  42  66 102 144 188 231 300 361 433
#     4  12  23  47  78 105 141 189 256 304 369 450
#     4  10  25  40  70 106 138 186 252 289 354 450
#     4  11  21  44  70 102 136 194 241 297 350 440
#     4  12  27  49  77 105 148 194 247 316 387 448
#     4  10  20  37  72  94 140 186 236 279 362 426
#
# _framework density 20.805461000000001
#
# number of rings (size 3 to 8) (size 9 to 14) (size 15 to 20)
#    0.000    0.615    6.154    0.923    4.308    2.462 
#    5.538    0.000    0.000    0.000    0.000    0.000 
#    0.000    0.000    0.000    0.000    0.000    0.000 
#
# Total GULP energy -144779.109425 kJ/mol
# GULP energy per Si atom -5568.427286 kJ/mol
# Density = 2.075811 g / cm^3
# Si number density = 20.805461 Si / 1000 Ang^3
#
#
#
# Elastic Constant Matrix: (Units=GPa)
#
#
# Indices 1 2 3 4 5 6 
#
# 1 96.2395 46.9144 26.6968 0.0000 -9.8058 0.0000
# 2 46.9144 122.1364 37.3264 0.0000 -12.7503 0.0000
# 3 26.6968 37.3264 94.6338 0.0000 1.9841 0.0000
# 4 0.0000 0.0000 0.0000 20.1465 0.0000 -1.8894
# 5 -9.8058 -12.7503 1.9841 0.0000 43.6860 0.0000
# 6 0.0000 0.0000 0.0000 -1.8894 0.0000 36.2414
#
#
#
# Elastic Compliance Matrix: (Units=1/GPa)
#
#
# Indices 1 2 3 4 5 6 
#
# 1 0.013230 -0.004252 -0.002094 0.000000 0.001824 0.000000
# 2 -0.004252 0.011055 -0.003212 0.000000 0.002418 0.000000
# 3 -0.002094 -0.003212 0.012466 0.000000 -0.001973 0.000000
# 4 0.000000 0.000000 0.000000 0.049880 0.000000 0.002600
# 5 0.001824 0.002418 -0.001973 0.000000 0.024095 0.000000
# 6 0.000000 0.000000 0.000000 0.002600 0.000000 0.027728
#
#
# Mechanical properties :
#
#
# Convention : Reuss Voigt Hill
#
# Bulk Modulus (GPa) = 56.69939 59.43167 58.06553
# Shear Modulus (GPa) = 30.59106 33.48626 32.03866
#
# Velocity S-wave (km/s) = 3.83866 4.01620 3.92843
# Velocity P-wave (km/s) = 6.85262 7.08053 6.96751
#
# Compressibility (1/GPa) = 0.01763687
#
# Stress axis : x y z
#
# Youngs Moduli (GPa) = 75.58663 90.46030 80.21985
#
# Poissons Ratio (x) = 0.38460 0.16794
# Poissons Ratio (y) = 0.32136 0.25763
# Poissons Ratio (z) = 0.15824 0.29052
#
# Static dielectric constant tensor:
#      x y z
#    x 1.862980 0.000000 0.058310 
#    y 0.000000 1.754790 0.000000 
#    z 0.058310 0.000000 1.922450 
# 
# From -- ./inp_files/193688.got.cif
#   From: 2010.05.17/outbox.cif.g08.bks.cpg/sg15_97_cif.got.tgz:193688.got - 2010.06.03 18:47:42.
