data_PCOD9274023
_publ_section_title
;
Structure prediction by ZEFSAII (Michael W. Deem and Ramdas Pophale) SiO2 
 PCOD9274023
Probable space group: C 2/C
;
_chemical_formula_sum "Si O2"
_cell_formula_units_Z 56
_cell_length_a 17.477159
_cell_length_b 27.266927
_cell_length_c 5.601587
_cell_angle_alpha 90.000000
_cell_angle_beta 68.881564
_cell_angle_gamma 90.000000
_cell_volume 2490.142409
_symmetry_space_group_name_H-M "C 2/C"
_symmetry_group_IT_number 15
_symmetry_cell_setting 'monoclinic'
loop_
_space_group_symop_operation_xyz
x,y,z
-x,y,1/2-z
-x,-y,-z
x,-y,1/2+z
1/2+x,1/2+y,z
1/2-x,1/2+y,1/2-z
1/2-x,1/2-y,-z
1/2+x,1/2-y,1/2+z
loop_
_atom_site_type_symbol
_atom_site_label
_atom_site_fract_x
_atom_site_fract_y
_atom_site_fract_z
Si Si1 0.864348 0.021908 0.658139
Si Si2 0.000000 0.206178 0.250000
Si Si3 0.000000 0.263808 0.750000
Si Si4 0.338751 0.687103 0.573196
Si Si5 0.598339 0.618740 0.648461
Si Si6 0.322625 0.015475 0.092156
Si Si7 0.750499 0.121408 0.342910
Si Si8 0.821656 0.716969 0.298251
O O1 0.881611 0.079023 0.668782
O O2 0.896992 0.001891 0.369277
O O3 0.766494 0.011561 0.778050
O O4 0.918693 0.174173 0.329031
O O5 0.001809 0.235808 0.494309
O O6 0.090867 0.287992 0.667564
O O7 0.368591 0.671413 0.801517
O O8 0.266402 0.653095 0.564417
O O9 0.333048 0.745848 0.559172
O O10 0.500000 0.619999 0.750000
O O11 0.662259 0.603981 0.368265
O O12 0.303582 0.072969 0.077017
O O13 0.362665 0.005596 0.305743
O O14 0.709515 0.163059 0.224902
O O15 0.750000 0.750000 0.500000
#
# Coordination Sequence:
#
# PCOD9274023 Si02
#       8
#     8   4   4   8   8   8   8   8
#     4  10  20  39  55  77 113 159 205 262 310 362
#     4  10  22  40  64  82 128 170 212 256 318 360
#     4  10  24  44  64  94 126 170 212 266 312 382
#     4  11  23  38  60  87 128 168 215 262 314 376
#     4  12  25  36  57  86 120 166 214 259 312 377
#     4  10  20  38  61  82 119 158 207 267 324 376
#     4  12  23  39  60  91 120 165 220 264 321 391
#     4  11  23  41  67  94 131 171 218 264 326 384
#
# _framework density 22.488672999999999
#
# number of rings (size 3 to 8) (size 9 to 14) (size 15 to 20)
#    0.000    1.143    4.286    3.857    6.000    1.714 
#    0.000    0.000    0.000    0.000    0.000    1.000 
#    0.000    0.000    0.000    0.000    0.000    0.000 
#
# Total GULP energy -156020.321584 kJ/mol
# GULP energy per Si atom -5572.154342 kJ/mol
# Density = 2.243749 g / cm^3
# Si number density = 22.488673 Si / 1000 Ang^3
#
#
#
# Elastic Constant Matrix: (Units=GPa)
#
#
# Indices 1 2 3 4 5 6 
#
# 1 85.1533 33.1434 20.8454 0.0000 11.3195 0.0000
# 2 33.1434 119.3355 11.2069 0.0000 9.1920 0.0000
# 3 20.8454 11.2069 91.7749 0.0000 28.0988 0.0000
# 4 0.0000 0.0000 0.0000 22.8667 0.0000 12.2540
# 5 11.3195 9.1920 28.0988 0.0000 27.3798 0.0000
# 6 0.0000 0.0000 0.0000 12.2540 0.0000 27.9160
#
#
#
# Elastic Compliance Matrix: (Units=1/GPa)
#
#
# Indices 1 2 3 4 5 6 
#
# 1 0.013920 -0.003484 -0.001943 0.000000 -0.002591 0.000000
# 2 -0.003484 0.009478 0.000244 0.000000 -0.001992 0.000000
# 3 -0.001943 0.000244 0.016167 0.000000 -0.015870 0.000000
# 4 0.000000 0.000000 0.000000 0.057183 0.000000 -0.025101
# 5 -0.002591 -0.001992 -0.015870 0.000000 0.054550 0.000000
# 6 0.000000 0.000000 0.000000 -0.025101 0.000000 0.046840
#
#
# Mechanical properties :
#
#
# Convention : Reuss Voigt Hill
#
# Bulk Modulus (GPa) = 34.24880 47.40611 40.82746
# Shear Modulus (GPa) = 22.91104 31.03704 26.97404
#
# Velocity S-wave (km/s) = 3.19530 3.71903 3.46707
# Velocity P-wave (km/s) = 5.37361 6.29025 5.84991
#
# Compressibility (1/GPa) = 0.02919810
#
# Stress axis : x y z
#
# Youngs Moduli (GPa) = 71.84123 105.50916 61.85591
#
# Poissons Ratio (x) = 0.36758 0.12018
# Poissons Ratio (y) = 0.25029 -0.01508
# Poissons Ratio (z) = 0.13958 -0.02572
#
# Static dielectric constant tensor:
#      x y z
#    x 1.929780 0.000000 -0.029460 
#    y 0.000000 1.905720 0.000000 
#    z -0.029460 0.000000 2.066120 
# 
# From -- ./inp_files/11517.got.cif
#   From: 2010.05.17/outbox.cif.g08.bks.cpg/sg15_6_cif.got.tgz:11517.got - 2010.06.03 18:47:42.
