data_PCOD9274645
_publ_section_title
;
Structure prediction by ZEFSAII (Michael W. Deem and Ramdas Pophale) SiO2 
 PCOD9274645
Probable space group: C 2/C
;
_chemical_formula_sum "Si O2"
_cell_formula_units_Z 56
_cell_length_a 9.214252
_cell_length_b 15.864261
_cell_length_c 27.950450
_cell_angle_alpha 90.000000
_cell_angle_beta 40.019054
_cell_angle_gamma 90.000000
_cell_volume 2627.291714
_symmetry_space_group_name_H-M "C 2/C"
_symmetry_group_IT_number 15
_symmetry_cell_setting 'monoclinic'
loop_
_space_group_symop_operation_xyz
x,y,z
-x,y,1/2-z
-x,-y,-z
x,-y,1/2+z
1/2+x,1/2+y,z
1/2-x,1/2+y,1/2-z
1/2-x,1/2-y,-z
1/2+x,1/2-y,1/2+z
loop_
_atom_site_type_symbol
_atom_site_label
_atom_site_fract_x
_atom_site_fract_y
_atom_site_fract_z
Si Si1 0.730004 0.160132 0.423512
Si Si2 0.374587 0.246597 0.577022
Si Si3 0.742505 0.374524 0.196970
Si Si4 0.476029 0.157109 0.390707
Si Si5 0.808662 0.476268 0.402753
Si Si6 0.478291 0.571642 0.434077
Si Si7 0.133460 0.240841 0.261674
O O1 0.606043 0.218747 0.493428
O O2 0.551472 0.149698 0.426194
O O3 0.815321 0.076467 0.429430
O O4 0.942852 0.203848 0.344464
O O5 0.308129 0.175193 0.631835
O O6 0.402290 0.336645 0.596566
O O7 0.189220 0.266769 0.582809
O O8 0.500000 0.417585 0.250000
O O9 0.720721 0.305162 0.244205
O O10 0.952069 0.431045 0.160869
O O11 0.701153 0.170958 0.302234
O O12 0.355972 0.070553 0.408445
O O13 0.653474 0.494147 0.395275
O O14 0.665037 0.431466 0.480592
O O15 0.000000 0.279805 0.250000
#
# Coordination Sequence:
#
# PCOD9274645 Si02
#       7
#     8   8   8   8   8   8   8
#     4  11  20  36  67  94 122 167 222 270 320 394
#     4  11  20  38  65  97 118 169 227 269 324 394
#     4  12  22  39  67  91 128 171 225 277 329 403
#     4  10  23  40  59  89 136 172 210 268 337 403
#     4  10  23  40  59  93 131 163 213 273 334 393
#     4  10  20  38  64  91 123 164 210 275 332 383
#     4  10  22  39  61  91 123 166 216 269 327 394
#
# _framework density 21.314723999999998
#
# number of rings (size 3 to 8) (size 9 to 14) (size 15 to 20)
#    0.000    1.429    4.286    1.714    0.000    2.286 
#    0.000    2.857    0.000    0.000    0.000    0.000 
#    0.000    0.000    0.000    0.000    0.000    0.000 
#
# Total GULP energy -156232.311168 kJ/mol
# GULP energy per Si atom -5579.725399 kJ/mol
# Density = 2.126621 g / cm^3
# Si number density = 21.314724 Si / 1000 Ang^3
#
#
#
# Elastic Constant Matrix: (Units=GPa)
#
#
# Indices 1 2 3 4 5 6 
#
# 1 152.8460 29.7572 29.9333 -0.0031 5.6643 0.0012
# 2 29.7572 45.6893 19.3885 0.0001 -2.2905 0.0017
# 3 29.9333 19.3885 88.5889 0.0015 -9.3611 0.0086
# 4 -0.0031 0.0001 0.0015 16.8172 0.0024 -18.5436
# 5 5.6643 -2.2905 -9.3611 0.0024 29.5153 -0.0022
# 6 0.0012 0.0017 0.0086 -18.5436 -0.0022 33.4170
#
#
#
# Elastic Compliance Matrix: (Units=1/GPa)
#
#
# Indices 1 2 3 4 5 6 
#
# 1 0.007879 -0.004426 -0.001955 0.000006 -0.002476 0.000004
# 2 -0.004426 0.026615 -0.004161 -0.000002 0.001595 -0.000001
# 3 -0.001955 -0.004161 0.013311 -0.000014 0.004274 -0.000010
# 4 0.000006 -0.000002 -0.000014 0.153207 -0.000012 0.085017
# 5 -0.002476 0.001595 0.004274 -0.000012 0.035835 -0.000005
# 6 0.000004 -0.000001 -0.000010 0.085017 -0.000005 0.077102
#
#
# Mechanical properties :
#
#
# Convention : Reuss Voigt Hill
#
# Bulk Modulus (GPa) = 37.42360 49.47579 43.44970
# Shear Modulus (GPa) = 14.53740 29.81958 22.17849
#
# Velocity S-wave (km/s) = 2.61441 3.74440 3.22922
# Velocity P-wave (km/s) = 5.16810 6.47738 5.85942
#
# Compressibility (1/GPa) = 0.02672110
#
# Stress axis : x y z
#
# Youngs Moduli (GPa) = 126.92233 37.57245 75.12566
#
# Poissons Ratio (x) = 0.16629 0.14688
# Poissons Ratio (y) = 0.56174 0.31260
# Poissons Ratio (z) = 0.24815 0.15634
#
# Static dielectric constant tensor:
#      x y z
#    x 1.888530 0.000000 -0.050560 
#    y 0.000000 1.747870 0.000000 
#    z -0.050560 0.000000 1.787780 
# 
# From -- ./inp_files/308592.got.cif
#   From: 2010.05.17/outbox.cif.g08.bks.cpg/sg15_155_cif.got.tgz:308592.got - 2010.06.03 18:47:42.
