data_PCOD9274861
_publ_section_title
;
Structure prediction by ZEFSAII (Michael W. Deem and Ramdas Pophale) SiO2 
 PCOD9274861
Probable space group: C 2/C
;
_chemical_formula_sum "Si O2"
_cell_formula_units_Z 44
_cell_length_a 8.085476
_cell_length_b 12.574364
_cell_length_c 27.843839
_cell_angle_alpha 90.000000
_cell_angle_beta 144.438781
_cell_angle_gamma 90.000000
_cell_volume 1646.359164
_symmetry_space_group_name_H-M "C 2/C"
_symmetry_group_IT_number 15
_symmetry_cell_setting 'monoclinic'
loop_
_space_group_symop_operation_xyz
x,y,z
-x,y,1/2-z
-x,-y,-z
x,-y,1/2+z
1/2+x,1/2+y,z
1/2-x,1/2+y,1/2-z
1/2-x,1/2-y,-z
1/2+x,1/2-y,1/2+z
loop_
_atom_site_type_symbol
_atom_site_label
_atom_site_fract_x
_atom_site_fract_y
_atom_site_fract_z
Si Si1 0.916580 0.618269 0.913563
Si Si2 0.188960 0.336246 0.219537
Si Si3 0.500000 0.141497 0.250000
Si Si4 0.399864 0.370304 0.926130
Si Si5 0.094312 0.828655 0.126245
Si Si6 0.933061 0.598703 0.059150
O O1 0.869445 0.493722 0.915068
O O2 0.796581 0.618073 0.830571
O O3 0.861208 0.740310 0.918290
O O4 0.263935 0.615465 0.997785
O O5 0.293649 0.215529 0.234116
O O6 0.364016 0.366038 0.308904
O O7 0.868200 0.357864 0.159837
O O8 0.279554 0.088159 0.161745
O O9 0.260239 0.422408 0.939647
O O10 0.099758 0.701658 0.117621
O O11 0.797148 0.869205 0.035350
#
# Coordination Sequence:
#
# PCOD9274861 Si02
#       6
#     8   8   4   8   8   8
#     4  10  22  39  66  93 126 167 225 256 325 386
#     4  10  20  40  63  90 124 166 203 268 312 382
#     4  10  20  38  66  82 124 166 210 252 330 364
#     4  10  20  39  64  89 125 168 209 274 310 383
#     4  10  22  38  64  91 131 163 207 263 330 372
#     4  11  21  42  65  90 130 175 205 269 325 391
#
# _framework density 26.725639000000001
#
# number of rings (size 3 to 8) (size 9 to 14) (size 15 to 20)
#    0.000    1.818    3.636    0.545    0.000    0.000 
#    3.273   10.909    0.000    0.000    0.000    0.000 
#    0.000    0.000    0.000    0.000    0.000    0.000 
#
# Total GULP energy -122845.189707 kJ/mol
# GULP energy per Si atom -5583.872259 kJ/mol
# Density = 2.666481 g / cm^3
# Si number density = 26.725639 Si / 1000 Ang^3
#
#
#
# Elastic Constant Matrix: (Units=GPa)
#
#
# Indices 1 2 3 4 5 6 
#
# 1 53.2828 33.1876 20.0097 0.0000 -22.6069 0.0000
# 2 33.1876 152.3587 15.5778 0.0000 -0.0485 0.0000
# 3 20.0097 15.5778 140.0692 -0.0002 -25.3344 -0.0001
# 4 0.0000 0.0000 -0.0002 7.5483 -0.0001 -14.0058
# 5 -22.6069 -0.0485 -25.3344 -0.0001 51.6632 0.0000
# 6 0.0000 0.0000 -0.0001 -14.0058 0.0000 21.9003
#
#
#
# Elastic Compliance Matrix: (Units=1/GPa)
#
#
# Indices 1 2 3 4 5 6 
#
# 1 0.027834 -0.005934 -0.001223 0.000000 0.011574 0.000000
# 2 -0.005934 0.007911 -0.000549 0.000000 -0.002859 0.000000
# 3 -0.001223 -0.000549 0.007987 -0.000001 0.003381 -0.000001
# 4 0.000000 0.000000 -0.000001 -0.709859 -0.000001 -0.453971
# 5 0.011574 -0.002859 0.003381 -0.000001 0.026076 -0.000001
# 6 0.000000 0.000000 -0.000001 -0.453971 -0.000001 -0.244664
#
#
# Mechanical properties :
#
#
# Convention : Reuss Voigt Hill
#
# Bulk Modulus (GPa) = 35.31130 53.69567 44.50349
# Shear Modulus (GPa) = -5.81488 34.68475 14.43494
#
# Velocity S-wave (km/s) = -1.47665 3.60642 2.32656
# Velocity P-wave (km/s) = 3.21464 6.12182 4.88931
#
# Compressibility (1/GPa) = 0.02831954
#
# Stress axis : x y z
#
# Youngs Moduli (GPa) = 35.92726 126.40103 125.21006
#
# Poissons Ratio (x) = 0.75010 0.15310
# Poissons Ratio (y) = 0.21320 0.06876
# Poissons Ratio (z) = 0.04393 0.06941
#
# Static dielectric constant tensor:
#      x y z
#    x 2.347320 0.000000 0.027950 
#    y 0.000000 2.173990 0.000000 
#    z 0.027950 0.000000 2.099600 
# 
# From -- ./inp_files/288942.got.cif
#   From: 2010.05.17/outbox.cif.g08.bks.cpg/sg15_145_cif.got.tgz:288942.got - 2010.06.03 18:47:42.
