data_PCOD9274326
_publ_section_title
;
Structure prediction by ZEFSAII (Michael W. Deem and Ramdas Pophale) SiO2 
 PCOD9274326
Probable space group: C 2/C
;
_chemical_formula_sum "Si O2"
_cell_formula_units_Z 36
_cell_length_a 15.731267
_cell_length_b 13.483785
_cell_length_c 13.096026
_cell_angle_alpha 90.000000
_cell_angle_beta 149.631656
_cell_angle_gamma 90.000000
_cell_volume 1404.382161
_symmetry_space_group_name_H-M "C 2/C"
_symmetry_group_IT_number 15
_symmetry_cell_setting 'monoclinic'
loop_
_space_group_symop_operation_xyz
x,y,z
-x,y,1/2-z
-x,-y,-z
x,-y,1/2+z
1/2+x,1/2+y,z
1/2-x,1/2+y,1/2-z
1/2-x,1/2-y,-z
1/2+x,1/2-y,1/2+z
loop_
_atom_site_type_symbol
_atom_site_label
_atom_site_fract_x
_atom_site_fract_y
_atom_site_fract_z
Si Si1 0.500000 0.261673 0.250000
Si Si2 0.325015 0.765246 0.274491
Si Si3 0.386341 0.885456 0.033010
Si Si4 0.305751 0.529508 0.809297
Si Si5 0.278251 0.863988 0.643420
O O1 0.548225 0.186806 0.208480
O O2 0.655975 0.335776 0.424086
O O3 0.491547 0.826212 0.418925
O O4 0.313621 0.689794 0.357053
O O5 0.202646 0.854234 0.181564
O O6 0.265652 0.695091 0.119069
O O7 0.500000 0.902221 0.250000
O O8 0.304892 0.983781 0.898183
O O9 0.224872 0.476837 0.825881
O O10 0.500000 0.500000 0.000000
#
# Coordination Sequence:
#
# PCOD9274326 Si02
#       5
#     4   8   8   8   8
#     4  10  20  38  62  92 130 168 230 272 338 398
#     4  11  22  43  68  93 139 182 230 278 361 411
#     4  11  24  44  69 103 137 187 235 292 343 420
#     4  11  23  43  67  99 137 184 234 282 358 419
#     4  10  21  40  63  93 131 178 214 283 340 402
#
# _framework density 25.634046999999999
#
# number of rings (size 3 to 8) (size 9 to 14) (size 15 to 20)
#    0.000    1.333    0.000    8.000    0.000    0.000 
#   18.000    0.000    0.000    0.000    0.000    0.000 
#    0.000    0.000    0.000    0.000    0.000    0.000 
#
# Total GULP energy -100624.468755 kJ/mol
# GULP energy per Si atom -5590.248264 kJ/mol
# Density = 2.557570 g / cm^3
# Si number density = 25.634047 Si / 1000 Ang^3
#
#
#
# Elastic Constant Matrix: (Units=GPa)
#
#
# Indices 1 2 3 4 5 6 
#
# 1 79.5870 7.7378 2.5417 0.0000 -0.0428 0.0000
# 2 7.7378 149.4241 27.6854 0.0000 -14.3976 0.0000
# 3 2.5417 27.6854 108.8782 0.0000 -0.8495 0.0000
# 4 0.0000 0.0000 0.0000 42.5797 0.0000 13.2660
# 5 -0.0428 -14.3976 -0.8495 0.0000 35.6564 0.0000
# 6 0.0000 0.0000 0.0000 13.2660 0.0000 26.7903
#
#
#
# Elastic Compliance Matrix: (Units=1/GPa)
#
#
# Indices 1 2 3 4 5 6 
#
# 1 0.012633 -0.000654 -0.000130 0.000000 -0.000252 0.000000
# 2 -0.000654 0.007347 -0.001830 0.000000 0.002922 0.000000
# 3 -0.000130 -0.001830 0.009649 0.000000 -0.000509 0.000000
# 4 0.000000 0.000000 0.000000 0.027770 0.000000 -0.013751
# 5 -0.000252 0.002922 -0.000509 0.000000 0.029213 0.000000
# 6 0.000000 0.000000 0.000000 -0.013751 0.000000 0.044136
#
#
# Mechanical properties :
#
#
# Convention : Reuss Voigt Hill
#
# Bulk Modulus (GPa) = 40.98582 45.97989 43.48286
# Shear Modulus (GPa) = 34.69581 41.00024 37.84803
#
# Velocity S-wave (km/s) = 3.68299 4.00364 3.84666
# Velocity P-wave (km/s) = 5.84033 6.27281 6.06043
#
# Compressibility (1/GPa) = 0.02439868
#
# Stress axis : x y z
#
# Youngs Moduli (GPa) = 79.16078 136.11203 103.63768
#
# Poissons Ratio (x) = 0.08906 0.01352
# Poissons Ratio (y) = 0.05179 0.18967
# Poissons Ratio (z) = 0.01033 0.24910
#
# Static dielectric constant tensor:
#      x y z
#    x 2.049660 0.000000 -0.024420 
#    y 0.000000 2.037700 0.000000 
#    z -0.024420 0.000000 2.206980 
# 
# From -- ./inp_files/162418.got.cif
#   From: 2010.05.17/outbox.cif.g08.bks.cpg/sg15_82_cif.got.tgz:162418.got - 2010.06.03 18:47:42.
