data_PCOD9274502
_publ_section_title
;
Structure prediction by ZEFSAII (Michael W. Deem and Ramdas Pophale) SiO2 
 PCOD9274502
Probable space group: C 2/C
;
_chemical_formula_sum "Si O2"
_cell_formula_units_Z 52
_cell_length_a 18.434861
_cell_length_b 9.452929
_cell_length_c 15.746623
_cell_angle_alpha 90.000000
_cell_angle_beta 71.480325
_cell_angle_gamma 90.000000
_cell_volume 2601.958402
_symmetry_space_group_name_H-M "C 2/C"
_symmetry_group_IT_number 15
_symmetry_cell_setting 'monoclinic'
loop_
_space_group_symop_operation_xyz
x,y,z
-x,y,1/2-z
-x,-y,-z
x,-y,1/2+z
1/2+x,1/2+y,z
1/2-x,1/2+y,1/2-z
1/2-x,1/2-y,-z
1/2+x,1/2-y,1/2+z
loop_
_atom_site_type_symbol
_atom_site_label
_atom_site_fract_x
_atom_site_fract_y
_atom_site_fract_z
Si Si1 0.771603 0.611594 0.143012
Si Si2 0.052358 0.420279 0.914795
Si Si3 0.068867 0.092297 0.938854
Si Si4 0.195615 0.885092 0.274863
Si Si5 0.500000 0.900247 0.750000
Si Si6 0.337790 0.207614 0.378155
Si Si7 0.295096 0.473651 0.498319
O O1 0.858394 0.560087 0.099684
O O2 0.771956 0.776978 0.166654
O O3 0.740826 0.524419 0.234788
O O4 0.726518 0.566912 0.075800
O O5 0.041700 0.253200 0.937090
O O6 0.034816 0.465704 0.824077
O O7 0.000000 0.500000 0.000000
O O8 0.109979 0.066934 0.832668
O O9 0.140261 0.057277 0.974222
O O10 0.000000 0.000000 0.000000
O O11 0.195201 0.789306 0.191047
O O12 0.575213 0.826159 0.680933
O O13 0.332074 0.323800 0.455001
O O14 0.283002 0.076019 0.424444
#
# Coordination Sequence:
#
# PCOD9274502 Si02
#       7
#     8   8   8   8   4   8   8
#     4  10  21  41  60  94 122 166 209 266 318 390
#     4  11  25  42  63  95 133 173 218 271 332 393
#     4  11  23  41  64  93 124 168 213 275 323 383
#     4  10  21  38  62  87 125 162 207 257 317 381
#     4  12  20  40  66  88 128 182 216 258 322 406
#     4  10  20  38  63  95 123 172 214 258 323 400
#     4  10  22  37  65  96 128 164 215 271 332 384
#
# _framework density 19.984947999999999
#
# number of rings (size 3 to 8) (size 9 to 14) (size 15 to 20)
#    0.000    1.538    3.077    2.769    0.000    6.154 
#    2.769    0.000    0.000    0.000    0.000    0.000 
#    0.000    0.000    0.000    0.000    0.000    0.000 
#
# Total GULP energy -144824.245118 kJ/mol
# GULP energy per Si atom -5570.163274 kJ/mol
# Density = 1.993946 g / cm^3
# Si number density = 19.984948 Si / 1000 Ang^3
#
#
#
# Elastic Constant Matrix: (Units=GPa)
#
#
# Indices 1 2 3 4 5 6 
#
# 1 74.1088 37.1551 36.8933 0.0000 -5.2398 0.0000
# 2 37.1551 56.5034 52.6747 0.0000 -19.2319 0.0000
# 3 36.8933 52.6747 116.2994 0.0000 -24.2019 0.0000
# 4 0.0000 0.0000 0.0000 40.1208 0.0000 -7.5940
# 5 -5.2398 -19.2319 -24.2019 0.0000 55.6056 0.0000
# 6 0.0000 0.0000 0.0000 -7.5940 0.0000 12.7033
#
#
#
# Elastic Compliance Matrix: (Units=1/GPa)
#
#
# Indices 1 2 3 4 5 6 
#
# 1 0.020660 -0.013761 -0.000997 0.000000 -0.003246 0.000000
# 2 -0.013761 0.041122 -0.012722 0.000000 0.007389 0.000000
# 3 -0.000997 -0.012722 0.015110 0.000000 0.002083 0.000000
# 4 0.000000 0.000000 0.000000 0.028105 0.000000 0.016801
# 5 -0.003246 0.007389 0.002083 0.000000 0.021140 0.000000
# 6 0.000000 0.000000 0.000000 0.016801 0.000000 0.088763
#
#
# Mechanical properties :
#
#
# Convention : Reuss Voigt Hill
#
# Bulk Modulus (GPa) = 45.59552 55.59531 50.59541
# Shear Modulus (GPa) = 18.03950 29.69849 23.86900
#
# Velocity S-wave (km/s) = 3.00768 3.85910 3.45968
# Velocity P-wave (km/s) = 5.90982 6.90912 6.42891
#
# Compressibility (1/GPa) = 0.02193198
#
# Stress axis : x y z
#
# Youngs Moduli (GPa) = 48.40385 24.31804 66.18068
#
# Poissons Ratio (x) = 0.33464 0.06596
# Poissons Ratio (y) = 0.66609 0.84195
# Poissons Ratio (z) = 0.04824 0.30938
#
# Static dielectric constant tensor:
#      x y z
#    x 2.257440 0.000000 -0.194740 
#    y 0.000000 1.736760 0.000000 
#    z -0.194740 0.000000 1.833770 
# 
# From -- ./inp_files/209028.got.cif
#   From: 2010.05.17/outbox.cif.g08.bks.cpg/sg15_105_cif.got.tgz:209028.got - 2010.06.03 18:47:42.
