data_PCOD9274493
_publ_section_title
;
Structure prediction by ZEFSAII (Michael W. Deem and Ramdas Pophale) SiO2 
 PCOD9274493
Probable space group: C 2/C
;
_chemical_formula_sum "Si O2"
_cell_formula_units_Z 64
_cell_length_a 23.767703
_cell_length_b 20.353979
_cell_length_c 17.160868
_cell_angle_alpha 90.000000
_cell_angle_beta 20.551790
_cell_angle_gamma 90.000000
_cell_volume 2914.402891
_symmetry_space_group_name_H-M "C 2/C"
_symmetry_group_IT_number 15
_symmetry_cell_setting 'monoclinic'
loop_
_space_group_symop_operation_xyz
x,y,z
-x,y,1/2-z
-x,-y,-z
x,-y,1/2+z
1/2+x,1/2+y,z
1/2-x,1/2+y,1/2-z
1/2-x,1/2-y,-z
1/2+x,1/2-y,1/2+z
loop_
_atom_site_type_symbol
_atom_site_label
_atom_site_fract_x
_atom_site_fract_y
_atom_site_fract_z
Si Si1 0.095002 0.182229 0.552329
Si Si2 0.491877 0.294125 0.923734
Si Si3 0.352713 0.391824 0.881902
Si Si4 0.048111 0.098234 0.889747
Si Si5 0.533772 0.045998 0.844449
Si Si6 0.909708 0.405409 0.669987
Si Si7 0.718025 0.526327 0.174851
Si Si8 0.139880 0.290875 0.359031
O O1 0.979195 0.131588 0.657377
O O2 0.254202 0.141859 0.370336
O O3 0.129967 0.238419 0.442936
O O4 0.000000 0.208808 0.750000
O O5 0.624260 0.323562 0.694353
O O6 0.542399 0.232045 0.909090
O O7 0.453632 0.347585 0.040728
O O8 0.325336 0.289281 0.094708
O O9 0.500000 0.400150 0.750000
O O10 0.356166 0.445864 0.808387
O O11 0.182519 0.405174 0.141905
O O12 0.893084 0.053615 0.111265
O O13 0.200349 0.051583 0.696810
O O14 0.596928 0.970720 0.768429
O O15 0.441333 0.065146 0.043147
O O16 0.397590 0.049906 0.955405
O O17 0.062656 0.358703 0.487554
#
# Coordination Sequence:
#
# PCOD9274493 Si02
#       8
#     8   8   8   8   8   8   8   8
#     4  11  24  41  65  99 135 177 225 285 339 410
#     4  10  22  43  69  95 132 184 227 287 340 411
#     4  11  25  41  63  99 139 177 228 288 348 410
#     4   9  20  37  64  90 134 175 223 269 351 410
#     4  11  24  42  68 102 136 180 231 292 339 418
#     4  11  24  42  70  97 139 180 230 279 354 412
#     4  10  20  38  63  93 132 181 222 277 342 412
#     4  11  22  46  71  96 134 183 233 276 347 418
#
# _framework density 21.959900999999999
#
# number of rings (size 3 to 8) (size 9 to 14) (size 15 to 20)
#    0.000    1.500    2.500    1.875    3.500    2.500 
#    0.000    3.750    0.000    0.000    0.000    0.000 
#    0.000    0.000    0.000    0.000    0.000    0.000 
#
# Total GULP energy -178750.180168 kJ/mol
# GULP energy per Si atom -5585.943130 kJ/mol
# Density = 2.190992 g / cm^3
# Si number density = 21.959901 Si / 1000 Ang^3
#
#
#
# Elastic Constant Matrix: (Units=GPa)
#
#
# Indices 1 2 3 4 5 6 
#
# 1 75.1162 8.8904 23.9416 0.0018 -10.2483 0.0002
# 2 8.8904 69.3410 11.1001 -0.0018 -1.8577 0.0001
# 3 23.9416 11.1001 85.2746 0.0000 -10.5809 0.0015
# 4 0.0018 -0.0018 0.0000 31.5821 -0.0008 -0.7011
# 5 -10.2483 -1.8577 -10.5809 -0.0008 33.1179 -0.0006
# 6 0.0002 0.0001 0.0015 -0.7011 -0.0006 13.4733
#
#
#
# Elastic Compliance Matrix: (Units=1/GPa)
#
#
# Indices 1 2 3 4 5 6 
#
# 1 0.015093 -0.001259 -0.003647 -0.000001 0.003435 0.000000
# 2 -0.001259 0.014835 -0.001585 0.000001 -0.000064 0.000000
# 3 -0.003647 -0.001585 0.013335 0.000000 0.003043 -0.000001
# 4 -0.000001 0.000001 0.000000 0.031700 0.000001 0.001650
# 5 0.003435 -0.000064 0.003043 0.000001 0.032226 0.000001
# 6 0.000000 0.000000 -0.000001 0.001650 0.000001 0.074307
#
#
# Mechanical properties :
#
#
# Convention : Reuss Voigt Hill
#
# Bulk Modulus (GPa) = 33.02672 35.28844 34.15758
# Shear Modulus (GPa) = 24.44119 28.02133 26.23126
#
# Velocity S-wave (km/s) = 3.33977 3.57602 3.45991
# Velocity P-wave (km/s) = 5.47214 5.75803 5.61691
#
# Compressibility (1/GPa) = 0.03027852
#
# Stress axis : x y z
#
# Youngs Moduli (GPa) = 66.25656 67.40805 74.99192
#
# Poissons Ratio (x) = 0.08488 0.27352
# Poissons Ratio (y) = 0.08343 0.11890
# Poissons Ratio (z) = 0.24166 0.10687
#
# Static dielectric constant tensor:
#      x y z
#    x 1.797070 0.000000 0.001310 
#    y 0.000000 1.798640 0.000000 
#    z 0.001310 0.000000 1.815240 
# 
# From -- ./inp_files/220239.got.cif
#   From: 2010.05.17/outbox.cif.g08.bks.cpg/sg15_111_cif.got.tgz:220239.got - 2010.06.03 18:47:42.
