data_PCOD9274766
_publ_section_title
;
Structure prediction by ZEFSAII (Michael W. Deem and Ramdas Pophale) SiO2 
 PCOD9274766
Probable space group: C 2/C
;
_chemical_formula_sum "Si O2"
_cell_formula_units_Z 64
_cell_length_a 21.389626
_cell_length_b 9.525596
_cell_length_c 27.021509
_cell_angle_alpha 90.000000
_cell_angle_beta 148.257601
_cell_angle_gamma 90.000000
_cell_volume 2896.504216
_symmetry_space_group_name_H-M "C 2/C"
_symmetry_group_IT_number 15
_symmetry_cell_setting 'monoclinic'
loop_
_space_group_symop_operation_xyz
x,y,z
-x,y,1/2-z
-x,-y,-z
x,-y,1/2+z
1/2+x,1/2+y,z
1/2-x,1/2+y,1/2-z
1/2-x,1/2-y,-z
1/2+x,1/2-y,1/2+z
loop_
_atom_site_type_symbol
_atom_site_label
_atom_site_fract_x
_atom_site_fract_y
_atom_site_fract_z
Si Si1 0.146584 0.218870 0.292959
Si Si2 0.544090 0.688578 0.623041
Si Si3 0.288300 0.347797 0.931550
Si Si4 0.586113 0.993401 0.124149
Si Si5 0.726383 0.591074 0.829579
Si Si6 0.204449 0.395010 0.421232
Si Si7 0.798277 0.951226 0.345712
Si Si8 0.425262 0.790672 0.074584
O O1 0.132891 0.289775 0.337248
O O2 0.255845 0.307003 0.342854
O O3 0.036144 0.242043 0.182302
O O4 0.175796 0.056366 0.313753
O O5 0.407965 0.660580 0.543784
O O6 0.634560 0.665005 0.729317
O O7 0.588431 0.578323 0.611589
O O8 0.549590 0.844096 0.602931
O O9 0.246804 0.195057 0.888423
O O10 0.194618 0.447506 0.895394
O O11 0.313195 0.428673 0.896305
O O12 0.652314 0.943036 0.119066
O O13 0.689439 0.985822 0.235681
O O14 0.481145 0.886196 0.069037
O O15 0.340288 0.340667 0.505734
O O16 0.159143 0.381974 0.446270
#
# Coordination Sequence:
#
# PCOD9274766 Si02
#       8
#     8   8   8   8   8   8   8   8
#     4  10  20  38  65  88 120 158 203 251 301 364
#     4  11  21  36  59  87 130 166 197 244 320 368
#     4  11  23  37  61  92 127 162 201 257 310 358
#     4  10  21  37  62  92 125 164 194 253 314 364
#     4  11  23  38  61  96 130 154 198 256 315 374
#     4  10  23  43  65  91 116 163 219 254 289 358
#     4   9  19  37  55  88 123 162 202 241 295 380
#     4  10  22  42  69  85 120 165 217 247 294 363
#
# _framework density 22.095600000000001
#
# number of rings (size 3 to 8) (size 9 to 14) (size 15 to 20)
#    0.000    1.750    2.500    1.500    1.750    3.500 
#    0.000    0.625    5.500    0.000    0.000    0.000 
#    0.000    0.000    0.000    0.000    0.000    0.000 
#
# Total GULP energy -178876.243154 kJ/mol
# GULP energy per Si atom -5589.882599 kJ/mol
# Density = 2.204531 g / cm^3
# Si number density = 22.095600 Si / 1000 Ang^3
#
#
#
# Elastic Constant Matrix: (Units=GPa)
#
#
# Indices 1 2 3 4 5 6 
#
# 1 33.3515 8.5988 3.5926 0.0001 3.2400 0.0000
# 2 8.5988 112.6957 10.2649 0.0000 9.1546 0.0000
# 3 3.5926 10.2649 69.7661 0.0000 9.2203 0.0001
# 4 0.0001 0.0000 0.0000 19.3810 0.0000 -6.9507
# 5 3.2400 9.1546 9.2203 0.0000 19.4361 0.0000
# 6 0.0000 0.0000 0.0001 -6.9507 0.0000 -7.3424
#
#
#
# Elastic Compliance Matrix: (Units=1/GPa)
#
#
# Indices 1 2 3 4 5 6 
#
# 1 0.030953 -0.001976 -0.000794 0.000000 -0.003852 0.000000
# 2 -0.001976 0.009399 -0.000789 0.000000 -0.003723 0.000000
# 3 -0.000794 -0.000789 0.015389 0.000000 -0.006796 0.000000
# 4 0.000000 0.000000 0.000000 0.038519 0.000000 -0.036465
# 5 -0.003852 -0.003723 -0.006796 0.000000 0.057071 0.000000
# 6 0.000000 0.000000 0.000000 -0.036465 0.000000 -0.101676
#
#
# Mechanical properties :
#
#
# Convention : Reuss Voigt Hill
#
# Bulk Modulus (GPa) = 20.56709 28.96954 24.76832
# Shear Modulus (GPa) = 68.51179 19.18541 43.84860
#
# Velocity S-wave (km/s) = 5.57443 2.94987 4.45960
# Velocity P-wave (km/s) = 7.12466 4.97411 6.14421
#
# Compressibility (1/GPa) = 0.04862135
#
# Stress axis : x y z
#
# Youngs Moduli (GPa) = 32.30701 106.39926 64.98238
#
# Poissons Ratio (x) = 0.21030 0.05160
# Poissons Ratio (y) = 0.06385 0.05127
# Poissons Ratio (z) = 0.02565 0.08395
#
# Static dielectric constant tensor:
#      x y z
#    x 1.793100 0.000000 -0.007530 
#    y 0.000000 1.789810 0.000000 
#    z -0.007530 0.000000 1.826720 
# 
# From -- ./inp_files/318633.got.cif
#   From: 2010.05.17/outbox.cif.g08.bks.cpg/sg15_160_cif.got.tgz:318633.got - 2010.06.03 18:47:42.
