data_PCOD9274631
_publ_section_title
;
Structure prediction by ZEFSAII (Michael W. Deem and Ramdas Pophale) SiO2 
 PCOD9274631
Probable space group: C 2/C
;
_chemical_formula_sum "Si O2"
_cell_formula_units_Z 52
_cell_length_a 19.159047
_cell_length_b 15.303333
_cell_length_c 16.347220
_cell_angle_alpha 90.000000
_cell_angle_beta 149.048497
_cell_angle_gamma 90.000000
_cell_volume 2465.078746
_symmetry_space_group_name_H-M "C 2/C"
_symmetry_group_IT_number 15
_symmetry_cell_setting 'monoclinic'
loop_
_space_group_symop_operation_xyz
x,y,z
-x,y,1/2-z
-x,-y,-z
x,-y,1/2+z
1/2+x,1/2+y,z
1/2-x,1/2+y,1/2-z
1/2-x,1/2-y,-z
1/2+x,1/2-y,1/2+z
loop_
_atom_site_type_symbol
_atom_site_label
_atom_site_fract_x
_atom_site_fract_y
_atom_site_fract_z
Si Si1 0.267570 0.751454 0.295081
Si Si2 0.000000 0.570336 0.250000
Si Si3 0.019743 0.275419 0.644983
Si Si4 0.890572 0.113391 0.967157
Si Si5 0.781023 0.004688 0.597781
Si Si6 0.329621 0.443674 0.828569
Si Si7 0.000000 0.874852 0.750000
Si Si8 0.500000 0.638946 0.750000
O O1 0.419751 0.781117 0.467978
O O2 0.210902 0.816025 0.170108
O O3 0.253221 0.647982 0.262913
O O4 0.164949 0.762950 0.267606
O O5 0.966447 0.635481 0.291484
O O6 0.132071 0.517339 0.411363
O O7 0.944513 0.203782 0.625509
O O8 0.827170 0.014110 0.900630
O O9 0.948653 0.154721 0.109074
O O10 0.017750 0.092292 0.035117
O O11 0.881334 0.081927 0.669779
O O12 0.782704 0.992286 0.697893
O O13 0.863347 0.924429 0.641939
#
# Coordination Sequence:
#
# PCOD9274631 Si02
#       8
#     8   4   8   8   8   8   4   4
#     4  12  23  41  63  97 128 169 213 266 314 389
#     4  11  22  37  55  96 137 156 188 273 336 372
#     4  11  23  35  61  95 132 161 202 261 334 380
#     4  10  21  42  65  92 122 167 222 262 308 379
#     4  10  21  39  61  90 124 163 215 251 312 381
#     4  10  22  40  67  90 126 177 212 258 316 395
#     4   9  22  39  67  86 107 170 222 257 294 380
#     4  10  20  38  64  90 126 174 210 254 310 398
#
# _framework density 21.094662
#
# number of rings (size 3 to 8) (size 9 to 14) (size 15 to 20)
#    0.000    1.538    1.538    3.692    8.615    2.462 
#    2.769    5.385    0.000    0.000    0.000    0.000 
#    0.000    0.000    0.000    0.000    0.000    0.000 
#
# Total GULP energy -144862.600687 kJ/mol
# GULP energy per Si atom -5571.638488 kJ/mol
# Density = 2.104665 g / cm^3
# Si number density = 21.094662 Si / 1000 Ang^3
#
#
#
# Elastic Constant Matrix: (Units=GPa)
#
#
# Indices 1 2 3 4 5 6 
#
# 1 25.9151 -0.7987 -0.7376 0.0000 -4.5529 0.0000
# 2 -0.7987 65.4801 25.1489 0.0000 -9.1582 0.0000
# 3 -0.7376 25.1489 124.8771 0.0000 -3.5826 0.0000
# 4 0.0000 0.0000 0.0000 21.7925 0.0000 1.3790
# 5 -4.5529 -9.1582 -3.5826 0.0000 24.9322 0.0000
# 6 0.0000 0.0000 0.0000 1.3790 0.0000 17.8380
#
#
#
# Elastic Compliance Matrix: (Units=1/GPa)
#
#
# Indices 1 2 3 4 5 6 
#
# 1 0.040026 0.001533 0.000154 0.000000 0.007895 0.000000
# 2 0.001533 0.017435 -0.003324 0.000000 0.006207 0.000000
# 3 0.000154 -0.003324 0.008680 0.000000 0.000054 0.000000
# 4 0.000000 0.000000 0.000000 0.046113 0.000000 -0.003565
# 5 0.007895 0.006207 0.000054 0.000000 0.043838 0.000000
# 6 0.000000 0.000000 0.000000 -0.003565 0.000000 0.056336
#
#
# Mechanical properties :
#
#
# Convention : Reuss Voigt Hill
#
# Bulk Modulus (GPa) = 15.90645 29.27751 22.59198
# Shear Modulus (GPa) = 21.12759 25.75654 23.44207
#
# Velocity S-wave (km/s) = 3.16818 3.49807 3.33720
# Velocity P-wave (km/s) = 4.57603 5.49769 5.05789
#
# Compressibility (1/GPa) = 0.06286757
#
# Stress axis : x y z
#
# Youngs Moduli (GPa) = 24.98365 57.35495 115.21017
#
# Poissons Ratio (x) = -0.08794 -0.01776
# Poissons Ratio (y) = -0.03830 0.38298
# Poissons Ratio (z) = -0.00385 0.19066
#
# Static dielectric constant tensor:
#      x y z
#    x 1.820670 0.000000 -0.043330 
#    y 0.000000 1.817210 0.000000 
#    z -0.043330 0.000000 1.809000 
# 
# From -- ./inp_files/211705.got.cif
#   From: 2010.05.17/outbox.cif.g08.bks.cpg/sg15_106_cif.got.tgz:211705.got - 2010.06.03 18:47:42.
