data_PCOD9274811
_publ_section_title
;
Structure prediction by ZEFSAII (Michael W. Deem and Ramdas Pophale) SiO2 
 PCOD9274811
Probable space group: C 2/C
;
_chemical_formula_sum "Si O2"
_cell_formula_units_Z 40
_cell_length_a 14.308507
_cell_length_b 6.795697
_cell_length_c 18.348789
_cell_angle_alpha 90.000000
_cell_angle_beta 72.868151
_cell_angle_gamma 90.000000
_cell_volume 1705.003381
_symmetry_space_group_name_H-M "C 2/C"
_symmetry_group_IT_number 15
_symmetry_cell_setting 'monoclinic'
loop_
_space_group_symop_operation_xyz
x,y,z
-x,y,1/2-z
-x,-y,-z
x,-y,1/2+z
1/2+x,1/2+y,z
1/2-x,1/2+y,1/2-z
1/2-x,1/2-y,-z
1/2+x,1/2-y,1/2+z
loop_
_atom_site_type_symbol
_atom_site_label
_atom_site_fract_x
_atom_site_fract_y
_atom_site_fract_z
Si Si1 0.354438 0.222927 0.438337
Si Si2 0.412730 0.764262 0.080784
Si Si3 0.359262 0.154154 0.172494
Si Si4 0.775554 0.512217 0.841171
Si Si5 0.482609 0.501216 0.835269
O O1 0.250000 0.250000 0.500000
O O2 0.426468 0.237647 0.490689
O O3 0.379690 0.395303 0.375558
O O4 0.348029 0.025770 0.392018
O O5 0.316005 0.635615 0.123668
O O6 0.496089 0.658676 0.108166
O O7 0.396366 0.984712 0.111114
O O8 0.269303 0.272818 0.157588
O O9 0.440696 0.317445 0.173114
O O10 0.325553 0.051089 0.254715
O O11 0.500000 0.422128 0.750000
#
# Coordination Sequence:
#
# PCOD9274811 Si02
#       5
#     8   8   8   8   8
#     4  10  22  43  65  93 133 177 219 275 338 401
#     4  10  23  39  65  94 135 171 216 277 335 392
#     4  11  21  38  65  96 131 170 228 277 332 397
#     4  10  20  38  65  93 129 175 221 273 324 400
#     4  11  23  41  67  97 131 176 223 278 331 400
#
# _framework density 23.460363999999998
#
# number of rings (size 3 to 8) (size 9 to 14) (size 15 to 20)
#    0.000    1.600    4.000    0.600    0.000    2.400 
#    0.000    0.000    0.000    0.000    0.000    0.000 
#    0.000    0.000    0.000    0.000    0.000    0.000 
#
# Total GULP energy -111901.855504 kJ/mol
# GULP energy per Si atom -5595.092775 kJ/mol
# Density = 2.340697 g / cm^3
# Si number density = 23.460364 Si / 1000 Ang^3
#
#
#
# Elastic Constant Matrix: (Units=GPa)
#
#
# Indices 1 2 3 4 5 6 
#
# 1 45.7866 23.4906 18.8483 0.0000 -6.9521 0.0000
# 2 23.4906 103.5396 17.4763 0.0000 3.6902 0.0000
# 3 18.8483 17.4763 115.7618 0.0000 2.1268 0.0000
# 4 0.0000 0.0000 0.0000 12.5332 0.0000 4.6093
# 5 -6.9521 3.6902 2.1268 0.0000 27.0177 0.0000
# 6 0.0000 0.0000 0.0000 4.6093 0.0000 37.3155
#
#
#
# Elastic Compliance Matrix: (Units=1/GPa)
#
#
# Indices 1 2 3 4 5 6 
#
# 1 0.027686 -0.005940 -0.003762 0.000000 0.008232 0.000000
# 2 -0.005940 0.011226 -0.000672 0.000000 -0.003009 0.000000
# 3 -0.003762 -0.000672 0.009382 0.000000 -0.001615 0.000000
# 4 0.000000 0.000000 0.000000 0.083585 0.000000 -0.010325
# 5 0.008232 -0.003009 -0.001615 0.000000 0.039669 0.000000
# 6 0.000000 0.000000 0.000000 -0.010325 0.000000 0.028074
#
#
# Mechanical properties :
#
#
# Convention : Reuss Voigt Hill
#
# Bulk Modulus (GPa) = 36.30297 42.74650 39.52474
# Shear Modulus (GPa) = 21.78131 29.05813 25.41972
#
# Velocity S-wave (km/s) = 3.05032 3.52320 3.29525
# Velocity P-wave (km/s) = 5.28334 5.90007 5.60020
#
# Compressibility (1/GPa) = 0.02754595
#
# Stress axis : x y z
#
# Youngs Moduli (GPa) = 36.11873 89.07540 106.58465
#
# Poissons Ratio (x) = 0.52908 0.40102
# Poissons Ratio (y) = 0.21453 0.07167
# Poissons Ratio (z) = 0.13589 0.05990
#
# Static dielectric constant tensor:
#      x y z
#    x 2.013270 0.000000 0.043290 
#    y 0.000000 1.834680 0.000000 
#    z 0.043290 0.000000 1.844050 
# 
# From -- ./inp_files/207977.got.cif
#   From: 2010.05.17/outbox.cif.g08.bks.cpg/sg15_104_cif.got.tgz:207977.got - 2010.06.03 18:47:42.
