data_PCOD9274410
_publ_section_title
;
Structure prediction by ZEFSAII (Michael W. Deem and Ramdas Pophale) SiO2 
 PCOD9274410
Probable space group: C 2/C
;
_chemical_formula_sum "Si O2"
_cell_formula_units_Z 32
_cell_length_a 7.289889
_cell_length_b 20.732525
_cell_length_c 15.308062
_cell_angle_alpha 90.000000
_cell_angle_beta 139.856604
_cell_angle_gamma 90.000000
_cell_volume 1491.601740
_symmetry_space_group_name_H-M "C 2/C"
_symmetry_group_IT_number 15
_symmetry_cell_setting 'monoclinic'
loop_
_space_group_symop_operation_xyz
x,y,z
-x,y,1/2-z
-x,-y,-z
x,-y,1/2+z
1/2+x,1/2+y,z
1/2-x,1/2+y,1/2-z
1/2-x,1/2-y,-z
1/2+x,1/2-y,1/2+z
loop_
_atom_site_type_symbol
_atom_site_label
_atom_site_fract_x
_atom_site_fract_y
_atom_site_fract_z
Si Si1 0.155677 0.858017 0.442206
Si Si2 0.416076 0.894277 0.364553
Si Si3 0.751980 0.284168 0.095007
Si Si4 0.175895 0.518116 0.402377
O O1 0.357322 0.852822 0.430791
O O2 0.315817 0.909082 0.560788
O O3 0.876277 0.891410 0.296633
O O4 0.031984 0.797546 0.451557
O O5 0.649968 0.856477 0.394478
O O6 0.530677 0.966670 0.415443
O O7 0.000000 0.257504 0.250000
O O8 0.750000 0.250000 0.000000
O O9 0.500000 0.500000 0.500000
O O10 0.000000 0.512752 0.250000
#
# Coordination Sequence:
#
# PCOD9274410 Si02
#       4
#     8   8   8   8
#     4  10  21  38  62  90 120 167 205 249 320 374
#     4  10  20  38  63  87 122 164 206 250 313 383
#     4  10  21  41  63  86 120 164 213 266 313 368
#     4  12  20  37  62  92 131 162 202 256 314 380
#
# _framework density 21.453448000000002
#
# number of rings (size 3 to 8) (size 9 to 14) (size 15 to 20)
#    0.000    1.500    5.000    1.500    0.000    1.000 
#    4.500    0.000    0.000    0.000    0.000    0.000 
#    0.000    0.000    0.000    0.000    0.000    0.000 
#
# Total GULP energy -89185.843926 kJ/mol
# GULP energy per Si atom -5574.115245 kJ/mol
# Density = 2.140462 g / cm^3
# Si number density = 21.453448 Si / 1000 Ang^3
#
#
#
# Elastic Constant Matrix: (Units=GPa)
#
#
# Indices 1 2 3 4 5 6 
#
# 1 168.1137 45.3326 48.3929 0.0000 -13.1732 0.0000
# 2 45.3326 56.0268 34.1826 0.0000 -7.5535 0.0000
# 3 48.3929 34.1826 91.2767 0.0000 -19.4907 0.0000
# 4 0.0000 0.0000 0.0000 18.4946 0.0000 -6.5718
# 5 -13.1732 -7.5535 -19.4907 0.0000 37.6113 0.0000
# 6 0.0000 0.0000 0.0000 -6.5718 0.0000 48.1517
#
#
#
# Elastic Compliance Matrix: (Units=1/GPa)
#
#
# Indices 1 2 3 4 5 6 
#
# 1 0.007993 -0.005027 -0.002218 0.000000 0.000640 0.000000
# 2 -0.005027 0.026298 -0.007231 0.000000 -0.000227 0.000000
# 3 -0.002218 -0.007231 0.016151 0.000000 0.006141 0.000000
# 4 0.000000 0.000000 0.000000 0.056826 0.000000 0.007756
# 5 0.000640 -0.000227 0.006141 0.000000 0.029949 0.000000
# 6 0.000000 0.000000 0.000000 0.007756 0.000000 0.021826
#
#
# Mechanical properties :
#
#
# Convention : Reuss Voigt Hill
#
# Bulk Modulus (GPa) = 46.53830 63.47035 55.00433
# Shear Modulus (GPa) = 25.62024 33.35213 29.48619
#
# Velocity S-wave (km/s) = 3.45950 3.94715 3.71135
# Velocity P-wave (km/s) = 6.13982 7.10090 6.63777
#
# Compressibility (1/GPa) = 0.02148768
#
# Stress axis : x y z
#
# Youngs Moduli (GPa) = 125.11421 38.02603 61.91580
#
# Poissons Ratio (x) = 0.19118 0.13733
# Poissons Ratio (y) = 0.62901 0.44773
# Poissons Ratio (z) = 0.27751 0.27498
#
# Static dielectric constant tensor:
#      x y z
#    x 1.832640 0.000000 -0.005320 
#    y 0.000000 1.774440 0.000000 
#    z -0.005320 0.000000 1.752950 
# 
# From -- ./inp_files/192417.got.cif
#   From: 2010.05.17/outbox.cif.g08.bks.cpg/sg15_97_cif.got.tgz:192417.got - 2010.06.03 18:47:42.
