data_PCOD9274731
_publ_section_title
;
Structure prediction by ZEFSAII (Michael W. Deem and Ramdas Pophale) SiO2 
 PCOD9274731
Probable space group: C 2/C
;
_chemical_formula_sum "Si O2"
_cell_formula_units_Z 40
_cell_length_a 21.662458
_cell_length_b 6.871354
_cell_length_c 17.834993
_cell_angle_alpha 90.000000
_cell_angle_beta 138.629960
_cell_angle_gamma 90.000000
_cell_volume 1754.573610
_symmetry_space_group_name_H-M "C 2/C"
_symmetry_group_IT_number 15
_symmetry_cell_setting 'monoclinic'
loop_
_space_group_symop_operation_xyz
x,y,z
-x,y,1/2-z
-x,-y,-z
x,-y,1/2+z
1/2+x,1/2+y,z
1/2-x,1/2+y,1/2-z
1/2-x,1/2-y,-z
1/2+x,1/2-y,1/2+z
loop_
_atom_site_type_symbol
_atom_site_label
_atom_site_fract_x
_atom_site_fract_y
_atom_site_fract_z
Si Si1 0.795347 0.786655 0.653863
Si Si2 0.012750 0.524399 0.342844
Si Si3 0.951329 0.913660 0.349516
Si Si4 0.415250 0.275121 0.484244
Si Si5 0.290628 0.039633 0.042478
O O1 0.694181 0.770276 0.601751
O O2 0.817542 0.566030 0.645832
O O3 0.871179 0.922265 0.764328
O O4 0.784578 0.902225 0.566098
O O5 0.015165 0.388913 0.418106
O O6 0.122298 0.561161 0.433173
O O7 0.000000 0.420267 0.250000
O O8 0.959658 0.730097 0.301177
O O9 0.933860 0.816651 0.414471
O O10 0.049645 0.029617 0.441132
O O11 0.250000 0.250000 0.000000
#
# Coordination Sequence:
#
# PCOD9274731 Si02
#       5
#     8   8   8   8   8
#     4  10  22  41  64 100 133 177 229 288 346 414
#     4  11  22  38  66  98 131 179 226 287 345 410
#     4  11  23  44  66  96 138 185 228 284 353 417
#     4  10  24  45  64  97 138 180 232 289 344 420
#     4  10  20  38  64  97 133 167 224 286 343 409
#
# _framework density 22.797561999999999
#
# number of rings (size 3 to 8) (size 9 to 14) (size 15 to 20)
#    0.000    1.600    0.000    4.200    0.000    4.000 
#   25.200    0.000    0.000    0.000    0.000    0.000 
#    0.000    0.000    0.000    0.000    0.000    0.000 
#
# Total GULP energy -111334.834277 kJ/mol
# GULP energy per Si atom -5566.741714 kJ/mol
# Density = 2.274567 g / cm^3
# Si number density = 22.797562 Si / 1000 Ang^3
#
#
#
# Elastic Constant Matrix: (Units=GPa)
#
#
# Indices 1 2 3 4 5 6 
#
# 1 50.3800 38.4562 37.4284 0.0000 -0.8798 0.0000
# 2 38.4562 143.0428 57.8657 0.0000 -4.2293 0.0000
# 3 37.4284 57.8657 94.0304 0.0000 -6.8463 0.0000
# 4 0.0000 0.0000 0.0000 51.1741 0.0000 1.9205
# 5 -0.8798 -4.2293 -6.8463 0.0000 31.7083 0.0000
# 6 0.0000 0.0000 0.0000 1.9205 0.0000 35.4924
#
#
#
# Elastic Compliance Matrix: (Units=1/GPa)
#
#
# Indices 1 2 3 4 5 6 
#
# 1 0.030158 -0.004330 -0.009470 0.000000 -0.001785 0.000000
# 2 -0.004330 0.009930 -0.004368 0.000000 0.000261 0.000000
# 3 -0.009470 -0.004368 0.017303 0.000000 0.002891 0.000000
# 4 0.000000 0.000000 0.000000 0.019581 0.000000 -0.001060
# 5 -0.001785 0.000261 0.002891 0.000000 0.032147 0.000000
# 6 0.000000 0.000000 0.000000 -0.001060 0.000000 0.028232
#
#
# Mechanical properties :
#
#
# Convention : Reuss Voigt Hill
#
# Bulk Modulus (GPa) = 47.49410 61.66154 54.57782
# Shear Modulus (GPa) = 27.66932 33.92181 30.79557
#
# Velocity S-wave (km/s) = 3.48759 3.86159 3.67935
# Velocity P-wave (km/s) = 6.09064 6.85483 6.48400
#
# Compressibility (1/GPa) = 0.02105525
#
# Stress axis : x y z
#
# Youngs Moduli (GPa) = 33.15831 100.70707 57.79357
#
# Poissons Ratio (x) = 0.43604 0.54730
# Poissons Ratio (y) = 0.14357 0.25246
# Poissons Ratio (z) = 0.31400 0.43991
#
# Static dielectric constant tensor:
#      x y z
#    x 2.040920 0.000000 -0.250960 
#    y 0.000000 1.976580 0.000000 
#    z -0.250960 0.000000 2.368740 
# 
# From -- ./inp_files/254513.got.cif
#   From: 2010.05.17/outbox.cif.g08.bks.cpg/sg15_128_cif.got.tgz:254513.got - 2010.06.03 18:47:42.
