data_PCOD9274588
_publ_section_title
;
Structure prediction by ZEFSAII (Michael W. Deem and Ramdas Pophale) SiO2 
 PCOD9274588
Probable space group: C 2/C
;
_chemical_formula_sum "Si O2"
_cell_formula_units_Z 36
_cell_length_a 15.567742
_cell_length_b 13.228476
_cell_length_c 13.401371
_cell_angle_alpha 90.000000
_cell_angle_beta 138.237913
_cell_angle_gamma 90.000000
_cell_volume 1838.164415
_symmetry_space_group_name_H-M "C 2/C"
_symmetry_group_IT_number 15
_symmetry_cell_setting 'monoclinic'
loop_
_space_group_symop_operation_xyz
x,y,z
-x,y,1/2-z
-x,-y,-z
x,-y,1/2+z
1/2+x,1/2+y,z
1/2-x,1/2+y,1/2-z
1/2-x,1/2-y,-z
1/2+x,1/2-y,1/2+z
loop_
_atom_site_type_symbol
_atom_site_label
_atom_site_fract_x
_atom_site_fract_y
_atom_site_fract_z
Si Si1 0.500000 0.027608 0.750000
Si Si2 0.307014 0.825335 0.840412
Si Si3 0.815351 0.447610 0.423777
Si Si4 0.641180 0.277205 0.324975
Si Si5 0.929551 0.685583 0.848804
O O1 0.423081 0.102314 0.756931
O O2 0.400030 0.965051 0.596493
O O3 0.340505 0.794278 0.755826
O O4 0.171867 0.774488 0.751227
O O5 0.303346 0.944483 0.859181
O O6 0.422617 0.781792 0.009104
O O7 0.680568 0.391322 0.326664
O O8 0.893038 0.372846 0.418727
O O9 0.500000 0.271194 0.250000
O O10 0.750000 0.250000 0.500000
#
# Coordination Sequence:
#
# PCOD9274588 Si02
#       5
#     4   8   8   8   8
#     4  10  20  38  64  88 114 168 206 244 300 382
#     4  10  21  43  57  89 127 158 200 259 306 362
#     4  10  23  39  62  90 125 161 205 250 313 359
#     4  11  24  40  65  96 121 164 211 255 304 367
#     4  10  22  38  61  87 120 161 204 248 310 357
#
# _framework density 19.584755999999999
#
# number of rings (size 3 to 8) (size 9 to 14) (size 15 to 20)
#    0.000    1.778    0.000    5.333    7.778    3.556 
#    6.000    3.333    0.000    0.000    0.000    0.000 
#    0.000    0.000    0.000    0.000    0.000    0.000 
#
# Total GULP energy -100569.136232 kJ/mol
# GULP energy per Si atom -5587.174235 kJ/mol
# Density = 1.954018 g / cm^3
# Si number density = 19.584756 Si / 1000 Ang^3
#
#
#
# Elastic Constant Matrix: (Units=GPa)
#
#
# Indices 1 2 3 4 5 6 
#
# 1 75.6545 26.1546 34.0706 0.0000 7.8441 0.0000
# 2 26.1546 94.9983 58.8820 0.0000 14.3385 0.0000
# 3 34.0706 58.8820 105.2550 0.0000 7.4024 0.0000
# 4 0.0000 0.0000 0.0000 17.6194 0.0000 0.8377
# 5 7.8441 14.3385 7.4024 0.0000 38.4936 0.0000
# 6 0.0000 0.0000 0.0000 0.8377 0.0000 26.3785
#
#
#
# Elastic Compliance Matrix: (Units=1/GPa)
#
#
# Indices 1 2 3 4 5 6 
#
# 1 0.015795 -0.001500 -0.004143 0.000000 -0.001863 0.000000
# 2 -0.001500 0.017000 -0.008719 0.000000 -0.004350 0.000000
# 3 -0.004143 -0.008719 0.015643 0.000000 0.001084 0.000000
# 4 0.000000 0.000000 0.000000 0.056841 0.000000 -0.001805
# 5 -0.001863 -0.004350 0.001084 0.000000 0.027770 0.000000
# 6 0.000000 0.000000 0.000000 -0.001805 0.000000 0.037967
#
#
# Mechanical properties :
#
#
# Convention : Reuss Voigt Hill
#
# Bulk Modulus (GPa) = 50.72088 57.12469 53.92279
# Shear Modulus (GPa) = 24.23516 26.95168 25.59342
#
# Velocity S-wave (km/s) = 3.52156 3.71368 3.61889
# Velocity P-wave (km/s) = 6.51840 6.90071 6.71228
#
# Compressibility (1/GPa) = 0.01971575
#
# Stress axis : x y z
#
# Youngs Moduli (GPa) = 63.30971 58.82315 63.92586
#
# Poissons Ratio (x) = 0.08821 0.26484
# Poissons Ratio (y) = 0.09494 0.55736
# Poissons Ratio (z) = 0.26229 0.51287
#
# Static dielectric constant tensor:
#      x y z
#    x 1.720170 0.000000 -0.009770 
#    y 0.000000 1.688220 0.000000 
#    z -0.009770 0.000000 1.691070 
# 
# From -- ./inp_files/46614.got.cif
#   From: 2010.05.17/outbox.cif.g08.bks.cpg/sg15_24_cif.got.tgz:46614.got - 2010.06.03 18:47:42.
