data_PCOD9274608
_publ_section_title
;
Structure prediction by ZEFSAII (Michael W. Deem and Ramdas Pophale) SiO2 
 PCOD9274608
Probable space group: C 2/C
;
_chemical_formula_sum "Si O2"
_cell_formula_units_Z 56
_cell_length_a 14.318231
_cell_length_b 11.011283
_cell_length_c 16.503340
_cell_angle_alpha 90.000000
_cell_angle_beta 72.469892
_cell_angle_gamma 90.000000
_cell_volume 2481.113411
_symmetry_space_group_name_H-M "C 2/C"
_symmetry_group_IT_number 15
_symmetry_cell_setting 'monoclinic'
loop_
_space_group_symop_operation_xyz
x,y,z
-x,y,1/2-z
-x,-y,-z
x,-y,1/2+z
1/2+x,1/2+y,z
1/2-x,1/2+y,1/2-z
1/2-x,1/2-y,-z
1/2+x,1/2-y,1/2+z
loop_
_atom_site_type_symbol
_atom_site_label
_atom_site_fract_x
_atom_site_fract_y
_atom_site_fract_z
Si Si1 0.918709 0.522135 0.898812
Si Si2 0.744578 0.897350 0.292209
Si Si3 0.994933 0.193781 0.546307
Si Si4 0.443564 0.515630 0.683419
Si Si5 0.456450 0.762979 0.152451
Si Si6 0.376038 0.911916 0.592066
Si Si7 0.178391 0.714514 0.093478
O O1 0.842892 0.427211 0.878666
O O2 0.949501 0.651704 0.852888
O O3 0.026319 0.464672 0.889409
O O4 0.876352 0.543591 0.999523
O O5 0.833097 0.935051 0.212231
O O6 0.641290 0.835670 0.297273
O O7 0.788128 0.796796 0.341766
O O8 0.715190 0.024807 0.342566
O O9 0.985518 0.059489 0.585588
O O10 0.893845 0.268490 0.584723
O O11 0.034061 0.235163 0.447714
O O12 0.073579 0.246288 0.588151
O O13 0.500000 0.562702 0.750000
O O14 0.449752 0.371462 0.687672
O O15 0.250000 0.750000 0.000000
#
# Coordination Sequence:
#
# PCOD9274608 Si02
#       7
#     8   8   8   8   8   8   8
#     4   8  15  30  57  89 113 156 195 249 299 361
#     4  11  21  36  61  93 122 160 202 265 314 363
#     4  10  20  38  64  89 118 166 212 249 310 385
#     4  12  26  40  58  86 129 168 201 260 331 368
#     4  10  22  42  63  85 122 168 213 251 311 387
#     4   8  15  30  57  87 115 145 202 250 298 361
#     4  11  16  31  64  99 123 146 210 262 307 367
#
# _framework density 22.570512000000001
#
# number of rings (size 3 to 8) (size 9 to 14) (size 15 to 20)
#    0.000    2.000    4.286    2.143    2.000    0.000 
#    0.000    1.429    0.000    2.571    0.000    0.000 
#    0.000    0.000    0.000    0.000    0.000    0.000 
#
# Total GULP energy -155919.135948 kJ/mol
# GULP energy per Si atom -5568.540570 kJ/mol
# Density = 2.251914 g / cm^3
# Si number density = 22.570512 Si / 1000 Ang^3
#
#
#
# Elastic Constant Matrix: (Units=GPa)
#
#
# Indices 1 2 3 4 5 6 
#
# 1 51.3817 27.5484 33.2984 0.0000 1.0936 0.0000
# 2 27.5484 95.3061 24.6185 0.0000 -7.2214 0.0000
# 3 33.2984 24.6185 60.5935 0.0000 -1.6845 0.0000
# 4 0.0000 0.0000 0.0000 31.8495 0.0000 -6.1709
# 5 1.0936 -7.2214 -1.6845 0.0000 23.6523 0.0000
# 6 0.0000 0.0000 0.0000 -6.1709 0.0000 32.5073
#
#
#
# Elastic Compliance Matrix: (Units=1/GPa)
#
#
# Indices 1 2 3 4 5 6 
#
# 1 0.032933 -0.005750 -0.015884 0.000000 -0.004410 0.000000
# 2 -0.005750 0.012981 -0.002000 0.000000 0.004087 0.000000
# 3 -0.015884 -0.002000 0.026100 0.000000 0.001983 0.000000
# 4 0.000000 0.000000 0.000000 0.032597 0.000000 0.006188
# 5 -0.004410 0.004087 0.001983 0.000000 0.043872 0.000000
# 6 0.000000 0.000000 0.000000 0.006188 0.000000 0.031937
#
#
# Mechanical properties :
#
#
# Convention : Reuss Voigt Hill
#
# Bulk Modulus (GPa) = 40.41330 42.02353 41.21841
# Shear Modulus (GPa) = 21.19202 25.72289 23.45745
#
# Velocity S-wave (km/s) = 3.06751 3.37956 3.22731
# Velocity P-wave (km/s) = 5.52181 5.82132 5.67354
#
# Compressibility (1/GPa) = 0.02474433
#
# Stress axis : x y z
#
# Youngs Moduli (GPa) = 30.36471 77.03544 38.31391
#
# Poissons Ratio (x) = 0.44299 0.60858
# Poissons Ratio (y) = 0.17461 0.07664
# Poissons Ratio (z) = 0.48232 0.15410
#
# Static dielectric constant tensor:
#      x y z
#    x 1.831140 0.000000 0.014660 
#    y 0.000000 1.972690 0.000000 
#    z 0.014660 0.000000 1.864960 
# 
# From -- ./inp_files/203962.got.cif
#   From: 2010.05.17/outbox.cif.g08.bks.cpg/sg15_102_cif.got.tgz:203962.got - 2010.06.03 18:47:42.
