data_PCOD9274484
_publ_section_title
;
Structure prediction by ZEFSAII (Michael W. Deem and Ramdas Pophale) SiO2 
 PCOD9274484
Probable space group: C 2/C
;
_chemical_formula_sum "Si O2"
_cell_formula_units_Z 40
_cell_length_a 10.401390
_cell_length_b 35.189916
_cell_length_c 7.525922
_cell_angle_alpha 90.000000
_cell_angle_beta 138.485114
_cell_angle_gamma 90.000000
_cell_volume 1825.834452
_symmetry_space_group_name_H-M "C 2/C"
_symmetry_group_IT_number 15
_symmetry_cell_setting 'monoclinic'
loop_
_space_group_symop_operation_xyz
x,y,z
-x,y,1/2-z
-x,-y,-z
x,-y,1/2+z
1/2+x,1/2+y,z
1/2-x,1/2+y,1/2-z
1/2-x,1/2-y,-z
1/2+x,1/2-y,1/2+z
loop_
_atom_site_type_symbol
_atom_site_label
_atom_site_fract_x
_atom_site_fract_y
_atom_site_fract_z
Si Si1 0.692502 0.971666 0.711197
Si Si2 0.266448 0.294039 0.358998
Si Si3 0.500000 0.478612 0.750000
Si Si4 0.310504 0.650674 0.623433
Si Si5 0.314896 0.208744 0.321929
Si Si6 0.000000 0.591413 0.250000
O O1 0.611565 0.935475 0.729573
O O2 0.829723 0.958154 0.688191
O O3 0.500000 0.000000 0.500000
O O4 0.855367 0.994683 0.987690
O O5 0.367753 0.327382 0.359566
O O6 0.313412 0.254667 0.304698
O O7 0.294850 0.293958 0.600268
O O8 0.038242 0.301073 0.089652
O O9 0.500000 0.629845 0.750000
O O10 0.249333 0.682641 0.410881
O O11 0.148560 0.620056 0.494858
#
# Coordination Sequence:
#
# PCOD9274484 Si02
#       6
#     8   8   4   8   8   4
#     4  11  22  44  71 106 139 178 230 287 342 425
#     4  10  20  38  64  90 129 171 231 286 335 406
#     4  10  22  40  78 106 131 174 234 279 344 420
#     4  12  25  41  63  93 136 179 221 281 352 411
#     4  10  20  38  63  93 124 176 228 285 339 406
#     4  12  26  44  68  98 145 180 222 289 352 416
#
# _framework density 21.907793000000002
#
# number of rings (size 3 to 8) (size 9 to 14) (size 15 to 20)
#    0.000    1.200    4.000    1.800    1.400    2.400 
#    0.000    6.000    0.000    0.000    0.000    0.000 
#    0.000    0.000    0.000    0.000    0.000    0.000 
#
# Total GULP energy -111406.857720 kJ/mol
# GULP energy per Si atom -5570.342886 kJ/mol
# Density = 2.185793 g / cm^3
# Si number density = 21.907793 Si / 1000 Ang^3
#
#
#
# Elastic Constant Matrix: (Units=GPa)
#
#
# Indices 1 2 3 4 5 6 
#
# 1 142.1609 54.5322 3.3615 0.0000 18.4190 0.0000
# 2 54.5322 98.0281 19.1479 0.0000 -2.6384 0.0000
# 3 3.3615 19.1479 69.6835 0.0000 13.5475 0.0000
# 4 0.0000 0.0000 0.0000 12.5452 0.0000 5.1716
# 5 18.4190 -2.6384 13.5475 0.0000 36.4163 0.0000
# 6 0.0000 0.0000 0.0000 5.1716 0.0000 28.9596
#
#
#
# Elastic Compliance Matrix: (Units=1/GPa)
#
#
# Indices 1 2 3 4 5 6 
#
# 1 0.010285 -0.006397 0.002547 0.000000 -0.006613 0.000000
# 2 -0.006397 0.014899 -0.004985 0.000000 0.006169 0.000000
# 3 0.002547 -0.004985 0.017159 0.000000 -0.008033 0.000000
# 4 0.000000 0.000000 0.000000 0.086046 0.000000 -0.015366
# 5 -0.006613 0.006169 -0.008033 0.000000 0.034241 0.000000
# 6 0.000000 0.000000 0.000000 -0.015366 0.000000 0.037275
#
#
# Mechanical properties :
#
#
# Convention : Reuss Voigt Hill
#
# Bulk Modulus (GPa) = 40.52799 51.55065 46.03932
# Shear Modulus (GPa) = 22.14359 31.10626 26.62493
#
# Velocity S-wave (km/s) = 3.18270 3.77221 3.48992
# Velocity P-wave (km/s) = 5.66088 6.52338 6.10738
#
# Compressibility (1/GPa) = 0.02467431
#
# Stress axis : x y z
#
# Youngs Moduli (GPa) = 97.23233 67.11668 58.27753
#
# Poissons Ratio (x) = 0.42933 -0.14845
# Poissons Ratio (y) = 0.62198 0.29051
# Poissons Ratio (z) = -0.24768 0.33458
#
# Static dielectric constant tensor:
#      x y z
#    x 1.959140 0.000000 -0.006320 
#    y 0.000000 1.776640 0.000000 
#    z -0.006320 0.000000 1.825530 
# 
# From -- ./inp_files/35488.got.cif
#   From: 2010.05.17/outbox.cif.g08.bks.cpg/sg15_18_cif.got.tgz:35488.got - 2010.06.03 18:47:42.
