data_PCOD9274233
_publ_section_title
;
Structure prediction by ZEFSAII (Michael W. Deem and Ramdas Pophale) SiO2 
 PCOD9274233
Probable space group: C 2/C
;
_chemical_formula_sum "Si O2"
_cell_formula_units_Z 40
_cell_length_a 11.442264
_cell_length_b 11.495139
_cell_length_c 14.587694
_cell_angle_alpha 90.000000
_cell_angle_beta 123.215141
_cell_angle_gamma 90.000000
_cell_volume 1605.243288
_symmetry_space_group_name_H-M "C 2/C"
_symmetry_group_IT_number 15
_symmetry_cell_setting 'monoclinic'
loop_
_space_group_symop_operation_xyz
x,y,z
-x,y,1/2-z
-x,-y,-z
x,-y,1/2+z
1/2+x,1/2+y,z
1/2-x,1/2+y,1/2-z
1/2-x,1/2-y,-z
1/2+x,1/2-y,1/2+z
loop_
_atom_site_type_symbol
_atom_site_label
_atom_site_fract_x
_atom_site_fract_y
_atom_site_fract_z
Si Si1 0.024221 0.630224 0.160812
Si Si2 0.755676 0.568621 0.749146
Si Si3 0.691654 0.916986 0.438392
Si Si4 0.033618 0.730959 0.555090
Si Si5 0.489547 0.442228 0.646745
O O1 0.168872 0.558563 0.211614
O O2 0.000000 0.684160 0.250000
O O3 0.912542 0.525570 0.108257
O O4 0.993660 0.711679 0.062674
O O5 0.775677 0.611668 0.653310
O O6 0.837809 0.654127 0.852317
O O7 0.593516 0.550331 0.699862
O O8 0.604723 0.815946 0.451218
O O9 0.829161 0.956184 0.551428
O O10 0.051472 0.862948 0.592290
O O11 0.500000 0.380003 0.750000
#
# Coordination Sequence:
#
# PCOD9274233 Si02
#       5
#     8   8   8   8   8
#     4   9  19  38  62  83 116 165 202 240 303 364
#     4  10  21  38  59  90 127 158 192 248 309 361
#     4  10  20  38  62  88 120 158 198 250 304 359
#     4  11  21  38  64  91 120 161 204 250 301 357
#     4  12  23  36  61  96 123 156 205 254 298 355
#
# _framework density 24.918341999999999
#
# number of rings (size 3 to 8) (size 9 to 14) (size 15 to 20)
#    0.000    1.600    0.000    9.000    0.000    1.600 
#    0.000    4.000    0.000   22.800    0.000    0.000 
#    0.000    0.000    0.000    0.000    0.000    0.000 
#
# Total GULP energy -112120.360606 kJ/mol
# GULP energy per Si atom -5606.018030 kJ/mol
# Density = 2.486163 g / cm^3
# Si number density = 24.918342 Si / 1000 Ang^3
#
#
#
# Elastic Constant Matrix: (Units=GPa)
#
#
# Indices 1 2 3 4 5 6 
#
# 1 75.1652 27.8927 56.2821 0.0000 18.8272 0.0000
# 2 27.8927 39.7790 25.3859 0.0000 5.6523 0.0000
# 3 56.2821 25.3859 174.1860 0.0000 5.2854 0.0000
# 4 0.0000 0.0000 0.0000 28.7052 0.0000 -0.8742
# 5 18.8272 5.6523 5.2854 0.0000 68.5903 0.0000
# 6 0.0000 0.0000 0.0000 -0.8742 0.0000 25.2243
#
#
#
# Elastic Compliance Matrix: (Units=1/GPa)
#
#
# Indices 1 2 3 4 5 6 
#
# 1 0.023175 -0.011979 -0.005592 0.000000 -0.004943 0.000000
# 2 -0.011979 0.034178 -0.001128 0.000000 0.000558 0.000000
# 3 -0.005592 -0.001128 0.007681 0.000000 0.001036 0.000000
# 4 0.000000 0.000000 0.000000 0.034874 0.000000 0.001209
# 5 -0.004943 0.000558 0.001036 0.000000 0.015810 0.000000
# 6 0.000000 0.000000 0.000000 0.001209 0.000000 0.039686
#
#
# Mechanical properties :
#
#
# Convention : Reuss Voigt Hill
#
# Bulk Modulus (GPa) = 36.18361 56.47239 46.32800
# Shear Modulus (GPa) = 24.75083 36.47527 30.61305
#
# Velocity S-wave (km/s) = 3.15505 3.83010 3.50885
# Velocity P-wave (km/s) = 5.27493 6.50168 5.92016
#
# Compressibility (1/GPa) = 0.02763683
#
# Stress axis : x y z
#
# Youngs Moduli (GPa) = 43.15064 29.25821 130.19385
#
# Poissons Ratio (x) = 0.35047 0.72808
# Poissons Ratio (y) = 0.51688 0.14681
# Poissons Ratio (z) = 0.24131 0.03299
#
# Static dielectric constant tensor:
#      x y z
#    x 1.972810 0.000000 0.006370 
#    y 0.000000 1.958780 0.000000 
#    z 0.006370 0.000000 1.942310 
# 
# From -- ./inp_files/85698.got.cif
#   From: 2010.05.17/outbox.cif.g08.bks.cpg/sg15_43_cif.got.tgz:85698.got - 2010.06.03 18:47:42.
