data_PCOD9274206
_publ_section_title
;
Structure prediction by ZEFSAII (Michael W. Deem and Ramdas Pophale) SiO2 
 PCOD9274206
Probable space group: C 2/C
;
_chemical_formula_sum "Si O2"
_cell_formula_units_Z 48
_cell_length_a 5.391455
_cell_length_b 15.434980
_cell_length_c 25.207940
_cell_angle_alpha 90.000000
_cell_angle_beta 66.037974
_cell_angle_gamma 90.000000
_cell_volume 1916.936003
_symmetry_space_group_name_H-M "C 2/C"
_symmetry_group_IT_number 15
_symmetry_cell_setting 'monoclinic'
loop_
_space_group_symop_operation_xyz
x,y,z
-x,y,1/2-z
-x,-y,-z
x,-y,1/2+z
1/2+x,1/2+y,z
1/2-x,1/2+y,1/2-z
1/2-x,1/2-y,-z
1/2+x,1/2-y,1/2+z
loop_
_atom_site_type_symbol
_atom_site_label
_atom_site_fract_x
_atom_site_fract_y
_atom_site_fract_z
Si Si1 0.420335 0.694161 0.906449
Si Si2 0.377144 0.011140 0.340373
Si Si3 0.385006 0.650846 0.203876
Si Si4 0.370039 0.481783 0.454319
Si Si5 0.433207 0.169424 0.669853
Si Si6 0.895423 0.378148 0.585498
O O1 0.312211 0.620780 0.955750
O O2 0.240236 0.681189 0.869034
O O3 0.416201 0.792866 0.928469
O O4 0.743177 0.680553 0.868126
O O5 0.336479 0.089638 0.303615
O O6 0.491506 0.050809 0.384133
O O7 0.565331 0.929445 0.308815
O O8 0.074963 0.985964 0.385740
O O9 0.500000 0.617764 0.250000
O O10 0.321857 0.752907 0.216153
O O11 0.616789 0.651010 0.138407
O O12 0.500000 0.500000 0.500000
O O13 0.174009 0.563336 0.459538
#
# Coordination Sequence:
#
# PCOD9274206 Si02
#       6
#     8   8   8   8   8   8
#     4  10  20  38  62  86 121 163 205 250 315 374
#     4  10  20  39  63  85 124 168 205 258 324 381
#     4  10  22  40  60  92 122 160 208 267 319 385
#     4  10  22  38  59  91 125 164 215 264 314 384
#     4  10  20  39  62  86 120 167 201 249 314 380
#     4  10  20  38  63  82 124 167 203 259 325 376
#
# _framework density 25.039961000000002
#
# number of rings (size 3 to 8) (size 9 to 14) (size 15 to 20)
#    0.000    2.000    3.333    0.000    0.000    2.000 
#    3.000    0.833    0.000    0.000    0.000    0.000 
#    0.000    0.000    0.000    0.000    0.000    0.000 
#
# Total GULP energy -133852.031993 kJ/mol
# GULP energy per Si atom -5577.168000 kJ/mol
# Density = 2.498297 g / cm^3
# Si number density = 25.039961 Si / 1000 Ang^3
#
#
#
# Elastic Constant Matrix: (Units=GPa)
#
#
# Indices 1 2 3 4 5 6 
#
# 1 114.5400 31.5891 33.8862 0.0000 31.2897 0.0000
# 2 31.5891 187.8296 35.6053 0.0000 31.6721 0.0000
# 3 33.8862 35.6053 85.0741 0.0000 35.7789 0.0000
# 4 0.0000 0.0000 0.0000 166.2191 0.0000 -42.6553
# 5 31.2897 31.6721 35.7789 0.0000 70.1399 0.0000
# 6 0.0000 0.0000 0.0000 -42.6553 0.0000 65.1648
#
#
#
# Elastic Compliance Matrix: (Units=1/GPa)
#
#
# Indices 1 2 3 4 5 6 
#
# 1 0.010540 -0.000769 -0.002603 0.000000 -0.003027 0.000000
# 2 -0.000769 0.006013 -0.001544 0.000000 -0.001585 0.000000
# 3 -0.002603 -0.001544 0.016113 0.000000 -0.006361 0.000000
# 4 0.000000 0.000000 0.000000 0.007231 0.000000 0.004733
# 5 -0.003027 -0.001585 -0.006361 0.000000 0.019568 0.000000
# 6 0.000000 0.000000 0.000000 0.004733 0.000000 0.018444
#
#
# Mechanical properties :
#
#
# Convention : Reuss Voigt Hill
#
# Bulk Modulus (GPa) = 43.79597 65.51167 54.65382
# Shear Modulus (GPa) = 52.43786 79.39563 65.91674
#
# Velocity S-wave (km/s) = 4.58117 5.63706 5.13632
# Velocity P-wave (km/s) = 6.74620 8.28180 7.55313
#
# Compressibility (1/GPa) = 0.02283315
#
# Stress axis : x y z
#
# Youngs Moduli (GPa) = 94.88019 166.30212 62.06303
#
# Poissons Ratio (x) = 0.12783 0.16158
# Poissons Ratio (y) = 0.07293 0.09582
# Poissons Ratio (z) = 0.24702 0.25676
#
# Static dielectric constant tensor:
#      x y z
#    x 1.830740 0.000000 0.117870 
#    y 0.000000 2.261050 0.000000 
#    z 0.117870 0.000000 1.754400 
# 
# From -- ./inp_files/285565.got.cif
#   From: 2010.05.17/outbox.cif.g08.bks.cpg/sg15_143_cif.got.tgz:285565.got - 2010.06.03 18:47:42.
