data_PCOD9274163
_publ_section_title
;
Structure prediction by ZEFSAII (Michael W. Deem and Ramdas Pophale) SiO2 
 PCOD9274163
Probable space group: C 2/C
;
_chemical_formula_sum "Si O2"
_cell_formula_units_Z 60
_cell_length_a 25.002770
_cell_length_b 25.682665
_cell_length_c 8.469982
_cell_angle_alpha 90.000000
_cell_angle_beta 33.838077
_cell_angle_gamma 90.000000
_cell_volume 3028.636562
_symmetry_space_group_name_H-M "C 2/C"
_symmetry_group_IT_number 15
_symmetry_cell_setting 'monoclinic'
loop_
_space_group_symop_operation_xyz
x,y,z
-x,y,1/2-z
-x,-y,-z
x,-y,1/2+z
1/2+x,1/2+y,z
1/2-x,1/2+y,1/2-z
1/2-x,1/2-y,-z
1/2+x,1/2-y,1/2+z
loop_
_atom_site_type_symbol
_atom_site_label
_atom_site_fract_x
_atom_site_fract_y
_atom_site_fract_z
Si Si1 0.317018 0.041688 0.333534
Si Si2 0.090150 0.833816 0.418034
Si Si3 0.915929 0.540098 0.766314
Si Si4 0.109948 0.936864 0.208871
Si Si5 0.465351 0.216108 0.011208
Si Si6 0.414119 0.853869 0.081673
Si Si7 0.000000 0.997691 0.750000
Si Si8 0.296691 0.853230 0.070568
O O1 0.216763 0.048396 0.493358
O O2 0.321762 0.088823 0.446868
O O3 0.325634 0.988169 0.405443
O O4 0.396314 0.043304 0.000566
O O5 0.099219 0.875070 0.254005
O O6 0.066596 0.776134 0.414172
O O7 0.189102 0.838555 0.277332
O O8 0.000000 0.847972 0.750000
O O9 0.918621 0.598229 0.691837
O O10 0.000000 0.500000 0.500000
O O11 0.041359 0.961906 0.510691
O O12 0.080786 0.963962 0.119231
O O13 0.500000 0.202550 0.750000
O O14 0.552945 0.198860 0.910736
O O15 0.373096 0.183715 0.294661
O O16 0.320449 0.850075 0.199533
O O17 0.500000 0.865844 0.750000
#
# Coordination Sequence:
#
# PCOD9274163 Si02
#       8
#     8   8   8   8   8   8   4   8
#     4  11  22  35  56  86 120 158 199 238 295 360
#     4  10  21  40  62  88 116 159 205 248 304 361
#     4  12  22  35  55  87 124 163 201 242 297 371
#     4  10  21  39  59  87 113 156 193 246 293 352
#     4  10  20  38  63  85 117 157 199 247 308 364
#     4  10  21  37  57  88 119 159 202 251 306 358
#     4  10  20  38  62  80 116 144 194 238 300 338
#     4  10  21  39  61  86 120 159 202 255 305 361
#
# _framework density 19.810894999999999
#
# number of rings (size 3 to 8) (size 9 to 14) (size 15 to 20)
#    0.000    1.600    0.667    5.600    0.000    1.067 
#    6.000    2.667    0.000    0.000    0.000    0.000 
#    0.000    0.000    0.000    0.000    0.000    0.000 
#
# Total GULP energy -167373.748536 kJ/mol
# GULP energy per Si atom -5579.124951 kJ/mol
# Density = 1.976580 g / cm^3
# Si number density = 19.810895 Si / 1000 Ang^3
#
#
#
# Elastic Constant Matrix: (Units=GPa)
#
#
# Indices 1 2 3 4 5 6 
#
# 1 103.6981 44.0886 15.3115 0.0000 -5.6246 0.0000
# 2 44.0886 78.6567 9.5103 0.0000 -14.1771 0.0000
# 3 15.3115 9.5103 54.7809 0.0000 -8.4866 0.0000
# 4 0.0000 0.0000 0.0000 19.2399 0.0000 -10.2033
# 5 -5.6246 -14.1771 -8.4866 0.0000 28.4081 0.0000
# 6 0.0000 0.0000 0.0000 -10.2033 0.0000 -14.9418
#
#
#
# Elastic Compliance Matrix: (Units=1/GPa)
#
#
# Indices 1 2 3 4 5 6 
#
# 1 0.013052 -0.007331 -0.002665 0.000000 -0.001870 0.000000
# 2 -0.007331 0.018192 0.000076 0.000000 0.007650 0.000000
# 3 -0.002665 0.000076 0.019828 0.000000 0.005434 0.000000
# 4 0.000000 0.000000 0.000000 0.038157 0.000000 -0.026056
# 5 -0.001870 0.007650 0.005434 0.000000 0.040272 0.000000
# 6 0.000000 0.000000 0.000000 -0.026056 0.000000 -0.049133
#
#
# Mechanical properties :
#
#
# Convention : Reuss Voigt Hill
#
# Bulk Modulus (GPa) = 32.01838 41.66182 36.84010
# Shear Modulus (GPa) = 45.19989 17.75626 31.47807
#
# Velocity S-wave (km/s) = 4.78176 2.99705 3.99046
# Velocity P-wave (km/s) = 6.83257 5.74907 6.31411
#
# Compressibility (1/GPa) = 0.03123206
#
# Stress axis : x y z
#
# Youngs Moduli (GPa) = 76.61479 54.96838 50.43349
#
# Poissons Ratio (x) = 0.40297 0.13442
# Poissons Ratio (y) = 0.56166 -0.00383
# Poissons Ratio (z) = 0.20420 -0.00417
#
# Static dielectric constant tensor:
#      x y z
#    x 1.768000 0.000000 -0.036160 
#    y 0.000000 1.699830 0.000000 
#    z -0.036160 0.000000 1.711680 
# 
# From -- ./inp_files/67726.got.cif
#   From: 2010.05.17/outbox.cif.g08.bks.cpg/sg15_34_cif.got.tgz:67726.got - 2010.06.03 18:47:42.
