data_PCOD9274924
_publ_section_title
;
Structure prediction by ZEFSAII (Michael W. Deem and Ramdas Pophale) SiO2 
 PCOD9274924
Probable space group: C 2/C
;
_chemical_formula_sum "Si O2"
_cell_formula_units_Z 44
_cell_length_a 8.254990
_cell_length_b 16.666377
_cell_length_c 14.948257
_cell_angle_alpha 90.000000
_cell_angle_beta 86.286671
_cell_angle_gamma 90.000000
_cell_volume 2052.275135
_symmetry_space_group_name_H-M "C 2/C"
_symmetry_group_IT_number 15
_symmetry_cell_setting 'monoclinic'
loop_
_space_group_symop_operation_xyz
x,y,z
-x,y,1/2-z
-x,-y,-z
x,-y,1/2+z
1/2+x,1/2+y,z
1/2-x,1/2+y,1/2-z
1/2-x,1/2-y,-z
1/2+x,1/2-y,1/2+z
loop_
_atom_site_type_symbol
_atom_site_label
_atom_site_fract_x
_atom_site_fract_y
_atom_site_fract_z
Si Si1 0.196957 0.236831 0.741985
Si Si2 0.500000 0.478750 0.250000
Si Si3 0.646491 0.631313 0.590878
Si Si4 0.691719 0.320459 0.437242
Si Si5 0.811377 0.422657 0.730072
Si Si6 0.315456 0.978869 0.524744
O O1 0.248571 0.197223 0.833651
O O2 0.229824 0.331007 0.744541
O O3 0.000000 0.232640 0.750000
O O4 0.747123 0.189911 0.849333
O O5 0.444597 0.424226 0.333507
O O6 0.339168 0.526714 0.225951
O O7 0.504454 0.681287 0.550370
O O8 0.728928 0.565833 0.524878
O O9 0.750000 0.250000 0.500000
O O10 0.749224 0.408700 0.464144
O O11 0.801543 0.441470 0.624779
O O12 0.000000 0.439871 0.750000
O O13 0.500000 0.000000 0.500000
#
# Coordination Sequence:
#
# PCOD9274924 Si02
#       6
#     8   4   8   8   8   8
#     4   9  18  39  66  85 119 172 212 259 320 380
#     4  10  20  38  66  94 116 170 222 258 320 370
#     4  10  21  42  66  87 124 174 218 263 322 393
#     4  11  20  39  63  90 125 168 210 263 327 386
#     4  10  22  40  64  92 130 164 217 267 315 388
#     4  11  25  39  58  99 130 163 209 268 342 376
#
# _framework density 21.439620000000001
#
# number of rings (size 3 to 8) (size 9 to 14) (size 15 to 20)
#    0.000    1.818    4.545    0.545    2.545    0.000 
#    3.273    0.909    0.000    0.000    0.000    0.000 
#    0.000    0.000    0.000    0.000    0.000    0.000 
#
# Total GULP energy -122753.984320 kJ/mol
# GULP energy per Si atom -5579.726560 kJ/mol
# Density = 2.139082 g / cm^3
# Si number density = 21.439620 Si / 1000 Ang^3
#
#
#
# Elastic Constant Matrix: (Units=GPa)
#
#
# Indices 1 2 3 4 5 6 
#
# 1 63.3762 38.1441 20.7553 0.0000 11.1941 0.0000
# 2 38.1441 121.5870 30.7346 0.0000 12.2062 0.0000
# 3 20.7553 30.7346 33.9718 0.0000 21.9709 0.0000
# 4 0.0000 0.0000 0.0000 25.0671 0.0000 20.0189
# 5 11.1941 12.2062 21.9709 0.0000 35.1474 0.0000
# 6 0.0000 0.0000 0.0000 20.0189 0.0000 43.7153
#
#
#
# Elastic Compliance Matrix: (Units=1/GPa)
#
#
# Indices 1 2 3 4 5 6 
#
# 1 0.021424 -0.004369 -0.009577 0.000000 0.000680 0.000000
# 2 -0.004369 0.011883 -0.010597 0.000000 0.003889 0.000000
# 3 -0.009577 -0.010597 0.068021 0.000000 -0.035790 0.000000
# 4 0.000000 0.000000 0.000000 0.062894 0.000000 -0.028802
# 5 0.000680 0.003889 -0.035790 0.000000 0.049257 0.000000
# 6 0.000000 0.000000 0.000000 -0.028802 0.000000 0.036065
#
#
# Mechanical properties :
#
#
# Convention : Reuss Voigt Hill
#
# Bulk Modulus (GPa) = 19.14094 44.24478 31.69286
# Shear Modulus (GPa) = 15.82054 29.40604 22.61329
#
# Velocity S-wave (km/s) = 2.71940 3.70750 3.25120
# Velocity P-wave (km/s) = 4.33675 6.24573 5.37664
#
# Compressibility (1/GPa) = 0.05224403
#
# Stress axis : x y z
#
# Youngs Moduli (GPa) = 46.67579 84.15125 14.70129
#
# Poissons Ratio (x) = 0.36763 0.14079
# Poissons Ratio (y) = 0.20391 0.15579
# Poissons Ratio (z) = 0.44701 0.89174
#
# Static dielectric constant tensor:
#      x y z
#    x 1.795090 0.000000 0.019640 
#    y 0.000000 1.757010 0.000000 
#    z 0.019640 0.000000 1.819140 
# 
# From -- ./inp_files/188834.got.cif
#   From: 2010.05.17/outbox.cif.g08.bks.cpg/sg15_95_cif.got.tgz:188834.got - 2010.06.03 18:47:42.
