data_PCOD9274436
_publ_section_title
;
Structure prediction by ZEFSAII (Michael W. Deem and Ramdas Pophale) SiO2 
 PCOD9274436
Probable space group: C 2/C
;
_chemical_formula_sum "Si O2"
_cell_formula_units_Z 48
_cell_length_a 19.773440
_cell_length_b 8.433249
_cell_length_c 18.828623
_cell_angle_alpha 90.000000
_cell_angle_beta 132.011021
_cell_angle_gamma 90.000000
_cell_volume 2332.888271
_symmetry_space_group_name_H-M "C 2/C"
_symmetry_group_IT_number 15
_symmetry_cell_setting 'monoclinic'
loop_
_space_group_symop_operation_xyz
x,y,z
-x,y,1/2-z
-x,-y,-z
x,-y,1/2+z
1/2+x,1/2+y,z
1/2-x,1/2+y,1/2-z
1/2-x,1/2-y,-z
1/2+x,1/2-y,1/2+z
loop_
_atom_site_type_symbol
_atom_site_label
_atom_site_fract_x
_atom_site_fract_y
_atom_site_fract_z
Si Si1 0.761986 0.376976 0.186708
Si Si2 0.074460 0.564514 0.257321
Si Si3 0.544509 0.080501 0.461794
Si Si4 0.720235 0.868100 0.542895
Si Si5 0.307771 0.685244 0.607039
Si Si6 0.173571 0.797853 0.631399
O O1 0.835937 0.460120 0.188114
O O2 0.716239 0.236682 0.111001
O O3 0.817929 0.302551 0.290988
O O4 0.690922 0.516193 0.156762
O O5 0.099191 0.719314 0.321452
O O6 0.000000 0.470823 0.250000
O O7 0.033035 0.603796 0.151563
O O8 0.589084 0.242402 0.523807
O O9 0.500000 0.000000 0.500000
O O10 0.626507 0.974081 0.483072
O O11 0.750000 0.750000 0.500000
O O12 0.801337 0.997441 0.600373
O O13 0.250000 0.750000 0.500000
O O14 0.258299 0.736553 0.644542
#
# Coordination Sequence:
#
# PCOD9274436 Si02
#       6
#     8   8   8   8   8   8
#     4  11  22  39  66  93 123 174 219 261 316 400
#     4  11  22  39  66  95 131 169 213 270 334 383
#     4  11  22  41  63  96 132 173 213 278 339 383
#     4  11  23  41  66  92 129 169 222 269 327 403
#     4  10  21  39  65  91 119 167 214 255 317 395
#     4  10  20  38  63  89 126 166 220 256 321 392
#
# _framework density 20.575354000000001
#
# number of rings (size 3 to 8) (size 9 to 14) (size 15 to 20)
#    0.000    1.333    1.667    7.000    2.333    0.000 
#    0.000    5.000    3.667    0.000    0.000    0.000 
#    0.000    0.000    0.000    0.000    0.000    0.000 
#
# Total GULP energy -133772.517456 kJ/mol
# GULP energy per Si atom -5573.854894 kJ/mol
# Density = 2.052852 g / cm^3
# Si number density = 20.575354 Si / 1000 Ang^3
#
#
#
# Elastic Constant Matrix: (Units=GPa)
#
#
# Indices 1 2 3 4 5 6 
#
# 1 57.9308 2.4256 -10.2318 0.0000 -1.8344 0.0000
# 2 2.4256 125.4560 44.8298 0.0000 0.8244 0.0000
# 3 -10.2318 44.8298 108.8743 0.0000 4.2508 0.0000
# 4 0.0000 0.0000 0.0000 25.6060 0.0000 -10.2451
# 5 -1.8344 0.8244 4.2508 0.0000 32.9767 0.0000
# 6 0.0000 0.0000 0.0000 -10.2451 0.0000 20.2439
#
#
#
# Elastic Compliance Matrix: (Units=1/GPa)
#
#
# Indices 1 2 3 4 5 6 
#
# 1 0.017699 -0.001092 0.002084 0.000000 0.000743 0.000000
# 2 -0.001092 0.009416 -0.003988 0.000000 0.000218 0.000000
# 3 0.002084 -0.003988 0.011070 0.000000 -0.001211 0.000000
# 4 0.000000 0.000000 0.000000 0.048969 0.000000 0.024783
# 5 0.000743 0.000218 -0.001211 0.000000 0.030516 0.000000
# 6 0.000000 0.000000 0.000000 0.024783 0.000000 0.061940
#
#
# Mechanical properties :
#
#
# Convention : Reuss Voigt Hill
#
# Bulk Modulus (GPa) = 31.06247 40.70092 35.88169
# Shear Modulus (GPa) = 25.46691 32.78117 29.12404
#
# Velocity S-wave (km/s) = 3.52197 3.99585 3.76637
# Velocity P-wave (km/s) = 5.62750 6.41198 6.03250
#
# Compressibility (1/GPa) = 0.03219319
#
# Stress axis : x y z
#
# Youngs Moduli (GPa) = 56.49954 106.20591 90.33295
#
# Poissons Ratio (x) = 0.11595 -0.18824
# Poissons Ratio (y) = 0.06168 0.36025
# Poissons Ratio (z) = -0.11774 0.42356
#
# Static dielectric constant tensor:
#      x y z
#    x 1.810550 0.000000 0.019990 
#    y 0.000000 1.803430 0.000000 
#    z 0.019990 0.000000 1.753670 
# 
# From -- ./inp_files/214078.got.cif
#   From: 2010.05.17/outbox.cif.g08.bks.cpg/sg15_108_cif.got.tgz:214078.got - 2010.06.03 18:47:42.
