data_PCOD9274847
_publ_section_title
;
Structure prediction by ZEFSAII (Michael W. Deem and Ramdas Pophale) SiO2 
 PCOD9274847
Probable space group: C 2/C
;
_chemical_formula_sum "Si O2"
_cell_formula_units_Z 52
_cell_length_a 11.083933
_cell_length_b 25.769798
_cell_length_c 8.767973
_cell_angle_alpha 90.000000
_cell_angle_beta 113.417881
_cell_angle_gamma 90.000000
_cell_volume 2298.116365
_symmetry_space_group_name_H-M "C 2/C"
_symmetry_group_IT_number 15
_symmetry_cell_setting 'monoclinic'
loop_
_space_group_symop_operation_xyz
x,y,z
-x,y,1/2-z
-x,-y,-z
x,-y,1/2+z
1/2+x,1/2+y,z
1/2-x,1/2+y,1/2-z
1/2-x,1/2-y,-z
1/2+x,1/2-y,1/2+z
loop_
_atom_site_type_symbol
_atom_site_label
_atom_site_fract_x
_atom_site_fract_y
_atom_site_fract_z
Si Si1 0.353485 0.515358 0.379889
Si Si2 0.500000 0.700336 0.250000
Si Si3 0.832520 0.170263 0.543920
Si Si4 0.975209 0.370778 0.056920
Si Si5 0.923634 0.732801 0.977423
Si Si6 0.257179 0.071208 0.881770
Si Si7 0.191697 0.117791 0.304412
O O1 0.500000 0.500000 0.500000
O O2 0.271807 0.538758 0.480046
O O3 0.278781 0.465975 0.274421
O O4 0.364623 0.561349 0.261221
O O5 0.582153 0.740854 0.190619
O O6 0.606559 0.657972 0.364284
O O7 0.942858 0.214212 0.580566
O O8 0.706672 0.202971 0.536926
O O9 0.839858 0.121048 0.657540
O O10 0.804987 0.146007 0.361311
O O11 0.000000 0.365143 0.250000
O O12 0.973307 0.313608 0.977509
O O13 0.095749 0.405382 0.053742
O O14 0.833242 0.392426 0.947090
#
# Coordination Sequence:
#
# PCOD9274847 Si02
#       7
#     8   4   8   8   8   8   8
#     4  11  25  46  74 101 136 182 231 290 352 420
#     4  10  20  38  66 102 132 178 230 284 348 408
#     4   8  18  40  66  94 135 180 229 275 342 422
#     4  11  24  43  68 102 142 181 234 288 343 425
#     4   9  17  37  67  96 137 175 226 276 343 411
#     4  10  24  43  71 100 140 181 233 288 350 415
#     4  10  24  41  68  95 138 184 226 290 353 410
#
# _framework density 22.627227999999999
#
# number of rings (size 3 to 8) (size 9 to 14) (size 15 to 20)
#    0.000    2.154    0.769    0.462    4.308    6.769 
#    0.000    1.538   50.769    0.000    0.000    0.000 
#    0.000    0.000    0.000    0.000    0.000    0.000 
#
# Total GULP energy -144924.939508 kJ/mol
# GULP energy per Si atom -5574.036135 kJ/mol
# Density = 2.257573 g / cm^3
# Si number density = 22.627228 Si / 1000 Ang^3
#
#
#
# Elastic Constant Matrix: (Units=GPa)
#
#
# Indices 1 2 3 4 5 6 
#
# 1 83.3262 47.0138 31.7841 0.0000 5.3961 0.0000
# 2 47.0138 180.6945 53.8659 0.0000 3.9116 0.0000
# 3 31.7841 53.8659 67.6241 0.0000 16.2155 0.0000
# 4 0.0000 0.0000 0.0000 14.4265 0.0000 -22.3393
# 5 5.3961 3.9116 16.2155 0.0000 31.7692 0.0000
# 6 0.0000 0.0000 0.0000 -22.3393 0.0000 -87.5310
#
#
#
# Elastic Compliance Matrix: (Units=1/GPa)
#
#
# Indices 1 2 3 4 5 6 
#
# 1 0.015397 -0.002395 -0.005439 0.000000 0.000456 0.000000
# 2 -0.002395 0.007786 -0.005634 0.000000 0.002324 0.000000
# 3 -0.005439 -0.005634 0.024434 0.000000 -0.010854 0.000000
# 4 0.000000 0.000000 0.000000 0.049682 0.000000 -0.012680
# 5 0.000456 0.002324 -0.010854 0.000000 0.036654 0.000000
# 6 0.000000 0.000000 0.000000 -0.012680 0.000000 -0.008188
#
#
# Mechanical properties :
#
#
# Convention : Reuss Voigt Hill
#
# Bulk Modulus (GPa) = 48.34796 66.33026 57.33911
# Shear Modulus (GPa) = 31.32940 4.99834 18.16387
#
# Velocity S-wave (km/s) = 3.72504 1.48788 2.83635
# Velocity P-wave (km/s) = 6.31782 5.68592 6.01018
#
# Compressibility (1/GPa) = 0.02068340
#
# Stress axis : x y z
#
# Youngs Moduli (GPa) = 64.94705 128.42799 40.92619
#
# Poissons Ratio (x) = 0.30754 0.22258
# Poissons Ratio (y) = 0.15553 0.23058
# Poissons Ratio (z) = 0.35322 0.72356
#
# Static dielectric constant tensor:
#      x y z
#    x 1.906200 0.000000 -0.087430 
#    y 0.000000 1.860410 0.000000 
#    z -0.087430 0.000000 1.859270 
# 
# From -- ./inp_files/34421.got.cif
#   From: 2010.05.17/outbox.cif.g08.bks.cpg/sg15_18_cif.got.tgz:34421.got - 2010.06.03 18:47:42.
