data_PCOD9274203
_publ_section_title
;
Structure prediction by ZEFSAII (Michael W. Deem and Ramdas Pophale) SiO2 
 PCOD9274203
Probable space group: C 2/C
;
_chemical_formula_sum "Si O2"
_cell_formula_units_Z 48
_cell_length_a 16.375991
_cell_length_b 7.970333
_cell_length_c 25.169220
_cell_angle_alpha 90.000000
_cell_angle_beta 34.177389
_cell_angle_gamma 90.000000
_cell_volume 1845.449899
_symmetry_space_group_name_H-M "C 2/C"
_symmetry_group_IT_number 15
_symmetry_cell_setting 'monoclinic'
loop_
_space_group_symop_operation_xyz
x,y,z
-x,y,1/2-z
-x,-y,-z
x,-y,1/2+z
1/2+x,1/2+y,z
1/2-x,1/2+y,1/2-z
1/2-x,1/2-y,-z
1/2+x,1/2-y,1/2+z
loop_
_atom_site_type_symbol
_atom_site_label
_atom_site_fract_x
_atom_site_fract_y
_atom_site_fract_z
Si Si1 0.548135 0.628942 0.143054
Si Si2 0.427836 0.703118 0.480093
Si Si3 0.735643 0.401801 0.649811
Si Si4 0.242470 0.731780 0.193627
Si Si5 0.534780 0.247284 0.104491
Si Si6 0.734660 0.878441 0.587867
O O1 0.592706 0.751143 0.070887
O O2 0.390575 0.689524 0.248299
O O3 0.652865 0.595887 0.136666
O O4 0.537592 0.441489 0.123445
O O5 0.387510 0.825862 0.549502
O O6 0.597474 0.654015 0.389963
O O7 0.312945 0.555238 0.550439
O O8 0.759157 0.573203 0.669242
O O9 0.167780 0.662711 0.180448
O O10 0.134729 0.701884 0.300883
O O11 0.622822 0.139661 0.100231
O O12 0.633382 0.250640 0.999002
#
# Coordination Sequence:
#
# PCOD9274203 Si02
#       6
#     8   8   8   8   8   8
#     4   9  19  39  63  82 119 166 217 253 290 381
#     4  11  23  36  58  95 129 148 197 275 323 350
#     4  10  20  39  63  85 118 172 211 241 308 386
#     4  11  21  38  61  89 123 166 205 251 314 384
#     4   9  19  38  65  84 110 172 218 244 296 384
#     4  10  20  38  62  86 119 156 208 260 303 362
#
# _framework density 26.009917000000002
#
# number of rings (size 3 to 8) (size 9 to 14) (size 15 to 20)
#    0.000    2.000    1.667    2.000    0.000    1.333 
#    6.000    3.333    0.000    0.000    0.000    0.000 
#    0.000    0.000    0.000    0.000    0.000    0.000 
#
# Total GULP energy -134041.441455 kJ/mol
# GULP energy per Si atom -5585.060061 kJ/mol
# Density = 2.595072 g / cm^3
# Si number density = 26.009917 Si / 1000 Ang^3
#
#
#
# Elastic Constant Matrix: (Units=GPa)
#
#
# Indices 1 2 3 4 5 6 
#
# 1 71.1226 11.5241 7.7959 0.0000 -13.6579 0.0000
# 2 11.5241 52.4237 24.2023 0.0000 -0.0970 -0.0001
# 3 7.7959 24.2023 146.0120 -0.0001 -0.1255 0.0000
# 4 0.0000 0.0000 -0.0001 22.8839 0.0000 -0.2823
# 5 -13.6579 -0.0970 -0.1255 0.0000 48.4746 0.0000
# 6 0.0000 -0.0001 0.0000 -0.2823 0.0000 23.3122
#
#
#
# Elastic Compliance Matrix: (Units=1/GPa)
#
#
# Indices 1 2 3 4 5 6 
#
# 1 0.015454 -0.003259 -0.000281 0.000000 0.004347 0.000000
# 2 -0.003259 0.021343 -0.003365 0.000000 -0.000884 0.000000
# 3 -0.000281 -0.003365 0.007421 0.000000 -0.000067 0.000000
# 4 0.000000 0.000000 0.000000 0.043705 0.000000 0.000529
# 5 0.004347 -0.000884 -0.000067 0.000000 0.021852 0.000000
# 6 0.000000 0.000000 0.000000 0.000529 0.000000 0.042902
#
#
# Mechanical properties :
#
#
# Convention : Reuss Voigt Hill
#
# Bulk Modulus (GPa) = 32.88524 39.62254 36.25389
# Shear Modulus (GPa) = 28.30853 34.00320 31.15587
#
# Velocity S-wave (km/s) = 3.30263 3.61961 3.46475
# Velocity P-wave (km/s) = 5.21670 5.72149 5.47492
#
# Compressibility (1/GPa) = 0.03040878
#
# Stress axis : x y z
#
# Youngs Moduli (GPa) = 64.70847 46.85268 134.74560
#
# Poissons Ratio (x) = 0.15271 0.03788
# Poissons Ratio (y) = 0.21091 0.45336
# Poissons Ratio (z) = 0.01819 0.15764
#
# Static dielectric constant tensor:
#      x y z
#    x 2.070740 0.000000 -0.029730 
#    y 0.000000 2.096610 0.000000 
#    z -0.029730 0.000000 2.068170 
# 
# From -- ./inp_files/315627.got.cif
#   From: 2010.05.17/outbox.cif.g08.bks.cpg/sg15_158_cif.got.tgz:315627.got - 2010.06.03 18:47:42.
