data_PCOD9274469
_publ_section_title
;
Structure prediction by ZEFSAII (Michael W. Deem and Ramdas Pophale) SiO2 
 PCOD9274469
Probable space group: C 2/C
;
_chemical_formula_sum "Si O2"
_cell_formula_units_Z 48
_cell_length_a 6.414511
_cell_length_b 23.658307
_cell_length_c 19.652996
_cell_angle_alpha 90.000000
_cell_angle_beta 58.804052
_cell_angle_gamma 90.000000
_cell_volume 2551.206910
_symmetry_space_group_name_H-M "C 2/C"
_symmetry_group_IT_number 15
_symmetry_cell_setting 'monoclinic'
loop_
_space_group_symop_operation_xyz
x,y,z
-x,y,1/2-z
-x,-y,-z
x,-y,1/2+z
1/2+x,1/2+y,z
1/2-x,1/2+y,1/2-z
1/2-x,1/2-y,-z
1/2+x,1/2-y,1/2+z
loop_
_atom_site_type_symbol
_atom_site_label
_atom_site_fract_x
_atom_site_fract_y
_atom_site_fract_z
Si Si1 0.493558 0.786389 0.948356
Si Si2 0.997641 0.924708 0.547607
Si Si3 0.497474 0.772614 0.332077
Si Si4 0.814332 0.670798 0.337214
Si Si5 0.257389 0.531839 0.954716
Si Si6 0.989101 0.626412 0.574439
O O1 0.733344 0.747659 0.904315
O O2 0.460875 0.816135 0.881225
O O3 0.250000 0.750000 0.000000
O O4 0.504770 0.831132 0.007353
O O5 0.251107 0.905555 0.469703
O O6 0.894213 0.873897 0.609488
O O7 0.813733 0.939368 0.517737
O O8 0.047074 0.981327 0.582968
O O9 0.500000 0.771542 0.250000
O O10 0.692001 0.727888 0.328853
O O11 0.547925 0.834416 0.354034
O O12 0.000000 0.648019 0.250000
O O13 0.222884 0.580980 0.905182
O O14 0.000000 0.500000 0.000000
#
# Coordination Sequence:
#
# PCOD9274469 Si02
#       6
#     8   8   8   8   8   8
#     4  12  22  36  61  93 123 161 209 252 302 371
#     4  10  20  38  63  92 118 155 210 267 305 362
#     4  12  25  39  56  94 135 165 199 251 319 383
#     4  12  23  38  60  93 128 164 200 258 322 375
#     4   9  20  37  63  91 113 150 212 262 306 356
#     4  11  21  36  64  91 119 159 210 254 302 373
#
# _framework density 18.814624999999999
#
# number of rings (size 3 to 8) (size 9 to 14) (size 15 to 20)
#    0.000    1.000    6.667    1.500    0.000    0.000 
#    0.000    0.000    0.000   11.000    0.000    0.000 
#    0.000    0.000    0.000    0.000    0.000    0.000 
#
# Total GULP energy -134009.900292 kJ/mol
# GULP energy per Si atom -5583.745846 kJ/mol
# Density = 1.877180 g / cm^3
# Si number density = 18.814625 Si / 1000 Ang^3
#
#
#
# Elastic Constant Matrix: (Units=GPa)
#
#
# Indices 1 2 3 4 5 6 
#
# 1 76.4305 23.4282 5.3440 0.0000 11.3904 0.0000
# 2 23.4282 100.5236 10.7347 0.0000 10.4940 0.0000
# 3 5.3440 10.7347 36.5089 0.0000 14.0794 0.0000
# 4 0.0000 0.0000 0.0000 12.4166 0.0000 10.2713
# 5 11.3904 10.4940 14.0794 0.0000 28.7053 0.0000
# 6 0.0000 0.0000 0.0000 10.2713 0.0000 49.7679
#
#
#
# Elastic Compliance Matrix: (Units=1/GPa)
#
#
# Indices 1 2 3 4 5 6 
#
# 1 0.014704 -0.002969 0.000681 0.000000 -0.005083 0.000000
# 2 -0.002969 0.011056 -0.002111 0.000000 -0.001828 0.000000
# 3 0.000681 -0.002111 0.034184 0.000000 -0.016265 0.000000
# 4 0.000000 0.000000 0.000000 0.097118 0.000000 -0.020044
# 5 -0.005083 -0.001828 -0.016265 0.000000 0.045500 0.000000
# 6 0.000000 0.000000 0.000000 -0.020044 0.000000 0.024230
#
#
# Mechanical properties :
#
#
# Convention : Reuss Voigt Hill
#
# Bulk Modulus (GPa) = 19.55194 32.49741 26.02467
# Shear Modulus (GPa) = 19.79112 29.77503 24.78307
#
# Velocity S-wave (km/s) = 3.24682 3.98244 3.63330
# Velocity P-wave (km/s) = 4.94674 6.20132 5.60921
#
# Compressibility (1/GPa) = 0.05114583
#
# Stress axis : x y z
#
# Youngs Moduli (GPa) = 68.00978 90.44723 29.25330
#
# Poissons Ratio (x) = 0.26853 -0.01992
# Poissons Ratio (y) = 0.20192 0.06176
# Poissons Ratio (z) = -0.04631 0.19095
#
# Static dielectric constant tensor:
#      x y z
#    x 1.679690 0.000000 0.011140 
#    y 0.000000 1.680880 0.000000 
#    z 0.011140 0.000000 1.621480 
# 
# From -- ./inp_files/185213.got.cif
#   From: 2010.05.17/outbox.cif.g08.bks.cpg/sg15_93_cif.got.tgz:185213.got - 2010.06.03 18:47:42.
