data_PCOD9274951
_publ_section_title
;
Structure prediction by ZEFSAII (Michael W. Deem and Ramdas Pophale) SiO2 
 PCOD9274951
Probable space group: C 2/C
;
_chemical_formula_sum "Si O2"
_cell_formula_units_Z 64
_cell_length_a 28.214410
_cell_length_b 8.864384
_cell_length_c 12.760529
_cell_angle_alpha 90.000000
_cell_angle_beta 80.699633
_cell_angle_gamma 90.000000
_cell_volume 3149.498593
_symmetry_space_group_name_H-M "C 2/C"
_symmetry_group_IT_number 15
_symmetry_cell_setting 'monoclinic'
loop_
_space_group_symop_operation_xyz
x,y,z
-x,y,1/2-z
-x,-y,-z
x,-y,1/2+z
1/2+x,1/2+y,z
1/2-x,1/2+y,1/2-z
1/2-x,1/2-y,-z
1/2+x,1/2-y,1/2+z
loop_
_atom_site_type_symbol
_atom_site_label
_atom_site_fract_x
_atom_site_fract_y
_atom_site_fract_z
Si Si1 0.401371 0.397874 0.412504
Si Si2 0.915855 0.300895 0.202555
Si Si3 0.165362 0.180286 0.750126
Si Si4 0.916202 0.259642 0.438760
Si Si5 0.851311 0.543397 0.108616
Si Si6 0.660817 0.393042 0.863456
Si Si7 0.236299 0.319946 0.393910
Si Si8 0.511839 0.322213 0.993172
O O1 0.379002 0.347873 0.311419
O O2 0.407945 0.579542 0.420824
O O3 0.363553 0.353888 0.517081
O O4 0.450550 0.310587 0.424620
O O5 0.927338 0.328525 0.319828
O O6 0.892822 0.438288 0.144790
O O7 0.872897 0.178151 0.213088
O O8 0.959113 0.226889 0.121422
O O9 0.166445 0.348634 0.791635
O O10 0.214208 0.130761 0.675857
O O11 0.160526 0.070253 0.850351
O O12 0.873930 0.354404 0.508440
O O13 0.961586 0.264028 0.502324
O O14 0.805824 0.444433 0.087278
O O15 0.712221 0.316689 0.837991
O O16 0.250000 0.250000 0.500000
O O17 0.500000 0.500000 0.000000
#
# Coordination Sequence:
#
# PCOD9274951 Si02
#       8
#     8   8   8   8   8   8   8   8
#     4  10  20  38  66  96 123 175 220 272 330 402
#     4  10  22  39  64  94 134 178 217 271 343 391
#     4  12  22  42  66  93 132 170 225 283 337 402
#     4  11  21  42  66  94 136 173 225 281 335 398
#     4  11  27  41  65 102 133 173 227 288 341 406
#     4  10  20  40  60  89 128 166 220 265 332 405
#     4  11  24  42  64  92 127 177 220 275 349 408
#     4   9  21  39  67  99 130 172 229 267 316 409
#
# _framework density 20.320695000000001
#
# number of rings (size 3 to 8) (size 9 to 14) (size 15 to 20)
#    0.000    1.500    3.750    1.125    1.750    0.500 
#    0.000    3.125    0.000    0.000    0.000    0.000 
#    0.000    0.000    0.000    0.000    0.000    0.000 
#
# Total GULP energy -178455.882830 kJ/mol
# GULP energy per Si atom -5576.746338 kJ/mol
# Density = 2.027444 g / cm^3
# Si number density = 20.320695 Si / 1000 Ang^3
#
#
#
# Elastic Constant Matrix: (Units=GPa)
#
#
# Indices 1 2 3 4 5 6 
#
# 1 106.6597 37.8152 35.2923 0.0000 18.3561 0.0000
# 2 37.8152 83.7075 36.3491 0.0000 9.1402 0.0000
# 3 35.2923 36.3491 62.3730 0.0000 7.0918 0.0000
# 4 0.0000 0.0000 0.0000 29.8523 0.0000 -4.1612
# 5 18.3561 9.1402 7.0918 0.0000 22.5928 0.0000
# 6 0.0000 0.0000 0.0000 -4.1612 0.0000 27.8288
#
#
#
# Elastic Compliance Matrix: (Units=1/GPa)
#
#
# Indices 1 2 3 4 5 6 
#
# 1 0.013500 -0.003069 -0.004920 0.000000 -0.008182 0.000000
# 2 -0.003069 0.016991 -0.007951 0.000000 -0.001885 0.000000
# 3 -0.004920 -0.007951 0.023467 0.000000 -0.000152 0.000000
# 4 0.000000 0.000000 0.000000 0.034211 0.000000 0.005116
# 5 -0.008182 -0.001885 -0.000152 0.000000 0.051720 0.000000
# 6 0.000000 0.000000 0.000000 0.005116 0.000000 0.036699
#
#
# Mechanical properties :
#
#
# Convention : Reuss Voigt Hill
#
# Bulk Modulus (GPa) = 45.29246 52.40592 48.84919
# Shear Modulus (GPa) = 23.16660 25.60703 24.38681
#
# Velocity S-wave (km/s) = 3.38012 3.55370 3.46800
# Velocity P-wave (km/s) = 6.12951 6.53329 6.33462
#
# Compressibility (1/GPa) = 0.02207873
#
# Stress axis : x y z
#
# Youngs Moduli (GPa) = 74.07585 58.85380 42.61221
#
# Poissons Ratio (x) = 0.18061 0.20964
# Poissons Ratio (y) = 0.22732 0.33882
# Poissons Ratio (z) = 0.36444 0.46797
#
# Static dielectric constant tensor:
#      x y z
#    x 1.766850 0.000000 0.022900 
#    y 0.000000 1.759860 0.000000 
#    z 0.022900 0.000000 1.747050 
# 
# From -- ./inp_files/125913.got.cif
#   From: 2010.05.17/outbox.cif.g08.bks.cpg/sg15_63_cif.got.tgz:125913.got - 2010.06.03 18:47:42.
