data_PCOD9274845
_publ_section_title
;
Structure prediction by ZEFSAII (Michael W. Deem and Ramdas Pophale) SiO2 
 PCOD9274845
Probable space group: C 2/C
;
_chemical_formula_sum "Si O2"
_cell_formula_units_Z 44
_cell_length_a 28.415409
_cell_length_b 9.704999
_cell_length_c 8.736455
_cell_angle_alpha 90.000000
_cell_angle_beta 44.944377
_cell_angle_gamma 90.000000
_cell_volume 1701.953257
_symmetry_space_group_name_H-M "C 2/C"
_symmetry_group_IT_number 15
_symmetry_cell_setting 'monoclinic'
loop_
_space_group_symop_operation_xyz
x,y,z
-x,y,1/2-z
-x,-y,-z
x,-y,1/2+z
1/2+x,1/2+y,z
1/2-x,1/2+y,1/2-z
1/2-x,1/2-y,-z
1/2+x,1/2-y,1/2+z
loop_
_atom_site_type_symbol
_atom_site_label
_atom_site_fract_x
_atom_site_fract_y
_atom_site_fract_z
Si Si1 0.267279 0.688028 0.624594
Si Si2 0.750000 0.750000 0.500000
Si Si3 0.110530 0.155473 0.790236
Si Si4 0.580606 0.388467 0.700342
Si Si5 0.369212 0.075130 0.460068
Si Si6 0.055101 0.617446 0.904394
O O1 0.250000 0.750000 0.500000
O O2 0.262546 0.781688 0.787975
O O3 0.341731 0.635110 0.439237
O O4 0.205301 0.587521 0.808127
O O5 0.810865 0.867233 0.353500
O O6 0.118837 0.308322 0.698094
O O7 0.073759 0.142007 0.036813
O O8 0.075449 0.048241 0.757101
O O9 0.540865 0.273638 0.889649
O O10 0.419244 0.105850 0.482825
O O11 0.385739 0.931299 0.344483
O O12 0.000000 0.500000 0.000000
#
# Coordination Sequence:
#
# PCOD9274845 Si02
#       6
#     8   4   8   8   8   8
#     4  10  20  38  66 100 148 189 243 304 385 457
#     4   8  20  36  58 102 152 196 234 288 376 472
#     4  10  22  41  68 106 150 194 250 311 382 464
#     4  11  23  41  70 106 149 196 249 314 387 463
#     4  11  24  43  70 103 144 196 253 315 391 460
#     4  12  26  46  70 102 147 201 258 315 381 469
#
# _framework density 25.852650000000001
#
# number of rings (size 3 to 8) (size 9 to 14) (size 15 to 20)
#    0.000    1.455    1.818    2.727    2.545    8.727 
#    0.000    0.909    0.000    2.182    0.000    0.000 
#    0.000    0.000    0.000    0.000    0.000    0.000 
#
# Total GULP energy -122596.977325 kJ/mol
# GULP energy per Si atom -5572.589878 kJ/mol
# Density = 2.579381 g / cm^3
# Si number density = 25.852650 Si / 1000 Ang^3
#
#
#
# Elastic Constant Matrix: (Units=GPa)
#
#
# Indices 1 2 3 4 5 6 
#
# 1 121.5480 25.2259 30.0946 0.0000 26.5001 0.0000
# 2 25.2259 115.5075 33.1504 0.0000 -4.7244 0.0000
# 3 30.0946 33.1504 118.4540 0.0000 2.8041 0.0000
# 4 0.0000 0.0000 0.0000 46.7092 0.0000 -4.3152
# 5 26.5001 -4.7244 2.8041 0.0000 57.8404 0.0000
# 6 0.0000 0.0000 0.0000 -4.3152 0.0000 19.5118
#
#
#
# Elastic Compliance Matrix: (Units=1/GPa)
#
#
# Indices 1 2 3 4 5 6 
#
# 1 0.010113 -0.001843 -0.001943 0.000000 -0.004690 0.000000
# 2 -0.001843 0.009796 -0.002315 0.000000 0.001757 0.000000
# 3 -0.001943 -0.002315 0.009578 0.000000 0.000237 0.000000
# 4 0.000000 0.000000 0.000000 0.021856 0.000000 0.004834
# 5 -0.004690 0.001757 0.000237 0.000000 0.019570 0.000000
# 6 0.000000 0.000000 0.000000 0.004834 0.000000 0.052320
#
#
# Mechanical properties :
#
#
# Convention : Reuss Voigt Hill
#
# Bulk Modulus (GPa) = 57.84916 59.16123 58.50520
# Shear Modulus (GPa) = 35.41197 42.61487 39.01342
#
# Velocity S-wave (km/s) = 3.70504 4.06442 3.88889
# Velocity P-wave (km/s) = 6.38187 6.70520 6.54553
#
# Compressibility (1/GPa) = 0.01728634
#
# Stress axis : x y z
#
# Youngs Moduli (GPa) = 98.88140 102.08088 104.40725
#
# Poissons Ratio (x) = 0.18813 0.20282
# Poissons Ratio (y) = 0.18223 0.24169
# Poissons Ratio (z) = 0.19208 0.23631
#
# Static dielectric constant tensor:
#      x y z
#    x 2.098350 0.000000 -0.148530 
#    y 0.000000 2.085010 0.000000 
#    z -0.148530 0.000000 2.103740 
# 
# From -- ./inp_files/66812.got.cif
#   From: 2010.05.17/outbox.cif.g08.bks.cpg/sg15_34_cif.got.tgz:66812.got - 2010.06.03 18:47:42.
