data_PCOD9274880
_publ_section_title
;
Structure prediction by ZEFSAII (Michael W. Deem and Ramdas Pophale) SiO2 
 PCOD9274880
Probable space group: C 2/C
;
_chemical_formula_sum "Si O2"
_cell_formula_units_Z 52
_cell_length_a 15.936712
_cell_length_b 8.436383
_cell_length_c 18.497076
_cell_angle_alpha 90.000000
_cell_angle_beta 96.755346
_cell_angle_gamma 90.000000
_cell_volume 2469.633358
_symmetry_space_group_name_H-M "C 2/C"
_symmetry_group_IT_number 15
_symmetry_cell_setting 'monoclinic'
loop_
_space_group_symop_operation_xyz
x,y,z
-x,y,1/2-z
-x,-y,-z
x,-y,1/2+z
1/2+x,1/2+y,z
1/2-x,1/2+y,1/2-z
1/2-x,1/2-y,-z
1/2+x,1/2-y,1/2+z
loop_
_atom_site_type_symbol
_atom_site_label
_atom_site_fract_x
_atom_site_fract_y
_atom_site_fract_z
Si Si1 0.764294 0.981047 0.586804
Si Si2 0.134171 0.319072 0.342050
Si Si3 0.094703 0.062999 0.509434
Si Si4 0.146988 0.036401 0.678689
Si Si5 0.408732 0.064811 0.517968
Si Si6 0.260794 0.211399 0.780841
Si Si7 0.000000 0.121986 0.250000
O O1 0.796485 0.808409 0.619852
O O2 0.839647 0.021673 0.538198
O O3 0.673526 0.981281 0.537668
O O4 0.756827 0.103099 0.651787
O O5 0.115235 0.454354 0.399145
O O6 0.167117 0.360521 0.265158
O O7 0.048825 0.225217 0.314640
O O8 0.087508 0.245750 0.487342
O O9 0.131912 0.055039 0.593219
O O10 0.000000 0.000000 0.500000
O O11 0.210288 0.887259 0.696557
O O12 0.064502 0.983715 0.712548
O O13 0.179925 0.193335 0.721330
O O14 0.500000 0.000000 0.500000
#
# Coordination Sequence:
#
# PCOD9274880 Si02
#       7
#     8   8   8   8   8   8   4
#     4  11  22  43  67  93 132 181 215 269 338 400
#     4  10  21  42  64  92 129 182 215 268 335 402
#     4  11  25  44  68  97 136 175 220 273 342 399
#     4  11  23  41  66  94 129 172 224 275 331 406
#     4  11  25  43  70  96 133 175 229 267 331 399
#     4  11  22  39  68  94 125 173 226 263 336 391
#     4  10  20  38  66  88 128 174 218 256 350 402
#
# _framework density 21.055757
#
# number of rings (size 3 to 8) (size 9 to 14) (size 15 to 20)
#    0.000    1.231    3.077    5.538    6.462    0.615 
#    2.769    0.000    0.000    0.923    0.000    0.000 
#    0.000    0.000    0.000    0.000    0.000    0.000 
#
# Total GULP energy -145099.516562 kJ/mol
# GULP energy per Si atom -5580.750637 kJ/mol
# Density = 2.100783 g / cm^3
# Si number density = 21.055757 Si / 1000 Ang^3
#
#
#
# Elastic Constant Matrix: (Units=GPa)
#
#
# Indices 1 2 3 4 5 6 
#
# 1 129.6843 29.0809 38.8780 0.0000 16.0656 0.0000
# 2 29.0809 35.2740 15.6381 0.0000 -8.4090 0.0000
# 3 38.8780 15.6381 121.1849 0.0000 3.4247 0.0000
# 4 0.0000 0.0000 0.0000 23.6857 0.0000 -6.8274
# 5 16.0656 -8.4090 3.4247 0.0000 26.5157 0.0000
# 6 0.0000 0.0000 0.0000 -6.8274 0.0000 35.5506
#
#
#
# Elastic Compliance Matrix: (Units=1/GPa)
#
#
# Indices 1 2 3 4 5 6 
#
# 1 0.012373 -0.011878 -0.002126 0.000000 -0.010989 0.000000
# 2 -0.011878 0.044416 -0.002532 0.000000 0.021610 0.000000
# 3 -0.002126 -0.002532 0.009281 0.000000 -0.000713 0.000000
# 4 0.000000 0.000000 0.000000 0.044694 0.000000 0.008583
# 5 -0.010989 0.021610 -0.000713 0.000000 0.051317 0.000000
# 6 0.000000 0.000000 0.000000 0.008583 0.000000 0.029777
#
#
# Mechanical properties :
#
#
# Convention : Reuss Voigt Hill
#
# Bulk Modulus (GPa) = 30.30456 50.37081 40.33769
# Shear Modulus (GPa) = 21.19276 30.65349 25.92313
#
# Velocity S-wave (km/s) = 3.17599 3.81967 3.51260
# Velocity P-wave (km/s) = 5.27949 6.58997 5.97079
#
# Compressibility (1/GPa) = 0.03299834
#
# Stress axis : x y z
#
# Youngs Moduli (GPa) = 80.81837 22.51441 107.74906
#
# Poissons Ratio (x) = 0.26743 0.22910
# Poissons Ratio (y) = 0.95997 0.27278
# Poissons Ratio (z) = 0.17184 0.05700
#
# Static dielectric constant tensor:
#      x y z
#    x 1.831860 0.000000 0.045800 
#    y 0.000000 1.766920 0.000000 
#    z 0.045800 0.000000 2.060220 
# 
# From -- ./inp_files/242517.got.cif
#   From: 2010.05.17/outbox.cif.g08.bks.cpg/sg15_122_cif.got.tgz:242517.got - 2010.06.03 18:47:42.
