data_PCOD9274068
_publ_section_title
;
Structure prediction by ZEFSAII (Michael W. Deem and Ramdas Pophale) SiO2 
 PCOD9274068
Probable space group: C 2/C
;
_chemical_formula_sum "Si O2"
_cell_formula_units_Z 36
_cell_length_a 16.098363
_cell_length_b 9.084956
_cell_length_c 9.261343
_cell_angle_alpha 90.000000
_cell_angle_beta 78.532488
_cell_angle_gamma 90.000000
_cell_volume 1327.459403
_symmetry_space_group_name_H-M "C 2/C"
_symmetry_group_IT_number 15
_symmetry_cell_setting 'monoclinic'
loop_
_space_group_symop_operation_xyz
x,y,z
-x,y,1/2-z
-x,-y,-z
x,-y,1/2+z
1/2+x,1/2+y,z
1/2-x,1/2+y,1/2-z
1/2-x,1/2-y,-z
1/2+x,1/2-y,1/2+z
loop_
_atom_site_type_symbol
_atom_site_label
_atom_site_fract_x
_atom_site_fract_y
_atom_site_fract_z
Si Si1 0.246582 0.645357 0.337308
Si Si2 0.089331 0.157648 0.372019
Si Si3 0.000000 0.603888 0.250000
Si Si4 0.162776 0.402390 0.556838
Si Si5 0.087310 0.815298 0.456153
O O1 0.345942 0.675257 0.283286
O O2 0.218714 0.497004 0.428133
O O3 0.215763 0.627670 0.181557
O O4 0.185611 0.768260 0.426797
O O5 0.128771 0.258230 0.486482
O O6 0.990081 0.196373 0.404138
O O7 0.090496 0.985292 0.409060
O O8 0.074454 0.519105 0.138878
O O9 0.050950 0.709187 0.341372
#
# Coordination Sequence:
#
# PCOD9274068 Si02
#       5
#     8   8   4   8   8
#     4  11  22  41  65  93 125 163 205 255 310 367
#     4  10  20  38  61  87 121 162 206 252 301 361
#     4   8  18  38  64  92 124 160 204 258 310 362
#     4  10  22  39  64  91 125 163 205 254 308 367
#     4   9  20  37  60  89 123 162 203 248 305 363
#
# _framework density 27.119471999999998
#
# number of rings (size 3 to 8) (size 9 to 14) (size 15 to 20)
#    0.000    2.222    0.000    2.000    0.000   11.556 
#    0.000   13.333    0.000    4.000    0.000    0.000 
#    0.000    0.000    0.000    0.000    0.000    0.000 
#
# Total GULP energy -100821.470103 kJ/mol
# GULP energy per Si atom -5601.192783 kJ/mol
# Density = 2.705775 g / cm^3
# Si number density = 27.119472 Si / 1000 Ang^3
#
#
#
# Elastic Constant Matrix: (Units=GPa)
#
#
# Indices 1 2 3 4 5 6 
#
# 1 237.3187 60.4741 103.5224 0.0000 -60.3789 0.0000
# 2 60.4741 91.3397 46.3403 0.0000 -14.7571 0.0000
# 3 103.5224 46.3403 223.8175 0.0000 -66.7842 0.0000
# 4 0.0000 0.0000 0.0000 25.8355 0.0000 -8.4428
# 5 -60.3789 -14.7571 -66.7842 0.0000 60.9400 0.0000
# 6 0.0000 0.0000 0.0000 -8.4428 0.0000 -65.3949
#
#
#
# Elastic Compliance Matrix: (Units=1/GPa)
#
#
# Indices 1 2 3 4 5 6 
#
# 1 0.006657 -0.003126 -0.001025 0.000000 0.004716 0.000000
# 2 -0.003126 0.013704 -0.001970 0.000000 -0.001937 0.000000
# 3 -0.001025 -0.001970 0.007287 0.000000 0.006494 0.000000
# 4 0.000000 0.000000 0.000000 0.037140 0.000000 -0.004795
# 5 0.004716 -0.001937 0.006494 0.000000 0.027730 0.000000
# 6 0.000000 0.000000 0.000000 -0.004795 0.000000 -0.014673
#
#
# Mechanical properties :
#
#
# Convention : Reuss Voigt Hill
#
# Bulk Modulus (GPa) = 64.89974 108.12773 86.51373
# Shear Modulus (GPa) = 52.50934 27.08537 39.79735
#
# Velocity S-wave (km/s) = 4.40503 3.16372 3.83493
# Velocity P-wave (km/s) = 7.06083 7.30088 7.18186
#
# Compressibility (1/GPa) = 0.01540838
#
# Stress axis : x y z
#
# Youngs Moduli (GPa) = 150.21631 72.97198 137.22248
#
# Poissons Ratio (x) = 0.22809 0.14063
# Poissons Ratio (y) = 0.46953 0.27026
# Poissons Ratio (z) = 0.15394 0.14372
#
# Static dielectric constant tensor:
#      x y z
#    x 2.186410 0.000000 0.060680 
#    y 0.000000 2.024560 0.000000 
#    z 0.060680 0.000000 2.212150 
# 
# From -- ./inp_files/109516.got.cif
#   From: 2010.05.17/outbox.cif.g08.bks.cpg/sg15_55_cif.got.tgz:109516.got - 2010.06.03 18:47:42.
