data_PCOD9274518
_publ_section_title
;
Structure prediction by ZEFSAII (Michael W. Deem and Ramdas Pophale) SiO2 
 PCOD9274518
Probable space group: C 2/C
;
_chemical_formula_sum "Si O2"
_cell_formula_units_Z 48
_cell_length_a 16.541960
_cell_length_b 10.044987
_cell_length_c 11.503768
_cell_angle_alpha 90.000000
_cell_angle_beta 99.726230
_cell_angle_gamma 90.000000
_cell_volume 1884.033901
_symmetry_space_group_name_H-M "C 2/C"
_symmetry_group_IT_number 15
_symmetry_cell_setting 'monoclinic'
loop_
_space_group_symop_operation_xyz
x,y,z
-x,y,1/2-z
-x,-y,-z
x,-y,1/2+z
1/2+x,1/2+y,z
1/2-x,1/2+y,1/2-z
1/2-x,1/2-y,-z
1/2+x,1/2-y,1/2+z
loop_
_atom_site_type_symbol
_atom_site_label
_atom_site_fract_x
_atom_site_fract_y
_atom_site_fract_z
Si Si1 0.786081 0.563173 0.463006
Si Si2 0.500000 0.558608 0.250000
Si Si3 0.655109 0.606408 0.163377
Si Si4 0.000000 0.398430 0.750000
Si Si5 0.130626 0.838864 0.035349
Si Si6 0.177064 0.489218 0.760736
Si Si7 0.046304 0.174529 0.938532
O O1 0.837266 0.691494 0.433816
O O2 0.691202 0.604757 0.451957
O O3 0.813112 0.542693 0.603983
O O4 0.798558 0.455810 0.363051
O O5 0.579319 0.642226 0.228212
O O6 0.466165 0.454210 0.145141
O O7 0.644389 0.444612 0.143524
O O8 0.750159 0.624457 0.214667
O O9 0.628161 0.663915 0.032474
O O10 0.079448 0.474462 0.725071
O O11 0.037813 0.303249 0.857901
O O12 0.033648 0.826569 0.997730
#
# Coordination Sequence:
#
# PCOD9274518 Si02
#       7
#     8   4   8   4   8   8   8
#     4  10  22  42  71  96 137 180 227 274 334 396
#     4   9  18  32  64  89 134 157 208 270 350 403
#     4  10  22  35  65 100 130 169 221 280 344 404
#     4  11  24  46  66  87 140 187 230 274 336 389
#     4   9  18  40  66  94 131 173 219 270 343 399
#     4  11  25  43  69  96 135 184 231 278 325 401
#     4  10  20  38  63  98 129 178 211 277 346 408
#
# _framework density 25.477249
#
# number of rings (size 3 to 8) (size 9 to 14) (size 15 to 20)
#    0.000    2.000    1.667    2.000    7.000    1.333 
#    0.000    5.000    0.000    0.000    0.000    0.000 
#    0.000    0.000    0.000    0.000    0.000    0.000 
#
# Total GULP energy -133726.455888 kJ/mol
# GULP energy per Si atom -5571.935662 kJ/mol
# Density = 2.541926 g / cm^3
# Si number density = 25.477249 Si / 1000 Ang^3
#
#
#
# Elastic Constant Matrix: (Units=GPa)
#
#
# Indices 1 2 3 4 5 6 
#
# 1 123.1150 -5.1347 31.3487 0.0000 6.1408 0.0000
# 2 -5.1347 23.1646 22.6604 0.0000 4.0145 0.0000
# 3 31.3487 22.6604 126.9338 0.0000 -1.5167 0.0000
# 4 0.0000 0.0000 0.0000 15.0288 0.0000 13.4803
# 5 6.1408 4.0145 -1.5167 0.0000 44.5358 0.0000
# 6 0.0000 0.0000 0.0000 13.4803 0.0000 -180.3410
#
#
#
# Elastic Compliance Matrix: (Units=1/GPa)
#
#
# Indices 1 2 3 4 5 6 
#
# 1 0.009300 0.005647 -0.003328 0.000000 -0.001905 0.000000
# 2 0.005647 0.056885 -0.011625 0.000000 -0.006302 0.000000
# 3 -0.003328 -0.011625 0.010798 0.000000 0.001874 0.000000
# 4 0.000000 0.000000 0.000000 0.062358 0.000000 0.004661
# 5 -0.001905 -0.006302 0.001874 0.000000 0.023348 0.000000
# 6 0.000000 0.000000 0.000000 0.004661 0.000000 -0.005197
#
#
# Mechanical properties :
#
#
# Convention : Reuss Voigt Hill
#
# Bulk Modulus (GPa) = 17.13164 41.21801 29.17483
# Shear Modulus (GPa) = 25.56727 -9.19936 8.18395
#
# Velocity S-wave (km/s) = 3.17130 -1.90228 1.79422
# Velocity P-wave (km/s) = 4.48869 3.37470 3.97096
#
# Compressibility (1/GPa) = 0.05837153
#
# Stress axis : x y z
#
# Youngs Moduli (GPa) = 107.52281 17.57918 92.61209
#
# Poissons Ratio (x) = -0.09927 0.30819
# Poissons Ratio (y) = -0.60718 1.07664
# Poissons Ratio (z) = 0.35781 0.20436
#
# Static dielectric constant tensor:
#      x y z
#    x 2.004750 0.000000 -0.066200 
#    y 0.000000 2.072330 0.000000 
#    z -0.066200 0.000000 2.183440 
# 
# From -- ./inp_files/104308.got.cif
#   From: 2010.05.17/outbox.cif.g08.bks.cpg/sg15_53_cif.got.tgz:104308.got - 2010.06.03 18:47:42.
