data_PCOD9274089
_publ_section_title
;
Structure prediction by ZEFSAII (Michael W. Deem and Ramdas Pophale) SiO2 
 PCOD9274089
Probable space group: C 2/C
;
_chemical_formula_sum "Si O2"
_cell_formula_units_Z 44
_cell_length_a 6.292816
_cell_length_b 13.127004
_cell_length_c 26.897154
_cell_angle_alpha 90.000000
_cell_angle_beta 79.140847
_cell_angle_gamma 90.000000
_cell_volume 2182.075214
_symmetry_space_group_name_H-M "C 2/C"
_symmetry_group_IT_number 15
_symmetry_cell_setting 'monoclinic'
loop_
_space_group_symop_operation_xyz
x,y,z
-x,y,1/2-z
-x,-y,-z
x,-y,1/2+z
1/2+x,1/2+y,z
1/2-x,1/2+y,1/2-z
1/2-x,1/2-y,-z
1/2+x,1/2-y,1/2+z
loop_
_atom_site_type_symbol
_atom_site_label
_atom_site_fract_x
_atom_site_fract_y
_atom_site_fract_z
Si Si1 0.122129 0.038136 0.795523
Si Si2 0.389576 0.666341 0.887732
Si Si3 0.881769 0.169769 0.160826
Si Si4 0.574503 0.177409 0.981349
Si Si5 0.242400 0.700076 0.426401
Si Si6 0.500000 0.192624 0.750000
O O1 0.303315 0.120553 0.774736
O O2 0.000000 0.010132 0.750000
O O3 0.959739 0.090297 0.841655
O O4 0.215263 0.936695 0.816791
O O5 0.273088 0.763682 0.867448
O O6 0.221561 0.618153 0.934930
O O7 0.598813 0.711905 0.906585
O O8 0.933514 0.237869 0.206529
O O9 0.106265 0.148677 0.121482
O O10 0.411146 0.245275 0.955910
O O11 0.750000 0.250000 0.000000
O O12 0.424308 0.134525 0.032384
#
# Coordination Sequence:
#
# PCOD9274089 Si02
#       6
#     8   8   8   8   8   4
#     4  12  25  39  61  88 118 162 207 243 300 357
#     4  10  20  38  61  89 124 156 199 248 296 354
#     4  11  23  39  61  88 120 160 203 246 296 355
#     4   8  16  32  62  93 117 159 192 238 307 354
#     4   9  17  35  62  88 123 157 192 246 303 350
#     4  12  24  40  58  84 120 160 200 256 298 344
#
# _framework density 20.164290999999999
#
# number of rings (size 3 to 8) (size 9 to 14) (size 15 to 20)
#    0.000    1.818    4.545    0.000    0.000    2.909 
#    0.000    0.909    0.000   37.091    0.000    0.000 
#    0.000    0.000    0.000    0.000    0.000    0.000 
#
# Total GULP energy -122663.983375 kJ/mol
# GULP energy per Si atom -5575.635608 kJ/mol
# Density = 2.011840 g / cm^3
# Si number density = 20.164291 Si / 1000 Ang^3
#
#
#
# Elastic Constant Matrix: (Units=GPa)
#
#
# Indices 1 2 3 4 5 6 
#
# 1 87.4219 18.1599 39.4136 0.0000 6.3962 0.0000
# 2 18.1599 64.5984 45.5789 0.0000 -12.5091 0.0000
# 3 39.4136 45.5789 123.0136 0.0000 -15.3441 0.0000
# 4 0.0000 0.0000 0.0000 2.5687 0.0000 3.6764
# 5 6.3962 -12.5091 -15.3441 0.0000 44.3707 0.0000
# 6 0.0000 0.0000 0.0000 3.6764 0.0000 9.7973
#
#
#
# Elastic Compliance Matrix: (Units=1/GPa)
#
#
# Indices 1 2 3 4 5 6 
#
# 1 0.014053 -0.001620 -0.004402 0.000000 -0.004005 0.000000
# 2 -0.001620 0.021640 -0.007011 0.000000 0.003910 0.000000
# 3 -0.004402 -0.007011 0.012509 0.000000 0.002984 0.000000
# 4 0.000000 0.000000 0.000000 0.840956 0.000000 -0.315563
# 5 -0.004005 0.003910 0.002984 0.000000 0.025249 0.000000
# 6 0.000000 0.000000 0.000000 -0.315563 0.000000 0.220481
#
#
# Mechanical properties :
#
#
# Convention : Reuss Voigt Hill
#
# Bulk Modulus (GPa) = 45.17578 53.48206 49.32892
# Shear Modulus (GPa) = 4.27960 22.80611 13.54286
#
# Velocity S-wave (km/s) = 1.45841 3.36670 2.59439
# Velocity P-wave (km/s) = 5.02876 6.45706 5.78715
#
# Compressibility (1/GPa) = 0.02213576
#
# Stress axis : x y z
#
# Youngs Moduli (GPa) = 71.16000 46.21144 79.93966
#
# Poissons Ratio (x) = 0.07488 0.35187
# Poissons Ratio (y) = 0.11530 0.56046
# Poissons Ratio (z) = 0.31323 0.32399
#
# Static dielectric constant tensor:
#      x y z
#    x 1.705870 0.000000 -0.043370 
#    y 0.000000 1.652500 0.000000 
#    z -0.043370 0.000000 1.773990 
# 
# From -- ./inp_files/260353.got.cif
#   From: 2010.05.17/outbox.cif.g08.bks.cpg/sg15_131_cif.got.tgz:260353.got - 2010.06.03 18:47:42.
