data_PCOD9274827
_publ_section_title
;
Structure prediction by ZEFSAII (Michael W. Deem and Ramdas Pophale) SiO2 
 PCOD9274827
Probable space group: C 2/C
;
_chemical_formula_sum "Si O2"
_cell_formula_units_Z 64
_cell_length_a 18.617819
_cell_length_b 22.817812
_cell_length_c 20.666945
_cell_angle_alpha 90.000000
_cell_angle_beta 160.064772
_cell_angle_gamma 90.000000
_cell_volume 2993.501513
_symmetry_space_group_name_H-M "C 2/C"
_symmetry_group_IT_number 15
_symmetry_cell_setting 'monoclinic'
loop_
_space_group_symop_operation_xyz
x,y,z
-x,y,1/2-z
-x,-y,-z
x,-y,1/2+z
1/2+x,1/2+y,z
1/2-x,1/2+y,1/2-z
1/2-x,1/2-y,-z
1/2+x,1/2-y,1/2+z
loop_
_atom_site_type_symbol
_atom_site_label
_atom_site_fract_x
_atom_site_fract_y
_atom_site_fract_z
Si Si1 0.293108 0.818931 0.032654
Si Si2 0.420133 0.582856 0.068670
Si Si3 0.955196 0.601002 0.323785
Si Si4 0.234414 0.303390 0.079059
Si Si5 0.316388 0.000654 0.541164
Si Si6 0.477549 0.896537 0.363625
Si Si7 0.818759 0.826479 0.998852
Si Si8 0.372121 0.939717 0.887254
O O1 0.500000 0.832206 0.250000
O O2 0.382304 0.840855 0.039670
O O3 0.250000 0.750000 0.000000
O O4 0.113842 0.860203 0.913068
O O5 0.642954 0.570975 0.224468
O O6 0.372678 0.526994 0.076023
O O7 0.242881 0.594008 0.861907
O O8 0.841940 0.567315 0.284979
O O9 0.030448 0.660199 0.422989
O O10 0.155283 0.562320 0.468920
O O11 0.801535 0.620135 0.135975
O O12 0.248458 0.315493 0.013315
O O13 0.431624 0.330179 0.283394
O O14 0.233389 0.233628 0.083352
O O15 0.500000 0.000614 0.750000
O O16 0.383074 0.048876 0.545052
O O17 0.475744 0.898767 0.439368
O O18 0.500000 0.000000 0.000000
#
# Coordination Sequence:
#
# PCOD9274827 Si02
#       8
#     8   8   8   8   8   8   8   8
#     4   9  19  36  70 106 125 165 224 286 347 403
#     4   9  22  43  67  90 133 177 209 287 353 379
#     4  12  23  40  61  97 135 166 228 269 320 414
#     4  10  20  38  65  96 124 165 212 270 335 381
#     4   9  18  39  65  91 122 163 217 285 322 384
#     4   9  20  43  62  92 133 167 219 272 336 406
#     4  10  20  38  67  92 128 167 205 275 336 375
#     4  12  26  44  62  92 134 185 220 265 341 413
#
# _framework density 21.379646999999999
#
# number of rings (size 3 to 8) (size 9 to 14) (size 15 to 20)
#    0.000    2.000    2.500    2.625    1.750    3.000 
#    9.000    1.250    0.000    0.000    0.000    0.000 
#    0.000    0.000    0.000    0.000    0.000    0.000 
#
# Total GULP energy -178229.972529 kJ/mol
# GULP energy per Si atom -5569.686642 kJ/mol
# Density = 2.133099 g / cm^3
# Si number density = 21.379647 Si / 1000 Ang^3
#
#
#
# Elastic Constant Matrix: (Units=GPa)
#
#
# Indices 1 2 3 4 5 6 
#
# 1 81.6834 36.3977 35.2037 0.0492 -4.5344 -0.0184
# 2 36.3977 117.0530 28.0676 0.0276 7.7528 0.0217
# 3 35.2037 28.0676 106.8308 0.0877 -0.0930 0.0052
# 4 0.0492 0.0276 0.0877 29.9478 0.0014 -3.2768
# 5 -4.5344 7.7528 -0.0930 0.0014 30.7931 -0.0246
# 6 -0.0184 0.0217 0.0052 -3.2768 -0.0246 20.6744
#
#
#
# Elastic Compliance Matrix: (Units=1/GPa)
#
#
# Indices 1 2 3 4 5 6 
#
# 1 0.016130 -0.004236 -0.004199 -0.000008 0.003429 0.000023
# 2 -0.004236 0.010396 -0.001338 -0.000001 -0.003245 -0.000018
# 3 -0.004199 -0.001338 0.011096 -0.000025 -0.000248 -0.000009
# 4 -0.000008 -0.000001 -0.000025 0.033981 0.000002 0.005386
# 5 0.003429 -0.003245 -0.000248 0.000002 0.033796 0.000047
# 6 0.000023 -0.000018 -0.000009 0.005386 0.000047 0.049223
#
#
# Mechanical properties :
#
#
# Convention : Reuss Voigt Hill
#
# Bulk Modulus (GPa) = 55.32560 56.10058 55.71309
# Shear Modulus (GPa) = 27.74787 30.00960 28.87874
#
# Velocity S-wave (km/s) = 3.60650 3.75060 3.67925
# Velocity P-wave (km/s) = 6.57847 6.71216 6.64565
#
# Compressibility (1/GPa) = 0.01807482
#
# Stress axis : x y z
#
# Youngs Moduli (GPa) = 61.99602 96.18961 90.12368
#
# Poissons Ratio (x) = 0.40744 0.37847
# Poissons Ratio (y) = 0.26260 0.12062
# Poissons Ratio (z) = 0.26035 0.12874
#
# Static dielectric constant tensor:
#      x y z
#    x 1.846210 -0.000010 0.000490 
#    y -0.000010 1.861690 -0.000090 
#    z 0.000490 -0.000090 1.822510 
# 
# From -- ./inp_files/250298.got.cif
#   From: 2010.05.17/outbox.cif.g08.bks.cpg/sg15_126_cif.got.tgz:250298.got - 2010.06.03 18:47:42.
