data_PCOD9274684
_publ_section_title
;
Structure prediction by ZEFSAII (Michael W. Deem and Ramdas Pophale) SiO2 
 PCOD9274684
Probable space group: C 2/C
;
_chemical_formula_sum "Si O2"
_cell_formula_units_Z 52
_cell_length_a 8.978561
_cell_length_b 15.222000
_cell_length_c 16.146878
_cell_angle_alpha 90.000000
_cell_angle_beta 77.237675
_cell_angle_gamma 90.000000
_cell_volume 2152.300657
_symmetry_space_group_name_H-M "C 2/C"
_symmetry_group_IT_number 15
_symmetry_cell_setting 'monoclinic'
loop_
_space_group_symop_operation_xyz
x,y,z
-x,y,1/2-z
-x,-y,-z
x,-y,1/2+z
1/2+x,1/2+y,z
1/2-x,1/2+y,1/2-z
1/2-x,1/2-y,-z
1/2+x,1/2-y,1/2+z
loop_
_atom_site_type_symbol
_atom_site_label
_atom_site_fract_x
_atom_site_fract_y
_atom_site_fract_z
Si Si1 0.261176 0.464793 0.515484
Si Si2 0.000000 0.211181 0.750000
Si Si3 0.565145 0.111059 0.441706
Si Si4 0.000000 0.537408 0.750000
Si Si5 0.434490 0.390113 0.091390
Si Si6 0.000000 0.181142 0.250000
Si Si7 0.693931 0.869712 0.752647
Si Si8 0.617092 0.819884 0.105378
O O1 0.182800 0.533968 0.459078
O O2 0.390868 0.400889 0.461732
O O3 0.354389 0.517672 0.574622
O O4 0.104610 0.419551 0.564249
O O5 0.051645 0.147306 0.817568
O O6 0.132896 0.283084 0.711930
O O7 0.456520 0.828432 0.475437
O O8 0.640308 0.152213 0.352493
O O9 0.132042 0.467476 0.750421
O O10 0.049924 0.598256 0.667603
O O11 0.299421 0.328603 0.070535
O O12 0.871970 0.125073 0.223242
O O13 0.928526 0.240083 0.331054
#
# Coordination Sequence:
#
# PCOD9274684 Si02
#       8
#     8   4   8   4   8   4   8   8
#     4   9  20  38  66 101 125 166 219 280 337 380
#     4  11  24  41  59  88 137 182 210 263 338 407
#     4  10  21  41  68  98 134 164 220 282 334 389
#     4  10  22  40  68  93 137 176 220 280 332 400
#     4  10  20  38  64  93 129 165 224 267 321 405
#     4  11  24  43  65  99 134 182 228 265 342 403
#     4  11  24  42  63  96 137 175 220 273 340 397
#     4  10  22  43  72  97 129 182 227 272 334 404
#
# _framework density 24.160195000000002
#
# number of rings (size 3 to 8) (size 9 to 14) (size 15 to 20)
#    0.000    1.846    1.538    2.769    2.154    3.077 
#    0.000    5.385    0.000    0.000    0.000    0.000 
#    0.000    0.000    0.000    0.000    0.000    0.000 
#
# Total GULP energy -145038.754016 kJ/mol
# GULP energy per Si atom -5578.413616 kJ/mol
# Density = 2.410521 g / cm^3
# Si number density = 24.160195 Si / 1000 Ang^3
#
#
#
# Elastic Constant Matrix: (Units=GPa)
#
#
# Indices 1 2 3 4 5 6 
#
# 1 173.3739 53.6793 11.5509 0.0000 -19.4918 0.0000
# 2 53.6793 96.8757 36.1191 0.0000 -0.3820 0.0000
# 3 11.5509 36.1191 74.4898 0.0000 5.8350 0.0000
# 4 0.0000 0.0000 0.0000 -44.8332 0.0000 53.3555
# 5 -19.4918 -0.3820 5.8350 0.0000 35.6955 0.0000
# 6 0.0000 0.0000 0.0000 53.3555 0.0000 -18.7779
#
#
#
# Elastic Compliance Matrix: (Units=1/GPa)
#
#
# Indices 1 2 3 4 5 6 
#
# 1 0.007532 -0.004403 0.000657 0.000000 0.003959 0.000000
# 2 -0.004403 0.015221 -0.006607 0.000000 -0.001161 0.000000
# 3 0.000657 -0.006607 0.016718 0.000000 -0.002445 0.000000
# 4 0.000000 0.000000 0.000000 0.009366 0.000000 0.026612
# 5 0.003959 -0.001161 -0.002445 0.000000 0.030564 0.000000
# 6 0.000000 0.000000 0.000000 0.026612 0.000000 0.022361
#
#
# Mechanical properties :
#
#
# Convention : Reuss Voigt Hill
#
# Bulk Modulus (GPa) = 53.28953 60.82644 57.05798
# Shear Modulus (GPa) = 38.84314 10.64287 24.74300
#
# Velocity S-wave (km/s) = 4.01400 2.10112 3.20366
# Velocity P-wave (km/s) = 6.60209 5.57828 6.11166
#
# Compressibility (1/GPa) = 0.01876541
#
# Stress axis : x y z
#
# Youngs Moduli (GPa) = 132.75937 65.69913 59.81645
#
# Poissons Ratio (x) = 0.28928 -0.03929
# Poissons Ratio (y) = 0.58454 0.39519
# Poissons Ratio (z) = -0.08720 0.43405
#
# Static dielectric constant tensor:
#      x y z
#    x 1.987260 0.000000 0.024300 
#    y 0.000000 1.967770 0.000000 
#    z 0.024300 0.000000 1.935330 
# 
# From -- ./inp_files/263921.got.cif
#   From: 2010.05.17/outbox.cif.g08.bks.cpg/sg15_132_cif.got.tgz:263921.got - 2010.06.03 18:47:42.
