data_PCOD9274624
_publ_section_title
;
Structure prediction by ZEFSAII (Michael W. Deem and Ramdas Pophale) SiO2 
 PCOD9274624
Probable space group: C 2/C
;
_chemical_formula_sum "Si O2"
_cell_formula_units_Z 64
_cell_length_a 7.161054
_cell_length_b 29.674157
_cell_length_c 12.400660
_cell_angle_alpha 90.000000
_cell_angle_beta 87.829184
_cell_angle_gamma 90.000000
_cell_volume 2633.227314
_symmetry_space_group_name_H-M "C 2/C"
_symmetry_group_IT_number 15
_symmetry_cell_setting 'monoclinic'
loop_
_space_group_symop_operation_xyz
x,y,z
-x,y,1/2-z
-x,-y,-z
x,-y,1/2+z
1/2+x,1/2+y,z
1/2-x,1/2+y,1/2-z
1/2-x,1/2-y,-z
1/2+x,1/2-y,1/2+z
loop_
_atom_site_type_symbol
_atom_site_label
_atom_site_fract_x
_atom_site_fract_y
_atom_site_fract_z
Si Si1 0.256343 0.040065 0.071293
Si Si2 0.205535 0.802143 0.761048
Si Si3 0.320986 0.050832 0.488366
Si Si4 0.725075 0.903237 0.721550
Si Si5 0.867842 0.785317 0.357206
Si Si6 0.681789 0.300326 0.514857
Si Si7 0.736731 0.123377 0.847545
Si Si8 0.178570 0.110698 0.890282
O O1 0.482521 0.035699 0.067517
O O2 0.202022 0.069202 0.176671
O O3 0.204700 0.068905 0.968068
O O4 0.207804 0.987684 0.054249
O O5 0.202868 0.852775 0.804192
O O6 0.314765 0.766022 0.830103
O O7 0.251739 0.810332 0.634451
O O8 0.000000 0.781945 0.750000
O O9 0.219094 0.069124 0.385476
O O10 0.367886 0.092109 0.566221
O O11 0.500000 0.898321 0.750000
O O12 0.705997 0.822897 0.355714
O O13 0.000000 0.797102 0.250000
O O14 0.971223 0.793064 0.469384
O O15 0.750000 0.250000 0.500000
O O16 0.746539 0.343028 0.444506
O O17 0.720454 0.106617 0.726159
O O18 0.956518 0.116573 0.873958
#
# Coordination Sequence:
#
# PCOD9274624 Si02
#       8
#     8   8   8   8   8   8   8   8
#     4  10  22  43  65  93 122 168 212 263 322 388
#     4  12  26  41  62  98 129 169 222 272 319 387
#     4  10  24  40  66  95 127 162 212 269 326 372
#     4  10  23  43  64  92 131 170 212 262 329 388
#     4  11  21  43  64  90 131 173 210 262 320 384
#     4  11  21  39  68  89 123 174 216 256 323 390
#     4  10  21  41  61  92 126 164 206 260 314 374
#     4  10  20  38  64  90 123 164 207 253 316 381
#
# _framework density 24.304776
#
# number of rings (size 3 to 8) (size 9 to 14) (size 15 to 20)
#    0.000    1.500    5.000    0.375    5.250    1.500 
#    4.500    0.000    0.000    0.000    0.000    0.000 
#    0.000    0.000    0.000    0.000    0.000    0.000 
#
# Total GULP energy -178605.560531 kJ/mol
# GULP energy per Si atom -5581.423767 kJ/mol
# Density = 2.424946 g / cm^3
# Si number density = 24.304776 Si / 1000 Ang^3
#
#
#
# Elastic Constant Matrix: (Units=GPa)
#
#
# Indices 1 2 3 4 5 6 
#
# 1 44.4180 3.9530 -4.7172 0.0000 10.1333 0.0000
# 2 3.9530 169.6480 66.8314 0.0000 18.5450 0.0000
# 3 -4.7172 66.8314 105.7699 0.0000 19.2310 0.0000
# 4 0.0000 0.0000 0.0000 46.9725 0.0000 9.3008
# 5 10.1333 18.5450 19.2310 0.0000 26.5004 0.0000
# 6 0.0000 0.0000 0.0000 9.3008 0.0000 16.1275
#
#
#
# Elastic Compliance Matrix: (Units=1/GPa)
#
#
# Indices 1 2 3 4 5 6 
#
# 1 0.025749 -0.000795 0.003847 0.000000 -0.012082 0.000000
# 2 -0.000795 0.007984 -0.004746 0.000000 -0.001839 0.000000
# 3 0.003847 -0.004746 0.014156 0.000000 -0.008423 0.000000
# 4 0.000000 0.000000 0.000000 0.024033 0.000000 -0.013860
# 5 -0.012082 -0.001839 -0.008423 0.000000 0.049755 0.000000
# 6 0.000000 0.000000 0.000000 -0.013860 0.000000 0.069999
#
#
# Mechanical properties :
#
#
# Convention : Reuss Voigt Hill
#
# Bulk Modulus (GPa) = 22.47072 50.21891 36.34481
# Shear Modulus (GPa) = 23.82129 34.83798 29.32963
#
# Velocity S-wave (km/s) = 3.13406 3.79011 3.47759
# Velocity P-wave (km/s) = 4.72884 6.31350 5.57773
#
# Compressibility (1/GPa) = 0.04450237
#
# Stress axis : x y z
#
# Youngs Moduli (GPa) = 38.83651 125.25678 70.64116
#
# Poissons Ratio (x) = 0.09957 -0.27178
# Poissons Ratio (y) = 0.03087 0.33523
# Poissons Ratio (z) = -0.14942 0.59441
#
# Static dielectric constant tensor:
#      x y z
#    x 2.065910 0.000000 0.048710 
#    y 0.000000 1.872690 0.000000 
#    z 0.048710 0.000000 2.132090 
# 
# From -- ./inp_files/82603.got.cif
#   From: 2010.05.17/outbox.cif.g08.bks.cpg/sg15_42_cif.got.tgz:82603.got - 2010.06.03 18:47:42.
