data_PCOD9274921
_publ_section_title
;
Structure prediction by ZEFSAII (Michael W. Deem and Ramdas Pophale) SiO2 
 PCOD9274921
Probable space group: C 2/C
;
_chemical_formula_sum "Si O2"
_cell_formula_units_Z 56
_cell_length_a 21.063521
_cell_length_b 7.310544
_cell_length_c 15.476378
_cell_angle_alpha 90.000000
_cell_angle_beta 73.494222
_cell_angle_gamma 90.000000
_cell_volume 2284.935698
_symmetry_space_group_name_H-M "C 2/C"
_symmetry_group_IT_number 15
_symmetry_cell_setting 'monoclinic'
loop_
_space_group_symop_operation_xyz
x,y,z
-x,y,1/2-z
-x,-y,-z
x,-y,1/2+z
1/2+x,1/2+y,z
1/2-x,1/2+y,1/2-z
1/2-x,1/2-y,-z
1/2+x,1/2-y,1/2+z
loop_
_atom_site_type_symbol
_atom_site_label
_atom_site_fract_x
_atom_site_fract_y
_atom_site_fract_z
Si Si1 0.215231 0.540538 0.109747
Si Si2 0.167846 0.457633 0.307372
Si Si3 0.353042 0.496912 0.004067
Si Si4 0.698855 0.557694 0.655744
Si Si5 0.611620 0.932404 0.507316
Si Si6 0.093518 0.867821 0.773587
Si Si7 0.041248 0.250023 0.104759
O O1 0.166669 0.526645 0.210355
O O2 0.226847 0.756400 0.105545
O O3 0.173392 0.493084 0.041071
O O4 0.289173 0.460242 0.089121
O O5 0.240311 0.510307 0.312070
O O6 0.119841 0.497820 0.405544
O O7 0.152659 0.245485 0.294080
O O8 0.320267 0.451887 0.923159
O O9 0.379705 0.709503 0.992801
O O10 0.415354 0.363747 0.980987
O O11 0.629721 0.557493 0.735673
O O12 0.549241 0.037125 0.574653
O O13 0.069560 0.781616 0.691305
O O14 0.031199 0.840613 0.859895
#
# Coordination Sequence:
#
# PCOD9274921 Si02
#       7
#     8   8   8   8   8   8   8
#     4  11  21  40  64 100 132 171 218 279 341 380
#     4  12  22  38  69  96 129 174 217 284 331 382
#     4  10  21  42  67  96 132 176 218 274 333 390
#     4  10  20  38  66  93 131 164 220 277 329 385
#     4  11  22  43  65  97 133 174 220 273 328 396
#     4  10  23  43  64  98 131 174 225 272 323 403
#     4  10  23  45  67  93 136 179 222 263 330 403
#
# _framework density 24.50835
#
# number of rings (size 3 to 8) (size 9 to 14) (size 15 to 20)
#    0.000    1.429    4.286    1.714    0.000    3.429 
#    2.571    2.143    0.000    0.000    0.000    0.000 
#    0.000    0.000    0.000    0.000    0.000    0.000 
#
# Total GULP energy -155907.633093 kJ/mol
# GULP energy per Si atom -5568.129753 kJ/mol
# Density = 2.445257 g / cm^3
# Si number density = 24.508350 Si / 1000 Ang^3
#
#
#
# Elastic Constant Matrix: (Units=GPa)
#
#
# Indices 1 2 3 4 5 6 
#
# 1 66.3839 25.9087 31.9805 0.0000 -16.1631 0.0000
# 2 25.9087 63.5344 24.5576 0.0000 -19.7849 0.0000
# 3 31.9805 24.5576 110.0254 0.0000 -5.0648 0.0000
# 4 0.0000 0.0000 0.0000 27.7971 0.0000 -10.9807
# 5 -16.1631 -19.7849 -5.0648 0.0000 32.5788 0.0000
# 6 0.0000 0.0000 0.0000 -10.9807 0.0000 14.0229
#
#
#
# Elastic Compliance Matrix: (Units=1/GPa)
#
#
# Indices 1 2 3 4 5 6 
#
# 1 0.020758 -0.004520 -0.004711 0.000000 0.006821 0.000000
# 2 -0.004520 0.022128 -0.003132 0.000000 0.010709 0.000000
# 3 -0.004711 -0.003132 0.011041 0.000000 -0.002523 0.000000
# 4 0.000000 0.000000 0.000000 0.052087 0.000000 0.040787
# 5 0.006821 0.010709 -0.002523 0.000000 0.040190 0.000000
# 6 0.000000 0.000000 0.000000 0.040787 0.000000 0.103250
#
#
# Mechanical properties :
#
#
# Convention : Reuss Voigt Hill
#
# Bulk Modulus (GPa) = 34.24491 44.98192 39.61341
# Shear Modulus (GPa) = 17.61090 25.37955 21.49523
#
# Velocity S-wave (km/s) = 2.68352 3.22148 2.96473
# Velocity P-wave (km/s) = 4.85848 5.67722 5.28373
#
# Compressibility (1/GPa) = 0.02920142
#
# Stress axis : x y z
#
# Youngs Moduli (GPa) = 48.17352 45.19122 90.57098
#
# Poissons Ratio (x) = 0.20426 0.42667
# Poissons Ratio (y) = 0.21774 0.28369
# Poissons Ratio (z) = 0.22694 0.14155
#
# Static dielectric constant tensor:
#      x y z
#    x 2.006140 0.000000 -0.007260 
#    y 0.000000 2.052060 0.000000 
#    z -0.007260 0.000000 2.048940 
# 
# From -- ./inp_files/218167.got.cif
#   From: 2010.05.17/outbox.cif.g08.bks.cpg/sg15_110_cif.got.tgz:218167.got - 2010.06.03 18:47:42.
