data_PCOD9274265
_publ_section_title
;
Structure prediction by ZEFSAII (Michael W. Deem and Ramdas Pophale) SiO2 
 PCOD9274265
Probable space group: C 2/C
;
_chemical_formula_sum "Si O2"
_cell_formula_units_Z 60
_cell_length_a 22.651054
_cell_length_b 19.743417
_cell_length_c 5.216452
_cell_angle_alpha 90.000000
_cell_angle_beta 87.460418
_cell_angle_gamma 90.000000
_cell_volume 2330.554144
_symmetry_space_group_name_H-M "C 2/C"
_symmetry_group_IT_number 15
_symmetry_cell_setting 'monoclinic'
loop_
_space_group_symop_operation_xyz
x,y,z
-x,y,1/2-z
-x,-y,-z
x,-y,1/2+z
1/2+x,1/2+y,z
1/2-x,1/2+y,1/2-z
1/2-x,1/2-y,-z
1/2+x,1/2-y,1/2+z
loop_
_atom_site_type_symbol
_atom_site_label
_atom_site_fract_x
_atom_site_fract_y
_atom_site_fract_z
Si Si1 0.314218 0.289127 0.810956
Si Si2 0.500000 0.752148 0.250000
Si Si3 0.571626 0.540351 0.754006
Si Si4 0.915131 0.811966 0.423080
Si Si5 0.247223 0.331610 0.320218
Si Si6 0.102118 0.530254 0.176204
Si Si7 0.260818 0.021385 0.478215
Si Si8 0.566681 0.823810 0.852843
O O1 0.373836 0.317096 0.681020
O O2 0.265262 0.310242 0.605554
O O3 0.309746 0.207590 0.778921
O O4 0.295490 0.312407 0.095137
O O5 0.520088 0.702903 0.472858
O O6 0.447775 0.801171 0.354494
O O7 0.500000 0.540086 0.750000
O O8 0.591770 0.496470 0.506875
O O9 0.590006 0.618300 0.724820
O O10 0.902329 0.742189 0.275624
O O11 0.240982 0.410842 0.352152
O O12 0.074750 0.482482 0.401483
O O13 0.098585 0.606582 0.282121
O O14 0.170382 0.510961 0.108602
O O15 0.233747 0.028904 0.198219
O O16 0.500000 0.831345 0.750000
#
# Coordination Sequence:
#
# PCOD9274265 Si02
#       8
#     8   4   8   8   8   8   8   8
#     4  10  23  39  67  90 126 156 208 254 317 358
#     4  10  24  40  64  92 128 164 218 260 324 374
#     4  10  23  40  63  89 122 162 205 255 316 379
#     4  11  24  42  65  95 125 169 210 269 307 390
#     4  10  21  42  60  95 121 162 202 260 305 372
#     4  10  23  39  61  92 127 167 217 257 306 373
#     4  10  20  38  62  89 121 164 204 248 305 370
#     4  10  23  40  60  90 124 170 214 262 317 364
#
# _framework density 25.744949999999999
#
# number of rings (size 3 to 8) (size 9 to 14) (size 15 to 20)
#    0.000    1.867    0.000    2.800   10.267    0.533 
#    4.800    4.000    0.000    0.000    0.000    0.000 
#    0.000    0.000    0.000    0.000    0.000    0.000 
#
# Total GULP energy -167671.001379 kJ/mol
# GULP energy per Si atom -5589.033379 kJ/mol
# Density = 2.568635 g / cm^3
# Si number density = 25.744950 Si / 1000 Ang^3
#
#
#
# Elastic Constant Matrix: (Units=GPa)
#
#
# Indices 1 2 3 4 5 6 
#
# 1 52.5763 6.4666 20.3014 0.0000 -2.2454 0.0000
# 2 6.4666 155.7749 78.0188 0.0000 -6.5430 0.0000
# 3 20.3014 78.0188 221.8786 0.0000 -13.9753 0.0000
# 4 0.0000 0.0000 0.0000 45.3878 0.0000 -5.9946
# 5 -2.2454 -6.5430 -13.9753 0.0000 23.5267 0.0000
# 6 0.0000 0.0000 0.0000 -5.9946 0.0000 19.1607
#
#
#
# Elastic Compliance Matrix: (Units=1/GPa)
#
#
# Indices 1 2 3 4 5 6 
#
# 1 0.019734 0.000114 -0.001792 0.000000 0.000851 0.000000
# 2 0.000114 0.007800 -0.002717 0.000000 0.000566 0.000000
# 3 -0.001792 -0.002717 0.005784 0.000000 0.002509 0.000000
# 4 0.000000 0.000000 0.000000 0.022982 0.000000 0.007190
# 5 0.000851 0.000566 0.002509 0.000000 0.044234 0.000000
# 6 0.000000 0.000000 0.000000 0.007190 0.000000 0.054440
#
#
# Mechanical properties :
#
#
# Convention : Reuss Voigt Hill
#
# Bulk Modulus (GPa) = 40.77056 71.08927 55.92991
# Shear Modulus (GPa) = 29.07982 39.31125 34.19553
#
# Velocity S-wave (km/s) = 3.36450 3.91186 3.64846
# Velocity P-wave (km/s) = 5.56452 6.93371 6.28650
#
# Compressibility (1/GPa) = 0.02452750
#
# Stress axis : x y z
#
# Youngs Moduli (GPa) = 50.67316 128.21330 172.87597
#
# Poissons Ratio (x) = -0.01463 0.30983
# Poissons Ratio (y) = -0.00578 0.46976
# Poissons Ratio (z) = 0.09082 0.34840
#
# Static dielectric constant tensor:
#      x y z
#    x 2.107950 0.000000 0.062290 
#    y 0.000000 2.090200 0.000000 
#    z 0.062290 0.000000 2.115430 
# 
# From -- ./inp_files/18431.got.cif
#   From: 2010.05.17/outbox.cif.g08.bks.cpg/sg15_10_cif.got.tgz:18431.got - 2010.06.03 18:47:42.
