data_PCOD9274526
_publ_section_title
;
Structure prediction by ZEFSAII (Michael W. Deem and Ramdas Pophale) SiO2 
 PCOD9274526
Probable space group: C 2/C
;
_chemical_formula_sum "Si O2"
_cell_formula_units_Z 56
_cell_length_a 27.172149
_cell_length_b 18.712324
_cell_length_c 5.529959
_cell_angle_alpha 90.000000
_cell_angle_beta 108.108246
_cell_angle_gamma 90.000000
_cell_volume 2672.467929
_symmetry_space_group_name_H-M "C 2/C"
_symmetry_group_IT_number 15
_symmetry_cell_setting 'monoclinic'
loop_
_space_group_symop_operation_xyz
x,y,z
-x,y,1/2-z
-x,-y,-z
x,-y,1/2+z
1/2+x,1/2+y,z
1/2-x,1/2+y,1/2-z
1/2-x,1/2-y,-z
1/2+x,1/2-y,1/2+z
loop_
_atom_site_type_symbol
_atom_site_label
_atom_site_fract_x
_atom_site_fract_y
_atom_site_fract_z
Si Si1 0.719794 0.459193 0.473334
Si Si2 0.584591 0.280511 0.720101
Si Si3 0.936054 0.041349 0.849582
Si Si4 0.000000 0.281763 0.750000
Si Si5 0.898486 0.312822 0.852866
Si Si6 0.155514 0.460706 0.837549
Si Si7 0.500000 0.621039 0.250000
Si Si8 0.855366 0.162998 0.577617
O O1 0.703522 0.499284 0.197637
O O2 0.782025 0.457327 0.567693
O O3 0.697506 0.378480 0.450252
O O4 0.540709 0.265958 0.455259
O O5 0.550346 0.329859 0.838186
O O6 0.633279 0.321663 0.687653
O O7 0.599161 0.205366 0.859621
O O8 0.896973 0.104430 0.722628
O O9 0.926631 0.988805 0.608263
O O10 0.993423 0.074432 0.996597
O O11 0.041409 0.321036 0.640847
O O12 0.867863 0.382068 0.728192
O O13 0.868948 0.240589 0.712387
O O14 0.139913 0.504821 0.571674
#
# Coordination Sequence:
#
# PCOD9274526 Si02
#       8
#     8   8   8   4   8   8   4   8
#     4  10  23  45  70  96 139 184 224 275 344 398
#     4  11  21  39  61  92 130 176 226 278 330 388
#     4  12  25  38  54  83 125 175 227 270 314 374
#     4  10  20  38  63  99 134 176 216 270 342 398
#     4  11  23  41  71  98 135 176 225 280 336 405
#     4  10  25  49  74 102 134 174 216 278 354 425
#     4  12  20  40  55  83 128 182 226 280 326 376
#     4  11  24  38  64  96 130 177 229 280 323 389
#
# _framework density 20.954412999999999
#
# number of rings (size 3 to 8) (size 9 to 14) (size 15 to 20)
#    0.000    1.143    2.857    3.000    6.000    1.714 
#    0.000    1.429    0.000    0.000    0.000    0.000 
#    0.000    0.000    0.000    0.000    0.000    0.000 
#
# Total GULP energy -155970.764965 kJ/mol
# GULP energy per Si atom -5570.384463 kJ/mol
# Density = 2.090672 g / cm^3
# Si number density = 20.954413 Si / 1000 Ang^3
#
#
#
# Elastic Constant Matrix: (Units=GPa)
#
#
# Indices 1 2 3 4 5 6 
#
# 1 32.1445 15.8459 18.8443 0.0000 -6.9707 0.0000
# 2 15.8459 113.0278 42.2049 0.0000 4.1208 0.0000
# 3 18.8443 42.2049 98.4413 0.0000 -14.5545 0.0000
# 4 0.0000 0.0000 0.0000 37.1439 0.0000 14.7340
# 5 -6.9707 4.1208 -14.5545 0.0000 19.2221 0.0000
# 6 0.0000 0.0000 0.0000 14.7340 0.0000 17.5206
#
#
#
# Elastic Compliance Matrix: (Units=1/GPa)
#
#
# Indices 1 2 3 4 5 6 
#
# 1 0.038004 -0.004419 -0.003607 0.000000 0.011998 0.000000
# 2 -0.004419 0.011795 -0.005430 0.000000 -0.008242 0.000000
# 3 -0.003607 -0.005430 0.014814 0.000000 0.011073 0.000000
# 4 0.000000 0.000000 0.000000 0.040399 0.000000 -0.033973
# 5 0.011998 -0.008242 0.011073 0.000000 0.066525 0.000000
# 6 0.000000 0.000000 0.000000 -0.033973 0.000000 0.085646
#
#
# Mechanical properties :
#
#
# Convention : Reuss Voigt Hill
#
# Bulk Modulus (GPa) = 26.52324 44.15597 35.33961
# Shear Modulus (GPa) = 16.85434 25.89188 21.37311
#
# Velocity S-wave (km/s) = 2.83915 3.51896 3.19718
# Velocity P-wave (km/s) = 4.84074 6.13425 5.52548
#
# Compressibility (1/GPa) = 0.03770279
#
# Stress axis : x y z
#
# Youngs Moduli (GPa) = 26.31300 84.78347 67.50548
#
# Poissons Ratio (x) = 0.37463 0.24346
# Poissons Ratio (y) = 0.11627 0.36652
# Poissons Ratio (z) = 0.09490 0.46033
#
# Static dielectric constant tensor:
#      x y z
#    x 1.828320 0.000000 -0.112830 
#    y 0.000000 1.800150 0.000000 
#    z -0.112830 0.000000 1.893670 
# 
# From -- ./inp_files/18496.got.cif
#   From: 2010.05.17/outbox.cif.g08.bks.cpg/sg15_10_cif.got.tgz:18496.got - 2010.06.03 18:47:42.
