data_PCOD9274157
_publ_section_title
;
Structure prediction by ZEFSAII (Michael W. Deem and Ramdas Pophale) SiO2 
 PCOD9274157
Probable space group: C 2/C
;
_chemical_formula_sum "Si O2"
_cell_formula_units_Z 44
_cell_length_a 14.518824
_cell_length_b 24.038855
_cell_length_c 5.615031
_cell_angle_alpha 90.000000
_cell_angle_beta 68.370149
_cell_angle_gamma 90.000000
_cell_volume 1821.739529
_symmetry_space_group_name_H-M "C 2/C"
_symmetry_group_IT_number 15
_symmetry_cell_setting 'monoclinic'
loop_
_space_group_symop_operation_xyz
x,y,z
-x,y,1/2-z
-x,-y,-z
x,-y,1/2+z
1/2+x,1/2+y,z
1/2-x,1/2+y,1/2-z
1/2-x,1/2-y,-z
1/2+x,1/2-y,1/2+z
loop_
_atom_site_type_symbol
_atom_site_label
_atom_site_fract_x
_atom_site_fract_y
_atom_site_fract_z
Si Si1 0.000000 0.967649 0.250000
Si Si2 0.118539 0.147329 0.153532
Si Si3 0.438698 0.752751 0.054869
Si Si4 0.634877 0.022127 0.745600
Si Si5 0.299205 0.433590 0.590766
Si Si6 0.800887 0.359290 0.164537
O O1 0.102199 0.934114 0.161475
O O2 0.000000 0.000000 0.500000
O O3 0.126578 0.197530 0.336289
O O4 0.159538 0.088789 0.203273
O O5 0.000000 0.140873 0.250000
O O6 0.194812 0.160795 0.870114
O O7 0.500000 0.757894 0.250000
O O8 0.373637 0.807679 0.088317
O O9 0.500000 0.745371 0.750000
O O10 0.649033 0.088523 0.741074
O O11 0.591800 0.001179 0.535828
O O12 0.742809 0.991447 0.652133
O O13 0.221962 0.388809 0.564274
#
# Coordination Sequence:
#
# PCOD9274157 Si02
#       6
#     4   8   8   8   8   8
#     4  12  26  38  58  96 150 192 228 266 336 428
#     4  11  25  43  68 106 144 185 230 286 347 435
#     4  11  29  50  73 102 137 183 248 305 351 408
#     4  10  20  38  61  99 133 177 220 273 331 416
#     4  11  24  38  66  99 142 184 233 275 350 422
#     4  11  24  45  73  99 143 189 234 293 357 411
#
# _framework density 24.152740000000001
#
# number of rings (size 3 to 8) (size 9 to 14) (size 15 to 20)
#    0.000    1.091    1.818    3.818   12.727    0.727 
#    0.000    0.000    0.000   13.091    0.000    0.000 
#    0.000    0.000    0.000    0.000    0.000    0.000 
#
# Total GULP energy -122858.949218 kJ/mol
# GULP energy per Si atom -5584.497692 kJ/mol
# Density = 2.409777 g / cm^3
# Si number density = 24.152740 Si / 1000 Ang^3
#
#
#
# Elastic Constant Matrix: (Units=GPa)
#
#
# Indices 1 2 3 4 5 6 
#
# 1 71.2589 28.0149 23.3715 0.0000 16.7363 0.0000
# 2 28.0149 136.1056 31.4360 0.0000 -0.5954 0.0000
# 3 23.3715 31.4360 141.5345 0.0000 8.2754 0.0000
# 4 0.0000 0.0000 0.0000 62.3159 0.0000 -48.7230
# 5 16.7363 -0.5954 8.2754 0.0000 31.0244 0.0000
# 6 0.0000 0.0000 0.0000 -48.7230 0.0000 131.0248
#
#
#
# Elastic Compliance Matrix: (Units=1/GPa)
#
#
# Indices 1 2 3 4 5 6 
#
# 1 0.018123 -0.003380 -0.001693 0.000000 -0.009390 0.000000
# 2 -0.003380 0.008387 -0.001443 0.000000 0.002369 0.000000
# 3 -0.001693 -0.001443 0.007734 0.000000 -0.001178 0.000000
# 4 0.000000 0.000000 0.000000 0.022626 0.000000 0.008414
# 5 -0.009390 0.002369 -0.001178 0.000000 0.037658 0.000000
# 6 0.000000 0.000000 0.000000 0.008414 0.000000 0.010761
#
#
# Mechanical properties :
#
#
# Convention : Reuss Voigt Hill
#
# Bulk Modulus (GPa) = 47.14454 57.17154 52.15804
# Shear Modulus (GPa) = 39.87529 62.61147 51.24338
#
# Velocity S-wave (km/s) = 4.06761 5.09700 4.61112
# Velocity P-wave (km/s) = 6.45154 7.63947 7.07049
#
# Compressibility (1/GPa) = 0.02121136
#
# Stress axis : x y z
#
# Youngs Moduli (GPa) = 55.17890 119.23649 129.29387
#
# Poissons Ratio (x) = 0.40306 0.21887
# Poissons Ratio (y) = 0.18652 0.18658
# Poissons Ratio (z) = 0.09341 0.17207
#
# Static dielectric constant tensor:
#      x y z
#    x 2.049770 0.000000 0.005690 
#    y 0.000000 1.882250 0.000000 
#    z 0.005690 0.000000 2.032940 
# 
# From -- ./inp_files/8202.got.cif
#   From: 2010.05.17/outbox.cif.g08.bks.cpg/sg15_5_cif.got.tgz:8202.got - 2010.06.03 18:47:42.
