data_PCOD9274280
_publ_section_title
;
Structure prediction by ZEFSAII (Michael W. Deem and Ramdas Pophale) SiO2 
 PCOD9274280
Probable space group: C 2/C
;
_chemical_formula_sum "Si O2"
_cell_formula_units_Z 64
_cell_length_a 29.957432
_cell_length_b 13.505651
_cell_length_c 7.952995
_cell_angle_alpha 90.000000
_cell_angle_beta 125.308786
_cell_angle_gamma 90.000000
_cell_volume 2625.832595
_symmetry_space_group_name_H-M "C 2/C"
_symmetry_group_IT_number 15
_symmetry_cell_setting 'monoclinic'
loop_
_space_group_symop_operation_xyz
x,y,z
-x,y,1/2-z
-x,-y,-z
x,-y,1/2+z
1/2+x,1/2+y,z
1/2-x,1/2+y,1/2-z
1/2-x,1/2-y,-z
1/2+x,1/2-y,1/2+z
loop_
_atom_site_type_symbol
_atom_site_label
_atom_site_fract_x
_atom_site_fract_y
_atom_site_fract_z
Si Si1 0.780722 0.348493 0.871545
Si Si2 0.943206 0.159914 0.092996
Si Si3 0.837990 0.152726 0.376394
Si Si4 0.719658 0.057926 0.756982
Si Si5 0.054184 0.748064 0.267391
Si Si6 0.902319 0.438207 0.532975
Si Si7 0.903001 0.651114 0.660870
Si Si8 0.161688 0.941333 0.993826
O O1 0.721750 0.295306 0.734282
O O2 0.779323 0.438180 0.736382
O O3 0.780698 0.399810 0.055629
O O4 0.841474 0.304811 0.994128
O O5 0.941890 0.256975 0.210683
O O6 0.890274 0.096056 0.017969
O O7 0.000000 0.104271 0.250000
O O8 0.942399 0.200746 0.903852
O O9 0.890573 0.219415 0.515964
O O10 0.840363 0.103473 0.197326
O O11 0.840413 0.060339 0.508682
O O12 0.660936 0.078755 0.547208
O O13 0.777968 0.086173 0.803497
O O14 0.058169 0.628914 0.268697
O O15 0.000000 0.776951 0.250000
O O16 0.912126 0.555325 0.563851
O O17 0.907087 0.396291 0.354413
#
# Coordination Sequence:
#
# PCOD9274280 Si02
#       8
#     8   8   8   8   8   8   8   8
#     4   8  16  31  56  87 120 152 186 227 280 341
#     4  12  26  43  60  83 113 152 200 248 291 342
#     4  10  20  38  62  90 121 155 191 235 287 343
#     4   8  16  31  56  87 120 152 186 227 280 341
#     4  12  26  43  60  83 113 152 200 248 291 342
#     4  10  20  38  62  90 121 155 191 235 287 343
#     4  10  20  38  62  90 121 155 191 235 287 343
#     4  10  20  38  62  90 121 155 191 235 287 343
#
# _framework density 24.373221999999998
#
# number of rings (size 3 to 8) (size 9 to 14) (size 15 to 20)
#    0.000    2.000    0.000    3.750    0.000    4.000 
#    0.000   10.000    0.000    0.000    0.000    0.000 
#    0.000    0.000    0.000    0.000    0.000    0.000 
#
# Total GULP energy -178956.844267 kJ/mol
# GULP energy per Si atom -5592.401383 kJ/mol
# Density = 2.431775 g / cm^3
# Si number density = 24.373222 Si / 1000 Ang^3
#
#
#
# Elastic Constant Matrix: (Units=GPa)
#
#
# Indices 1 2 3 4 5 6 
#
# 1 85.3444 0.7261 7.2674 0.0000 14.8531 0.0000
# 2 0.7261 50.7528 -0.1377 0.0000 3.0435 0.0000
# 3 7.2674 -0.1377 46.4435 0.0000 3.8527 0.0000
# 4 0.0000 0.0000 0.0000 25.3260 0.0000 0.9271
# 5 14.8531 3.0435 3.8527 0.0000 30.3855 0.0000
# 6 0.0000 0.0000 0.0000 0.9271 0.0000 31.2009
#
#
#
# Elastic Compliance Matrix: (Units=1/GPa)
#
#
# Indices 1 2 3 4 5 6 
#
# 1 0.012913 0.000179 -0.001511 0.000000 -0.006138 0.000000
# 2 0.000179 0.019827 0.000205 0.000000 -0.002100 0.000000
# 3 -0.001511 0.000205 0.021940 0.000000 -0.002064 0.000000
# 4 0.000000 0.000000 0.000000 0.039528 0.000000 -0.001175
# 5 -0.006138 -0.002100 -0.002064 0.000000 0.036383 0.000000
# 6 0.000000 0.000000 0.000000 -0.001175 0.000000 0.032085
#
#
# Mechanical properties :
#
#
# Convention : Reuss Voigt Hill
#
# Bulk Modulus (GPa) = 19.07436 22.02801 20.55119
# Shear Modulus (GPa) = 27.41156 29.02813 28.21984
#
# Velocity S-wave (km/s) = 3.35723 3.45481 3.40637
# Velocity P-wave (km/s) = 4.78236 4.99717 4.89094
#
# Compressibility (1/GPa) = 0.05242640
#
# Stress axis : x y z
#
# Youngs Moduli (GPa) = 77.44334 50.43569 45.57935
#
# Poissons Ratio (x) = -0.00904 0.06886
# Poissons Ratio (y) = -0.01388 -0.00934
# Poissons Ratio (z) = 0.11700 -0.01033
#
# Static dielectric constant tensor:
#      x y z
#    x 1.938780 0.000000 0.014370 
#    y 0.000000 1.947010 0.000000 
#    z 0.014370 0.000000 1.951490 
# 
# From -- ./inp_files/70149.got.cif
#   From: 2010.05.17/outbox.cif.g08.bks.cpg/sg15_36_cif.got.tgz:70149.got - 2010.06.03 18:47:42.
