data_PCOD9274022
_publ_section_title
;
Structure prediction by ZEFSAII (Michael W. Deem and Ramdas Pophale) SiO2 
 PCOD9274022
Probable space group: C 2/C
;
_chemical_formula_sum "Si O2"
_cell_formula_units_Z 44
_cell_length_a 11.498124
_cell_length_b 14.273236
_cell_length_c 11.688199
_cell_angle_alpha 90.000000
_cell_angle_beta 112.374593
_cell_angle_gamma 90.000000
_cell_volume 1773.801011
_symmetry_space_group_name_H-M "C 2/C"
_symmetry_group_IT_number 15
_symmetry_cell_setting 'monoclinic'
loop_
_space_group_symop_operation_xyz
x,y,z
-x,y,1/2-z
-x,-y,-z
x,-y,1/2+z
1/2+x,1/2+y,z
1/2-x,1/2+y,1/2-z
1/2-x,1/2-y,-z
1/2+x,1/2-y,1/2+z
loop_
_atom_site_type_symbol
_atom_site_label
_atom_site_fract_x
_atom_site_fract_y
_atom_site_fract_z
Si Si1 0.147719 0.706134 0.789327
Si Si2 0.633857 0.019843 0.860448
Si Si3 0.847845 0.635287 0.964093
Si Si4 0.000000 0.041932 0.750000
Si Si5 0.428756 0.671082 0.533850
Si Si6 0.183705 0.098644 0.233387
O O1 0.186068 0.625389 0.892591
O O2 0.160749 0.652442 0.673224
O O3 0.221152 0.803609 0.806060
O O4 0.000000 0.730241 0.750000
O O5 0.500000 0.029994 0.750000
O O6 0.618813 0.964922 0.973178
O O7 0.714543 0.954910 0.804987
O O8 0.943638 0.717102 0.041380
O O9 0.709734 0.656232 0.963116
O O10 0.119504 0.973542 0.795922
O O11 0.984313 0.108524 0.853815
O O12 0.418923 0.631838 0.401740
#
# Coordination Sequence:
#
# PCOD9274022 Si02
#       6
#     8   8   8   4   8   8
#     4  10  20  38  61  82 118 167 185 239 320 346
#     4  10  22  37  63  87 113 164 209 234 289 364
#     4   9  19  39  57  84 126 155 196 249 292 353
#     4  12  20  34  66  92 118 152 206 246 292 368
#     4   9  20  35  59  87 120 161 191 246 301 347
#     4  10  21  39  59  89 125 153 197 254 302 344
#
# _framework density 24.805488
#
# number of rings (size 3 to 8) (size 9 to 14) (size 15 to 20)
#    0.000    2.182    0.909    2.727    1.273    2.909 
#    0.000    0.000    0.000    6.545    0.000    0.000 
#    0.000    0.000    0.000    0.000    0.000    0.000 
#
# Total GULP energy -122971.536803 kJ/mol
# GULP energy per Si atom -5589.615309 kJ/mol
# Density = 2.474903 g / cm^3
# Si number density = 24.805488 Si / 1000 Ang^3
#
#
#
# Elastic Constant Matrix: (Units=GPa)
#
#
# Indices 1 2 3 4 5 6 
#
# 1 67.9426 17.9089 -2.9864 0.0000 -14.2133 0.0000
# 2 17.9089 201.4911 45.4728 0.0000 -6.9822 0.0000
# 3 -2.9864 45.4728 60.0314 0.0000 -10.3347 0.0000
# 4 0.0000 0.0000 0.0000 35.4041 0.0000 -6.3945
# 5 -14.2133 -6.9822 -10.3347 0.0000 24.5777 0.0000
# 6 0.0000 0.0000 0.0000 -6.3945 0.0000 16.8530
#
#
#
# Elastic Compliance Matrix: (Units=1/GPa)
#
#
# Indices 1 2 3 4 5 6 
#
# 1 0.017950 -0.002227 0.004590 0.000000 0.011678 0.000000
# 2 -0.002227 0.006264 -0.005143 0.000000 -0.001671 0.000000
# 3 0.004590 -0.005143 0.022625 0.000000 0.010707 0.000000
# 4 0.000000 0.000000 0.000000 0.030323 0.000000 0.011506
# 5 0.011678 -0.001671 0.010707 0.000000 0.051468 0.000000
# 6 0.000000 0.000000 0.000000 0.011506 0.000000 0.063702
#
#
# Mechanical properties :
#
#
# Convention : Reuss Voigt Hill
#
# Bulk Modulus (GPa) = 24.22494 50.02840 37.12667
# Shear Modulus (GPa) = 23.62364 33.30493 28.46429
#
# Velocity S-wave (km/s) = 3.08937 3.66819 3.39115
# Velocity P-wave (km/s) = 4.74477 6.17680 5.50752
#
# Compressibility (1/GPa) = 0.04127977
#
# Stress axis : x y z
#
# Youngs Moduli (GPa) = 55.71039 159.64995 44.19811
#
# Poissons Ratio (x) = 0.35548 -0.20287
# Poissons Ratio (y) = 0.12405 0.22731
# Poissons Ratio (z) = -0.25571 0.82109
#
# Static dielectric constant tensor:
#      x y z
#    x 1.969390 0.000000 0.021140 
#    y 0.000000 2.042030 0.000000 
#    z 0.021140 0.000000 1.992680 
# 
# From -- ./inp_files/96585.got.cif
#   From: 2010.05.17/outbox.cif.g08.bks.cpg/sg15_49_cif.got.tgz:96585.got - 2010.06.03 18:47:42.
