data_PCOD9274928
_publ_section_title
;
Structure prediction by ZEFSAII (Michael W. Deem and Ramdas Pophale) SiO2 
 PCOD9274928
Probable space group: C 2/C
;
_chemical_formula_sum "Si O2"
_cell_formula_units_Z 60
_cell_length_a 14.064361
_cell_length_b 11.732747
_cell_length_c 16.976960
_cell_angle_alpha 90.000000
_cell_angle_beta 95.463901
_cell_angle_gamma 90.000000
_cell_volume 2788.700499
_symmetry_space_group_name_H-M "C 2/C"
_symmetry_group_IT_number 15
_symmetry_cell_setting 'monoclinic'
loop_
_space_group_symop_operation_xyz
x,y,z
-x,y,1/2-z
-x,-y,-z
x,-y,1/2+z
1/2+x,1/2+y,z
1/2-x,1/2+y,1/2-z
1/2-x,1/2-y,-z
1/2+x,1/2-y,1/2+z
loop_
_atom_site_type_symbol
_atom_site_label
_atom_site_fract_x
_atom_site_fract_y
_atom_site_fract_z
Si Si1 0.511349 0.106776 0.085270
Si Si2 0.143152 0.028504 0.955853
Si Si3 0.478820 0.684020 0.012055
Si Si4 0.808803 0.834363 0.184787
Si Si5 0.021729 0.361985 0.129497
Si Si6 0.000000 0.713497 0.250000
Si Si7 0.341679 0.093724 0.711384
Si Si8 0.292430 0.889341 0.598016
O O1 0.530422 0.136118 0.178709
O O2 0.397117 0.123576 0.067998
O O3 0.535355 0.974317 0.077147
O O4 0.559630 0.205167 0.037652
O O5 0.184806 0.057038 0.872800
O O6 0.101744 0.902126 0.964235
O O7 0.219764 0.057999 0.029692
O O8 0.052241 0.112346 0.964024
O O9 0.536580 0.742527 0.088066
O O10 0.753826 0.850544 0.262220
O O11 0.763209 0.734052 0.128102
O O12 0.913972 0.791234 0.213992
O O13 0.089594 0.388726 0.207961
O O14 0.910502 0.359786 0.147962
O O15 0.310734 0.971031 0.674921
#
# Coordination Sequence:
#
# PCOD9274928 Si02
#       8
#     8   8   8   8   8   4   8   8
#     4  10  20  39  66  89 119 175 214 268 323 384
#     4  11  24  40  60  96 134 167 219 264 333 400
#     4  11  23  39  63  93 130 174 207 269 333 389
#     4  11  22  39  67  91 127 179 216 270 332 392
#     4  10  21  42  63  92 126 164 220 269 324 391
#     4  10  20  38  66  94 124 164 234 262 316 398
#     4  10  23  39  65  93 124 166 219 270 326 379
#     4  10  21  39  62  93 127 166 222 267 320 397
#
# _framework density 21.515398000000001
#
# number of rings (size 3 to 8) (size 9 to 14) (size 15 to 20)
#    0.000    1.600    2.667    4.000    3.733    1.067 
#    0.000    4.000    0.000    0.000    0.000    0.000 
#    0.000    0.000    0.000    0.000    0.000    0.000 
#
# Total GULP energy -167418.444108 kJ/mol
# GULP energy per Si atom -5580.614804 kJ/mol
# Density = 2.146643 g / cm^3
# Si number density = 21.515398 Si / 1000 Ang^3
#
#
#
# Elastic Constant Matrix: (Units=GPa)
#
#
# Indices 1 2 3 4 5 6 
#
# 1 49.6725 26.9117 24.8140 0.0000 6.6817 0.0000
# 2 26.9117 112.9328 30.2903 0.0000 -4.5307 0.0000
# 3 24.8140 30.2903 84.7511 0.0000 3.7963 0.0000
# 4 0.0000 0.0000 0.0000 41.4551 0.0000 -7.9323
# 5 6.6817 -4.5307 3.7963 0.0000 30.0800 0.0000
# 6 0.0000 0.0000 0.0000 -7.9323 0.0000 14.0362
#
#
#
# Elastic Compliance Matrix: (Units=1/GPa)
#
#
# Indices 1 2 3 4 5 6 
#
# 1 0.026496 -0.005024 -0.005697 0.000000 -0.005923 0.000000
# 2 -0.005024 0.010859 -0.002548 0.000000 0.003073 0.000000
# 3 -0.005697 -0.002548 0.014420 0.000000 -0.000938 0.000000
# 4 0.000000 0.000000 0.000000 0.027047 0.000000 0.015285
# 5 -0.005923 0.003073 -0.000938 0.000000 0.035142 0.000000
# 6 0.000000 0.000000 0.000000 0.015285 0.000000 0.079882
#
#
# Mechanical properties :
#
#
# Convention : Reuss Voigt Hill
#
# Bulk Modulus (GPa) = 39.62263 45.70984 42.66624
# Shear Modulus (GPa) = 21.85359 28.13694 24.99526
#
# Velocity S-wave (km/s) = 3.19049 3.62022 3.41213
# Velocity P-wave (km/s) = 5.65935 6.22623 5.94954
#
# Compressibility (1/GPa) = 0.02523810
#
# Stress axis : x y z
#
# Youngs Moduli (GPa) = 37.74108 92.09324 69.34897
#
# Poissons Ratio (x) = 0.46264 0.39508
# Poissons Ratio (y) = 0.18960 0.17668
# Poissons Ratio (z) = 0.21501 0.23462
#
# Static dielectric constant tensor:
#      x y z
#    x 1.804120 0.000000 -0.015840 
#    y 0.000000 1.782510 0.000000 
#    z -0.015840 0.000000 1.843830 
# 
# From -- ./inp_files/204092.got.cif
#   From: 2010.05.17/outbox.cif.g08.bks.cpg/sg15_103_cif.got.tgz:204092.got - 2010.06.03 18:47:42.
