data_PCOD9274116
_publ_section_title
;
Structure prediction by ZEFSAII (Michael W. Deem and Ramdas Pophale) SiO2 
 PCOD9274116
Probable space group: C 2/C
;
_chemical_formula_sum "Si O2"
_cell_formula_units_Z 48
_cell_length_a 20.847636
_cell_length_b 9.205479
_cell_length_c 28.090913
_cell_angle_alpha 90.000000
_cell_angle_beta 152.846306
_cell_angle_gamma 90.000000
_cell_volume 2460.337436
_symmetry_space_group_name_H-M "C 2/C"
_symmetry_group_IT_number 15
_symmetry_cell_setting 'monoclinic'
loop_
_space_group_symop_operation_xyz
x,y,z
-x,y,1/2-z
-x,-y,-z
x,-y,1/2+z
1/2+x,1/2+y,z
1/2-x,1/2+y,1/2-z
1/2-x,1/2-y,-z
1/2+x,1/2-y,1/2+z
loop_
_atom_site_type_symbol
_atom_site_label
_atom_site_fract_x
_atom_site_fract_y
_atom_site_fract_z
Si Si1 0.836165 0.437730 0.269460
Si Si2 0.137047 0.624075 0.307471
Si Si3 0.843286 0.361599 0.124505
Si Si4 0.358364 0.889919 0.021424
Si Si5 0.166355 0.607594 0.568040
Si Si6 0.335118 0.857031 0.855320
O O1 0.883020 0.532062 0.254341
O O2 0.736664 0.301862 0.190698
O O3 0.785787 0.553776 0.275549
O O4 0.979330 0.368862 0.385368
O O5 0.218662 0.508799 0.394524
O O6 0.224205 0.764936 0.351949
O O7 0.000000 0.657220 0.250000
O O8 0.849938 0.375275 0.072303
O O9 0.000000 0.342052 0.250000
O O10 0.743675 0.227429 0.069058
O O11 0.316988 0.046685 0.974407
O O12 0.192613 0.470504 0.620127
O O13 0.004874 0.658565 0.466477
#
# Coordination Sequence:
#
# PCOD9274116 Si02
#       6
#     8   8   8   8   8   8
#     4  11  21  41  64  89 127 162 213 260 311 371
#     4  11  22  40  61  92 129 166 200 263 319 370
#     4  10  20  38  61  91 124 166 203 246 317 375
#     4  10  21  38  62  89 124 161 206 258 306 372
#     4  10  23  40  59  92 126 163 212 262 309 371
#     4  10  23  41  63  90 123 169 211 263 305 363
#
# _framework density 19.509518
#
# number of rings (size 3 to 8) (size 9 to 14) (size 15 to 20)
#    0.000    1.667    3.333    2.000    0.000    3.333 
#    3.000    0.000    0.000    0.000    0.000    0.000 
#    0.000    0.000    0.000    0.000    0.000    0.000 
#
# Total GULP energy -133733.234030 kJ/mol
# GULP energy per Si atom -5572.218085 kJ/mol
# Density = 1.946511 g / cm^3
# Si number density = 19.509518 Si / 1000 Ang^3
#
#
#
# Elastic Constant Matrix: (Units=GPa)
#
#
# Indices 1 2 3 4 5 6 
#
# 1 75.3730 58.6138 37.6818 0.0002 -1.3918 0.0000
# 2 58.6138 125.0143 64.0523 0.0004 16.9749 0.0001
# 3 37.6818 64.0523 72.0419 0.0022 0.3815 -0.0002
# 4 0.0002 0.0004 0.0022 33.1011 0.0005 -4.7842
# 5 -1.3918 16.9749 0.3815 0.0005 19.0021 -0.0001
# 6 0.0000 0.0001 -0.0002 -4.7842 -0.0001 17.1582
#
#
#
# Elastic Compliance Matrix: (Units=1/GPa)
#
#
# Indices 1 2 3 4 5 6 
#
# 1 0.023585 -0.011684 -0.002012 0.000000 0.012206 0.000000
# 2 -0.011684 0.024480 -0.015535 0.000001 -0.022413 0.000000
# 3 -0.002012 -0.015535 0.028676 -0.000002 0.013155 0.000000
# 4 0.000000 0.000001 -0.000002 0.031479 -0.000002 0.008777
# 5 0.012206 -0.022413 0.013155 -0.000002 0.073277 0.000000
# 6 0.000000 0.000000 0.000000 0.008777 0.000000 0.060729
#
#
# Mechanical properties :
#
#
# Convention : Reuss Voigt Hill
#
# Bulk Modulus (GPa) = 54.71165 65.90278 60.30721
# Shear Modulus (GPa) = 16.29820 21.32436 18.81128
#
# Velocity S-wave (km/s) = 2.89346 3.30968 3.10854
# Velocity P-wave (km/s) = 6.26636 6.96121 6.62290
#
# Compressibility (1/GPa) = 0.01827764
#
# Stress axis : x y z
#
# Youngs Moduli (GPa) = 42.39961 40.84947 34.87238
#
# Poissons Ratio (x) = 0.47730 0.07018
# Poissons Ratio (y) = 0.49541 0.54174
# Poissons Ratio (z) = 0.08533 0.63460
#
# Static dielectric constant tensor:
#      x y z
#    x 1.747340 0.000000 -0.026140 
#    y 0.000000 1.675460 0.000000 
#    z -0.026140 0.000000 1.709220 
# 
# From -- ./inp_files/251998.got.cif
#   From: 2010.05.17/outbox.cif.g08.bks.cpg/sg15_126_cif.got.tgz:251998.got - 2010.06.03 18:47:42.
