data_PCOD9274254
_publ_section_title
;
Structure prediction by ZEFSAII (Michael W. Deem and Ramdas Pophale) SiO2 
 PCOD9274254
Probable space group: C 2/C
;
_chemical_formula_sum "Si O2"
_cell_formula_units_Z 52
_cell_length_a 20.923972
_cell_length_b 25.679512
_cell_length_c 4.871952
_cell_angle_alpha 90.000000
_cell_angle_beta 116.716657
_cell_angle_gamma 90.000000
_cell_volume 2338.311754
_symmetry_space_group_name_H-M "C 2/C"
_symmetry_group_IT_number 15
_symmetry_cell_setting 'monoclinic'
loop_
_space_group_symop_operation_xyz
x,y,z
-x,y,1/2-z
-x,-y,-z
x,-y,1/2+z
1/2+x,1/2+y,z
1/2-x,1/2+y,1/2-z
1/2-x,1/2-y,-z
1/2+x,1/2-y,1/2+z
loop_
_atom_site_type_symbol
_atom_site_label
_atom_site_fract_x
_atom_site_fract_y
_atom_site_fract_z
Si Si1 0.653706 0.135783 0.899832
Si Si2 0.768132 0.534429 0.627877
Si Si3 0.926017 0.676538 0.272001
Si Si4 0.898239 0.964486 0.737817
Si Si5 0.572183 0.710043 0.737031
Si Si6 0.500000 0.613331 0.750000
Si Si7 0.270666 0.286103 0.787735
O O1 0.592023 0.138520 0.011375
O O2 0.722522 0.162756 0.173455
O O3 0.677314 0.079003 0.850318
O O4 0.630843 0.168102 0.584130
O O5 0.777235 0.483181 0.458050
O O6 0.685563 0.550822 0.414092
O O7 0.916731 0.734625 0.395397
O O8 0.000000 0.667433 0.250000
O O9 0.911062 0.984507 0.454717
O O10 0.947364 0.920427 0.962004
O O11 0.500000 0.727020 0.750000
O O12 0.546051 0.651086 0.630832
O O13 0.645188 0.702298 0.042291
O O14 0.250000 0.250000 0.500000
O O15 0.250000 0.250000 0.000000
#
# Coordination Sequence:
#
# PCOD9274254 Si02
#       7
#     8   8   8   8   8   4   8
#     4  12  22  40  70  89 128 169 211 261 325 383
#     4  10  22  40  66  95 124 158 211 266 318 378
#     4  11  23  42  62  93 126 172 206 254 325 388
#     4  10  21  40  61  88 125 167 214 260 312 367
#     4   9  21  39  60  88 133 165 209 257 306 373
#     4  10  20  38  62  88 130 168 216 252 308 372
#     4  12  22  40  60  92 125 166 215 261 307 367
#
# _framework density 22.238268000000001
#
# number of rings (size 3 to 8) (size 9 to 14) (size 15 to 20)
#    0.462    0.923    3.077    2.769    0.000    0.000 
#    0.000   10.000    0.000    9.231    0.000    0.000 
#    0.000    0.000    0.000    0.000    0.000    0.000 
#
# Total GULP energy -144952.397559 kJ/mol
# GULP energy per Si atom -5575.092214 kJ/mol
# Density = 2.218765 g / cm^3
# Si number density = 22.238268 Si / 1000 Ang^3
#
#
#
# Elastic Constant Matrix: (Units=GPa)
#
#
# Indices 1 2 3 4 5 6 
#
# 1 89.5719 26.8731 30.0234 0.0000 9.6119 0.0000
# 2 26.8731 73.2538 8.1463 0.0000 15.2007 0.0000
# 3 30.0234 8.1463 73.5710 0.0000 -3.0684 0.0000
# 4 0.0000 0.0000 0.0000 15.6511 0.0000 15.2650
# 5 9.6119 15.2007 -3.0684 0.0000 40.1709 0.0000
# 6 0.0000 0.0000 0.0000 15.2650 0.0000 42.0336
#
#
#
# Elastic Compliance Matrix: (Units=1/GPa)
#
#
# Indices 1 2 3 4 5 6 
#
# 1 0.014548 -0.004241 -0.005563 0.000000 -0.002301 0.000000
# 2 -0.004241 0.016314 -0.000292 0.000000 -0.005181 0.000000
# 3 -0.005563 -0.000292 0.016006 0.000000 0.002664 0.000000
# 4 0.000000 0.000000 0.000000 0.098937 0.000000 -0.035930
# 5 -0.002301 -0.005181 0.002664 0.000000 0.027608 0.000000
# 6 0.000000 0.000000 0.000000 -0.035930 0.000000 0.036839
#
#
# Mechanical properties :
#
#
# Convention : Reuss Voigt Hill
#
# Bulk Modulus (GPa) = 37.48599 40.72026 39.10312
# Shear Modulus (GPa) = 20.89099 30.99470 25.94285
#
# Velocity S-wave (km/s) = 3.06832 3.73735 3.41924
# Velocity P-wave (km/s) = 5.42640 6.08066 5.76282
#
# Compressibility (1/GPa) = 0.02667663
#
# Stress axis : x y z
#
# Youngs Moduli (GPa) = 68.73667 61.29535 62.47615
#
# Poissons Ratio (x) = 0.25994 0.34758
# Poissons Ratio (y) = 0.29150 0.01824
# Poissons Ratio (z) = 0.38241 0.01789
#
# Static dielectric constant tensor:
#      x y z
#    x 1.860970 0.000000 0.014310 
#    y 0.000000 1.867690 0.000000 
#    z 0.014310 0.000000 1.797200 
# 
# From -- ./inp_files/16239.got.cif
#   From: 2010.05.17/outbox.cif.g08.bks.cpg/sg15_9_cif.got.tgz:16239.got - 2010.06.03 18:47:42.
