data_PCOD9274694
_publ_section_title
;
Structure prediction by ZEFSAII (Michael W. Deem and Ramdas Pophale) SiO2 
 PCOD9274694
Probable space group: C 2/C
;
_chemical_formula_sum "Si O2"
_cell_formula_units_Z 40
_cell_length_a 25.146214
_cell_length_b 11.732707
_cell_length_c 12.344976
_cell_angle_alpha 90.000000
_cell_angle_beta 28.787872
_cell_angle_gamma 90.000000
_cell_volume 1753.956662
_symmetry_space_group_name_H-M "C 2/C"
_symmetry_group_IT_number 15
_symmetry_cell_setting 'monoclinic'
loop_
_space_group_symop_operation_xyz
x,y,z
-x,y,1/2-z
-x,-y,-z
x,-y,1/2+z
1/2+x,1/2+y,z
1/2-x,1/2+y,1/2-z
1/2-x,1/2-y,-z
1/2+x,1/2-y,1/2+z
loop_
_atom_site_type_symbol
_atom_site_label
_atom_site_fract_x
_atom_site_fract_y
_atom_site_fract_z
Si Si1 0.906993 0.279968 0.999831
Si Si2 0.500000 0.558162 0.750000
Si Si3 0.689660 0.285531 0.266113
Si Si4 0.000000 0.301535 0.250000
Si Si5 0.698914 0.438091 0.042133
Si Si6 0.407710 0.913118 0.208334
O O1 0.792210 0.324146 0.156878
O O2 0.919299 0.311781 0.101653
O O3 0.925918 0.144956 0.954981
O O4 0.000000 0.326966 0.750000
O O5 0.405684 0.512331 0.837579
O O6 0.583736 0.270556 0.528865
O O7 0.665555 0.370164 0.210398
O O8 0.733129 0.162496 0.143431
O O9 0.067542 0.377409 0.214267
O O10 0.787507 0.533234 0.911991
O O11 0.500000 0.000000 0.000000
#
# Coordination Sequence:
#
# PCOD9274694 Si02
#       6
#     8   4   8   4   8   8
#     4   9  20  38  68  92 126 170 214 258 318 385
#     4   8  18  37  65  90 120 178 214 240 311 398
#     4  10  21  39  63  93 129 172 214 255 321 390
#     4  12  26  39  63 104 132 166 214 272 319 378
#     4  10  20  38  64  94 127 174 214 258 319 391
#     4  12  24  36  65 101 135 154 212 280 329 360
#
# _framework density 22.805579999999999
#
# number of rings (size 3 to 8) (size 9 to 14) (size 15 to 20)
#    0.600    1.200    2.000    2.400    4.200    0.800 
#    0.000    1.000    0.000    7.200    0.000    0.000 
#    0.000    0.000    0.000    0.000    0.000    0.000 
#
# Total GULP energy -111733.403239 kJ/mol
# GULP energy per Si atom -5586.670162 kJ/mol
# Density = 2.275367 g / cm^3
# Si number density = 22.805580 Si / 1000 Ang^3
#
#
#
# Elastic Constant Matrix: (Units=GPa)
#
#
# Indices 1 2 3 4 5 6 
#
# 1 195.8056 31.1791 72.1760 0.0000 -18.0571 0.0000
# 2 31.1791 13.2560 22.0394 0.0000 -1.7678 0.0000
# 3 72.1760 22.0394 144.5064 0.0000 -7.6692 0.0000
# 4 0.0000 0.0000 0.0000 34.7733 0.0000 -3.1238
# 5 -18.0571 -1.7678 -7.6692 0.0000 50.0155 0.0000
# 6 0.0000 0.0000 0.0000 -3.1238 0.0000 5.9438
#
#
#
# Elastic Compliance Matrix: (Units=1/GPa)
#
#
# Indices 1 2 3 4 5 6 
#
# 1 0.008679 -0.017555 -0.001537 0.000000 0.002277 0.000000
# 2 -0.017555 0.136647 -0.012252 0.000000 -0.003387 0.000000
# 3 -0.001537 -0.012252 0.009582 0.000000 0.000481 0.000000
# 4 0.000000 0.000000 0.000000 0.030183 0.000000 0.015863
# 5 0.002277 -0.003387 0.000481 0.000000 0.020770 0.000000
# 6 0.000000 0.000000 0.000000 0.015863 0.000000 0.176579
#
#
# Mechanical properties :
#
#
# Convention : Reuss Voigt Hill
#
# Bulk Modulus (GPa) = 10.84365 67.15079 38.99722
# Shear Modulus (GPa) = 10.50713 33.35808 21.93261
#
# Velocity S-wave (km/s) = 2.14878 3.82870 3.10453
# Velocity P-wave (km/s) = 3.30477 7.00386 5.47611
#
# Compressibility (1/GPa) = 0.09221990
#
# Stress axis : x y z
#
# Youngs Moduli (GPa) = 115.22267 7.31813 104.36465
#
# Poissons Ratio (x) = 0.12847 0.16036
# Poissons Ratio (y) = 2.02272 1.27872
# Poissons Ratio (z) = 0.17704 0.08966
#
# Static dielectric constant tensor:
#      x y z
#    x 1.836420 0.000000 -0.006110 
#    y 0.000000 1.896510 0.000000 
#    z -0.006110 0.000000 1.810870 
# 
# From -- ./inp_files/122815.got.cif
#   From: 2010.05.17/outbox.cif.g08.bks.cpg/sg15_62_cif.got.tgz:122815.got - 2010.06.03 18:47:42.
