data_PCOD9274800
_publ_section_title
;
Structure prediction by ZEFSAII (Michael W. Deem and Ramdas Pophale) SiO2 
 PCOD9274800
Probable space group: C 2/C
;
_chemical_formula_sum "Si O2"
_cell_formula_units_Z 48
_cell_length_a 13.833710
_cell_length_b 11.194672
_cell_length_c 20.685231
_cell_angle_alpha 90.000000
_cell_angle_beta 39.915727
_cell_angle_gamma 90.000000
_cell_volume 2055.490661
_symmetry_space_group_name_H-M "C 2/C"
_symmetry_group_IT_number 15
_symmetry_cell_setting 'monoclinic'
loop_
_space_group_symop_operation_xyz
x,y,z
-x,y,1/2-z
-x,-y,-z
x,-y,1/2+z
1/2+x,1/2+y,z
1/2-x,1/2+y,1/2-z
1/2-x,1/2-y,-z
1/2+x,1/2-y,1/2+z
loop_
_atom_site_type_symbol
_atom_site_label
_atom_site_fract_x
_atom_site_fract_y
_atom_site_fract_z
Si Si1 0.500000 0.767962 0.750000
Si Si2 0.431932 0.755745 0.418064
Si Si3 0.820762 0.880460 0.087216
Si Si4 0.018091 0.516770 0.067613
Si Si5 0.500000 0.755348 0.250000
Si Si6 0.257341 0.603915 0.037558
Si Si7 0.439502 0.272848 0.148249
O O1 0.380663 0.846878 0.849719
O O2 0.586482 0.701302 0.763068
O O3 0.250000 0.750000 0.500000
O O4 0.439450 0.699352 0.485336
O O5 0.503467 0.691801 0.318385
O O6 0.503003 0.887848 0.387612
O O7 0.649147 0.835020 0.167435
O O8 0.852476 0.860365 0.145615
O O9 0.830164 0.005627 0.046984
O O10 0.919233 0.632158 0.140593
O O11 0.186325 0.547724 0.008655
O O12 0.000000 0.500000 0.000000
O O13 0.385857 0.697431 0.955322
#
# Coordination Sequence:
#
# PCOD9274800 Si02
#       7
#     4   8   8   8   4   8   8
#     4  10  23  44  63  94 126 175 222 259 318 414
#     4  10  20  38  65  92 127 165 220 273 312 378
#     4  11  22  42  67  96 128 169 223 266 332 392
#     4  11  20  37  67  91 125 173 222 255 322 391
#     4  10  21  38  67  96 122 171 216 273 322 376
#     4  11  23  43  67  92 134 172 213 276 333 387
#     4  11  25  42  65  97 131 174 213 272 341 392
#
# _framework density 23.352087999999998
#
# number of rings (size 3 to 8) (size 9 to 14) (size 15 to 20)
#    0.000    1.333    5.000    3.000    2.333    1.333 
#    3.000    0.833    3.667    0.000    0.000    0.000 
#    0.000    0.000    0.000    0.000    0.000    0.000 
#
# Total GULP energy -133826.700994 kJ/mol
# GULP energy per Si atom -5576.112541 kJ/mol
# Density = 2.329894 g / cm^3
# Si number density = 23.352088 Si / 1000 Ang^3
#
#
#
# Elastic Constant Matrix: (Units=GPa)
#
#
# Indices 1 2 3 4 5 6 
#
# 1 150.5026 33.4426 32.1673 0.0000 52.4157 0.0000
# 2 33.4426 57.5383 21.6072 0.0000 11.0889 0.0000
# 3 32.1673 21.6072 110.8527 0.0000 27.8573 0.0000
# 4 0.0000 0.0000 0.0000 7.8890 0.0000 10.2197
# 5 52.4157 11.0889 27.8573 0.0000 52.8475 0.0000
# 6 0.0000 0.0000 0.0000 10.2197 0.0000 30.9202
#
#
#
# Elastic Compliance Matrix: (Units=1/GPa)
#
#
# Indices 1 2 3 4 5 6 
#
# 1 0.011192 -0.004615 0.000228 0.000000 -0.010252 0.000000
# 2 -0.004615 0.020904 -0.003208 0.000000 0.001882 0.000000
# 3 0.000228 -0.003208 0.010914 0.000000 -0.005306 0.000000
# 4 0.000000 0.000000 0.000000 0.221674 0.000000 -0.073268
# 5 -0.010252 0.001882 -0.005306 0.000000 0.031493 0.000000
# 6 0.000000 0.000000 0.000000 -0.073268 0.000000 0.056558
#
#
# Mechanical properties :
#
#
# Convention : Reuss Voigt Hill
#
# Bulk Modulus (GPa) = 35.94611 54.81419 45.38015
# Shear Modulus (GPa) = 13.25568 33.77642 23.51605
#
# Velocity S-wave (km/s) = 2.38511 3.80728 3.17680
# Velocity P-wave (km/s) = 4.79703 6.54607 5.73858
#
# Compressibility (1/GPa) = 0.02781942
#
# Stress axis : x y z
#
# Youngs Moduli (GPa) = 89.35307 47.83755 91.62953
#
# Poissons Ratio (x) = 0.22076 -0.02092
# Poissons Ratio (y) = 0.41234 0.29399
# Poissons Ratio (z) = -0.02040 0.15348
#
# Static dielectric constant tensor:
#      x y z
#    x 4.657490 0.000000 3.541070 
#    y 0.000000 1.914520 0.000000 
#    z 3.541070 0.000000 6.603140 
# 
# From -- ./inp_files/243953.got.cif
#   From: 2010.05.17/outbox.cif.g08.bks.cpg/sg15_122_cif.got.tgz:243953.got - 2010.06.03 18:47:42.
