data_PCOD9274383
_publ_section_title
;
Structure prediction by ZEFSAII (Michael W. Deem and Ramdas Pophale) SiO2 
 PCOD9274383
Probable space group: C 2/C
;
_chemical_formula_sum "Si O2"
_cell_formula_units_Z 40
_cell_length_a 10.611428
_cell_length_b 19.910017
_cell_length_c 8.702935
_cell_angle_alpha 90.000000
_cell_angle_beta 74.354865
_cell_angle_gamma 90.000000
_cell_volume 1770.578277
_symmetry_space_group_name_H-M "C 2/C"
_symmetry_group_IT_number 15
_symmetry_cell_setting 'monoclinic'
loop_
_space_group_symop_operation_xyz
x,y,z
-x,y,1/2-z
-x,-y,-z
x,-y,1/2+z
1/2+x,1/2+y,z
1/2-x,1/2+y,1/2-z
1/2-x,1/2-y,-z
1/2+x,1/2-y,1/2+z
loop_
_atom_site_type_symbol
_atom_site_label
_atom_site_fract_x
_atom_site_fract_y
_atom_site_fract_z
Si Si1 0.020812 0.842002 0.074369
Si Si2 0.259742 0.583767 0.692059
Si Si3 0.264161 0.057149 0.144485
Si Si4 0.500000 0.877099 0.750000
Si Si5 0.000000 0.146931 0.250000
Si Si6 0.202288 0.323090 0.460670
O O1 0.913373 0.900265 0.116786
O O2 0.000000 0.807041 0.250000
O O3 0.170355 0.865506 0.026385
O O4 0.997744 0.811492 0.911564
O O5 0.201429 0.566267 0.545942
O O6 0.249948 0.520239 0.805727
O O7 0.197252 0.651266 0.787304
O O8 0.382354 0.083161 0.210003
O O9 0.129887 0.100000 0.212158
O O10 0.569791 0.836515 0.591632
O O11 0.250000 0.250000 0.500000
#
# Coordination Sequence:
#
# PCOD9274383 Si02
#       6
#     8   8   8   4   4   8
#     4   9  20  39  65  97 137 179 239 284 348 416
#     4  10  24  42  72 104 142 189 238 297 364 434
#     4  11  24  41  72 106 147 180 235 300 372 437
#     4  12  26  46  71 105 146 194 232 298 382 420
#     4  10  20  38  63 105 136 180 228 286 348 446
#     4  11  25  45  69  99 144 193 244 296 356 431
#
# _framework density 22.591487999999998
#
# number of rings (size 3 to 8) (size 9 to 14) (size 15 to 20)
#    0.000    1.600    2.000    1.200   11.200    5.600 
#    0.000    3.000    0.000    0.000    0.000    0.000 
#    0.000    0.000    0.000    0.000    0.000    0.000 
#
# Total GULP energy -111427.342742 kJ/mol
# GULP energy per Si atom -5571.367137 kJ/mol
# Density = 2.254007 g / cm^3
# Si number density = 22.591488 Si / 1000 Ang^3
#
#
#
# Elastic Constant Matrix: (Units=GPa)
#
#
# Indices 1 2 3 4 5 6 
#
# 1 113.2226 32.6011 32.2974 0.0000 -7.2729 0.0000
# 2 32.6011 76.9680 50.5664 0.0000 -2.0583 0.0000
# 3 32.2974 50.5664 196.1913 0.0000 20.2349 0.0000
# 4 0.0000 0.0000 0.0000 25.5914 0.0000 -7.7650
# 5 -7.2729 -2.0583 20.2349 0.0000 45.2827 0.0000
# 6 0.0000 0.0000 0.0000 -7.7650 0.0000 8.6308
#
#
#
# Elastic Compliance Matrix: (Units=1/GPa)
#
#
# Indices 1 2 3 4 5 6 
#
# 1 0.010284 -0.003688 -0.000939 0.000000 0.001904 0.000000
# 2 -0.003688 0.017269 -0.004050 0.000000 0.002002 0.000000
# 3 -0.000939 -0.004050 0.006636 0.000000 -0.003300 0.000000
# 4 0.000000 0.000000 0.000000 0.053748 0.000000 0.048356
# 5 0.001904 0.002002 -0.003300 0.000000 0.023955 0.000000
# 6 0.000000 0.000000 0.000000 0.048356 0.000000 0.159368
#
#
# Mechanical properties :
#
#
# Convention : Reuss Voigt Hill
#
# Bulk Modulus (GPa) = 59.40188 68.59018 63.99603
# Shear Modulus (GPa) = 16.99372 33.96213 25.47792
#
# Velocity S-wave (km/s) = 2.74563 3.88147 3.36187
# Velocity P-wave (km/s) = 6.03344 7.10737 6.59231
#
# Compressibility (1/GPa) = 0.01683448
#
# Stress axis : x y z
#
# Youngs Moduli (GPa) = 97.23617 57.90637 150.69553
#
# Poissons Ratio (x) = 0.21359 0.14145
# Poissons Ratio (y) = 0.35865 0.61036
# Poissons Ratio (z) = 0.09127 0.23454
#
# Static dielectric constant tensor:
#      x y z
#    x 1.829010 0.000000 0.012700 
#    y 0.000000 1.847600 0.000000 
#    z 0.012700 0.000000 1.966330 
# 
# From -- ./inp_files/30336.got.cif
#   From: 2010.05.17/outbox.cif.g08.bks.cpg/sg15_16_cif.got.tgz:30336.got - 2010.06.03 18:47:42.
