data_PCOD9274266
_publ_section_title
;
Structure prediction by ZEFSAII (Michael W. Deem and Ramdas Pophale) SiO2 
 PCOD9274266
Probable space group: C 2/C
;
_chemical_formula_sum "Si O2"
_cell_formula_units_Z 64
_cell_length_a 14.605433
_cell_length_b 24.962853
_cell_length_c 18.099829
_cell_angle_alpha 90.000000
_cell_angle_beta 27.928163
_cell_angle_gamma 90.000000
_cell_volume 3090.770681
_symmetry_space_group_name_H-M "C 2/C"
_symmetry_group_IT_number 15
_symmetry_cell_setting 'monoclinic'
loop_
_space_group_symop_operation_xyz
x,y,z
-x,y,1/2-z
-x,-y,-z
x,-y,1/2+z
1/2+x,1/2+y,z
1/2-x,1/2+y,1/2-z
1/2-x,1/2-y,-z
1/2+x,1/2-y,1/2+z
loop_
_atom_site_type_symbol
_atom_site_label
_atom_site_fract_x
_atom_site_fract_y
_atom_site_fract_z
Si Si1 0.615840 0.264925 0.432648
Si Si2 0.705549 0.986172 0.058521
Si Si3 0.045812 0.352694 0.491782
Si Si4 0.878712 0.053944 0.576675
Si Si5 0.473886 0.046380 0.957860
Si Si6 0.970605 0.148218 0.617552
Si Si7 0.659195 0.889011 0.572429
Si Si8 0.034926 0.223937 0.147065
O O1 0.541905 0.204038 0.472755
O O2 0.546943 0.295807 0.410581
O O3 0.534368 0.295781 0.563191
O O4 0.851056 0.264769 0.274289
O O5 0.500000 0.986133 0.250000
O O6 0.836726 0.949106 0.018666
O O7 0.686145 0.963749 0.990369
O O8 0.740992 0.049602 0.018764
O O9 0.269212 0.358535 0.305044
O O10 0.058526 0.369108 0.568708
O O11 0.931853 0.399147 0.530336
O O12 0.674951 0.049576 0.767136
O O13 0.983522 0.103214 0.543235
O O14 0.000000 0.000000 0.500000
O O15 0.500000 0.000000 0.000000
O O16 0.153183 0.145804 0.541118
O O17 0.500000 0.884507 0.750000
O O18 0.000000 0.193726 0.250000
O O19 0.250000 0.250000 0.000000
#
# Coordination Sequence:
#
# PCOD9274266 Si02
#       8
#     8   8   8   8   8   8   8   8
#     4  11  22  43  64  96 135 170 216 267 322 381
#     4   9  18  37  59  92 124 159 210 257 319 387
#     4  11  24  41  64  95 131 172 215 268 329 386
#     4  10  20  38  62  89 122 161 210 263 317 383
#     4  10  20  38  62  89 122 164 206 264 321 379
#     4  11  24  41  64  95 129 173 216 269 327 388
#     4  11  23  38  66  92 125 173 217 268 324 387
#     4   9  20  42  69  91 120 171 218 265 318 376
#
# _framework density 20.706810000000001
#
# number of rings (size 3 to 8) (size 9 to 14) (size 15 to 20)
#    0.000    1.750    3.750    0.375    1.750    0.500 
#    6.750    0.625    0.000    0.000    0.000    0.000 
#    0.000    0.000    0.000    0.000    0.000    0.000 
#
# Total GULP energy -178199.368908 kJ/mol
# GULP energy per Si atom -5568.730278 kJ/mol
# Density = 2.065968 g / cm^3
# Si number density = 20.706810 Si / 1000 Ang^3
#
#
#
# Elastic Constant Matrix: (Units=GPa)
#
#
# Indices 1 2 3 4 5 6 
#
# 1 153.6550 38.2453 31.5866 -0.0164 28.2499 -0.0053
# 2 38.2453 85.4792 9.1685 -0.0760 9.3654 0.0101
# 3 31.5866 9.1685 49.0812 -0.1238 10.1672 -0.0158
# 4 -0.0164 -0.0760 -0.1238 10.8939 -0.0179 6.5303
# 5 28.2499 9.3654 10.1672 -0.0179 39.5436 -0.0006
# 6 -0.0053 0.0101 -0.0158 6.5303 -0.0006 26.4325
#
#
#
# Elastic Compliance Matrix: (Units=1/GPa)
#
#
# Indices 1 2 3 4 5 6 
#
# 1 0.008993 -0.003062 -0.004262 -0.000075 -0.004603 0.000019
# 2 -0.003062 0.013197 -0.000317 0.000101 -0.000856 -0.000031
# 3 -0.004262 -0.000317 0.023798 0.000292 -0.002999 -0.000059
# 4 -0.000075 0.000101 0.000292 0.107757 0.000003 -0.026622
# 5 -0.004603 -0.000856 -0.002999 0.000003 0.029551 -0.000002
# 6 0.000019 -0.000031 -0.000059 -0.026622 -0.000002 0.044409
#
#
# Mechanical properties :
#
#
# Convention : Reuss Voigt Hill
#
# Bulk Modulus (GPa) = 32.56695 49.57957 41.07326
# Shear Modulus (GPa) = 19.74553 29.32167 24.53360
#
# Velocity S-wave (km/s) = 3.09135 3.76711 3.44584
# Velocity P-wave (km/s) = 5.33889 6.55111 5.97582
#
# Compressibility (1/GPa) = 0.03070598
#
# Stress axis : x y z
#
# Youngs Moduli (GPa) = 111.20118 75.77636 42.01974
#
# Poissons Ratio (x) = 0.23204 0.17908
# Poissons Ratio (y) = 0.34051 0.01332
# Poissons Ratio (z) = 0.47393 0.02401
#
# Static dielectric constant tensor:
#      x y z
#    x 1.747130 -0.000040 0.045260 
#    y -0.000040 1.741370 0.000020 
#    z 0.045260 0.000020 1.745790 
# 
# From -- ./inp_files/207334.got.cif
#   From: 2010.05.17/outbox.cif.g08.bks.cpg/sg15_104_cif.got.tgz:207334.got - 2010.06.03 18:47:42.
