data_PCOD9274376
_publ_section_title
;
Structure prediction by ZEFSAII (Michael W. Deem and Ramdas Pophale) SiO2 
 PCOD9274376
Probable space group: C 2/C
;
_chemical_formula_sum "Si O2"
_cell_formula_units_Z 44
_cell_length_a 5.237732
_cell_length_b 24.469130
_cell_length_c 14.922793
_cell_angle_alpha 90.000000
_cell_angle_beta 73.127962
_cell_angle_gamma 90.000000
_cell_volume 1830.221222
_symmetry_space_group_name_H-M "C 2/C"
_symmetry_group_IT_number 15
_symmetry_cell_setting 'monoclinic'
loop_
_space_group_symop_operation_xyz
x,y,z
-x,y,1/2-z
-x,-y,-z
x,-y,1/2+z
1/2+x,1/2+y,z
1/2-x,1/2+y,1/2-z
1/2-x,1/2-y,-z
1/2+x,1/2-y,1/2+z
loop_
_atom_site_type_symbol
_atom_site_label
_atom_site_fract_x
_atom_site_fract_y
_atom_site_fract_z
Si Si1 0.087610 0.565053 0.895197
Si Si2 0.598584 0.500653 0.887740
Si Si3 0.723765 0.800410 0.648492
Si Si4 0.000000 0.876952 0.750000
Si Si5 0.302691 0.814789 0.185739
Si Si6 0.531703 0.907357 0.604177
O O1 0.351490 0.527177 0.859705
O O2 0.132250 0.627579 0.864959
O O3 0.849153 0.541397 0.860356
O O4 0.004684 0.566364 0.009005
O O5 0.735240 0.440931 0.867810
O O6 0.500000 0.500000 0.000000
O O7 0.500000 0.796944 0.750000
O O8 0.953154 0.834794 0.672965
O O9 0.810392 0.738784 0.621105
O O10 0.613477 0.843564 0.587958
O O11 0.739451 0.909003 0.811347
O O12 0.500000 0.804878 0.250000
O O13 0.000000 0.819555 0.250000
#
# Coordination Sequence:
#
# PCOD9274376 Si02
#       6
#     8   8   8   4   8   8
#     4  11  24  42  69  95 129 175 221 264 332 392
#     4  10  22  42  66  93 131 172 208 272 335 382
#     4   9  20  38  62  92 129 172 211 268 336 375
#     4  10  20  38  62  98 130 172 212 264 334 388
#     4  11  23  45  67  90 133 176 217 272 329 390
#     4  10  22  38  67  98 129 172 217 274 325 392
#
# _framework density 24.040807999999998
#
# number of rings (size 3 to 8) (size 9 to 14) (size 15 to 20)
#    0.000    1.818    0.909    3.273    7.636    0.727 
#    1.636    3.636    0.000    0.000    0.000    0.000 
#    0.000    0.000    0.000    0.000    0.000    0.000 
#
# Total GULP energy -122921.246693 kJ/mol
# GULP energy per Si atom -5587.329395 kJ/mol
# Density = 2.398609 g / cm^3
# Si number density = 24.040808 Si / 1000 Ang^3
#
#
#
# Elastic Constant Matrix: (Units=GPa)
#
#
# Indices 1 2 3 4 5 6 
#
# 1 131.9666 46.1517 18.3998 0.0000 -31.8557 0.0000
# 2 46.1517 228.3279 28.3777 0.0000 -19.7357 0.0000
# 3 18.3998 28.3777 66.8939 0.0000 -14.4273 0.0000
# 4 0.0000 0.0000 0.0000 45.8967 0.0000 -5.7626
# 5 -31.8557 -19.7357 -14.4273 0.0000 24.9731 0.0000
# 6 0.0000 0.0000 0.0000 -5.7626 0.0000 34.6732
#
#
#
# Elastic Compliance Matrix: (Units=1/GPa)
#
#
# Indices 1 2 3 4 5 6 
#
# 1 0.011209 -0.001132 0.000329 0.000000 0.013594 0.000000
# 2 -0.001132 0.004926 -0.001428 0.000000 0.001625 0.000000
# 3 0.000329 -0.001428 0.017491 0.000000 0.009395 0.000000
# 4 0.000000 0.000000 0.000000 0.022252 0.000000 0.003698
# 5 0.013594 0.001625 0.009395 0.000000 0.064095 0.000000
# 6 0.000000 0.000000 0.000000 0.003698 0.000000 0.029455
#
#
# Mechanical properties :
#
#
# Convention : Reuss Voigt Hill
#
# Bulk Modulus (GPa) = 34.28857 68.11631 51.20244
# Shear Modulus (GPa) = 30.55996 43.39254 36.97625
#
# Velocity S-wave (km/s) = 3.56922 4.25308 3.92607
# Velocity P-wave (km/s) = 5.59279 7.24661 6.47274
#
# Compressibility (1/GPa) = 0.02916423
#
# Stress axis : x y z
#
# Youngs Moduli (GPa) = 89.21384 202.99146 57.17274
#
# Poissons Ratio (x) = 0.22969 -0.01880
# Poissons Ratio (y) = 0.10095 0.08165
# Poissons Ratio (z) = -0.02933 0.28991
#
# Static dielectric constant tensor:
#      x y z
#    x 1.993860 0.000000 0.041750 
#    y 0.000000 1.969700 0.000000 
#    z 0.041750 0.000000 1.914430 
# 
# From -- ./inp_files/185445.got.cif
#   From: 2010.05.17/outbox.cif.g08.bks.cpg/sg15_93_cif.got.tgz:185445.got - 2010.06.03 18:47:42.
