data_PCOD9274536
_publ_section_title
;
Structure prediction by ZEFSAII (Michael W. Deem and Ramdas Pophale) SiO2 
 PCOD9274536
Probable space group: C 2/C
;
_chemical_formula_sum "Si O2"
_cell_formula_units_Z 40
_cell_length_a 18.104180
_cell_length_b 11.072973
_cell_length_c 20.793966
_cell_angle_alpha 90.000000
_cell_angle_beta 156.753689
_cell_angle_gamma 90.000000
_cell_volume 1645.245530
_symmetry_space_group_name_H-M "C 2/C"
_symmetry_group_IT_number 15
_symmetry_cell_setting 'monoclinic'
loop_
_space_group_symop_operation_xyz
x,y,z
-x,y,1/2-z
-x,-y,-z
x,-y,1/2+z
1/2+x,1/2+y,z
1/2-x,1/2+y,1/2-z
1/2-x,1/2-y,-z
1/2+x,1/2-y,1/2+z
loop_
_atom_site_type_symbol
_atom_site_label
_atom_site_fract_x
_atom_site_fract_y
_atom_site_fract_z
Si Si1 0.920480 0.184403 0.983537
Si Si2 0.828994 0.632096 0.295944
Si Si3 0.978341 0.409238 0.352778
Si Si4 0.189969 0.953412 0.431918
Si Si5 0.802025 0.297656 0.627117
O O1 0.900774 0.264572 0.902008
O O2 0.729420 0.112186 0.840110
O O3 0.110506 0.107243 0.136888
O O4 0.948356 0.284952 0.059990
O O5 0.946125 0.509079 0.383237
O O6 0.821549 0.683009 0.217496
O O7 0.135599 0.458171 0.431003
O O8 0.240658 0.839622 0.426029
O O9 0.163891 0.889806 0.480130
O O10 0.000000 0.006352 0.250000
O O11 0.000000 0.320686 0.750000
#
# Coordination Sequence:
#
# PCOD9274536 Si02
#       5
#     8   8   8   8   8
#     4  10  25  40  65  97 127 171 214 251 318 389
#     4  11  21  40  67  96 129 165 203 268 318 373
#     4  11  22  46  62  92 131 168 216 263 313 374
#     4  10  22  39  66  95 128 168 205 266 319 370
#     4  10  20  38  64 101 129 155 209 261 322 382
#
# _framework density 24.312480999999998
#
# number of rings (size 3 to 8) (size 9 to 14) (size 15 to 20)
#    0.000    1.600    2.000    2.400    5.600    1.600 
#    7.200    1.000    0.000    0.000    0.000    0.000 
#    0.000    0.000    0.000    0.000    0.000    0.000 
#
# Total GULP energy -111927.165921 kJ/mol
# GULP energy per Si atom -5596.358296 kJ/mol
# Density = 2.425714 g / cm^3
# Si number density = 24.312481 Si / 1000 Ang^3
#
#
#
# Elastic Constant Matrix: (Units=GPa)
#
#
# Indices 1 2 3 4 5 6 
#
# 1 39.9027 10.2154 7.6442 -0.0040 7.9088 -0.0013
# 2 10.2154 42.9498 4.6778 -0.0032 16.8890 0.0015
# 3 7.6442 4.6778 95.9175 0.0026 32.9586 0.0019
# 4 -0.0040 -0.0032 0.0026 41.6450 0.0050 4.7820
# 5 7.9088 16.8890 32.9586 0.0050 34.0989 0.0005
# 6 -0.0013 0.0015 0.0019 4.7820 0.0005 28.7180
#
#
#
# Elastic Compliance Matrix: (Units=1/GPa)
#
#
# Indices 1 2 3 4 5 6 
#
# 1 0.027140 -0.005265 -0.000957 0.000002 -0.002762 0.000001
# 2 -0.005265 0.031821 0.005785 0.000004 -0.020132 -0.000003
# 3 -0.000957 0.005785 0.016662 0.000002 -0.018748 -0.000001
# 4 0.000002 0.000004 0.000002 0.024481 -0.000008 -0.004076
# 5 -0.002762 -0.020132 -0.018748 -0.000008 0.058059 0.000002
# 6 0.000001 -0.000003 -0.000001 -0.004076 0.000002 0.035500
#
#
# Mechanical properties :
#
#
# Convention : Reuss Voigt Hill
#
# Bulk Modulus (GPa) = 13.37800 24.87166 19.12483
# Shear Modulus (GPa) = 22.78395 31.30787 27.04591
#
# Velocity S-wave (km/s) = 3.06458 3.59239 3.33893
# Velocity P-wave (km/s) = 4.24696 5.24015 4.76948
#
# Compressibility (1/GPa) = 0.07474958
#
# Stress axis : x y z
#
# Youngs Moduli (GPa) = 36.84660 31.42540 60.01719
#
# Poissons Ratio (x) = 0.16545 0.05744
# Poissons Ratio (y) = 0.19399 -0.34721
# Poissons Ratio (z) = 0.03527 -0.18180
#
# Static dielectric constant tensor:
#      x y z
#    x 1.917000 0.000000 0.006030 
#    y 0.000000 1.937890 0.000000 
#    z 0.006030 0.000000 2.004000 
# 
# From -- ./inp_files/46104.got.cif
#   From: 2010.05.17/outbox.cif.g08.bks.cpg/sg15_24_cif.got.tgz:46104.got - 2010.06.03 18:47:42.
