data_PCOD9274439
_publ_section_title
;
Structure prediction by ZEFSAII (Michael W. Deem and Ramdas Pophale) SiO2 
 PCOD9274439
Probable space group: C 2/C
;
_chemical_formula_sum "Si O2"
_cell_formula_units_Z 44
_cell_length_a 15.300857
_cell_length_b 11.399065
_cell_length_c 14.634869
_cell_angle_alpha 90.000000
_cell_angle_beta 51.149478
_cell_angle_gamma 90.000000
_cell_volume 1987.886027
_symmetry_space_group_name_H-M "C 2/C"
_symmetry_group_IT_number 15
_symmetry_cell_setting 'monoclinic'
loop_
_space_group_symop_operation_xyz
x,y,z
-x,y,1/2-z
-x,-y,-z
x,-y,1/2+z
1/2+x,1/2+y,z
1/2-x,1/2+y,1/2-z
1/2-x,1/2-y,-z
1/2+x,1/2-y,1/2+z
loop_
_atom_site_type_symbol
_atom_site_label
_atom_site_fract_x
_atom_site_fract_y
_atom_site_fract_z
Si Si1 0.840643 0.083028 0.430946
Si Si2 0.291674 0.210231 0.832001
Si Si3 0.856191 0.571578 0.518021
Si Si4 0.100926 0.512124 0.302698
Si Si5 0.794775 0.255820 0.814515
Si Si6 0.000000 0.096218 0.750000
O O1 0.809455 0.156726 0.540865
O O2 0.845241 0.178686 0.346829
O O3 0.732512 0.005317 0.477727
O O4 0.943741 0.992972 0.360277
O O5 0.239804 0.238059 0.767990
O O6 0.385243 0.110896 0.756408
O O7 0.862803 0.515255 0.615951
O O8 0.808400 0.703151 0.559692
O O9 0.976548 0.562811 0.393014
O O10 0.175779 0.607921 0.201739
O O11 0.902177 0.176732 0.771535
#
# Coordination Sequence:
#
# PCOD9274439 Si02
#       6
#     8   8   8   8   8   4
#     4  10  21  41  58  92 122 163 206 264 304 380
#     4  10  22  37  64  87 126 160 212 258 314 365
#     4   9  20  38  61  86 125 159 211 253 310 368
#     4  10  20  38  63  90 118 170 205 254 311 375
#     4  10  21  41  60  91 124 165 204 266 304 377
#     4  10  24  40  62  86 130 162 208 252 322 366
#
# _framework density 22.134067000000002
#
# number of rings (size 3 to 8) (size 9 to 14) (size 15 to 20)
#    0.000    2.182    1.818    0.000    0.000    7.273 
#    3.273    3.636    0.000    0.000    0.000    0.000 
#    0.000    0.000    0.000    0.000    0.000    0.000 
#
# Total GULP energy -122999.652385 kJ/mol
# GULP energy per Si atom -5590.893290 kJ/mol
# Density = 2.208369 g / cm^3
# Si number density = 22.134067 Si / 1000 Ang^3
#
#
#
# Elastic Constant Matrix: (Units=GPa)
#
#
# Indices 1 2 3 4 5 6 
#
# 1 53.4179 23.2315 27.8429 0.0000 2.4519 0.0000
# 2 23.2315 109.6830 37.7033 0.0000 5.3635 0.0000
# 3 27.8429 37.7033 65.7788 0.0000 -4.7556 0.0000
# 4 0.0000 0.0000 0.0000 52.2864 0.0000 5.5530
# 5 2.4519 5.3635 -4.7556 0.0000 26.8972 0.0000
# 6 0.0000 0.0000 0.0000 5.5530 0.0000 18.6808
#
#
#
# Elastic Compliance Matrix: (Units=1/GPa)
#
#
# Indices 1 2 3 4 5 6 
#
# 1 0.024708 -0.001706 -0.009743 0.000000 -0.003635 0.000000
# 2 -0.001706 0.011799 -0.006280 0.000000 -0.003308 0.000000
# 3 -0.009743 -0.006280 0.023380 0.000000 0.006274 0.000000
# 4 0.000000 0.000000 0.000000 0.019749 0.000000 -0.005870
# 5 -0.003635 -0.003308 0.006274 0.000000 0.039279 0.000000
# 6 0.000000 0.000000 0.000000 -0.005870 0.000000 0.055276
#
#
# Mechanical properties :
#
#
# Convention : Reuss Voigt Hill
#
# Bulk Modulus (GPa) = 40.93695 45.15946 43.04821
# Shear Modulus (GPa) = 22.95782 28.91300 25.93541
#
# Velocity S-wave (km/s) = 3.22408 3.61815 3.42679
# Velocity P-wave (km/s) = 5.69164 6.15643 5.92859
#
# Compressibility (1/GPa) = 0.02442781
#
# Stress axis : x y z
#
# Youngs Moduli (GPa) = 40.47349 84.75269 42.77232
#
# Poissons Ratio (x) = 0.14462 0.41673
# Poissons Ratio (y) = 0.06906 0.26861
# Poissons Ratio (z) = 0.39433 0.53224
#
# Static dielectric constant tensor:
#      x y z
#    x 1.784500 0.000000 0.010670 
#    y 0.000000 1.810820 0.000000 
#    z 0.010670 0.000000 1.823410 
# 
# From -- ./inp_files/210515.got.cif
#   From: 2010.05.17/outbox.cif.g08.bks.cpg/sg15_106_cif.got.tgz:210515.got - 2010.06.03 18:47:42.
