data_PCOD9274197
_publ_section_title
;
Structure prediction by ZEFSAII (Michael W. Deem and Ramdas Pophale) SiO2 
 PCOD9274197
Probable space group: C 2/C
;
_chemical_formula_sum "Si O2"
_cell_formula_units_Z 64
_cell_length_a 9.505199
_cell_length_b 19.472027
_cell_length_c 17.906675
_cell_angle_alpha 90.000000
_cell_angle_beta 90.447732
_cell_angle_gamma 90.000000
_cell_volume 3314.164553
_symmetry_space_group_name_H-M "C 2/C"
_symmetry_group_IT_number 15
_symmetry_cell_setting 'monoclinic'
loop_
_space_group_symop_operation_xyz
x,y,z
-x,y,1/2-z
-x,-y,-z
x,-y,1/2+z
1/2+x,1/2+y,z
1/2-x,1/2+y,1/2-z
1/2-x,1/2-y,-z
1/2+x,1/2-y,1/2+z
loop_
_atom_site_type_symbol
_atom_site_label
_atom_site_fract_x
_atom_site_fract_y
_atom_site_fract_z
Si Si1 0.836571 0.797611 0.763727
Si Si2 0.591523 0.548984 0.449430
Si Si3 0.363076 0.901973 0.796758
Si Si4 0.854771 0.361747 0.288902
Si Si5 0.130873 0.829436 0.567035
Si Si6 0.348958 0.485836 0.212486
Si Si7 0.908391 0.563765 0.467743
Si Si8 0.393684 0.829931 0.461778
O O1 0.736398 0.835123 0.704391
O O2 0.822845 0.715405 0.760936
O O3 0.808276 0.822796 0.848439
O O4 0.000000 0.814475 0.750000
O O5 0.500000 0.500000 0.500000
O O6 0.498741 0.617495 0.435335
O O7 0.625029 0.509533 0.372510
O O8 0.743769 0.560483 0.487194
O O9 0.500000 0.887194 0.750000
O O10 0.408760 0.930008 0.877714
O O11 0.263717 0.959008 0.758068
O O12 0.726086 0.413120 0.277293
O O13 0.878513 0.356868 0.377653
O O14 0.000000 0.384890 0.250000
O O15 0.255170 0.848155 0.509840
O O16 0.087564 0.752066 0.543582
O O17 0.500000 0.488801 0.250000
O O18 0.000000 0.500000 0.500000
O O19 0.976882 0.632346 0.499982
#
# Coordination Sequence:
#
# PCOD9274197 Si02
#       8
#     8   8   8   8   8   8   8   8
#     4  10  20  38  62  86 116 154 195 244 300 359
#     4  11  23  38  58  83 114 152 197 244 291 350
#     4  11  22  37  60  87 117 154 199 246 295 356
#     4  10  22  40  61  86 119 155 194 244 304 363
#     4  10  20  38  63  87 118 158 198 242 300 360
#     4  11  23  38  58  83 115 150 194 245 293 353
#     4  11  23  38  58  86 122 158 199 249 298 358
#     4  10  21  39  61  88 122 158 196 243 299 362
#
# _framework density 19.311050999999999
#
# number of rings (size 3 to 8) (size 9 to 14) (size 15 to 20)
#    0.000    1.500    0.000    6.750    0.000    3.000 
#    0.000    1.250    0.000    0.000    0.000    0.000 
#    0.000    0.000    0.000    0.000    0.000    0.000 
#
# Total GULP energy -178719.487235 kJ/mol
# GULP energy per Si atom -5584.983976 kJ/mol
# Density = 1.926710 g / cm^3
# Si number density = 19.311051 Si / 1000 Ang^3
#
#
#
# Elastic Constant Matrix: (Units=GPa)
#
#
# Indices 1 2 3 4 5 6 
#
# 1 101.9233 50.4144 31.0317 0.0000 15.3297 0.0000
# 2 50.4144 71.3344 26.4979 0.0000 15.6105 0.0000
# 3 31.0317 26.4979 60.7447 0.0000 -1.3924 0.0000
# 4 0.0000 0.0000 0.0000 20.8688 0.0000 6.5466
# 5 15.3297 15.6105 -1.3924 0.0000 37.6636 0.0000
# 6 0.0000 0.0000 0.0000 6.5466 0.0000 44.0385
#
#
#
# Elastic Compliance Matrix: (Units=1/GPa)
#
#
# Indices 1 2 3 4 5 6 
#
# 1 0.016071 -0.009123 -0.004297 0.000000 -0.002919 0.000000
# 2 -0.009123 0.024123 -0.006012 0.000000 -0.006507 0.000000
# 3 -0.004297 -0.006012 0.021395 0.000000 0.005032 0.000000
# 4 0.000000 0.000000 0.000000 0.050262 0.000000 -0.007472
# 5 -0.002919 -0.006507 0.005032 0.000000 0.030622 0.000000
# 6 0.000000 0.000000 0.000000 -0.007472 0.000000 0.023818
#
#
# Mechanical properties :
#
#
# Convention : Reuss Voigt Hill
#
# Bulk Modulus (GPa) = 44.00276 49.98784 46.99530
# Shear Modulus (GPa) = 23.50383 28.91807 26.21095
#
# Velocity S-wave (km/s) = 3.49251 3.87394 3.68816
# Velocity P-wave (km/s) = 6.25294 6.77877 6.52115
#
# Compressibility (1/GPa) = 0.02272585
#
# Stress axis : x y z
#
# Youngs Moduli (GPa) = 62.22312 41.45401 46.73907
#
# Poissons Ratio (x) = 0.37818 0.20085
# Poissons Ratio (y) = 0.56766 0.28098
# Poissons Ratio (z) = 0.26739 0.24920
#
# Static dielectric constant tensor:
#      x y z
#    x 1.655960 0.000000 -0.009190 
#    y 0.000000 1.693180 0.000000 
#    z -0.009190 0.000000 1.680170 
# 
# From -- ./inp_files/192179.got.cif
#   From: 2010.05.17/outbox.cif.g08.bks.cpg/sg15_97_cif.got.tgz:192179.got - 2010.06.03 18:47:42.
