data_PCOD9274522
_publ_section_title
;
Structure prediction by ZEFSAII (Michael W. Deem and Ramdas Pophale) SiO2 
 PCOD9274522
Probable space group: C 2/C
;
_chemical_formula_sum "Si O2"
_cell_formula_units_Z 40
_cell_length_a 11.687777
_cell_length_b 19.023394
_cell_length_c 7.715282
_cell_angle_alpha 90.000000
_cell_angle_beta 114.307180
_cell_angle_gamma 90.000000
_cell_volume 1563.355452
_symmetry_space_group_name_H-M "C 2/C"
_symmetry_group_IT_number 15
_symmetry_cell_setting 'monoclinic'
loop_
_space_group_symop_operation_xyz
x,y,z
-x,y,1/2-z
-x,-y,-z
x,-y,1/2+z
1/2+x,1/2+y,z
1/2-x,1/2+y,1/2-z
1/2-x,1/2-y,-z
1/2+x,1/2-y,1/2+z
loop_
_atom_site_type_symbol
_atom_site_label
_atom_site_fract_x
_atom_site_fract_y
_atom_site_fract_z
Si Si1 0.500000 0.811582 0.250000
Si Si2 0.267653 0.873359 0.729276
Si Si3 0.405937 0.258742 0.347252
Si Si4 0.500000 0.952321 0.750000
Si Si5 0.197858 0.431780 0.404401
Si Si6 0.865554 0.083844 0.709622
O O1 0.534207 0.764321 0.434743
O O2 0.615477 0.865219 0.290187
O O3 0.281757 0.789128 0.746650
O O4 0.412284 0.902196 0.810193
O O5 0.199557 0.897027 0.513008
O O6 0.222181 0.904362 0.883048
O O7 0.500000 0.241032 0.250000
O O8 0.386054 0.341406 0.318079
O O9 0.398994 0.006059 0.605242
O O10 0.280869 0.456820 0.294918
O O11 0.000000 0.051197 0.750000
#
# Coordination Sequence:
#
# PCOD9274522 Si02
#       6
#     4   8   8   4   8   8
#     4   9  20  36  64 100 132 166 219 284 344 371
#     4  11  23  40  70 102 130 171 221 287 338 376
#     4  10  20  38  63  98 136 175 217 273 330 399
#     4  11  24  44  78 106 126 160 227 300 344 365
#     4  10  24  41  66 104 132 169 222 282 336 390
#     4  11  26  42  62  93 142 187 221 252 326 413
#
# _framework density 25.585992999999998
#
# number of rings (size 3 to 8) (size 9 to 14) (size 15 to 20)
#    0.000    1.600    1.000    2.400    8.400    8.800 
#    0.000    1.000    0.000    0.000    0.000    0.000 
#    0.000    0.000    0.000    0.000    0.000    0.000 
#
# Total GULP energy -112042.368595 kJ/mol
# GULP energy per Si atom -5602.118430 kJ/mol
# Density = 2.552776 g / cm^3
# Si number density = 25.585993 Si / 1000 Ang^3
#
#
#
# Elastic Constant Matrix: (Units=GPa)
#
#
# Indices 1 2 3 4 5 6 
#
# 1 117.8230 1.1907 46.5391 0.0000 -8.2453 0.0000
# 2 1.1907 82.7191 19.2777 0.0000 6.6161 0.0000
# 3 46.5391 19.2777 128.5019 0.0000 -14.3844 0.0000
# 4 0.0000 0.0000 0.0000 18.4362 0.0000 8.1681
# 5 -8.2453 6.6161 -14.3844 0.0000 20.7480 0.0000
# 6 0.0000 0.0000 0.0000 8.1681 0.0000 19.6674
#
#
#
# Elastic Compliance Matrix: (Units=1/GPa)
#
#
# Indices 1 2 3 4 5 6 
#
# 1 0.009977 0.000579 -0.003553 0.000000 0.001317 0.000000
# 2 0.000579 0.013225 -0.002862 0.000000 -0.005972 0.000000
# 3 -0.003553 -0.002862 0.010237 0.000000 0.006598 0.000000
# 4 0.000000 0.000000 0.000000 0.066472 0.000000 -0.027607
# 5 0.001317 -0.005972 0.006598 0.000000 0.055199 0.000000
# 6 0.000000 0.000000 0.000000 -0.027607 0.000000 0.062311
#
#
# Mechanical properties :
#
#
# Convention : Reuss Voigt Hill
#
# Bulk Modulus (GPa) = 45.94092 51.45100 48.69596
# Shear Modulus (GPa) = 21.15516 29.23942 25.19729
#
# Velocity S-wave (km/s) = 2.87858 3.38419 3.14157
# Velocity P-wave (km/s) = 5.38913 5.95172 5.67740
#
# Compressibility (1/GPa) = 0.02176709
#
# Stress axis : x y z
#
# Youngs Moduli (GPa) = 100.23119 75.61184 97.68858
#
# Poissons Ratio (x) = -0.04378 0.34706
# Poissons Ratio (y) = -0.05803 0.27961
# Poissons Ratio (z) = 0.35610 0.21642
#
# Static dielectric constant tensor:
#      x y z
#    x 2.070070 0.000000 0.019570 
#    y 0.000000 2.066040 0.000000 
#    z 0.019570 0.000000 1.967320 
# 
# From -- ./inp_files/32314.got.cif
#   From: 2010.05.17/outbox.cif.g08.bks.cpg/sg15_17_cif.got.tgz:32314.got - 2010.06.03 18:47:42.
