data_PCOD9274700
_publ_section_title
;
Structure prediction by ZEFSAII (Michael W. Deem and Ramdas Pophale) SiO2 
 PCOD9274700
Probable space group: C 2/C
;
_chemical_formula_sum "Si O2"
_cell_formula_units_Z 40
_cell_length_a 17.331103
_cell_length_b 9.718679
_cell_length_c 29.930584
_cell_angle_alpha 90.000000
_cell_angle_beta 162.468647
_cell_angle_gamma 90.000000
_cell_volume 1518.600199
_symmetry_space_group_name_H-M "C 2/C"
_symmetry_group_IT_number 15
_symmetry_cell_setting 'monoclinic'
loop_
_space_group_symop_operation_xyz
x,y,z
-x,y,1/2-z
-x,-y,-z
x,-y,1/2+z
1/2+x,1/2+y,z
1/2-x,1/2+y,1/2-z
1/2-x,1/2-y,-z
1/2+x,1/2-y,1/2+z
loop_
_atom_site_type_symbol
_atom_site_label
_atom_site_fract_x
_atom_site_fract_y
_atom_site_fract_z
Si Si1 0.500000 0.926904 0.250000
Si Si2 0.726522 0.539379 0.964328
Si Si3 0.874417 0.236867 0.823997
Si Si4 0.852127 0.188391 0.003708
Si Si5 0.884896 0.177867 0.447591
Si Si6 0.000000 0.925793 0.250000
O O1 0.563269 0.825608 0.325847
O O2 0.712091 0.041266 0.353616
O O3 0.534671 0.660916 0.873817
O O4 0.669056 0.429643 0.970543
O O5 0.623726 0.491003 0.859277
O O6 0.009803 0.606680 0.116474
O O7 0.572802 0.219151 0.648462
O O8 0.963916 0.183889 0.921861
O O9 0.977590 0.175816 0.023890
O O10 0.721461 0.319016 0.357926
#
# Coordination Sequence:
#
# PCOD9274700 Si02
#       6
#     4   8   8   8   8   4
#     4  11  22  34  60 101 132 162 223 272 318 381
#     4  10  20  38  65  97 130 170 222 271 317 390
#     4  10  21  40  63  96 133 171 219 269 326 382
#     4  12  22  37  67 100 126 168 226 276 314 383
#     4  10  20  38  64  94 132 174 219 265 322 391
#     4   9  18  38  66  93 128 176 215 264 320 395
#
# _framework density 26.340046999999998
#
# number of rings (size 3 to 8) (size 9 to 14) (size 15 to 20)
#    0.000    1.600    4.000    1.800    0.000    0.000 
#    0.000    5.000    0.000    0.000    0.000    0.000 
#    0.000    0.000    0.000    0.000    0.000    0.000 
#
# Total GULP energy -111498.865762 kJ/mol
# GULP energy per Si atom -5574.943288 kJ/mol
# Density = 2.628010 g / cm^3
# Si number density = 26.340047 Si / 1000 Ang^3
#
#
#
# Elastic Constant Matrix: (Units=GPa)
#
#
# Indices 1 2 3 4 5 6 
#
# 1 159.2655 16.0719 35.3358 0.0148 -39.0880 -0.0005
# 2 16.0719 52.2167 -7.9449 0.0172 8.7320 -0.0015
# 3 35.3358 -7.9449 106.5163 0.0337 -25.4123 0.0858
# 4 0.0148 0.0172 0.0337 31.9445 0.0147 -36.3730
# 5 -39.0880 8.7320 -25.4123 0.0147 35.2722 -0.0121
# 6 -0.0005 -0.0015 0.0858 -36.3730 -0.0121 117.8121
#
#
#
# Elastic Compliance Matrix: (Units=1/GPa)
#
#
# Indices 1 2 3 4 5 6 
#
# 1 0.009807 -0.005074 -0.000893 -0.000006 0.011480 0.000000
# 2 -0.005074 0.022616 0.000837 -0.000012 -0.010619 -0.000005
# 3 -0.000893 0.000837 0.011425 -0.000037 0.007035 -0.000019
# 4 -0.000006 -0.000012 -0.000037 0.048275 -0.000046 0.014904
# 5 0.011480 -0.010619 0.007035 -0.000046 0.048771 -0.000014
# 6 0.000000 -0.000005 -0.000019 0.014904 -0.000014 0.013090
#
#
# Mechanical properties :
#
#
# Convention : Reuss Voigt Hill
#
# Bulk Modulus (GPa) = 29.77302 44.99156 37.38229
# Shear Modulus (GPa) = 28.50003 55.30814 41.90408
#
# Velocity S-wave (km/s) = 3.29295 4.58730 3.99292
# Velocity P-wave (km/s) = 5.07798 6.72130 5.95658
#
# Compressibility (1/GPa) = 0.03358746
#
# Stress axis : x y z
#
# Youngs Moduli (GPa) = 101.97317 44.21689 87.52567
#
# Poissons Ratio (x) = 0.22436 0.07814
# Poissons Ratio (y) = 0.51741 -0.07323
# Poissons Ratio (z) = 0.09104 -0.03700
#
# Static dielectric constant tensor:
#      x y z
#    x 2.000010 0.000010 0.061500 
#    y 0.000010 2.218520 -0.000020 
#    z 0.061500 -0.000020 2.249410 
# 
# From -- ./inp_files/103590.got.cif
#   From: 2010.05.17/outbox.cif.g08.bks.cpg/sg15_52_cif.got.tgz:103590.got - 2010.06.03 18:47:42.
