data_PCOD9274325
_publ_section_title
;
Structure prediction by ZEFSAII (Michael W. Deem and Ramdas Pophale) SiO2 
 PCOD9274325
Probable space group: C 2/C
;
_chemical_formula_sum "Si O2"
_cell_formula_units_Z 52
_cell_length_a 9.457140
_cell_length_b 19.704142
_cell_length_c 18.087640
_cell_angle_alpha 90.000000
_cell_angle_beta 133.313066
_cell_angle_gamma 90.000000
_cell_volume 2452.458668
_symmetry_space_group_name_H-M "C 2/C"
_symmetry_group_IT_number 15
_symmetry_cell_setting 'monoclinic'
loop_
_space_group_symop_operation_xyz
x,y,z
-x,y,1/2-z
-x,-y,-z
x,-y,1/2+z
1/2+x,1/2+y,z
1/2-x,1/2+y,1/2-z
1/2-x,1/2-y,-z
1/2+x,1/2-y,1/2+z
loop_
_atom_site_type_symbol
_atom_site_label
_atom_site_fract_x
_atom_site_fract_y
_atom_site_fract_z
Si Si1 0.174603 0.707330 0.355211
Si Si2 0.583993 0.830281 0.074311
Si Si3 0.000000 0.164368 0.250000
Si Si4 0.880111 0.746833 0.367895
Si Si5 0.211278 0.088822 0.461506
Si Si6 0.363796 0.547192 0.631754
Si Si7 0.014403 0.884160 0.040614
O O1 0.303702 0.762938 0.357229
O O2 0.314418 0.654224 0.445178
O O3 0.000000 0.669854 0.250000
O O4 0.042541 0.752479 0.362699
O O5 0.734122 0.890197 0.112574
O O6 0.492662 0.800737 0.966603
O O7 0.397758 0.864167 0.046057
O O8 0.821287 0.208999 0.215069
O O9 0.919570 0.123764 0.149649
O O10 0.847181 0.821176 0.388549
O O11 0.094501 0.080287 0.495942
O O12 0.260526 0.016404 0.442725
O O13 0.500000 0.527574 0.750000
O O14 0.483862 0.571625 0.602722
#
# Coordination Sequence:
#
# PCOD9274325 Si02
#       7
#     8   8   4   8   8   8   8
#     4  11  20  37  67  97 131 165 215 265 317 386
#     4  10  21  39  64  89 125 173 210 259 322 378
#     4  10  22  40  64  92 132 174 204 260 330 388
#     4  10  20  38  62  92 130 162 212 264 319 381
#     4  11  24  42  63  93 133 168 219 263 319 381
#     4  12  23  44  67  88 128 180 221 258 316 391
#     4  11  23  41  63 100 127 167 213 276 321 365
#
# _framework density 21.203213000000002
#
# number of rings (size 3 to 8) (size 9 to 14) (size 15 to 20)
#    0.000    1.231    3.846    3.231    0.000    6.769 
#    0.000    0.000    0.000    0.000    0.000    0.000 
#    0.000    0.000    0.000    0.000    0.000    0.000 
#
# Total GULP energy -145003.635237 kJ/mol
# GULP energy per Si atom -5577.062894 kJ/mol
# Density = 2.115495 g / cm^3
# Si number density = 21.203213 Si / 1000 Ang^3
#
#
#
# Elastic Constant Matrix: (Units=GPa)
#
#
# Indices 1 2 3 4 5 6 
#
# 1 91.8105 9.1205 49.3460 0.0000 -9.9257 0.0000
# 2 9.1205 45.0912 16.5251 0.0000 -3.0232 0.0000
# 3 49.3460 16.5251 44.0829 0.0000 -9.5535 0.0000
# 4 0.0000 0.0000 0.0000 21.8669 0.0000 -6.0026
# 5 -9.9257 -3.0232 -9.5535 0.0000 29.4280 0.0000
# 6 0.0000 0.0000 0.0000 -6.0026 0.0000 22.8836
#
#
#
# Elastic Compliance Matrix: (Units=1/GPa)
#
#
# Indices 1 2 3 4 5 6 
#
# 1 0.029169 0.007046 -0.035502 0.000000 -0.000963 0.000000
# 2 0.007046 0.027419 -0.018330 0.000000 -0.000757 0.000000
# 3 -0.035502 -0.018330 0.071310 0.000000 0.009293 0.000000
# 4 0.000000 0.000000 0.000000 0.049280 0.000000 0.012926
# 5 -0.000963 -0.000757 0.009293 0.000000 0.036595 0.000000
# 6 0.000000 0.000000 0.000000 0.012926 0.000000 0.047090
#
#
# Mechanical properties :
#
#
# Convention : Reuss Voigt Hill
#
# Bulk Modulus (GPa) = 29.13154 36.77420 32.95287
# Shear Modulus (GPa) = 13.66579 21.90189 17.78384
#
# Velocity S-wave (km/s) = 2.54148 3.21744 2.89923
# Velocity P-wave (km/s) = 4.73088 5.58426 5.17519
#
# Compressibility (1/GPa) = 0.03432705
#
# Stress axis : x y z
#
# Youngs Moduli (GPa) = 34.28253 36.47129 14.02326
#
# Poissons Ratio (x) = -0.25698 0.49785
# Poissons Ratio (y) = -0.24156 0.25704
# Poissons Ratio (z) = 1.21710 0.66851
#
# Static dielectric constant tensor:
#      x y z
#    x 1.770090 0.000000 -0.026500 
#    y 0.000000 1.753460 0.000000 
#    z -0.026500 0.000000 1.830690 
# 
# From -- ./inp_files/192587.got.cif
#   From: 2010.05.17/outbox.cif.g08.bks.cpg/sg15_97_cif.got.tgz:192587.got - 2010.06.03 18:47:42.
