data_PCOD9274315
_publ_section_title
;
Structure prediction by ZEFSAII (Michael W. Deem and Ramdas Pophale) SiO2 
 PCOD9274315
Probable space group: C 2/C
;
_chemical_formula_sum "Si O2"
_cell_formula_units_Z 52
_cell_length_a 13.223019
_cell_length_b 22.377573
_cell_length_c 17.395002
_cell_angle_alpha 90.000000
_cell_angle_beta 31.291399
_cell_angle_gamma 90.000000
_cell_volume 2673.390326
_symmetry_space_group_name_H-M "C 2/C"
_symmetry_group_IT_number 15
_symmetry_cell_setting 'monoclinic'
loop_
_space_group_symop_operation_xyz
x,y,z
-x,y,1/2-z
-x,-y,-z
x,-y,1/2+z
1/2+x,1/2+y,z
1/2-x,1/2+y,1/2-z
1/2-x,1/2-y,-z
1/2+x,1/2-y,1/2+z
loop_
_atom_site_type_symbol
_atom_site_label
_atom_site_fract_x
_atom_site_fract_y
_atom_site_fract_z
Si Si1 0.412690 0.293294 0.431866
Si Si2 0.549214 0.581772 0.875224
Si Si3 0.020200 0.633078 0.900763
Si Si4 0.871100 0.852032 0.765138
Si Si5 0.672350 0.259353 0.842750
Si Si6 0.428138 0.451387 0.962163
Si Si7 0.000000 0.577185 0.750000
O O1 0.250000 0.250000 0.500000
O O2 0.418592 0.365889 0.420561
O O3 0.413511 0.285873 0.523625
O O4 0.617176 0.266676 0.271588
O O5 0.516172 0.513253 0.874298
O O6 0.773118 0.601480 0.714466
O O7 0.510121 0.573836 0.993259
O O8 0.991305 0.617672 0.830869
O O9 0.047896 0.703315 0.895491
O O10 0.827160 0.617967 0.074258
O O11 0.815612 0.806026 0.734138
O O12 0.000000 0.823689 0.750000
O O13 0.011945 0.900864 0.636132
O O14 0.197174 0.460427 0.121517
#
# Coordination Sequence:
#
# PCOD9274315 Si02
#       7
#     8   8   8   8   8   8   4
#     4  11  22  42  64  89 123 165 212 260 308 370
#     4   9  21  41  63  85 121 171 208 260 307 372
#     4  10  22  38  61  90 126 160 201 253 316 371
#     4  12  23  37  63  95 127 160 200 258 323 379
#     4  11  23  40  60  93 127 159 203 257 313 379
#     4  10  20  40  62  88 125 162 210 254 316 372
#     4  10  20  38  62  92 122 158 206 254 304 388
#
# _framework density 19.450956999999999
#
# number of rings (size 3 to 8) (size 9 to 14) (size 15 to 20)
#    0.000    1.538    4.615    0.462    1.077    1.231 
#    2.769    3.077    0.000    0.000    0.000    0.000 
#    0.000    0.000    0.000    0.000    0.000    0.000 
#
# Total GULP energy -144862.507205 kJ/mol
# GULP energy per Si atom -5571.634892 kJ/mol
# Density = 1.940669 g / cm^3
# Si number density = 19.450957 Si / 1000 Ang^3
#
#
#
# Elastic Constant Matrix: (Units=GPa)
#
#
# Indices 1 2 3 4 5 6 
#
# 1 42.8648 17.4249 -11.3872 0.0142 -3.5731 -0.0114
# 2 17.4249 89.1272 7.8474 -0.0023 -9.9538 -0.0063
# 3 -11.3872 7.8474 74.0762 -0.0229 -2.3060 -0.0032
# 4 0.0142 -0.0023 -0.0229 12.8037 -0.0047 6.0583
# 5 -3.5731 -9.9538 -2.3060 -0.0047 22.0911 0.0099
# 6 -0.0114 -0.0063 -0.0032 6.0583 0.0099 15.0595
#
#
#
# Elastic Compliance Matrix: (Units=1/GPa)
#
#
# Indices 1 2 3 4 5 6 
#
# 1 0.027016 -0.005434 0.004804 -0.000037 0.002423 0.000032
# 2 -0.005434 0.012996 -0.002064 0.000009 0.004761 -0.000006
# 3 0.004804 -0.002064 0.014499 0.000023 0.001361 -0.000004
# 4 -0.000037 0.000009 0.000023 0.096465 0.000039 -0.038807
# 5 0.002423 0.004761 0.001361 0.000039 0.047946 -0.000043
# 6 0.000032 -0.000006 -0.000004 -0.038807 -0.000043 0.082016
#
#
# Mechanical properties :
#
#
# Convention : Reuss Voigt Hill
#
# Bulk Modulus (GPa) = 20.35695 25.98206 23.16951
# Shear Modulus (GPa) = 16.51795 22.80305 19.66050
#
# Velocity S-wave (km/s) = 2.91728 3.42765 3.18271
# Velocity P-wave (km/s) = 4.67289 5.38997 5.04419
#
# Compressibility (1/GPa) = 0.04912326
#
# Stress axis : x y z
#
# Youngs Moduli (GPa) = 37.01444 76.94775 68.96969
#
# Poissons Ratio (x) = 0.41816 -0.33134
# Poissons Ratio (y) = 0.20115 0.14235
# Poissons Ratio (z) = -0.17782 0.15881
#
# Static dielectric constant tensor:
#      x y z
#    x 1.719490 0.000000 -0.023430 
#    y 0.000000 1.675100 0.000000 
#    z -0.023430 0.000000 1.682830 
# 
# From -- ./inp_files/63460.got.cif
#   From: 2010.05.17/outbox.cif.g08.bks.cpg/sg15_32_cif.got.tgz:63460.got - 2010.06.03 18:47:42.
