data_PCOD9274909
_publ_section_title
;
Structure prediction by ZEFSAII (Michael W. Deem and Ramdas Pophale) SiO2 
 PCOD9274909
Probable space group: C 2/C
;
_chemical_formula_sum "Si O2"
_cell_formula_units_Z 48
_cell_length_a 6.867617
_cell_length_b 30.595857
_cell_length_c 13.160306
_cell_angle_alpha 90.000000
_cell_angle_beta 45.717533
_cell_angle_gamma 90.000000
_cell_volume 1979.661489
_symmetry_space_group_name_H-M "C 2/C"
_symmetry_group_IT_number 15
_symmetry_cell_setting 'monoclinic'
loop_
_space_group_symop_operation_xyz
x,y,z
-x,y,1/2-z
-x,-y,-z
x,-y,1/2+z
1/2+x,1/2+y,z
1/2-x,1/2+y,1/2-z
1/2-x,1/2-y,-z
1/2+x,1/2-y,1/2+z
loop_
_atom_site_type_symbol
_atom_site_label
_atom_site_fract_x
_atom_site_fract_y
_atom_site_fract_z
Si Si1 0.222732 0.870151 0.494410
Si Si2 0.500000 0.936553 0.250000
Si Si3 0.398748 0.995242 0.150689
Si Si4 0.500000 0.432022 0.750000
Si Si5 0.000000 0.917407 0.250000
Si Si6 0.698710 0.689296 0.274655
Si Si7 0.000000 0.230500 0.750000
Si Si8 0.675359 0.158053 0.966505
O O1 0.299727 0.899647 0.372839
O O2 0.160200 0.902112 0.612759
O O3 0.481536 0.842095 0.436479
O O4 0.963116 0.839051 0.583526
O O5 0.639846 0.978681 0.131995
O O6 0.224028 0.949005 0.223032
O O7 0.207450 0.036442 0.234612
O O8 0.500000 0.000000 0.000000
O O9 0.159455 0.886903 0.112424
O O10 0.500000 0.692582 0.250000
O O11 0.777916 0.736610 0.285555
O O12 0.968636 0.664806 0.134737
O O13 0.874464 0.198887 0.880843
#
# Coordination Sequence:
#
# PCOD9274909 Si02
#       8
#     8   4   8   4   4   8   4   8
#     4  11  22  43  70  95 135 185 235 276 354 426
#     4  12  24  42  65 105 127 179 243 279 344 428
#     4  11  23  39  64  95 138 175 226 292 345 400
#     4  11  20  43  70  87 136 186 215 283 352 405
#     4  10  20  38  66  92 125 185 218 278 350 404
#     4  10  23  43  69  97 137 188 226 291 361 415
#     4  11  24  41  65 110 138 170 244 292 346 435
#     4  10  20  42  68  95 135 183 222 285 359 413
#
# _framework density 24.246572
#
# number of rings (size 3 to 8) (size 9 to 14) (size 15 to 20)
#    0.000    1.333    5.833    0.500    0.000    4.667 
#    4.500    0.833    0.000    0.000    0.000    0.000 
#    0.000    0.000    0.000    0.000    0.000    0.000 
#
# Total GULP energy -133811.745073 kJ/mol
# GULP energy per Si atom -5575.489378 kJ/mol
# Density = 2.419139 g / cm^3
# Si number density = 24.246572 Si / 1000 Ang^3
#
#
#
# Elastic Constant Matrix: (Units=GPa)
#
#
# Indices 1 2 3 4 5 6 
#
# 1 60.3239 31.2362 12.0628 0.0000 -7.6995 0.0000
# 2 31.2362 154.4717 55.2075 0.0000 -5.0221 0.0000
# 3 12.0628 55.2075 130.5150 0.0000 -2.4288 0.0000
# 4 0.0000 0.0000 0.0000 39.9993 0.0000 -14.0763
# 5 -7.6995 -5.0221 -2.4288 0.0000 29.5564 0.0000
# 6 0.0000 0.0000 0.0000 -14.0763 0.0000 46.1802
#
#
#
# Elastic Compliance Matrix: (Units=1/GPa)
#
#
# Indices 1 2 3 4 5 6 
#
# 1 0.019054 -0.003666 -0.000130 0.000000 0.004330 0.000000
# 2 -0.003666 0.008363 -0.003195 0.000000 0.000204 0.000000
# 3 -0.000130 -0.003195 0.009029 0.000000 0.000165 0.000000
# 4 0.000000 0.000000 0.000000 0.028004 0.000000 0.008536
# 5 0.004330 0.000204 0.000165 0.000000 0.035010 0.000000
# 6 0.000000 0.000000 0.000000 0.008536 0.000000 0.024256
#
#
# Mechanical properties :
#
#
# Convention : Reuss Voigt Hill
#
# Bulk Modulus (GPa) = 44.51468 60.25818 52.38643
# Shear Modulus (GPa) = 34.43853 39.60078 37.01965
#
# Velocity S-wave (km/s) = 3.77284 4.04574 3.91167
# Velocity P-wave (km/s) = 6.11376 6.83595 6.48492
#
# Compressibility (1/GPa) = 0.02246450
#
# Stress axis : x y z
#
# Youngs Moduli (GPa) = 52.48241 119.56717 110.75952
#
# Poissons Ratio (x) = 0.43831 0.01438
# Poissons Ratio (y) = 0.19239 0.35389
# Poissons Ratio (z) = 0.00682 0.38203
#
# Static dielectric constant tensor:
#      x y z
#    x 1.830720 0.000000 0.145050 
#    y 0.000000 1.887950 0.000000 
#    z 0.145050 0.000000 2.249450 
# 
# From -- ./inp_files/138986.got.cif
#   From: 2010.05.17/outbox.cif.g08.bks.cpg/sg15_70_cif.got.tgz:138986.got - 2010.06.03 18:47:42.
