data_PCOD9274804
_publ_section_title
;
Structure prediction by ZEFSAII (Michael W. Deem and Ramdas Pophale) SiO2 
 PCOD9274804
Probable space group: C 2/C
;
_chemical_formula_sum "Si O2"
_cell_formula_units_Z 56
_cell_length_a 23.141730
_cell_length_b 9.099229
_cell_length_c 16.306602
_cell_angle_alpha 90.000000
_cell_angle_beta 48.162412
_cell_angle_gamma 90.000000
_cell_volume 2558.248014
_symmetry_space_group_name_H-M "C 2/C"
_symmetry_group_IT_number 15
_symmetry_cell_setting 'monoclinic'
loop_
_space_group_symop_operation_xyz
x,y,z
-x,y,1/2-z
-x,-y,-z
x,-y,1/2+z
1/2+x,1/2+y,z
1/2-x,1/2+y,1/2-z
1/2-x,1/2-y,-z
1/2+x,1/2-y,1/2+z
loop_
_atom_site_type_symbol
_atom_site_label
_atom_site_fract_x
_atom_site_fract_y
_atom_site_fract_z
Si Si1 0.570302 0.486800 0.371134
Si Si2 0.579263 0.991512 0.022043
Si Si3 0.299466 0.643344 0.151609
Si Si4 0.837151 0.578012 0.718746
Si Si5 0.456210 0.776580 0.715441
Si Si6 0.672791 0.817750 0.534003
Si Si7 0.032035 0.269267 0.310652
O O1 0.500000 0.500000 0.500000
O O2 0.645490 0.534873 0.349798
O O3 0.572013 0.329014 0.328604
O O4 0.553401 0.605405 0.316183
O O5 0.515284 0.103247 0.122336
O O6 0.657910 0.028084 0.999588
O O7 0.539116 0.834389 0.068316
O O8 0.600970 0.027220 0.908787
O O9 0.221351 0.554015 0.207792
O O10 0.291850 0.786364 0.217599
O O11 0.340583 0.702572 0.029347
O O12 0.889792 0.639740 0.742485
O O13 0.500000 0.695618 0.750000
O O14 0.383700 0.833585 0.835280
O O15 0.750000 0.750000 0.500000
O O16 0.000000 0.284749 0.250000
#
# Coordination Sequence:
#
# PCOD9274804 Si02
#       7
#     8   8   8   8   8   8   8
#     4  11  23  41  64  90 128 174 219 263 328 395
#     4  10  22  40  65  99 125 167 226 267 323 386
#     4  10  24  40  61  93 127 172 214 267 326 394
#     4  10  23  42  62  94 135 173 220 265 329 396
#     4  10  20  38  65  93 124 169 218 262 315 388
#     4  10  22  38  63  94 127 166 214 268 324 386
#     4  11  23  39  63  97 130 162 215 283 330 380
#
# _framework density 21.889982
#
# number of rings (size 3 to 8) (size 9 to 14) (size 15 to 20)
#    0.000    1.714    0.000    5.571    8.000    1.143 
#    0.000    0.000    0.000    4.286    0.000    0.000 
#    0.000    0.000    0.000    0.000    0.000    0.000 
#
# Total GULP energy -156216.978126 kJ/mol
# GULP energy per Si atom -5579.177790 kJ/mol
# Density = 2.184016 g / cm^3
# Si number density = 21.889982 Si / 1000 Ang^3
#
#
#
# Elastic Constant Matrix: (Units=GPa)
#
#
# Indices 1 2 3 4 5 6 
#
# 1 119.0407 22.8776 9.2110 -0.0001 7.8471 0.0001
# 2 22.8776 39.0518 9.3379 -0.0001 -2.1432 0.0000
# 3 9.2110 9.3379 83.7387 -0.0001 6.0998 0.0001
# 4 -0.0001 -0.0001 -0.0001 26.4694 0.0001 -4.0661
# 5 7.8471 -2.1432 6.0998 0.0001 30.7928 -0.0001
# 6 0.0001 0.0000 0.0001 -4.0661 -0.0001 34.2794
#
#
#
# Elastic Compliance Matrix: (Units=1/GPa)
#
#
# Indices 1 2 3 4 5 6 
#
# 1 0.009718 -0.005797 -0.000216 0.000000 -0.002837 0.000000
# 2 -0.005797 0.029950 -0.003005 0.000000 0.004157 0.000000
# 3 -0.000216 -0.003005 0.012492 0.000000 -0.002629 0.000000
# 4 0.000000 0.000000 0.000000 0.038481 0.000000 0.004564
# 5 -0.002837 0.004157 -0.002629 0.000000 0.034008 0.000000
# 6 0.000000 0.000000 0.000000 0.004564 0.000000 0.029713
#
#
# Mechanical properties :
#
#
# Convention : Reuss Voigt Hill
#
# Bulk Modulus (GPa) = 29.30463 36.07600 32.69032
# Shear Modulus (GPa) = 27.20732 31.66863 29.43797
#
# Velocity S-wave (km/s) = 3.52932 3.80770 3.67115
# Velocity P-wave (km/s) = 5.47946 5.98731 5.73900
#
# Compressibility (1/GPa) = 0.03412430
#
# Stress axis : x y z
#
# Youngs Moduli (GPa) = 102.89768 33.38899 80.04981
#
# Poissons Ratio (x) = 0.19357 0.01728
# Poissons Ratio (y) = 0.59654 0.24054
# Poissons Ratio (z) = 0.02221 0.10033
#
# Static dielectric constant tensor:
#      x y z
#    x 1.854380 0.000000 0.000460 
#    y 0.000000 1.837020 0.000000 
#    z 0.000460 0.000000 1.769640 
# 
# From -- ./inp_files/218536.got.cif
#   From: 2010.05.17/outbox.cif.g08.bks.cpg/sg15_110_cif.got.tgz:218536.got - 2010.06.03 18:47:42.
