data_PCOD9274177
_publ_section_title
;
Structure prediction by ZEFSAII (Michael W. Deem and Ramdas Pophale) SiO2 
 PCOD9274177
Probable space group: C 2/C
;
_chemical_formula_sum "Si O2"
_cell_formula_units_Z 48
_cell_length_a 22.329070
_cell_length_b 20.817351
_cell_length_c 10.021808
_cell_angle_alpha 90.000000
_cell_angle_beta 147.447035
_cell_angle_gamma 90.000000
_cell_volume 2506.618486
_symmetry_space_group_name_H-M "C 2/C"
_symmetry_group_IT_number 15
_symmetry_cell_setting 'monoclinic'
loop_
_space_group_symop_operation_xyz
x,y,z
-x,y,1/2-z
-x,-y,-z
x,-y,1/2+z
1/2+x,1/2+y,z
1/2-x,1/2+y,1/2-z
1/2-x,1/2-y,-z
1/2+x,1/2-y,1/2+z
loop_
_atom_site_type_symbol
_atom_site_label
_atom_site_fract_x
_atom_site_fract_y
_atom_site_fract_z
Si Si1 0.816990 0.517947 0.627908
Si Si2 0.575155 0.521287 0.762731
Si Si3 0.375903 0.071452 0.467675
Si Si4 0.850107 0.300644 0.565139
Si Si5 0.938316 0.376461 0.511223
Si Si6 0.194062 0.156106 0.006807
O O1 0.693230 0.513681 0.456225
O O2 0.823257 0.522141 0.479261
O O3 0.881462 0.580924 0.796254
O O4 0.877864 0.460559 0.823166
O O5 0.500000 0.506119 0.750000
O O6 0.500000 0.500000 0.500000
O O7 0.609276 0.596863 0.832526
O O8 0.500000 0.086792 0.750000
O O9 0.290145 0.130245 0.287565
O O10 0.845686 0.336572 0.416236
O O11 0.854735 0.225085 0.546984
O O12 0.752914 0.325925 0.477063
O O13 0.965271 0.326516 0.847302
O O14 0.000000 0.414890 0.750000
#
# Coordination Sequence:
#
# PCOD9274177 Si02
#       6
#     8   8   8   8   8   8
#     4  11  22  39  57  92 119 158 197 255 300 350
#     4  11  25  38  60  83 121 159 203 248 299 359
#     4  11  23  34  63  92 127 149 197 248 309 356
#     4   8  19  36  63  85 110 160 191 244 287 368
#     4   8  19  34  64  82 117 146 205 232 306 344
#     4  10  20  38  62  84 120 155 207 231 305 358
#
# _framework density 19.149304999999998
#
# number of rings (size 3 to 8) (size 9 to 14) (size 15 to 20)
#    1.000    1.000    0.000    4.000    9.333    0.000 
#    0.000    0.833    7.333    0.000    0.000    0.000 
#    0.000    0.000    0.000    0.000    0.000    0.000 
#
# Total GULP energy -133602.682833 kJ/mol
# GULP energy per Si atom -5566.778451 kJ/mol
# Density = 1.910572 g / cm^3
# Si number density = 19.149305 Si / 1000 Ang^3
#
#
#
# Elastic Constant Matrix: (Units=GPa)
#
#
# Indices 1 2 3 4 5 6 
#
# 1 94.6758 26.5483 23.1328 0.0000 4.1780 0.0000
# 2 26.5483 86.4357 48.1137 0.0000 2.5944 0.0000
# 3 23.1328 48.1137 115.7336 0.0000 4.3829 0.0000
# 4 0.0000 0.0000 0.0000 28.0047 0.0000 3.2922
# 5 4.1780 2.5944 4.3829 0.0000 27.0303 0.0000
# 6 0.0000 0.0000 0.0000 3.2922 0.0000 21.5906
#
#
#
# Elastic Compliance Matrix: (Units=1/GPa)
#
#
# Indices 1 2 3 4 5 6 
#
# 1 0.011713 -0.002969 -0.001055 0.000000 -0.001354 0.000000
# 2 -0.002969 0.015810 -0.005976 0.000000 -0.000090 0.000000
# 3 -0.001055 -0.005976 0.011378 0.000000 -0.001108 0.000000
# 4 0.000000 0.000000 0.000000 0.036360 0.000000 -0.005544
# 5 -0.001354 -0.000090 -0.001108 0.000000 0.037393 0.000000
# 6 0.000000 0.000000 0.000000 -0.005544 0.000000 0.047162
#
#
# Mechanical properties :
#
#
# Convention : Reuss Voigt Hill
#
# Bulk Modulus (GPa) = 52.91134 54.71497 53.81316
# Shear Modulus (GPa) = 26.86479 28.59514 27.72997
#
# Velocity S-wave (km/s) = 3.74961 3.86848 3.80951
# Velocity P-wave (km/s) = 6.81447 6.97054 6.89295
#
# Compressibility (1/GPa) = 0.01889954
#
# Stress axis : x y z
#
# Youngs Moduli (GPa) = 85.37781 63.24921 87.89034
#
# Poissons Ratio (x) = 0.18781 0.09276
# Poissons Ratio (y) = 0.25352 0.52523
# Poissons Ratio (z) = 0.09011 0.37797
#
# Static dielectric constant tensor:
#      x y z
#    x 1.742010 0.000000 0.025130 
#    y 0.000000 1.694140 0.000000 
#    z 0.025130 0.000000 1.679310 
# 
# From -- ./inp_files/119740.got.cif
#   From: 2010.05.17/outbox.cif.g08.bks.cpg/sg15_60_cif.got.tgz:119740.got - 2010.06.03 18:47:42.
