data_PCOD9274786
_publ_section_title
;
Structure prediction by ZEFSAII (Michael W. Deem and Ramdas Pophale) SiO2 
 PCOD9274786
Probable space group: C 2/C
;
_chemical_formula_sum "Si O2"
_cell_formula_units_Z 40
_cell_length_a 7.706120
_cell_length_b 12.405673
_cell_length_c 25.678602
_cell_angle_alpha 90.000000
_cell_angle_beta 144.203744
_cell_angle_gamma 90.000000
_cell_volume 1435.861548
_symmetry_space_group_name_H-M "C 2/C"
_symmetry_group_IT_number 15
_symmetry_cell_setting 'monoclinic'
loop_
_space_group_symop_operation_xyz
x,y,z
-x,y,1/2-z
-x,-y,-z
x,-y,1/2+z
1/2+x,1/2+y,z
1/2-x,1/2+y,1/2-z
1/2-x,1/2-y,-z
1/2+x,1/2-y,1/2+z
loop_
_atom_site_type_symbol
_atom_site_label
_atom_site_fract_x
_atom_site_fract_y
_atom_site_fract_z
Si Si1 0.507286 0.526748 0.410789
Si Si2 0.000000 0.998822 0.750000
Si Si3 0.891641 0.316214 0.889574
Si Si4 0.000000 0.327998 0.750000
Si Si5 0.911588 0.144594 0.969288
Si Si6 0.019259 0.848980 0.169984
O O1 0.280280 0.591972 0.319072
O O2 0.663285 0.607150 0.490473
O O3 0.330974 0.452946 0.410590
O O4 0.658822 0.435239 0.410358
O O5 0.221925 0.922859 0.834362
O O6 0.837511 0.075723 0.751547
O O7 0.235525 0.339834 0.958968
O O8 0.807466 0.220421 0.829665
O O9 0.809047 0.262150 0.924662
O O10 0.911793 0.248656 0.680944
#
# Coordination Sequence:
#
# PCOD9274786 Si02
#       6
#     8   4   8   4   8   8
#     4  10  20  38  65  91 121 168 203 250 315 369
#     4  11  24  41  64  92 122 165 216 247 302 372
#     4  10  20  43  64  88 131 164 201 263 302 367
#     4  11  20  37  64  86 126 165 206 259 300 366
#     4   9  20  38  66  94 124 164 204 253 322 360
#     4  10  22  37  63  92 121 161 210 254 306 356
#
# _framework density 27.857839999999999
#
# number of rings (size 3 to 8) (size 9 to 14) (size 15 to 20)
#    0.000    2.000    2.000    1.200    0.000    3.200 
#    3.600   10.000    0.000    0.000    0.000    0.000 
#    0.000    0.000    0.000    0.000    0.000    0.000 
#
# Total GULP energy -111439.192684 kJ/mol
# GULP energy per Si atom -5571.959634 kJ/mol
# Density = 2.779443 g / cm^3
# Si number density = 27.857840 Si / 1000 Ang^3
#
#
#
# Elastic Constant Matrix: (Units=GPa)
#
#
# Indices 1 2 3 4 5 6 
#
# 1 85.1936 56.3778 51.0834 0.0000 -30.0004 0.0000
# 2 56.3778 166.3790 53.1928 0.0000 -17.2894 0.0000
# 3 51.0834 53.1928 60.1296 -0.0001 -18.2288 0.0000
# 4 0.0000 0.0000 -0.0001 54.9674 0.0000 -46.0752
# 5 -30.0004 -17.2894 -18.2288 0.0000 52.3324 0.0000
# 6 0.0000 0.0000 0.0000 -46.0752 0.0000 44.3722
#
#
#
# Elastic Compliance Matrix: (Units=1/GPa)
#
#
# Indices 1 2 3 4 5 6 
#
# 1 0.027539 -0.002499 -0.018615 0.000000 0.008477 0.000000
# 2 -0.002499 0.008609 -0.005663 0.000000 -0.000561 0.000000
# 3 -0.018615 -0.005663 0.037626 0.000000 0.000564 0.000001
# 4 0.000000 0.000000 0.000000 0.140373 0.000000 0.145761
# 5 0.008477 -0.000561 0.000564 0.000000 0.023980 0.000000
# 6 0.000000 0.000000 0.000001 0.145761 0.000000 0.173891
#
#
# Mechanical properties :
#
#
# Convention : Reuss Voigt Hill
#
# Bulk Modulus (GPa) = 49.45655 70.33445 59.89550
# Shear Modulus (GPa) = 10.58621 40.40428 25.49524
#
# Velocity S-wave (km/s) = 1.95149 3.81251 3.02849
# Velocity P-wave (km/s) = 4.78221 6.68452 5.81172
#
# Compressibility (1/GPa) = 0.02021977
#
# Stress axis : x y z
#
# Youngs Moduli (GPa) = 36.31214 116.15078 26.57754
#
# Poissons Ratio (x) = 0.29030 0.49474
# Poissons Ratio (y) = 0.09076 0.15051
# Poissons Ratio (z) = 0.67595 0.65776
#
# Static dielectric constant tensor:
#      x y z
#    x 2.140410 0.000000 -0.056620 
#    y 0.000000 2.209410 0.000000 
#    z -0.056620 0.000000 2.322940 
# 
# From -- ./inp_files/141865.got.cif
#   From: 2010.05.17/outbox.cif.g08.bks.cpg/sg15_71_cif.got.tgz:141865.got - 2010.06.03 18:47:42.
