data_PCOD9274327
_publ_section_title
;
Structure prediction by ZEFSAII (Michael W. Deem and Ramdas Pophale) SiO2 
 PCOD9274327
Probable space group: C 2/C
;
_chemical_formula_sum "Si O2"
_cell_formula_units_Z 52
_cell_length_a 16.922497
_cell_length_b 27.201629
_cell_length_c 5.481154
_cell_angle_alpha 90.000000
_cell_angle_beta 57.353058
_cell_angle_gamma 90.000000
_cell_volume 2124.462039
_symmetry_space_group_name_H-M "C 2/C"
_symmetry_group_IT_number 15
_symmetry_cell_setting 'monoclinic'
loop_
_space_group_symop_operation_xyz
x,y,z
-x,y,1/2-z
-x,-y,-z
x,-y,1/2+z
1/2+x,1/2+y,z
1/2-x,1/2+y,1/2-z
1/2-x,1/2-y,-z
1/2+x,1/2-y,1/2+z
loop_
_atom_site_type_symbol
_atom_site_label
_atom_site_fract_x
_atom_site_fract_y
_atom_site_fract_z
Si Si1 0.131459 0.977319 0.655072
Si Si2 0.605472 0.268647 0.460632
Si Si3 0.131830 0.136423 0.189996
Si Si4 0.176046 0.667299 0.461468
Si Si5 0.000000 0.807751 0.250000
Si Si6 0.607703 0.121185 0.083771
Si Si7 0.843146 0.515264 0.384405
O O1 0.120770 0.919343 0.631392
O O2 0.094377 0.005987 0.480653
O O3 0.242231 0.990440 0.500786
O O4 0.500000 0.260300 0.750000
O O5 0.646562 0.321907 0.461230
O O6 0.671558 0.226046 0.446350
O O7 0.582282 0.272998 0.213613
O O8 0.040261 0.156431 0.478847
O O9 0.221390 0.142872 0.215880
O O10 0.120934 0.651355 0.310274
O O11 0.133504 0.648815 0.789896
O O12 0.500000 0.105277 0.250000
O O13 0.667332 0.071750 0.021142
O O14 0.889856 0.488599 0.539075
#
# Coordination Sequence:
#
# PCOD9274327 Si02
#       7
#     8   8   8   8   4   8   8
#     4  10  21  39  67  97 135 176 229 290 350 404
#     4  10  24  45  70 103 143 187 229 292 356 419
#     4  11  25  45  73 105 140 184 241 292 351 427
#     4  12  26  43  75 105 146 189 240 281 346 424
#     4  10  26  46  74  98 146 180 232 298 368 410
#     4  12  26  43  67 108 150 190 236 290 344 416
#     4  10  20  38  62  92 133 183 232 280 340 397
#
# _framework density 24.476785
#
# number of rings (size 3 to 8) (size 9 to 14) (size 15 to 20)
#    0.000    1.231    0.000    6.462    9.692    1.231 
#    0.000    0.769    0.000    0.000    0.000    0.000 
#    0.000    0.000    0.000    0.000    0.000    0.000 
#
# Total GULP energy -145387.635057 kJ/mol
# GULP energy per Si atom -5591.832118 kJ/mol
# Density = 2.442107 g / cm^3
# Si number density = 24.476785 Si / 1000 Ang^3
#
#
#
# Elastic Constant Matrix: (Units=GPa)
#
#
# Indices 1 2 3 4 5 6 
#
# 1 75.0034 34.6600 35.7681 0.0000 23.2174 0.0000
# 2 34.6600 174.3058 34.7569 0.0000 31.0940 0.0000
# 3 35.7681 34.7569 101.9823 0.0000 36.1457 0.0000
# 4 0.0000 0.0000 0.0000 22.5439 0.0000 -23.8772
# 5 23.2174 31.0940 36.1457 0.0000 55.7430 0.0000
# 6 0.0000 0.0000 0.0000 -23.8772 0.0000 231.8796
#
#
#
# Elastic Compliance Matrix: (Units=1/GPa)
#
#
# Indices 1 2 3 4 5 6 
#
# 1 0.017300 -0.002003 -0.004190 0.000000 -0.003371 0.000000
# 2 -0.002003 0.006715 -0.000719 0.000000 -0.002445 0.000000
# 3 -0.004190 -0.000719 0.013970 0.000000 -0.006912 0.000000
# 4 0.000000 0.000000 0.000000 0.049788 0.000000 0.005127
# 5 -0.003371 -0.002445 -0.006912 0.000000 0.025190 0.000000
# 6 0.000000 0.000000 0.000000 0.005127 0.000000 0.004841
#
#
# Mechanical properties :
#
#
# Convention : Reuss Voigt Hill
#
# Bulk Modulus (GPa) = 41.39059 62.40684 51.89872
# Shear Modulus (GPa) = 35.79551 78.44039 57.11795
#
# Velocity S-wave (km/s) = 3.82832 5.66714 4.83593
# Velocity P-wave (km/s) = 6.04055 8.26883 7.24092
#
# Compressibility (1/GPa) = 0.02416008
#
# Stress axis : x y z
#
# Youngs Moduli (GPa) = 57.80280 148.92139 71.58009
#
# Poissons Ratio (x) = 0.29832 0.29993
# Poissons Ratio (y) = 0.11579 0.05150
# Poissons Ratio (z) = 0.24220 0.10714
#
# Static dielectric constant tensor:
#      x y z
#    x 1.987390 0.000000 0.008040 
#    y 0.000000 1.925910 0.000000 
#    z 0.008040 0.000000 2.138220 
# 
# From -- ./inp_files/11448.got.cif
#   From: 2010.05.17/outbox.cif.g08.bks.cpg/sg15_6_cif.got.tgz:11448.got - 2010.06.03 18:47:42.
