data_PCOD9274642
_publ_section_title
;
Structure prediction by ZEFSAII (Michael W. Deem and Ramdas Pophale) SiO2 
 PCOD9274642
Probable space group: C 2/C
;
_chemical_formula_sum "Si O2"
_cell_formula_units_Z 40
_cell_length_a 9.231542
_cell_length_b 23.716045
_cell_length_c 8.852034
_cell_angle_alpha 90.000000
_cell_angle_beta 68.046808
_cell_angle_gamma 90.000000
_cell_volume 1797.498881
_symmetry_space_group_name_H-M "C 2/C"
_symmetry_group_IT_number 15
_symmetry_cell_setting 'monoclinic'
loop_
_space_group_symop_operation_xyz
x,y,z
-x,y,1/2-z
-x,-y,-z
x,-y,1/2+z
1/2+x,1/2+y,z
1/2-x,1/2+y,1/2-z
1/2-x,1/2-y,-z
1/2+x,1/2-y,1/2+z
loop_
_atom_site_type_symbol
_atom_site_label
_atom_site_fract_x
_atom_site_fract_y
_atom_site_fract_z
Si Si1 0.085592 0.587462 0.056336
Si Si2 0.186785 0.217375 0.173840
Si Si3 0.885746 0.988337 0.409126
Si Si4 0.222007 0.600507 0.468140
Si Si5 0.833391 0.331406 0.222430
O O1 0.000000 0.592014 0.250000
O O2 0.949741 0.573683 0.986536
O O3 0.228731 0.544573 0.009207
O O4 0.151972 0.642898 0.948662
O O5 0.264515 0.156083 0.142056
O O6 0.224800 0.267370 0.274846
O O7 0.000000 0.207006 0.250000
O O8 0.250000 0.250000 0.000000
O O9 0.000000 0.956711 0.250000
O O10 0.834286 0.050549 0.375020
O O11 0.000000 0.000000 0.500000
O O12 0.251036 0.625520 0.626170
O O13 0.000000 0.325874 0.250000
#
# Coordination Sequence:
#
# PCOD9274642 Si02
#       5
#     8   8   8   8   8
#     4  11  23  40  62  90 128 172 213 260 318 385
#     4   9  17  33  62  95 124 160 212 266 314 375
#     4  12  25  40  60  93 131 169 212 265 324 384
#     4  10  20  38  64  91 121 167 217 263 313 380
#     4   8  17  35  61  91 121 158 211 264 312 370
#
# _framework density 22.253140999999999
#
# number of rings (size 3 to 8) (size 9 to 14) (size 15 to 20)
#    0.000    2.000    0.000    4.800    0.000    2.400 
#    0.000    1.000    0.000    8.400    0.000    0.000 
#    0.000    0.000    0.000    0.000    0.000    0.000 
#
# Total GULP energy -111336.800428 kJ/mol
# GULP energy per Si atom -5566.840021 kJ/mol
# Density = 2.220249 g / cm^3
# Si number density = 22.253141 Si / 1000 Ang^3
#
#
#
# Elastic Constant Matrix: (Units=GPa)
#
#
# Indices 1 2 3 4 5 6 
#
# 1 100.1354 55.5511 30.1392 0.0000 -17.4417 0.0000
# 2 55.5511 136.9503 50.9741 0.0000 -9.4697 0.0000
# 3 30.1392 50.9741 118.2305 0.0000 -23.3954 0.0000
# 4 0.0000 0.0000 0.0000 20.4136 0.0000 -6.7845
# 5 -17.4417 -9.4697 -23.3954 0.0000 31.8733 0.0000
# 6 0.0000 0.0000 0.0000 -6.7845 0.0000 23.5582
#
#
#
# Elastic Compliance Matrix: (Units=1/GPa)
#
#
# Indices 1 2 3 4 5 6 
#
# 1 0.013953 -0.005197 -0.000130 0.000000 0.005996 0.000000
# 2 -0.005197 0.010634 -0.003741 0.000000 -0.002430 0.000000
# 3 -0.000130 -0.003741 0.011547 0.000000 0.007293 0.000000
# 4 0.000000 0.000000 0.000000 0.054172 0.000000 0.015601
# 5 0.005996 -0.002430 0.007293 0.000000 0.039287 0.000000
# 6 0.000000 0.000000 0.000000 0.015601 0.000000 0.046941
#
#
# Mechanical properties :
#
#
# Convention : Reuss Voigt Hill
#
# Bulk Modulus (GPa) = 55.55805 69.84945 62.70375
# Shear Modulus (GPa) = 24.91669 29.74583 27.33126
#
# Velocity S-wave (km/s) = 3.34981 3.66006 3.50837
# Velocity P-wave (km/s) = 6.32315 7.02269 6.68208
#
# Compressibility (1/GPa) = 0.01799919
#
# Stress axis : x y z
#
# Youngs Moduli (GPa) = 71.66958 94.03543 86.60069
#
# Poissons Ratio (x) = 0.48868 0.01124
# Poissons Ratio (y) = 0.37245 0.32398
# Poissons Ratio (z) = 0.00930 0.35179
#
# Static dielectric constant tensor:
#      x y z
#    x 1.898530 0.000000 -0.041470 
#    y 0.000000 1.917030 0.000000 
#    z -0.041470 0.000000 1.921350 
# 
# From -- ./inp_files/23450.got.cif
#   From: 2010.05.17/outbox.cif.g08.bks.cpg/sg15_12_cif.got.tgz:23450.got - 2010.06.03 18:47:42.
