data_PCOD9274104
_publ_section_title
;
Structure prediction by ZEFSAII (Michael W. Deem and Ramdas Pophale) SiO2 
 PCOD9274104
Probable space group: C 2/C
;
_chemical_formula_sum "Si O2"
_cell_formula_units_Z 44
_cell_length_a 25.546037
_cell_length_b 8.562916
_cell_length_c 12.908937
_cell_angle_alpha 90.000000
_cell_angle_beta 134.732065
_cell_angle_gamma 90.000000
_cell_volume 2006.051824
_symmetry_space_group_name_H-M "C 2/C"
_symmetry_group_IT_number 15
_symmetry_cell_setting 'monoclinic'
loop_
_space_group_symop_operation_xyz
x,y,z
-x,y,1/2-z
-x,-y,-z
x,-y,1/2+z
1/2+x,1/2+y,z
1/2-x,1/2+y,1/2-z
1/2-x,1/2-y,-z
1/2+x,1/2-y,1/2+z
loop_
_atom_site_type_symbol
_atom_site_label
_atom_site_fract_x
_atom_site_fract_y
_atom_site_fract_z
Si Si1 0.760247 0.087353 0.454734
Si Si2 0.698515 0.772308 0.187513
Si Si3 0.435583 0.569805 0.480134
Si Si4 0.135135 0.503143 0.924503
Si Si5 0.000000 0.284374 0.750000
Si Si6 0.650200 0.348065 0.991751
O O1 0.750000 0.250000 0.500000
O O2 0.768368 0.147253 0.348605
O O3 0.691528 0.996930 0.407162
O O4 0.834415 0.983615 0.572449
O O5 0.765893 0.814100 0.354994
O O6 0.630314 0.685969 0.149209
O O7 0.670911 0.917325 0.076516
O O8 0.500000 0.500000 0.500000
O O9 0.472497 0.674800 0.620321
O O10 0.394901 0.425417 0.478611
O O11 0.065759 0.395144 0.803774
O O12 0.115794 0.682987 0.915996
#
# Coordination Sequence:
#
# PCOD9274104 Si02
#       6
#     8   8   8   8   4   8
#     4   9  19  36  60  87 124 163 198 257 319 368
#     4   9  20  40  62  94 126 159 210 270 314 383
#     4  10  23  44  66  92 133 176 212 264 336 392
#     4  10  20  38  61  90 125 164 209 263 323 380
#     4  10  24  44  60  90 136 172 212 266 332 390
#     4  11  21  39  64  97 123 159 226 267 314 396
#
# _framework density 21.933630999999998
#
# number of rings (size 3 to 8) (size 9 to 14) (size 15 to 20)
#    0.000    2.182    0.000    3.818    2.545    0.727 
#   16.364    1.818    0.000    0.000    0.000    0.000 
#    0.000    0.000    0.000    0.000    0.000    0.000 
#
# Total GULP energy -122708.991938 kJ/mol
# GULP energy per Si atom -5577.681452 kJ/mol
# Density = 2.188371 g / cm^3
# Si number density = 21.933631 Si / 1000 Ang^3
#
#
#
# Elastic Constant Matrix: (Units=GPa)
#
#
# Indices 1 2 3 4 5 6 
#
# 1 155.4013 47.9423 11.2905 0.0000 33.6393 0.0000
# 2 47.9423 139.5716 14.6325 0.0000 8.4246 0.0000
# 3 11.2905 14.6325 52.7551 0.0000 15.0514 0.0000
# 4 0.0000 0.0000 0.0000 29.7101 0.0000 10.2240
# 5 33.6393 8.4246 15.0514 0.0000 19.7585 0.0000
# 6 0.0000 0.0000 0.0000 10.2240 0.0000 42.2401
#
#
#
# Elastic Compliance Matrix: (Units=1/GPa)
#
#
# Indices 1 2 3 4 5 6 
#
# 1 0.012010 -0.003259 0.004818 0.000000 -0.022729 0.000000
# 2 -0.003259 0.008328 -0.002788 0.000000 0.004121 0.000000
# 3 0.004818 -0.002788 0.026447 0.000000 -0.027160 0.000000
# 4 0.000000 0.000000 0.000000 0.036717 0.000000 -0.008887
# 5 -0.022729 0.004121 -0.027160 0.000000 0.108240 0.000000
# 6 0.000000 0.000000 0.000000 -0.008887 0.000000 0.025825
#
#
# Mechanical properties :
#
#
# Convention : Reuss Voigt Hill
#
# Bulk Modulus (GPa) = 22.55962 55.05096 38.80529
# Shear Modulus (GPa) = 21.29469 36.59923 28.94696
#
# Velocity S-wave (km/s) = 3.11926 4.08933 3.63678
# Velocity P-wave (km/s) = 4.82501 6.88841 5.94689
#
# Compressibility (1/GPa) = 0.04432699
#
# Stress axis : x y z
#
# Youngs Moduli (GPa) = 83.26242 120.08144 37.81180
#
# Poissons Ratio (x) = 0.39131 -0.18218
# Poissons Ratio (y) = 0.27133 0.10543
# Poissons Ratio (z) = -0.40116 0.33481
#
# Static dielectric constant tensor:
#      x y z
#    x 1.823270 0.000000 -0.016990 
#    y 0.000000 1.936460 0.000000 
#    z -0.016990 0.000000 1.864660 
# 
# From -- ./inp_files/176763.got.cif
#   From: 2010.05.17/outbox.cif.g08.bks.cpg/sg15_89_cif.got.tgz:176763.got - 2010.06.03 18:47:42.
