data_PCOD9274240
_publ_section_title
;
Structure prediction by ZEFSAII (Michael W. Deem and Ramdas Pophale) SiO2 
 PCOD9274240
Probable space group: C 2/C
;
_chemical_formula_sum "Si O2"
_cell_formula_units_Z 56
_cell_length_a 8.971867
_cell_length_b 16.951348
_cell_length_c 26.398594
_cell_angle_alpha 90.000000
_cell_angle_beta 132.016436
_cell_angle_gamma 90.000000
_cell_volume 2982.834204
_symmetry_space_group_name_H-M "C 2/C"
_symmetry_group_IT_number 15
_symmetry_cell_setting 'monoclinic'
loop_
_space_group_symop_operation_xyz
x,y,z
-x,y,1/2-z
-x,-y,-z
x,-y,1/2+z
1/2+x,1/2+y,z
1/2-x,1/2+y,1/2-z
1/2-x,1/2-y,-z
1/2+x,1/2-y,1/2+z
loop_
_atom_site_type_symbol
_atom_site_label
_atom_site_fract_x
_atom_site_fract_y
_atom_site_fract_z
Si Si1 0.241789 0.126499 0.408754
Si Si2 0.665933 0.682848 0.685079
Si Si3 0.640226 0.446980 0.389444
Si Si4 0.468374 0.216733 0.662666
Si Si5 0.883117 0.696721 0.068288
Si Si6 0.695031 0.541676 0.022253
Si Si7 0.946821 0.606788 0.561960
O O1 0.079978 0.192069 0.357967
O O2 0.440548 0.151786 0.422733
O O3 0.305303 0.127852 0.482186
O O4 0.163416 0.038583 0.380123
O O5 0.561598 0.598836 0.670307
O O6 0.807085 0.684607 0.667143
O O7 0.491607 0.746349 0.633088
O O8 0.812165 0.705298 0.763988
O O9 0.660583 0.441946 0.454892
O O10 0.829992 0.402996 0.408497
O O11 0.438253 0.169854 0.604163
O O12 0.747578 0.625696 0.058913
O O13 0.750000 0.750000 0.000000
O O14 0.872586 0.477894 0.065700
O O15 0.500000 0.500000 0.000000
#
# Coordination Sequence:
#
# PCOD9274240 Si02
#       7
#     8   8   8   8   8   8   8
#     4  10  20  38  62  88 122 150 200 248 300 351
#     4  10  22  41  61  80 125 158 203 240 302 364
#     4  11  20  40  60  87 124 154 189 259 297 355
#     4  10  23  40  60  88 114 164 200 243 299 368
#     4  11  19  37  63  87 117 159 196 248 297 356
#     4  11  21  35  59  95 118 150 199 244 304 356
#     4  11  20  37  62  90 120 151 200 251 300 354
#
# _framework density 18.774090999999999
#
# number of rings (size 3 to 8) (size 9 to 14) (size 15 to 20)
#    0.000    1.429    4.286    2.143    2.000    0.571 
#    7.714    1.429    0.000    0.000    0.000    0.000 
#    0.000    0.000    0.000    0.000    0.000    0.000 
#
# Total GULP energy -156374.563866 kJ/mol
# GULP energy per Si atom -5584.805852 kJ/mol
# Density = 1.873136 g / cm^3
# Si number density = 18.774091 Si / 1000 Ang^3
#
#
#
# Elastic Constant Matrix: (Units=GPa)
#
#
# Indices 1 2 3 4 5 6 
#
# 1 52.6657 39.1010 20.9694 0.0000 10.8035 0.0000
# 2 39.1010 131.3818 56.5753 0.0000 22.3223 0.0000
# 3 20.9694 56.5753 72.7008 0.0000 25.3836 0.0000
# 4 0.0000 0.0000 0.0000 22.7617 0.0000 12.7004
# 5 10.8035 22.3223 25.3836 0.0000 27.0805 0.0000
# 6 0.0000 0.0000 0.0000 12.7004 0.0000 36.7023
#
#
#
# Elastic Compliance Matrix: (Units=1/GPa)
#
#
# Indices 1 2 3 4 5 6 
#
# 1 0.024851 -0.006368 -0.000867 0.000000 -0.003852 0.000000
# 2 -0.006368 0.013127 -0.008157 0.000000 -0.000634 0.000000
# 3 -0.000867 -0.008157 0.026585 0.000000 -0.017849 0.000000
# 4 0.000000 0.000000 0.000000 0.054446 0.000000 -0.018840
# 5 -0.003852 -0.000634 -0.017849 0.000000 0.055717 0.000000
# 6 0.000000 0.000000 0.000000 -0.018840 0.000000 0.033766
#
#
# Mechanical properties :
#
#
# Convention : Reuss Voigt Hill
#
# Bulk Modulus (GPa) = 29.60521 54.44884 42.02703
# Shear Modulus (GPa) = 19.95718 26.64908 23.30313
#
# Velocity S-wave (km/s) = 3.26393 3.77166 3.52694
# Velocity P-wave (km/s) = 5.47793 6.93053 6.24660
#
# Compressibility (1/GPa) = 0.03377784
#
# Stress axis : x y z
#
# Youngs Moduli (GPa) = 40.23972 76.17899 37.61483
#
# Poissons Ratio (x) = 0.48511 0.03263
# Poissons Ratio (y) = 0.25625 0.30683
# Poissons Ratio (z) = 0.03491 0.62141
#
# Static dielectric constant tensor:
#      x y z
#    x 1.669720 0.000000 0.012670 
#    y 0.000000 1.665130 0.000000 
#    z 0.012670 0.000000 1.622920 
# 
# From -- ./inp_files/265602.got.cif
#   From: 2010.05.17/outbox.cif.g08.bks.cpg/sg15_133_cif.got.tgz:265602.got - 2010.06.03 18:47:42.
