data_PCOD9274295
_publ_section_title
;
Structure prediction by ZEFSAII (Michael W. Deem and Ramdas Pophale) SiO2 
 PCOD9274295
Probable space group: C 2/C
;
_chemical_formula_sum "Si O2"
_cell_formula_units_Z 44
_cell_length_a 13.970461
_cell_length_b 25.268676
_cell_length_c 8.809308
_cell_angle_alpha 90.000000
_cell_angle_beta 135.363739
_cell_angle_gamma 90.000000
_cell_volume 2184.969350
_symmetry_space_group_name_H-M "C 2/C"
_symmetry_group_IT_number 15
_symmetry_cell_setting 'monoclinic'
loop_
_space_group_symop_operation_xyz
x,y,z
-x,y,1/2-z
-x,-y,-z
x,-y,1/2+z
1/2+x,1/2+y,z
1/2-x,1/2+y,1/2-z
1/2-x,1/2-y,-z
1/2+x,1/2-y,1/2+z
loop_
_atom_site_type_symbol
_atom_site_label
_atom_site_fract_x
_atom_site_fract_y
_atom_site_fract_z
Si Si1 0.390005 0.577143 0.377984
Si Si2 0.198305 0.265670 0.608668
Si Si3 0.500000 0.497857 0.250000
Si Si4 0.000000 0.647994 0.750000
Si Si5 0.000000 0.525297 0.250000
Si Si6 0.485147 0.307973 0.051308
Si Si7 0.911556 0.569136 0.449152
O O1 0.429274 0.537280 0.288272
O O2 0.404828 0.541532 0.546069
O O3 0.478001 0.630617 0.489151
O O4 0.234346 0.593498 0.180262
O O5 0.250000 0.250000 0.500000
O O6 0.098186 0.313426 0.452226
O O7 0.105534 0.223329 0.597178
O O8 0.337269 0.281900 0.850262
O O9 0.033553 0.605098 0.654646
O O10 0.078750 0.560533 0.218357
O O11 0.084405 0.486488 0.456008
O O12 0.500000 0.306837 0.250000
#
# Coordination Sequence:
#
# PCOD9274295 Si02
#       7
#     8   8   4   4   4   8   8
#     4  11  22  41  65  96 136 178 223 278 344 411
#     4  12  25  48  72  99 137 177 234 285 347 420
#     4  10  24  39  62  98 134 173 228 270 338 416
#     4  11  22  39  62  96 126 175 222 283 326 418
#     4   9  20  38  60  92 126 182 222 279 336 392
#     4  12  26  47  73 104 139 182 232 295 354 410
#     4  10  20  38  62  90 133 170 230 274 339 402
#
# _framework density 20.137581999999998
#
# number of rings (size 3 to 8) (size 9 to 14) (size 15 to 20)
#    0.000    1.091    4.545    1.636    2.545    0.000 
#    4.909    0.000    0.000    0.000    0.000    0.000 
#    0.000    0.000    0.000    0.000    0.000    0.000 
#
# Total GULP energy -122501.117731 kJ/mol
# GULP energy per Si atom -5568.232624 kJ/mol
# Density = 2.009175 g / cm^3
# Si number density = 20.137582 Si / 1000 Ang^3
#
#
#
# Elastic Constant Matrix: (Units=GPa)
#
#
# Indices 1 2 3 4 5 6 
#
# 1 85.0291 51.9815 33.7456 0.0000 -14.2303 0.0000
# 2 51.9815 124.8510 31.9141 0.0000 -3.2287 0.0000
# 3 33.7456 31.9141 85.5800 0.0000 -8.6965 0.0000
# 4 0.0000 0.0000 0.0000 45.4843 0.0000 -19.3650
# 5 -14.2303 -3.2287 -8.6965 0.0000 31.1912 0.0000
# 6 0.0000 0.0000 0.0000 -19.3650 0.0000 57.0242
#
#
#
# Elastic Compliance Matrix: (Units=1/GPa)
#
#
# Indices 1 2 3 4 5 6 
#
# 1 0.018475 -0.006445 -0.004212 0.000000 0.006587 0.000000
# 2 -0.006445 0.011102 -0.001833 0.000000 -0.002302 0.000000
# 3 -0.004212 -0.001833 0.014218 0.000000 0.001853 0.000000
# 4 0.000000 0.000000 0.000000 0.025702 0.000000 0.008728
# 5 0.006587 -0.002302 0.001853 0.000000 0.035344 0.000000
# 6 0.000000 0.000000 0.000000 0.008728 0.000000 0.020500
#
#
# Mechanical properties :
#
#
# Convention : Reuss Voigt Hill
#
# Bulk Modulus (GPa) = 53.14963 58.97139 56.06051
# Shear Modulus (GPa) = 31.93035 38.59455 35.26245
#
# Velocity S-wave (km/s) = 3.98629 4.38258 4.18913
# Velocity P-wave (km/s) = 6.90202 7.41331 7.16223
#
# Compressibility (1/GPa) = 0.01881481
#
# Stress axis : x y z
#
# Youngs Moduli (GPa) = 54.12784 90.07554 70.33554
#
# Poissons Ratio (x) = 0.58053 0.29626
# Poissons Ratio (y) = 0.34885 0.12890
# Poissons Ratio (z) = 0.22799 0.16508
#
# Static dielectric constant tensor:
#      x y z
#    x 1.667340 0.000000 0.016750 
#    y 0.000000 1.865390 0.000000 
#    z 0.016750 0.000000 1.779200 
# 
# From -- ./inp_files/43728.got.cif
#   From: 2010.05.17/outbox.cif.g08.bks.cpg/sg15_22_cif.got.tgz:43728.got - 2010.06.03 18:47:42.
