data_PCOD9274735
_publ_section_title
;
Structure prediction by ZEFSAII (Michael W. Deem and Ramdas Pophale) SiO2 
 PCOD9274735
Probable space group: C 2/C
;
_chemical_formula_sum "Si O2"
_cell_formula_units_Z 52
_cell_length_a 12.330334
_cell_length_b 8.101473
_cell_length_c 27.637877
_cell_angle_alpha 90.000000
_cell_angle_beta 56.163892
_cell_angle_gamma 90.000000
_cell_volume 2293.258804
_symmetry_space_group_name_H-M "C 2/C"
_symmetry_group_IT_number 15
_symmetry_cell_setting 'monoclinic'
loop_
_space_group_symop_operation_xyz
x,y,z
-x,y,1/2-z
-x,-y,-z
x,-y,1/2+z
1/2+x,1/2+y,z
1/2-x,1/2+y,1/2-z
1/2-x,1/2-y,-z
1/2+x,1/2-y,1/2+z
loop_
_atom_site_type_symbol
_atom_site_label
_atom_site_fract_x
_atom_site_fract_y
_atom_site_fract_z
Si Si1 0.614832 0.024529 0.830196
Si Si2 0.820089 0.901148 0.711877
Si Si3 0.869798 0.002868 0.593656
Si Si4 0.000000 0.864630 0.750000
Si Si5 0.732719 0.666802 0.126520
Si Si6 0.649422 0.485328 0.050862
Si Si7 0.660791 0.110109 0.076417
O O1 0.679207 0.918330 0.771067
O O2 0.686812 0.965421 0.861478
O O3 0.462863 0.988103 0.873446
O O4 0.644850 0.213092 0.809660
O O5 0.836030 0.999369 0.658859
O O6 0.921083 0.961613 0.728234
O O7 0.775936 0.882593 0.587333
O O8 0.828378 0.185746 0.588112
O O9 0.021676 0.958704 0.553144
O O10 0.885587 0.773833 0.808514
O O11 0.672181 0.588272 0.093540
O O12 0.621782 0.294903 0.071790
O O13 0.776067 0.480181 0.985541
#
# Coordination Sequence:
#
# PCOD9274735 Si02
#       7
#     8   8   8   4   8   8   8
#     4  11  24  43  68 108 137 189 227 295 350 428
#     4  11  23  41  70 101 142 176 238 285 362 414
#     4  12  24  46  71 106 136 189 229 294 345 427
#     4  10  20  38  64  98 128 178 214 290 338 414
#     4  11  23  42  72  96 144 183 235 283 360 404
#     4  11  25  49  67 103 144 191 228 299 336 425
#     4  11  26  45  71 101 145 183 243 279 358 414
#
# _framework density 22.675155
#
# number of rings (size 3 to 8) (size 9 to 14) (size 15 to 20)
#    0.000    0.923    3.077    4.154    0.000    1.846 
#    2.769    0.000    0.000    0.000    0.000    0.000 
#    0.000    0.000    0.000    0.000    0.000    0.000 
#
# Total GULP energy -145485.182383 kJ/mol
# GULP energy per Si atom -5595.583938 kJ/mol
# Density = 2.262355 g / cm^3
# Si number density = 22.675155 Si / 1000 Ang^3
#
#
#
# Elastic Constant Matrix: (Units=GPa)
#
#
# Indices 1 2 3 4 5 6 
#
# 1 98.3172 35.6939 21.8480 0.0000 -9.7882 0.0000
# 2 35.6939 56.7288 37.7850 0.0000 -13.3978 0.0000
# 3 21.8480 37.7850 105.6426 0.0000 -20.1540 0.0000
# 4 0.0000 0.0000 0.0000 21.7886 0.0000 8.4427
# 5 -9.7882 -13.3978 -20.1540 0.0000 41.9584 0.0000
# 6 0.0000 0.0000 0.0000 8.4427 0.0000 22.7969
#
#
#
# Elastic Compliance Matrix: (Units=1/GPa)
#
#
# Indices 1 2 3 4 5 6 
#
# 1 0.013203 -0.008435 0.000397 0.000000 0.000577 0.000000
# 2 -0.008435 0.029081 -0.007993 0.000000 0.003479 0.000000
# 3 0.000397 -0.007993 0.012961 0.000000 0.003766 0.000000
# 4 0.000000 0.000000 0.000000 0.053585 0.000000 -0.019845
# 5 0.000577 0.003479 0.003766 0.000000 0.026887 0.000000
# 6 0.000000 0.000000 0.000000 -0.019845 0.000000 0.051215
#
#
# Mechanical properties :
#
#
# Convention : Reuss Voigt Hill
#
# Bulk Modulus (GPa) = 43.13808 50.14914 46.64361
# Shear Modulus (GPa) = 22.05339 28.33289 25.19314
#
# Velocity S-wave (km/s) = 3.12200 3.53868 3.33685
# Velocity P-wave (km/s) = 5.66229 6.23383 5.95492
#
# Compressibility (1/GPa) = 0.02318138
#
# Stress axis : x y z
#
# Youngs Moduli (GPa) = 75.74127 34.38721 77.15348
#
# Poissons Ratio (x) = 0.29006 -0.03060
# Poissons Ratio (y) = 0.63889 0.61669
# Poissons Ratio (z) = -0.03004 0.27486
#
# Static dielectric constant tensor:
#      x y z
#    x 1.856920 0.000000 -0.013210 
#    y 0.000000 1.812270 0.000000 
#    z -0.013210 0.000000 1.844750 
# 
# From -- ./inp_files/291475.got.cif
#   From: 2010.05.17/outbox.cif.g08.bks.cpg/sg15_146_cif.got.tgz:291475.got - 2010.06.03 18:47:42.
