data_PCOD9274864
_publ_section_title
;
Structure prediction by ZEFSAII (Michael W. Deem and Ramdas Pophale) SiO2 
 PCOD9274864
Probable space group: C 2/C
;
_chemical_formula_sum "Si O2"
_cell_formula_units_Z 40
_cell_length_a 20.391918
_cell_length_b 8.980672
_cell_length_c 18.875951
_cell_angle_alpha 90.000000
_cell_angle_beta 39.013899
_cell_angle_gamma 90.000000
_cell_volume 2176.093860
_symmetry_space_group_name_H-M "C 2/C"
_symmetry_group_IT_number 15
_symmetry_cell_setting 'monoclinic'
loop_
_space_group_symop_operation_xyz
x,y,z
-x,y,1/2-z
-x,-y,-z
x,-y,1/2+z
1/2+x,1/2+y,z
1/2-x,1/2+y,1/2-z
1/2-x,1/2-y,-z
1/2+x,1/2-y,1/2+z
loop_
_atom_site_type_symbol
_atom_site_label
_atom_site_fract_x
_atom_site_fract_y
_atom_site_fract_z
Si Si1 0.757881 0.717394 0.576033
Si Si2 0.310137 0.059060 0.248356
Si Si3 0.060877 0.017270 0.772899
Si Si4 0.866666 0.781259 0.688568
Si Si5 0.977785 0.736920 0.449380
O O1 0.750000 0.750000 0.500000
O O2 0.730188 0.864583 0.645277
O O3 0.671900 0.595923 0.667701
O O4 0.873298 0.669005 0.502396
O O5 0.226902 0.112596 0.259839
O O6 0.422999 0.129801 0.137753
O O7 0.321114 0.882274 0.240577
O O8 0.000000 0.019471 0.750000
O O9 0.003780 0.117412 0.880600
O O10 0.079399 0.854759 0.789232
O O11 0.947501 0.772937 0.555335
#
# Coordination Sequence:
#
# PCOD9274864 Si02
#       5
#     8   8   8   8   8
#     4  10  20  39  61  86 118 154 195 233 293 351
#     4  10  22  38  63  88 114 154 197 245 286 348
#     4  11  22  38  58  88 121 156 193 239 293 353
#     4  11  22  40  60  89 119 150 202 244 290 340
#     4  10  20  38  66  84 113 159 195 238 294 349
#
# _framework density 18.381561000000001
#
# number of rings (size 3 to 8) (size 9 to 14) (size 15 to 20)
#    0.000    1.600    2.000    4.800    0.000    1.600 
#    3.600    1.000    0.000    0.000    0.000    0.000 
#    0.000    0.000    0.000    0.000    0.000    0.000 
#
# Total GULP energy -111718.814598 kJ/mol
# GULP energy per Si atom -5585.940730 kJ/mol
# Density = 1.833972 g / cm^3
# Si number density = 18.381561 Si / 1000 Ang^3
#
#
#
# Elastic Constant Matrix: (Units=GPa)
#
#
# Indices 1 2 3 4 5 6 
#
# 1 54.3932 22.1093 22.9944 0.0000 2.7408 0.0000
# 2 22.1093 94.0759 2.4068 0.0000 6.8532 -0.0001
# 3 22.9944 2.4068 72.4345 0.0000 -2.0597 0.0000
# 4 0.0000 0.0000 0.0000 5.3482 0.0000 2.4975
# 5 2.7408 6.8532 -2.0597 0.0000 37.4403 0.0000
# 6 0.0000 -0.0001 0.0000 2.4975 0.0000 27.2655
#
#
#
# Elastic Compliance Matrix: (Units=1/GPa)
#
#
# Indices 1 2 3 4 5 6 
#
# 1 0.023721 -0.005300 -0.007388 0.000000 -0.001173 0.000000
# 2 -0.005300 0.011970 0.001236 0.000000 -0.001735 0.000000
# 3 -0.007388 0.001236 0.016144 0.000000 0.001203 0.000000
# 4 0.000000 0.000000 0.000000 0.195336 0.000000 -0.017893
# 5 -0.001173 -0.001735 0.001203 0.000000 0.027179 0.000000
# 6 0.000000 0.000000 0.000000 -0.017893 0.000000 0.038315
#
#
# Mechanical properties :
#
#
# Convention : Reuss Voigt Hill
#
# Bulk Modulus (GPa) = 34.56563 35.10273 34.83418
# Shear Modulus (GPa) = 14.48378 25.57032 20.02705
#
# Velocity S-wave (km/s) = 2.81009 3.73377 3.30437
# Velocity P-wave (km/s) = 5.41979 6.14217 5.79225
#
# Compressibility (1/GPa) = 0.02893048
#
# Stress axis : x y z
#
# Youngs Moduli (GPa) = 42.15626 83.54083 61.94284
#
# Poissons Ratio (x) = 0.44280 0.45761
# Poissons Ratio (y) = 0.22345 -0.07653
# Poissons Ratio (z) = 0.31143 -0.10322
#
# Static dielectric constant tensor:
#      x y z
#    x 1.628240 0.000000 -0.004330 
#    y 0.000000 1.618470 0.000000 
#    z -0.004330 0.000000 1.636890 
# 
# From -- ./inp_files/102662.got.cif
#   From: 2010.05.17/outbox.cif.g08.bks.cpg/sg15_52_cif.got.tgz:102662.got - 2010.06.03 18:47:42.
