data_PCOD9274745
_publ_section_title
;
Structure prediction by ZEFSAII (Michael W. Deem and Ramdas Pophale) SiO2 
 PCOD9274745
Probable space group: C 2/C
;
_chemical_formula_sum "Si O2"
_cell_formula_units_Z 40
_cell_length_a 28.373120
_cell_length_b 8.431023
_cell_length_c 21.825975
_cell_angle_alpha 90.000000
_cell_angle_beta 162.697183
_cell_angle_gamma 90.000000
_cell_volume 1552.865504
_symmetry_space_group_name_H-M "C 2/C"
_symmetry_group_IT_number 15
_symmetry_cell_setting 'monoclinic'
loop_
_space_group_symop_operation_xyz
x,y,z
-x,y,1/2-z
-x,-y,-z
x,-y,1/2+z
1/2+x,1/2+y,z
1/2-x,1/2+y,1/2-z
1/2-x,1/2-y,-z
1/2+x,1/2-y,1/2+z
loop_
_atom_site_type_symbol
_atom_site_label
_atom_site_fract_x
_atom_site_fract_y
_atom_site_fract_z
Si Si1 0.059747 0.373026 0.025109
Si Si2 0.588504 0.387970 0.416447
Si Si3 0.643760 0.934545 0.318117
Si Si4 0.169823 0.922848 0.831061
Si Si5 0.681112 0.635881 0.735836
O O1 0.975101 0.435110 0.857070
O O2 0.993275 0.206129 0.967559
O O3 0.000000 0.500000 0.000000
O O4 0.246517 0.381363 0.242084
O O5 0.500000 0.303198 0.250000
O O6 0.689973 0.525964 0.509610
O O7 0.460019 0.457884 0.302511
O O8 0.710827 0.276117 0.602016
O O9 0.683160 0.935709 0.439064
O O10 0.603446 0.754956 0.250765
O O11 0.208834 0.983570 0.812262
#
# Coordination Sequence:
#
# PCOD9274745 Si02
#       5
#     8   8   8   8   8
#     4  11  26  46  64  93 127 169 223 257 315 384
#     4   9  19  35  58  95 131 159 208 256 315 387
#     4   9  22  38  63  94 133 165 207 267 316 385
#     4  10  20  38  64  99 128 166 206 262 335 368
#     4  11  23  42  68  93 125 171 212 269 316 379
#
# _framework density 25.758832000000002
#
# number of rings (size 3 to 8) (size 9 to 14) (size 15 to 20)
#    0.000    2.000    2.000    0.000    5.600    4.000 
#    3.600    2.000    0.000    0.000    0.000    0.000 
#    0.000    0.000    0.000    0.000    0.000    0.000 
#
# Total GULP energy -111982.722529 kJ/mol
# GULP energy per Si atom -5599.136126 kJ/mol
# Density = 2.570020 g / cm^3
# Si number density = 25.758832 Si / 1000 Ang^3
#
#
#
# Elastic Constant Matrix: (Units=GPa)
#
#
# Indices 1 2 3 4 5 6 
#
# 1 131.0162 38.1541 39.9771 0.0000 22.5502 0.0000
# 2 38.1541 82.8459 20.0620 0.0000 -4.1539 0.0000
# 3 39.9771 20.0620 69.6830 0.0001 -1.0502 0.0000
# 4 0.0000 0.0000 0.0001 30.1669 0.0000 -8.1108
# 5 22.5502 -4.1539 -1.0502 0.0000 39.1237 0.0000
# 6 0.0000 0.0000 0.0000 -8.1108 0.0000 36.7557
#
#
#
# Elastic Compliance Matrix: (Units=1/GPa)
#
#
# Indices 1 2 3 4 5 6 
#
# 1 0.011981 -0.004519 -0.005686 0.000000 -0.007538 0.000000
# 2 -0.004519 0.014744 -0.001590 0.000000 0.004127 0.000000
# 3 -0.005686 -0.001590 0.018125 0.000000 0.003595 0.000000
# 4 0.000000 0.000000 0.000000 0.035240 0.000000 0.007776
# 5 -0.007538 0.004127 0.003595 0.000000 0.030439 0.000000
# 6 0.000000 0.000000 0.000000 0.007776 0.000000 0.028923
#
#
# Mechanical properties :
#
#
# Convention : Reuss Voigt Hill
#
# Bulk Modulus (GPa) = 47.03794 53.32573 50.18184
# Shear Modulus (GPa) = 29.38964 33.56606 31.47785
#
# Velocity S-wave (km/s) = 3.38147 3.61375 3.49954
# Velocity P-wave (km/s) = 5.79192 6.17731 5.98771
#
# Compressibility (1/GPa) = 0.02125943
#
# Stress axis : x y z
#
# Youngs Moduli (GPa) = 83.46509 67.82554 55.17293
#
# Poissons Ratio (x) = 0.30649 0.31372
# Poissons Ratio (y) = 0.37716 0.08773
# Poissons Ratio (z) = 0.47460 0.10785
#
# Static dielectric constant tensor:
#      x y z
#    x 2.064490 0.000000 0.007830 
#    y 0.000000 1.954030 0.000000 
#    z 0.007830 0.000000 2.106800 
# 
# From -- ./inp_files/60015.got.cif
#   From: 2010.05.17/outbox.cif.g08.bks.cpg/sg15_31_cif.got.tgz:60015.got - 2010.06.03 18:47:42.
