data_PCOD9274583
_publ_section_title
;
Structure prediction by ZEFSAII (Michael W. Deem and Ramdas Pophale) SiO2 
 PCOD9274583
Probable space group: C 2/C
;
_chemical_formula_sum "Si O2"
_cell_formula_units_Z 64
_cell_length_a 36.502731
_cell_length_b 20.045140
_cell_length_c 17.585449
_cell_angle_alpha 90.000000
_cell_angle_beta 16.289894
_cell_angle_gamma 90.000000
_cell_volume 3609.248384
_symmetry_space_group_name_H-M "C 2/C"
_symmetry_group_IT_number 15
_symmetry_cell_setting 'monoclinic'
loop_
_space_group_symop_operation_xyz
x,y,z
-x,y,1/2-z
-x,-y,-z
x,-y,1/2+z
1/2+x,1/2+y,z
1/2-x,1/2+y,1/2-z
1/2-x,1/2-y,-z
1/2+x,1/2-y,1/2+z
loop_
_atom_site_type_symbol
_atom_site_label
_atom_site_fract_x
_atom_site_fract_y
_atom_site_fract_z
Si Si1 0.626278 0.157909 0.947577
Si Si2 0.881315 0.066915 0.660373
Si Si3 0.866008 0.582730 0.248678
Si Si4 0.382133 0.677412 0.539824
Si Si5 0.849701 0.569553 0.747482
Si Si6 0.100985 0.086300 0.348206
Si Si7 0.017095 0.199500 0.627532
Si Si8 0.765763 0.282399 0.885299
O O1 0.751200 0.165882 0.752337
O O2 0.652636 0.105246 0.828806
O O3 0.500000 0.139485 0.250000
O O4 0.592276 0.229969 0.978932
O O5 0.915113 0.109979 0.519870
O O6 0.975924 0.087664 0.541384
O O7 0.895700 0.987659 0.621995
O O8 0.734074 0.083105 0.980626
O O9 0.844201 0.510937 0.252873
O O10 0.828677 0.645001 0.271091
O O11 0.013547 0.586602 0.984171
O O12 0.352994 0.734211 0.659840
O O13 0.500000 0.695959 0.250000
O O14 0.728946 0.591950 0.040578
O O15 0.088415 0.143486 0.435773
O O16 0.000000 0.179762 0.750000
O O17 0.875179 0.211086 0.873278
O O18 0.750000 0.250000 0.000000
#
# Coordination Sequence:
#
# PCOD9274583 Si02
#       8
#     8   8   8   8   8   8   8   8
#     4  11  22  40  60  82 127 165 197 243 309 368
#     4  10  20  39  61  88 118 160 205 242 298 368
#     4  10  20  38  64  87 119 154 212 242 292 363
#     4  12  24  38  58  94 125 152 203 258 302 359
#     4  10  22  38  60  93 120 156 203 256 296 356
#     4  10  21  38  63  89 120 153 205 258 292 357
#     4  11  22  40  62  88 121 162 202 248 307 367
#     4  12  21  40  68  88 115 170 207 241 300 372
#
# _framework density 17.732223999999999
#
# number of rings (size 3 to 8) (size 9 to 14) (size 15 to 20)
#    0.000    1.250    5.000    2.250    0.000    2.000 
#    2.250    0.625    0.000    0.000    0.000    0.000 
#    0.000    0.000    0.000    0.000    0.000    0.000 
#
# Total GULP energy -178779.887006 kJ/mol
# GULP energy per Si atom -5586.871469 kJ/mol
# Density = 1.769186 g / cm^3
# Si number density = 17.732224 Si / 1000 Ang^3
#
#
#
# Elastic Constant Matrix: (Units=GPa)
#
#
# Indices 1 2 3 4 5 6 
#
# 1 111.1549 71.0262 47.9958 0.0000 16.2298 0.0001
# 2 71.0262 98.2411 37.9121 -0.0005 20.0469 0.0001
# 3 47.9958 37.9121 106.1782 -0.0009 14.5453 -0.0001
# 4 0.0000 -0.0005 -0.0009 9.9918 0.0000 -1.5008
# 5 16.2298 20.0469 14.5453 0.0000 31.0935 -0.0002
# 6 0.0001 0.0001 -0.0001 -1.5008 -0.0002 32.6854
#
#
#
# Elastic Compliance Matrix: (Units=1/GPa)
#
#
# Indices 1 2 3 4 5 6 
#
# 1 0.018125 -0.011506 -0.004065 -0.000001 -0.000140 0.000000
# 2 -0.011506 0.020271 -0.001142 0.000001 -0.006529 0.000000
# 3 -0.004065 -0.001142 0.012044 0.000001 -0.002776 0.000000
# 4 -0.000001 0.000001 0.000001 0.100778 0.000000 0.004627
# 5 -0.000140 -0.006529 -0.002776 0.000000 0.037742 0.000000
# 6 0.000000 0.000000 0.000000 0.004627 0.000000 0.030807
#
#
# Mechanical properties :
#
#
# Convention : Reuss Voigt Hill
#
# Bulk Modulus (GPa) = 58.78304 69.93805 64.36055
# Shear Modulus (GPa) = 19.31511 25.33012 22.32262
#
# Velocity S-wave (km/s) = 3.30398 3.78362 3.55191
# Velocity P-wave (km/s) = 6.91212 7.65602 7.29356
#
# Compressibility (1/GPa) = 0.01701171
#
# Stress axis : x y z
#
# Youngs Moduli (GPa) = 55.17365 49.33165 83.02983
#
# Poissons Ratio (x) = 0.56762 0.33753
# Poissons Ratio (y) = 0.63484 0.09485
# Poissons Ratio (z) = 0.22429 0.05636
#
# Static dielectric constant tensor:
#      x y z
#    x 1.574920 0.000000 -0.002310 
#    y 0.000000 1.604750 0.000000 
#    z -0.002310 0.000000 1.596360 
# 
# From -- ./inp_files/183130.got.cif
#   From: 2010.05.17/outbox.cif.g08.bks.cpg/sg15_92_cif.got.tgz:183130.got - 2010.06.03 18:47:42.
