data_PCOD9274354
_publ_section_title
;
Structure prediction by ZEFSAII (Michael W. Deem and Ramdas Pophale) SiO2 
 PCOD9274354
Probable space group: C 2/C
;
_chemical_formula_sum "Si O2"
_cell_formula_units_Z 48
_cell_length_a 15.159878
_cell_length_b 10.478739
_cell_length_c 11.851963
_cell_angle_alpha 90.000000
_cell_angle_beta 69.172519
_cell_angle_gamma 90.000000
_cell_volume 1759.731731
_symmetry_space_group_name_H-M "C 2/C"
_symmetry_group_IT_number 15
_symmetry_cell_setting 'monoclinic'
loop_
_space_group_symop_operation_xyz
x,y,z
-x,y,1/2-z
-x,-y,-z
x,-y,1/2+z
1/2+x,1/2+y,z
1/2-x,1/2+y,1/2-z
1/2-x,1/2-y,-z
1/2+x,1/2-y,1/2+z
loop_
_atom_site_type_symbol
_atom_site_label
_atom_site_fract_x
_atom_site_fract_y
_atom_site_fract_z
Si Si1 0.823435 0.662517 0.344835
Si Si2 0.201264 0.403597 0.027504
Si Si3 0.917596 0.429753 0.602847
Si Si4 0.126064 0.051763 0.626369
Si Si5 0.608968 0.423162 0.875715
Si Si6 0.404368 0.168037 0.728228
O O1 0.839618 0.545617 0.423417
O O2 0.911128 0.652475 0.217861
O O3 0.828158 0.806328 0.387582
O O4 0.721395 0.619435 0.338512
O O5 0.181425 0.320332 0.145411
O O6 0.136533 0.345681 0.961749
O O7 0.301123 0.438783 0.934008
O O8 0.863997 0.557707 0.667260
O O9 0.000000 0.500000 0.500000
O O10 0.077979 0.052163 0.520996
O O11 0.095445 0.017054 0.771192
O O12 0.564358 0.291838 0.852198
O O13 0.500000 0.123106 0.750000
#
# Coordination Sequence:
#
# PCOD9274354 Si02
#       6
#     8   8   8   8   8   8
#     4  10  22  37  65  93 134 171 214 282 342 396
#     4  10  20  38  62  94 127 170 219 276 340 400
#     4  11  20  37  63  98 130 166 220 276 337 398
#     4  11  23  43  64  99 133 177 224 278 343 404
#     4  11  24  41  68  93 132 179 226 278 336 412
#     4  11  23  39  62  93 132 176 223 283 339 403
#
# _framework density 27.276886000000001
#
# number of rings (size 3 to 8) (size 9 to 14) (size 15 to 20)
#    0.000    1.333    3.333    4.000    4.667    2.000 
#    0.000    0.833    3.667    0.000    0.000    0.000 
#    0.000    0.000    0.000    0.000    0.000    0.000 
#
# Total GULP energy -133635.405553 kJ/mol
# GULP energy per Si atom -5568.141898 kJ/mol
# Density = 2.721480 g / cm^3
# Si number density = 27.276886 Si / 1000 Ang^3
#
#
#
# Elastic Constant Matrix: (Units=GPa)
#
#
# Indices 1 2 3 4 5 6 
#
# 1 81.2564 11.0026 49.4982 0.0000 20.7462 0.0000
# 2 11.0026 131.3329 52.6386 0.0000 5.1788 0.0000
# 3 49.4982 52.6386 223.4682 0.0000 6.9487 0.0000
# 4 0.0000 0.0000 0.0000 34.9351 0.0000 6.3794
# 5 20.7462 5.1788 6.9487 0.0000 48.2291 0.0000
# 6 0.0000 0.0000 0.0000 6.3794 0.0000 21.1353
#
#
#
# Elastic Compliance Matrix: (Units=1/GPa)
#
#
# Indices 1 2 3 4 5 6 
#
# 1 0.015981 0.000279 -0.003406 0.000000 -0.006414 0.000000
# 2 0.000279 0.008431 -0.002025 0.000000 -0.000734 0.000000
# 3 -0.003406 -0.002025 0.005680 0.000000 0.000864 0.000000
# 4 0.000000 0.000000 0.000000 0.030294 0.000000 -0.009144
# 5 -0.006414 -0.000734 0.000864 0.000000 0.023448 0.000000
# 6 0.000000 0.000000 0.000000 -0.009144 0.000000 0.050074
#
#
# Mechanical properties :
#
#
# Convention : Reuss Voigt Hill
#
# Bulk Modulus (GPa) = 50.53494 73.59291 62.06393
# Shear Modulus (GPa) = 33.15465 42.38779 37.77122
#
# Velocity S-wave (km/s) = 3.49016 3.94633 3.72524
# Velocity P-wave (km/s) = 5.89987 6.91399 6.42697
#
# Compressibility (1/GPa) = 0.01978829
#
# Stress axis : x y z
#
# Youngs Moduli (GPa) = 62.57271 118.60371 176.07095
#
# Poissons Ratio (x) = -0.03312 0.59974
# Poissons Ratio (y) = -0.01748 0.35656
# Poissons Ratio (z) = 0.21314 0.24018
#
# Static dielectric constant tensor:
#      x y z
#    x 2.326080 0.000000 0.025600 
#    y 0.000000 2.066800 0.000000 
#    z 0.025600 0.000000 2.551590 
# 
# From -- ./inp_files/104191.got.cif
#   From: 2010.05.17/outbox.cif.g08.bks.cpg/sg15_53_cif.got.tgz:104191.got - 2010.06.03 18:47:42.
