data_PCOD9274223
_publ_section_title
;
Structure prediction by ZEFSAII (Michael W. Deem and Ramdas Pophale) SiO2 
 PCOD9274223
Probable space group: C 2/C
;
_chemical_formula_sum "Si O2"
_cell_formula_units_Z 60
_cell_length_a 12.024309
_cell_length_b 13.272832
_cell_length_c 19.757369
_cell_angle_alpha 90.000000
_cell_angle_beta 127.592564
_cell_angle_gamma 90.000000
_cell_volume 2498.504959
_symmetry_space_group_name_H-M "C 2/C"
_symmetry_group_IT_number 15
_symmetry_cell_setting 'monoclinic'
loop_
_space_group_symop_operation_xyz
x,y,z
-x,y,1/2-z
-x,-y,-z
x,-y,1/2+z
1/2+x,1/2+y,z
1/2-x,1/2+y,1/2-z
1/2-x,1/2-y,-z
1/2+x,1/2-y,1/2+z
loop_
_atom_site_type_symbol
_atom_site_label
_atom_site_fract_x
_atom_site_fract_y
_atom_site_fract_z
Si Si1 0.676059 0.390673 0.020920
Si Si2 0.883606 0.097899 0.556966
Si Si3 0.268492 0.130229 0.712658
Si Si4 0.094349 0.291565 0.633517
Si Si5 0.857304 0.651592 0.136016
Si Si6 0.936012 0.667745 0.527914
Si Si7 0.500000 0.979757 0.250000
Si Si8 0.231014 0.865748 0.342756
O O1 0.716635 0.386842 0.115727
O O2 0.821863 0.388135 0.032313
O O3 0.589558 0.489625 0.967052
O O4 0.591991 0.288072 0.972453
O O5 0.997450 0.188144 0.595371
O O6 0.756500 0.142260 0.464812
O O7 0.832442 0.080768 0.614827
O O8 0.428351 0.095117 0.776171
O O9 0.195116 0.091307 0.754853
O O10 0.245260 0.250448 0.710686
O O11 0.008346 0.352418 0.655889
O O12 0.101042 0.347022 0.565105
O O13 0.869739 0.551648 0.183859
O O14 0.829699 0.752483 0.167565
O O15 0.100252 0.641673 0.592230
#
# Coordination Sequence:
#
# PCOD9274223 Si02
#       8
#     8   8   8   8   8   8   4   8
#     4  10  23  39  60  90 129 164 208 258 307 364
#     4  11  21  40  66  94 119 158 212 271 297 372
#     4  11  24  39  59  91 126 170 197 262 309 374
#     4  10  21  41  65  89 124 159 214 253 321 362
#     4  11  21  40  62  96 121 159 203 272 302 379
#     4  10  20  38  62  87 120 165 209 244 308 383
#     4  12  24  38  58  90 130 156 216 244 326 360
#     4  11  22  39  64  91 122 163 209 253 321 364
#
# _framework density 24.01436
#
# number of rings (size 3 to 8) (size 9 to 14) (size 15 to 20)
#    0.000    1.333    4.000    2.400    0.000    6.400 
#    0.000    1.333    0.000    4.800    0.000    0.000 
#    0.000    0.000    0.000    0.000    0.000    0.000 
#
# Total GULP energy -167306.129636 kJ/mol
# GULP energy per Si atom -5576.870988 kJ/mol
# Density = 2.395970 g / cm^3
# Si number density = 24.014360 Si / 1000 Ang^3
#
#
#
# Elastic Constant Matrix: (Units=GPa)
#
#
# Indices 1 2 3 4 5 6 
#
# 1 114.8286 2.2306 31.1380 0.0000 -35.0711 0.0000
# 2 2.2306 37.5447 -1.5778 0.0000 -1.0088 0.0000
# 3 31.1380 -1.5778 89.8233 0.0000 -34.3524 0.0000
# 4 0.0000 0.0000 0.0000 7.6333 0.0000 21.0724
# 5 -35.0711 -1.0088 -34.3524 0.0000 49.9093 0.0000
# 6 0.0000 0.0000 0.0000 21.0724 0.0000 15.5824
#
#
#
# Elastic Compliance Matrix: (Units=1/GPa)
#
#
# Indices 1 2 3 4 5 6 
#
# 1 0.011191 -0.000527 -0.001202 0.000000 0.007026 0.000000
# 2 -0.000527 0.026730 0.000973 0.000000 0.000840 0.000000
# 3 -0.001202 0.000973 0.015271 0.000000 0.009686 0.000000
# 4 0.000000 0.000000 0.000000 -0.047931 0.000000 0.064818
# 5 0.007026 0.000840 0.009686 0.000000 0.031658 0.000000
# 6 0.000000 0.000000 0.000000 0.064818 0.000000 -0.023480
#
#
# Mechanical properties :
#
#
# Convention : Reuss Voigt Hill
#
# Bulk Modulus (GPa) = 19.34911 33.97537 26.66224
# Shear Modulus (GPa) = 155.40000 28.65205 92.02602
#
# Velocity S-wave (km/s) = 8.05306 3.45791 6.19713
# Velocity P-wave (km/s) = 9.72336 5.48830 7.89510
#
# Compressibility (1/GPa) = 0.05168198
#
# Stress axis : x y z
#
# Youngs Moduli (GPa) = 89.36119 37.41157 65.48312
#
# Poissons Ratio (x) = 0.01970 0.07868
# Poissons Ratio (y) = 0.04706 -0.06374
# Poissons Ratio (z) = 0.10737 -0.03642
#
# Static dielectric constant tensor:
#      x y z
#    x 1.969790 0.000000 0.020300 
#    y 0.000000 1.934260 0.000000 
#    z 0.020300 0.000000 1.976510 
# 
# From -- ./inp_files/198388.got.cif
#   From: 2010.05.17/outbox.cif.g08.bks.cpg/sg15_100_cif.got.tgz:198388.got - 2010.06.03 18:47:42.
