data_PCOD9274992
_publ_section_title
;
Structure prediction by ZEFSAII (Michael W. Deem and Ramdas Pophale) SiO2 
 PCOD9274992
Probable space group: C 2/C
;
_chemical_formula_sum "Si O2"
_cell_formula_units_Z 60
_cell_length_a 10.630406
_cell_length_b 17.325025
_cell_length_c 21.618937
_cell_angle_alpha 90.000000
_cell_angle_beta 135.549916
_cell_angle_gamma 90.000000
_cell_volume 2788.267929
_symmetry_space_group_name_H-M "C 2/C"
_symmetry_group_IT_number 15
_symmetry_cell_setting 'monoclinic'
loop_
_space_group_symop_operation_xyz
x,y,z
-x,y,1/2-z
-x,-y,-z
x,-y,1/2+z
1/2+x,1/2+y,z
1/2-x,1/2+y,1/2-z
1/2-x,1/2-y,-z
1/2+x,1/2-y,1/2+z
loop_
_atom_site_type_symbol
_atom_site_label
_atom_site_fract_x
_atom_site_fract_y
_atom_site_fract_z
Si Si1 0.250877 0.729367 0.765043
Si Si2 0.118075 0.574021 0.554510
Si Si3 0.038059 0.000553 0.832998
Si Si4 0.961299 0.732985 0.453095
Si Si5 0.817181 0.182370 0.375147
Si Si6 0.339758 0.057144 0.782992
Si Si7 0.412747 0.674974 0.134640
Si Si8 0.000000 0.441792 0.750000
O O1 0.418559 0.749854 0.866698
O O2 0.268786 0.749074 0.698208
O O3 0.185207 0.642643 0.753230
O O4 0.091698 0.788305 0.727538
O O5 0.310108 0.557497 0.590802
O O6 0.129480 0.573841 0.633484
O O7 0.000000 0.500000 0.500000
O O8 0.034931 0.649033 0.495429
O O9 0.112287 0.913621 0.854812
O O10 0.000000 0.025955 0.750000
O O11 0.845824 0.011161 0.795742
O O12 0.761842 0.727795 0.416067
O O13 0.110733 0.789866 0.533731
O O14 0.672841 0.113934 0.320477
O O15 0.008138 0.166938 0.407190
O O16 0.482766 0.000312 0.802107
#
# Coordination Sequence:
#
# PCOD9274992 Si02
#       8
#     8   8   8   8   8   8   8   4
#     4  10  24  42  71  97 134 179 240 278 345 415
#     4  11  23  39  70 104 131 165 232 301 341 396
#     4  10  20  38  67  93 130 169 226 280 342 400
#     4  12  22  43  70 101 132 177 236 290 343 408
#     4  10  25  43  65  98 135 190 220 281 344 428
#     4  11  24  46  65 102 134 187 225 285 351 417
#     4  10  20  40  66  96 129 173 229 283 335 410
#     4  12  26  46  70  94 158 182 224 280 372 420
#
# _framework density 21.518735
#
# number of rings (size 3 to 8) (size 9 to 14) (size 15 to 20)
#    0.800    0.533    4.000    1.600    5.600    1.067 
#    2.400    2.000    0.000    0.000    0.000    0.000 
#    0.000    0.000    0.000    0.000    0.000    0.000 
#
# Total GULP energy -167077.492430 kJ/mol
# GULP energy per Si atom -5569.249748 kJ/mol
# Density = 2.146976 g / cm^3
# Si number density = 21.518735 Si / 1000 Ang^3
#
#
#
# Elastic Constant Matrix: (Units=GPa)
#
#
# Indices 1 2 3 4 5 6 
#
# 1 22.9964 6.7489 11.3161 0.0000 6.1351 0.0000
# 2 6.7489 98.0351 54.5470 0.0000 -0.1695 0.0000
# 3 11.3161 54.5470 134.4715 0.0000 -6.2628 0.0000
# 4 0.0000 0.0000 0.0000 34.7980 0.0000 6.8936
# 5 6.1351 -0.1695 -6.2628 0.0000 13.3337 0.0000
# 6 0.0000 0.0000 0.0000 6.8936 0.0000 18.2400
#
#
#
# Elastic Compliance Matrix: (Units=1/GPa)
#
#
# Indices 1 2 3 4 5 6 
#
# 1 0.053679 -0.000674 -0.005515 0.000000 -0.027298 0.000000
# 2 -0.000674 0.013257 -0.005417 0.000000 -0.002066 0.000000
# 3 -0.005515 -0.005417 0.010441 0.000000 0.007373 0.000000
# 4 0.000000 0.000000 0.000000 0.031063 0.000000 -0.011740
# 5 -0.027298 -0.002066 0.007373 0.000000 0.090995 0.000000
# 6 0.000000 0.000000 0.000000 -0.011740 0.000000 0.059262
#
#
# Mechanical properties :
#
#
# Convention : Reuss Voigt Hill
#
# Bulk Modulus (GPa) = 18.46191 44.52523 31.49357
# Shear Modulus (GPa) = 16.66856 25.46707 21.06782
#
# Velocity S-wave (km/s) = 2.78620 3.44391 3.13236
# Velocity P-wave (km/s) = 4.35300 6.04569 5.26778
#
# Compressibility (1/GPa) = 0.05416557
#
# Stress axis : x y z
#
# Youngs Moduli (GPa) = 18.62913 75.42942 95.77180
#
# Poissons Ratio (x) = 0.05083 0.52821
# Poissons Ratio (y) = 0.01255 0.51882
# Poissons Ratio (z) = 0.10274 0.40862
#
# Static dielectric constant tensor:
#      x y z
#    x 1.913750 0.000000 0.002930 
#    y 0.000000 1.762190 0.000000 
#    z 0.002930 0.000000 1.828070 
# 
# From -- ./inp_files/270629.got.cif
#   From: 2010.05.17/outbox.cif.g08.bks.cpg/sg15_136_cif.got.tgz:270629.got - 2010.06.03 18:47:42.
