data_PCOD9274121
_publ_section_title
;
Structure prediction by ZEFSAII (Michael W. Deem and Ramdas Pophale) SiO2 
 PCOD9274121
Probable space group: C 2/C
;
_chemical_formula_sum "Si O2"
_cell_formula_units_Z 52
_cell_length_a 13.690711
_cell_length_b 11.935151
_cell_length_c 19.600086
_cell_angle_alpha 90.000000
_cell_angle_beta 119.732246
_cell_angle_gamma 90.000000
_cell_volume 2781.044726
_symmetry_space_group_name_H-M "C 2/C"
_symmetry_group_IT_number 15
_symmetry_cell_setting 'monoclinic'
loop_
_space_group_symop_operation_xyz
x,y,z
-x,y,1/2-z
-x,-y,-z
x,-y,1/2+z
1/2+x,1/2+y,z
1/2-x,1/2+y,1/2-z
1/2-x,1/2-y,-z
1/2+x,1/2-y,1/2+z
loop_
_atom_site_type_symbol
_atom_site_label
_atom_site_fract_x
_atom_site_fract_y
_atom_site_fract_z
Si Si1 0.005072 0.510936 0.421070
Si Si2 0.322173 0.940645 0.627417
Si Si3 0.487623 0.233395 0.857062
Si Si4 0.324953 0.189938 0.678602
Si Si5 0.000000 0.267387 0.750000
Si Si6 0.938496 0.881323 0.970365
Si Si7 0.572610 0.253548 0.130268
O O1 0.126926 0.534871 0.429945
O O2 0.000000 0.500000 0.500000
O O3 0.969017 0.391754 0.379109
O O4 0.933681 0.618345 0.372690
O O5 0.398650 0.845600 0.688138
O O6 0.194241 0.903199 0.577740
O O7 0.337537 0.055364 0.675574
O O8 0.395270 0.241736 0.765467
O O9 0.611789 0.237525 0.866393
O O10 0.473322 0.321538 0.912108
O O11 0.194160 0.212869 0.643994
O O12 0.953845 0.205972 0.801757
O O13 0.979388 0.802307 0.046455
O O14 0.000000 0.000000 0.000000
#
# Coordination Sequence:
#
# PCOD9274121 Si02
#       7
#     8   8   8   8   4   8   8
#     4  10  20  38  61  92 111 151 210 254 285 354
#     4  10  21  39  65  86 127 159 199 249 312 359
#     4  10  22  39  65  90 117 157 214 247 300 359
#     4  10  20  40  65  89 116 163 203 255 295 359
#     4  10  22  40  62  88 116 164 212 248 292 366
#     4  12  24  40  60  93 130 162 191 252 319 363
#     4  11  22  39  63  87 126 157 203 252 310 356
#
# _framework density 18.698008999999999
#
# number of rings (size 3 to 8) (size 9 to 14) (size 15 to 20)
#    0.000    1.538    3.077    3.692    0.000    4.308 
#    2.769    1.538    0.000    0.000    0.000    0.000 
#    0.000    0.000    0.000    0.000    0.000    0.000 
#
# Total GULP energy -145084.771232 kJ/mol
# GULP energy per Si atom -5580.183509 kJ/mol
# Density = 1.865545 g / cm^3
# Si number density = 18.698009 Si / 1000 Ang^3
#
#
#
# Elastic Constant Matrix: (Units=GPa)
#
#
# Indices 1 2 3 4 5 6 
#
# 1 102.6484 25.2479 55.9501 0.0000 -1.4610 0.0000
# 2 25.2479 67.1989 16.6639 0.0000 -7.4974 0.0000
# 3 55.9501 16.6639 93.9066 0.0000 -13.6176 0.0000
# 4 0.0000 0.0000 0.0000 14.7383 0.0000 -2.3879
# 5 -1.4610 -7.4974 -13.6176 0.0000 44.8515 0.0000
# 6 0.0000 0.0000 0.0000 -2.3879 0.0000 26.7854
#
#
#
# Elastic Compliance Matrix: (Units=1/GPa)
#
#
# Indices 1 2 3 4 5 6 
#
# 1 0.015575 -0.003942 -0.008999 0.000000 -0.002884 0.000000
# 2 -0.003942 0.016711 -0.000241 0.000000 0.002592 0.000000
# 3 -0.008999 -0.000241 0.016742 0.000000 0.004750 0.000000
# 4 0.000000 0.000000 0.000000 0.068845 0.000000 0.006137
# 5 -0.002884 0.002592 0.004750 0.000000 0.024077 0.000000
# 6 0.000000 0.000000 0.000000 0.006137 0.000000 0.037881
#
#
# Mechanical properties :
#
#
# Convention : Reuss Voigt Hill
#
# Bulk Modulus (GPa) = 44.12030 51.05309 47.58669
# Shear Modulus (GPa) = 23.39185 28.33450 25.86317
#
# Velocity S-wave (km/s) = 3.54083 3.89701 3.72318
# Velocity P-wave (km/s) = 6.35328 6.90016 6.63236
#
# Compressibility (1/GPa) = 0.02266530
#
# Stress axis : x y z
#
# Youngs Moduli (GPa) = 64.20381 59.83988 59.73096
#
# Poissons Ratio (x) = 0.23590 0.53749
# Poissons Ratio (y) = 0.25311 0.01438
# Poissons Ratio (z) = 0.57774 0.01441
#
# Static dielectric constant tensor:
#      x y z
#    x 1.650810 0.000000 -0.023060 
#    y 0.000000 1.642710 0.000000 
#    z -0.023060 0.000000 1.650040 
# 
# From -- ./inp_files/237201.got.cif
#   From: 2010.05.17/outbox.cif.g08.bks.cpg/sg15_119_cif.got.tgz:237201.got - 2010.06.03 18:47:42.
