data_PCOD9274217
_publ_section_title
;
Structure prediction by ZEFSAII (Michael W. Deem and Ramdas Pophale) SiO2 
 PCOD9274217
Probable space group: C 2/C
;
_chemical_formula_sum "Si O2"
_cell_formula_units_Z 60
_cell_length_a 16.971942
_cell_length_b 14.390177
_cell_length_c 12.092243
_cell_angle_alpha 90.000000
_cell_angle_beta 63.886380
_cell_angle_gamma 90.000000
_cell_volume 2651.817441
_symmetry_space_group_name_H-M "C 2/C"
_symmetry_group_IT_number 15
_symmetry_cell_setting 'monoclinic'
loop_
_space_group_symop_operation_xyz
x,y,z
-x,y,1/2-z
-x,-y,-z
x,-y,1/2+z
1/2+x,1/2+y,z
1/2-x,1/2+y,1/2-z
1/2-x,1/2-y,-z
1/2+x,1/2-y,1/2+z
loop_
_atom_site_type_symbol
_atom_site_label
_atom_site_fract_x
_atom_site_fract_y
_atom_site_fract_z
Si Si1 0.143056 0.406592 0.490804
Si Si2 0.214938 0.852054 0.481644
Si Si3 0.460620 0.278982 0.887440
Si Si4 0.404692 0.699758 0.020907
Si Si5 0.000000 0.116633 0.750000
Si Si6 0.321825 0.623348 0.756770
Si Si7 0.135388 0.401737 0.961555
Si Si8 0.796796 0.340504 0.815019
O O1 0.104313 0.311084 0.467599
O O2 0.238366 0.415386 0.373685
O O3 0.089730 0.498835 0.496541
O O4 0.154029 0.387762 0.613900
O O5 0.250000 0.750000 0.500000
O O6 0.117080 0.851477 0.589624
O O7 0.201154 0.872420 0.360144
O O8 0.289397 0.913059 0.490695
O O9 0.500000 0.242807 0.750000
O O10 0.533521 0.327622 0.916276
O O11 0.419548 0.190885 0.977685
O O12 0.306923 0.659616 0.093241
O O13 0.452765 0.671557 0.878928
O O14 0.086573 0.076058 0.761292
O O15 0.325651 0.732701 0.787937
O O16 0.180684 0.385956 0.815534
#
# Coordination Sequence:
#
# PCOD9274217 Si02
#       8
#     8   8   8   8   4   8   8   8
#     4  11  25  38  62  93 126 166 197 248 313 378
#     4  10  20  38  62  87 116 164 211 247 291 361
#     4  11  23  38  62  93 118 161 207 254 304 356
#     4  11  22  37  66  92 120 157 210 260 295 361
#     4  12  18  38  62  96 120 148 210 268 300 342
#     4  11  20  39  66  89 117 163 214 254 294 356
#     4  11  25  41  60  90 130 165 196 251 309 376
#     4  11  20  42  61  88 119 164 218 242 294 367
#
# _framework density 22.625990999999999
#
# number of rings (size 3 to 8) (size 9 to 14) (size 15 to 20)
#    0.000    1.067    6.667    1.600    7.467    0.533 
#    1.200    0.000    4.400    2.400    0.000    0.000 
#    0.000    0.000    0.000    0.000    0.000    0.000 
#
# Total GULP energy -167478.592967 kJ/mol
# GULP energy per Si atom -5582.619766 kJ/mol
# Density = 2.257449 g / cm^3
# Si number density = 22.625991 Si / 1000 Ang^3
#
#
#
# Elastic Constant Matrix: (Units=GPa)
#
#
# Indices 1 2 3 4 5 6 
#
# 1 138.8252 -15.0521 30.4680 0.0000 16.8605 0.0000
# 2 -15.0521 33.7003 6.2637 0.0000 11.6968 0.0000
# 3 30.4680 6.2637 135.6973 0.0000 5.4865 0.0000
# 4 0.0000 0.0000 0.0000 10.8058 0.0000 4.1563
# 5 16.8605 11.6968 5.4865 0.0000 19.1056 0.0000
# 6 0.0000 0.0000 0.0000 4.1563 0.0000 -4.6681
#
#
#
# Elastic Compliance Matrix: (Units=1/GPa)
#
#
# Indices 1 2 3 4 5 6 
#
# 1 0.010677 0.010457 -0.002267 0.000000 -0.015174 0.000000
# 2 0.010457 0.048010 -0.003038 0.000000 -0.037749 0.000000
# 3 -0.002267 -0.003038 0.007955 0.000000 0.001576 0.000000
# 4 0.000000 0.000000 0.000000 0.068935 0.000000 0.061377
# 5 -0.015174 -0.037749 0.001576 0.000000 0.088389 0.000000
# 6 0.000000 0.000000 0.000000 0.061377 0.000000 -0.159571
#
#
# Mechanical properties :
#
#
# Convention : Reuss Voigt Hill
#
# Bulk Modulus (GPa) = 12.99589 39.06466 26.03028
# Shear Modulus (GPa) = 62.70410 24.15153 43.42781
#
# Velocity S-wave (km/s) = 5.27005 3.27069 4.38582
# Velocity P-wave (km/s) = 6.54122 5.61837 6.09728
#
# Compressibility (1/GPa) = 0.07694739
#
# Stress axis : x y z
#
# Youngs Moduli (GPa) = 93.65589 20.82889 125.71079
#
# Poissons Ratio (x) = -0.21780 0.28493
# Poissons Ratio (y) = -0.97934 0.38187
# Poissons Ratio (z) = 0.21228 0.06327
#
# Static dielectric constant tensor:
#      x y z
#    x 1.884350 0.000000 0.000280 
#    y 0.000000 1.913180 0.000000 
#    z 0.000280 0.000000 1.792310 
# 
# From -- ./inp_files/106678.got.cif
#   From: 2010.05.17/outbox.cif.g08.bks.cpg/sg15_54_cif.got.tgz:106678.got - 2010.06.03 18:47:42.
