data_PCOD9274466
_publ_section_title
;
Structure prediction by ZEFSAII (Michael W. Deem and Ramdas Pophale) SiO2 
 PCOD9274466
Probable space group: C 2/C
;
_chemical_formula_sum "Si O2"
_cell_formula_units_Z 44
_cell_length_a 13.537092
_cell_length_b 7.970427
_cell_length_c 18.591037
_cell_angle_alpha 90.000000
_cell_angle_beta 71.427744
_cell_angle_gamma 90.000000
_cell_volume 1901.443955
_symmetry_space_group_name_H-M "C 2/C"
_symmetry_group_IT_number 15
_symmetry_cell_setting 'monoclinic'
loop_
_space_group_symop_operation_xyz
x,y,z
-x,y,1/2-z
-x,-y,-z
x,-y,1/2+z
1/2+x,1/2+y,z
1/2-x,1/2+y,1/2-z
1/2-x,1/2-y,-z
1/2+x,1/2-y,1/2+z
loop_
_atom_site_type_symbol
_atom_site_label
_atom_site_fract_x
_atom_site_fract_y
_atom_site_fract_z
Si Si1 0.639901 0.229847 0.985148
Si Si2 0.320701 0.243327 0.195212
Si Si3 0.872292 0.136448 0.173200
Si Si4 0.500000 0.205728 0.250000
Si Si5 0.075484 0.964195 0.116195
Si Si6 0.703334 0.116864 0.453952
O O1 0.649814 0.284443 0.899950
O O2 0.623818 0.029071 0.998000
O O3 0.750000 0.250000 0.000000
O O4 0.565821 0.364401 0.042515
O O5 0.345059 0.440475 0.190262
O O6 0.402196 0.136488 0.226271
O O7 0.338812 0.196802 0.108561
O O8 0.203313 0.222283 0.251610
O O9 0.997842 0.120062 0.147364
O O10 0.556835 0.323063 0.179355
O O11 0.192229 0.024754 0.095899
O O12 0.750000 0.250000 0.500000
#
# Coordination Sequence:
#
# PCOD9274466 Si02
#       6
#     8   8   8   4   8   8
#     4  10  20  38  63  91 127 171 213 260 320 392
#     4  11  22  40  64  91 127 167 216 271 323 389
#     4  11  22  40  64  93 125 172 218 265 325 390
#     4  10  22  40  64  90 118 168 216 256 322 390
#     4  10  21  41  65  89 125 173 215 259 325 400
#     4  11  23  41  65  98 131 166 214 273 328 387
#
# _framework density 23.140307
#
# number of rings (size 3 to 8) (size 9 to 14) (size 15 to 20)
#    0.000    1.455    0.000    8.182    0.000    1.455 
#    0.000   15.455    0.000    2.182    0.000    0.000 
#    0.000    0.000    0.000    0.000    0.000    0.000 
#
# Total GULP energy -122633.058900 kJ/mol
# GULP energy per Si atom -5574.229950 kJ/mol
# Density = 2.308764 g / cm^3
# Si number density = 23.140307 Si / 1000 Ang^3
#
#
#
# Elastic Constant Matrix: (Units=GPa)
#
#
# Indices 1 2 3 4 5 6 
#
# 1 89.1095 4.3746 -0.4085 0.0000 -0.2560 0.0000
# 2 4.3746 39.9515 -7.2885 0.0000 4.9489 0.0000
# 3 -0.4085 -7.2885 69.9170 0.0000 20.6695 0.0000
# 4 0.0000 0.0000 0.0000 38.5036 0.0000 0.8674
# 5 -0.2560 4.9489 20.6695 0.0000 41.0698 0.0000
# 6 0.0000 0.0000 0.0000 0.8674 0.0000 15.9571
#
#
#
# Elastic Compliance Matrix: (Units=1/GPa)
#
#
# Indices 1 2 3 4 5 6 
#
# 1 0.011286 -0.001303 -0.000161 0.000000 0.000308 0.000000
# 2 -0.001303 0.026642 0.004372 0.000000 -0.005419 0.000000
# 3 -0.000161 0.004372 0.017520 0.000000 -0.009345 0.000000
# 4 0.000000 0.000000 0.000000 0.026003 0.000000 -0.001414
# 5 0.000308 -0.005419 -0.009345 0.000000 0.029707 0.000000
# 6 0.000000 0.000000 0.000000 -0.001414 0.000000 0.062745
#
#
# Mechanical properties :
#
#
# Convention : Reuss Voigt Hill
#
# Bulk Modulus (GPa) = 16.32326 21.37034 18.84680
# Shear Modulus (GPa) = 26.52373 32.59280 29.55826
#
# Velocity S-wave (km/s) = 3.38925 3.75705 3.57788
# Velocity P-wave (km/s) = 4.73132 5.29866 5.02300
#
# Compressibility (1/GPa) = 0.06126228
#
# Stress axis : x y z
#
# Youngs Moduli (GPa) = 88.60313 37.53500 57.07696
#
# Poissons Ratio (x) = 0.04892 0.00920
# Poissons Ratio (y) = 0.11549 -0.24952
# Poissons Ratio (z) = 0.01428 -0.16409
#
# Static dielectric constant tensor:
#      x y z
#    x 1.976940 0.000000 0.003100 
#    y 0.000000 1.968350 0.000000 
#    z 0.003100 0.000000 2.034860 
# 
# From -- ./inp_files/202567.got.cif
#   From: 2010.05.17/outbox.cif.g08.bks.cpg/sg15_102_cif.got.tgz:202567.got - 2010.06.03 18:47:42.
