data_PCOD9274405
_publ_section_title
;
Structure prediction by ZEFSAII (Michael W. Deem and Ramdas Pophale) SiO2 
 PCOD9274405
Probable space group: C 2/C
;
_chemical_formula_sum "Si O2"
_cell_formula_units_Z 56
_cell_length_a 9.437252
_cell_length_b 14.246551
_cell_length_c 16.246092
_cell_angle_alpha 90.000000
_cell_angle_beta 79.385479
_cell_angle_gamma 90.000000
_cell_volume 2146.883797
_symmetry_space_group_name_H-M "C 2/C"
_symmetry_group_IT_number 15
_symmetry_cell_setting 'monoclinic'
loop_
_space_group_symop_operation_xyz
x,y,z
-x,y,1/2-z
-x,-y,-z
x,-y,1/2+z
1/2+x,1/2+y,z
1/2-x,1/2+y,1/2-z
1/2-x,1/2-y,-z
1/2+x,1/2-y,1/2+z
loop_
_atom_site_type_symbol
_atom_site_label
_atom_site_fract_x
_atom_site_fract_y
_atom_site_fract_z
Si Si1 0.837611 0.196605 0.728817
Si Si2 0.896143 0.930741 0.899302
Si Si3 0.791836 0.132195 0.167880
Si Si4 0.679974 0.627942 0.526921
Si Si5 0.175555 0.508517 0.791792
Si Si6 0.016236 0.590967 0.940580
Si Si7 0.908346 0.230466 0.536412
O O1 0.734532 0.267617 0.788901
O O2 0.780245 0.091831 0.750245
O O3 0.827555 0.221802 0.632182
O O4 0.000000 0.203869 0.750000
O O5 0.044199 0.904495 0.837318
O O6 0.760936 0.947105 0.853131
O O7 0.881241 0.851940 0.972189
O O8 0.905016 0.033376 0.939793
O O9 0.776583 0.126111 0.072152
O O10 0.671689 0.066282 0.220299
O O11 0.822698 0.630064 0.564167
O O12 0.571674 0.712607 0.549895
O O13 0.031236 0.553521 0.846086
O O14 0.000000 0.500000 0.000000
O O15 0.913224 0.673169 0.983677
#
# Coordination Sequence:
#
# PCOD9274405 Si02
#       7
#     8   8   8   8   8   8   8
#     4  12  23  37  61  92 120 153 197 251 300 349
#     4  10  21  38  63  90 117 155 201 249 298 357
#     4  11  21  36  60  92 120 151 200 254 296 345
#     4  10  20  38  63  87 115 159 206 250 295 358
#     4  11  22  40  63  88 121 159 199 249 301 355
#     4  11  23  40  59  88 126 164 198 244 302 358
#     4  11  21  39  62  89 120 159 203 243 296 364
#
# _framework density 26.084316999999999
#
# number of rings (size 3 to 8) (size 9 to 14) (size 15 to 20)
#    0.000    1.143    0.000   10.286    0.000    0.000 
#    0.000    7.857    0.000    3.429    0.000    0.000 
#    0.000    0.000    0.000    0.000    0.000    0.000 
#
# Total GULP energy -156783.591552 kJ/mol
# GULP energy per Si atom -5599.413984 kJ/mol
# Density = 2.602495 g / cm^3
# Si number density = 26.084317 Si / 1000 Ang^3
#
#
#
# Elastic Constant Matrix: (Units=GPa)
#
#
# Indices 1 2 3 4 5 6 
#
# 1 75.8632 5.1719 1.6306 0.0000 -4.4697 0.0000
# 2 5.1719 153.2424 41.8842 0.0000 -13.3669 0.0000
# 3 1.6306 41.8842 173.0075 0.0000 -2.6176 0.0000
# 4 0.0000 0.0000 0.0000 57.1991 0.0000 -13.7902
# 5 -4.4697 -13.3669 -2.6176 0.0000 34.7310 0.0000
# 6 0.0000 0.0000 0.0000 -13.7902 0.0000 29.5330
#
#
#
# Elastic Compliance Matrix: (Units=1/GPa)
#
#
# Indices 1 2 3 4 5 6 
#
# 1 0.013297 -0.000302 -0.000028 0.000000 0.001593 0.000000
# 2 -0.000302 0.007231 -0.001708 0.000000 0.002615 0.000000
# 3 -0.000028 -0.001708 0.006191 0.000000 -0.000194 0.000000
# 4 0.000000 0.000000 0.000000 0.019701 0.000000 0.009199
# 5 0.001593 0.002615 -0.000194 0.000000 0.029990 0.000000
# 6 0.000000 0.000000 0.000000 0.009199 0.000000 0.038156
#
#
# Mechanical properties :
#
#
# Convention : Reuss Voigt Hill
#
# Bulk Modulus (GPa) = 44.16625 55.49850 49.83238
# Shear Modulus (GPa) = 39.62330 47.85438 43.73884
#
# Velocity S-wave (km/s) = 3.90172 4.28787 4.09935
# Velocity P-wave (km/s) = 6.10465 6.77032 6.44609
#
# Compressibility (1/GPa) = 0.02264172
#
# Stress axis : x y z
#
# Youngs Moduli (GPa) = 75.20678 138.29733 161.52621
#
# Poissons Ratio (x) = 0.04179 0.00453
# Poissons Ratio (y) = 0.02272 0.27591
# Poissons Ratio (z) = 0.00211 0.23623
#
# Static dielectric constant tensor:
#      x y z
#    x 2.095500 0.000000 0.024040 
#    y 0.000000 2.041850 0.000000 
#    z 0.024040 0.000000 2.081350 
# 
# From -- ./inp_files/198202.got.cif
#   From: 2010.05.17/outbox.cif.g08.bks.cpg/sg15_100_cif.got.tgz:198202.got - 2010.06.03 18:47:42.
