data_PCOD9274644
_publ_section_title
;
Structure prediction by ZEFSAII (Michael W. Deem and Ramdas Pophale) SiO2 
 PCOD9274644
Probable space group: C 2/C
;
_chemical_formula_sum "Si O2"
_cell_formula_units_Z 40
_cell_length_a 26.042646
_cell_length_b 13.063335
_cell_length_c 10.097737
_cell_angle_alpha 90.000000
_cell_angle_beta 149.641044
_cell_angle_gamma 90.000000
_cell_volume 1736.249028
_symmetry_space_group_name_H-M "C 2/C"
_symmetry_group_IT_number 15
_symmetry_cell_setting 'monoclinic'
loop_
_space_group_symop_operation_xyz
x,y,z
-x,y,1/2-z
-x,-y,-z
x,-y,1/2+z
1/2+x,1/2+y,z
1/2-x,1/2+y,1/2-z
1/2-x,1/2-y,-z
1/2+x,1/2-y,1/2+z
loop_
_atom_site_type_symbol
_atom_site_label
_atom_site_fract_x
_atom_site_fract_y
_atom_site_fract_z
Si Si1 0.692894 0.743055 0.050848
Si Si2 0.010970 0.405064 0.620780
Si Si3 0.613296 0.287103 0.662680
Si Si4 0.070738 0.064295 0.757727
Si Si5 0.613640 0.356499 0.957838
O O1 0.679900 0.712403 0.178629
O O2 0.803615 0.791029 0.279824
O O3 0.612695 0.834248 0.838597
O O4 0.665193 0.634081 0.921313
O O5 0.000000 0.436178 0.750000
O O6 0.000000 0.500000 0.500000
O O7 0.918035 0.329226 0.381940
O O8 0.510029 0.346005 0.396073
O O9 0.642288 0.335622 0.867392
O O10 0.109355 0.981156 0.951284
O O11 0.000000 0.000000 0.500000
O O12 0.500000 0.324498 0.750000
#
# Coordination Sequence:
#
# PCOD9274644 Si02
#       5
#     8   8   8   8   8
#     4  10  20  38  64  91 122 168 211 250 316 389
#     4   9  19  37  60  89 125 164 208 263 320 376
#     4   9  19  38  61  85 119 165 212 252 302 384
#     4   9  19  39  63  86 120 164 211 256 305 375
#     4  11  22  36  59  95 128 161 207 265 312 360
#
# _framework density 23.038170000000001
#
# number of rings (size 3 to 8) (size 9 to 14) (size 15 to 20)
#    0.000    2.400    0.000    3.600    0.000    2.400 
#    0.000   23.000    0.000    0.000    0.000    0.000 
#    0.000    0.000    0.000    0.000    0.000    0.000 
#
# Total GULP energy -111348.801874 kJ/mol
# GULP energy per Si atom -5567.440094 kJ/mol
# Density = 2.298573 g / cm^3
# Si number density = 23.038170 Si / 1000 Ang^3
#
#
#
# Elastic Constant Matrix: (Units=GPa)
#
#
# Indices 1 2 3 4 5 6 
#
# 1 74.5129 37.1462 10.2537 0.0000 3.5750 0.0000
# 2 37.1462 167.6837 55.2812 0.0000 5.0068 0.0000
# 3 10.2537 55.2812 94.8145 0.0000 27.3805 0.0000
# 4 0.0000 0.0000 0.0000 48.6240 0.0000 -8.2135
# 5 3.5750 5.0068 27.3805 0.0000 28.7015 0.0000
# 6 0.0000 0.0000 0.0000 -8.2135 0.0000 28.4795
#
#
#
# Elastic Compliance Matrix: (Units=1/GPa)
#
#
# Indices 1 2 3 4 5 6 
#
# 1 0.015212 -0.003694 0.001201 0.000000 -0.002396 0.000000
# 2 -0.003694 0.008608 -0.005961 0.000000 0.004645 0.000000
# 3 0.001201 -0.005961 0.018820 0.000000 -0.017064 0.000000
# 4 0.000000 0.000000 0.000000 0.021619 0.000000 0.006235
# 5 -0.002396 0.004645 -0.017064 0.000000 0.050608 0.000000
# 6 0.000000 0.000000 0.000000 0.006235 0.000000 0.036911
#
#
# Mechanical properties :
#
#
# Convention : Reuss Voigt Hill
#
# Bulk Modulus (GPa) = 38.86304 60.26371 49.56337
# Shear Modulus (GPa) = 28.20637 36.78300 32.49469
#
# Velocity S-wave (km/s) = 3.50284 4.00010 3.75970
# Velocity P-wave (km/s) = 5.76762 6.89560 6.35668
#
# Compressibility (1/GPa) = 0.02573139
#
# Stress axis : x y z
#
# Youngs Moduli (GPa) = 65.73849 116.16495 53.13418
#
# Poissons Ratio (x) = 0.42912 -0.06379
# Poissons Ratio (y) = 0.24284 0.31673
# Poissons Ratio (z) = -0.07892 0.69246
#
# Static dielectric constant tensor:
#      x y z
#    x 1.816400 0.000000 -0.219240 
#    y 0.000000 1.876770 0.000000 
#    z -0.219240 0.000000 1.772100 
# 
# From -- ./inp_files/126522.got.cif
#   From: 2010.05.17/outbox.cif.g08.bks.cpg/sg15_64_cif.got.tgz:126522.got - 2010.06.03 18:47:42.
