data_PCOD9274472
_publ_section_title
;
Structure prediction by ZEFSAII (Michael W. Deem and Ramdas Pophale) SiO2 
 PCOD9274472
Probable space group: C 2/C
;
_chemical_formula_sum "Si O2"
_cell_formula_units_Z 40
_cell_length_a 6.830140
_cell_length_b 17.681581
_cell_length_c 21.478178
_cell_angle_alpha 90.000000
_cell_angle_beta 138.610989
_cell_angle_gamma 90.000000
_cell_volume 1714.983534
_symmetry_space_group_name_H-M "C 2/C"
_symmetry_group_IT_number 15
_symmetry_cell_setting 'monoclinic'
loop_
_space_group_symop_operation_xyz
x,y,z
-x,y,1/2-z
-x,-y,-z
x,-y,1/2+z
1/2+x,1/2+y,z
1/2-x,1/2+y,1/2-z
1/2-x,1/2-y,-z
1/2+x,1/2-y,1/2+z
loop_
_atom_site_type_symbol
_atom_site_label
_atom_site_fract_x
_atom_site_fract_y
_atom_site_fract_z
Si Si1 0.066611 0.243978 0.610199
Si Si2 0.217705 0.536055 0.140780
Si Si3 0.151791 0.138335 0.850865
Si Si4 0.760779 0.834360 0.550718
Si Si5 0.384605 0.877249 0.652861
O O1 0.750000 0.250000 0.500000
O O2 0.064239 0.164145 0.644499
O O3 0.058833 0.307926 0.661934
O O4 0.292810 0.268890 0.610690
O O5 0.500000 0.558910 0.250000
O O6 0.277418 0.450435 0.135648
O O7 0.197691 0.591028 0.077404
O O8 0.941302 0.552337 0.120352
O O9 0.000000 0.160588 0.750000
O O10 0.467115 0.177630 0.939815
O O11 0.046494 0.852208 0.578677
O O12 0.500000 0.892404 0.750000
#
# Coordination Sequence:
#
# PCOD9274472 Si02
#       5
#     8   8   8   8   8
#     4   9  21  39  60  88 122 162 212 262 318 377
#     4  10  20  38  63  92 124 165 209 265 314 378
#     4  10  21  39  62  91 130 163 205 265 327 374
#     4  10  21  39  64  88 121 170 210 258 310 386
#     4  11  21  37  64  90 123 163 221 253 311 388
#
# _framework density 23.323837999999999
#
# number of rings (size 3 to 8) (size 9 to 14) (size 15 to 20)
#    0.000    2.000    2.000    1.200    0.000    4.000 
#    0.000    4.000    0.000    0.000    0.000    0.000 
#    0.000    0.000    0.000    0.000    0.000    0.000 
#
# Total GULP energy -111802.509913 kJ/mol
# GULP energy per Si atom -5590.125496 kJ/mol
# Density = 2.327075 g / cm^3
# Si number density = 23.323838 Si / 1000 Ang^3
#
#
#
# Elastic Constant Matrix: (Units=GPa)
#
#
# Indices 1 2 3 4 5 6 
#
# 1 146.7617 75.0528 39.9389 0.0002 -6.0161 -0.0011
# 2 75.0528 119.2930 26.5066 0.0000 -28.1687 0.0006
# 3 39.9389 26.5066 113.2822 -0.0010 -9.4448 -0.0028
# 4 0.0002 0.0000 -0.0010 23.5547 -0.0005 -16.6091
# 5 -6.0161 -28.1687 -9.4448 -0.0005 34.5749 -0.0020
# 6 -0.0011 0.0006 -0.0028 -16.6091 -0.0020 22.5785
#
#
#
# Elastic Compliance Matrix: (Units=1/GPa)
#
#
# Indices 1 2 3 4 5 6 
#
# 1 0.011238 -0.007679 -0.002583 -0.000001 -0.005006 0.000000
# 2 -0.007679 0.015982 -0.000060 0.000001 0.011669 0.000001
# 3 -0.002583 -0.000060 0.009937 0.000003 0.002216 0.000003
# 4 -0.000001 0.000001 0.000003 0.088208 0.000006 0.064887
# 5 -0.005006 0.011669 0.002216 0.000006 0.038164 0.000008
# 6 0.000000 0.000001 0.000003 0.064887 0.000008 0.092021
#
#
# Mechanical properties :
#
#
# Convention : Reuss Voigt Hill
#
# Bulk Modulus (GPa) = 60.55019 73.59260 67.07140
# Shear Modulus (GPa) = 17.74954 31.99753 24.87353
#
# Velocity S-wave (km/s) = 2.76162 3.70791 3.26919
# Velocity P-wave (km/s) = 6.01546 7.06771 6.56271
#
# Compressibility (1/GPa) = 0.01651522
#
# Stress axis : x y z
#
# Youngs Moduli (GPa) = 88.98170 62.56916 100.63541
#
# Poissons Ratio (x) = 0.48045 0.25992
# Poissons Ratio (y) = 0.68326 0.00600
# Poissons Ratio (z) = 0.22982 0.00373
#
# Static dielectric constant tensor:
#      x y z
#    x 1.902530 0.000000 0.015790 
#    y 0.000000 1.911030 0.000000 
#    z 0.015790 0.000000 1.885180 
# 
# From -- ./inp_files/227620.got.cif
#   From: 2010.05.17/outbox.cif.g08.bks.cpg/sg15_114_cif.got.tgz:227620.got - 2010.06.03 18:47:42.
