data_PCOD9274668
_publ_section_title
;
Structure prediction by ZEFSAII (Michael W. Deem and Ramdas Pophale) SiO2 
 PCOD9274668
Probable space group: C 2/C
;
_chemical_formula_sum "Si O2"
_cell_formula_units_Z 60
_cell_length_a 16.348005
_cell_length_b 23.299823
_cell_length_c 10.428949
_cell_angle_alpha 90.000000
_cell_angle_beta 132.769614
_cell_angle_gamma 90.000000
_cell_volume 2916.132752
_symmetry_space_group_name_H-M "C 2/C"
_symmetry_group_IT_number 15
_symmetry_cell_setting 'monoclinic'
loop_
_space_group_symop_operation_xyz
x,y,z
-x,y,1/2-z
-x,-y,-z
x,-y,1/2+z
1/2+x,1/2+y,z
1/2-x,1/2+y,1/2-z
1/2-x,1/2-y,-z
1/2+x,1/2-y,1/2+z
loop_
_atom_site_type_symbol
_atom_site_label
_atom_site_fract_x
_atom_site_fract_y
_atom_site_fract_z
Si Si1 0.000000 0.680705 0.750000
Si Si2 0.620420 0.732455 0.568836
Si Si3 0.442171 0.470138 0.318597
Si Si4 0.264058 0.144617 0.554195
Si Si5 0.271018 0.018077 0.530325
Si Si6 0.390463 0.960174 0.897270
Si Si7 0.725070 0.841582 0.734513
Si Si8 0.029653 0.156921 0.918474
O O1 0.937573 0.723024 0.588040
O O2 0.899215 0.646627 0.710601
O O3 0.703486 0.689677 0.582148
O O4 0.686397 0.777410 0.729301
O O5 0.522335 0.697192 0.529812
O O6 0.500000 0.490945 0.250000
O O7 0.500000 0.500000 0.500000
O O8 0.464724 0.403077 0.355960
O O9 0.315612 0.484207 0.151670
O O10 0.240294 0.159147 0.379689
O O11 0.224857 0.079361 0.530071
O O12 0.311090 0.984980 0.699130
O O13 0.361788 0.032797 0.517641
O O14 0.370089 0.891033 0.854737
O O15 0.500000 0.000000 0.000000
O O16 0.839395 0.855779 0.928824
O O17 0.000000 0.183445 0.750000
#
# Coordination Sequence:
#
# PCOD9274668 Si02
#       8
#     4   8   8   8   8   8   8   8
#     4  10  20  38  64  92 130 160 206 276 338 374
#     4  11  22  38  68  95 124 171 223 265 331 401
#     4  11  23  40  64  91 129 169 208 265 332 384
#     4  10  22  37  65  96 127 163 213 277 335 386
#     4  11  24  41  63  98 130 167 223 275 323 408
#     4  11  24  42  66  92 133 175 218 275 342 390
#     4  10  22  44  61  94 131 166 220 279 326 393
#     4  11  24  42  61  86 132 174 211 271 330 382
#
# _framework density 20.575195000000001
#
# number of rings (size 3 to 8) (size 9 to 14) (size 15 to 20)
#    0.000    1.333    0.000    7.600    9.333    0.533 
#    0.000    1.333    0.000    0.000    0.000    0.000 
#    0.000    0.000    0.000    0.000    0.000    0.000 
#
# Total GULP energy -167222.207882 kJ/mol
# GULP energy per Si atom -5574.073596 kJ/mol
# Density = 2.052837 g / cm^3
# Si number density = 20.575195 Si / 1000 Ang^3
#
#
#
# Elastic Constant Matrix: (Units=GPa)
#
#
# Indices 1 2 3 4 5 6 
#
# 1 34.3134 17.2135 8.6475 0.0000 -2.3408 0.0000
# 2 17.2135 97.4356 41.9634 0.0000 5.4449 0.0000
# 3 8.6475 41.9634 96.2663 0.0000 6.4529 0.0000
# 4 0.0000 0.0000 0.0000 17.8415 0.0000 9.9843
# 5 -2.3408 5.4449 6.4529 0.0000 37.4804 0.0000
# 6 0.0000 0.0000 0.0000 9.9843 0.0000 24.6024
#
#
#
# Elastic Compliance Matrix: (Units=1/GPa)
#
#
# Indices 1 2 3 4 5 6 
#
# 1 0.032314 -0.005587 -0.000665 0.000000 0.002944 0.000000
# 2 -0.005587 0.013631 -0.005346 0.000000 -0.001409 0.000000
# 3 -0.000665 -0.005346 0.012877 0.000000 -0.001482 0.000000
# 4 0.000000 0.000000 0.000000 0.072519 0.000000 -0.029430
# 5 0.002944 -0.001409 -0.001482 0.000000 0.027324 0.000000
# 6 0.000000 0.000000 0.000000 -0.029430 0.000000 0.052590
#
#
# Mechanical properties :
#
#
# Convention : Reuss Voigt Hill
#
# Bulk Modulus (GPa) = 28.06798 40.40714 34.23756
# Shear Modulus (GPa) = 20.29829 26.66426 23.48128
#
# Velocity S-wave (km/s) = 3.14433 3.60382 3.38189
# Velocity P-wave (km/s) = 5.18206 6.08261 5.65030
#
# Compressibility (1/GPa) = 0.03562779
#
# Stress axis : x y z
#
# Youngs Moduli (GPa) = 30.94609 73.36098 77.65716
#
# Poissons Ratio (x) = 0.40988 0.05161
# Poissons Ratio (y) = 0.17290 0.41513
# Poissons Ratio (z) = 0.02057 0.39216
#
# Static dielectric constant tensor:
#      x y z
#    x 1.798920 0.000000 0.040640 
#    y 0.000000 1.730100 0.000000 
#    z 0.040640 0.000000 1.828050 
# 
# From -- ./inp_files/107641.got.cif
#   From: 2010.05.17/outbox.cif.g08.bks.cpg/sg15_54_cif.got.tgz:107641.got - 2010.06.03 18:47:42.
