data_PCOD9274395
_publ_section_title
;
Structure prediction by ZEFSAII (Michael W. Deem and Ramdas Pophale) SiO2 
 PCOD9274395
Probable space group: C 2/C
;
_chemical_formula_sum "Si O2"
_cell_formula_units_Z 44
_cell_length_a 7.600163
_cell_length_b 12.602168
_cell_length_c 19.187884
_cell_angle_alpha 90.000000
_cell_angle_beta 108.212787
_cell_angle_gamma 90.000000
_cell_volume 1745.718464
_symmetry_space_group_name_H-M "C 2/C"
_symmetry_group_IT_number 15
_symmetry_cell_setting 'monoclinic'
loop_
_space_group_symop_operation_xyz
x,y,z
-x,y,1/2-z
-x,-y,-z
x,-y,1/2+z
1/2+x,1/2+y,z
1/2-x,1/2+y,1/2-z
1/2-x,1/2-y,-z
1/2+x,1/2-y,1/2+z
loop_
_atom_site_type_symbol
_atom_site_label
_atom_site_fract_x
_atom_site_fract_y
_atom_site_fract_z
Si Si1 0.906090 0.996167 0.076973
Si Si2 0.500000 0.721976 0.750000
Si Si3 0.936151 0.710420 0.620847
Si Si4 0.937386 0.818693 0.482398
Si Si5 0.219587 0.120108 0.179182
Si Si6 0.211429 0.548121 0.699144
O O1 0.805427 0.982311 0.137496
O O2 0.836601 0.089360 0.017595
O O3 0.119424 0.036238 0.115926
O O4 0.908203 0.883562 0.038955
O O5 0.612347 0.799019 0.817065
O O6 0.338632 0.639420 0.751220
O O7 0.996918 0.733580 0.547425
O O8 0.716737 0.720896 0.590343
O O9 0.045105 0.803112 0.674017
O O10 0.014020 0.600707 0.659248
O O11 0.286906 0.053283 0.252690
#
# Coordination Sequence:
#
# PCOD9274395 Si02
#       6
#     8   4   8   8   8   8
#     4  10  20  38  63  85 126 161 204 258 312 360
#     4  10  22  40  58  94 128 160 206 246 326 374
#     4   9  21  40  62  89 124 160 216 251 308 381
#     4   9  20  41  59  88 119 170 207 253 305 370
#     4  10  21  39  63  89 127 166 199 265 317 367
#     4  11  21  41  61  94 129 158 206 268 308 374
#
# _framework density 25.204522999999998
#
# number of rings (size 3 to 8) (size 9 to 14) (size 15 to 20)
#    0.000    2.182    1.818    0.000    2.545    1.455 
#   13.091    0.000    0.000    0.000    0.000    0.000 
#    0.000    0.000    0.000    0.000    0.000    0.000 
#
# Total GULP energy -122779.043207 kJ/mol
# GULP energy per Si atom -5580.865600 kJ/mol
# Density = 2.514716 g / cm^3
# Si number density = 25.204523 Si / 1000 Ang^3
#
#
#
# Elastic Constant Matrix: (Units=GPa)
#
#
# Indices 1 2 3 4 5 6 
#
# 1 41.5354 24.9961 30.9149 0.0000 -1.6570 0.0000
# 2 24.9961 84.3446 43.7543 0.0000 3.4258 0.0000
# 3 30.9149 43.7543 89.2494 0.0000 2.7704 0.0000
# 4 0.0000 0.0000 0.0000 44.6658 0.0000 15.3990
# 5 -1.6570 3.4258 2.7704 0.0000 34.6098 0.0000
# 6 0.0000 0.0000 0.0000 15.3990 0.0000 28.9360
#
#
#
# Elastic Compliance Matrix: (Units=1/GPa)
#
#
# Indices 1 2 3 4 5 6 
#
# 1 0.034439 -0.005485 -0.009332 0.000000 0.002939 0.000000
# 2 -0.005485 0.016805 -0.006294 0.000000 -0.001422 0.000000
# 3 -0.009332 -0.006294 0.017561 0.000000 -0.001229 0.000000
# 4 0.000000 0.000000 0.000000 0.027419 0.000000 -0.014592
# 5 0.002939 -0.001422 -0.001229 0.000000 0.029273 0.000000
# 6 0.000000 0.000000 0.000000 -0.014592 0.000000 0.042324
#
#
# Mechanical properties :
#
#
# Convention : Reuss Voigt Hill
#
# Bulk Modulus (GPa) = 37.61788 46.05112 41.83450
# Shear Modulus (GPa) = 22.84098 29.33995 26.09046
#
# Velocity S-wave (km/s) = 3.01362 3.41556 3.22087
# Velocity P-wave (km/s) = 5.20257 5.81939 5.51960
#
# Compressibility (1/GPa) = 0.02658311
#
# Stress axis : x y z
#
# Youngs Moduli (GPa) = 29.03650 59.50748 56.94467
#
# Poissons Ratio (x) = 0.32639 0.53139
# Poissons Ratio (y) = 0.15926 0.35843
# Poissons Ratio (z) = 0.27096 0.37456
#
# Static dielectric constant tensor:
#      x y z
#    x 1.974650 0.000000 0.015340 
#    y 0.000000 2.019460 0.000000 
#    z 0.015340 0.000000 2.024920 
# 
# From -- ./inp_files/264010.got.cif
#   From: 2010.05.17/outbox.cif.g08.bks.cpg/sg15_133_cif.got.tgz:264010.got - 2010.06.03 18:47:42.
