data_PCOD9274508
_publ_section_title
;
Structure prediction by ZEFSAII (Michael W. Deem and Ramdas Pophale) SiO2 
 PCOD9274508
Probable space group: C 2/C
;
_chemical_formula_sum "Si O2"
_cell_formula_units_Z 56
_cell_length_a 9.009672
_cell_length_b 17.438675
_cell_length_c 19.055131
_cell_angle_alpha 90.000000
_cell_angle_beta 107.372165
_cell_angle_gamma 90.000000
_cell_volume 2857.315736
_symmetry_space_group_name_H-M "C 2/C"
_symmetry_group_IT_number 15
_symmetry_cell_setting 'monoclinic'
loop_
_space_group_symop_operation_xyz
x,y,z
-x,y,1/2-z
-x,-y,-z
x,-y,1/2+z
1/2+x,1/2+y,z
1/2-x,1/2+y,1/2-z
1/2-x,1/2-y,-z
1/2+x,1/2-y,1/2+z
loop_
_atom_site_type_symbol
_atom_site_label
_atom_site_fract_x
_atom_site_fract_y
_atom_site_fract_z
Si Si1 0.361174 0.791386 0.574941
Si Si2 0.140726 0.316173 0.515884
Si Si3 0.907320 0.850614 0.166402
Si Si4 0.907631 0.552783 0.166185
Si Si5 0.614918 0.459641 0.111776
Si Si6 0.908234 0.434626 0.406989
Si Si7 0.193861 0.959585 0.959349
O O1 0.250000 0.750000 0.500000
O O2 0.525592 0.788226 0.559148
O O3 0.359546 0.734433 0.639575
O O4 0.346205 0.876963 0.607112
O O5 0.250000 0.250000 0.500000
O O6 0.253294 0.379654 0.563951
O O7 0.029177 0.367788 0.447880
O O8 0.746812 0.897346 0.147224
O O9 0.000000 0.856304 0.250000
O O10 0.031489 0.883111 0.127157
O O11 0.762497 0.498769 0.168750
O O12 0.000000 0.577852 0.250000
O O13 0.015006 0.496834 0.133538
O O14 0.469406 0.516674 0.095390
O O15 0.665201 0.451100 0.038051
O O16 0.829630 0.479131 0.462136
#
# Coordination Sequence:
#
# PCOD9274508 Si02
#       7
#     8   8   8   8   8   8   8
#     4  12  26  42  66  95 129 172 217 271 325 386
#     4  12  23  37  63  95 129 160 214 272 321 367
#     4  11  24  44  65  93 134 173 212 262 331 398
#     4  12  25  43  67  97 133 172 218 269 332 399
#     4  10  22  36  68  95 124 163 220 263 321 382
#     4  11  22  42  66  93 131 172 212 269 327 383
#     4  10  20  38  63  96 127 162 214 275 312 376
#
# _framework density 19.598813
#
# number of rings (size 3 to 8) (size 9 to 14) (size 15 to 20)
#    0.000    0.857    4.286    3.429    6.000    0.000 
#    0.000    0.000    0.000    1.714    0.000    0.000 
#    0.000    0.000    0.000    0.000    0.000    0.000 
#
# Total GULP energy -156028.244938 kJ/mol
# GULP energy per Si atom -5572.437319 kJ/mol
# Density = 1.955421 g / cm^3
# Si number density = 19.598813 Si / 1000 Ang^3
#
#
#
# Elastic Constant Matrix: (Units=GPa)
#
#
# Indices 1 2 3 4 5 6 
#
# 1 116.8906 42.5009 17.9219 0.0000 1.0937 0.0000
# 2 42.5009 111.3176 28.1439 0.0000 2.4924 0.0000
# 3 17.9219 28.1439 49.0685 0.0000 -0.5988 0.0000
# 4 0.0000 0.0000 0.0000 -19.4341 0.0000 28.4792
# 5 1.0937 2.4924 -0.5988 0.0000 14.2778 0.0000
# 6 0.0000 0.0000 0.0000 28.4792 0.0000 19.3692
#
#
#
# Elastic Compliance Matrix: (Units=1/GPa)
#
#
# Indices 1 2 3 4 5 6 
#
# 1 0.010058 -0.003398 -0.001728 0.000000 -0.000250 0.000000
# 2 -0.003398 0.011717 -0.005504 0.000000 -0.002016 0.000000
# 3 -0.001728 -0.005504 0.024193 0.000000 0.002108 0.000000
# 4 0.000000 0.000000 0.000000 -0.016311 0.000000 0.023983
# 5 -0.000250 -0.002016 0.002108 0.000000 0.070498 0.000000
# 6 0.000000 0.000000 0.000000 0.023983 0.000000 0.016366
#
#
# Mechanical properties :
#
#
# Convention : Reuss Voigt Hill
#
# Bulk Modulus (GPa) = 40.47090 50.49003 45.48047
# Shear Modulus (GPa) = 34.24267 15.42326 24.83296
#
# Velocity S-wave (km/s) = 4.18446 2.80830 3.56345
# Velocity P-wave (km/s) = 6.63633 6.02770 6.33932
#
# Compressibility (1/GPa) = 0.02470911
#
# Stress axis : x y z
#
# Youngs Moduli (GPa) = 99.42739 85.34430 41.33345
#
# Poissons Ratio (x) = 0.28996 0.07142
# Poissons Ratio (y) = 0.33781 0.22751
# Poissons Ratio (z) = 0.17179 0.46976
#
# Static dielectric constant tensor:
#      x y z
#    x 1.652290 0.000000 0.028550 
#    y 0.000000 1.728660 0.000000 
#    z 0.028550 0.000000 1.711860 
# 
# From -- ./inp_files/191061.got.cif
#   From: 2010.05.17/outbox.cif.g08.bks.cpg/sg15_96_cif.got.tgz:191061.got - 2010.06.03 18:47:42.
