data_PCOD9274585
_publ_section_title
;
Structure prediction by ZEFSAII (Michael W. Deem and Ramdas Pophale) SiO2 
 PCOD9274585
Probable space group: C 2/C
;
_chemical_formula_sum "Si O2"
_cell_formula_units_Z 56
_cell_length_a 18.618937
_cell_length_b 8.016160
_cell_length_c 14.763098
_cell_angle_alpha 90.000000
_cell_angle_beta 95.571691
_cell_angle_gamma 90.000000
_cell_volume 2193.017374
_symmetry_space_group_name_H-M "C 2/C"
_symmetry_group_IT_number 15
_symmetry_cell_setting 'monoclinic'
loop_
_space_group_symop_operation_xyz
x,y,z
-x,y,1/2-z
-x,-y,-z
x,-y,1/2+z
1/2+x,1/2+y,z
1/2-x,1/2+y,1/2-z
1/2-x,1/2-y,-z
1/2+x,1/2-y,1/2+z
loop_
_atom_site_type_symbol
_atom_site_label
_atom_site_fract_x
_atom_site_fract_y
_atom_site_fract_z
Si Si1 0.123038 0.927084 0.312600
Si Si2 0.282809 0.020149 0.768392
Si Si3 0.498676 0.909763 0.148915
Si Si4 0.151844 0.436937 0.904224
Si Si5 0.903175 0.272159 0.848826
Si Si6 0.138076 0.272448 0.082376
Si Si7 0.417788 0.550412 0.009075
O O1 0.202335 0.982626 0.293337
O O2 0.128492 0.745010 0.361720
O O3 0.082931 0.887086 0.213816
O O4 0.092218 0.048823 0.384495
O O5 0.321279 0.180977 0.819961
O O6 0.291937 0.011592 0.661074
O O7 0.329191 0.863097 0.811041
O O8 0.500000 0.834787 0.250000
O O9 0.418284 0.947018 0.108571
O O10 0.536116 0.091584 0.161048
O O11 0.553920 0.817903 0.089029
O O12 0.171795 0.394012 0.009623
O O13 0.902047 0.215671 0.951334
O O14 0.135679 0.088034 0.041942
O O15 0.500000 0.500000 0.000000
#
# Coordination Sequence:
#
# PCOD9274585 Si02
#       7
#     8   8   8   8   8   8   8
#     4  10  22  40  61  88 124 166 204 252 307 372
#     4  10  22  40  63  90 118 167 222 245 300 377
#     4  11  18  40  69  88 118 159 211 254 312 376
#     4  10  20  38  64  87 124 162 200 258 319 360
#     4  10  22  41  66  86 125 170 201 260 319 368
#     4  10  22  39  63  93 122 159 208 260 304 374
#     4  11  25  41  61  94 130 160 202 258 326 373
#
# _framework density 25.535594
#
# number of rings (size 3 to 8) (size 9 to 14) (size 15 to 20)
#    0.000    1.714    4.286    2.143    0.000    7.429 
#    2.571   10.000    0.000    0.000    0.000    0.000 
#    0.000    0.000    0.000    0.000    0.000    0.000 
#
# Total GULP energy -156841.823088 kJ/mol
# GULP energy per Si atom -5601.493682 kJ/mol
# Density = 2.547747 g / cm^3
# Si number density = 25.535594 Si / 1000 Ang^3
#
#
#
# Elastic Constant Matrix: (Units=GPa)
#
#
# Indices 1 2 3 4 5 6 
#
# 1 105.5207 14.6492 33.1144 0.0000 -28.3431 0.0000
# 2 14.6492 58.1021 51.2842 0.0000 4.9192 0.0000
# 3 33.1144 51.2842 144.0545 0.0000 -23.0597 0.0000
# 4 0.0000 0.0000 0.0000 48.8526 0.0000 3.3945
# 5 -28.3431 4.9192 -23.0597 0.0000 33.3771 0.0000
# 6 0.0000 0.0000 0.0000 3.3945 0.0000 18.7913
#
#
#
# Elastic Compliance Matrix: (Units=1/GPa)
#
#
# Indices 1 2 3 4 5 6 
#
# 1 0.013330 -0.005111 0.000773 0.000000 0.012607 0.000000
# 2 -0.005111 0.031338 -0.012835 0.000000 -0.017826 0.000000
# 3 0.000773 -0.012835 0.013201 0.000000 0.011669 0.000000
# 4 0.000000 0.000000 0.000000 0.020730 0.000000 -0.003745
# 5 0.012607 -0.017826 0.011669 0.000000 0.051356 0.000000
# 6 0.000000 0.000000 0.000000 -0.003745 0.000000 0.053893
#
#
# Mechanical properties :
#
#
# Convention : Reuss Voigt Hill
#
# Bulk Modulus (GPa) = 42.50993 56.19698 49.35346
# Shear Modulus (GPa) = 22.12052 34.11284 28.11668
#
# Velocity S-wave (km/s) = 2.94643 3.65895 3.32185
# Velocity P-wave (km/s) = 5.31589 6.31709 5.83800
#
# Compressibility (1/GPa) = 0.02352392
#
# Stress axis : x y z
#
# Youngs Moduli (GPa) = 75.01920 31.91007 75.74947
#
# Poissons Ratio (x) = 0.16309 -0.05858
# Poissons Ratio (y) = 0.38341 0.97226
# Poissons Ratio (z) = -0.05802 0.40957
#
# Static dielectric constant tensor:
#      x y z
#    x 1.973350 0.000000 0.010010 
#    y 0.000000 2.069050 0.000000 
#    z 0.010010 0.000000 2.031040 
# 
# From -- ./inp_files/166694.got.cif
#   From: 2010.05.17/outbox.cif.g08.bks.cpg/sg15_84_cif.got.tgz:166694.got - 2010.06.03 18:47:42.
