data_PCOD9274060
_publ_section_title
;
Structure prediction by ZEFSAII (Michael W. Deem and Ramdas Pophale) SiO2 
 PCOD9274060
Probable space group: C 2/C
;
_chemical_formula_sum "Si O2"
_cell_formula_units_Z 40
_cell_length_a 24.102925
_cell_length_b 5.573886
_cell_length_c 15.334641
_cell_angle_alpha 90.000000
_cell_angle_beta 135.136839
_cell_angle_gamma 90.000000
_cell_volume 1453.271457
_symmetry_space_group_name_H-M "C 2/C"
_symmetry_group_IT_number 15
_symmetry_cell_setting 'monoclinic'
loop_
_space_group_symop_operation_xyz
x,y,z
-x,y,1/2-z
-x,-y,-z
x,-y,1/2+z
1/2+x,1/2+y,z
1/2-x,1/2+y,1/2-z
1/2-x,1/2-y,-z
1/2+x,1/2-y,1/2+z
loop_
_atom_site_type_symbol
_atom_site_label
_atom_site_fract_x
_atom_site_fract_y
_atom_site_fract_z
Si Si1 0.482209 0.021682 0.082302
Si Si2 0.792859 0.710737 0.688365
Si Si3 0.683218 0.456597 0.431018
Si Si4 0.653017 0.176716 0.140386
Si Si5 0.544448 0.522295 0.406410
O O1 0.505775 0.285490 0.134114
O O2 0.385927 0.007010 0.974050
O O3 0.501654 0.775865 0.153684
O O4 0.500000 0.000000 0.000000
O O5 0.725948 0.636834 0.545823
O O6 0.743414 0.775572 0.718964
O O7 0.846368 0.480868 0.770462
O O8 0.829794 0.935664 0.680157
O O9 0.750000 0.250000 0.500000
O O10 0.600446 0.443278 0.389315
O O11 0.599350 0.408096 0.053540
#
# Coordination Sequence:
#
# PCOD9274060 Si02
#       5
#     8   8   8   8   8
#     4  10  20  38  61  87 114 155 207 253 300 351
#     4  10  21  34  52  90 119 156 192 251 309 375
#     4  10  21  35  55  83 126 164 192 239 322 381
#     4   9  22  32  57  87 120 149 201 248 300 358
#     4   9  21  36  57  88 115 154 201 250 298 365
#
# _framework density 27.524107999999998
#
# number of rings (size 3 to 8) (size 9 to 14) (size 15 to 20)
#    1.200    1.200    0.000    1.800   11.200    0.000 
#    0.000    0.000    0.000    1.200    0.000    0.000 
#    0.000    0.000    0.000    0.000    0.000    0.000 
#
# Total GULP energy -111417.924318 kJ/mol
# GULP energy per Si atom -5570.896216 kJ/mol
# Density = 2.746146 g / cm^3
# Si number density = 27.524108 Si / 1000 Ang^3
#
#
#
# Elastic Constant Matrix: (Units=GPa)
#
#
# Indices 1 2 3 4 5 6 
#
# 1 111.2810 83.9695 12.4114 0.0000 -16.2737 0.0000
# 2 83.9695 234.7219 43.8363 0.0000 -19.2226 0.0000
# 3 12.4114 43.8363 90.6142 0.0000 7.1053 0.0000
# 4 0.0000 0.0000 0.0000 37.1081 0.0000 -0.5831
# 5 -16.2737 -19.2226 7.1053 0.0000 29.9977 0.0000
# 6 0.0000 0.0000 0.0000 -0.5831 0.0000 44.2823
#
#
#
# Elastic Compliance Matrix: (Units=1/GPa)
#
#
# Indices 1 2 3 4 5 6 
#
# 1 0.012799 -0.004223 -0.000043 0.000000 0.004248 0.000000
# 2 -0.004223 0.006493 -0.002761 0.000000 0.002524 0.000000
# 3 -0.000043 -0.002761 0.012755 0.000000 -0.004814 0.000000
# 4 0.000000 0.000000 0.000000 0.026954 0.000000 0.000355
# 5 0.004248 0.002524 -0.004814 0.000000 0.038398 0.000000
# 6 0.000000 0.000000 0.000000 0.000355 0.000000 0.022587
#
#
# Mechanical properties :
#
#
# Convention : Reuss Voigt Hill
#
# Bulk Modulus (GPa) = 55.57671 79.67239 67.62455
# Shear Modulus (GPa) = 35.70501 42.03761 38.87131
#
# Velocity S-wave (km/s) = 3.60561 3.91231 3.76209
# Velocity P-wave (km/s) = 6.12942 7.02976 6.59497
#
# Compressibility (1/GPa) = 0.01799315
#
# Stress axis : x y z
#
# Youngs Moduli (GPa) = 78.13406 154.00571 78.40200
#
# Poissons Ratio (x) = 0.65030 0.00340
# Poissons Ratio (y) = 0.32993 0.21645
# Poissons Ratio (z) = 0.00338 0.42518
#
# Static dielectric constant tensor:
#      x y z
#    x 2.390460 0.000000 -0.007420 
#    y 0.000000 2.252520 0.000000 
#    z -0.007420 0.000000 2.135250 
# 
# From -- ./inp_files/170917.got.cif
#   From: 2010.05.17/outbox.cif.g08.bks.cpg/sg15_86_cif.got.tgz:170917.got - 2010.06.03 18:47:42.
