data_PCOD9274413
_publ_section_title
;
Structure prediction by ZEFSAII (Michael W. Deem and Ramdas Pophale) SiO2 
 PCOD9274413
Probable space group: C 2/C
;
_chemical_formula_sum "Si O2"
_cell_formula_units_Z 48
_cell_length_a 11.537028
_cell_length_b 14.988933
_cell_length_c 15.857119
_cell_angle_alpha 90.000000
_cell_angle_beta 105.602424
_cell_angle_gamma 90.000000
_cell_volume 2641.091305
_symmetry_space_group_name_H-M "C 2/C"
_symmetry_group_IT_number 15
_symmetry_cell_setting 'monoclinic'
loop_
_space_group_symop_operation_xyz
x,y,z
-x,y,1/2-z
-x,-y,-z
x,-y,1/2+z
1/2+x,1/2+y,z
1/2-x,1/2+y,1/2-z
1/2-x,1/2-y,-z
1/2+x,1/2-y,1/2+z
loop_
_atom_site_type_symbol
_atom_site_label
_atom_site_fract_x
_atom_site_fract_y
_atom_site_fract_z
Si Si1 0.963672 0.784518 0.153119
Si Si2 0.766342 0.353564 0.620229
Si Si3 0.254026 0.853634 0.976978
Si Si4 0.628255 0.107019 0.179738
Si Si5 0.004567 0.894598 0.509603
Si Si6 0.572505 0.998088 0.426483
O O1 0.828184 0.744121 0.124208
O O2 0.000000 0.826580 0.250000
O O3 0.043665 0.694662 0.164234
O O4 0.994726 0.847007 0.081440
O O5 0.797231 0.389815 0.719748
O O6 0.625276 0.358303 0.576830
O O7 0.832828 0.420953 0.568045
O O8 0.295355 0.880509 0.890647
O O9 0.116201 0.877524 0.963205
O O10 0.250000 0.750000 0.000000
O O11 0.346701 0.908823 0.055614
O O12 0.537250 0.022586 0.158235
O O13 0.000000 0.000000 0.500000
O O14 0.500000 0.000000 0.500000
#
# Coordination Sequence:
#
# PCOD9274413 Si02
#       6
#     8   8   8   8   8   8
#     4   9  19  39  63  83 112 158 207 244 289 358
#     4  10  20  38  63  88 117 158 204 246 298 360
#     4  11  21  38  63  86 125 159 194 245 307 356
#     4   9  19  38  66  85 113 157 207 251 289 350
#     4  12  23  38  58  89 127 157 189 247 308 359
#     4   9  18  35  60  88 110 153 201 240 290 350
#
# _framework density 18.174305
#
# number of rings (size 3 to 8) (size 9 to 14) (size 15 to 20)
#    0.000    2.000    3.333    2.000    0.000    0.667 
#    3.000    0.000   11.000    0.000    0.000    0.000 
#    0.000    0.000    0.000    0.000    0.000    0.000 
#
# Total GULP energy -133639.225660 kJ/mol
# GULP energy per Si atom -5568.301069 kJ/mol
# Density = 1.813294 g / cm^3
# Si number density = 18.174305 Si / 1000 Ang^3
#
#
#
# Elastic Constant Matrix: (Units=GPa)
#
#
# Indices 1 2 3 4 5 6 
#
# 1 151.8737 29.9054 52.1774 0.0000 -2.9681 0.0000
# 2 29.9054 63.3171 21.8707 0.0000 1.5976 0.0000
# 3 52.1774 21.8707 106.3436 0.0000 -1.5957 0.0000
# 4 0.0000 0.0000 0.0000 14.3172 0.0000 -9.5229
# 5 -2.9681 1.5976 -1.5957 0.0000 26.0658 0.0000
# 6 0.0000 0.0000 0.0000 -9.5229 0.0000 28.9309
#
#
#
# Elastic Compliance Matrix: (Units=1/GPa)
#
#
# Indices 1 2 3 4 5 6 
#
# 1 0.008353 -0.002753 -0.003519 0.000000 0.000904 0.000000
# 2 -0.002753 0.017950 -0.002364 0.000000 -0.001558 0.000000
# 3 -0.003519 -0.002364 0.011623 0.000000 0.000456 0.000000
# 4 0.000000 0.000000 0.000000 0.089424 0.000000 0.029435
# 5 0.000904 -0.001558 0.000456 0.000000 0.038591 0.000000
# 6 0.000000 0.000000 0.000000 0.029435 0.000000 0.044254
#
#
# Mechanical properties :
#
#
# Convention : Reuss Voigt Hill
#
# Bulk Modulus (GPa) = 48.41611 58.82683 53.62147
# Shear Modulus (GPa) = 21.33555 28.36818 24.85186
#
# Velocity S-wave (km/s) = 3.43000 3.95510 3.70187
# Velocity P-wave (km/s) = 6.51032 7.30038 6.91664
#
# Compressibility (1/GPa) = 0.02065428
#
# Stress axis : x y z
#
# Youngs Moduli (GPa) = 119.71749 55.71153 86.03607
#
# Poissons Ratio (x) = 0.15335 0.30274
# Poissons Ratio (y) = 0.32954 0.20342
# Poissons Ratio (z) = 0.42125 0.13172
#
# Static dielectric constant tensor:
#      x y z
#    x 1.608760 0.000000 0.009650 
#    y 0.000000 1.597070 0.000000 
#    z 0.009650 0.000000 1.644930 
# 
# From -- ./inp_files/143739.got.cif
#   From: 2010.05.17/outbox.cif.g08.bks.cpg/sg15_72_cif.got.tgz:143739.got - 2010.06.03 18:47:42.
