data_PCOD9274415
_publ_section_title
;
Structure prediction by ZEFSAII (Michael W. Deem and Ramdas Pophale) SiO2 
 PCOD9274415
Probable space group: C 2/C
;
_chemical_formula_sum "Si O2"
_cell_formula_units_Z 60
_cell_length_a 14.025508
_cell_length_b 8.670387
_cell_length_c 22.231364
_cell_angle_alpha 90.000000
_cell_angle_beta 102.163239
_cell_angle_gamma 90.000000
_cell_volume 2642.790522
_symmetry_space_group_name_H-M "C 2/C"
_symmetry_group_IT_number 15
_symmetry_cell_setting 'monoclinic'
loop_
_space_group_symop_operation_xyz
x,y,z
-x,y,1/2-z
-x,-y,-z
x,-y,1/2+z
1/2+x,1/2+y,z
1/2-x,1/2+y,1/2-z
1/2-x,1/2-y,-z
1/2+x,1/2-y,1/2+z
loop_
_atom_site_type_symbol
_atom_site_label
_atom_site_fract_x
_atom_site_fract_y
_atom_site_fract_z
Si Si1 0.290999 0.730072 0.593485
Si Si2 0.490753 0.903057 0.352984
Si Si3 0.587405 0.736931 0.461013
Si Si4 0.658938 0.265405 0.187032
Si Si5 0.000000 0.602568 0.250000
Si Si6 0.252901 0.498989 0.488558
Si Si7 0.230126 0.433254 0.203544
Si Si8 0.005599 0.287621 0.574424
O O1 0.233618 0.613930 0.541552
O O2 0.249773 0.898688 0.571909
O O3 0.281292 0.667307 0.658878
O O4 0.403626 0.733629 0.588135
O O5 0.538170 0.755201 0.389550
O O6 0.546948 0.990357 0.306690
O O7 0.382519 0.879157 0.313359
O O8 0.483116 0.033264 0.404350
O O9 0.645457 0.581979 0.482767
O O10 0.511751 0.764159 0.504583
O O11 0.669218 0.871118 0.474467
O O12 0.718539 0.399889 0.226441
O O13 0.598180 0.295079 0.118487
O O14 0.576702 0.204747 0.223595
O O15 0.727121 0.114681 0.187472
#
# Coordination Sequence:
#
# PCOD9274415 Si02
#       8
#     8   8   8   8   4   8   8   8
#     4  11  22  41  60  90 122 166 195 248 307 367
#     4  10  20  38  63  88 118 163 196 250 297 368
#     4  11  22  41  60  95 118 159 205 251 297 361
#     4  10  21  40  62  88 116 159 201 252 294 359
#     4   8  18  38  60  84 110 160 206 230 300 360
#     4  10  24  38  60  89 124 158 199 249 305 354
#     4  10  22  39  63  89 118 159 206 243 301 357
#     4  10  21  37  66  86 123 158 200 244 303 363
#
# _framework density 22.703274
#
# number of rings (size 3 to 8) (size 9 to 14) (size 15 to 20)
#    0.000    2.133    1.333    3.600    3.733    1.600 
#   14.400    0.000    0.000    0.000    0.000    0.000 
#    0.000    0.000    0.000    0.000    0.000    0.000 
#
# Total GULP energy -167666.230355 kJ/mol
# GULP energy per Si atom -5588.874345 kJ/mol
# Density = 2.265160 g / cm^3
# Si number density = 22.703274 Si / 1000 Ang^3
#
#
#
# Elastic Constant Matrix: (Units=GPa)
#
#
# Indices 1 2 3 4 5 6 
#
# 1 45.7417 6.5615 1.6431 0.0000 1.7198 0.0000
# 2 6.5615 43.3147 -0.0004 0.0000 -2.2240 0.0000
# 3 1.6431 -0.0004 53.1275 0.0000 13.2994 0.0000
# 4 0.0000 0.0000 0.0000 17.7572 0.0000 10.3254
# 5 1.7198 -2.2240 13.2994 0.0000 36.0097 0.0000
# 6 0.0000 0.0000 0.0000 10.3254 0.0000 20.7963
#
#
#
# Elastic Compliance Matrix: (Units=1/GPa)
#
#
# Indices 1 2 3 4 5 6 
#
# 1 0.022415 -0.003454 -0.000410 0.000000 -0.001132 0.000000
# 2 -0.003454 0.023700 -0.000331 0.000000 0.001751 0.000000
# 3 -0.000410 -0.000331 0.020754 0.000000 -0.007666 0.000000
# 4 0.000000 0.000000 0.000000 0.079172 0.000000 -0.039309
# 5 -0.001132 0.001751 -0.007666 0.000000 0.030764 0.000000
# 6 0.000000 0.000000 0.000000 -0.039309 0.000000 0.067603
#
#
# Mechanical properties :
#
#
# Convention : Reuss Voigt Hill
#
# Bulk Modulus (GPa) = 17.10005 17.62139 17.36072
# Shear Modulus (GPa) = 18.36276 23.84462 21.10369
#
# Velocity S-wave (km/s) = 2.84705 3.24431 3.05215
# Velocity P-wave (km/s) = 4.28438 4.67038 4.48154
#
# Compressibility (1/GPa) = 0.05847936
#
# Stress axis : x y z
#
# Youngs Moduli (GPa) = 44.61376 42.19428 48.18272
#
# Poissons Ratio (x) = 0.14572 0.01974
# Poissons Ratio (y) = 0.15408 0.01597
# Poissons Ratio (z) = 0.01828 0.01398
#
# Static dielectric constant tensor:
#      x y z
#    x 1.857910 0.000000 0.021640 
#    y 0.000000 1.872620 0.000000 
#    z 0.021640 0.000000 1.870370 
# 
# From -- ./inp_files/272790.got.cif
#   From: 2010.05.17/outbox.cif.g08.bks.cpg/sg15_137_cif.got.tgz:272790.got - 2010.06.03 18:47:42.
