data_PCOD9274285
_publ_section_title
;
Structure prediction by ZEFSAII (Michael W. Deem and Ramdas Pophale) SiO2 
 PCOD9274285
Probable space group: C 2/C
;
_chemical_formula_sum "Si O2"
_cell_formula_units_Z 64
_cell_length_a 14.433659
_cell_length_b 17.504962
_cell_length_c 23.340207
_cell_angle_alpha 90.000000
_cell_angle_beta 146.303851
_cell_angle_gamma 90.000000
_cell_volume 3271.672121
_symmetry_space_group_name_H-M "C 2/C"
_symmetry_group_IT_number 15
_symmetry_cell_setting 'monoclinic'
loop_
_space_group_symop_operation_xyz
x,y,z
-x,y,1/2-z
-x,-y,-z
x,-y,1/2+z
1/2+x,1/2+y,z
1/2-x,1/2+y,1/2-z
1/2-x,1/2-y,-z
1/2+x,1/2-y,1/2+z
loop_
_atom_site_type_symbol
_atom_site_label
_atom_site_fract_x
_atom_site_fract_y
_atom_site_fract_z
Si Si1 0.771992 0.378936 0.449325
Si Si2 0.230090 0.786926 0.311832
Si Si3 0.696110 0.299180 0.841785
Si Si4 0.461015 0.311816 0.499690
Si Si5 0.433753 0.551583 0.369492
Si Si6 0.156472 0.044025 0.371783
Si Si7 0.034232 0.875132 0.120944
Si Si8 0.134974 0.342948 0.686970
O O1 0.715096 0.327769 0.365703
O O2 0.767928 0.468670 0.431196
O O3 0.631491 0.370428 0.425736
O O4 0.954182 0.358332 0.567145
O O5 0.412741 0.749393 0.408067
O O6 0.184507 0.847936 0.239473
O O7 0.121360 0.713350 0.234935
O O8 0.500000 0.296308 0.750000
O O9 0.781061 0.225989 0.913598
O O10 0.748529 0.380554 0.896337
O O11 0.752134 0.303421 0.804505
O O12 0.494393 0.392933 0.545217
O O13 0.490607 0.323060 0.447331
O O14 0.561976 0.561127 0.382497
O O15 0.433693 0.461911 0.381766
O O16 0.247534 0.583157 0.260242
O O17 0.000000 0.025878 0.250000
#
# Coordination Sequence:
#
# PCOD9274285 Si02
#       8
#     8   8   8   8   8   8   8   8
#     4  11  23  38  63  94 123 163 209 258 311 372
#     4  11  22  38  62  91 124 161 208 251 317 363
#     4  11  21  41  64  87 126 157 200 264 305 367
#     4  11  24  42  63  94 125 169 208 250 315 374
#     4  10  22  42  65  87 124 172 205 252 314 367
#     4  10  20  38  62  90 123 159 203 258 316 357
#     4  11  23  42  64  91 130 166 208 255 310 375
#     4  11  22  41  59  92 128 157 210 261 309 371
#
# _framework density 19.561862999999999
#
# number of rings (size 3 to 8) (size 9 to 14) (size 15 to 20)
#    0.000    1.250    5.000    2.250    0.000    5.000 
#    0.000    4.375    0.000    0.000    0.000    0.000 
#    0.000    0.000    0.000    0.000    0.000    0.000 
#
# Total GULP energy -178533.569466 kJ/mol
# GULP energy per Si atom -5579.174046 kJ/mol
# Density = 1.951734 g / cm^3
# Si number density = 19.561863 Si / 1000 Ang^3
#
#
#
# Elastic Constant Matrix: (Units=GPa)
#
#
# Indices 1 2 3 4 5 6 
#
# 1 66.7335 42.9917 46.4477 0.0000 -8.0331 0.0000
# 2 42.9917 106.3696 63.1940 0.0000 15.4566 0.0003
# 3 46.4477 63.1940 125.9765 -0.0001 -6.9555 0.0000
# 4 0.0000 0.0000 -0.0001 26.1975 0.0000 0.0925
# 5 -8.0331 15.4566 -6.9555 0.0000 13.6495 0.0000
# 6 0.0000 0.0003 0.0000 0.0925 0.0000 25.0587
#
#
#
# Elastic Compliance Matrix: (Units=1/GPa)
#
#
# Indices 1 2 3 4 5 6 
#
# 1 0.031779 -0.018357 -0.000338 0.000000 0.039318 0.000000
# 2 -0.018357 0.031607 -0.011997 0.000000 -0.052709 0.000000
# 3 -0.000338 -0.011997 0.015249 0.000000 0.021157 0.000000
# 4 0.000000 0.000000 0.000000 0.038172 0.000000 -0.000141
# 5 0.039318 -0.052709 0.021157 0.000000 0.166871 0.000001
# 6 0.000000 0.000000 0.000000 -0.000141 0.000001 0.039907
#
#
# Mechanical properties :
#
#
# Convention : Reuss Voigt Hill
#
# Bulk Modulus (GPa) = 57.96608 67.14959 62.55783
# Shear Modulus (GPa) = 12.79691 22.74422 17.77056
#
# Velocity S-wave (km/s) = 2.56046 3.41351 3.01729
# Velocity P-wave (km/s) = 6.19982 7.06664 6.64737
#
# Compressibility (1/GPa) = 0.01725147
#
# Stress axis : x y z
#
# Youngs Moduli (GPa) = 31.46734 31.63834 65.57873
#
# Poissons Ratio (x) = 0.58078 0.02214
# Poissons Ratio (y) = 0.57764 0.78676
# Poissons Ratio (z) = 0.01063 0.37957
#
# Static dielectric constant tensor:
#      x y z
#    x 1.702440 0.000000 -0.052420 
#    y 0.000000 1.721630 0.000000 
#    z -0.052420 0.000000 1.707140 
# 
# From -- ./inp_files/274839.got.cif
#   From: 2010.05.17/outbox.cif.g08.bks.cpg/sg15_138_cif.got.tgz:274839.got - 2010.06.03 18:47:42.
