data_PCOD9274160
_publ_section_title
;
Structure prediction by ZEFSAII (Michael W. Deem and Ramdas Pophale) SiO2 
 PCOD9274160
Probable space group: C 2/C
;
_chemical_formula_sum "Si O2"
_cell_formula_units_Z 60
_cell_length_a 23.214981
_cell_length_b 18.008303
_cell_length_c 5.727591
_cell_angle_alpha 90.000000
_cell_angle_beta 92.286805
_cell_angle_gamma 90.000000
_cell_volume 2392.583562
_symmetry_space_group_name_H-M "C 2/C"
_symmetry_group_IT_number 15
_symmetry_cell_setting 'monoclinic'
loop_
_space_group_symop_operation_xyz
x,y,z
-x,y,1/2-z
-x,-y,-z
x,-y,1/2+z
1/2+x,1/2+y,z
1/2-x,1/2+y,1/2-z
1/2-x,1/2-y,-z
1/2+x,1/2-y,1/2+z
loop_
_atom_site_type_symbol
_atom_site_label
_atom_site_fract_x
_atom_site_fract_y
_atom_site_fract_z
Si Si1 0.888163 0.421347 0.008998
Si Si2 0.500000 0.071221 0.750000
Si Si3 0.340375 0.231026 0.655516
Si Si4 0.383032 0.326554 0.997326
Si Si5 0.442340 0.173842 0.125214
Si Si6 0.224109 0.184512 0.730925
Si Si7 0.567275 0.472539 0.304122
Si Si8 0.241914 0.534997 0.004299
O O1 0.944150 0.464515 0.117426
O O2 0.875769 0.344708 0.150173
O O3 0.828441 0.464910 0.999827
O O4 0.906274 0.384646 0.769614
O O5 0.528030 0.125381 0.567445
O O6 0.286735 0.213285 0.819490
O O7 0.308669 0.249888 0.409437
O O8 0.375037 0.306095 0.723712
O O9 0.403423 0.244808 0.074114
O O10 0.320219 0.346037 0.087272
O O11 0.425016 0.388779 0.101092
O O12 0.500000 0.206872 0.250000
O O13 0.237934 0.118316 0.550872
O O14 0.500000 0.491922 0.250000
O O15 0.591500 0.516161 0.541135
O O16 0.259707 0.491148 0.767923
#
# Coordination Sequence:
#
# PCOD9274160 Si02
#       8
#     8   4   8   8   8   8   8   8
#     4  10  21  41  68  95 137 172 217 273 343 408
#     4  10  20  38  62 100 136 164 202 278 344 400
#     4  10  21  40  62 100 128 170 212 276 351 400
#     4  12  22  37  70  97 129 175 227 274 334 413
#     4  10  21  36  62 101 134 166 211 279 348 403
#     4  10  24  41  64  93 136 168 219 278 337 396
#     4  10  25  47  64  90 134 186 227 273 326 387
#     4  11  28  48  70  95 132 184 232 276 330 397
#
# _framework density 25.077494999999999
#
# number of rings (size 3 to 8) (size 9 to 14) (size 15 to 20)
#    0.000    1.600    2.667    0.800    5.600    1.067 
#    3.600    0.667    0.000    0.000    0.000    0.000 
#    0.000    0.000    0.000    0.000    0.000    0.000 
#
# Total GULP energy -167344.217388 kJ/mol
# GULP energy per Si atom -5578.140580 kJ/mol
# Density = 2.502042 g / cm^3
# Si number density = 25.077495 Si / 1000 Ang^3
#
#
#
# Elastic Constant Matrix: (Units=GPa)
#
#
# Indices 1 2 3 4 5 6 
#
# 1 64.1740 11.8213 19.7618 0.0000 0.9714 0.0000
# 2 11.8213 104.3747 37.8889 0.0000 7.0324 0.0000
# 3 19.7618 37.8889 99.1490 0.0000 -3.5060 0.0000
# 4 0.0000 0.0000 0.0000 40.8534 0.0000 11.3151
# 5 0.9714 7.0324 -3.5060 0.0000 40.3773 0.0000
# 6 0.0000 0.0000 0.0000 11.3151 0.0000 27.6401
#
#
#
# Elastic Compliance Matrix: (Units=1/GPa)
#
#
# Indices 1 2 3 4 5 6 
#
# 1 0.016669 -0.000742 -0.003058 0.000000 -0.000537 0.000000
# 2 -0.000742 0.011377 -0.004282 0.000000 -0.002335 0.000000
# 3 -0.003058 -0.004282 0.012399 0.000000 0.001896 0.000000
# 4 0.000000 0.000000 0.000000 0.027608 0.000000 -0.011302
# 5 -0.000537 -0.002335 0.001896 0.000000 0.025351 0.000000
# 6 0.000000 0.000000 0.000000 -0.011302 0.000000 0.040806
#
#
# Mechanical properties :
#
#
# Convention : Reuss Voigt Hill
#
# Bulk Modulus (GPa) = 41.18478 45.18242 43.18360
# Shear Modulus (GPa) = 31.55234 34.98921 33.27077
#
# Velocity S-wave (km/s) = 3.55095 3.73935 3.64637
# Velocity P-wave (km/s) = 5.76810 6.05804 5.91485
#
# Compressibility (1/GPa) = 0.02428082
#
# Stress axis : x y z
#
# Youngs Moduli (GPa) = 59.99140 87.89884 80.65299
#
# Poissons Ratio (x) = 0.06519 0.24663
# Poissons Ratio (y) = 0.04449 0.34538
# Poissons Ratio (z) = 0.18345 0.37641
#
# Static dielectric constant tensor:
#      x y z
#    x 2.015110 0.000000 0.070110 
#    y 0.000000 1.917480 0.000000 
#    z 0.070110 0.000000 2.342030 
# 
# From -- ./inp_files/17202.got.cif
#   From: 2010.05.17/outbox.cif.g08.bks.cpg/sg15_9_cif.got.tgz:17202.got - 2010.06.03 18:47:42.
