data_PCOD9274662
_publ_section_title
;
Structure prediction by ZEFSAII (Michael W. Deem and Ramdas Pophale) SiO2 
 PCOD9274662
Probable space group: C 2/C
;
_chemical_formula_sum "Si O2"
_cell_formula_units_Z 36
_cell_length_a 28.668721
_cell_length_b 5.087078
_cell_length_c 13.112718
_cell_angle_alpha 90.000000
_cell_angle_beta 40.732625
_cell_angle_gamma 90.000000
_cell_volume 1247.871635
_symmetry_space_group_name_H-M "C 2/C"
_symmetry_group_IT_number 15
_symmetry_cell_setting 'monoclinic'
loop_
_space_group_symop_operation_xyz
x,y,z
-x,y,1/2-z
-x,-y,-z
x,-y,1/2+z
1/2+x,1/2+y,z
1/2-x,1/2+y,1/2-z
1/2-x,1/2-y,-z
1/2+x,1/2-y,1/2+z
loop_
_atom_site_type_symbol
_atom_site_label
_atom_site_fract_x
_atom_site_fract_y
_atom_site_fract_z
Si Si1 0.277475 0.704505 0.156075
Si Si2 0.081630 0.516412 0.522770
Si Si3 0.660872 0.176511 0.185212
Si Si4 0.599757 0.687296 0.194571
Si Si5 0.000000 0.500000 0.500000
O O1 0.270668 0.396659 0.191616
O O2 0.354440 0.821250 0.055335
O O3 0.232216 0.740399 0.128211
O O4 0.098491 0.629390 0.377808
O O5 0.078893 0.733267 0.614463
O O6 0.010637 0.372677 0.603689
O O7 0.634338 0.407620 0.157482
O O8 0.659917 0.901779 0.128838
O O9 0.538597 0.744571 0.377736
#
# Coordination Sequence:
#
# PCOD9274662 Si02
#       5
#     8   8   8   8   4
#     4  10  20  38  64  92 127 167 206 259 318 374
#     4  10  23  41  67  93 129 172 211 258 319 376
#     4  10  23  42  64  96 130 160 210 266 314 379
#     4  11  24  41  67  96 126 169 211 260 320 375
#     4  10  22  44  62  90 128 162 212 260 300 366
#
# _framework density 28.849121
#
# number of rings (size 3 to 8) (size 9 to 14) (size 15 to 20)
#    0.000    1.778    0.000    4.667    0.000   12.444 
#    0.000    4.444    0.000    0.000    0.000    0.000 
#    0.000    0.000    0.000    0.000    0.000    0.000 
#
# Total GULP energy -100477.922511 kJ/mol
# GULP energy per Si atom -5582.106806 kJ/mol
# Density = 2.878346 g / cm^3
# Si number density = 28.849121 Si / 1000 Ang^3
#
#
#
# Elastic Constant Matrix: (Units=GPa)
#
#
# Indices 1 2 3 4 5 6 
#
# 1 237.9550 62.3604 64.5384 0.0010 31.9360 -0.0049
# 2 62.3604 133.2818 50.3976 -0.0070 5.4371 -0.0066
# 3 64.5384 50.3976 96.6305 -0.0019 32.6945 0.0009
# 4 0.0010 -0.0070 -0.0019 61.1382 -0.0002 6.0154
# 5 31.9360 5.4371 32.6945 -0.0002 88.6025 0.0009
# 6 -0.0049 -0.0066 0.0009 6.0154 0.0009 38.9415
#
#
#
# Elastic Compliance Matrix: (Units=1/GPa)
#
#
# Indices 1 2 3 4 5 6 
#
# 1 0.005409 -0.001553 -0.002486 0.000000 -0.000937 0.000001
# 2 -0.001553 0.009946 -0.004723 0.000001 0.001692 0.000001
# 3 -0.002486 -0.004723 0.016078 0.000000 -0.004747 -0.000001
# 4 0.000000 0.000001 0.000000 0.016609 0.000000 -0.002566
# 5 -0.000937 0.001692 -0.004747 0.000000 0.013272 0.000000
# 6 0.000001 0.000001 -0.000001 -0.002566 0.000000 0.026076
#
#
# Mechanical properties :
#
#
# Convention : Reuss Voigt Hill
#
# Bulk Modulus (GPa) = 71.88626 91.38447 81.63536
# Shear Modulus (GPa) = 45.64086 57.10784 51.37435
#
# Velocity S-wave (km/s) = 3.98182 4.45402 4.22452
# Velocity P-wave (km/s) = 6.79058 7.62867 7.22179
#
# Compressibility (1/GPa) = 0.01391086
#
# Stress axis : x y z
#
# Youngs Moduli (GPa) = 184.86258 100.54058 62.19506
#
# Poissons Ratio (x) = 0.15611 0.15462
# Poissons Ratio (y) = 0.28704 0.29374
# Poissons Ratio (z) = 0.45956 0.47484
#
# Static dielectric constant tensor:
#      x y z
#    x 27.720240 -0.001040 -17.950110 
#    y -0.001040 -3.028080 0.000700 
#    z -17.950110 0.000700 15.086430 
# 
# From -- ./inp_files/124713.got.cif
#   From: 2010.05.17/outbox.cif.g08.bks.cpg/sg15_63_cif.got.tgz:124713.got - 2010.06.03 18:47:42.
