data_PCOD9274894
_publ_section_title
;
Structure prediction by ZEFSAII (Michael W. Deem and Ramdas Pophale) SiO2 
 PCOD9274894
Probable space group: C 2/C
;
_chemical_formula_sum "Si O2"
_cell_formula_units_Z 52
_cell_length_a 15.933769
_cell_length_b 9.158239
_cell_length_c 15.099190
_cell_angle_alpha 90.000000
_cell_angle_beta 88.305811
_cell_angle_gamma 90.000000
_cell_volume 2202.390132
_symmetry_space_group_name_H-M "C 2/C"
_symmetry_group_IT_number 15
_symmetry_cell_setting 'monoclinic'
loop_
_space_group_symop_operation_xyz
x,y,z
-x,y,1/2-z
-x,-y,-z
x,-y,1/2+z
1/2+x,1/2+y,z
1/2-x,1/2+y,1/2-z
1/2-x,1/2-y,-z
1/2+x,1/2-y,1/2+z
loop_
_atom_site_type_symbol
_atom_site_label
_atom_site_fract_x
_atom_site_fract_y
_atom_site_fract_z
Si Si1 0.571632 0.431340 0.410823
Si Si2 0.330808 0.065786 0.309722
Si Si3 0.318942 0.362980 0.238915
Si Si4 0.242217 0.920388 0.984473
Si Si5 0.955529 0.800886 0.911612
Si Si6 0.234144 0.826907 0.594429
Si Si7 0.500000 0.096974 0.750000
O O1 0.594557 0.411410 0.307099
O O2 0.651755 0.523563 0.448957
O O3 0.554631 0.293926 0.478808
O O4 0.493263 0.537909 0.408741
O O5 0.250391 0.990767 0.262810
O O6 0.416487 0.001098 0.267657
O O7 0.328790 0.242640 0.313811
O O8 0.312690 0.026123 0.412620
O O9 0.290263 0.252045 0.162273
O O10 0.250000 0.750000 0.000000
O O11 0.253483 0.005949 0.074883
O O12 0.861975 0.805846 0.876577
O O13 0.004618 0.694553 0.841455
O O14 0.250000 0.750000 0.500000
#
# Coordination Sequence:
#
# PCOD9274894 Si02
#       7
#     8   8   8   8   8   8   4
#     4   9  21  41  63  93 123 163 222 256 311 379
#     4  11  26  43  62  98 130 164 211 264 321 381
#     4  11  23  42  67  89 126 168 215 261 311 381
#     4  10  22  40  65  92 122 163 220 262 307 382
#     4  10  20  38  66  90 122 168 209 259 310 385
#     4  11  18  41  67  87 117 173 211 251 311 380
#     4  12  24  42  60  94 140 166 204 262 336 372
#
# _framework density 23.610713000000001
#
# number of rings (size 3 to 8) (size 9 to 14) (size 15 to 20)
#    0.000    1.538    6.154    0.000    6.462    0.000 
#   11.077    0.769    0.000    0.000    0.000    0.000 
#    0.000    0.000    0.000    0.000    0.000    0.000 
#
# Total GULP energy -144896.540622 kJ/mol
# GULP energy per Si atom -5572.943870 kJ/mol
# Density = 2.355697 g / cm^3
# Si number density = 23.610713 Si / 1000 Ang^3
#
#
#
# Elastic Constant Matrix: (Units=GPa)
#
#
# Indices 1 2 3 4 5 6 
#
# 1 70.4325 2.4863 22.2088 0.0000 -37.5632 0.0000
# 2 2.4863 97.2325 15.2978 0.0000 -22.8795 0.0000
# 3 22.2088 15.2978 86.0353 0.0000 -28.4821 0.0000
# 4 0.0000 0.0000 0.0000 42.9295 0.0000 -14.8777
# 5 -37.5632 -22.8795 -28.4821 0.0000 38.3107 0.0000
# 6 0.0000 0.0000 0.0000 -14.8777 0.0000 29.1947
#
#
#
# Elastic Compliance Matrix: (Units=1/GPa)
#
#
# Indices 1 2 3 4 5 6 
#
# 1 0.035383 0.008514 0.003344 0.000000 0.042263 0.000000
# 2 0.008514 0.014021 0.001121 0.000000 0.017555 0.000000
# 3 0.003344 0.001121 0.015742 0.000000 0.015651 0.000000
# 4 0.000000 0.000000 0.000000 0.028290 0.000000 0.014417
# 5 0.042263 0.017555 0.015651 0.000000 0.089660 0.000000
# 6 0.000000 0.000000 0.000000 0.014417 0.000000 0.041600
#
#
# Mechanical properties :
#
#
# Convention : Reuss Voigt Hill
#
# Bulk Modulus (GPa) = 10.97659 37.07625 24.02642
# Shear Modulus (GPa) = 21.82380 36.33415 29.07897
#
# Velocity S-wave (km/s) = 3.04356 3.92712 3.51322
# Velocity P-wave (km/s) = 4.12433 6.02497 5.16286
#
# Compressibility (1/GPa) = 0.09110295
#
# Stress axis : x y z
#
# Youngs Moduli (GPa) = 28.26229 71.31985 63.52394
#
# Poissons Ratio (x) = -0.60721 -0.21241
# Poissons Ratio (y) = -0.24062 -0.07119
# Poissons Ratio (z) = -0.09450 -0.07992
#
# Static dielectric constant tensor:
#      x y z
#    x 2.164650 0.000000 -0.230710 
#    y 0.000000 2.047800 0.000000 
#    z -0.230710 0.000000 2.211980 
# 
# From -- ./inp_files/209083.got.cif
#   From: 2010.05.17/outbox.cif.g08.bks.cpg/sg15_105_cif.got.tgz:209083.got - 2010.06.03 18:47:42.
