data_PCOD9274993
_publ_section_title
;
Structure prediction by ZEFSAII (Michael W. Deem and Ramdas Pophale) SiO2 
 PCOD9274993
Probable space group: C 2/C
;
_chemical_formula_sum "Si O2"
_cell_formula_units_Z 44
_cell_length_a 9.264865
_cell_length_b 12.616532
_cell_length_c 18.724741
_cell_angle_alpha 90.000000
_cell_angle_beta 52.328877
_cell_angle_gamma 90.000000
_cell_volume 1732.459891
_symmetry_space_group_name_H-M "C 2/C"
_symmetry_group_IT_number 15
_symmetry_cell_setting 'monoclinic'
loop_
_space_group_symop_operation_xyz
x,y,z
-x,y,1/2-z
-x,-y,-z
x,-y,1/2+z
1/2+x,1/2+y,z
1/2-x,1/2+y,1/2-z
1/2-x,1/2-y,-z
1/2+x,1/2-y,1/2+z
loop_
_atom_site_type_symbol
_atom_site_label
_atom_site_fract_x
_atom_site_fract_y
_atom_site_fract_z
Si Si1 0.715739 0.384262 0.460930
Si Si2 0.000000 0.252371 0.750000
Si Si3 0.552565 0.116508 0.956128
Si Si4 0.695497 0.425485 0.871532
Si Si5 0.294524 0.486614 0.787001
Si Si6 0.083810 0.265676 0.881320
O O1 0.875958 0.348025 0.464325
O O2 0.515638 0.392899 0.556687
O O3 0.753867 0.503944 0.421462
O O4 0.700546 0.311595 0.395888
O O5 0.174133 0.326889 0.679456
O O6 0.037398 0.211773 0.819756
O O7 0.713745 0.088009 0.853132
O O8 0.576596 0.194965 0.015590
O O9 0.500000 0.000000 0.000000
O O10 0.717561 0.495092 0.793968
O O11 0.500000 0.473546 0.750000
O O12 0.190117 0.376196 0.835519
#
# Coordination Sequence:
#
# PCOD9274993 Si02
#       6
#     8   4   8   8   8   8
#     4  11  22  39  64  99 129 179 232 279 333 406
#     4  10  22  44  64  92 140 184 224 280 346 396
#     4  10  20  38  67  93 130 174 219 275 342 407
#     4  10  21  39  63  89 133 181 223 274 340 411
#     4  10  21  41  64  96 135 175 224 281 342 409
#     4  10  22  41  65  97 133 178 227 289 330 396
#
# _framework density 25.397413
#
# number of rings (size 3 to 8) (size 9 to 14) (size 15 to 20)
#    0.000    1.818    0.000    6.000    0.000    2.182 
#   13.091    0.000    0.000    0.000    0.000    0.000 
#    0.000    0.000    0.000    0.000    0.000    0.000 
#
# Total GULP energy -123140.810242 kJ/mol
# GULP energy per Si atom -5597.309556 kJ/mol
# Density = 2.533961 g / cm^3
# Si number density = 25.397413 Si / 1000 Ang^3
#
#
#
# Elastic Constant Matrix: (Units=GPa)
#
#
# Indices 1 2 3 4 5 6 
#
# 1 113.1453 28.2460 61.5972 0.0000 27.8561 0.0000
# 2 28.2460 91.7539 31.0462 0.0000 14.7616 0.0000
# 3 61.5972 31.0462 146.6167 0.0000 17.6052 0.0000
# 4 0.0000 0.0000 0.0000 -0.9394 0.0000 33.9196
# 5 27.8561 14.7616 17.6052 0.0000 40.4535 0.0000
# 6 0.0000 0.0000 0.0000 33.9196 0.0000 36.6117
#
#
#
# Elastic Compliance Matrix: (Units=1/GPa)
#
#
# Indices 1 2 3 4 5 6 
#
# 1 0.013282 -0.001509 -0.004462 0.000000 -0.006654 0.000000
# 2 -0.001509 0.012366 -0.001654 0.000000 -0.002754 0.000000
# 3 -0.004462 -0.001654 0.009078 0.000000 -0.000275 0.000000
# 4 0.000000 0.000000 0.000000 -0.030898 0.000000 0.028626
# 5 -0.006654 -0.002754 -0.000275 0.000000 0.030426 0.000000
# 6 0.000000 0.000000 0.000000 0.028626 0.000000 0.000793
#
#
# Mechanical properties :
#
#
# Convention : Reuss Voigt Hill
#
# Bulk Modulus (GPa) = 51.34176 65.92165 58.63171
# Shear Modulus (GPa) = 88.04681 30.60026 59.32354
#
# Velocity S-wave (km/s) = 5.89431 3.47487 4.83827
# Velocity P-wave (km/s) = 8.15985 6.48938 7.37208
#
# Compressibility (1/GPa) = 0.01947732
#
# Stress axis : x y z
#
# Youngs Moduli (GPa) = 75.29052 80.86810 110.15391
#
# Poissons Ratio (x) = 0.12200 0.49147
# Poissons Ratio (y) = 0.11359 0.18220
# Poissons Ratio (z) = 0.33592 0.13376
#
# Static dielectric constant tensor:
#      x y z
#    x 1.965810 0.000000 -0.021800 
#    y 0.000000 2.041640 0.000000 
#    z -0.021800 0.000000 2.053740 
# 
# From -- ./inp_files/189157.got.cif
#   From: 2010.05.17/outbox.cif.g08.bks.cpg/sg15_95_cif.got.tgz:189157.got - 2010.06.03 18:47:42.
