data_PCOD9274512
_publ_section_title
;
Structure prediction by ZEFSAII (Michael W. Deem and Ramdas Pophale) SiO2 
 PCOD9274512
Probable space group: C 2/C
;
_chemical_formula_sum "Si O2"
_cell_formula_units_Z 40
_cell_length_a 10.929881
_cell_length_b 15.147176
_cell_length_c 9.157058
_cell_angle_alpha 90.000000
_cell_angle_beta 93.565383
_cell_angle_gamma 90.000000
_cell_volume 1513.079236
_symmetry_space_group_name_H-M "C 2/C"
_symmetry_group_IT_number 15
_symmetry_cell_setting 'monoclinic'
loop_
_space_group_symop_operation_xyz
x,y,z
-x,y,1/2-z
-x,-y,-z
x,-y,1/2+z
1/2+x,1/2+y,z
1/2-x,1/2+y,1/2-z
1/2-x,1/2-y,-z
1/2+x,1/2-y,1/2+z
loop_
_atom_site_type_symbol
_atom_site_label
_atom_site_fract_x
_atom_site_fract_y
_atom_site_fract_z
Si Si1 0.186602 0.044415 0.435765
Si Si2 0.967078 0.871511 0.090571
Si Si3 0.589049 0.794977 0.116734
Si Si4 0.954488 0.586329 0.392646
Si Si5 0.757508 0.715149 0.332395
O O1 0.334596 0.046256 0.467766
O O2 0.175285 0.124552 0.315809
O O3 0.093871 0.080434 0.550319
O O4 0.135688 0.947781 0.402971
O O5 0.000000 0.837034 0.250000
O O6 0.933126 0.793608 0.977812
O O7 0.500000 0.797102 0.250000
O O8 0.718702 0.783674 0.207161
O O9 0.554691 0.877407 0.012550
O O10 0.889011 0.673300 0.323792
O O11 0.000000 0.536830 0.250000
O O12 0.750000 0.750000 0.500000
#
# Coordination Sequence:
#
# PCOD9274512 Si02
#       5
#     8   8   8   8   8
#     4   9  22  37  61  93 142 181 225 293 355 421
#     4  11  23  37  67 100 138 180 238 295 361 428
#     4  12  20  38  70 104 137 182 231 301 365 418
#     4  10  22  41  66  99 145 185 234 296 363 433
#     4  10  20  38  63  96 138 178 228 296 352 416
#
# _framework density 26.436157000000001
#
# number of rings (size 3 to 8) (size 9 to 14) (size 15 to 20)
#    1.200    0.400    4.000    0.600    5.600    0.800 
#    0.000    2.000    0.000    4.800    0.000    1.400 
#    0.000    0.000    0.000    0.000    0.000    0.400 
#
# Total GULP energy -111661.014363 kJ/mol
# GULP energy per Si atom -5583.050718 kJ/mol
# Density = 2.637599 g / cm^3
# Si number density = 26.436157 Si / 1000 Ang^3
#
#
#
# Elastic Constant Matrix: (Units=GPa)
#
#
# Indices 1 2 3 4 5 6 
#
# 1 112.2898 83.2979 57.3074 0.0000 15.6672 0.0000
# 2 83.2979 143.9102 60.8651 0.0000 -2.0420 0.0000
# 3 57.3074 60.8651 148.9386 0.0000 19.9124 0.0000
# 4 0.0000 0.0000 0.0000 25.2899 0.0000 -4.9192
# 5 15.6672 -2.0420 19.9124 0.0000 42.2939 0.0000
# 6 0.0000 0.0000 0.0000 -4.9192 0.0000 57.0012
#
#
#
# Elastic Compliance Matrix: (Units=1/GPa)
#
#
# Indices 1 2 3 4 5 6 
#
# 1 0.017962 -0.009555 -0.002193 0.000000 -0.006082 0.000000
# 2 -0.009555 0.013673 -0.002638 0.000000 0.005442 0.000000
# 3 -0.002193 -0.002638 0.009119 0.000000 -0.003608 0.000000
# 4 0.000000 0.000000 0.000000 0.040217 0.000000 0.003471
# 5 -0.006082 0.005442 -0.003608 0.000000 0.027859 0.000000
# 6 0.000000 0.000000 0.000000 0.003471 0.000000 0.017843
#
#
# Mechanical properties :
#
#
# Convention : Reuss Voigt Hill
#
# Bulk Modulus (GPa) = 83.47707 89.78660 86.63183
# Shear Modulus (GPa) = 31.36018 38.49488 34.92753
#
# Velocity S-wave (km/s) = 3.44795 3.82009 3.63878
# Velocity P-wave (km/s) = 6.89177 7.31401 7.10603
#
# Compressibility (1/GPa) = 0.01197934
#
# Stress axis : x y z
#
# Youngs Moduli (GPa) = 55.67420 73.13867 109.66582
#
# Poissons Ratio (x) = 0.69886 0.24051
# Poissons Ratio (y) = 0.53198 0.28934
# Poissons Ratio (z) = 0.12210 0.19297
#
# Static dielectric constant tensor:
#      x y z
#    x 2.297380 0.000000 -0.030820 
#    y 0.000000 2.048630 0.000000 
#    z -0.030820 0.000000 2.325730 
# 
# From -- ./inp_files/30314.got.cif
#   From: 2010.05.17/outbox.cif.g08.bks.cpg/sg15_16_cif.got.tgz:30314.got - 2010.06.03 18:47:42.
