data_PCOD9274382
_publ_section_title
;
Structure prediction by ZEFSAII (Michael W. Deem and Ramdas Pophale) SiO2 
 PCOD9274382
Probable space group: C 2/C
;
_chemical_formula_sum "Si O2"
_cell_formula_units_Z 40
_cell_length_a 6.301044
_cell_length_b 20.250431
_cell_length_c 16.131453
_cell_angle_alpha 90.000000
_cell_angle_beta 112.030501
_cell_angle_gamma 90.000000
_cell_volume 1908.062741
_symmetry_space_group_name_H-M "C 2/C"
_symmetry_group_IT_number 15
_symmetry_cell_setting 'monoclinic'
loop_
_space_group_symop_operation_xyz
x,y,z
-x,y,1/2-z
-x,-y,-z
x,-y,1/2+z
1/2+x,1/2+y,z
1/2-x,1/2+y,1/2-z
1/2-x,1/2-y,-z
1/2+x,1/2-y,1/2+z
loop_
_atom_site_type_symbol
_atom_site_label
_atom_site_fract_x
_atom_site_fract_y
_atom_site_fract_z
Si Si1 0.485510 0.259199 0.430509
Si Si2 0.000000 0.799010 0.250000
Si Si3 0.737685 0.860844 0.506711
Si Si4 0.523302 0.537674 0.155556
Si Si5 0.000000 0.504724 0.250000
Si Si6 0.712735 0.082821 0.637768
O O1 0.750000 0.250000 0.500000
O O2 0.455764 0.258421 0.326932
O O3 0.339247 0.200246 0.447869
O O4 0.377994 0.327500 0.451076
O O5 0.805248 0.849332 0.189738
O O6 0.505024 0.898743 0.448634
O O7 0.891204 0.911519 0.579480
O O8 0.500000 0.554271 0.250000
O O9 0.792546 0.542153 0.176138
O O10 0.411084 0.464128 0.128022
O O11 0.878543 0.460168 0.299862
#
# Coordination Sequence:
#
# PCOD9274382 Si02
#       6
#     8   4   8   8   4   8
#     4  11  26  45  67  98 131 186 227 277 333 395
#     4  12  22  46  73  92 139 174 230 278 328 408
#     4  11  25  44  68 101 136 170 236 279 332 399
#     4  10  23  41  65 102 135 175 216 277 342 400
#     4  10  20  38  63 102 133 182 210 256 362 396
#     4  11  21  41  70  99 131 174 224 281 334 402
#
# _framework density 20.963671000000001
#
# number of rings (size 3 to 8) (size 9 to 14) (size 15 to 20)
#    0.000    1.200    5.000    1.800    0.000    5.600 
#    0.000    1.000    0.000    0.000    0.000    0.000 
#    0.000    0.000    0.000    0.000    0.000    0.000 
#
# Total GULP energy -111695.695019 kJ/mol
# GULP energy per Si atom -5584.784751 kJ/mol
# Density = 2.091596 g / cm^3
# Si number density = 20.963671 Si / 1000 Ang^3
#
#
#
# Elastic Constant Matrix: (Units=GPa)
#
#
# Indices 1 2 3 4 5 6 
#
# 1 93.5011 26.8587 31.9445 0.0000 22.7422 0.0000
# 2 26.8587 61.3232 48.6603 0.0000 13.8743 0.0000
# 3 31.9445 48.6603 109.0813 0.0000 9.6912 0.0000
# 4 0.0000 0.0000 0.0000 39.1631 0.0000 15.9037
# 5 22.7422 13.8743 9.6912 0.0000 45.1655 0.0000
# 6 0.0000 0.0000 0.0000 15.9037 0.0000 29.5833
#
#
#
# Elastic Compliance Matrix: (Units=1/GPa)
#
#
# Indices 1 2 3 4 5 6 
#
# 1 0.013631 -0.003019 -0.002159 0.000000 -0.005473 0.000000
# 2 -0.003019 0.027295 -0.010890 0.000000 -0.004528 0.000000
# 3 -0.002159 -0.010890 0.014541 0.000000 0.001312 0.000000
# 4 0.000000 0.000000 0.000000 0.032665 0.000000 -0.017561
# 5 -0.005473 -0.004528 0.001312 0.000000 0.026006 0.000000
# 6 0.000000 0.000000 0.000000 -0.017561 0.000000 0.043243
#
#
# Mechanical properties :
#
#
# Convention : Reuss Voigt Hill
#
# Bulk Modulus (GPa) = 42.85977 53.20362 48.03170
# Shear Modulus (GPa) = 25.34301 33.21187 29.27744
#
# Velocity S-wave (km/s) = 3.48070 3.98459 3.74114
# Velocity P-wave (km/s) = 6.05333 6.82666 6.45160
#
# Compressibility (1/GPa) = 0.02333190
#
# Stress axis : x y z
#
# Youngs Moduli (GPa) = 73.36199 36.63734 68.77163
#
# Poissons Ratio (x) = 0.11060 0.14847
# Poissons Ratio (y) = 0.22146 0.74889
# Poissons Ratio (z) = 0.15838 0.39896
#
# Static dielectric constant tensor:
#      x y z
#    x 1.837940 0.000000 0.028270 
#    y 0.000000 1.768590 0.000000 
#    z 0.028270 0.000000 1.740410 
# 
# From -- ./inp_files/129081.got.cif
#   From: 2010.05.17/outbox.cif.g08.bks.cpg/sg15_65_cif.got.tgz:129081.got - 2010.06.03 18:47:42.
