data_PCOD9274358
_publ_section_title
;
Structure prediction by ZEFSAII (Michael W. Deem and Ramdas Pophale) SiO2 
 PCOD9274358
Probable space group: C 2/C
;
_chemical_formula_sum "Si O2"
_cell_formula_units_Z 60
_cell_length_a 15.134734
_cell_length_b 12.294899
_cell_length_c 21.596744
_cell_angle_alpha 90.000000
_cell_angle_beta 34.034517
_cell_angle_gamma 90.000000
_cell_volume 2249.247915
_symmetry_space_group_name_H-M "C 2/C"
_symmetry_group_IT_number 15
_symmetry_cell_setting 'monoclinic'
loop_
_space_group_symop_operation_xyz
x,y,z
-x,y,1/2-z
-x,-y,-z
x,-y,1/2+z
1/2+x,1/2+y,z
1/2-x,1/2+y,1/2-z
1/2-x,1/2-y,-z
1/2+x,1/2-y,1/2+z
loop_
_atom_site_type_symbol
_atom_site_label
_atom_site_fract_x
_atom_site_fract_y
_atom_site_fract_z
Si Si1 0.172935 0.359528 0.679275
Si Si2 0.317483 0.286683 0.129174
Si Si3 0.826574 0.870269 0.260361
Si Si4 0.662914 0.088887 0.536719
Si Si5 0.038308 0.811932 0.574997
Si Si6 0.194533 0.125315 0.526972
Si Si7 0.500000 0.165608 0.750000
Si Si8 0.702742 0.917429 0.798024
O O1 0.217387 0.237052 0.676060
O O2 0.287390 0.398257 0.557492
O O3 0.156893 0.427667 0.752439
O O4 0.000000 0.351554 0.750000
O O5 0.299349 0.351326 0.202883
O O6 0.147317 0.270704 0.194256
O O7 0.392466 0.174404 0.109968
O O8 0.420011 0.347267 0.018535
O O9 0.727473 0.979014 0.326776
O O10 0.015924 0.885669 0.154917
O O11 0.834100 0.142590 0.450547
O O12 0.564960 0.180837 0.556883
O O13 0.576838 0.093531 0.652670
O O14 0.697718 0.964246 0.500567
O O15 0.873861 0.860926 0.689690
O O16 0.250000 0.250000 0.500000
#
# Coordination Sequence:
#
# PCOD9274358 Si02
#       8
#     8   8   8   8   8   8   4   8
#     4  11  26  46  67 100 136 178 227 282 338 413
#     4  10  23  39  65  99 135 167 217 286 336 404
#     4  11  25  46  67  98 134 183 235 273 342 414
#     4  10  22  36  66  98 135 169 226 276 336 409
#     4  10  20  41  63 103 133 168 220 287 344 397
#     4  12  25  43  68  97 134 188 228 276 333 418
#     4  10  20  38  62  94 130 164 210 274 352 380
#     4  11  23  44  72  97 134 178 230 283 340 406
#
# _framework density 26.675584000000001
#
# number of rings (size 3 to 8) (size 9 to 14) (size 15 to 20)
#    0.000    1.333    4.000    0.800    4.667    2.133 
#    1.200    0.000    0.000    4.800    0.000    0.000 
#    0.000    0.000    0.000    0.000    0.000    0.000 
#
# Total GULP energy -167905.306711 kJ/mol
# GULP energy per Si atom -5596.843557 kJ/mol
# Density = 2.661487 g / cm^3
# Si number density = 26.675584 Si / 1000 Ang^3
#
#
#
# Elastic Constant Matrix: (Units=GPa)
#
#
# Indices 1 2 3 4 5 6 
#
# 1 96.3472 25.0438 10.9388 -0.0001 -0.0433 0.0000
# 2 25.0438 137.0226 -15.9779 -0.0001 -2.5341 0.0000
# 3 10.9388 -15.9779 52.7585 -0.0005 8.3549 0.0000
# 4 -0.0001 -0.0001 -0.0005 13.9158 0.0001 -11.2605
# 5 -0.0433 -2.5341 8.3549 0.0001 34.0393 0.0000
# 6 0.0000 0.0000 0.0000 -11.2605 0.0000 27.3560
#
#
#
# Elastic Compliance Matrix: (Units=1/GPa)
#
#
# Indices 1 2 3 4 5 6 
#
# 1 0.011377 -0.002441 -0.003196 0.000000 0.000617 0.000000
# 2 -0.002441 0.008089 0.002977 0.000000 -0.000132 0.000000
# 3 -0.003196 0.002977 0.021312 0.000001 -0.005014 0.000000
# 4 0.000000 0.000000 0.000001 0.107751 -0.000001 0.044353
# 5 0.000617 -0.000132 -0.005014 -0.000001 0.030599 0.000000
# 6 0.000000 0.000000 0.000000 0.044353 0.000000 0.054812
#
#
# Mechanical properties :
#
#
# Convention : Reuss Voigt Hill
#
# Bulk Modulus (GPa) = 28.20212 36.23753 32.21983
# Shear Modulus (GPa) = 19.91403 32.80378 26.35890
#
# Velocity S-wave (km/s) = 2.73523 3.51056 3.14686
# Velocity P-wave (km/s) = 4.53547 5.48143 5.03073
#
# Compressibility (1/GPa) = 0.03545832
#
# Stress axis : x y z
#
# Youngs Moduli (GPa) = 87.89973 123.62810 46.92134
#
# Poissons Ratio (x) = 0.30172 0.14994
# Poissons Ratio (y) = 0.21452 -0.13966
# Poissons Ratio (z) = 0.28090 -0.36798
#
# Static dielectric constant tensor:
#      x y z
#    x 2.113960 0.000000 -0.024260 
#    y 0.000000 2.167480 0.000000 
#    z -0.024260 0.000000 2.090780 
# 
# From -- ./inp_files/277264.got.cif
#   From: 2010.05.17/outbox.cif.g08.bks.cpg/sg15_139_cif.got.tgz:277264.got - 2010.06.03 18:47:42.
