data_PCOD9274339
_publ_section_title
;
Structure prediction by ZEFSAII (Michael W. Deem and Ramdas Pophale) SiO2 
 PCOD9274339
Probable space group: C 2/C
;
_chemical_formula_sum "Si O2"
_cell_formula_units_Z 40
_cell_length_a 25.103900
_cell_length_b 7.823124
_cell_length_c 8.446002
_cell_angle_alpha 90.000000
_cell_angle_beta 83.405677
_cell_angle_gamma 90.000000
_cell_volume 1647.744293
_symmetry_space_group_name_H-M "C 2/C"
_symmetry_group_IT_number 15
_symmetry_cell_setting 'monoclinic'
loop_
_space_group_symop_operation_xyz
x,y,z
-x,y,1/2-z
-x,-y,-z
x,-y,1/2+z
1/2+x,1/2+y,z
1/2-x,1/2+y,1/2-z
1/2-x,1/2-y,-z
1/2+x,1/2-y,1/2+z
loop_
_atom_site_type_symbol
_atom_site_label
_atom_site_fract_x
_atom_site_fract_y
_atom_site_fract_z
Si Si1 0.441140 0.759294 0.818066
Si Si2 0.329722 0.866289 0.463268
Si Si3 0.343679 0.438790 0.202625
Si Si4 0.598874 0.101724 0.850312
Si Si5 0.225230 0.066152 0.487633
O O1 0.500000 0.699608 0.750000
O O2 0.397602 0.622574 0.766655
O O3 0.430556 0.938163 0.724452
O O4 0.436950 0.795575 0.009315
O O5 0.326150 0.720571 0.596814
O O6 0.370950 0.812992 0.310004
O O7 0.356683 0.021026 0.549403
O O8 0.273459 0.939662 0.420739
O O9 0.295818 0.489687 0.335198
O O10 0.332642 0.586058 0.079732
O O11 0.250000 0.250000 0.500000
#
# Coordination Sequence:
#
# PCOD9274339 Si02
#       5
#     8   8   8   8   8
#     4  10  20  38  62  93 129 168 213 266 315 367
#     4  10  20  38  62  94 127 161 205 259 317 380
#     4  11  25  39  59  89 122 165 215 259 313 379
#     4   9  18  34  63  97 128 161 207 261 317 380
#     4  12  23  39  61  89 126 167 204 257 320 384
#
# _framework density 24.27561
#
# number of rings (size 3 to 8) (size 9 to 14) (size 15 to 20)
#    0.000    1.600    0.000    7.200    0.000    3.200 
#    0.000    1.000    0.000    0.000    0.000    1.400 
#    0.000    0.000    0.000    0.000    0.000    0.000 
#
# Total GULP energy -111509.252405 kJ/mol
# GULP energy per Si atom -5575.462620 kJ/mol
# Density = 2.422036 g / cm^3
# Si number density = 24.275610 Si / 1000 Ang^3
#
#
#
# Elastic Constant Matrix: (Units=GPa)
#
#
# Indices 1 2 3 4 5 6 
#
# 1 117.3803 17.9978 33.7384 0.0000 -14.6186 0.0000
# 2 17.9978 41.5350 -18.3441 0.0000 -4.3246 0.0000
# 3 33.7384 -18.3441 103.9205 0.0000 -18.3426 0.0000
# 4 0.0000 0.0000 0.0000 33.7096 0.0000 4.3355
# 5 -14.6186 -4.3246 -18.3426 0.0000 34.4027 0.0000
# 6 0.0000 0.0000 0.0000 4.3355 0.0000 28.5077
#
#
#
# Elastic Compliance Matrix: (Units=1/GPa)
#
#
# Indices 1 2 3 4 5 6 
#
# 1 0.010998 -0.006591 -0.004477 0.000000 0.001458 0.000000
# 2 -0.006591 0.031376 0.008699 0.000000 0.005781 0.000000
# 3 -0.004477 0.008699 0.013764 0.000000 0.006530 0.000000
# 4 0.000000 0.000000 0.000000 0.030257 0.000000 -0.004602
# 5 0.001458 0.005781 0.006530 0.000000 0.033895 0.000000
# 6 0.000000 0.000000 0.000000 -0.004602 0.000000 0.035778
#
#
# Mechanical properties :
#
#
# Convention : Reuss Voigt Hill
#
# Bulk Modulus (GPa) = 19.45518 36.62446 28.03982
# Shear Modulus (GPa) = 28.09932 34.62026 31.35979
#
# Velocity S-wave (km/s) = 3.40591 3.78052 3.59809
# Velocity P-wave (km/s) = 4.84755 5.84603 5.37005
#
# Compressibility (1/GPa) = 0.05140019
#
# Stress axis : x y z
#
# Youngs Moduli (GPa) = 90.92364 31.87160 72.65218
#
# Poissons Ratio (x) = 0.21007 0.32525
# Poissons Ratio (y) = 0.59929 -0.63198
# Poissons Ratio (z) = 0.40704 -0.27724
#
# Static dielectric constant tensor:
#      x y z
#    x 1.887090 0.000000 0.010480 
#    y 0.000000 2.565110 0.000000 
#    z 0.010480 0.000000 2.169610 
# 
# From -- ./inp_files/59945.got.cif
#   From: 2010.05.17/outbox.cif.g08.bks.cpg/sg15_30_cif.got.tgz:59945.got - 2010.06.03 18:47:42.
