data_PCOD9274459
_publ_section_title
;
Structure prediction by ZEFSAII (Michael W. Deem and Ramdas Pophale) SiO2 
 PCOD9274459
Probable space group: C 2/C
;
_chemical_formula_sum "Si O2"
_cell_formula_units_Z 24
_cell_length_a 12.046179
_cell_length_b 17.828276
_cell_length_c 8.754126
_cell_angle_alpha 90.000000
_cell_angle_beta 144.020022
_cell_angle_gamma 90.000000
_cell_volume 1104.539311
_symmetry_space_group_name_H-M "C 2/C"
_symmetry_group_IT_number 15
_symmetry_cell_setting 'monoclinic'
loop_
_space_group_symop_operation_xyz
x,y,z
-x,y,1/2-z
-x,-y,-z
x,-y,1/2+z
1/2+x,1/2+y,z
1/2-x,1/2+y,1/2-z
1/2-x,1/2-y,-z
1/2+x,1/2-y,1/2+z
loop_
_atom_site_type_symbol
_atom_site_label
_atom_site_fract_x
_atom_site_fract_y
_atom_site_fract_z
Si Si1 0.000000 0.779797 0.750000
Si Si2 0.500000 0.970431 0.250000
Si Si3 0.125593 0.057647 0.746332
Si Si4 0.653001 0.154739 0.732768
O O1 0.022216 0.726952 0.623819
O O2 0.815699 0.830643 0.540269
O O3 0.471205 0.916604 0.363322
O O4 0.691221 0.015010 0.485621
O O5 0.218214 0.129641 0.765069
O O6 0.000000 0.080371 0.750000
O O7 0.000000 0.000000 0.500000
#
# Coordination Sequence:
#
# PCOD9274459 Si02
#       4
#     4   4   8   8
#     4   9  20  40  64  86 124 173 220 250 302 379
#     4  11  22  40  66  98 128 161 210 268 324 375
#     4  12  24  40  64 100 132 163 206 264 328 376
#     4  10  20  38  63  91 121 167 214 257 306 375
#
# _framework density 21.728515999999999
#
# number of rings (size 3 to 8) (size 9 to 14) (size 15 to 20)
#    0.000    1.333    3.333    3.000    0.000    0.000 
#    0.000    1.667    0.000    0.000    0.000    0.000 
#    0.000    0.000    0.000    0.000    0.000    0.000 
#
# Total GULP energy -66818.628437 kJ/mol
# GULP energy per Si atom -5568.219036 kJ/mol
# Density = 2.167906 g / cm^3
# Si number density = 21.728516 Si / 1000 Ang^3
#
#
#
# Elastic Constant Matrix: (Units=GPa)
#
#
# Indices 1 2 3 4 5 6 
#
# 1 205.6136 44.2066 6.6035 0.0000 12.5074 0.0000
# 2 44.2066 67.4472 7.5997 0.0000 4.0260 0.0000
# 3 6.6035 7.5997 47.8379 0.0000 25.3344 0.0000
# 4 0.0000 0.0000 0.0000 15.1702 0.0000 11.8418
# 5 12.5074 4.0260 25.3344 0.0000 35.0536 0.0000
# 6 0.0000 0.0000 0.0000 11.8418 0.0000 18.9981
#
#
#
# Elastic Compliance Matrix: (Units=1/GPa)
#
#
# Indices 1 2 3 4 5 6 
#
# 1 0.005786 -0.003770 0.001076 0.000000 -0.002409 0.000000
# 2 -0.003770 0.017553 -0.003099 0.000000 0.001569 0.000000
# 3 0.001076 -0.003099 0.034447 0.000000 -0.024924 0.000000
# 4 0.000000 0.000000 0.000000 0.128387 0.000000 -0.080026
# 5 -0.002409 0.001569 -0.024924 0.000000 0.047221 0.000000
# 6 0.000000 0.000000 0.000000 -0.080026 0.000000 0.102518
#
#
# Mechanical properties :
#
#
# Convention : Reuss Voigt Hill
#
# Bulk Modulus (GPa) = 21.64460 48.63535 35.13998
# Shear Modulus (GPa) = 13.77800 31.34364 22.56082
#
# Velocity S-wave (km/s) = 2.52086 3.80216 3.22577
# Velocity P-wave (km/s) = 4.29604 6.45810 5.48466
#
# Compressibility (1/GPa) = 0.04620089
#
# Stress axis : x y z
#
# Youngs Moduli (GPa) = 172.83197 56.97131 29.02989
#
# Poissons Ratio (x) = 0.21476 -0.03124
# Poissons Ratio (y) = 0.65152 0.08996
# Poissons Ratio (z) = -0.18598 0.17655
#
# Static dielectric constant tensor:
#      x y z
#    x 1.924780 0.000000 -0.014240 
#    y 0.000000 1.846600 0.000000 
#    z -0.014240 0.000000 1.771730 
# 
# From -- ./inp_files/28279.got.cif
#   From: 2010.05.17/outbox.cif.g08.bks.cpg/sg15_15_cif.got.tgz:28279.got - 2010.06.03 18:47:42.
