data_PCOD9274401
_publ_section_title
;
Structure prediction by ZEFSAII (Michael W. Deem and Ramdas Pophale) SiO2 
 PCOD9274401
Probable space group: C 2/C
;
_chemical_formula_sum "Si O2"
_cell_formula_units_Z 64
_cell_length_a 10.014098
_cell_length_b 23.646304
_cell_length_c 13.379303
_cell_angle_alpha 90.000000
_cell_angle_beta 78.690967
_cell_angle_gamma 90.000000
_cell_volume 3106.656876
_symmetry_space_group_name_H-M "C 2/C"
_symmetry_group_IT_number 15
_symmetry_cell_setting 'monoclinic'
loop_
_space_group_symop_operation_xyz
x,y,z
-x,y,1/2-z
-x,-y,-z
x,-y,1/2+z
1/2+x,1/2+y,z
1/2-x,1/2+y,1/2-z
1/2-x,1/2-y,-z
1/2+x,1/2-y,1/2+z
loop_
_atom_site_type_symbol
_atom_site_label
_atom_site_fract_x
_atom_site_fract_y
_atom_site_fract_z
Si Si1 0.541554 0.702235 0.360771
Si Si2 0.587215 0.741042 0.915492
Si Si3 0.710776 0.729884 0.615660
Si Si4 0.727160 0.980825 0.203554
Si Si5 0.154853 0.139913 0.767304
Si Si6 0.530623 0.020391 0.387185
Si Si7 0.110836 0.357871 0.818961
Si Si8 0.884308 0.086922 0.185225
O O1 0.500000 0.703256 0.250000
O O2 0.450953 0.731643 0.461549
O O3 0.690529 0.730436 0.336345
O O4 0.556761 0.636782 0.392617
O O5 0.449208 0.738834 0.869092
O O6 0.664439 0.688331 0.852621
O O7 0.641261 0.804050 0.884771
O O8 0.750000 0.750000 0.500000
O O9 0.729845 0.667714 0.659444
O O10 0.780976 0.917515 0.200890
O O11 0.672793 0.997230 0.322209
O O12 0.594121 0.995053 0.158380
O O13 0.838419 0.026501 0.151721
O O14 0.000000 0.129630 0.750000
O O15 0.500000 0.000000 0.500000
O O16 0.539552 0.088299 0.382053
O O17 0.249022 0.383966 0.752472
O O18 0.000000 0.342903 0.750000
O O19 0.000000 0.076484 0.250000
#
# Coordination Sequence:
#
# PCOD9274401 Si02
#       8
#     8   8   8   8   8   8   8   8
#     4  10  21  39  56  89 131 160 210 262 321 390
#     4  10  21  37  64  94 119 167 217 260 319 385
#     4   9  19  36  60  88 122 163 210 253 313 383
#     4  10  21  43  64  88 131 161 208 271 318 373
#     4  10  20  39  62  94 132 162 209 264 319 388
#     4  10  22  42  65  98 117 165 222 260 317 381
#     4  11  19  40  71  89 121 167 216 267 314 384
#     4  10  20  38  63  86 122 169 206 252 320 383
#
# _framework density 20.600921
#
# number of rings (size 3 to 8) (size 9 to 14) (size 15 to 20)
#    0.000    2.000    2.500    3.000    0.000    2.000 
#   18.000    3.750    2.750    0.000    0.000    0.000 
#    0.000    0.000    0.000    0.000    0.000    0.000 
#
# Total GULP energy -178140.305974 kJ/mol
# GULP energy per Si atom -5566.884562 kJ/mol
# Density = 2.055403 g / cm^3
# Si number density = 20.600921 Si / 1000 Ang^3
#
#
#
# Elastic Constant Matrix: (Units=GPa)
#
#
# Indices 1 2 3 4 5 6 
#
# 1 49.2937 23.1850 10.3716 0.0000 14.0726 0.0000
# 2 23.1850 191.0846 55.4163 0.0000 -2.9986 0.0000
# 3 10.3716 55.4163 107.7797 0.0000 -7.2416 0.0000
# 4 0.0000 0.0000 0.0000 9.5299 0.0000 -8.3116
# 5 14.0726 -2.9986 -7.2416 0.0000 20.9194 0.0000
# 6 0.0000 0.0000 0.0000 -8.3116 0.0000 16.3832
#
#
#
# Elastic Compliance Matrix: (Units=1/GPa)
#
#
# Indices 1 2 3 4 5 6 
#
# 1 0.027954 -0.002980 -0.002508 0.000000 -0.020100 0.000000
# 2 -0.002980 0.006469 -0.002910 0.000000 0.001924 0.000000
# 3 -0.002508 -0.002910 0.011366 0.000000 0.005205 0.000000
# 4 0.000000 0.000000 0.000000 0.188208 0.000000 0.095482
# 5 -0.020100 0.001924 0.005205 0.000000 0.063402 0.000000
# 6 0.000000 0.000000 0.000000 0.095482 0.000000 0.109479
#
#
# Mechanical properties :
#
#
# Convention : Reuss Voigt Hill
#
# Bulk Modulus (GPa) = 34.49207 58.45598 46.47403
# Shear Modulus (GPa) = 11.53834 26.64550 19.09192
#
# Velocity S-wave (km/s) = 2.36919 3.60031 3.04756
# Velocity P-wave (km/s) = 4.92579 6.76165 5.91538
#
# Compressibility (1/GPa) = 0.02899217
#
# Stress axis : x y z
#
# Youngs Moduli (GPa) = 35.77275 154.58407 87.98539
#
# Poissons Ratio (x) = 0.46062 0.22071
# Poissons Ratio (y) = 0.10659 0.25604
# Poissons Ratio (z) = 0.08974 0.44985
#
# Static dielectric constant tensor:
#      x y z
#    x 1.718540 0.000000 0.066860 
#    y 0.000000 1.709500 0.000000 
#    z 0.066860 0.000000 1.681160 
# 
# From -- ./inp_files/137873.got.cif
#   From: 2010.05.17/outbox.cif.g08.bks.cpg/sg15_69_cif.got.tgz:137873.got - 2010.06.03 18:47:42.
