data_PCOD9274340
_publ_section_title
;
Structure prediction by ZEFSAII (Michael W. Deem and Ramdas Pophale) SiO2 
 PCOD9274340
Probable space group: C 2/C
;
_chemical_formula_sum "Si O2"
_cell_formula_units_Z 44
_cell_length_a 17.941987
_cell_length_b 13.833545
_cell_length_c 21.096745
_cell_angle_alpha 90.000000
_cell_angle_beta 162.037477
_cell_angle_gamma 90.000000
_cell_volume 1614.829180
_symmetry_space_group_name_H-M "C 2/C"
_symmetry_group_IT_number 15
_symmetry_cell_setting 'monoclinic'
loop_
_space_group_symop_operation_xyz
x,y,z
-x,y,1/2-z
-x,-y,-z
x,-y,1/2+z
1/2+x,1/2+y,z
1/2-x,1/2+y,1/2-z
1/2-x,1/2-y,-z
1/2+x,1/2-y,1/2+z
loop_
_atom_site_type_symbol
_atom_site_label
_atom_site_fract_x
_atom_site_fract_y
_atom_site_fract_z
Si Si1 0.988211 0.893261 0.606639
Si Si2 0.500000 0.500000 0.000000
Si Si3 0.500000 0.588440 0.250000
Si Si4 0.920812 0.675887 0.053007
Si Si5 0.221153 0.144318 0.763660
Si Si6 0.000000 0.671606 0.250000
Si Si7 0.520521 0.829952 0.154225
O O1 0.125278 0.932249 0.656345
O O2 0.001404 0.956296 0.680967
O O3 0.717500 0.882124 0.358062
O O4 0.062063 0.784732 0.685764
O O5 0.499759 0.413452 0.053402
O O6 0.750710 0.647647 0.456159
O O7 0.824142 0.617132 0.915121
O O8 0.718557 0.756048 0.908996
O O9 0.137389 0.745143 0.205067
O O10 0.952745 0.618171 0.145015
O O11 0.417321 0.133782 0.866196
#
# Coordination Sequence:
#
# PCOD9274340 Si02
#       7
#     8   4   4   8   8   4   8
#     4  11  23  41  65  98 133 174 225 285 338 409
#     4  10  24  42  60  88 138 174 216 272 344 410
#     4  12  24  40  71 105 132 178 232 292 334 394
#     4   9  17  33  64  90 125 166 224 276 323 394
#     4  10  20  38  62  93 131 177 221 279 333 406
#     4   8  16  32  57  97 114 158 220 276 316 378
#     4  11  22  38  69 102 131 173 234 278 332 400
#
# _framework density 27.247464999999998
#
# number of rings (size 3 to 8) (size 9 to 14) (size 15 to 20)
#    0.000    1.818    1.818    3.273    0.000    0.000 
#    0.000    9.091    8.000    0.000    0.000    0.000 
#    0.000    0.000    0.000    0.000    0.000    0.000 
#
# Total GULP energy -122471.623301 kJ/mol
# GULP energy per Si atom -5566.891968 kJ/mol
# Density = 2.718545 g / cm^3
# Si number density = 27.247465 Si / 1000 Ang^3
#
#
#
# Elastic Constant Matrix: (Units=GPa)
#
#
# Indices 1 2 3 4 5 6 
#
# 1 234.9993 34.2791 78.1442 -0.0412 -95.4592 -0.0164
# 2 34.2791 72.8718 26.4569 -0.0212 -4.4314 -0.0180
# 3 78.1442 26.4569 78.3836 0.0199 -31.7074 0.0091
# 4 -0.0412 -0.0212 0.0199 102.4121 0.0397 52.5566
# 5 -95.4592 -4.4314 -31.7074 0.0397 94.3021 0.0122
# 6 -0.0164 -0.0180 0.0091 52.5566 0.0122 45.7724
#
#
#
# Elastic Compliance Matrix: (Units=1/GPa)
#
#
# Indices 1 2 3 4 5 6 
#
# 1 0.009572 -0.001933 -0.005796 0.000002 0.007650 0.000000
# 2 -0.001933 0.016149 -0.004639 0.000002 -0.002758 0.000005
# 3 -0.005796 -0.004639 0.020417 -0.000008 0.000780 0.000001
# 4 0.000002 0.000002 -0.000008 0.023772 -0.000007 -0.027296
# 5 0.007650 -0.002758 0.000780 -0.000007 0.018481 0.000005
# 6 0.000000 0.000005 0.000001 -0.027296 0.000005 0.053189
#
#
# Mechanical properties :
#
#
# Convention : Reuss Voigt Hill
#
# Bulk Modulus (GPa) = 46.72473 73.77945 60.25209
# Shear Modulus (GPa) = 28.82682 64.98894 46.90788
#
# Velocity S-wave (km/s) = 3.25616 4.88908 4.15366
# Velocity P-wave (km/s) = 5.59663 7.68161 6.72047
#
# Compressibility (1/GPa) = 0.02140194
#
# Stress axis : x y z
#
# Youngs Moduli (GPa) = 104.47007 61.92462 48.97841
#
# Poissons Ratio (x) = 0.11972 0.28387
# Poissons Ratio (y) = 0.20198 0.22721
# Poissons Ratio (z) = 0.60549 0.28726
#
# Static dielectric constant tensor:
#      x y z
#    x 2.207730 0.000010 0.043380 
#    y 0.000010 2.161300 -0.000030 
#    z 0.043380 -0.000030 2.201950 
# 
# From -- ./inp_files/249690.got.cif
#   From: 2010.05.17/outbox.cif.g08.bks.cpg/sg15_125_cif.got.tgz:249690.got - 2010.06.03 18:47:42.
