data_PCOD9274237
_publ_section_title
;
Structure prediction by ZEFSAII (Michael W. Deem and Ramdas Pophale) SiO2 
 PCOD9274237
Probable space group: C 2/C
;
_chemical_formula_sum "Si O2"
_cell_formula_units_Z 64
_cell_length_a 10.996687
_cell_length_b 19.491336
_cell_length_c 23.949183
_cell_angle_alpha 90.000000
_cell_angle_beta 145.035787
_cell_angle_gamma 90.000000
_cell_volume 2941.696188
_symmetry_space_group_name_H-M "C 2/C"
_symmetry_group_IT_number 15
_symmetry_cell_setting 'monoclinic'
loop_
_space_group_symop_operation_xyz
x,y,z
-x,y,1/2-z
-x,-y,-z
x,-y,1/2+z
1/2+x,1/2+y,z
1/2-x,1/2+y,1/2-z
1/2-x,1/2-y,-z
1/2+x,1/2-y,1/2+z
loop_
_atom_site_type_symbol
_atom_site_label
_atom_site_fract_x
_atom_site_fract_y
_atom_site_fract_z
Si Si1 0.350753 0.309059 0.973459
Si Si2 0.078114 0.745129 0.165550
Si Si3 0.421991 0.848882 0.280138
Si Si4 0.890445 0.434352 0.553712
Si Si5 0.190322 0.879109 0.791868
Si Si6 0.145914 0.493509 0.755868
Si Si7 0.179130 0.176689 0.497056
Si Si8 0.419239 0.548041 0.106598
O O1 0.260586 0.375968 0.974346
O O2 0.481768 0.321114 0.966217
O O3 0.137172 0.265544 0.881485
O O4 0.496023 0.266512 0.072219
O O5 0.243359 0.803731 0.242464
O O6 0.206792 0.673689 0.213520
O O7 0.500000 0.819729 0.250000
O O8 0.337357 0.924635 0.237352
O O9 0.628473 0.853278 0.394869
O O10 0.752816 0.488855 0.467026
O O11 0.093476 0.403079 0.595966
O O12 0.021809 0.470946 0.653172
O O13 0.051533 0.941384 0.713418
O O14 0.000000 0.838985 0.750000
O O15 0.381419 0.468496 0.857672
O O16 0.000000 0.467302 0.750000
O O17 0.250000 0.250000 0.500000
O O18 0.153936 0.123459 0.437316
#
# Coordination Sequence:
#
# PCOD9274237 Si02
#       8
#     8   8   8   8   8   8   8   8
#     4  10  22  38  63  93 122 164 210 263 313 372
#     4  10  20  38  62  88 120 163 216 254 303 386
#     4  11  20  36  61  91 123 163 210 260 310 380
#     4  10  21  40  61  94 123 157 213 262 316 375
#     4  10  23  40  63  88 121 171 213 255 315 388
#     4  10  21  35  60  91 124 162 199 254 322 373
#     4  12  25  39  61  96 130 164 209 263 323 378
#     4  11  23  39  62  90 129 161 204 271 321 374
#
# _framework density 21.756155
#
# number of rings (size 3 to 8) (size 9 to 14) (size 15 to 20)
#    0.000    1.500    2.500    2.625    3.500    1.500 
#    0.000    4.375    5.500    0.000    0.000    0.000 
#    0.000    0.000    0.000    0.000    0.000    0.000 
#
# Total GULP energy -178323.789932 kJ/mol
# GULP energy per Si atom -5572.618435 kJ/mol
# Density = 2.170664 g / cm^3
# Si number density = 21.756155 Si / 1000 Ang^3
#
#
#
# Elastic Constant Matrix: (Units=GPa)
#
#
# Indices 1 2 3 4 5 6 
#
# 1 68.3486 19.8174 29.7115 -0.0002 24.2015 -0.0001
# 2 19.8174 99.9760 25.0104 -0.0001 15.2608 -0.0001
# 3 29.7115 25.0104 94.2211 -0.0003 24.3733 -0.0006
# 4 -0.0002 -0.0001 -0.0003 29.0905 -0.0003 4.3188
# 5 24.2015 15.2608 24.3733 -0.0003 32.3276 -0.0003
# 6 -0.0001 -0.0001 -0.0006 4.3188 -0.0003 16.4966
#
#
#
# Elastic Compliance Matrix: (Units=1/GPa)
#
#
# Indices 1 2 3 4 5 6 
#
# 1 0.020811 -0.001463 -0.002885 0.000000 -0.012714 0.000000
# 2 -0.001463 0.011169 -0.001768 0.000000 -0.002845 0.000000
# 3 -0.002885 -0.001768 0.013936 0.000000 -0.007512 0.000000
# 4 0.000000 0.000000 0.000000 0.035766 0.000000 -0.009363
# 5 -0.012714 -0.002845 -0.007512 0.000000 0.047458 0.000000
# 6 0.000000 0.000000 0.000000 -0.009363 0.000000 0.063070
#
#
# Mechanical properties :
#
#
# Convention : Reuss Voigt Hill
#
# Bulk Modulus (GPa) = 29.68743 45.73602 37.71172
# Shear Modulus (GPa) = 23.18371 28.11670 25.65020
#
# Velocity S-wave (km/s) = 3.26792 3.59884 3.43736
# Velocity P-wave (km/s) = 5.28339 6.19165 5.75547
#
# Compressibility (1/GPa) = 0.03368429
#
# Stress axis : x y z
#
# Youngs Moduli (GPa) = 48.05113 89.53555 71.75825
#
# Poissons Ratio (x) = 0.13096 0.20705
# Poissons Ratio (y) = 0.07028 0.12684
# Poissons Ratio (z) = 0.13865 0.15826
#
# Static dielectric constant tensor:
#      x y z
#    x 1.947660 0.000000 0.034830 
#    y 0.000000 1.689860 0.000000 
#    z 0.034830 0.000000 1.817780 
# 
# From -- ./inp_files/293789.got.cif
#   From: 2010.05.17/outbox.cif.g08.bks.cpg/sg15_147_cif.got.tgz:293789.got - 2010.06.03 18:47:42.
