data_PCOD9274168
_publ_section_title
;
Structure prediction by ZEFSAII (Michael W. Deem and Ramdas Pophale) SiO2 
 PCOD9274168
Probable space group: C 2/C
;
_chemical_formula_sum "Si O2"
_cell_formula_units_Z 56
_cell_length_a 5.328170
_cell_length_b 14.503546
_cell_length_c 33.405088
_cell_angle_alpha 90.000000
_cell_angle_beta 85.622905
_cell_angle_gamma 90.000000
_cell_volume 2573.927741
_symmetry_space_group_name_H-M "C 2/C"
_symmetry_group_IT_number 15
_symmetry_cell_setting 'monoclinic'
loop_
_space_group_symop_operation_xyz
x,y,z
-x,y,1/2-z
-x,-y,-z
x,-y,1/2+z
1/2+x,1/2+y,z
1/2-x,1/2+y,1/2-z
1/2-x,1/2-y,-z
1/2+x,1/2-y,1/2+z
loop_
_atom_site_type_symbol
_atom_site_label
_atom_site_fract_x
_atom_site_fract_y
_atom_site_fract_z
Si Si1 0.036555 0.647528 0.491894
Si Si2 0.862624 0.553272 0.638789
Si Si3 0.217552 0.016952 0.549978
Si Si4 0.384499 0.691167 0.557439
Si Si5 0.858089 0.833693 0.143452
Si Si6 0.760906 0.526128 0.226837
Si Si7 0.259933 0.246856 0.228437
O O1 0.253423 0.587473 0.466367
O O2 0.148870 0.689889 0.531053
O O3 0.942985 0.729937 0.464677
O O4 0.839179 0.574779 0.511528
O O5 0.842275 0.516486 0.593053
O O6 0.646714 0.632489 0.642124
O O7 0.789542 0.495390 0.679303
O O8 0.147926 0.586332 0.642508
O O9 0.976875 0.084413 0.558891
O O10 0.327940 0.721614 0.602764
O O11 0.789353 0.776522 0.182811
O O12 0.500000 0.492337 0.250000
O O13 0.757823 0.636528 0.230702
O O14 0.000000 0.492929 0.250000
O O15 0.500000 0.280790 0.250000
O O16 0.000000 0.281365 0.250000
#
# Coordination Sequence:
#
# PCOD9274168 Si02
#       7
#     8   8   8   8   8   8   8
#     4  10  20  38  62  82 121 166 202 250 314 358
#     4  11  23  39  61  90 124 154 202 255 301 361
#     4  10  21  37  59  88 121 158 208 253 303 367
#     4  10  21  37  59  88 121 158 208 253 303 367
#     4  11  23  39  61  90 124 154 202 255 301 361
#     4  10  22  40  62  87 121 158 200 246 301 371
#     4  10  22  40  62  87 121 158 200 246 301 371
#
# _framework density 21.756633000000001
#
# number of rings (size 3 to 8) (size 9 to 14) (size 15 to 20)
#    0.000    1.714    1.429    2.571    2.000    3.429 
#    0.000    0.000    0.000    0.000    0.000    0.000 
#    0.000    0.000    0.000    0.000    0.000    0.000 
#
# Total GULP energy -156048.733837 kJ/mol
# GULP energy per Si atom -5573.169066 kJ/mol
# Density = 2.170711 g / cm^3
# Si number density = 21.756633 Si / 1000 Ang^3
#
#
#
# Elastic Constant Matrix: (Units=GPa)
#
#
# Indices 1 2 3 4 5 6 
#
# 1 75.4300 15.2039 41.7948 0.0000 -5.8212 0.0000
# 2 15.2039 72.6193 34.0944 0.0000 -0.3155 0.0000
# 3 41.7948 34.0944 164.7971 0.0000 -4.9451 0.0000
# 4 0.0000 0.0000 0.0000 24.3793 0.0000 -4.9145
# 5 -5.8212 -0.3155 -4.9451 0.0000 34.1290 0.0000
# 6 0.0000 0.0000 0.0000 -4.9145 0.0000 18.0632
#
#
#
# Elastic Compliance Matrix: (Units=1/GPa)
#
#
# Indices 1 2 3 4 5 6 
#
# 1 0.015738 -0.001597 -0.003596 0.000000 0.002148 0.000000
# 2 -0.001597 0.015417 -0.002801 0.000000 -0.000536 0.000000
# 3 -0.003596 -0.002801 0.007573 0.000000 0.000458 0.000000
# 4 0.000000 0.000000 0.000000 0.043399 0.000000 0.011807
# 5 0.002148 -0.000536 0.000458 0.000000 0.029728 0.000000
# 6 0.000000 0.000000 0.000000 0.011807 0.000000 0.058574
#
#
# Mechanical properties :
#
#
# Convention : Reuss Voigt Hill
#
# Bulk Modulus (GPa) = 43.97521 55.00363 49.48942
# Shear Modulus (GPa) = 25.77352 30.09787 27.93569
#
# Velocity S-wave (km/s) = 3.44558 3.72343 3.58719
# Velocity P-wave (km/s) = 6.00712 6.61977 6.32088
#
# Compressibility (1/GPa) = 0.02274009
#
# Stress axis : x y z
#
# Youngs Moduli (GPa) = 63.54134 64.86181 132.04216
#
# Poissons Ratio (x) = 0.10359 0.47488
# Poissons Ratio (y) = 0.10148 0.36981
# Poissons Ratio (z) = 0.22852 0.18166
#
# Static dielectric constant tensor:
#      x y z
#    x 1.878200 0.000000 -0.035930 
#    y 0.000000 1.868360 0.000000 
#    z -0.035930 0.000000 1.791900 
# 
# From -- ./inp_files/305410.got.cif
#   From: 2010.05.17/outbox.cif.g08.bks.cpg/sg15_153_cif.got.tgz:305410.got - 2010.06.03 18:47:42.
