data_PCOD9274259
_publ_section_title
;
Structure prediction by ZEFSAII (Michael W. Deem and Ramdas Pophale) SiO2 
 PCOD9274259
Probable space group: C 2/C
;
_chemical_formula_sum "Si O2"
_cell_formula_units_Z 64
_cell_length_a 13.812843
_cell_length_b 12.810124
_cell_length_c 19.622945
_cell_angle_alpha 90.000000
_cell_angle_beta 74.277050
_cell_angle_gamma 90.000000
_cell_volume 3342.249825
_symmetry_space_group_name_H-M "C 2/C"
_symmetry_group_IT_number 15
_symmetry_cell_setting 'monoclinic'
loop_
_space_group_symop_operation_xyz
x,y,z
-x,y,1/2-z
-x,-y,-z
x,-y,1/2+z
1/2+x,1/2+y,z
1/2-x,1/2+y,1/2-z
1/2-x,1/2-y,-z
1/2+x,1/2-y,1/2+z
loop_
_atom_site_type_symbol
_atom_site_label
_atom_site_fract_x
_atom_site_fract_y
_atom_site_fract_z
Si Si1 0.115080 0.536963 0.972527
Si Si2 0.890544 0.174492 0.493607
Si Si3 0.183314 0.509657 0.682354
Si Si4 0.802502 0.737442 0.877653
Si Si5 0.975189 0.331146 0.827299
Si Si6 0.402048 0.733797 0.976519
Si Si7 0.290414 0.468817 0.532946
Si Si8 0.189455 0.418499 0.828732
O O1 0.182739 0.496852 0.022409
O O2 0.169471 0.494964 0.895467
O O3 0.117219 0.660674 0.978400
O O4 0.000000 0.500000 0.000000
O O5 0.880724 0.229144 0.421811
O O6 0.799915 0.214990 0.559541
O O7 0.993396 0.192727 0.512854
O O8 0.869949 0.051596 0.490346
O O9 0.167631 0.632084 0.668394
O O10 0.275769 0.475400 0.616375
O O11 0.206890 0.481875 0.755872
O O12 0.089370 0.435339 0.678488
O O13 0.773126 0.833266 0.833590
O O14 0.082232 0.360597 0.839105
O O15 0.000000 0.278501 0.750000
O O16 0.915583 0.265353 0.894865
O O17 0.319862 0.645647 0.003978
#
# Coordination Sequence:
#
# PCOD9274259 Si02
#       8
#     8   8   8   8   8   8   8   8
#     4  12  22  37  63  92 119 153 208 257 301 364
#     4  10  21  37  63  87 121 160 210 252 300 372
#     4  10  23  37  61  86 127 155 203 256 305 370
#     4  10  20  38  62  89 115 162 206 249 309 361
#     4  10  21  38  58  88 122 157 200 253 312 371
#     4  12  23  37  64  92 124 161 207 261 315 353
#     4  11  23  41  58  92 125 159 207 258 304 365
#     4  11  21  40  61  89 120 160 204 249 310 377
#
# _framework density 19.148778
#
# number of rings (size 3 to 8) (size 9 to 14) (size 15 to 20)
#    0.000    1.250    5.000    0.750    5.250    1.000 
#    2.250    0.000    0.000    0.000    0.000    0.000 
#    0.000    0.000    0.000    0.000    0.000    0.000 
#
# Total GULP energy -178642.944459 kJ/mol
# GULP energy per Si atom -5582.592014 kJ/mol
# Density = 1.910519 g / cm^3
# Si number density = 19.148778 Si / 1000 Ang^3
#
#
#
# Elastic Constant Matrix: (Units=GPa)
#
#
# Indices 1 2 3 4 5 6 
#
# 1 76.4094 27.6954 13.2196 0.0000 11.8523 0.0000
# 2 27.6954 126.7608 64.7685 0.0000 6.8900 0.0000
# 3 13.2196 64.7685 136.7193 0.0000 16.6156 0.0000
# 4 0.0000 0.0000 0.0000 32.7866 0.0000 -3.3652
# 5 11.8523 6.8900 16.6156 0.0000 21.2327 0.0000
# 6 0.0000 0.0000 0.0000 -3.3652 0.0000 22.8998
#
#
#
# Elastic Compliance Matrix: (Units=1/GPa)
#
#
# Indices 1 2 3 4 5 6 
#
# 1 0.015469 -0.003537 0.001204 0.000000 -0.008429 0.000000
# 2 -0.003537 0.011222 -0.005273 0.000000 0.002459 0.000000
# 3 0.001204 -0.005273 0.010575 0.000000 -0.007237 0.000000
# 4 0.000000 0.000000 0.000000 0.030967 0.000000 0.004551
# 5 -0.008429 0.002459 -0.007237 0.000000 0.056668 0.000000
# 6 0.000000 0.000000 0.000000 0.004551 0.000000 0.044337
#
#
# Mechanical properties :
#
#
# Convention : Reuss Voigt Hill
#
# Bulk Modulus (GPa) = 45.34189 61.25072 53.29630
# Shear Modulus (GPa) = 26.06857 30.99756 28.53306
#
# Velocity S-wave (km/s) = 3.69368 4.02776 3.86433
# Velocity P-wave (km/s) = 6.47465 7.32712 6.91404
#
# Compressibility (1/GPa) = 0.02205466
#
# Stress axis : x y z
#
# Youngs Moduli (GPa) = 64.64743 89.10803 94.55858
#
# Poissons Ratio (x) = 0.31516 -0.11387
# Poissons Ratio (y) = 0.22864 0.49863
# Poissons Ratio (z) = -0.07785 0.46989
#
# Static dielectric constant tensor:
#      x y z
#    x 1.686670 0.000000 0.007310 
#    y 0.000000 1.692330 0.000000 
#    z 0.007310 0.000000 1.685860 
# 
# From -- ./inp_files/243727.got.cif
#   From: 2010.05.17/outbox.cif.g08.bks.cpg/sg15_122_cif.got.tgz:243727.got - 2010.06.03 18:47:42.
