data_PCOD9274724
_publ_section_title
;
Structure prediction by ZEFSAII (Michael W. Deem and Ramdas Pophale) SiO2 
 PCOD9274724
Probable space group: C 2/C
;
_chemical_formula_sum "Si O2"
_cell_formula_units_Z 40
_cell_length_a 8.167309
_cell_length_b 6.824566
_cell_length_c 28.383148
_cell_angle_alpha 90.000000
_cell_angle_beta 84.616169
_cell_angle_gamma 90.000000
_cell_volume 1575.050383
_symmetry_space_group_name_H-M "C 2/C"
_symmetry_group_IT_number 15
_symmetry_cell_setting 'monoclinic'
loop_
_space_group_symop_operation_xyz
x,y,z
-x,y,1/2-z
-x,-y,-z
x,-y,1/2+z
1/2+x,1/2+y,z
1/2-x,1/2+y,1/2-z
1/2-x,1/2-y,-z
1/2+x,1/2-y,1/2+z
loop_
_atom_site_type_symbol
_atom_site_label
_atom_site_fract_x
_atom_site_fract_y
_atom_site_fract_z
Si Si1 0.259003 0.179088 0.381507
Si Si2 0.947516 0.796630 0.941621
Si Si3 0.774180 0.724440 0.853394
Si Si4 0.501913 0.079470 0.305550
Si Si5 0.073404 0.750799 0.031134
O O1 0.110278 0.286033 0.410713
O O2 0.373872 0.230581 0.334468
O O3 0.388482 0.138992 0.421059
O O4 0.177294 0.979347 0.364175
O O5 0.809429 0.791553 0.905511
O O6 0.941666 0.697505 0.993600
O O7 0.968088 0.026731 0.952818
O O8 0.675737 0.871512 0.823906
O O9 0.935516 0.634574 0.823331
O O10 0.500000 0.098106 0.250000
O O11 0.250000 0.750000 0.000000
#
# Coordination Sequence:
#
# PCOD9274724 Si02
#       5
#     8   8   8   8   8
#     4   9  21  40  62  96 133 176 226 283 343 420
#     4  10  20  38  64  96 137 185 227 280 351 423
#     4  10  24  42  68  95 132 176 226 283 347 426
#     4  10  24  47  66  99 129 171 239 294 362 420
#     4   9  19  35  61  99 140 181 227 280 347 427
#
# _framework density 25.396013
#
# number of rings (size 3 to 8) (size 9 to 14) (size 15 to 20)
#    1.200    1.200    0.000    1.200    5.600    2.400 
#    3.600   10.000    0.000    0.000    0.000    0.000 
#    0.000    0.000    0.000    0.000    0.000    0.000 
#
# Total GULP energy -111473.413329 kJ/mol
# GULP energy per Si atom -5573.670666 kJ/mol
# Density = 2.533821 g / cm^3
# Si number density = 25.396013 Si / 1000 Ang^3
#
#
#
# Elastic Constant Matrix: (Units=GPa)
#
#
# Indices 1 2 3 4 5 6 
#
# 1 88.9576 49.2991 46.3106 0.0000 11.2196 0.0000
# 2 49.2991 68.8318 49.1314 0.0000 11.4232 0.0000
# 3 46.3106 49.1314 203.9640 0.0000 0.3340 0.0000
# 4 0.0000 0.0000 0.0000 25.9312 0.0000 1.8504
# 5 11.2196 11.4232 0.3340 0.0000 34.5335 0.0000
# 6 0.0000 0.0000 0.0000 1.8504 0.0000 42.3864
#
#
#
# Elastic Compliance Matrix: (Units=1/GPa)
#
#
# Indices 1 2 3 4 5 6 
#
# 1 0.019039 -0.012324 -0.001351 0.000000 -0.002096 0.000000
# 2 -0.012324 0.026749 -0.003637 0.000000 -0.004809 0.000000
# 3 -0.001351 -0.003637 0.006083 0.000000 0.001583 0.000000
# 4 0.000000 0.000000 0.000000 0.038684 0.000000 -0.001689
# 5 -0.002096 -0.004809 0.001583 0.000000 0.031214 0.000000
# 6 0.000000 0.000000 0.000000 -0.001689 0.000000 0.023666
#
#
# Mechanical properties :
#
#
# Convention : Reuss Voigt Hill
#
# Bulk Modulus (GPa) = 57.98143 72.35952 65.17048
# Shear Modulus (GPa) = 26.90946 35.03771 30.97359
#
# Velocity S-wave (km/s) = 3.25867 3.71840 3.49610
# Velocity P-wave (km/s) = 6.08597 6.85490 6.48185
#
# Compressibility (1/GPa) = 0.01724690
#
# Stress axis : x y z
#
# Youngs Moduli (GPa) = 52.52489 37.38402 164.38990
#
# Poissons Ratio (x) = 0.46072 0.22204
# Poissons Ratio (y) = 0.64732 0.59795
# Poissons Ratio (z) = 0.07095 0.13598
#
# Static dielectric constant tensor:
#      x y z
#    x 2.122400 0.000000 0.003390 
#    y 0.000000 2.126340 0.000000 
#    z 0.003390 0.000000 1.964620 
# 
# From -- ./inp_files/262466.got.cif
#   From: 2010.05.17/outbox.cif.g08.bks.cpg/sg15_132_cif.got.tgz:262466.got - 2010.06.03 18:47:42.
