data_PCOD9274273
_publ_section_title
;
Structure prediction by ZEFSAII (Michael W. Deem and Ramdas Pophale) SiO2 
 PCOD9274273
Probable space group: C 2/C
;
_chemical_formula_sum "Si O2"
_cell_formula_units_Z 32
_cell_length_a 13.091320
_cell_length_b 7.260997
_cell_length_c 14.256950
_cell_angle_alpha 90.000000
_cell_angle_beta 65.006265
_cell_angle_gamma 90.000000
_cell_volume 1228.299217
_symmetry_space_group_name_H-M "C 2/C"
_symmetry_group_IT_number 15
_symmetry_cell_setting 'monoclinic'
loop_
_space_group_symop_operation_xyz
x,y,z
-x,y,1/2-z
-x,-y,-z
x,-y,1/2+z
1/2+x,1/2+y,z
1/2-x,1/2+y,1/2-z
1/2-x,1/2-y,-z
1/2+x,1/2-y,1/2+z
loop_
_atom_site_type_symbol
_atom_site_label
_atom_site_fract_x
_atom_site_fract_y
_atom_site_fract_z
Si Si1 0.166267 0.357445 0.282989
Si Si2 0.129038 0.293519 0.892536
Si Si3 0.493823 0.522789 0.362082
Si Si4 0.750604 0.939388 0.445211
O O1 0.114753 0.560470 0.311364
O O2 0.253688 0.373494 0.335622
O O3 0.247781 0.302722 0.166726
O O4 0.073926 0.201135 0.336156
O O5 0.037876 0.137910 0.913062
O O6 0.141035 0.428555 0.977933
O O7 0.500000 0.466062 0.250000
O O8 0.361771 0.547330 0.432326
O O9 0.750000 0.750000 0.500000
#
# Coordination Sequence:
#
# PCOD9274273 Si02
#       4
#     8   8   8   8
#     4  10  20  38  62  90 116 150 207 236 280 367
#     4  10  20  38  62  90 116 150 207 236 280 367
#     4  12  20  38  66  86 117 162 191 243 298 339
#     4  10  24  42  58  89 127 148 194 257 289 337
#
# _framework density 26.052282000000002
#
# number of rings (size 3 to 8) (size 9 to 14) (size 15 to 20)
#    1.500    0.000    7.500    0.000    0.000    3.000 
#    4.500    1.250    0.000    0.000    0.000    0.000 
#    0.000    0.000    0.000    0.000    0.000    0.000 
#
# Total GULP energy -89315.930305 kJ/mol
# GULP energy per Si atom -5582.245644 kJ/mol
# Density = 2.599299 g / cm^3
# Si number density = 26.052282 Si / 1000 Ang^3
#
#
#
# Elastic Constant Matrix: (Units=GPa)
#
#
# Indices 1 2 3 4 5 6 
#
# 1 140.1045 66.0912 17.1572 0.0000 16.3961 0.0000
# 2 66.0912 160.1213 30.5237 0.0000 14.3962 0.0000
# 3 17.1572 30.5237 52.7938 0.0000 5.3894 0.0000
# 4 0.0000 0.0000 0.0000 37.9368 0.0000 3.3082
# 5 16.3961 14.3962 5.3894 0.0000 28.8738 0.0000
# 6 0.0000 0.0000 0.0000 3.3082 0.0000 50.7976
#
#
#
# Elastic Compliance Matrix: (Units=1/GPa)
#
#
# Indices 1 2 3 4 5 6 
#
# 1 0.009209 -0.003360 -0.000701 0.000000 -0.003423 0.000000
# 2 -0.003360 0.008473 -0.003640 0.000000 -0.001637 0.000000
# 3 -0.000701 -0.003640 0.021457 0.000000 -0.001792 0.000000
# 4 0.000000 0.000000 0.000000 0.026510 0.000000 -0.001726
# 5 -0.003423 -0.001637 -0.001792 0.000000 0.037728 0.000000
# 6 0.000000 0.000000 0.000000 -0.001726 0.000000 0.019798
#
#
# Mechanical properties :
#
#
# Convention : Reuss Voigt Hill
#
# Bulk Modulus (GPa) = 42.12654 64.50710 53.31682
# Shear Modulus (GPa) = 34.13229 39.47147 36.80188
#
# Velocity S-wave (km/s) = 3.62352 3.89663 3.76256
# Velocity P-wave (km/s) = 5.80617 6.71263 6.27579
#
# Compressibility (1/GPa) = 0.02373801
#
# Stress axis : x y z
#
# Youngs Moduli (GPa) = 108.59169 118.02125 46.60534
#
# Poissons Ratio (x) = 0.39651 0.03266
# Poissons Ratio (y) = 0.36483 0.16964
# Poissons Ratio (z) = 0.07610 0.42958
#
# Static dielectric constant tensor:
#      x y z
#    x 1.947030 0.000000 -0.037990 
#    y 0.000000 2.068770 0.000000 
#    z -0.037990 0.000000 2.196640 
# 
# From -- ./inp_files/102203.got.cif
#   From: 2010.05.17/outbox.cif.g08.bks.cpg/sg15_52_cif.got.tgz:102203.got - 2010.06.03 18:47:42.
