data_PCOD9274045
_publ_section_title
;
Structure prediction by ZEFSAII (Michael W. Deem and Ramdas Pophale) SiO2 
 PCOD9274045
Probable space group: C 2/C
;
_chemical_formula_sum "Si O2"
_cell_formula_units_Z 60
_cell_length_a 27.522303
_cell_length_b 21.239111
_cell_length_c 8.535224
_cell_angle_alpha 90.000000
_cell_angle_beta 143.729493
_cell_angle_gamma 90.000000
_cell_volume 2951.636754
_symmetry_space_group_name_H-M "C 2/C"
_symmetry_group_IT_number 15
_symmetry_cell_setting 'monoclinic'
loop_
_space_group_symop_operation_xyz
x,y,z
-x,y,1/2-z
-x,-y,-z
x,-y,1/2+z
1/2+x,1/2+y,z
1/2-x,1/2+y,1/2-z
1/2-x,1/2-y,-z
1/2+x,1/2-y,1/2+z
loop_
_atom_site_type_symbol
_atom_site_label
_atom_site_fract_x
_atom_site_fract_y
_atom_site_fract_z
Si Si1 0.438500 0.012569 0.699168
Si Si2 0.322330 0.434282 0.553205
Si Si3 0.333176 0.216581 0.648328
Si Si4 0.948708 0.846567 0.393928
Si Si5 0.869908 0.181788 0.002006
Si Si6 0.660143 0.068422 0.793041
Si Si7 0.083718 0.035784 0.899539
Si Si8 0.000000 0.759185 0.250000
O O1 0.500000 0.053768 0.750000
O O2 0.362899 0.042133 0.595913
O O3 0.408140 0.954077 0.512988
O O4 0.500000 0.000000 0.000000
O O5 0.310564 0.369126 0.429658
O O6 0.240867 0.459434 0.423110
O O7 0.359697 0.482199 0.525147
O O8 0.380821 0.427464 0.857328
O O9 0.250000 0.250000 0.500000
O O10 0.348110 0.250376 0.518174
O O11 0.322631 0.141834 0.633406
O O12 0.421920 0.225757 0.965626
O O13 0.880895 0.825219 0.344590
O O14 0.932510 0.915447 0.282805
O O15 0.954317 0.801121 0.260490
O O16 0.039800 0.839947 0.702936
O O17 0.000000 0.006948 0.750000
#
# Coordination Sequence:
#
# PCOD9274045 Si02
#       8
#     8   8   8   8   8   8   8   4
#     4   9  21  43  70  97 123 161 219 283 349 409
#     4  12  23  35  58  88 135 171 230 271 341 393
#     4  11  23  43  70  95 136 182 227 273 350 415
#     4  10  20  38  61  85 132 169 233 277 328 394
#     4  10  21  39  58  91 127 178 219 285 320 409
#     4  11  23  43  68  96 135 170 216 288 350 406
#     4  12  22  35  57  90 126 188 229 276 326 396
#     4  10  22  42  66  96 128 182 230 278 342 414
#
# _framework density 20.327705999999999
#
# number of rings (size 3 to 8) (size 9 to 14) (size 15 to 20)
#    0.000    1.333    3.333    2.800    4.667    0.000 
#    4.800    0.667    0.000    0.000    0.000    0.000 
#    0.000    0.000    0.000    0.000    0.000    0.000 
#
# Total GULP energy -167021.473674 kJ/mol
# GULP energy per Si atom -5567.382456 kJ/mol
# Density = 2.028144 g / cm^3
# Si number density = 20.327706 Si / 1000 Ang^3
#
#
#
# Elastic Constant Matrix: (Units=GPa)
#
#
# Indices 1 2 3 4 5 6 
#
# 1 198.3265 53.3867 26.9149 0.0000 -3.0772 0.0000
# 2 53.3867 92.1630 8.9803 0.0000 -8.0954 0.0000
# 3 26.9149 8.9803 43.7692 0.0000 0.9029 0.0000
# 4 0.0000 0.0000 0.0000 -2.9132 0.0000 4.7497
# 5 -3.0772 -8.0954 0.9029 0.0000 36.9519 0.0000
# 6 0.0000 0.0000 0.0000 4.7497 0.0000 29.4851
#
#
#
# Elastic Compliance Matrix: (Units=1/GPa)
#
#
# Indices 1 2 3 4 5 6 
#
# 1 0.006394 -0.003401 -0.003231 0.000000 -0.000134 0.000000
# 2 -0.003401 0.013113 -0.000653 0.000000 0.002605 0.000000
# 3 -0.003231 -0.000653 0.024989 0.000000 -0.001023 0.000000
# 4 0.000000 0.000000 0.000000 -0.271861 0.000000 0.043794
# 5 -0.000134 0.002605 -0.001023 0.000000 0.027647 0.000000
# 6 0.000000 0.000000 0.000000 0.043794 0.000000 0.026861
#
#
# Mechanical properties :
#
#
# Convention : Reuss Voigt Hill
#
# Bulk Modulus (GPa) = 33.41580 56.98028 45.19804
# Shear Modulus (GPa) = -33.71274 29.03655 -2.33809
#
# Velocity S-wave (km/s) = -4.07684 3.78355 -1.07364
# Velocity P-wave (km/s) = 2.38466 6.86867 4.55478
#
# Compressibility (1/GPa) = 0.02992596
#
# Stress axis : x y z
#
# Youngs Moduli (GPa) = 156.39462 76.26175 40.01715
#
# Poissons Ratio (x) = 0.25935 0.12931
# Poissons Ratio (y) = 0.53186 0.02613
# Poissons Ratio (z) = 0.50538 0.04979
#
# Static dielectric constant tensor:
#      x y z
#    x 1.741380 0.000000 0.052580 
#    y 0.000000 1.730870 0.000000 
#    z 0.052580 0.000000 1.810340 
# 
# From -- ./inp_files/67547.got.cif
#   From: 2010.05.17/outbox.cif.g08.bks.cpg/sg15_34_cif.got.tgz:67547.got - 2010.06.03 18:47:42.
