data_PCOD9274871
_publ_section_title
;
Structure prediction by ZEFSAII (Michael W. Deem and Ramdas Pophale) SiO2 
 PCOD9274871
Probable space group: C 2/C
;
_chemical_formula_sum "Si O2"
_cell_formula_units_Z 44
_cell_length_a 28.195987
_cell_length_b 13.659322
_cell_length_c 15.341832
_cell_angle_alpha 90.000000
_cell_angle_beta 17.287222
_cell_angle_gamma 90.000000
_cell_volume 1755.847724
_symmetry_space_group_name_H-M "C 2/C"
_symmetry_group_IT_number 15
_symmetry_cell_setting 'monoclinic'
loop_
_space_group_symop_operation_xyz
x,y,z
-x,y,1/2-z
-x,-y,-z
x,-y,1/2+z
1/2+x,1/2+y,z
1/2-x,1/2+y,1/2-z
1/2-x,1/2-y,-z
1/2+x,1/2-y,1/2+z
loop_
_atom_site_type_symbol
_atom_site_label
_atom_site_fract_x
_atom_site_fract_y
_atom_site_fract_z
Si Si1 0.839786 0.423623 0.465931
Si Si2 0.000000 0.269411 0.750000
Si Si3 0.436887 0.258974 0.697921
Si Si4 0.477583 0.347579 0.117353
Si Si5 0.597673 0.050977 0.976948
Si Si6 0.896755 0.965861 0.845638
O O1 0.949854 0.333180 0.239118
O O2 0.847056 0.469978 0.549879
O O3 0.661454 0.381445 0.778712
O O4 0.916197 0.516225 0.278765
O O5 0.058790 0.203475 0.726391
O O6 0.112500 0.345677 0.500741
O O7 0.544877 0.269682 0.421431
O O8 0.464982 0.362042 0.695756
O O9 0.250000 0.250000 0.000000
O O10 0.399101 0.453560 0.266030
O O11 0.714604 0.051324 0.691908
O O12 0.000000 0.995946 0.750000
#
# Coordination Sequence:
#
# PCOD9274871 Si02
#       6
#     8   4   8   8   8   8
#     4   9  19  38  60  89 123 161 206 254 312 367
#     4  10  20  38  66  86 122 166 206 250 324 364
#     4  10  23  40  64  92 128 168 205 266 318 368
#     4  11  20  42  62  90 125 164 212 257 313 377
#     4  10  21  38  61  95 124 164 209 262 306 375
#     4  12  23  39  66  94 125 167 215 257 313 378
#
# _framework density 25.059121000000001
#
# number of rings (size 3 to 8) (size 9 to 14) (size 15 to 20)
#    0.000    1.818    2.727    2.727    2.545    0.000 
#    0.000   15.455    0.000    0.000    0.000    0.000 
#    0.000    0.000    0.000    0.000    0.000    0.000 
#
# Total GULP energy -122604.870440 kJ/mol
# GULP energy per Si atom -5572.948656 kJ/mol
# Density = 2.500208 g / cm^3
# Si number density = 25.059121 Si / 1000 Ang^3
#
#
#
# Elastic Constant Matrix: (Units=GPa)
#
#
# Indices 1 2 3 4 5 6 
#
# 1 66.2003 19.8788 9.8802 -0.0003 9.8131 0.0003
# 2 19.8788 114.6749 13.4899 -0.0004 15.7874 0.0005
# 3 9.8802 13.4899 96.5154 -0.0003 22.1389 0.0004
# 4 -0.0003 -0.0004 -0.0003 28.2994 0.0002 15.2016
# 5 9.8131 15.7874 22.1389 0.0002 38.9933 -0.0003
# 6 0.0003 0.0005 0.0004 15.2016 -0.0003 1.0038
#
#
#
# Elastic Compliance Matrix: (Units=1/GPa)
#
#
# Indices 1 2 3 4 5 6 
#
# 1 0.016330 -0.002369 -0.000710 0.000000 -0.002747 0.000001
# 2 -0.002369 0.009600 -0.000396 0.000000 -0.003066 0.000001
# 3 -0.000710 -0.000396 0.011970 -0.000001 -0.006457 0.000001
# 4 0.000000 0.000000 -0.000001 -0.004953 0.000001 0.075003
# 5 -0.002747 -0.003066 -0.006457 0.000001 0.031244 -0.000003
# 6 0.000001 0.000001 0.000001 0.075003 -0.000003 -0.139625
#
#
# Mechanical properties :
#
#
# Convention : Reuss Voigt Hill
#
# Bulk Modulus (GPa) = 32.31111 40.43204 36.37157
# Shear Modulus (GPa) = -85.96073 29.26876 -28.34599
#
# Velocity S-wave (km/s) = -5.86324 3.42129 -3.36693
# Velocity P-wave (km/s) = 5.73715 5.63708 0.75440
#
# Compressibility (1/GPa) = 0.03094911
#
# Stress axis : x y z
#
# Youngs Moduli (GPa) = 61.23579 104.17087 83.54038
#
# Poissons Ratio (x) = 0.24679 0.05935
# Poissons Ratio (y) = 0.14507 0.03308
# Poissons Ratio (z) = 0.04351 0.04125
#
# Static dielectric constant tensor:
#      x y z
#    x 2.108600 0.000000 -0.098830 
#    y 0.000000 2.015860 0.000000 
#    z -0.098830 0.000000 2.023940 
# 
# From -- ./inp_files/182222.got.cif
#   From: 2010.05.17/outbox.cif.g08.bks.cpg/sg15_92_cif.got.tgz:182222.got - 2010.06.03 18:47:42.
