data_PCOD9274543
_publ_section_title
;
Structure prediction by ZEFSAII (Michael W. Deem and Ramdas Pophale) SiO2 
 PCOD9274543
Probable space group: C 2/C
;
_chemical_formula_sum "Si O2"
_cell_formula_units_Z 56
_cell_length_a 17.530543
_cell_length_b 17.860114
_cell_length_c 15.448438
_cell_angle_alpha 90.000000
_cell_angle_beta 27.312902
_cell_angle_gamma 90.000000
_cell_volume 2219.394820
_symmetry_space_group_name_H-M "C 2/C"
_symmetry_group_IT_number 15
_symmetry_cell_setting 'monoclinic'
loop_
_space_group_symop_operation_xyz
x,y,z
-x,y,1/2-z
-x,-y,-z
x,-y,1/2+z
1/2+x,1/2+y,z
1/2-x,1/2+y,1/2-z
1/2-x,1/2-y,-z
1/2+x,1/2-y,1/2+z
loop_
_atom_site_type_symbol
_atom_site_label
_atom_site_fract_x
_atom_site_fract_y
_atom_site_fract_z
Si Si1 0.723404 0.662608 0.397685
Si Si2 0.305607 0.992123 0.721145
Si Si3 0.500000 0.585672 0.750000
Si Si4 0.166492 0.653674 0.539762
Si Si5 0.877648 0.226126 0.174466
Si Si6 0.000000 0.638248 0.250000
Si Si7 0.706659 0.012515 0.954635
Si Si8 0.206337 0.142185 0.905702
O O1 0.776440 0.588274 0.291541
O O2 0.556763 0.638782 0.615235
O O3 0.683960 0.720521 0.362053
O O4 0.860561 0.680450 0.333649
O O5 0.236948 0.056209 0.852748
O O6 0.500000 0.000000 0.500000
O O7 0.219343 0.005861 0.715658
O O8 0.350888 0.532160 0.875146
O O9 0.246563 0.692190 0.375960
O O10 0.128857 0.567829 0.552794
O O11 0.295934 0.653441 0.488977
O O12 0.000000 0.687618 0.750000
O O13 0.869213 0.313806 0.205396
O O14 0.045648 0.179355 0.022143
O O15 0.915784 0.581767 0.404471
#
# Coordination Sequence:
#
# PCOD9274543 Si02
#       8
#     8   8   4   8   8   4   8   8
#     4  11  24  44  73 105 142 185 244 304 370 431
#     4  12  24  42  74 107 141 186 247 302 363 429
#     4  10  24  38  62 101 141 176 242 304 360 422
#     4  12  24  42  69 105 150 194 242 290 362 440
#     4  12  28  47  73 105 150 197 242 297 371 443
#     4  10  20  38  64 103 135 184 230 304 356 424
#     4  11  21  36  64  99 143 180 234 294 358 415
#     4  12  28  46  72 105 150 196 241 297 363 438
#
# _framework density 25.232102999999999
#
# number of rings (size 3 to 8) (size 9 to 14) (size 15 to 20)
#    0.000    0.571    3.571    5.143    6.000    1.143 
#    0.000    0.000    0.000   14.571    0.000    0.000 
#    0.000    0.000    0.000    0.000    0.000    0.000 
#
# Total GULP energy -156860.619266 kJ/mol
# GULP energy per Si atom -5602.164974 kJ/mol
# Density = 2.517467 g / cm^3
# Si number density = 25.232103 Si / 1000 Ang^3
#
#
#
# Elastic Constant Matrix: (Units=GPa)
#
#
# Indices 1 2 3 4 5 6 
#
# 1 116.9631 12.2479 3.7667 -0.0052 25.9479 0.0047
# 2 12.2479 38.0715 4.7534 -0.0009 4.0787 0.0019
# 3 3.7667 4.7534 90.0079 0.0055 16.2436 0.0013
# 4 -0.0052 -0.0009 0.0055 20.2418 0.0004 7.8108
# 5 25.9479 4.0787 16.2436 0.0004 49.1389 -0.0031
# 6 0.0047 0.0019 0.0013 7.8108 -0.0031 25.0872
#
#
#
# Elastic Compliance Matrix: (Units=1/GPa)
#
#
# Indices 1 2 3 4 5 6 
#
# 1 0.009983 -0.002732 0.000677 0.000004 -0.005269 -0.000004
# 2 -0.002732 0.027346 -0.001255 0.000002 -0.000412 -0.000002
# 3 0.000677 -0.001255 0.011904 -0.000003 -0.004189 0.000000
# 4 0.000004 0.000002 -0.000003 0.056149 -0.000003 -0.017482
# 5 -0.005269 -0.000412 -0.004189 -0.000003 0.024551 0.000005
# 6 -0.000004 -0.000002 0.000000 -0.017482 0.000005 0.045304
#
#
# Mechanical properties :
#
#
# Convention : Reuss Voigt Hill
#
# Bulk Modulus (GPa) = 23.46688 31.84206 27.65447
# Shear Modulus (GPa) = 25.50233 33.84520 29.67376
#
# Velocity S-wave (km/s) = 3.18261 3.66642 3.43305
# Velocity P-wave (km/s) = 4.77765 5.52907 5.16704
#
# Compressibility (1/GPa) = 0.04261325
#
# Stress axis : x y z
#
# Youngs Moduli (GPa) = 100.17272 36.56825 84.00542
#
# Poissons Ratio (x) = 0.09989 -0.05690
# Poissons Ratio (y) = 0.27364 0.10546
# Poissons Ratio (z) = -0.06785 0.04591
#
# Static dielectric constant tensor:
#      x y z
#    x 2.132120 -0.000010 -0.051650 
#    y -0.000010 1.985620 0.000010 
#    z -0.051650 0.000010 1.997690 
# 
# From -- ./inp_files/163801.got.cif
#   From: 2010.05.17/outbox.cif.g08.bks.cpg/sg15_82_cif.got.tgz:163801.got - 2010.06.03 18:47:42.
