data_PCOD9274693
_publ_section_title
;
Structure prediction by ZEFSAII (Michael W. Deem and Ramdas Pophale) SiO2 
 PCOD9274693
Probable space group: C 2/C
;
_chemical_formula_sum "Si O2"
_cell_formula_units_Z 56
_cell_length_a 17.301142
_cell_length_b 8.055385
_cell_length_c 19.209321
_cell_angle_alpha 90.000000
_cell_angle_beta 125.092657
_cell_angle_gamma 90.000000
_cell_volume 2190.508707
_symmetry_space_group_name_H-M "C 2/C"
_symmetry_group_IT_number 15
_symmetry_cell_setting 'monoclinic'
loop_
_space_group_symop_operation_xyz
x,y,z
-x,y,1/2-z
-x,-y,-z
x,-y,1/2+z
1/2+x,1/2+y,z
1/2-x,1/2+y,1/2-z
1/2-x,1/2-y,-z
1/2+x,1/2-y,1/2+z
loop_
_atom_site_type_symbol
_atom_site_label
_atom_site_fract_x
_atom_site_fract_y
_atom_site_fract_z
Si Si1 0.092776 0.449133 0.763105
Si Si2 0.832809 0.591723 0.826370
Si Si3 0.841345 0.400813 0.969523
Si Si4 0.238828 0.405569 0.944719
Si Si5 0.628083 0.471975 0.688603
Si Si6 0.371171 0.677821 0.168496
Si Si7 0.933988 0.079713 0.047536
O O1 0.102385 0.464958 0.685637
O O2 0.181984 0.365163 0.845797
O O3 0.097761 0.642435 0.789163
O O4 0.000000 0.375374 0.750000
O O5 0.845971 0.540345 0.912954
O O6 0.727401 0.566977 0.738837
O O7 0.856861 0.781824 0.826769
O O8 0.741588 0.313085 0.900143
O O9 0.923285 0.263579 0.009030
O O10 0.823941 0.472207 0.038086
O O11 0.341409 0.476459 0.979247
O O12 0.250000 0.250000 0.000000
O O13 0.608838 0.456158 0.761319
O O14 0.533278 0.517445 0.597196
O O15 0.415997 0.622284 0.119763
#
# Coordination Sequence:
#
# PCOD9274693 Si02
#       7
#     8   8   8   8   8   8   8
#     4  11  21  41  65  91 122 170 210 259 329 393
#     4  10  24  41  62  92 133 169 217 273 325 387
#     4  10  20  38  64  94 126 169 216 268 316 382
#     4  11  24  41  63  97 138 165 210 277 330 380
#     4  10  22  39  63  92 128 172 212 267 323 384
#     4   9  16  35  65  91 118 156 214 262 300 381
#     4  11  19  40  67  95 121 168 225 259 320 387
#
# _framework density 25.564836
#
# number of rings (size 3 to 8) (size 9 to 14) (size 15 to 20)
#    0.000    1.714    2.857    3.000    2.000    0.571 
#    2.571    0.714    0.000    0.000    0.000    0.000 
#    0.000    0.000    0.000    0.000    0.000    0.000 
#
# Total GULP energy -156734.005871 kJ/mol
# GULP energy per Si atom -5597.643067 kJ/mol
# Density = 2.550665 g / cm^3
# Si number density = 25.564836 Si / 1000 Ang^3
#
#
#
# Elastic Constant Matrix: (Units=GPa)
#
#
# Indices 1 2 3 4 5 6 
#
# 1 82.3259 8.3164 25.3362 0.0000 7.0141 0.0000
# 2 8.3164 46.9331 2.4463 0.0000 -3.6253 0.0000
# 3 25.3362 2.4463 75.2669 0.0000 -10.1655 0.0000
# 4 0.0000 0.0000 0.0000 18.8426 0.0000 -12.6644
# 5 7.0141 -3.6253 -10.1655 0.0000 39.1514 0.0000
# 6 0.0000 0.0000 0.0000 -12.6644 0.0000 20.3395
#
#
#
# Elastic Compliance Matrix: (Units=1/GPa)
#
#
# Indices 1 2 3 4 5 6 
#
# 1 0.014410 -0.002600 -0.005334 0.000000 -0.004207 0.000000
# 2 -0.002600 0.021944 0.000518 0.000000 0.002632 0.000000
# 3 -0.005334 0.000518 0.015753 0.000000 0.005094 0.000000
# 4 0.000000 0.000000 0.000000 0.091264 0.000000 0.056825
# 5 -0.004207 0.002632 0.005094 0.000000 0.027862 0.000000
# 6 0.000000 0.000000 0.000000 0.056825 0.000000 0.084547
#
#
# Mechanical properties :
#
#
# Convention : Reuss Voigt Hill
#
# Bulk Modulus (GPa) = 26.82941 30.74706 28.78824
# Shear Modulus (GPa) = 17.66547 26.89517 22.28032
#
# Velocity S-wave (km/s) = 2.63155 3.24703 2.95536
# Velocity P-wave (km/s) = 4.44419 5.10988 4.78862
#
# Compressibility (1/GPa) = 0.03727253
#
# Stress axis : x y z
#
# Youngs Moduli (GPa) = 69.39803 45.57050 63.48082
#
# Poissons Ratio (x) = 0.11850 0.33862
# Poissons Ratio (y) = 0.18046 -0.03286
# Poissons Ratio (z) = 0.37019 -0.02359
#
# Static dielectric constant tensor:
#      x y z
#    x 2.088700 0.000000 0.015220 
#    y 0.000000 1.992000 0.000000 
#    z 0.015220 0.000000 1.995120 
# 
# From -- ./inp_files/209638.got.cif
#   From: 2010.05.17/outbox.cif.g08.bks.cpg/sg15_105_cif.got.tgz:209638.got - 2010.06.03 18:47:42.
