data_PCOD9274744
_publ_section_title
;
Structure prediction by ZEFSAII (Michael W. Deem and Ramdas Pophale) SiO2 
 PCOD9274744
Probable space group: C 2/C
;
_chemical_formula_sum "Si O2"
_cell_formula_units_Z 56
_cell_length_a 24.845575
_cell_length_b 13.815897
_cell_length_c 14.861520
_cell_angle_alpha 90.000000
_cell_angle_beta 27.439287
_cell_angle_gamma 90.000000
_cell_volume 2350.778957
_symmetry_space_group_name_H-M "C 2/C"
_symmetry_group_IT_number 15
_symmetry_cell_setting 'monoclinic'
loop_
_space_group_symop_operation_xyz
x,y,z
-x,y,1/2-z
-x,-y,-z
x,-y,1/2+z
1/2+x,1/2+y,z
1/2-x,1/2+y,1/2-z
1/2-x,1/2-y,-z
1/2+x,1/2-y,1/2+z
loop_
_atom_site_type_symbol
_atom_site_label
_atom_site_fract_x
_atom_site_fract_y
_atom_site_fract_z
Si Si1 0.489059 0.061072 0.372081
Si Si2 0.757662 0.277716 0.386664
Si Si3 0.448021 0.282295 0.419941
Si Si4 0.326569 0.232739 0.166326
Si Si5 0.667739 0.032098 0.254970
Si Si6 0.882910 0.035206 0.365789
Si Si7 0.470298 0.353645 0.564969
O O1 0.500000 0.034353 0.250000
O O2 0.507603 0.177323 0.348803
O O3 0.586556 0.009432 0.289260
O O4 0.369123 0.034055 0.603360
O O5 0.750000 0.250000 0.500000
O O6 0.673744 0.222323 0.441653
O O7 0.710543 0.385694 0.455141
O O8 0.889408 0.243146 0.175063
O O9 0.500000 0.316564 0.250000
O O10 0.311184 0.256528 0.612079
O O11 0.473497 0.369849 0.453327
O O12 0.368522 0.136954 0.152123
O O13 0.405999 0.321909 0.079102
O O14 0.797255 0.051116 0.020805
O O15 0.910559 0.070670 0.222309
O O16 0.000000 0.041411 0.250000
#
# Coordination Sequence:
#
# PCOD9274744 Si02
#       7
#     8   8   8   8   8   8   8
#     4  10  23  44  66  94 133 188 228 280 353 415
#     4   9  20  36  62  95 131 169 233 274 334 405
#     4  10  22  42  66  92 131 174 239 283 334 420
#     4  11  21  38  65  98 129 174 230 285 334 402
#     4  11  24  41  66  99 145 174 228 291 349 415
#     4  11  22  39  66 100 138 184 217 290 360 407
#     4  10  20  38  64  99 126 176 235 277 341 412
#
# _framework density 23.821891999999998
#
# number of rings (size 3 to 8) (size 9 to 14) (size 15 to 20)
#    0.000    1.714    2.857    1.714    2.000    4.571 
#    2.571    0.000    0.000    9.429    0.000    0.000 
#    0.000    0.000    0.000    0.000    0.000    0.000 
#
# Total GULP energy -155912.316776 kJ/mol
# GULP energy per Si atom -5568.297028 kJ/mol
# Density = 2.376767 g / cm^3
# Si number density = 23.821892 Si / 1000 Ang^3
#
#
#
# Elastic Constant Matrix: (Units=GPa)
#
#
# Indices 1 2 3 4 5 6 
#
# 1 149.4309 1.4358 68.2033 0.0000 31.2283 0.0000
# 2 1.4358 41.5723 13.4855 0.0000 8.9043 0.0000
# 3 68.2033 13.4855 114.8276 0.0000 16.6079 0.0000
# 4 0.0000 0.0000 0.0000 -1.2651 0.0000 -24.8089
# 5 31.2283 8.9043 16.6079 0.0000 57.1840 0.0000
# 6 0.0000 0.0000 0.0000 -24.8089 0.0000 4.1407
#
#
#
# Elastic Compliance Matrix: (Units=1/GPa)
#
#
# Indices 1 2 3 4 5 6 
#
# 1 0.010164 0.002414 -0.005703 0.000000 -0.004270 0.000000
# 2 0.002414 0.026145 -0.003888 0.000000 -0.004260 0.000000
# 3 -0.005703 -0.003888 0.012541 0.000000 0.000077 0.000000
# 4 0.000000 0.000000 0.000000 -0.006671 0.000000 -0.039968
# 5 -0.004270 -0.004260 0.000077 0.000000 0.020460 0.000000
# 6 0.000000 0.000000 0.000000 -0.039968 0.000000 0.002038
#
#
# Mechanical properties :
#
#
# Convention : Reuss Voigt Hill
#
# Bulk Modulus (GPa) = 28.98907 52.45335 40.72121
# Shear Modulus (GPa) = 55.22952 26.85899 41.04425
#
# Velocity S-wave (km/s) = 4.82024 3.36146 4.15536
# Velocity P-wave (km/s) = 6.57077 6.09366 6.33671
#
# Compressibility (1/GPa) = 0.03449576
#
# Stress axis : x y z
#
# Youngs Moduli (GPa) = 98.38420 38.24858 79.73531
#
# Poissons Ratio (x) = -0.09232 0.45473
# Poissons Ratio (y) = -0.23746 0.31000
# Poissons Ratio (z) = 0.56109 0.14871
#
# Static dielectric constant tensor:
#      x y z
#    x 0.726780 0.000000 -0.070460 
#    y 0.000000 2.300070 0.000000 
#    z -0.070460 0.000000 1.205100 
# 
# From -- ./inp_files/173797.got.cif
#   From: 2010.05.17/outbox.cif.g08.bks.cpg/sg15_87_cif.got.tgz:173797.got - 2010.06.03 18:47:42.
