data_PCOD9274846
_publ_section_title
;
Structure prediction by ZEFSAII (Michael W. Deem and Ramdas Pophale) SiO2 
 PCOD9274846
Probable space group: C 2/C
;
_chemical_formula_sum "Si O2"
_cell_formula_units_Z 44
_cell_length_a 15.880876
_cell_length_b 21.708070
_cell_length_c 12.517998
_cell_angle_alpha 90.000000
_cell_angle_beta 154.123054
_cell_angle_gamma 90.000000
_cell_volume 1883.453461
_symmetry_space_group_name_H-M "C 2/C"
_symmetry_group_IT_number 15
_symmetry_cell_setting 'monoclinic'
loop_
_space_group_symop_operation_xyz
x,y,z
-x,y,1/2-z
-x,-y,-z
x,-y,1/2+z
1/2+x,1/2+y,z
1/2-x,1/2+y,1/2-z
1/2-x,1/2-y,-z
1/2+x,1/2-y,1/2+z
loop_
_atom_site_type_symbol
_atom_site_label
_atom_site_fract_x
_atom_site_fract_y
_atom_site_fract_z
Si Si1 0.533658 0.389325 0.669621
Si Si2 0.000000 0.536616 0.250000
Si Si3 0.847019 0.019682 0.502136
Si Si4 0.818342 0.630784 0.873194
Si Si5 0.307888 0.127353 0.314420
Si Si6 0.844395 0.760759 0.009773
O O1 0.500000 0.364361 0.750000
O O2 0.468470 0.461005 0.602829
O O3 0.392924 0.367181 0.415371
O O4 0.740302 0.371627 0.858890
O O5 0.841058 0.502819 0.141458
O O6 0.123247 0.579772 0.472101
O O7 0.777363 0.063686 0.329744
O O8 0.000000 0.056492 0.750000
O O9 0.860302 0.696082 0.970471
O O10 0.964703 0.622246 0.942123
O O11 0.231439 0.182818 0.149737
O O12 0.607467 0.731779 0.806585
#
# Coordination Sequence:
#
# PCOD9274846 Si02
#       6
#     8   4   8   8   8   8
#     4  11  26  43  62  87 130 182 229 257 304 371
#     4  10  20  38  66 102 130 162 202 274 338 392
#     4  10  21  39  63  96 132 169 213 264 326 383
#     4  11  23  41  64  99 132 163 213 262 333 389
#     4  11  23  39  66  96 130 168 212 270 327 387
#     4  12  20  38  68 100 133 156 197 267 343 398
#
# _framework density 23.361340999999999
#
# number of rings (size 3 to 8) (size 9 to 14) (size 15 to 20)
#    0.000    1.091    2.727    4.364    0.000    8.000 
#    0.000    0.909    0.000    0.000    0.000    0.000 
#    0.000    0.000    0.000    0.000    0.000    0.000 
#
# Total GULP energy -122717.425923 kJ/mol
# GULP energy per Si atom -5578.064815 kJ/mol
# Density = 2.330817 g / cm^3
# Si number density = 23.361341 Si / 1000 Ang^3
#
#
#
# Elastic Constant Matrix: (Units=GPa)
#
#
# Indices 1 2 3 4 5 6 
#
# 1 189.5646 20.4352 0.5994 0.0000 23.3725 0.0000
# 2 20.4352 51.9274 -14.5117 0.0000 2.9025 0.0000
# 3 0.5994 -14.5117 34.9656 0.0000 9.5787 0.0001
# 4 0.0000 0.0000 0.0000 -58.2403 0.0000 121.3462
# 5 23.3725 2.9025 9.5787 0.0000 32.2526 0.0001
# 6 0.0000 0.0000 0.0001 121.3462 0.0001 -183.0233
#
#
#
# Elastic Compliance Matrix: (Units=1/GPa)
#
#
# Indices 1 2 3 4 5 6 
#
# 1 0.006021 -0.002079 0.000194 0.000000 -0.004234 0.000000
# 2 -0.002079 0.023287 0.010735 0.000000 -0.003778 0.000000
# 3 0.000194 0.010735 0.036309 0.000000 -0.011890 0.000000
# 4 0.000000 0.000000 0.000000 0.045018 0.000000 0.029847
# 5 -0.004234 -0.003778 -0.011890 0.000000 0.037944 0.000000
# 6 0.000000 0.000000 0.000000 0.029847 0.000000 0.014325
#
#
# Mechanical properties :
#
#
# Convention : Reuss Voigt Hill
#
# Bulk Modulus (GPa) = 12.00225 32.16702 22.08464
# Shear Modulus (GPa) = 28.90586 -23.80655 2.54965
#
# Velocity S-wave (km/s) = 3.52140 -3.19573 1.04583
# Velocity P-wave (km/s) = 4.65644 0.42696 3.30641
#
# Compressibility (1/GPa) = 0.08331769
#
# Stress axis : x y z
#
# Youngs Moduli (GPa) = 166.09431 42.94266 27.54150
#
# Poissons Ratio (x) = 0.08926 -0.00534
# Poissons Ratio (y) = 0.34523 -0.29566
# Poissons Ratio (z) = -0.03221 -0.46100
#
# Static dielectric constant tensor:
#      x y z
#    x 0.520630 0.000000 -1.088920 
#    y 0.000000 1.851140 0.000000 
#    z -1.088920 0.000000 0.706750 
# 
# From -- ./inp_files/101173.got.cif
#   From: 2010.05.17/outbox.cif.g08.bks.cpg/sg15_51_cif.got.tgz:101173.got - 2010.06.03 18:47:42.
