data_PCOD9274359
_publ_section_title
;
Structure prediction by ZEFSAII (Michael W. Deem and Ramdas Pophale) SiO2 
 PCOD9274359
Probable space group: C 2/C
;
_chemical_formula_sum "Si O2"
_cell_formula_units_Z 48
_cell_length_a 10.749862
_cell_length_b 19.186912
_cell_length_c 20.711258
_cell_angle_alpha 90.000000
_cell_angle_beta 33.808837
_cell_angle_gamma 90.000000
_cell_volume 2376.950460
_symmetry_space_group_name_H-M "C 2/C"
_symmetry_group_IT_number 15
_symmetry_cell_setting 'monoclinic'
loop_
_space_group_symop_operation_xyz
x,y,z
-x,y,1/2-z
-x,-y,-z
x,-y,1/2+z
1/2+x,1/2+y,z
1/2-x,1/2+y,1/2-z
1/2-x,1/2-y,-z
1/2+x,1/2-y,1/2+z
loop_
_atom_site_type_symbol
_atom_site_label
_atom_site_fract_x
_atom_site_fract_y
_atom_site_fract_z
Si Si1 0.215224 0.304152 0.116641
Si Si2 0.500000 0.885170 0.750000
Si Si3 0.000000 0.968596 0.250000
Si Si4 0.812489 0.150606 0.434364
Si Si5 0.179861 0.774911 0.959739
Si Si6 0.725936 0.925015 0.778918
Si Si7 0.408353 0.120867 0.528061
O O1 0.194442 0.225418 0.097951
O O2 0.431600 0.305917 0.068222
O O3 0.000000 0.323728 0.250000
O O4 0.259039 0.346882 0.032905
O O5 0.665235 0.831716 0.641277
O O6 0.627622 0.930965 0.749055
O O7 0.813729 0.923587 0.367340
O O8 0.847592 0.012210 0.264870
O O9 0.616487 0.105043 0.486298
O O10 0.065363 0.127222 0.315763
O O11 0.250000 0.750000 0.000000
O O12 0.161118 0.701339 0.929814
O O13 0.526633 0.893383 0.908478
#
# Coordination Sequence:
#
# PCOD9274359 Si02
#       7
#     8   4   4   8   8   8   8
#     4  10  21  34  59  97 136 171 205 261 339 404
#     4  12  25  42  66 102 137 176 212 274 358 394
#     4  12  27  44  72  96 125 180 240 278 310 390
#     4  10  20  38  62  94 130 168 215 269 330 392
#     4  11  22  38  67 100 138 164 211 276 342 409
#     4  12  23  43  68  92 133 179 225 270 328 400
#     4  11  23  43  69 101 126 170 229 280 322 395
#
# _framework density 20.193942
#
# number of rings (size 3 to 8) (size 9 to 14) (size 15 to 20)
#    0.000    1.000    5.000    3.000    0.000    1.333 
#    0.000    0.833    5.500    0.000    0.000    0.000 
#    0.000    0.000    0.000    0.000    0.000    0.000 
#
# Total GULP energy -133898.823916 kJ/mol
# GULP energy per Si atom -5579.117663 kJ/mol
# Density = 2.014798 g / cm^3
# Si number density = 20.193942 Si / 1000 Ang^3
#
#
#
# Elastic Constant Matrix: (Units=GPa)
#
#
# Indices 1 2 3 4 5 6 
#
# 1 140.7851 16.2428 47.3450 0.2577 -6.5219 -0.1162
# 2 16.2428 38.3964 28.8671 1.0404 -7.1482 -0.3894
# 3 47.3450 28.8671 166.3367 2.4796 -10.0789 -0.8941
# 4 0.2577 1.0404 2.4796 -240.4659 -0.4244 74.7606
# 5 -6.5219 -7.1482 -10.0789 -0.4244 29.6534 0.1922
# 6 -0.1162 -0.3894 -0.8941 74.7606 0.1922 -19.1898
#
#
#
# Elastic Compliance Matrix: (Units=1/GPa)
#
#
# Indices 1 2 3 4 5 6 
#
# 1 0.007988 -0.001812 -0.001918 -0.000029 0.000668 -0.000027
# 2 -0.001812 0.031291 -0.004577 0.000161 0.005589 0.000271
# 3 -0.001918 -0.004577 0.007412 0.000090 0.000994 0.000119
# 4 -0.000029 0.000161 0.000090 0.019693 -0.000152 0.076712
# 5 0.000668 0.005589 0.000994 -0.000152 0.035556 -0.000401
# 6 -0.000027 0.000271 0.000119 0.076712 -0.000401 0.246733
#
#
# Mechanical properties :
#
#
# Convention : Reuss Voigt Hill
#
# Bulk Modulus (GPa) = 33.24931 58.93645 46.09288
# Shear Modulus (GPa) = 13.32225 -29.12958 -7.90367
#
# Velocity S-wave (km/s) = 2.57128 -3.80213 -1.98050
# Velocity P-wave (km/s) = 5.03150 3.15810 4.20057
#
# Compressibility (1/GPa) = 0.03007581
#
# Stress axis : x y z
#
# Youngs Moduli (GPa) = 125.18413 31.95846 134.91950
#
# Poissons Ratio (x) = 0.05791 0.25884
# Poissons Ratio (y) = 0.22684 0.61751
# Poissons Ratio (z) = 0.24017 0.14627
#
# Static dielectric constant tensor:
#      x y z
#    x 1.759920 0.000000 0.008540 
#    y 0.000000 1.765890 0.000020 
#    z 0.008540 0.000020 1.690450 
# 
# From -- ./inp_files/240387.got.cif
#   From: 2010.05.17/outbox.cif.g08.bks.cpg/sg15_121_cif.got.tgz:240387.got - 2010.06.03 18:47:42.
