data_PCOD9274051
_publ_section_title
;
Structure prediction by ZEFSAII (Michael W. Deem and Ramdas Pophale) SiO2 
 PCOD9274051
Probable space group: C 2/C
;
_chemical_formula_sum "Si O2"
_cell_formula_units_Z 56
_cell_length_a 17.165087
_cell_length_b 12.020073
_cell_length_c 19.889146
_cell_angle_alpha 90.000000
_cell_angle_beta 43.541724
_cell_angle_gamma 90.000000
_cell_volume 2826.926271
_symmetry_space_group_name_H-M "C 2/C"
_symmetry_group_IT_number 15
_symmetry_cell_setting 'monoclinic'
loop_
_space_group_symop_operation_xyz
x,y,z
-x,y,1/2-z
-x,-y,-z
x,-y,1/2+z
1/2+x,1/2+y,z
1/2-x,1/2+y,1/2-z
1/2-x,1/2-y,-z
1/2+x,1/2-y,1/2+z
loop_
_atom_site_type_symbol
_atom_site_label
_atom_site_fract_x
_atom_site_fract_y
_atom_site_fract_z
Si Si1 0.758526 0.949878 0.126582
Si Si2 0.406642 0.975929 0.646596
Si Si3 0.377951 0.316493 0.362487
Si Si4 0.934739 0.119360 0.971156
Si Si5 0.904308 0.560103 0.367515
Si Si6 0.667639 0.731142 0.835776
Si Si7 0.319587 0.826451 0.115659
O O1 0.778121 0.820957 0.131335
O O2 0.684580 0.998093 0.235923
O O3 0.876595 0.015947 0.044690
O O4 0.688046 0.975690 0.103379
O O5 0.529119 0.969061 0.606113
O O6 0.378359 0.855461 0.634138
O O7 0.390133 0.071162 0.601493
O O8 0.500000 0.319862 0.250000
O O9 0.388981 0.382934 0.424045
O O10 0.358364 0.186555 0.394633
O O11 0.278984 0.357350 0.375583
O O12 0.890867 0.229647 0.036518
O O13 0.067780 0.143048 0.881816
O O14 0.000000 0.560522 0.250000
O O15 0.755630 0.725600 0.719840
#
# Coordination Sequence:
#
# PCOD9274051 Si02
#       7
#     8   8   8   8   8   8   8
#     4  10  21  34  61  88 117 157 197 237 297 349
#     4  10  20  38  61  86 120 154 195 246 290 345
#     4  11  19  35  60  87 119 147 193 256 288 332
#     4  12  21  35  61  90 117 155 201 237 302 346
#     4   9  16  34  57  83 108 148 197 233 285 339
#     4  11  21  39  56  87 127 153 191 248 289 357
#     4  11  22  36  59  94 118 151 195 252 295 337
#
# _framework density 19.809501000000001
#
# number of rings (size 3 to 8) (size 9 to 14) (size 15 to 20)
#    0.000    1.429    5.714    1.714    0.000    0.571 
#    0.000    0.000    0.000    9.429    0.000    0.000 
#    0.000    0.000    0.000    0.000    0.000    0.000 
#
# Total GULP energy -156341.033087 kJ/mol
# GULP energy per Si atom -5583.608325 kJ/mol
# Density = 1.976441 g / cm^3
# Si number density = 19.809501 Si / 1000 Ang^3
#
#
#
# Elastic Constant Matrix: (Units=GPa)
#
#
# Indices 1 2 3 4 5 6 
#
# 1 107.3881 50.8675 10.2984 0.0000 17.1809 0.0000
# 2 50.8675 81.0244 11.0670 0.0000 24.2858 0.0000
# 3 10.2984 11.0670 65.7144 0.0000 7.4285 0.0000
# 4 0.0000 0.0000 0.0000 17.5257 0.0000 7.0210
# 5 17.1809 24.2858 7.4285 0.0000 30.6438 0.0000
# 6 0.0000 0.0000 0.0000 7.0210 0.0000 30.0909
#
#
#
# Elastic Compliance Matrix: (Units=1/GPa)
#
#
# Indices 1 2 3 4 5 6 
#
# 1 0.013307 -0.007971 -0.000631 0.000000 -0.000991 0.000000
# 2 -0.007971 0.021073 -0.000943 0.000000 -0.012003 0.000000
# 3 -0.000631 -0.000943 0.015783 0.000000 -0.002725 0.000000
# 4 0.000000 0.000000 0.000000 0.062942 0.000000 -0.014686
# 5 -0.000991 -0.012003 -0.002725 0.000000 0.043361 0.000000
# 6 0.000000 0.000000 0.000000 -0.014686 0.000000 0.036659
#
#
# Mechanical properties :
#
#
# Convention : Reuss Voigt Hill
#
# Bulk Modulus (GPa) = 32.18253 44.28809 38.23531
# Shear Modulus (GPa) = 22.46459 27.77833 25.12146
#
# Velocity S-wave (km/s) = 3.37119 3.74876 3.56498
# Velocity P-wave (km/s) = 5.60665 6.41429 6.02402
#
# Compressibility (1/GPa) = 0.03107276
#
# Stress axis : x y z
#
# Youngs Moduli (GPa) = 75.15038 47.45514 63.35899
#
# Poissons Ratio (x) = 0.37826 0.03998
# Poissons Ratio (y) = 0.59901 0.05974
# Poissons Ratio (z) = 0.04742 0.04474
#
# Static dielectric constant tensor:
#      x y z
#    x 1.741310 0.000000 -0.033100 
#    y 0.000000 1.665280 0.000000 
#    z -0.033100 0.000000 1.729230 
# 
# From -- ./inp_files/210552.got.cif
#   From: 2010.05.17/outbox.cif.g08.bks.cpg/sg15_106_cif.got.tgz:210552.got - 2010.06.03 18:47:42.
