data_PCOD9274080
_publ_section_title
;
Structure prediction by ZEFSAII (Michael W. Deem and Ramdas Pophale) SiO2 
 PCOD9274080
Probable space group: C 2/C
;
_chemical_formula_sum "Si O2"
_cell_formula_units_Z 48
_cell_length_a 26.934276
_cell_length_b 7.983235
_cell_length_c 14.153279
_cell_angle_alpha 90.000000
_cell_angle_beta 138.127091
_cell_angle_gamma 90.000000
_cell_volume 2031.327289
_symmetry_space_group_name_H-M "C 2/C"
_symmetry_group_IT_number 15
_symmetry_cell_setting 'monoclinic'
loop_
_space_group_symop_operation_xyz
x,y,z
-x,y,1/2-z
-x,-y,-z
x,-y,1/2+z
1/2+x,1/2+y,z
1/2-x,1/2+y,1/2-z
1/2-x,1/2-y,-z
1/2+x,1/2-y,1/2+z
loop_
_atom_site_type_symbol
_atom_site_label
_atom_site_fract_x
_atom_site_fract_y
_atom_site_fract_z
Si Si1 0.419962 0.794739 0.173197
Si Si2 0.414846 0.030360 0.848814
Si Si3 0.844765 0.963754 0.318329
Si Si4 0.182637 0.595852 0.128868
Si Si5 0.924457 0.079854 0.598229
Si Si6 0.662131 0.272336 0.372151
O O1 0.500000 0.860311 0.250000
O O2 0.416672 0.604658 0.132879
O O3 0.413419 0.813585 0.275822
O O4 0.356511 0.894693 0.028044
O O5 0.360409 0.031284 0.861894
O O6 0.383680 0.879683 0.738773
O O7 0.500000 0.000000 0.000000
O O8 0.832289 0.777292 0.344710
O O9 0.912455 0.051411 0.470368
O O10 0.854503 0.928277 0.221719
O O11 0.768728 0.058564 0.235849
O O12 0.000000 0.149340 0.750000
O O13 0.861131 0.191431 0.554256
O O14 0.750000 0.250000 0.500000
#
# Coordination Sequence:
#
# PCOD9274080 Si02
#       6
#     8   8   8   8   8   8
#     4  10  20  38  61  88 125 161 201 259 314 373
#     4  11  22  39  63  94 124 161 211 264 317 374
#     4  10  22  40  63  88 125 169 208 261 320 381
#     4  10  21  39  61  87 123 163 208 254 315 380
#     4  10  23  42  63  91 127 166 212 260 320 383
#     4  11  24  44  65  93 133 168 214 270 323 384
#
# _framework density 23.62987
#
# number of rings (size 3 to 8) (size 9 to 14) (size 15 to 20)
#    0.000    1.667    1.667    3.000    2.333    2.667 
#    6.000    4.167    0.000    0.000    0.000    0.000 
#    0.000    0.000    0.000    0.000    0.000    0.000 
#
# Total GULP energy -134220.730670 kJ/mol
# GULP energy per Si atom -5592.530445 kJ/mol
# Density = 2.357609 g / cm^3
# Si number density = 23.629870 Si / 1000 Ang^3
#
#
#
# Elastic Constant Matrix: (Units=GPa)
#
#
# Indices 1 2 3 4 5 6 
#
# 1 32.7084 3.7892 13.9276 0.0000 -10.2061 0.0000
# 2 3.7892 37.0814 19.1771 0.0000 1.1376 0.0000
# 3 13.9276 19.1771 136.7442 0.0000 -2.9687 0.0000
# 4 0.0000 0.0000 0.0000 30.0985 0.0000 -1.7317
# 5 -10.2061 1.1376 -2.9687 0.0000 43.1082 0.0000
# 6 0.0000 0.0000 0.0000 -1.7317 0.0000 26.6641
#
#
#
# Elastic Compliance Matrix: (Units=1/GPa)
#
#
# Indices 1 2 3 4 5 6 
#
# 1 0.034637 -0.002213 -0.003043 0.000000 0.008049 0.000000
# 2 -0.002213 0.029265 -0.003913 0.000000 -0.001566 0.000000
# 3 -0.003043 -0.003913 0.008170 0.000000 -0.000054 0.000000
# 4 0.000000 0.000000 0.000000 0.033349 0.000000 0.002166
# 5 0.008049 -0.001566 -0.000054 0.000000 0.025141 0.000000
# 6 0.000000 0.000000 0.000000 0.002166 0.000000 0.037644
#
#
# Mechanical properties :
#
#
# Convention : Reuss Voigt Hill
#
# Bulk Modulus (GPa) = 18.60951 31.14687 24.87819
# Shear Modulus (GPa) = 24.45524 31.28349 27.86937
#
# Velocity S-wave (km/s) = 3.22052 3.64249 3.43798
# Velocity P-wave (km/s) = 4.66064 5.55878 5.12940
#
# Compressibility (1/GPa) = 0.05373596
#
# Stress axis : x y z
#
# Youngs Moduli (GPa) = 28.87099 34.17006 122.39321
#
# Poissons Ratio (x) = 0.07561 0.37241
# Poissons Ratio (y) = 0.06388 0.47890
# Poissons Ratio (z) = 0.08785 0.13370
#
# Static dielectric constant tensor:
#      x y z
#    x 1.926400 0.000000 0.087880 
#    y 0.000000 1.949060 0.000000 
#    z 0.087880 0.000000 2.112800 
# 
# From -- ./inp_files/176986.got.cif
#   From: 2010.05.17/outbox.cif.g08.bks.cpg/sg15_89_cif.got.tgz:176986.got - 2010.06.03 18:47:42.
