data_PCOD9274430
_publ_section_title
;
Structure prediction by ZEFSAII (Michael W. Deem and Ramdas Pophale) SiO2 
 PCOD9274430
Probable space group: C 2/C
;
_chemical_formula_sum "Si O2"
_cell_formula_units_Z 60
_cell_length_a 8.392967
_cell_length_b 16.877003
_cell_length_c 23.328926
_cell_angle_alpha 90.000000
_cell_angle_beta 108.258641
_cell_angle_gamma 90.000000
_cell_volume 3138.123446
_symmetry_space_group_name_H-M "C 2/C"
_symmetry_group_IT_number 15
_symmetry_cell_setting 'monoclinic'
loop_
_space_group_symop_operation_xyz
x,y,z
-x,y,1/2-z
-x,-y,-z
x,-y,1/2+z
1/2+x,1/2+y,z
1/2-x,1/2+y,1/2-z
1/2-x,1/2-y,-z
1/2+x,1/2-y,1/2+z
loop_
_atom_site_type_symbol
_atom_site_label
_atom_site_fract_x
_atom_site_fract_y
_atom_site_fract_z
Si Si1 0.759011 0.164387 0.278521
Si Si2 0.500000 0.552041 0.250000
Si Si3 0.460104 0.188969 0.813453
Si Si4 0.685220 0.028045 0.657395
Si Si5 0.617293 0.925314 0.027833
Si Si6 0.734003 0.319620 0.543508
Si Si7 0.001005 0.368664 0.658471
Si Si8 0.922931 0.730445 0.552278
O O1 0.804923 0.250945 0.305372
O O2 0.636242 0.119149 0.307365
O O3 0.660697 0.170715 0.207155
O O4 0.922926 0.111651 0.288193
O O5 0.648956 0.499518 0.291366
O O6 0.500000 0.198554 0.750000
O O7 0.405215 0.099553 0.819924
O O8 0.586605 0.214157 0.879745
O O9 0.720050 0.055250 0.596811
O O10 0.564447 0.951682 0.641428
O O11 0.501388 0.849710 0.032775
O O12 0.739699 0.899956 0.989859
O O13 0.500000 0.000000 0.000000
O O14 0.750000 0.250000 0.500000
O O15 0.560670 0.300619 0.556781
O O16 0.898944 0.317547 0.601742
O O17 0.750000 0.750000 0.500000
#
# Coordination Sequence:
#
# PCOD9274430 Si02
#       8
#     8   4   8   8   8   8   8   8
#     4  10  21  37  62  87 112 158 208 243 300 363
#     4  10  22  40  58  88 116 162 198 246 296 376
#     4  11  23  39  60  90 127 156 202 262 314 358
#     4  10  23  40  59  87 128 159 195 253 316 369
#     4  10  20  39  63  88 117 161 202 250 308 368
#     4  10  20  38  63  89 121 160 207 252 304 373
#     4  10  20  38  64  86 119 163 202 244 309 380
#     4  10  23  42  60  88 123 162 208 260 310 368
#
# _framework density 19.119706000000001
#
# number of rings (size 3 to 8) (size 9 to 14) (size 15 to 20)
#    0.000    1.867    3.333    0.000    3.733    4.267 
#    2.400    0.667    0.000    0.000    0.000    0.000 
#    0.000    0.000    0.000    0.000    0.000    0.000 
#
# Total GULP energy -167118.944887 kJ/mol
# GULP energy per Si atom -5570.631496 kJ/mol
# Density = 1.907619 g / cm^3
# Si number density = 19.119706 Si / 1000 Ang^3
#
#
#
# Elastic Constant Matrix: (Units=GPa)
#
#
# Indices 1 2 3 4 5 6 
#
# 1 58.5487 23.3771 35.4413 0.0000 9.5696 0.0000
# 2 23.3771 75.1970 36.5427 0.0000 19.1118 0.0000
# 3 35.4413 36.5427 125.8844 0.0000 9.5711 0.0000
# 4 0.0000 0.0000 0.0000 30.6870 0.0000 1.1830
# 5 9.5696 19.1118 9.5711 0.0000 30.6655 0.0000
# 6 0.0000 0.0000 0.0000 1.1830 0.0000 25.0142
#
#
#
# Elastic Compliance Matrix: (Units=1/GPa)
#
#
# Indices 1 2 3 4 5 6 
#
# 1 0.022014 -0.003692 -0.004895 0.000000 -0.003041 0.000000
# 2 -0.003692 0.018580 -0.003648 0.000000 -0.009289 0.000000
# 3 -0.004895 -0.003648 0.010337 0.000000 0.000575 0.000000
# 4 0.000000 0.000000 0.000000 0.032647 0.000000 -0.001544
# 5 -0.003041 -0.009289 0.000575 0.000000 0.039169 0.000000
# 6 0.000000 0.000000 0.000000 -0.001544 0.000000 0.040050
#
#
# Mechanical properties :
#
#
# Convention : Reuss Voigt Hill
#
# Bulk Modulus (GPa) = 37.79087 50.03915 43.91501
# Shear Modulus (GPa) = 25.49900 28.22461 26.86181
#
# Velocity S-wave (km/s) = 3.65588 3.84631 3.75230
# Velocity P-wave (km/s) = 6.13424 6.77892 6.46462
#
# Compressibility (1/GPa) = 0.02646142
#
# Stress axis : x y z
#
# Youngs Moduli (GPa) = 45.42571 53.82233 96.73922
#
# Poissons Ratio (x) = 0.19872 0.47352
# Poissons Ratio (y) = 0.16772 0.35288
# Poissons Ratio (z) = 0.22235 0.19633
#
# Static dielectric constant tensor:
#      x y z
#    x 1.654480 0.000000 -0.022090 
#    y 0.000000 1.657480 0.000000 
#    z -0.022090 0.000000 1.729240 
# 
# From -- ./inp_files/264764.got.cif
#   From: 2010.05.17/outbox.cif.g08.bks.cpg/sg15_133_cif.got.tgz:264764.got - 2010.06.03 18:47:42.
