data_PCOD9274866
_publ_section_title
;
Structure prediction by ZEFSAII (Michael W. Deem and Ramdas Pophale) SiO2 
 PCOD9274866
Probable space group: C 2/C
;
_chemical_formula_sum "Si O2"
_cell_formula_units_Z 44
_cell_length_a 6.208050
_cell_length_b 13.904785
_cell_length_c 26.046721
_cell_angle_alpha 90.000000
_cell_angle_beta 58.020801
_cell_angle_gamma 90.000000
_cell_volume 1907.179230
_symmetry_space_group_name_H-M "C 2/C"
_symmetry_group_IT_number 15
_symmetry_cell_setting 'monoclinic'
loop_
_space_group_symop_operation_xyz
x,y,z
-x,y,1/2-z
-x,-y,-z
x,-y,1/2+z
1/2+x,1/2+y,z
1/2-x,1/2+y,1/2-z
1/2-x,1/2-y,-z
1/2+x,1/2-y,1/2+z
loop_
_atom_site_type_symbol
_atom_site_label
_atom_site_fract_x
_atom_site_fract_y
_atom_site_fract_z
Si Si1 0.598000 0.175768 0.075771
Si Si2 0.925565 0.605394 0.644910
Si Si3 0.493874 0.772245 0.806564
Si Si4 0.508285 0.381025 0.448518
Si Si5 0.000000 0.645087 0.750000
Si Si6 0.712253 0.971891 0.930514
O O1 0.562031 0.157338 0.139888
O O2 0.610479 0.290695 0.067453
O O3 0.355374 0.137762 0.073968
O O4 0.847246 0.125707 0.021046
O O5 0.728534 0.693117 0.668532
O O6 0.823178 0.523196 0.620141
O O7 0.194191 0.633136 0.585638
O O8 0.970503 0.587558 0.700134
O O9 0.500000 0.819622 0.750000
O O10 0.753523 0.714207 0.785440
O O11 0.456828 0.479632 0.424714
O O12 0.500000 0.000000 0.000000
#
# Coordination Sequence:
#
# PCOD9274866 Si02
#       6
#     8   8   8   8   4   8
#     4  10  20  40  61  89 128 163 205 267 322 388
#     4  11  20  39  64  87 121 163 213 261 329 391
#     4  10  21  39  64  88 120 166 213 263 324 395
#     4  10  21  40  61  90 124 162 211 264 331 385
#     4  10  20  38  66  84 122 168 210 258 320 392
#     4  10  22  39  58  90 128 160 209 269 322 392
#
# _framework density 23.070720999999999
#
# number of rings (size 3 to 8) (size 9 to 14) (size 15 to 20)
#    0.000    1.818    3.636    0.000    0.000    3.636 
#    4.909    0.000    6.000    0.000    0.000    0.000 
#    0.000    0.000    0.000    0.000    0.000    0.000 
#
# Total GULP energy -122820.808025 kJ/mol
# GULP energy per Si atom -5582.764001 kJ/mol
# Density = 2.301821 g / cm^3
# Si number density = 23.070721 Si / 1000 Ang^3
#
#
#
# Elastic Constant Matrix: (Units=GPa)
#
#
# Indices 1 2 3 4 5 6 
#
# 1 92.5991 26.9505 53.1432 -0.0005 -10.7608 0.0000
# 2 26.9505 54.2360 32.3427 -0.0004 13.7614 0.0001
# 3 53.1432 32.3427 144.9292 -0.0009 18.3211 0.0003
# 4 -0.0005 -0.0004 -0.0009 23.2538 0.0004 8.4031
# 5 -10.7608 13.7614 18.3211 0.0004 53.6905 0.0001
# 6 0.0000 0.0001 0.0003 8.4031 0.0001 24.1370
#
#
#
# Elastic Compliance Matrix: (Units=1/GPa)
#
#
# Indices 1 2 3 4 5 6 
#
# 1 0.016753 -0.006814 -0.005505 0.000000 0.006983 0.000000
# 2 -0.006814 0.024896 -0.002172 0.000000 -0.007006 0.000000
# 3 -0.005505 -0.002172 0.009899 0.000000 -0.003925 0.000000
# 4 0.000000 0.000000 0.000000 0.049192 -0.000001 -0.017126
# 5 0.006983 -0.007006 -0.003925 -0.000001 0.023160 0.000000
# 6 0.000000 0.000000 0.000000 -0.017126 0.000000 0.047393
#
#
# Mechanical properties :
#
#
# Convention : Reuss Voigt Hill
#
# Bulk Modulus (GPa) = 44.31148 57.40414 50.85781
# Shear Modulus (GPa) = 24.06181 32.17145 28.11663
#
# Velocity S-wave (km/s) = 3.23299 3.73831 3.49480
# Velocity P-wave (km/s) = 5.76063 6.60069 6.19492
#
# Compressibility (1/GPa) = 0.02256751
#
# Stress axis : x y z
#
# Youngs Moduli (GPa) = 59.68962 40.16632 101.01552
#
# Poissons Ratio (x) = 0.27368 0.55613
# Poissons Ratio (y) = 0.40671 0.21939
# Poissons Ratio (z) = 0.32861 0.08724
#
# Static dielectric constant tensor:
#      x y z
#    x 1.918930 0.000000 0.027850 
#    y 0.000000 1.863880 0.000000 
#    z 0.027850 0.000000 1.902240 
# 
# From -- ./inp_files/285533.got.cif
#   From: 2010.05.17/outbox.cif.g08.bks.cpg/sg15_143_cif.got.tgz:285533.got - 2010.06.03 18:47:42.
