data_PCOD9274732
_publ_section_title
;
Structure prediction by ZEFSAII (Michael W. Deem and Ramdas Pophale) SiO2 
 PCOD9274732
Probable space group: C 2/C
;
_chemical_formula_sum "Si O2"
_cell_formula_units_Z 56
_cell_length_a 28.525151
_cell_length_b 10.864706
_cell_length_c 8.393135
_cell_angle_alpha 90.000000
_cell_angle_beta 117.915248
_cell_angle_gamma 90.000000
_cell_volume 2298.508066
_symmetry_space_group_name_H-M "C 2/C"
_symmetry_group_IT_number 15
_symmetry_cell_setting 'monoclinic'
loop_
_space_group_symop_operation_xyz
x,y,z
-x,y,1/2-z
-x,-y,-z
x,-y,1/2+z
1/2+x,1/2+y,z
1/2-x,1/2+y,1/2-z
1/2-x,1/2-y,-z
1/2+x,1/2-y,1/2+z
loop_
_atom_site_type_symbol
_atom_site_label
_atom_site_fract_x
_atom_site_fract_y
_atom_site_fract_z
Si Si1 0.165420 0.747298 0.611211
Si Si2 0.281371 0.675878 0.831278
Si Si3 0.358596 0.844049 0.782353
Si Si4 0.921688 0.403891 0.383974
Si Si5 0.325960 0.478262 0.696790
Si Si6 0.500000 0.970395 0.250000
Si Si7 0.000000 0.036040 0.750000
Si Si8 0.067949 0.122817 0.583068
O O1 0.219816 0.693231 0.767418
O O2 0.157830 0.696550 0.421795
O O3 0.113192 0.712160 0.626629
O O4 0.172077 0.891913 0.643030
O O5 0.312053 0.801690 0.829630
O O6 0.286616 0.588196 0.683841
O O7 0.309309 0.608477 0.024296
O O8 0.408580 0.757407 0.907079
O O9 0.379265 0.983155 0.809698
O O10 0.963359 0.442488 0.584706
O O11 0.958321 0.394005 0.287886
O O12 0.382781 0.542425 0.774378
O O13 0.955703 0.946385 0.605997
O O14 0.023226 0.119037 0.646619
#
# Coordination Sequence:
#
# PCOD9274732 Si02
#       8
#     8   8   8   8   8   4   4   8
#     4  12  26  43  71 100 135 183 229 287 336 423
#     4  11  26  42  73  99 139 177 228 281 346 416
#     4  11  24  44  67  99 136 180 220 290 341 408
#     4  11  25  45  71  98 141 179 242 278 355 401
#     4  11  24  45  65  98 138 176 219 281 346 404
#     4  10  24  50  64  98 136 188 232 296 332 414
#     4  10  20  38  64  98 122 168 222 264 332 406
#     4  10  21  41  62  94 131 165 216 273 333 391
#
# _framework density 24.363630000000001
#
# number of rings (size 3 to 8) (size 9 to 14) (size 15 to 20)
#    0.000    1.143    1.429    5.143    6.000    1.143 
#   10.286    0.000    0.000    0.000    0.000    0.000 
#    0.000    0.000    0.000    0.000    0.000    0.000 
#
# Total GULP energy -156844.245844 kJ/mol
# GULP energy per Si atom -5601.580209 kJ/mol
# Density = 2.430818 g / cm^3
# Si number density = 24.363630 Si / 1000 Ang^3
#
#
#
# Elastic Constant Matrix: (Units=GPa)
#
#
# Indices 1 2 3 4 5 6 
#
# 1 103.0996 14.1695 13.4836 0.0000 1.3084 0.0000
# 2 14.1695 34.3292 8.0609 0.0000 10.1944 0.0000
# 3 13.4836 8.0609 87.9535 0.0000 2.0069 0.0000
# 4 0.0000 0.0000 0.0000 -0.7575 0.0000 -29.7370
# 5 1.3084 10.1944 2.0069 0.0000 28.7454 0.0000
# 6 0.0000 0.0000 0.0000 -29.7370 0.0000 -9.5743
#
#
#
# Elastic Compliance Matrix: (Units=1/GPa)
#
#
# Indices 1 2 3 4 5 6 
#
# 1 0.010445 -0.004367 -0.001228 0.000000 0.001159 0.000000
# 2 -0.004367 0.035050 -0.002267 0.000000 -0.012073 0.000000
# 3 -0.001228 -0.002267 0.011765 0.000000 0.000039 0.000000
# 4 0.000000 0.000000 0.000000 0.010917 0.000000 -0.033906
# 5 0.001159 -0.012073 0.000039 0.000000 0.039014 0.000000
# 6 0.000000 0.000000 0.000000 -0.033906 0.000000 0.000864
#
#
# Mechanical properties :
#
#
# Convention : Reuss Voigt Hill
#
# Bulk Modulus (GPa) = 24.07558 32.97891 28.52725
# Shear Modulus (GPa) = 36.33071 16.32727 26.32899
#
# Velocity S-wave (km/s) = 3.86578 2.59153 3.29092
# Velocity P-wave (km/s) = 5.46158 4.74555 5.11611
#
# Compressibility (1/GPa) = 0.04153586
#
# Stress axis : x y z
#
# Youngs Moduli (GPa) = 95.73586 28.53063 84.99970
#
# Poissons Ratio (x) = 0.12460 0.10434
# Poissons Ratio (y) = 0.41811 0.19272
# Poissons Ratio (z) = 0.11752 0.06469
#
# Static dielectric constant tensor:
#      x y z
#    x 1.911320 0.000000 -0.038880 
#    y 0.000000 1.902990 0.000000 
#    z -0.038880 0.000000 1.948730 
# 
# From -- ./inp_files/69475.got.cif
#   From: 2010.05.17/outbox.cif.g08.bks.cpg/sg15_35_cif.got.tgz:69475.got - 2010.06.03 18:47:42.
