data_PCOD9274805
_publ_section_title
;
Structure prediction by ZEFSAII (Michael W. Deem and Ramdas Pophale) SiO2 
 PCOD9274805
Probable space group: C 2/C
;
_chemical_formula_sum "Si O2"
_cell_formula_units_Z 64
_cell_length_a 23.071156
_cell_length_b 7.985930
_cell_length_c 16.576778
_cell_angle_alpha 90.000000
_cell_angle_beta 119.603053
_cell_angle_gamma 90.000000
_cell_volume 2655.515759
_symmetry_space_group_name_H-M "C 2/C"
_symmetry_group_IT_number 15
_symmetry_cell_setting 'monoclinic'
loop_
_space_group_symop_operation_xyz
x,y,z
-x,y,1/2-z
-x,-y,-z
x,-y,1/2+z
1/2+x,1/2+y,z
1/2-x,1/2+y,1/2-z
1/2-x,1/2-y,-z
1/2+x,1/2-y,1/2+z
loop_
_atom_site_type_symbol
_atom_site_label
_atom_site_fract_x
_atom_site_fract_y
_atom_site_fract_z
Si Si1 0.789758 0.594035 0.489317
Si Si2 0.065956 0.583324 0.937633
Si Si3 0.706417 0.319780 0.157005
Si Si4 0.698078 0.889919 0.796149
Si Si5 0.535558 0.452945 0.861982
Si Si6 0.339193 0.594732 0.627907
Si Si7 0.899922 0.961386 0.832836
Si Si8 0.422374 0.932758 0.374338
O O1 0.750000 0.750000 0.500000
O O2 0.865744 0.548785 0.564870
O O3 0.801109 0.664793 0.406885
O O4 0.734268 0.452227 0.451654
O O5 0.059658 0.784305 0.922084
O O6 0.989197 0.531989 0.867198
O O7 0.071899 0.503240 0.030968
O O8 0.733783 0.242093 0.259689
O O9 0.753744 0.458761 0.150562
O O10 0.639811 0.420398 0.133822
O O11 0.666969 0.780048 0.844104
O O12 0.638022 0.971715 0.707048
O O13 0.500000 0.414823 0.750000
O O14 0.600610 0.564575 0.892178
O O15 0.474645 0.530231 0.870164
O O16 0.359754 0.479082 0.720004
O O17 0.908031 0.767437 0.862757
#
# Coordination Sequence:
#
# PCOD9274805 Si02
#       8
#     8   8   8   8   8   8   8   8
#     4  12  23  40  66  86 130 171 212 250 316 385
#     4  10  21  37  64  92 121 163 209 253 309 379
#     4  11  22  37  63  97 120 161 211 257 316 368
#     4  11  21  37  66  98 126 160 212 266 314 367
#     4   9  18  39  63  85 118 165 211 249 308 381
#     4  10  21  37  66  92 124 169 208 253 312 381
#     4   9  20  36  66  90 120 161 209 263 311 365
#     4  10  20  38  65  93 125 158 210 268 312 367
#
# _framework density 24.100781000000001
#
# number of rings (size 3 to 8) (size 9 to 14) (size 15 to 20)
#    0.000    1.750    2.500    3.000    1.750    0.000 
#    0.000    3.125   16.500    0.000    0.000    0.000 
#    0.000    0.000    0.000    0.000    0.000    0.000 
#
# Total GULP energy -178751.476135 kJ/mol
# GULP energy per Si atom -5585.983629 kJ/mol
# Density = 2.404593 g / cm^3
# Si number density = 24.100781 Si / 1000 Ang^3
#
#
#
# Elastic Constant Matrix: (Units=GPa)
#
#
# Indices 1 2 3 4 5 6 
#
# 1 115.1500 26.9369 29.5882 0.0000 36.7877 0.0000
# 2 26.9369 85.6898 23.5252 0.0000 -0.9705 0.0000
# 3 29.5882 23.5252 40.6816 0.0000 7.1130 0.0000
# 4 0.0000 0.0000 0.0000 9.6998 0.0000 -7.8307
# 5 36.7877 -0.9705 7.1130 0.0000 26.2926 0.0000
# 6 0.0000 0.0000 0.0000 -7.8307 0.0000 39.0059
#
#
#
# Elastic Compliance Matrix: (Units=1/GPa)
#
#
# Indices 1 2 3 4 5 6 
#
# 1 0.019993 -0.004571 -0.007324 0.000000 -0.026161 0.000000
# 2 -0.004571 0.015119 -0.006964 0.000000 0.008837 0.000000
# 3 -0.007324 -0.006964 0.033786 0.000000 0.000850 0.000000
# 4 0.000000 0.000000 0.000000 0.123035 0.000000 0.024700
# 5 -0.026161 0.008837 0.000850 0.000000 0.074734 0.000000
# 6 0.000000 0.000000 0.000000 0.024700 0.000000 0.030596
#
#
# Mechanical properties :
#
#
# Convention : Reuss Voigt Hill
#
# Bulk Modulus (GPa) = 32.07013 44.62467 38.34740
# Shear Modulus (GPa) = 14.47706 25.76440 20.12073
#
# Velocity S-wave (km/s) = 2.45355 3.27315 2.89253
# Velocity P-wave (km/s) = 4.62192 5.73068 5.20590
#
# Compressibility (1/GPa) = 0.03118167
#
# Stress axis : x y z
#
# Youngs Moduli (GPa) = 50.01643 66.14354 29.59773
#
# Poissons Ratio (x) = 0.30231 0.21678
# Poissons Ratio (y) = 0.22860 0.20611
# Poissons Ratio (z) = 0.36633 0.46060
#
# Static dielectric constant tensor:
#      x y z
#    x 1.962700 0.000000 -0.007130 
#    y 0.000000 1.822600 0.000000 
#    z -0.007130 0.000000 2.026320 
# 
# From -- ./inp_files/251936.got.cif
#   From: 2010.05.17/outbox.cif.g08.bks.cpg/sg15_126_cif.got.tgz:251936.got - 2010.06.03 18:47:42.
