data_PCOD9274178
_publ_section_title
;
Structure prediction by ZEFSAII (Michael W. Deem and Ramdas Pophale) SiO2 
 PCOD9274178
Probable space group: C 2/C
;
_chemical_formula_sum "Si O2"
_cell_formula_units_Z 56
_cell_length_a 19.816802
_cell_length_b 13.829759
_cell_length_c 8.258577
_cell_angle_alpha 90.000000
_cell_angle_beta 91.162895
_cell_angle_gamma 90.000000
_cell_volume 2262.892622
_symmetry_space_group_name_H-M "C 2/C"
_symmetry_group_IT_number 15
_symmetry_cell_setting 'monoclinic'
loop_
_space_group_symop_operation_xyz
x,y,z
-x,y,1/2-z
-x,-y,-z
x,-y,1/2+z
1/2+x,1/2+y,z
1/2-x,1/2+y,1/2-z
1/2-x,1/2-y,-z
1/2+x,1/2-y,1/2+z
loop_
_atom_site_type_symbol
_atom_site_label
_atom_site_fract_x
_atom_site_fract_y
_atom_site_fract_z
Si Si1 0.529848 0.199760 0.084841
Si Si2 0.553072 0.421985 0.069013
Si Si3 0.620191 0.426444 0.757795
Si Si4 0.408765 0.767225 0.404859
Si Si5 0.276371 0.852386 0.240311
Si Si6 0.243170 0.462157 0.926179
Si Si7 0.660824 0.195381 0.258705
O O1 0.500000 0.157404 0.250000
O O2 0.609453 0.183916 0.107149
O O3 0.524155 0.316430 0.088569
O O4 0.478822 0.175459 0.937373
O O5 0.615680 0.411451 0.947588
O O6 0.500000 0.500000 0.000000
O O7 0.584270 0.471074 0.227142
O O8 0.580295 0.337171 0.675628
O O9 0.690070 0.431557 0.668198
O O10 0.351271 0.816829 0.291605
O O11 0.376987 0.757758 0.585131
O O12 0.253814 0.917510 0.394812
O O13 0.225083 0.762694 0.225348
O O14 0.269659 0.924077 0.088777
O O15 0.183650 0.407494 0.828266
#
# Coordination Sequence:
#
# PCOD9274178 Si02
#       7
#     8   8   8   8   8   8   8
#     4  10  21  37  59  86 119 161 207 251 312 372
#     4  12  24  34  55  88 126 156 202 246 306 383
#     4  12  22  37  57  88 122 165 198 250 313 370
#     4  10  20  38  62  84 120 169 203 252 313 383
#     4  11  21  41  64  91 124 161 214 261 320 366
#     4  11  22  39  65  89 120 167 209 261 310 375
#     4  10  20  40  62  92 121 161 208 261 318 373
#
# _framework density 24.747088000000002
#
# number of rings (size 3 to 8) (size 9 to 14) (size 15 to 20)
#    0.000    1.143    4.286    3.857    2.000    0.000 
#    2.571    2.143    0.000    0.000    0.000    0.000 
#    0.000    0.000    0.000    0.000    0.000    0.000 
#
# Total GULP energy -156637.951252 kJ/mol
# GULP energy per Si atom -5594.212545 kJ/mol
# Density = 2.469076 g / cm^3
# Si number density = 24.747088 Si / 1000 Ang^3
#
#
#
# Elastic Constant Matrix: (Units=GPa)
#
#
# Indices 1 2 3 4 5 6 
#
# 1 110.3624 5.6613 35.7464 0.0000 37.4537 0.0000
# 2 5.6613 36.7847 -4.0323 0.0000 -1.7280 0.0000
# 3 35.7464 -4.0323 68.5063 0.0000 -5.1104 0.0000
# 4 0.0000 0.0000 0.0000 27.5775 0.0000 6.7565
# 5 37.4537 -1.7280 -5.1104 0.0000 39.4265 0.0000
# 6 0.0000 0.0000 0.0000 6.7565 0.0000 32.2901
#
#
#
# Elastic Compliance Matrix: (Units=1/GPa)
#
#
# Indices 1 2 3 4 5 6 
#
# 1 0.020911 -0.005652 -0.012868 0.000000 -0.021780 0.000000
# 2 -0.005652 0.028969 0.005200 0.000000 0.007313 0.000000
# 3 -0.012868 0.005200 0.022767 0.000000 0.015403 0.000000
# 4 0.000000 0.000000 0.000000 0.038221 0.000000 -0.007997
# 5 -0.021780 0.007313 0.015403 0.000000 0.048371 0.000000
# 6 0.000000 0.000000 0.000000 -0.007997 0.000000 0.032643
#
#
# Mechanical properties :
#
#
# Convention : Reuss Voigt Hill
#
# Bulk Modulus (GPa) = 21.73682 32.26713 27.00197
# Shear Modulus (GPa) = 21.38062 31.74402 26.56232
#
# Velocity S-wave (km/s) = 2.94252 3.58542 3.27976
# Velocity P-wave (km/s) = 4.51079 5.49612 5.02765
#
# Compressibility (1/GPa) = 0.04600490
#
# Stress axis : x y z
#
# Youngs Moduli (GPa) = 47.82282 34.52016 43.92319
#
# Poissons Ratio (x) = 0.19511 0.56522
# Poissons Ratio (y) = 0.27029 -0.22839
# Poissons Ratio (z) = 0.61540 -0.17950
#
# Static dielectric constant tensor:
#      x y z
#    x 2.052190 0.000000 0.018700 
#    y 0.000000 1.910170 0.000000 
#    z 0.018700 0.000000 1.980660 
# 
# From -- ./inp_files/55635.got.cif
#   From: 2010.05.17/outbox.cif.g08.bks.cpg/sg15_28_cif.got.tgz:55635.got - 2010.06.03 18:47:42.
