data_PCOD9274704
_publ_section_title
;
Structure prediction by ZEFSAII (Michael W. Deem and Ramdas Pophale) SiO2 
 PCOD9274704
Probable space group: C 2/C
;
_chemical_formula_sum "Si O2"
_cell_formula_units_Z 28
_cell_length_a 10.201095
_cell_length_b 4.798334
_cell_length_c 20.857657
_cell_angle_alpha 90.000000
_cell_angle_beta 59.725042
_cell_angle_gamma 90.000000
_cell_volume 881.705313
_symmetry_space_group_name_H-M "C 2/C"
_symmetry_group_IT_number 15
_symmetry_cell_setting 'monoclinic'
loop_
_space_group_symop_operation_xyz
x,y,z
-x,y,1/2-z
-x,-y,-z
x,-y,1/2+z
1/2+x,1/2+y,z
1/2-x,1/2+y,1/2-z
1/2-x,1/2-y,-z
1/2+x,1/2-y,1/2+z
loop_
_atom_site_type_symbol
_atom_site_label
_atom_site_fract_x
_atom_site_fract_y
_atom_site_fract_z
Si Si1 0.357009 0.557794 0.927404
Si Si2 0.103648 0.681424 0.429515
Si Si3 0.294002 0.120315 0.721888
Si Si4 0.500000 0.352061 0.250000
O O1 0.260496 0.288965 0.928859
O O2 0.409224 0.667712 0.845065
O O3 0.250000 0.750000 0.000000
O O4 0.514737 0.549561 0.927280
O O5 0.126773 0.489590 0.361281
O O6 0.000000 0.500000 0.500000
O O7 0.131606 0.889716 0.755528
O O8 0.156629 0.364508 0.740468
#
# Coordination Sequence:
#
# PCOD9274704 Si02
#       4
#     8   8   8   4
#     4   9  17  33  63  95 138 187 244 311 383 465
#     4   9  18  36  64  95 141 187 245 313 388 467
#     4  11  23  41  66  96 135 181 242 301 375 458
#     4  10  20  38  64  94 136 184 238 312 372 468
#
# _framework density 31.756640000000001
#
# number of rings (size 3 to 8) (size 9 to 14) (size 15 to 20)
#    0.000    2.286    2.857    0.000    0.000    1.143 
#    0.000    1.429    0.000    5.143    0.000    0.000 
#    0.000    0.000    0.000    0.000    0.000    0.000 
#
# Total GULP energy -78072.187889 kJ/mol
# GULP energy per Si atom -5576.584849 kJ/mol
# Density = 3.168436 g / cm^3
# Si number density = 31.756640 Si / 1000 Ang^3
#
#
#
# Elastic Constant Matrix: (Units=GPa)
#
#
# Indices 1 2 3 4 5 6 
#
# 1 339.0190 80.5025 67.5093 0.0010 26.9113 0.0009
# 2 80.5025 285.7383 66.7861 0.0033 8.4478 0.0042
# 3 67.5093 66.7861 316.6423 0.0004 34.0426 0.0010
# 4 0.0010 0.0033 0.0004 43.8624 0.0001 14.2765
# 5 26.9113 8.4478 34.0426 0.0001 67.8843 0.0005
# 6 0.0009 0.0042 0.0010 14.2765 0.0005 60.1532
#
#
#
# Elastic Compliance Matrix: (Units=1/GPa)
#
#
# Indices 1 2 3 4 5 6 
#
# 1 0.003304 -0.000801 -0.000428 0.000000 -0.000995 0.000000
# 2 -0.000801 0.003876 -0.000665 0.000000 0.000169 0.000000
# 3 -0.000428 -0.000665 0.003554 0.000000 -0.001530 0.000000
# 4 0.000000 0.000000 0.000000 0.024707 0.000000 -0.005864
# 5 -0.000995 0.000169 -0.001530 0.000000 0.015872 0.000000
# 6 0.000000 0.000000 0.000000 -0.005864 0.000000 0.018016
#
#
# Mechanical properties :
#
#
# Convention : Reuss Voigt Hill
#
# Bulk Modulus (GPa) = 143.98577 152.33281 148.15929
# Shear Modulus (GPa) = 66.28364 82.82008 74.55186
#
# Velocity S-wave (km/s) = 4.57359 5.11236 4.85046
# Velocity P-wave (km/s) = 8.56324 9.10611 8.83884
#
# Compressibility (1/GPa) = 0.00694513
#
# Stress axis : x y z
#
# Youngs Moduli (GPa) = 302.63536 258.00645 281.35980
#
# Poissons Ratio (x) = 0.20676 0.12055
# Poissons Ratio (y) = 0.24252 0.18704
# Poissons Ratio (z) = 0.12967 0.17152
#
# Static dielectric constant tensor:
#      x y z
#    x 2.927460 0.000000 -0.158720 
#    y 0.000000 2.374400 0.000000 
#    z -0.158720 0.000000 2.345660 
# 
# From -- ./inp_files/201584.got.cif
#   From: 2010.05.17/outbox.cif.g08.bks.cpg/sg15_101_cif.got.tgz:201584.got - 2010.06.03 18:47:42.
