data_PCOD9274740
_publ_section_title
;
Structure prediction by ZEFSAII (Michael W. Deem and Ramdas Pophale) SiO2 
 PCOD9274740
Probable space group: C 2/C
;
_chemical_formula_sum "Si O2"
_cell_formula_units_Z 36
_cell_length_a 7.510532
_cell_length_b 27.975044
_cell_length_c 7.890347
_cell_angle_alpha 90.000000
_cell_angle_beta 111.167013
_cell_angle_gamma 90.000000
_cell_volume 1545.970682
_symmetry_space_group_name_H-M "C 2/C"
_symmetry_group_IT_number 15
_symmetry_cell_setting 'monoclinic'
loop_
_space_group_symop_operation_xyz
x,y,z
-x,y,1/2-z
-x,-y,-z
x,-y,1/2+z
1/2+x,1/2+y,z
1/2-x,1/2+y,1/2-z
1/2-x,1/2-y,-z
1/2+x,1/2-y,1/2+z
loop_
_atom_site_type_symbol
_atom_site_label
_atom_site_fract_x
_atom_site_fract_y
_atom_site_fract_z
Si Si1 0.000000 0.749976 0.250000
Si Si2 0.662588 0.317626 0.539519
Si Si3 0.894765 0.453932 0.539782
Si Si4 0.974794 0.083221 0.428990
Si Si5 0.679298 0.872249 0.230946
O O1 0.819055 0.715751 0.175921
O O2 0.996569 0.782192 0.419597
O O3 0.625843 0.365059 0.633434
O O4 0.728237 0.339624 0.381471
O O5 0.668189 0.450523 0.510509
O O6 0.922444 0.414235 0.408547
O O7 0.000000 0.441738 0.750000
O O8 0.000000 0.500000 0.500000
O O9 0.000000 0.061951 0.250000
O O10 0.161916 0.101095 0.597548
O O11 0.500000 0.845240 0.250000
#
# Coordination Sequence:
#
# PCOD9274740 Si02
#       5
#     4   8   8   8   8
#     4  10  20  38  64  98 136 182 228 292 332 406
#     4  10  21  40  64  92 140 180 233 280 346 396
#     4  11  24  45  71 100 132 170 221 283 344 414
#     4  11  24  44  69 100 135 186 229 279 349 418
#     4  11  23  43  67  97 134 183 229 277 348 417
#
# _framework density 23.286339000000002
#
# number of rings (size 3 to 8) (size 9 to 14) (size 15 to 20)
#    0.000    1.333    2.222    4.000    9.333    0.000 
#    0.000   22.222    0.000    0.000    0.000    0.000 
#    0.000    0.000    0.000    0.000    0.000    0.000 
#
# Total GULP energy -100413.666626 kJ/mol
# GULP energy per Si atom -5578.537035 kJ/mol
# Density = 2.323334 g / cm^3
# Si number density = 23.286339 Si / 1000 Ang^3
#
#
#
# Elastic Constant Matrix: (Units=GPa)
#
#
# Indices 1 2 3 4 5 6 
#
# 1 112.6779 17.3710 24.3829 0.0000 -6.4889 0.0000
# 2 17.3710 89.0559 20.2107 0.0000 11.5721 0.0000
# 3 24.3829 20.2107 92.6258 0.0000 12.3725 0.0000
# 4 0.0000 0.0000 0.0000 -8.6959 0.0000 25.0945
# 5 -6.4889 11.5721 12.3725 0.0000 38.6497 0.0000
# 6 0.0000 0.0000 0.0000 25.0945 0.0000 3.3040
#
#
#
# Elastic Compliance Matrix: (Units=1/GPa)
#
#
# Indices 1 2 3 4 5 6 
#
# 1 0.009883 -0.001723 -0.002629 0.000000 0.003017 0.000000
# 2 -0.001723 0.012419 -0.001798 0.000000 -0.003432 0.000000
# 3 -0.002629 -0.001798 0.012398 0.000000 -0.003872 0.000000
# 4 0.000000 0.000000 0.000000 -0.005018 0.000000 0.038111
# 5 0.003017 -0.003432 -0.003872 0.000000 0.028647 0.000000
# 6 0.000000 0.000000 0.000000 0.038111 0.000000 0.013206
#
#
# Mechanical properties :
#
#
# Convention : Reuss Voigt Hill
#
# Bulk Modulus (GPa) = 44.64179 46.47653 45.55916
# Shear Modulus (GPa) = 54.76400 22.14456 38.45428
#
# Velocity S-wave (km/s) = 4.85476 3.08712 4.06811
# Velocity P-wave (km/s) = 7.11599 5.71919 6.45548
#
# Compressibility (1/GPa) = 0.02240053
#
# Stress axis : x y z
#
# Youngs Moduli (GPa) = 101.18340 80.52183 80.66140
#
# Poissons Ratio (x) = 0.13876 0.21202
# Poissons Ratio (y) = 0.17436 0.14501
# Poissons Ratio (z) = 0.26597 0.14476
#
# Static dielectric constant tensor:
#      x y z
#    x 1.977420 0.000000 -0.019320 
#    y 0.000000 1.830240 0.000000 
#    z -0.019320 0.000000 1.795840 
# 
# From -- ./inp_files/24694.got.cif
#   From: 2010.05.17/outbox.cif.g08.bks.cpg/sg15_13_cif.got.tgz:24694.got - 2010.06.03 18:47:42.
