data_PCOD9274287
_publ_section_title
;
Structure prediction by ZEFSAII (Michael W. Deem and Ramdas Pophale) SiO2 
 PCOD9274287
Probable space group: C 2/C
;
_chemical_formula_sum "Si O2"
_cell_formula_units_Z 64
_cell_length_a 15.699301
_cell_length_b 11.525843
_cell_length_c 26.026008
_cell_angle_alpha 90.000000
_cell_angle_beta 38.189985
_cell_angle_gamma 90.000000
_cell_volume 2911.651998
_symmetry_space_group_name_H-M "C 2/C"
_symmetry_group_IT_number 15
_symmetry_cell_setting 'monoclinic'
loop_
_space_group_symop_operation_xyz
x,y,z
-x,y,1/2-z
-x,-y,-z
x,-y,1/2+z
1/2+x,1/2+y,z
1/2-x,1/2+y,1/2-z
1/2-x,1/2-y,-z
1/2+x,1/2-y,1/2+z
loop_
_atom_site_type_symbol
_atom_site_label
_atom_site_fract_x
_atom_site_fract_y
_atom_site_fract_z
Si Si1 0.371805 0.160110 0.838413
Si Si2 0.702175 0.054266 0.856223
Si Si3 0.027824 0.543756 0.610840
Si Si4 0.125746 0.715503 0.405133
Si Si5 0.095767 0.898568 0.332626
Si Si6 0.185967 0.230093 0.416736
Si Si7 0.301436 0.046788 0.295035
Si Si8 0.720607 0.383743 0.003254
O O1 0.500000 0.222250 0.750000
O O2 0.234859 0.229146 0.892135
O O3 0.411753 0.136694 0.877886
O O4 0.352945 0.039880 0.815503
O O5 0.825434 0.076188 0.757634
O O6 0.732455 0.135178 0.891076
O O7 0.562414 0.095631 0.892397
O O8 0.663767 0.920219 0.884170
O O9 0.156721 0.463914 0.535226
O O10 0.918675 0.466746 0.695914
O O11 0.131870 0.777652 0.345597
O O12 0.975964 0.751007 0.496991
O O13 0.932371 0.912144 0.405880
O O14 0.160613 0.992236 0.340556
O O15 0.260520 0.174360 0.331984
O O16 0.221370 0.129382 0.441135
O O17 0.750000 0.250000 0.000000
#
# Coordination Sequence:
#
# PCOD9274287 Si02
#       8
#     8   8   8   8   8   8   8   8
#     4   9  18  37  61  87 117 158 203 261 303 359
#     4  11  24  42  64  89 129 172 209 246 323 394
#     4  10  20  38  62  90 124 158 213 263 306 364
#     4  10  22  40  62  90 126 167 210 258 314 378
#     4   9  22  39  63  92 125 164 212 262 310 380
#     4  11  23  38  67  90 126 166 211 254 319 388
#     4   9  19  36  64  92 115 162 214 253 306 377
#     4  11  23  38  62  94 129 157 206 275 320 356
#
# _framework density 21.980649
#
# number of rings (size 3 to 8) (size 9 to 14) (size 15 to 20)
#    0.000    2.000    1.250    2.625    7.000    1.500 
#    0.000    3.125    0.000    0.000    0.000    0.000 
#    0.000    0.000    0.000    0.000    0.000    0.000 
#
# Total GULP energy -178357.003203 kJ/mol
# GULP energy per Si atom -5573.656350 kJ/mol
# Density = 2.193062 g / cm^3
# Si number density = 21.980649 Si / 1000 Ang^3
#
#
#
# Elastic Constant Matrix: (Units=GPa)
#
#
# Indices 1 2 3 4 5 6 
#
# 1 44.3737 -1.1882 33.1711 0.0000 -7.4707 0.0000
# 2 -1.1882 37.7447 7.0473 0.0000 -1.7618 0.0000
# 3 33.1711 7.0473 71.5247 0.0000 -18.8339 0.0000
# 4 0.0000 0.0000 0.0000 20.2177 0.0000 0.3447
# 5 -7.4707 -1.7618 -18.8339 0.0000 23.4985 0.0000
# 6 0.0000 0.0000 0.0000 0.3447 0.0000 -7.5544
#
#
#
# Elastic Compliance Matrix: (Units=1/GPa)
#
#
# Indices 1 2 3 4 5 6 
#
# 1 0.035253 0.004247 -0.017406 0.000000 -0.002425 0.000000
# 2 0.004247 0.027502 -0.004792 0.000000 -0.000429 0.000000
# 3 -0.017406 -0.004792 0.026585 0.000000 0.015414 0.000000
# 4 0.000000 0.000000 0.000000 0.049423 0.000000 0.002255
# 5 -0.002425 -0.000429 0.015414 0.000000 0.054107 0.000000
# 6 0.000000 0.000000 0.000000 0.002255 0.000000 -0.132270
#
#
# Mechanical properties :
#
#
# Convention : Reuss Voigt Hill
#
# Bulk Modulus (GPa) = 18.71383 25.74483 22.22933
# Shear Modulus (GPa) = 43.73793 14.87322 29.30558
#
# Velocity S-wave (km/s) = 4.46560 2.60407 3.65532
# Velocity P-wave (km/s) = 5.92630 4.55846 5.28680
#
# Compressibility (1/GPa) = 0.05343643
#
# Stress axis : x y z
#
# Youngs Moduli (GPa) = 28.36610 36.36074 37.61534
#
# Poissons Ratio (x) = -0.15441 0.65475
# Poissons Ratio (y) = -0.12046 0.18026
# Poissons Ratio (z) = 0.49375 0.17424
#
# Static dielectric constant tensor:
#      x y z
#    x 1.613950 0.000000 0.442440 
#    y 0.000000 1.806620 0.000000 
#    z 0.442440 0.000000 -0.227250 
# 
# From -- ./inp_files/316201.got.cif
#   From: 2010.05.17/outbox.cif.g08.bks.cpg/sg15_159_cif.got.tgz:316201.got - 2010.06.03 18:47:42.
