data_PCOD9274420
_publ_section_title
;
Structure prediction by ZEFSAII (Michael W. Deem and Ramdas Pophale) SiO2 
 PCOD9274420
Probable space group: C 2/C
;
_chemical_formula_sum "Si O2"
_cell_formula_units_Z 44
_cell_length_a 7.828184
_cell_length_b 19.191731
_cell_length_c 17.445234
_cell_angle_alpha 90.000000
_cell_angle_beta 50.669438
_cell_angle_gamma 90.000000
_cell_volume 2027.279147
_symmetry_space_group_name_H-M "C 2/C"
_symmetry_group_IT_number 15
_symmetry_cell_setting 'monoclinic'
loop_
_space_group_symop_operation_xyz
x,y,z
-x,y,1/2-z
-x,-y,-z
x,-y,1/2+z
1/2+x,1/2+y,z
1/2-x,1/2+y,1/2-z
1/2-x,1/2-y,-z
1/2+x,1/2-y,1/2+z
loop_
_atom_site_type_symbol
_atom_site_label
_atom_site_fract_x
_atom_site_fract_y
_atom_site_fract_z
Si Si1 0.000000 0.412122 0.250000
Si Si2 0.915323 0.192950 0.486376
Si Si3 0.116836 0.818772 0.323836
Si Si4 0.695331 0.949117 0.037359
Si Si5 0.805083 0.406903 0.033352
Si Si6 0.577779 0.175448 0.152986
O O1 0.164939 0.363151 0.252846
O O2 0.132963 0.452432 0.145546
O O3 0.750000 0.250000 0.500000
O O4 0.872381 0.191653 0.588399
O O5 0.859900 0.114827 0.475434
O O6 0.174995 0.204472 0.404551
O O7 0.894849 0.863254 0.373232
O O8 0.085965 0.741333 0.302450
O O9 0.481102 0.929408 0.047024
O O10 0.782457 0.022710 0.982087
O O11 0.913163 0.363250 0.931793
O O12 0.500000 0.132527 0.250000
#
# Coordination Sequence:
#
# PCOD9274420 Si02
#       6
#     4   8   8   8   8   8
#     4  10  24  36  64  94 116 158 208 264 284 374
#     4  10  20  38  63  88 121 162 201 250 303 365
#     4  10  22  38  60  88 123 161 207 246 309 357
#     4  10  22  41  66  88 123 162 203 246 310 363
#     4  10  22  43  62  88 124 169 196 248 313 371
#     4  11  24  37  61  94 125 162 205 259 296 355
#
# _framework density 21.703966000000001
#
# number of rings (size 3 to 8) (size 9 to 14) (size 15 to 20)
#    0.000    1.818    0.000    4.364    8.909    6.545 
#    0.000    0.000    0.000    0.000    0.000    0.000 
#    0.000    0.000    0.000    0.000    0.000    0.000 
#
# Total GULP energy -122826.637102 kJ/mol
# GULP energy per Si atom -5583.028959 kJ/mol
# Density = 2.165457 g / cm^3
# Si number density = 21.703966 Si / 1000 Ang^3
#
#
#
# Elastic Constant Matrix: (Units=GPa)
#
#
# Indices 1 2 3 4 5 6 
#
# 1 50.6495 0.0538 -7.1815 0.0000 13.1653 0.0000
# 2 0.0538 87.2237 3.9240 0.0000 14.0400 0.0000
# 3 -7.1815 3.9240 53.4969 0.0000 6.3021 0.0000
# 4 0.0000 0.0000 0.0000 10.3784 0.0000 5.1522
# 5 13.1653 14.0400 6.3021 0.0000 14.0144 0.0000
# 6 0.0000 0.0000 0.0000 5.1522 0.0000 32.4359
#
#
#
# Elastic Compliance Matrix: (Units=1/GPa)
#
#
# Indices 1 2 3 4 5 6 
#
# 1 0.030956 0.005829 0.008280 0.000000 -0.038643 0.000000
# 2 0.005829 0.014788 0.002205 0.000000 -0.021281 0.000000
# 3 0.008280 0.002205 0.021984 0.000000 -0.019873 0.000000
# 4 0.000000 0.000000 0.000000 0.104603 0.000000 -0.016615
# 5 -0.038643 -0.021281 -0.019873 0.000000 0.137913 0.000000
# 6 0.000000 0.000000 0.000000 -0.016615 0.000000 0.033469
#
#
# Mechanical properties :
#
#
# Convention : Reuss Voigt Hill
#
# Bulk Modulus (GPa) = 9.96471 20.55140 15.25806
# Shear Modulus (GPa) = 14.51226 24.33733 19.42479
#
# Velocity S-wave (km/s) = 2.58862 3.35226 2.99488
# Velocity P-wave (km/s) = 3.67910 4.94702 4.35941
#
# Compressibility (1/GPa) = 0.10035416
#
# Stress axis : x y z
#
# Youngs Moduli (GPa) = 32.30414 67.62443 45.48842
#
# Poissons Ratio (x) = -0.39415 -0.37666
# Poissons Ratio (y) = -0.18829 -0.10029
# Poissons Ratio (z) = -0.26749 -0.14910
#
# Static dielectric constant tensor:
#      x y z
#    x 1.840220 0.000000 -0.005500 
#    y 0.000000 1.833980 0.000000 
#    z -0.005500 0.000000 1.798440 
# 
# From -- ./inp_files/134357.got.cif
#   From: 2010.05.17/outbox.cif.g08.bks.cpg/sg15_68_cif.got.tgz:134357.got - 2010.06.03 18:47:42.
