data_PCOD9274933
_publ_section_title
;
Structure prediction by ZEFSAII (Michael W. Deem and Ramdas Pophale) SiO2 
 PCOD9274933
Probable space group: C 2/C
;
_chemical_formula_sum "Si O2"
_cell_formula_units_Z 56
_cell_length_a 9.273757
_cell_length_b 17.829752
_cell_length_c 24.084782
_cell_angle_alpha 90.000000
_cell_angle_beta 141.630567
_cell_angle_gamma 90.000000
_cell_volume 2471.987023
_symmetry_space_group_name_H-M "C 2/C"
_symmetry_group_IT_number 15
_symmetry_cell_setting 'monoclinic'
loop_
_space_group_symop_operation_xyz
x,y,z
-x,y,1/2-z
-x,-y,-z
x,-y,1/2+z
1/2+x,1/2+y,z
1/2-x,1/2+y,1/2-z
1/2-x,1/2-y,-z
1/2+x,1/2-y,1/2+z
loop_
_atom_site_type_symbol
_atom_site_label
_atom_site_fract_x
_atom_site_fract_y
_atom_site_fract_z
Si Si1 0.000000 0.963212 0.250000
Si Si2 0.000000 0.534150 0.750000
Si Si3 0.635204 0.146199 0.700921
Si Si4 0.761110 0.746675 0.853490
Si Si5 0.791589 0.126423 0.488870
Si Si6 0.268648 0.502582 0.069132
Si Si7 0.509423 0.258197 0.122756
Si Si8 0.605661 0.418293 0.600599
O O1 0.815167 0.909701 0.224674
O O2 0.891202 0.008327 0.165947
O O3 0.987550 0.590055 0.693720
O O4 0.221033 0.478957 0.818984
O O5 0.556895 0.196593 0.625361
O O6 0.761587 0.207693 0.779411
O O7 0.500000 0.739575 0.750000
O O8 0.703629 0.723313 0.898837
O O9 0.823111 0.833161 0.865932
O O10 0.814293 0.074103 0.549142
O O11 0.543831 0.169756 0.404026
O O12 0.969330 0.193895 0.555535
O O13 0.861674 0.079342 0.455964
O O14 0.358760 0.564786 0.053434
O O15 0.000000 0.500000 0.000000
#
# Coordination Sequence:
#
# PCOD9274933 Si02
#       8
#     4   4   8   8   8   8   8   8
#     4  12  22  45  71  86 134 186 232 274 348 429
#     4  12  24  37  65 106 138 178 236 294 352 411
#     4  11  20  39  65  96 132 180 233 281 348 421
#     4   9  17  36  67  96 127 180 229 283 341 424
#     4  10  20  38  66  94 129 176 225 283 344 417
#     4  12  27  45  65 100 139 184 228 292 355 415
#     4   9  17  36  66  90 125 175 226 274 345 414
#     4  11  23  41  67  99 139 179 234 288 353 417
#
# _framework density 22.653839000000001
#
# number of rings (size 3 to 8) (size 9 to 14) (size 15 to 20)
#    0.000    1.429    5.714    0.429    2.000    0.000 
#    2.571    0.000    0.000    3.429    0.000    0.000 
#    0.000    0.000    0.000    0.000    0.000    0.000 
#
# Total GULP energy -156073.451838 kJ/mol
# GULP energy per Si atom -5574.051851 kJ/mol
# Density = 2.260228 g / cm^3
# Si number density = 22.653839 Si / 1000 Ang^3
#
#
#
# Elastic Constant Matrix: (Units=GPa)
#
#
# Indices 1 2 3 4 5 6 
#
# 1 74.2251 33.2099 17.0493 0.0001 -3.8708 0.0000
# 2 33.2099 88.8733 8.1263 0.0001 -3.2074 0.0001
# 3 17.0493 8.1263 55.7047 0.0005 -22.9644 0.0001
# 4 0.0001 0.0001 0.0005 25.6399 0.0002 -15.4129
# 5 -3.8708 -3.2074 -22.9644 0.0002 25.2951 0.0000
# 6 0.0000 0.0001 0.0001 -15.4129 0.0000 32.2789
#
#
#
# Elastic Compliance Matrix: (Units=1/GPa)
#
#
# Indices 1 2 3 4 5 6 
#
# 1 0.017351 -0.006074 -0.005829 0.000000 -0.003407 0.000000
# 2 -0.006074 0.013530 0.000334 0.000000 0.001090 0.000000
# 3 -0.005829 0.000334 0.030903 -0.000001 0.027206 -0.000001
# 4 0.000000 0.000000 -0.000001 0.054703 -0.000001 0.026120
# 5 -0.003407 0.001090 0.027206 -0.000001 0.063849 -0.000001
# 6 0.000000 0.000000 -0.000001 0.026120 -0.000001 0.043452
#
#
# Mechanical properties :
#
#
# Convention : Reuss Voigt Hill
#
# Bulk Modulus (GPa) = 25.87486 37.28600 31.58043
# Shear Modulus (GPa) = 19.24493 27.33728 23.29110
#
# Velocity S-wave (km/s) = 2.91782 3.47758 3.20993
# Velocity P-wave (km/s) = 4.77474 5.71135 5.26392
#
# Compressibility (1/GPa) = 0.03864754
#
# Stress axis : x y z
#
# Youngs Moduli (GPa) = 57.63247 73.90790 32.35954
#
# Poissons Ratio (x) = 0.44890 0.18863
# Poissons Ratio (y) = 0.35005 -0.01082
# Poissons Ratio (z) = 0.33595 -0.02472
#
# Static dielectric constant tensor:
#      x y z
#    x 2.364110 -0.000080 0.117670 
#    y -0.000080 2.189350 -0.000030 
#    z 0.117670 -0.000030 1.986450 
# 
# From -- ./inp_files/265617.got.cif
#   From: 2010.05.17/outbox.cif.g08.bks.cpg/sg15_133_cif.got.tgz:265617.got - 2010.06.03 18:47:42.
