data_PCOD9274787
_publ_section_title
;
Structure prediction by ZEFSAII (Michael W. Deem and Ramdas Pophale) SiO2 
 PCOD9274787
Probable space group: C 2/C
;
_chemical_formula_sum "Si O2"
_cell_formula_units_Z 48
_cell_length_a 8.511852
_cell_length_b 17.061886
_cell_length_c 14.345146
_cell_angle_alpha 90.000000
_cell_angle_beta 81.027462
_cell_angle_gamma 90.000000
_cell_volume 2057.827266
_symmetry_space_group_name_H-M "C 2/C"
_symmetry_group_IT_number 15
_symmetry_cell_setting 'monoclinic'
loop_
_space_group_symop_operation_xyz
x,y,z
-x,y,1/2-z
-x,-y,-z
x,-y,1/2+z
1/2+x,1/2+y,z
1/2-x,1/2+y,1/2-z
1/2-x,1/2-y,-z
1/2+x,1/2-y,1/2+z
loop_
_atom_site_type_symbol
_atom_site_label
_atom_site_fract_x
_atom_site_fract_y
_atom_site_fract_z
Si Si1 0.840800 0.443222 0.219917
Si Si2 0.852504 0.087132 0.430869
Si Si3 0.842061 0.375042 0.715299
Si Si4 0.645815 0.308435 0.883485
Si Si5 0.263416 0.139082 0.554999
Si Si6 0.441090 0.565461 0.625987
O O1 0.832462 0.534351 0.247505
O O2 0.844039 0.428619 0.108787
O O3 0.678339 0.412373 0.280895
O O4 0.000000 0.408890 0.250000
O O5 0.694528 0.113657 0.390884
O O6 0.839895 0.060107 0.539205
O O7 0.969788 0.160864 0.415553
O O8 0.958140 0.016184 0.373742
O O9 0.700547 0.326193 0.774468
O O10 0.000000 0.342534 0.750000
O O11 0.668672 0.219746 0.912261
O O12 0.760744 0.358587 0.943570
O O13 0.076669 0.129971 0.596955
#
# Coordination Sequence:
#
# PCOD9274787 Si02
#       6
#     8   8   8   8   8   8
#     4  11  23  36  58  93 127 164 214 271 322 381
#     4  10  20  38  65  91 121 168 220 267 321 390
#     4  11  23  36  58  93 127 164 214 271 322 381
#     4  10  22  40  62  90 126 167 212 266 326 384
#     4  10  22  40  62  90 126 167 212 266 326 384
#     4  10  20  38  65  91 121 168 220 267 321 390
#
# _framework density 23.325574
#
# number of rings (size 3 to 8) (size 9 to 14) (size 15 to 20)
#    0.000    1.667    3.333    1.000    0.000    4.000 
#    0.000    3.333    0.000    7.000    0.000    0.000 
#    0.000    0.000    0.000    0.000    0.000    0.000 
#
# Total GULP energy -133866.005527 kJ/mol
# GULP energy per Si atom -5577.750230 kJ/mol
# Density = 2.327248 g / cm^3
# Si number density = 23.325574 Si / 1000 Ang^3
#
#
#
# Elastic Constant Matrix: (Units=GPa)
#
#
# Indices 1 2 3 4 5 6 
#
# 1 66.7351 6.5132 2.9360 0.0000 27.9195 0.0000
# 2 6.5132 58.8968 -4.8745 0.0000 -1.1896 0.0000
# 3 2.9360 -4.8745 91.2069 0.0000 28.1554 0.0000
# 4 0.0000 0.0000 0.0000 24.9010 0.0000 9.6649
# 5 27.9195 -1.1896 28.1554 0.0000 39.3418 0.0000
# 6 0.0000 0.0000 0.0000 9.6649 0.0000 27.2678
#
#
#
# Elastic Compliance Matrix: (Units=1/GPa)
#
#
# Indices 1 2 3 4 5 6 
#
# 1 0.023733 -0.002587 0.005546 0.000000 -0.020890 0.000000
# 2 -0.002587 0.017337 0.000361 0.000000 0.002102 0.000000
# 3 0.005546 0.000361 0.015424 0.000000 -0.014964 0.000000
# 4 0.000000 0.000000 0.000000 0.046565 0.000000 -0.016505
# 5 -0.020890 0.002102 -0.014964 0.000000 0.051015 0.000000
# 6 0.000000 0.000000 0.000000 -0.016505 0.000000 0.042523
#
#
# Mechanical properties :
#
#
# Convention : Reuss Voigt Hill
#
# Bulk Modulus (GPa) = 15.83932 25.10977 20.47455
# Shear Modulus (GPa) = 23.69642 32.45308 28.07475
#
# Velocity S-wave (km/s) = 3.19077 3.73407 3.47306
# Velocity P-wave (km/s) = 4.51442 5.42027 4.98795
#
# Compressibility (1/GPa) = 0.06313402
#
# Stress axis : x y z
#
# Youngs Moduli (GPa) = 42.13604 57.67912 64.83374
#
# Poissons Ratio (x) = 0.14924 -0.35959
# Poissons Ratio (y) = 0.10902 -0.02340
# Poissons Ratio (z) = -0.23370 -0.02082
#
# Static dielectric constant tensor:
#      x y z
#    x 1.944630 0.000000 0.048900 
#    y 0.000000 1.853310 0.000000 
#    z 0.048900 0.000000 1.913250 
# 
# From -- ./inp_files/134876.got.cif
#   From: 2010.05.17/outbox.cif.g08.bks.cpg/sg15_68_cif.got.tgz:134876.got - 2010.06.03 18:47:42.
