data_PCOD9274103
_publ_section_title
;
Structure prediction by ZEFSAII (Michael W. Deem and Ramdas Pophale) SiO2 
 PCOD9274103
Probable space group: C 2/C
;
_chemical_formula_sum "Si O2"
_cell_formula_units_Z 44
_cell_length_a 8.790078
_cell_length_b 10.506308
_cell_length_c 30.318157
_cell_angle_alpha 90.000000
_cell_angle_beta 44.167092
_cell_angle_gamma 90.000000
_cell_volume 1950.853442
_symmetry_space_group_name_H-M "C 2/C"
_symmetry_group_IT_number 15
_symmetry_cell_setting 'monoclinic'
loop_
_space_group_symop_operation_xyz
x,y,z
-x,y,1/2-z
-x,-y,-z
x,-y,1/2+z
1/2+x,1/2+y,z
1/2-x,1/2+y,1/2-z
1/2-x,1/2-y,-z
1/2+x,1/2-y,1/2+z
loop_
_atom_site_type_symbol
_atom_site_label
_atom_site_fract_x
_atom_site_fract_y
_atom_site_fract_z
Si Si1 0.258565 0.501924 0.781166
Si Si2 0.693372 0.239601 0.576744
Si Si3 0.885182 0.714573 0.559774
Si Si4 0.644099 0.042572 0.070984
Si Si5 0.575220 0.262181 0.784617
Si Si6 0.500000 0.000000 0.500000
O O1 0.500000 0.517043 0.750000
O O2 0.269007 0.384138 0.745370
O O3 0.190605 0.632686 0.773501
O O4 0.083612 0.469448 0.855280
O O5 0.488804 0.248493 0.585430
O O6 0.623085 0.275002 0.639842
O O7 0.892577 0.323786 0.516057
O O8 0.763607 0.091523 0.558856
O O9 0.760757 0.831065 0.564744
O O10 0.790682 0.575594 0.573146
O O11 0.616939 0.041234 0.024490
O O12 0.500000 0.254048 0.750000
#
# Coordination Sequence:
#
# PCOD9274103 Si02
#       6
#     8   8   8   8   8   4
#     4  10  24  43  63  91 131 169 219 269 318 391
#     4   9  21  39  60  88 124 155 212 260 317 392
#     4  10  20  38  61  90 124 162 201 263 321 387
#     4  10  21  40  60  90 124 164 213 257 328 388
#     4  10  23  42  63  94 124 170 218 263 327 390
#     4  10  22  34  56  96 124 156 208 256 318 386
#
# _framework density 22.554231999999999
#
# number of rings (size 3 to 8) (size 9 to 14) (size 15 to 20)
#    0.000    2.182    0.000    1.091    5.091    8.000 
#    3.273    0.000    0.000    0.000    0.000    0.000 
#    0.000    0.000    0.000    0.000    0.000    0.000 
#
# Total GULP energy -122552.838225 kJ/mol
# GULP energy per Si atom -5570.583556 kJ/mol
# Density = 2.250290 g / cm^3
# Si number density = 22.554232 Si / 1000 Ang^3
#
#
#
# Elastic Constant Matrix: (Units=GPa)
#
#
# Indices 1 2 3 4 5 6 
#
# 1 46.3459 39.6813 21.1996 0.0001 7.0832 0.0000
# 2 39.6813 153.0197 14.5628 -0.0001 0.0697 0.0000
# 3 21.1996 14.5628 91.2294 0.0003 14.3491 -0.0002
# 4 0.0001 -0.0001 0.0003 43.5183 -0.0002 -2.7564
# 5 7.0832 0.0697 14.3491 -0.0002 31.7283 0.0000
# 6 0.0000 0.0000 -0.0002 -2.7564 0.0000 46.6318
#
#
#
# Elastic Compliance Matrix: (Units=1/GPa)
#
#
# Indices 1 2 3 4 5 6 
#
# 1 0.031198 -0.007581 -0.005325 0.000000 -0.004540 0.000000
# 2 -0.007581 0.008486 0.000155 0.000000 0.001604 0.000000
# 3 -0.005325 0.000155 0.012905 0.000000 -0.004648 0.000000
# 4 0.000000 0.000000 0.000000 0.023065 0.000000 0.001363
# 5 -0.004540 0.001604 -0.004648 0.000000 0.034630 0.000000
# 6 0.000000 0.000000 0.000000 0.001363 0.000000 0.021525
#
#
# Mechanical properties :
#
#
# Convention : Reuss Voigt Hill
#
# Bulk Modulus (GPa) = 36.92087 49.05358 42.98722
# Shear Modulus (GPa) = 30.05881 38.71911 34.38896
#
# Velocity S-wave (km/s) = 3.65462 4.14782 3.90901
# Velocity P-wave (km/s) = 5.84925 6.68846 6.28289
#
# Compressibility (1/GPa) = 0.02708495
#
# Stress axis : x y z
#
# Youngs Moduli (GPa) = 32.05354 117.84611 77.48820
#
# Poissons Ratio (x) = 0.89344 0.41266
# Poissons Ratio (y) = 0.24301 -0.01201
# Poissons Ratio (z) = 0.17070 -0.01826
#
# Static dielectric constant tensor:
#      x y z
#    x 2.013210 0.000000 -0.047130 
#    y 0.000000 2.322020 0.000000 
#    z -0.047130 0.000000 1.890250 
# 
# From -- ./inp_files/287863.got.cif
#   From: 2010.05.17/outbox.cif.g08.bks.cpg/sg15_144_cif.got.tgz:287863.got - 2010.06.03 18:47:42.
