data_PCOD9274816
_publ_section_title
;
Structure prediction by ZEFSAII (Michael W. Deem and Ramdas Pophale) SiO2 
 PCOD9274816
Probable space group: C 2/C
;
_chemical_formula_sum "Si O2"
_cell_formula_units_Z 32
_cell_length_a 28.323111
_cell_length_b 10.373538
_cell_length_c 22.156966
_cell_angle_alpha 90.000000
_cell_angle_beta 165.283802
_cell_angle_gamma 90.000000
_cell_volume 1653.733526
_symmetry_space_group_name_H-M "C 2/C"
_symmetry_group_IT_number 15
_symmetry_cell_setting 'monoclinic'
loop_
_space_group_symop_operation_xyz
x,y,z
-x,y,1/2-z
-x,-y,-z
x,-y,1/2+z
1/2+x,1/2+y,z
1/2-x,1/2+y,1/2-z
1/2-x,1/2-y,-z
1/2+x,1/2-y,1/2+z
loop_
_atom_site_type_symbol
_atom_site_label
_atom_site_fract_x
_atom_site_fract_y
_atom_site_fract_z
Si Si1 0.885755 0.630922 0.353861
Si Si2 0.371346 0.234552 0.210452
Si Si3 0.850506 0.550716 0.011949
Si Si4 0.360332 0.380415 0.832798
O O1 0.808640 0.647584 0.190245
O O2 0.733755 0.631242 0.218222
O O3 0.000000 0.500000 0.500000
O O4 0.026739 0.749951 0.538979
O O5 0.553957 0.157027 0.414355
O O6 0.250000 0.250000 0.000000
O O7 0.334543 0.378577 0.191112
O O8 0.000000 0.528594 0.250000
O O9 0.797576 0.422120 0.910598
O O10 0.500000 0.500000 0.000000
#
# Coordination Sequence:
#
# PCOD9274816 Si02
#       4
#     8   8   8   8
#     4  12  23  40  65  97 131 167 217 270 329 386
#     4  10  20  38  65  94 127 167 213 266 322 387
#     4  10  21  39  63  92 132 167 217 265 323 385
#     4  12  24  41  65  95 128 169 218 272 325 389
#
# _framework density 19.350155000000001
#
# number of rings (size 3 to 8) (size 9 to 14) (size 15 to 20)
#    0.000    1.000    5.000    3.000    0.000    0.000 
#    0.000    1.250    0.000    0.000    0.000    0.000 
#    0.000    0.000    0.000    0.000    0.000    0.000 
#
# Total GULP energy -89096.835828 kJ/mol
# GULP energy per Si atom -5568.552239 kJ/mol
# Density = 1.930611 g / cm^3
# Si number density = 19.350155 Si / 1000 Ang^3
#
#
#
# Elastic Constant Matrix: (Units=GPa)
#
#
# Indices 1 2 3 4 5 6 
#
# 1 167.9949 61.0518 69.3913 0.0004 -2.8554 0.0002
# 2 61.0518 137.8039 58.1647 0.0015 2.5841 0.0014
# 3 69.3913 58.1647 89.2122 0.0016 3.9045 0.0001
# 4 0.0004 0.0015 0.0016 48.3254 0.0000 -2.8055
# 5 -2.8554 2.5841 3.9045 0.0000 45.2922 -0.0001
# 6 0.0002 0.0014 0.0001 -2.8055 -0.0001 41.6714
#
#
#
# Elastic Compliance Matrix: (Units=1/GPa)
#
#
# Indices 1 2 3 4 5 6 
#
# 1 0.009030 -0.001430 -0.006143 0.000000 0.001180 0.000000
# 2 -0.001430 0.010238 -0.005555 0.000000 -0.000195 0.000000
# 3 -0.006143 -0.005555 0.019686 0.000000 -0.001767 0.000000
# 4 0.000000 0.000000 0.000000 0.020774 0.000000 0.001399
# 5 0.001180 -0.000195 -0.001767 0.000000 0.022317 0.000000
# 6 0.000000 0.000000 0.000000 0.001399 0.000000 0.024091
#
#
# Mechanical properties :
#
#
# Convention : Reuss Voigt Hill
#
# Bulk Modulus (GPa) = 78.74249 85.80297 82.27273
# Shear Modulus (GPa) = 36.59681 40.81801 38.70741
#
# Velocity S-wave (km/s) = 4.35362 4.59785 4.47740
# Velocity P-wave (km/s) = 8.12735 8.52206 8.32704
#
# Compressibility (1/GPa) = 0.01269962
#
# Stress axis : x y z
#
# Youngs Moduli (GPa) = 110.74715 97.67306 50.79717
#
# Poissons Ratio (x) = 0.13965 0.31204
# Poissons Ratio (y) = 0.15834 0.28215
# Poissons Ratio (z) = 0.68031 0.54253
#
# Static dielectric constant tensor:
#      x y z
#    x 2.204910 0.000010 -0.605750 
#    y 0.000010 1.643640 -0.000010 
#    z -0.605750 -0.000010 2.547960 
# 
# From -- ./inp_files/45690.got.cif
#   From: 2010.05.17/outbox.cif.g08.bks.cpg/sg15_23_cif.got.tgz:45690.got - 2010.06.03 18:47:42.
