data_PCOD9274388
_publ_section_title
;
Structure prediction by ZEFSAII (Michael W. Deem and Ramdas Pophale) SiO2 
 PCOD9274388
Probable space group: C 2/C
;
_chemical_formula_sum "Si O2"
_cell_formula_units_Z 52
_cell_length_a 15.792434
_cell_length_b 9.930357
_cell_length_c 13.059620
_cell_angle_alpha 90.000000
_cell_angle_beta 66.574779
_cell_angle_gamma 90.000000
_cell_volume 1879.266090
_symmetry_space_group_name_H-M "C 2/C"
_symmetry_group_IT_number 15
_symmetry_cell_setting 'monoclinic'
loop_
_space_group_symop_operation_xyz
x,y,z
-x,y,1/2-z
-x,-y,-z
x,-y,1/2+z
1/2+x,1/2+y,z
1/2-x,1/2+y,1/2-z
1/2-x,1/2-y,-z
1/2+x,1/2-y,1/2+z
loop_
_atom_site_type_symbol
_atom_site_label
_atom_site_fract_x
_atom_site_fract_y
_atom_site_fract_z
Si Si1 0.390977 0.439210 0.307946
Si Si2 0.315185 0.921288 0.423806
Si Si3 0.291816 0.427286 0.668313
Si Si4 0.000000 0.191516 0.250000
Si Si5 0.605711 0.835561 0.334231
Si Si6 0.439192 0.815386 0.877273
Si Si7 0.623103 0.866545 0.892210
O O1 0.500000 0.399558 0.250000
O O2 0.331827 0.463771 0.233069
O O3 0.413377 0.595730 0.318655
O O4 0.369208 0.309930 0.387380
O O5 0.220147 0.991833 0.431507
O O6 0.377135 0.052664 0.417706
O O7 0.344849 0.857917 0.300156
O O8 0.322806 0.841169 0.526931
O O9 0.354035 0.294466 0.628939
O O10 0.198960 0.363379 0.763854
O O11 0.007550 0.286452 0.343251
O O12 0.600665 0.974277 0.393434
O O13 0.500000 0.857397 0.750000
O O14 0.525480 0.792815 0.915655
#
# Coordination Sequence:
#
# PCOD9274388 Si02
#       7
#     8   8   8   4   8   8   8
#     4   8  19  36  64  88 119 161 216 242 313 375
#     4  11  24  37  63  93 128 160 213 259 319 374
#     4  10  22  40  62  92 123 172 202 262 316 366
#     4   8  16  34  62  86 106 166 208 246 298 368
#     4  10  20  38  63  83 124 161 206 254 312 367
#     4  11  19  38  63  91 122 167 205 261 314 374
#     4  11  24  39  63  96 125 164 210 262 317 373
#
# _framework density 27.670376999999998
#
# number of rings (size 3 to 8) (size 9 to 14) (size 15 to 20)
#    0.462    1.538    3.077    1.385    4.308    1.231 
#    0.000    0.000    0.000    3.692    0.000    0.000 
#    0.000    0.000    0.000    0.000    0.000    0.000 
#
# Total GULP energy -144773.580082 kJ/mol
# GULP energy per Si atom -5568.214619 kJ/mol
# Density = 2.760740 g / cm^3
# Si number density = 27.670377 Si / 1000 Ang^3
#
#
#
# Elastic Constant Matrix: (Units=GPa)
#
#
# Indices 1 2 3 4 5 6 
#
# 1 111.0588 23.0277 34.8497 0.0000 40.9357 0.0000
# 2 23.0277 128.5709 28.0171 0.0000 22.7978 0.0000
# 3 34.8497 28.0171 130.9171 0.0000 43.3758 0.0000
# 4 0.0000 0.0000 0.0000 8.2212 0.0000 -14.1963
# 5 40.9357 22.7978 43.3758 0.0000 54.4055 0.0000
# 6 0.0000 0.0000 0.0000 -14.1963 0.0000 -9.6580
#
#
#
# Elastic Compliance Matrix: (Units=1/GPa)
#
#
# Indices 1 2 3 4 5 6 
#
# 1 0.012510 -0.000599 -0.000226 0.000000 -0.008981 0.000000
# 2 -0.000599 0.008502 -0.000855 0.000000 -0.002431 0.000000
# 3 -0.000226 -0.000855 0.010473 0.000000 -0.007821 0.000000
# 4 0.000000 0.000000 0.000000 0.034378 0.000000 -0.050532
# 5 -0.008981 -0.002431 -0.007821 0.000000 0.032393 0.000000
# 6 0.000000 0.000000 0.000000 -0.050532 0.000000 -0.029264
#
#
# Mechanical properties :
#
#
# Convention : Reuss Voigt Hill
#
# Bulk Modulus (GPa) = 35.55473 60.25954 47.90713
# Shear Modulus (GPa) = 61.17945 29.57057 45.37501
#
# Velocity S-wave (km/s) = 4.70724 3.27260 4.05389
# Velocity P-wave (km/s) = 6.51317 6.00873 6.26603
#
# Compressibility (1/GPa) = 0.02812566
#
# Stress axis : x y z
#
# Youngs Moduli (GPa) = 79.93692 117.61478 95.48392
#
# Poissons Ratio (x) = 0.07042 0.02160
# Poissons Ratio (y) = 0.04786 0.08162
# Poissons Ratio (z) = 0.01808 0.10054
#
# Static dielectric constant tensor:
#      x y z
#    x 2.366630 0.000000 -0.018380 
#    y 0.000000 2.322350 0.000000 
#    z -0.018380 0.000000 2.386140 
# 
# From -- ./inp_files/160410.got.cif
#   From: 2010.05.17/outbox.cif.g08.bks.cpg/sg15_81_cif.got.tgz:160410.got - 2010.06.03 18:47:42.
