data_PCOD9274898
_publ_section_title
;
Structure prediction by ZEFSAII (Michael W. Deem and Ramdas Pophale) SiO2 
 PCOD9274898
Probable space group: C 2/C
;
_chemical_formula_sum "Si O2"
_cell_formula_units_Z 48
_cell_length_a 10.682798
_cell_length_b 16.417899
_cell_length_c 25.247073
_cell_angle_alpha 90.000000
_cell_angle_beta 34.138306
_cell_angle_gamma 90.000000
_cell_volume 2484.994754
_symmetry_space_group_name_H-M "C 2/C"
_symmetry_group_IT_number 15
_symmetry_cell_setting 'monoclinic'
loop_
_space_group_symop_operation_xyz
x,y,z
-x,y,1/2-z
-x,-y,-z
x,-y,1/2+z
1/2+x,1/2+y,z
1/2-x,1/2+y,1/2-z
1/2-x,1/2-y,-z
1/2+x,1/2-y,1/2+z
loop_
_atom_site_type_symbol
_atom_site_label
_atom_site_fract_x
_atom_site_fract_y
_atom_site_fract_z
Si Si1 0.031635 0.995490 0.075612
Si Si2 0.731395 0.560440 0.736140
Si Si3 0.000000 0.923104 0.750000
Si Si4 0.500000 0.837549 0.750000
Si Si5 0.360374 0.030297 0.371286
Si Si6 0.814961 0.841040 0.918114
Si Si7 0.890231 0.283830 0.123028
O O1 0.821548 0.011919 0.110461
O O2 0.118834 0.081964 0.067684
O O3 0.949903 0.942461 0.153716
O O4 0.222701 0.955310 0.972952
O O5 0.671781 0.484283 0.719145
O O6 0.750721 0.642977 0.697249
O O7 0.973040 0.543823 0.676988
O O8 0.877585 0.869186 0.837269
O O9 0.488221 0.896044 0.703045
O O10 0.284117 0.783242 0.834784
O O11 0.957591 0.762950 0.886905
O O12 0.558696 0.818694 0.019961
#
# Coordination Sequence:
#
# PCOD9274898 Si02
#       7
#     8   8   4   4   8   8   8
#     4  10  20  38  66  91 113 158 211 250 294 355
#     4  11  21  40  61  91 117 159 205 247 295 359
#     4  10  23  42  63  84 126 164 204 242 289 376
#     4  12  21  40  59  90 124 160 190 254 313 348
#     4  11  20  38  67  88 115 158 208 255 289 361
#     4  10  21  43  61  90 122 166 196 244 311 363
#     4  11  23  39  62  89 126 158 197 248 314 355
#
# _framework density 19.315936000000001
#
# number of rings (size 3 to 8) (size 9 to 14) (size 15 to 20)
#    0.000    1.333    5.000    1.500    0.000    0.667 
#    9.000    0.833    0.000    0.000    0.000    0.000 
#    0.000    0.000    0.000    0.000    0.000    0.000 
#
# Total GULP energy -134000.149770 kJ/mol
# GULP energy per Si atom -5583.339574 kJ/mol
# Density = 1.927197 g / cm^3
# Si number density = 19.315936 Si / 1000 Ang^3
#
#
#
# Elastic Constant Matrix: (Units=GPa)
#
#
# Indices 1 2 3 4 5 6 
#
# 1 44.0470 8.8685 27.0121 -0.0057 15.3922 0.0048
# 2 8.8685 69.5102 40.8999 0.0091 19.8786 0.0001
# 3 27.0121 40.8999 125.8286 0.0183 30.0566 -0.0074
# 4 -0.0057 0.0091 0.0183 34.6797 -0.0012 -7.9814
# 5 15.3922 19.8786 30.0566 -0.0012 35.9854 -0.0007
# 6 0.0048 0.0001 -0.0074 -7.9814 -0.0007 20.4303
#
#
#
# Elastic Compliance Matrix: (Units=1/GPa)
#
#
# Indices 1 2 3 4 5 6 
#
# 1 0.028331 0.001640 -0.004377 0.000005 -0.009368 -0.000007
# 2 0.001640 0.019082 -0.004833 -0.000003 -0.007205 -0.000004
# 3 -0.004377 -0.004833 0.011709 -0.000005 -0.005238 0.000003
# 4 0.000005 -0.000003 -0.000005 0.031684 0.000005 0.012378
# 5 -0.009368 -0.007205 -0.005238 0.000005 0.040151 0.000004
# 6 -0.000007 -0.000004 0.000003 0.012378 0.000004 0.053783
#
#
# Mechanical properties :
#
#
# Convention : Reuss Voigt Hill
#
# Bulk Modulus (GPa) = 22.73729 43.66076 33.19902
# Shear Modulus (GPa) = 23.30558 29.05941 26.18250
#
# Velocity S-wave (km/s) = 3.47731 3.88290 3.68569
# Velocity P-wave (km/s) = 5.28385 6.53874 5.94450
#
# Compressibility (1/GPa) = 0.04398062
#
# Stress axis : x y z
#
# Youngs Moduli (GPa) = 35.29722 52.40625 85.40300
#
# Poissons Ratio (x) = -0.08595 0.37383
# Poissons Ratio (y) = -0.05789 0.41278
# Poissons Ratio (z) = 0.15450 0.25330
#
# Static dielectric constant tensor:
#      x y z
#    x 1.696010 0.000000 -0.018470 
#    y 0.000000 1.640480 0.000000 
#    z -0.018470 0.000000 1.683560 
# 
# From -- ./inp_files/143572.got.cif
#   From: 2010.05.17/outbox.cif.g08.bks.cpg/sg15_72_cif.got.tgz:143572.got - 2010.06.03 18:47:42.
