data_PCOD9274152
_publ_section_title
;
Structure prediction by ZEFSAII (Michael W. Deem and Ramdas Pophale) SiO2 
 PCOD9274152
Probable space group: C 2/C
;
_chemical_formula_sum "Si O2"
_cell_formula_units_Z 52
_cell_length_a 30.127922
_cell_length_b 16.191374
_cell_length_c 9.691344
_cell_angle_alpha 90.000000
_cell_angle_beta 34.065831
_cell_angle_gamma 90.000000
_cell_volume 2648.118476
_symmetry_space_group_name_H-M "C 2/C"
_symmetry_group_IT_number 15
_symmetry_cell_setting 'monoclinic'
loop_
_space_group_symop_operation_xyz
x,y,z
-x,y,1/2-z
-x,-y,-z
x,-y,1/2+z
1/2+x,1/2+y,z
1/2-x,1/2+y,1/2-z
1/2-x,1/2-y,-z
1/2+x,1/2-y,1/2+z
loop_
_atom_site_type_symbol
_atom_site_label
_atom_site_fract_x
_atom_site_fract_y
_atom_site_fract_z
Si Si1 0.925873 0.810802 0.200042
Si Si2 0.741964 0.481680 0.006923
Si Si3 0.885306 0.433385 0.988602
Si Si4 0.500000 0.207670 0.250000
Si Si5 0.500000 0.591915 0.250000
Si Si6 0.136911 0.976612 0.024719
Si Si7 0.852772 0.348644 0.786926
Si Si8 0.500000 0.073183 0.750000
O O1 0.983949 0.759773 0.152835
O O2 0.891128 0.882713 0.386386
O O3 0.861209 0.746353 0.307292
O O4 0.966171 0.853029 0.962920
O O5 0.816612 0.532905 0.761893
O O6 0.668122 0.498141 0.096458
O O7 0.774881 0.387130 0.915528
O O8 0.711470 0.509844 0.233383
O O9 0.854558 0.400026 0.923726
O O10 0.927419 0.355928 0.952951
O O11 0.946869 0.508029 0.800133
O O12 0.432631 0.534096 0.355116
O O13 0.934421 0.372495 0.497235
#
# Coordination Sequence:
#
# PCOD9274152 Si02
#       8
#     8   8   8   4   4   8   8   4
#     4  11  24  42  65  95 125 164 213 266 311 362
#     4  11  23  42  67  93 127 167 210 256 319 378
#     4   9  18  37  61  95 129 167 207 252 306 378
#     4   9  21  40  65  95 132 164 212 257 309 366
#     4  12  26  46  68  90 120 168 220 262 306 376
#     4  12  25  45  66  91 121 168 220 258 308 381
#     4  10  20  38  61  95 133 159 205 261 315 366
#     4   9  17  30  61  91 126 176 204 243 299 384
#
# _framework density 19.636583999999999
#
# number of rings (size 3 to 8) (size 9 to 14) (size 15 to 20)
#    0.000    1.538    3.077    1.846    2.154    1.846 
#    2.769    3.077    0.000    0.000    0.000    0.000 
#    0.000    0.000    0.000    0.000    0.000    0.000 
#
# Total GULP energy -144996.300031 kJ/mol
# GULP energy per Si atom -5576.780770 kJ/mol
# Density = 1.959189 g / cm^3
# Si number density = 19.636584 Si / 1000 Ang^3
#
#
#
# Elastic Constant Matrix: (Units=GPa)
#
#
# Indices 1 2 3 4 5 6 
#
# 1 82.8705 60.2686 25.5101 0.0000 -5.1429 0.0000
# 2 60.2686 106.5020 30.5689 0.0000 2.5287 0.0000
# 3 25.5101 30.5689 65.8366 0.0000 7.6038 0.0000
# 4 0.0000 0.0000 0.0000 30.3942 0.0000 8.4239
# 5 -5.1429 2.5287 7.6038 0.0000 22.7342 0.0000
# 6 0.0000 0.0000 0.0000 8.4239 0.0000 30.1000
#
#
#
# Elastic Compliance Matrix: (Units=1/GPa)
#
#
# Indices 1 2 3 4 5 6 
#
# 1 0.022240 -0.011583 -0.004129 0.000000 0.007700 0.000000
# 2 -0.011583 0.016872 -0.002940 0.000000 -0.003514 0.000000
# 3 -0.004129 -0.002940 0.018956 0.000000 -0.006947 0.000000
# 4 0.000000 0.000000 0.000000 0.035668 0.000000 -0.009982
# 5 0.007700 -0.003514 -0.006947 0.000000 0.048443 0.000000
# 6 0.000000 0.000000 0.000000 -0.009982 0.000000 0.036016
#
#
# Mechanical properties :
#
#
# Convention : Reuss Voigt Hill
#
# Bulk Modulus (GPa) = 48.15856 54.21159 51.18507
# Shear Modulus (GPa) = 22.48014 25.90309 24.19161
#
# Velocity S-wave (km/s) = 3.38717 3.63592 3.51375
# Velocity P-wave (km/s) = 6.31470 6.73007 6.52569
#
# Compressibility (1/GPa) = 0.02076474
#
# Stress axis : x y z
#
# Youngs Moduli (GPa) = 44.96444 59.27152 52.75337
#
# Poissons Ratio (x) = 0.68655 0.21779
# Poissons Ratio (y) = 0.52083 0.15508
# Poissons Ratio (z) = 0.18564 0.17424
#
# Static dielectric constant tensor:
#      x y z
#    x 1.738360 0.000000 -0.028990 
#    y 0.000000 1.699600 0.000000 
#    z -0.028990 0.000000 1.660160 
# 
# From -- ./inp_files/70108.got.cif
#   From: 2010.05.17/outbox.cif.g08.bks.cpg/sg15_36_cif.got.tgz:70108.got - 2010.06.03 18:47:42.
