data_PCOD9274241
_publ_section_title
;
Structure prediction by ZEFSAII (Michael W. Deem and Ramdas Pophale) SiO2 
 PCOD9274241
Probable space group: C 2/C
;
_chemical_formula_sum "Si O2"
_cell_formula_units_Z 48
_cell_length_a 11.762217
_cell_length_b 13.559601
_cell_length_c 18.173313
_cell_angle_alpha 90.000000
_cell_angle_beta 114.310061
_cell_angle_gamma 90.000000
_cell_volume 2641.474051
_symmetry_space_group_name_H-M "C 2/C"
_symmetry_group_IT_number 15
_symmetry_cell_setting 'monoclinic'
loop_
_space_group_symop_operation_xyz
x,y,z
-x,y,1/2-z
-x,-y,-z
x,-y,1/2+z
1/2+x,1/2+y,z
1/2-x,1/2+y,1/2-z
1/2-x,1/2-y,-z
1/2+x,1/2-y,1/2+z
loop_
_atom_site_type_symbol
_atom_site_label
_atom_site_fract_x
_atom_site_fract_y
_atom_site_fract_z
Si Si1 0.703042 0.861221 0.497555
Si Si2 0.053971 0.155674 0.684144
Si Si3 0.416258 0.014766 0.659025
Si Si4 0.799984 0.035746 0.292273
Si Si5 0.889736 0.368051 0.865368
Si Si6 0.545487 0.484692 0.928898
O O1 0.750000 0.750000 0.500000
O O2 0.627782 0.899899 0.407019
O O3 0.624285 0.871992 0.551075
O O4 0.824682 0.929977 0.537741
O O5 0.089370 0.255960 0.654035
O O6 0.954931 0.091269 0.610823
O O7 0.000000 0.176152 0.750000
O O8 0.169619 0.078622 0.719514
O O9 0.500000 0.050121 0.750000
O O10 0.295887 0.964689 0.665151
O O11 0.498541 0.935627 0.636166
O O12 0.735265 0.091432 0.208059
O O13 0.935388 0.072616 0.355303
O O14 0.500000 0.500000 0.000000
#
# Coordination Sequence:
#
# PCOD9274241 Si02
#       6
#     8   8   8   8   8   8
#     4  12  23  41  62  89 124 159 201 250 299 357
#     4  10  20  38  62  88 122 158 201 243 294 357
#     4  10  21  41  62  87 124 157 197 249 305 357
#     4   9  20  38  62  90 116 159 199 246 297 352
#     4  11  22  38  64  90 124 160 198 249 302 357
#     4  10  20  39  64  86 123 158 203 249 297 356
#
# _framework density 18.171672000000001
#
# number of rings (size 3 to 8) (size 9 to 14) (size 15 to 20)
#    1.000    0.667    1.667    5.000    0.000    0.000 
#    9.000    0.833    0.000    0.000    0.000    0.000 
#    0.000    0.000    0.000    0.000    0.000    0.000 
#
# Total GULP energy -133812.918679 kJ/mol
# GULP energy per Si atom -5575.538278 kJ/mol
# Density = 1.813031 g / cm^3
# Si number density = 18.171672 Si / 1000 Ang^3
#
#
#
# Elastic Constant Matrix: (Units=GPa)
#
#
# Indices 1 2 3 4 5 6 
#
# 1 81.8650 28.9823 38.9476 0.0000 -4.5886 0.0000
# 2 28.9823 112.2359 52.4857 0.0000 12.1484 0.0000
# 3 38.9476 52.4857 114.4261 0.0000 -9.6997 0.0000
# 4 0.0000 0.0000 0.0000 26.7400 0.0000 -0.5649
# 5 -4.5886 12.1484 -9.6997 0.0000 37.4140 0.0000
# 6 0.0000 0.0000 0.0000 -0.5649 0.0000 30.3221
#
#
#
# Elastic Compliance Matrix: (Units=1/GPa)
#
#
# Indices 1 2 3 4 5 6 
#
# 1 0.014956 -0.002170 -0.003967 0.000000 0.001510 0.000000
# 2 -0.002170 0.012717 -0.005590 0.000000 -0.005845 0.000000
# 3 -0.003967 -0.005590 0.013053 0.000000 0.004713 0.000000
# 4 0.000000 0.000000 0.000000 0.037412 0.000000 0.000697
# 5 0.001510 -0.005845 0.004713 0.000000 0.030033 0.000000
# 6 0.000000 0.000000 0.000000 0.000697 0.000000 0.032992
#
#
# Mechanical properties :
#
#
# Convention : Reuss Voigt Hill
#
# Bulk Modulus (GPa) = 57.89963 61.03981 59.46972
# Shear Modulus (GPa) = 29.34735 31.43599 30.39167
#
# Velocity S-wave (km/s) = 4.02307 4.16377 4.09403
# Velocity P-wave (km/s) = 7.31518 7.53522 7.42602
#
# Compressibility (1/GPa) = 0.01727127
#
# Stress axis : x y z
#
# Youngs Moduli (GPa) = 66.86491 78.63589 76.61125
#
# Poissons Ratio (x) = 0.17067 0.30391
# Poissons Ratio (y) = 0.14512 0.42824
# Poissons Ratio (z) = 0.26525 0.43956
#
# Static dielectric constant tensor:
#      x y z
#    x 1.628670 0.000000 0.008150 
#    y 0.000000 1.594170 0.000000 
#    z 0.008150 0.000000 1.645500 
# 
# From -- ./inp_files/197393.got.cif
#   From: 2010.05.17/outbox.cif.g08.bks.cpg/sg15_99_cif.got.tgz:197393.got - 2010.06.03 18:47:42.
