data_PCOD9274841
_publ_section_title
;
Structure prediction by ZEFSAII (Michael W. Deem and Ramdas Pophale) SiO2 
 PCOD9274841
Probable space group: C 2/C
;
_chemical_formula_sum "Si O2"
_cell_formula_units_Z 44
_cell_length_a 18.204695
_cell_length_b 11.215051
_cell_length_c 12.775067
_cell_angle_alpha 90.000000
_cell_angle_beta 36.176823
_cell_angle_gamma 90.000000
_cell_volume 1539.590847
_symmetry_space_group_name_H-M "C 2/C"
_symmetry_group_IT_number 15
_symmetry_cell_setting 'monoclinic'
loop_
_space_group_symop_operation_xyz
x,y,z
-x,y,1/2-z
-x,-y,-z
x,-y,1/2+z
1/2+x,1/2+y,z
1/2-x,1/2+y,1/2-z
1/2-x,1/2-y,-z
1/2+x,1/2-y,1/2+z
loop_
_atom_site_type_symbol
_atom_site_label
_atom_site_fract_x
_atom_site_fract_y
_atom_site_fract_z
Si Si1 0.908066 0.893474 0.684445
Si Si2 0.424696 0.205347 0.058846
Si Si3 0.346398 0.973414 0.063428
Si Si4 0.500000 0.428806 0.250000
Si Si5 0.215408 0.664870 0.667559
Si Si6 0.276764 0.097294 0.424363
O O1 0.790878 0.964484 0.772657
O O2 0.857935 0.773803 0.802188
O O3 0.990188 0.819614 0.507715
O O4 0.984048 0.981528 0.669605
O O5 0.441484 0.082284 0.970366
O O6 0.334313 0.275734 0.082489
O O7 0.352732 0.157949 0.244102
O O8 0.359858 0.881460 0.142446
O O9 0.345797 0.904036 0.955779
O O10 0.367194 0.361895 0.405995
O O11 0.235932 0.545305 0.581025
#
# Coordination Sequence:
#
# PCOD9274841 Si02
#       6
#     8   8   8   4   8   8
#     4  10  21  37  65  95 123 165 217 262 318 375
#     4  10  21  39  62  94 128 167 213 266 317 377
#     4   9  22  38  60  90 129 165 210 267 310 382
#     4  10  20  38  66 100 122 172 216 262 312 384
#     4  10  21  40  60  90 131 164 217 262 319 372
#     4  10  21  39  61  93 130 166 213 268 315 373
#
# _framework density 28.579022999999999
#
# number of rings (size 3 to 8) (size 9 to 14) (size 15 to 20)
#    0.000    2.182    1.818    0.000    2.545    6.545 
#    9.818    2.727    0.000    0.000    0.000    0.000 
#    0.000    0.000    0.000    0.000    0.000    0.000 
#
# Total GULP energy -123162.754856 kJ/mol
# GULP energy per Si atom -5598.307039 kJ/mol
# Density = 2.851398 g / cm^3
# Si number density = 28.579023 Si / 1000 Ang^3
#
#
#
# Elastic Constant Matrix: (Units=GPa)
#
#
# Indices 1 2 3 4 5 6 
#
# 1 142.1158 42.7886 17.3424 0.0000 8.0130 0.0000
# 2 42.7886 178.8368 28.6877 0.0000 19.5840 0.0000
# 3 17.3424 28.6877 89.6040 0.0000 6.5185 0.0000
# 4 0.0000 0.0000 0.0000 58.5548 0.0000 18.0827
# 5 8.0130 19.5840 6.5185 0.0000 35.0142 0.0000
# 6 0.0000 0.0000 0.0000 18.0827 0.0000 5.1375
#
#
#
# Elastic Compliance Matrix: (Units=1/GPa)
#
#
# Indices 1 2 3 4 5 6 
#
# 1 0.007673 -0.001614 -0.000919 0.000000 -0.000682 0.000000
# 2 -0.001614 0.006559 -0.001569 0.000000 -0.003007 0.000000
# 3 -0.000919 -0.001569 0.011923 0.000000 -0.001132 0.000000
# 4 0.000000 0.000000 0.000000 -0.196392 0.000000 0.691250
# 5 -0.000682 -0.003007 -0.001132 0.000000 0.030609 0.000000
# 6 0.000000 0.000000 0.000000 0.691250 0.000000 -2.238378
#
#
# Mechanical properties :
#
#
# Convention : Reuss Voigt Hill
#
# Bulk Modulus (GPa) = 55.70471 65.35489 60.52980
# Shear Modulus (GPa) = -2.11522 41.19050 19.53764
#
# Velocity S-wave (km/s) = -0.86124 3.80054 2.61748
# Velocity P-wave (km/s) = 4.30637 6.49435 5.51006
#
# Compressibility (1/GPa) = 0.01795180
#
# Stress axis : x y z
#
# Youngs Moduli (GPa) = 130.32757 152.46829 83.87403
#
# Poissons Ratio (x) = 0.24604 0.07706
# Poissons Ratio (y) = 0.21031 0.13158
# Poissons Ratio (z) = 0.11974 0.23919
#
# Static dielectric constant tensor:
#      x y z
#    x 2.201430 0.000000 -0.121500 
#    y 0.000000 2.176640 0.000000 
#    z -0.121500 0.000000 2.695500 
# 
# From -- ./inp_files/112857.got.cif
#   From: 2010.05.17/outbox.cif.g08.bks.cpg/sg15_57_cif.got.tgz:112857.got - 2010.06.03 18:47:42.
