data_PCOD9274201
_publ_section_title
;
Structure prediction by ZEFSAII (Michael W. Deem and Ramdas Pophale) SiO2 
 PCOD9274201
Probable space group: C 2/C
;
_chemical_formula_sum "Si O2"
_cell_formula_units_Z 56
_cell_length_a 12.035956
_cell_length_b 17.377164
_cell_length_c 16.648064
_cell_angle_alpha 90.000000
_cell_angle_beta 52.632190
_cell_angle_gamma 90.000000
_cell_volume 2767.304166
_symmetry_space_group_name_H-M "C 2/C"
_symmetry_group_IT_number 15
_symmetry_cell_setting 'monoclinic'
loop_
_space_group_symop_operation_xyz
x,y,z
-x,y,1/2-z
-x,-y,-z
x,-y,1/2+z
1/2+x,1/2+y,z
1/2-x,1/2+y,1/2-z
1/2-x,1/2-y,-z
1/2+x,1/2-y,1/2+z
loop_
_atom_site_type_symbol
_atom_site_label
_atom_site_fract_x
_atom_site_fract_y
_atom_site_fract_z
Si Si1 0.500000 0.151231 0.250000
Si Si2 0.793514 0.390677 0.606433
Si Si3 0.917711 0.326213 0.955675
Si Si4 0.697511 0.441824 0.103103
Si Si5 0.887371 0.081990 0.683263
Si Si6 0.215277 0.076633 0.318030
Si Si7 0.997708 0.817635 0.998929
Si Si8 0.750000 0.250000 0.500000
O O1 0.538446 0.197469 0.153303
O O2 0.365169 0.100505 0.286988
O O3 0.769115 0.474728 0.578540
O O4 0.710428 0.393605 0.727675
O O5 0.750141 0.322919 0.565868
O O6 0.953964 0.374637 0.561857
O O7 0.901185 0.250561 0.015901
O O8 0.786318 0.382136 0.012702
O O9 0.684200 0.406256 0.198895
O O10 0.542333 0.449260 0.136169
O O11 0.908589 0.153003 0.614649
O O12 0.803046 0.014730 0.676203
O O13 0.090927 0.114596 0.422369
O O14 0.890262 0.784804 0.981663
#
# Coordination Sequence:
#
# PCOD9274201 Si02
#       8
#     4   8   8   8   8   8   8   4
#     4  10  22  38  58  84 116 150 196 244 294 350
#     4   9  20  39  60  85 118 154 201 245 297 366
#     4  10  22  37  58  85 116 158 196 243 296 354
#     4  10  20  38  62  86 118 157 192 243 308 356
#     4  10  22  37  59  90 118 150 198 247 295 366
#     4  10  21  39  62  88 119 157 197 246 303 361
#     4  11  23  39  59  87 121 155 203 248 299 364
#     4  10  22  38  58  84 118 160 196 250 302 348
#
# _framework density 20.236301999999998
#
# number of rings (size 3 to 8) (size 9 to 14) (size 15 to 20)
#    0.000    2.000    0.000    2.571    0.000    9.714 
#    0.000    4.286    0.000    3.429    0.000    0.000 
#    0.000    0.000    0.000    0.000    0.000    0.000 
#
# Total GULP energy -155875.817204 kJ/mol
# GULP energy per Si atom -5566.993472 kJ/mol
# Density = 2.019024 g / cm^3
# Si number density = 20.236302 Si / 1000 Ang^3
#
#
#
# Elastic Constant Matrix: (Units=GPa)
#
#
# Indices 1 2 3 4 5 6 
#
# 1 77.0745 16.1929 5.4695 0.0000 10.0599 0.0000
# 2 16.1929 36.4510 22.8613 0.0000 9.9615 0.0000
# 3 5.4695 22.8613 57.4051 0.0000 2.3717 0.0000
# 4 0.0000 0.0000 0.0000 -2.8731 0.0000 1.2811
# 5 10.0599 9.9615 2.3717 0.0000 12.3813 0.0000
# 6 0.0000 0.0000 0.0000 1.2811 0.0000 19.6413
#
#
#
# Elastic Compliance Matrix: (Units=1/GPa)
#
#
# Indices 1 2 3 4 5 6 
#
# 1 0.015048 -0.004934 0.000879 0.000000 -0.008426 0.000000
# 2 -0.004934 0.049863 -0.018039 0.000000 -0.032654 0.000000
# 3 0.000879 -0.018039 0.024141 0.000000 0.009174 0.000000
# 4 0.000000 0.000000 0.000000 -0.338215 0.000000 0.022059
# 5 -0.008426 -0.032654 0.009174 0.000000 0.112127 0.000000
# 6 0.000000 0.000000 0.000000 0.022059 0.000000 0.049474
#
#
# Mechanical properties :
#
#
# Convention : Reuss Voigt Hill
#
# Bulk Modulus (GPa) = 22.28858 28.88646 25.58752
# Shear Modulus (GPa) = -175.93315 14.25703 -80.83806
#
# Velocity S-wave (km/s) = -9.33424 2.65717 -6.32722
# Velocity P-wave (km/s) = 10.25343 4.87028 6.38017
#
# Compressibility (1/GPa) = 0.04486603
#
# Stress axis : x y z
#
# Youngs Moduli (GPa) = 66.45241 20.05494 41.42334
#
# Poissons Ratio (x) = 0.09895 -0.03642
# Poissons Ratio (y) = 0.32787 0.74722
# Poissons Ratio (z) = -0.05842 0.36176
#
# Static dielectric constant tensor:
#      x y z
#    x 1.695980 0.000000 0.019040 
#    y 0.000000 1.686290 0.000000 
#    z 0.019040 0.000000 1.721940 
# 
# From -- ./inp_files/199491.got.cif
#   From: 2010.05.17/outbox.cif.g08.bks.cpg/sg15_100_cif.got.tgz:199491.got - 2010.06.03 18:47:42.
