data_PCOD9274293
_publ_section_title
;
Structure prediction by ZEFSAII (Michael W. Deem and Ramdas Pophale) SiO2 
 PCOD9274293
Probable space group: C 2/C
;
_chemical_formula_sum "Si O2"
_cell_formula_units_Z 60
_cell_length_a 15.909445
_cell_length_b 7.776681
_cell_length_c 20.761680
_cell_angle_alpha 90.000000
_cell_angle_beta 103.514000
_cell_angle_gamma 90.000000
_cell_volume 2497.570939
_symmetry_space_group_name_H-M "C 2/C"
_symmetry_group_IT_number 15
_symmetry_cell_setting 'monoclinic'
loop_
_space_group_symop_operation_xyz
x,y,z
-x,y,1/2-z
-x,-y,-z
x,-y,1/2+z
1/2+x,1/2+y,z
1/2-x,1/2+y,1/2-z
1/2-x,1/2-y,-z
1/2+x,1/2-y,1/2+z
loop_
_atom_site_type_symbol
_atom_site_label
_atom_site_fract_x
_atom_site_fract_y
_atom_site_fract_z
Si Si1 0.796719 0.893098 0.375249
Si Si2 0.768049 0.750033 0.099316
Si Si3 0.007150 0.682995 0.931975
Si Si4 0.111030 0.750771 0.835217
Si Si5 0.500000 0.049391 0.250000
Si Si6 0.393615 0.887734 0.847062
Si Si7 0.205219 0.026226 0.776275
Si Si8 0.880033 0.365790 0.508824
O O1 0.706666 0.799971 0.376381
O O2 0.876487 0.762757 0.395529
O O3 0.799471 0.930655 0.299042
O O4 0.788599 0.076310 0.407261
O O5 0.793058 0.814297 0.174132
O O6 0.706572 0.880354 0.049594
O O7 0.851296 0.716367 0.070785
O O8 0.050087 0.799034 0.884570
O O9 0.938404 0.556405 0.884107
O O10 0.951806 0.743022 0.982849
O O11 0.079955 0.550826 0.969242
O O12 0.069614 0.581915 0.794484
O O13 0.129998 0.897600 0.786337
O O14 0.546297 0.157971 0.202863
O O15 0.298915 0.940343 0.805045
#
# Coordination Sequence:
#
# PCOD9274293 Si02
#       8
#     8   8   8   8   4   8   8   8
#     4  11  22  38  63  95 126 167 206 255 311 390
#     4  11  22  42  62  94 124 165 202 258 312 377
#     4  10  20  42  62  88 115 165 209 265 304 365
#     4  10  21  37  62  89 123 165 213 249 318 371
#     4  10  20  38  62  90 128 168 200 272 310 378
#     4  10  21  37  62  89 123 165 213 249 318 371
#     4  11  22  38  63  95 126 167 206 255 311 390
#     4  10  22  40  66  84 126 168 204 256 318 358
#
# _framework density 24.023342
#
# number of rings (size 3 to 8) (size 9 to 14) (size 15 to 20)
#    0.000    1.600    4.000    1.600    0.000    0.000 
#    0.000   12.667    0.000    0.000    0.000    0.000 
#    0.000    0.000    0.000    0.000    0.000    0.000 
#
# Total GULP energy -167711.538139 kJ/mol
# GULP energy per Si atom -5590.384605 kJ/mol
# Density = 2.396866 g / cm^3
# Si number density = 24.023342 Si / 1000 Ang^3
#
#
#
# Elastic Constant Matrix: (Units=GPa)
#
#
# Indices 1 2 3 4 5 6 
#
# 1 143.6061 42.4693 47.5918 0.0000 -46.7796 0.0000
# 2 42.4693 38.4736 -1.2037 0.0000 -13.1124 0.0000
# 3 47.5918 -1.2037 64.4768 0.0000 -25.3838 0.0000
# 4 0.0000 0.0000 0.0000 22.5631 0.0000 -6.0238
# 5 -46.7796 -13.1124 -25.3838 0.0000 54.6633 0.0000
# 6 0.0000 0.0000 0.0000 -6.0238 0.0000 39.6710
#
#
#
# Elastic Compliance Matrix: (Units=1/GPa)
#
#
# Indices 1 2 3 4 5 6 
#
# 1 0.018009 -0.018277 -0.011372 0.000000 0.005747 0.000000
# 2 -0.018277 0.047687 0.015574 0.000000 0.003030 0.000000
# 3 -0.011372 0.015574 0.026718 0.000000 0.006411 0.000000
# 4 0.000000 0.000000 0.000000 0.046193 0.000000 0.007014
# 5 0.005747 0.003030 0.006411 0.000000 0.026916 0.000000
# 6 0.000000 0.000000 0.000000 0.007014 0.000000 0.026272
#
#
# Mechanical properties :
#
#
# Convention : Reuss Voigt Hill
#
# Bulk Modulus (GPa) = 15.56083 47.14125 31.35104
# Shear Modulus (GPa) = 20.71542 33.89275 27.30408
#
# Velocity S-wave (km/s) = 2.93969 3.76017 3.37495
# Velocity P-wave (km/s) = 4.24426 6.20625 5.31655
#
# Compressibility (1/GPa) = 0.06426394
#
# Stress axis : x y z
#
# Youngs Moduli (GPa) = 55.52669 20.97022 37.42826
#
# Poissons Ratio (x) = 0.38327 0.42562
# Poissons Ratio (y) = 1.01485 -0.58289
# Poissons Ratio (z) = 0.63143 -0.32658
#
# Static dielectric constant tensor:
#      x y z
#    x 1.915200 0.000000 -0.010970 
#    y 0.000000 1.969220 0.000000 
#    z -0.010970 0.000000 1.965230 
# 
# From -- ./inp_files/272807.got.cif
#   From: 2010.05.17/outbox.cif.g08.bks.cpg/sg15_137_cif.got.tgz:272807.got - 2010.06.03 18:47:42.
