data_PCOD9274780
_publ_section_title
;
Structure prediction by ZEFSAII (Michael W. Deem and Ramdas Pophale) SiO2 
 PCOD9274780
Probable space group: C 2/C
;
_chemical_formula_sum "Si O2"
_cell_formula_units_Z 56
_cell_length_a 16.953716
_cell_length_b 6.071662
_cell_length_c 25.391470
_cell_angle_alpha 90.000000
_cell_angle_beta 115.386006
_cell_angle_gamma 90.000000
_cell_volume 2361.346202
_symmetry_space_group_name_H-M "C 2/C"
_symmetry_group_IT_number 15
_symmetry_cell_setting 'monoclinic'
loop_
_space_group_symop_operation_xyz
x,y,z
-x,y,1/2-z
-x,-y,-z
x,-y,1/2+z
1/2+x,1/2+y,z
1/2-x,1/2+y,1/2-z
1/2-x,1/2-y,-z
1/2+x,1/2-y,1/2+z
loop_
_atom_site_type_symbol
_atom_site_label
_atom_site_fract_x
_atom_site_fract_y
_atom_site_fract_z
Si Si1 0.889739 0.312151 0.534118
Si Si2 0.359140 0.085154 0.627338
Si Si3 0.485052 0.655947 0.299694
Si Si4 0.227599 0.137562 0.160401
Si Si5 0.338648 0.980747 0.291562
Si Si6 0.761972 0.944563 0.546188
Si Si7 0.057501 0.860117 0.119854
O O1 0.892797 0.492594 0.581645
O O2 0.830333 0.429212 0.472613
O O3 0.989183 0.230536 0.557112
O O4 0.829565 0.114338 0.538967
O O5 0.443456 0.152004 0.683820
O O6 0.303313 0.309119 0.605670
O O7 0.298022 0.903493 0.635796
O O8 0.500000 0.524006 0.250000
O O9 0.393904 0.776906 0.283836
O O10 0.497769 0.511238 0.355406
O O11 0.207519 0.386798 0.169603
O O12 0.271737 0.048119 0.227084
O O13 0.138797 0.004217 0.122366
O O14 0.400813 0.173410 0.330516
O O15 0.750000 0.750000 0.500000
#
# Coordination Sequence:
#
# PCOD9274780 Si02
#       7
#     8   8   8   8   8   8   8
#     4  10  20  38  65  91 115 158 203 252 320 364
#     4  11  21  38  61  93 119 155 208 260 300 368
#     4  11  22  35  60  90 121 159 212 256 298 365
#     4  11  24  37  59  84 127 166 202 245 305 360
#     4  11  22  40  54  85 126 169 200 246 303 366
#     4   9  20  38  64  92 120 147 201 266 312 362
#     4  11  23  39  58  86 123 169 199 246 310 371
#
# _framework density 23.715287
#
# number of rings (size 3 to 8) (size 9 to 14) (size 15 to 20)
#    0.000    1.429    5.714    0.000    0.000    2.857 
#    0.000    0.714    0.000    8.571    0.000    0.000 
#    0.000    0.000    0.000    0.000    0.000    0.000 
#
# Total GULP energy -156417.675391 kJ/mol
# GULP energy per Si atom -5586.345550 kJ/mol
# Density = 2.366131 g / cm^3
# Si number density = 23.715287 Si / 1000 Ang^3
#
#
#
# Elastic Constant Matrix: (Units=GPa)
#
#
# Indices 1 2 3 4 5 6 
#
# 1 63.7354 -2.2877 17.2459 0.0000 17.1681 0.0000
# 2 -2.2877 51.6474 4.3729 0.0000 9.6581 -0.0001
# 3 17.2459 4.3729 49.2712 0.0000 33.3222 0.0000
# 4 0.0000 0.0000 0.0000 33.2624 0.0000 0.3155
# 5 17.1681 9.6581 33.3222 0.0000 40.8289 0.0000
# 6 0.0000 -0.0001 0.0000 0.3155 0.0000 19.5128
#
#
#
# Elastic Compliance Matrix: (Units=1/GPa)
#
#
# Indices 1 2 3 4 5 6 
#
# 1 0.018068 0.002160 -0.002304 0.000000 -0.006228 0.000000
# 2 0.002160 0.020748 0.002982 0.000000 -0.008250 0.000000
# 3 -0.002304 0.002982 0.046111 0.000000 -0.037370 0.000000
# 4 0.000000 0.000000 0.000000 0.030069 0.000000 -0.000486
# 5 -0.006228 -0.008250 -0.037370 0.000000 0.059562 0.000000
# 6 0.000000 0.000000 0.000000 -0.000486 0.000000 0.051256
#
#
# Mechanical properties :
#
#
# Convention : Reuss Voigt Hill
#
# Bulk Modulus (GPa) = 11.03710 22.59070 16.81390
# Shear Modulus (GPa) = 19.97293 28.40900 24.19096
#
# Velocity S-wave (km/s) = 2.90521 3.46485 3.19730
# Velocity P-wave (km/s) = 3.98971 5.05504 4.55363
#
# Compressibility (1/GPa) = 0.09060354
#
# Stress axis : x y z
#
# Youngs Moduli (GPa) = 55.34503 48.19741 21.68692
#
# Poissons Ratio (x) = -0.10411 0.04996
# Poissons Ratio (y) = -0.11955 -0.06467
# Poissons Ratio (z) = 0.12751 -0.14372
#
# Static dielectric constant tensor:
#      x y z
#    x 1.924430 0.000000 -0.009740 
#    y 0.000000 1.907870 0.000000 
#    z -0.009740 0.000000 1.952580 
# 
# From -- ./inp_files/315128.got.cif
#   From: 2010.05.17/outbox.cif.g08.bks.cpg/sg15_158_cif.got.tgz:315128.got - 2010.06.03 18:47:42.
