data_PCOD9274520
_publ_section_title
;
Structure prediction by ZEFSAII (Michael W. Deem and Ramdas Pophale) SiO2 
 PCOD9274520
Probable space group: C 2/C
;
_chemical_formula_sum "Si O2"
_cell_formula_units_Z 52
_cell_length_a 8.906025
_cell_length_b 11.985602
_cell_length_c 20.697088
_cell_angle_alpha 90.000000
_cell_angle_beta 113.607919
_cell_angle_gamma 90.000000
_cell_volume 2024.390060
_symmetry_space_group_name_H-M "C 2/C"
_symmetry_group_IT_number 15
_symmetry_cell_setting 'monoclinic'
loop_
_space_group_symop_operation_xyz
x,y,z
-x,y,1/2-z
-x,-y,-z
x,-y,1/2+z
1/2+x,1/2+y,z
1/2-x,1/2+y,1/2-z
1/2-x,1/2-y,-z
1/2+x,1/2-y,1/2+z
loop_
_atom_site_type_symbol
_atom_site_label
_atom_site_fract_x
_atom_site_fract_y
_atom_site_fract_z
Si Si1 0.128758 0.403164 0.501074
Si Si2 0.363839 0.260624 0.958339
Si Si3 0.500000 0.792886 0.750000
Si Si4 0.862678 0.352729 0.149495
Si Si5 0.375019 0.402939 0.653332
Si Si6 0.790034 0.067699 0.350504
Si Si7 0.267167 0.876157 0.310352
O O1 0.154337 0.386030 0.429683
O O2 0.291292 0.423989 0.569310
O O3 0.000000 0.500000 0.500000
O O4 0.040555 0.287660 0.506433
O O5 0.357071 0.384798 0.929520
O O6 0.301931 0.184739 0.886551
O O7 0.250000 0.250000 0.000000
O O8 0.388907 0.875193 0.687949
O O9 0.360916 0.704770 0.747329
O O10 0.830798 0.224578 0.160825
O O11 0.739124 0.438025 0.160260
O O12 0.056262 0.377738 0.192671
O O13 0.570317 0.400293 0.676691
O O14 0.304587 0.502020 0.685425
#
# Coordination Sequence:
#
# PCOD9274520 Si02
#       7
#     8   8   4   8   8   8   8
#     4  11  20  39  63  92 149 176 207 270 327 401
#     4  10  20  38  63  98 131 179 214 260 332 395
#     4  10  22  52  70  90 132 180 216 290 334 384
#     4  11  23  44  63 102 132 177 218 272 328 401
#     4  12  23  43  65 104 132 176 224 269 332 402
#     4  11  25  42  70  97 135 172 228 279 327 391
#     4  10  23  44  70  90 134 175 221 271 337 389
#
# _framework density 25.68675
#
# number of rings (size 3 to 8) (size 9 to 14) (size 15 to 20)
#    0.000    1.231    7.692    1.385    0.000    3.077 
#    2.769    0.769    0.000    0.000    0.000    0.000 
#    0.000    0.000    0.000    0.000    0.000    0.000 
#
# Total GULP energy -145479.825570 kJ/mol
# GULP energy per Si atom -5595.377907 kJ/mol
# Density = 2.562829 g / cm^3
# Si number density = 25.686750 Si / 1000 Ang^3
#
#
#
# Elastic Constant Matrix: (Units=GPa)
#
#
# Indices 1 2 3 4 5 6 
#
# 1 73.9752 50.9050 43.9620 0.0000 1.5994 0.0000
# 2 50.9050 177.2092 1.3397 0.0000 -0.8460 0.0000
# 3 43.9620 1.3397 83.8835 0.0000 11.2382 0.0000
# 4 0.0000 0.0000 0.0000 38.4020 0.0000 1.0493
# 5 1.5994 -0.8460 11.2382 0.0000 37.4422 0.0000
# 6 0.0000 0.0000 0.0000 1.0493 0.0000 46.5965
#
#
#
# Elastic Compliance Matrix: (Units=1/GPa)
#
#
# Indices 1 2 3 4 5 6 
#
# 1 0.027574 -0.007795 -0.014738 0.000000 0.003070 0.000000
# 2 -0.007795 0.007848 0.004054 0.000000 -0.000707 0.000000
# 3 -0.014738 0.004054 0.020300 0.000000 -0.005372 0.000000
# 4 0.000000 0.000000 0.000000 0.026056 0.000000 -0.000587
# 5 0.003070 -0.000707 -0.005372 0.000000 0.028173 0.000000
# 6 0.000000 0.000000 0.000000 -0.000587 0.000000 0.021474
#
#
# Mechanical properties :
#
#
# Convention : Reuss Voigt Hill
#
# Bulk Modulus (GPa) = 53.28824 58.60905 55.94865
# Shear Modulus (GPa) = 28.63076 40.41221 34.52148
#
# Velocity S-wave (km/s) = 3.34220 3.97075 3.66996
# Velocity P-wave (km/s) = 5.97363 6.62487 6.30766
#
# Compressibility (1/GPa) = 0.01876587
#
# Stress axis : x y z
#
# Youngs Moduli (GPa) = 36.26606 127.41845 49.26090
#
# Poissons Ratio (x) = 0.99320 0.72600
# Poissons Ratio (y) = 0.28269 -0.19973
# Poissons Ratio (z) = 0.53448 -0.51661
#
# Static dielectric constant tensor:
#      x y z
#    x 1.964840 0.000000 -0.011900 
#    y 0.000000 2.025560 0.000000 
#    z -0.011900 0.000000 2.123000 
# 
# From -- ./inp_files/307284.got.cif
#   From: 2010.05.17/outbox.cif.g08.bks.cpg/sg15_154_cif.got.tgz:307284.got - 2010.06.03 18:47:42.
