data_PCOD9274609
_publ_section_title
;
Structure prediction by ZEFSAII (Michael W. Deem and Ramdas Pophale) SiO2 
 PCOD9274609
Probable space group: C 2/C
;
_chemical_formula_sum "Si O2"
_cell_formula_units_Z 52
_cell_length_a 23.943477
_cell_length_b 9.863713
_cell_length_c 24.111453
_cell_angle_alpha 90.000000
_cell_angle_beta 158.949274
_cell_angle_gamma 90.000000
_cell_volume 2045.410652
_symmetry_space_group_name_H-M "C 2/C"
_symmetry_group_IT_number 15
_symmetry_cell_setting 'monoclinic'
loop_
_space_group_symop_operation_xyz
x,y,z
-x,y,1/2-z
-x,-y,-z
x,-y,1/2+z
1/2+x,1/2+y,z
1/2-x,1/2+y,1/2-z
1/2-x,1/2-y,-z
1/2+x,1/2-y,1/2+z
loop_
_atom_site_type_symbol
_atom_site_label
_atom_site_fract_x
_atom_site_fract_y
_atom_site_fract_z
Si Si1 0.499542 0.416344 0.865414
Si Si2 0.470674 0.287985 0.497039
Si Si3 0.635123 0.968240 0.539705
Si Si4 0.500000 0.402497 0.750000
Si Si5 0.263859 0.352440 0.932945
Si Si6 0.248541 0.257341 0.193651
Si Si7 0.827693 0.443233 0.541658
O O1 0.316286 0.420816 0.706920
O O2 0.527990 0.331139 0.835077
O O3 0.582406 0.366174 0.997602
O O4 0.578518 0.560958 0.926819
O O5 0.463049 0.134037 0.513667
O O6 0.375985 0.311690 0.353507
O O7 0.641655 0.329285 0.635753
O O8 0.645126 0.118425 0.574739
O O9 0.589377 0.978039 0.432220
O O10 0.346716 0.491242 0.619390
O O11 0.197419 0.323057 0.810387
O O12 0.309658 0.209203 0.002075
O O13 0.148959 0.427085 0.869969
#
# Coordination Sequence:
#
# PCOD9274609 Si02
#       7
#     8   8   8   4   8   8   8
#     4  10  20  38  64  89 120 164 205 253 307 372
#     4  12  24  40  61  90 128 167 208 249 308 380
#     4  10  21  40  61  87 124 163 206 254 313 363
#     4   8  16  34  62  92 120 162 202 256 310 366
#     4   9  18  35  60  91 115 150 206 252 309 362
#     4  11  24  38  63  91 123 166 201 260 306 371
#     4   8  16  34  62  88 118 152 200 260 311 359
#
# _framework density 25.422767
#
# number of rings (size 3 to 8) (size 9 to 14) (size 15 to 20)
#    0.000    2.154    1.538    1.385    2.154    2.462 
#    0.000    6.923    0.000    0.000    0.000    0.000 
#    0.000    0.000    0.000    0.000    0.000    0.000 
#
# Total GULP energy -145161.658086 kJ/mol
# GULP energy per Si atom -5583.140696 kJ/mol
# Density = 2.536490 g / cm^3
# Si number density = 25.422767 Si / 1000 Ang^3
#
#
#
# Elastic Constant Matrix: (Units=GPa)
#
#
# Indices 1 2 3 4 5 6 
#
# 1 213.8034 44.9353 42.1057 -0.0012 -47.6206 -0.0007
# 2 44.9353 45.4892 9.5928 -0.0011 -19.2675 -0.0005
# 3 42.1057 9.5928 39.1591 -0.0012 -22.2625 -0.0010
# 4 -0.0012 -0.0011 -0.0012 10.5913 0.0000 -15.7848
# 5 -47.6206 -19.2675 -22.2625 0.0000 53.1671 -0.0001
# 6 -0.0007 -0.0005 -0.0010 -15.7848 -0.0001 33.7917
#
#
#
# Elastic Compliance Matrix: (Units=1/GPa)
#
#
# Indices 1 2 3 4 5 6 
#
# 1 0.007334 -0.005066 -0.005190 -0.000001 0.002560 -0.000001
# 2 -0.005066 0.029522 0.002255 0.000011 0.007105 0.000006
# 3 -0.005190 0.002255 0.037255 0.000018 0.011769 0.000009
# 4 -0.000001 0.000011 0.000018 0.310761 0.000011 0.145162
# 5 0.002560 0.007105 0.011769 0.000011 0.028604 0.000006
# 6 -0.000001 0.000006 0.000009 0.145162 0.000006 0.097401
#
#
# Mechanical properties :
#
#
# Convention : Reuss Voigt Hill
#
# Bulk Modulus (GPa) = 17.20898 54.63547 35.92223
# Shear Modulus (GPa) = 9.15334 32.96455 21.05894
#
# Velocity S-wave (km/s) = 1.89954 3.60482 2.88123
# Velocity P-wave (km/s) = 3.40512 6.23407 5.02287
#
# Compressibility (1/GPa) = 0.05810919
#
# Stress axis : x y z
#
# Youngs Moduli (GPa) = 136.34807 33.87348 26.84188
#
# Poissons Ratio (x) = 0.17161 0.13930
# Poissons Ratio (y) = 0.69076 -0.06052
# Poissons Ratio (z) = 0.70758 -0.07638
#
# Static dielectric constant tensor:
#      x y z
#    x 2.013140 0.000000 -0.079340 
#    y 0.000000 2.015900 0.000000 
#    z -0.079340 0.000000 2.299520 
# 
# From -- ./inp_files/252770.got.cif
#   From: 2010.05.17/outbox.cif.g08.bks.cpg/sg15_127_cif.got.tgz:252770.got - 2010.06.03 18:47:42.
