data_PCOD9274499
_publ_section_title
;
Structure prediction by ZEFSAII (Michael W. Deem and Ramdas Pophale) SiO2 
 PCOD9274499
Probable space group: C 2/C
;
_chemical_formula_sum "Si O2"
_cell_formula_units_Z 40
_cell_length_a 28.860788
_cell_length_b 4.910791
_cell_length_c 13.935323
_cell_angle_alpha 90.000000
_cell_angle_beta 61.174021
_cell_angle_gamma 90.000000
_cell_volume 1730.312253
_symmetry_space_group_name_H-M "C 2/C"
_symmetry_group_IT_number 15
_symmetry_cell_setting 'monoclinic'
loop_
_space_group_symop_operation_xyz
x,y,z
-x,y,1/2-z
-x,-y,-z
x,-y,1/2+z
1/2+x,1/2+y,z
1/2-x,1/2+y,1/2-z
1/2-x,1/2-y,-z
1/2+x,1/2-y,1/2+z
loop_
_atom_site_type_symbol
_atom_site_label
_atom_site_fract_x
_atom_site_fract_y
_atom_site_fract_z
Si Si1 0.562389 0.208695 0.405959
Si Si2 0.364673 0.297970 0.672549
Si Si3 0.308229 0.147202 0.917407
Si Si4 0.027432 0.028567 0.627546
Si Si5 0.356477 0.355152 0.463557
O O1 0.610967 0.407310 0.329445
O O2 0.545090 0.310028 0.529271
O O3 0.514281 0.274363 0.383439
O O4 0.585104 0.906704 0.378362
O O5 0.323499 0.203627 0.792692
O O6 0.341569 0.304609 0.588897
O O7 0.346631 0.335158 0.943291
O O8 0.321587 0.839951 0.932534
O O9 0.250000 0.250000 0.000000
O O10 0.080567 0.186621 0.605682
O O11 0.000000 0.911335 0.750000
#
# Coordination Sequence:
#
# PCOD9274499 Si02
#       5
#     8   8   8   8   8
#     4  10  23  38  62  96 130 172 205 250 317 373
#     4  11  23  44  65  92 134 164 208 268 313 381
#     4  12  26  44  67  93 122 164 218 272 325 376
#     4  10  20  38  63  94 133 172 213 253 306 385
#     4  11  25  42  65  95 125 168 213 258 324 380
#
# _framework density 23.117215999999999
#
# number of rings (size 3 to 8) (size 9 to 14) (size 15 to 20)
#    0.000    1.200    0.000    6.600    0.000   10.400 
#    0.000   12.000    0.000    0.000    0.000    0.000 
#    0.000    0.000    0.000    0.000    0.000    0.000 
#
# Total GULP energy -112065.093542 kJ/mol
# GULP energy per Si atom -5603.254677 kJ/mol
# Density = 2.306460 g / cm^3
# Si number density = 23.117216 Si / 1000 Ang^3
#
#
#
# Elastic Constant Matrix: (Units=GPa)
#
#
# Indices 1 2 3 4 5 6 
#
# 1 17.9365 -4.6317 28.7149 0.0000 1.2424 0.0000
# 2 -4.6317 53.7320 -7.5602 -0.0001 0.1604 0.0001
# 3 28.7149 -7.5602 154.3597 0.0000 -6.3191 0.0000
# 4 0.0000 -0.0001 0.0000 16.9639 0.0000 0.0143
# 5 1.2424 0.1604 -6.3191 0.0000 24.0252 0.0000
# 6 0.0000 0.0001 0.0000 0.0143 0.0000 28.5896
#
#
#
# Elastic Compliance Matrix: (Units=1/GPa)
#
#
# Indices 1 2 3 4 5 6 
#
# 1 0.082266 0.004949 -0.015403 0.000000 -0.008338 0.000000
# 2 0.004949 0.019038 -0.000004 0.000000 -0.000384 0.000000
# 3 -0.015403 -0.000004 0.009478 0.000000 0.003289 0.000000
# 4 0.000000 0.000000 0.000000 0.058949 0.000000 -0.000029
# 5 -0.008338 -0.000384 0.003289 0.000000 0.042922 0.000000
# 6 0.000000 0.000000 0.000000 -0.000029 0.000000 0.034978
#
#
# Mechanical properties :
#
#
# Convention : Reuss Voigt Hill
#
# Bulk Modulus (GPa) = 11.12750 28.78602 19.95676
# Shear Modulus (GPa) = 16.75033 27.88276 22.31654
#
# Velocity S-wave (km/s) = 2.69473 3.47673 3.11040
# Velocity P-wave (km/s) = 3.80868 5.34753 4.64231
#
# Compressibility (1/GPa) = 0.08986748
#
# Stress axis : x y z
#
# Youngs Moduli (GPa) = 12.15566 52.52633 105.50611
#
# Poissons Ratio (x) = -0.25996 1.62507
# Poissons Ratio (y) = -0.06016 0.00041
# Poissons Ratio (z) = 0.18723 0.00021
#
# Static dielectric constant tensor:
#      x y z
#    x 1.842090 0.000000 0.001990 
#    y 0.000000 1.837800 0.000000 
#    z 0.001990 0.000000 1.871420 
# 
# From -- ./inp_files/175558.got.cif
#   From: 2010.05.17/outbox.cif.g08.bks.cpg/sg15_88_cif.got.tgz:175558.got - 2010.06.03 18:47:42.
