data_PCOD9274321
_publ_section_title
;
Structure prediction by ZEFSAII (Michael W. Deem and Ramdas Pophale) SiO2 
 PCOD9274321
Probable space group: C 2/C
;
_chemical_formula_sum "Si O2"
_cell_formula_units_Z 60
_cell_length_a 19.310486
_cell_length_b 20.185565
_cell_length_c 12.718083
_cell_angle_alpha 90.000000
_cell_angle_beta 37.526250
_cell_angle_gamma 90.000000
_cell_volume 3019.688038
_symmetry_space_group_name_H-M "C 2/C"
_symmetry_group_IT_number 15
_symmetry_cell_setting 'monoclinic'
loop_
_space_group_symop_operation_xyz
x,y,z
-x,y,1/2-z
-x,-y,-z
x,-y,1/2+z
1/2+x,1/2+y,z
1/2-x,1/2+y,1/2-z
1/2-x,1/2-y,-z
1/2+x,1/2-y,1/2+z
loop_
_atom_site_type_symbol
_atom_site_label
_atom_site_fract_x
_atom_site_fract_y
_atom_site_fract_z
Si Si1 0.786882 0.503745 0.881813
Si Si2 0.500000 0.018281 0.750000
Si Si3 0.911424 0.556139 0.067977
Si Si4 0.871468 0.896659 0.365212
Si Si5 0.356338 0.706368 0.246221
Si Si6 0.702875 0.178714 0.228183
Si Si7 0.249171 0.156282 0.912592
Si Si8 0.610929 0.321396 0.366502
O O1 0.795958 0.476443 0.751515
O O2 0.795505 0.582383 0.869203
O O3 0.897412 0.479143 0.815957
O O4 0.676232 0.471017 0.064003
O O5 0.564974 0.060099 0.583101
O O6 0.903377 0.628570 0.127882
O O7 0.000000 0.500000 0.000000
O O8 0.786995 0.850824 0.538129
O O9 0.869923 0.875058 0.246502
O O10 0.000000 0.889983 0.250000
O O11 0.268768 0.683365 0.260698
O O12 0.340756 0.784960 0.287590
O O13 0.323829 0.672564 0.395666
O O14 0.480302 0.689281 0.055003
O O15 0.659256 0.252477 0.261502
O O16 0.175296 0.160211 0.895928
#
# Coordination Sequence:
#
# PCOD9274321 Si02
#       8
#     8   4   8   8   8   8   8   8
#     4  10  23  40  63  92 129 165 210 266 317 386
#     4  10  20  38  62  92 124 164 206 256 328 376
#     4   9  20  36  59  90 123 158 205 255 316 378
#     4  11  23  44  64  92 129 172 219 258 324 388
#     4  10  21  40  63  91 126 167 206 264 322 382
#     4  10  21  41  62  93 127 165 213 265 316 384
#     4  10  23  41  61  97 128 160 218 262 322 384
#     4  11  23  39  67  88 128 168 219 266 313 387
#
# _framework density 19.869603000000001
#
# number of rings (size 3 to 8) (size 9 to 14) (size 15 to 20)
#    0.000    1.867    1.333    1.600    5.600    1.067 
#    0.000    1.333    5.867    0.000    0.000    0.000 
#    0.000    0.000    0.000    0.000    0.000    0.000 
#
# Total GULP energy -167215.512747 kJ/mol
# GULP energy per Si atom -5573.850425 kJ/mol
# Density = 1.982438 g / cm^3
# Si number density = 19.869603 Si / 1000 Ang^3
#
#
#
# Elastic Constant Matrix: (Units=GPa)
#
#
# Indices 1 2 3 4 5 6 
#
# 1 37.1076 10.8856 18.9446 0.0000 6.6930 0.0000
# 2 10.8856 79.7210 25.0062 0.0000 10.7848 0.0000
# 3 18.9446 25.0062 128.4431 0.0000 17.3306 0.0000
# 4 0.0000 0.0000 0.0000 21.6111 0.0000 -9.5182
# 5 6.6930 10.7848 17.3306 0.0000 27.1840 0.0000
# 6 0.0000 0.0000 0.0000 -9.5182 0.0000 0.9471
#
#
#
# Elastic Compliance Matrix: (Units=1/GPa)
#
#
# Indices 1 2 3 4 5 6 
#
# 1 0.030180 -0.002478 -0.003391 0.000000 -0.004286 0.000000
# 2 -0.002478 0.013969 -0.001848 0.000000 -0.003754 0.000000
# 3 -0.003391 -0.001848 0.009228 0.000000 -0.004315 0.000000
# 4 0.000000 0.000000 0.000000 -0.013505 0.000000 -0.135725
# 5 -0.004286 -0.003754 -0.004315 0.000000 0.042082 0.000000
# 6 0.000000 0.000000 0.000000 -0.135725 0.000000 -0.308165
#
#
# Mechanical properties :
#
#
# Convention : Reuss Voigt Hill
#
# Bulk Modulus (GPa) = 26.35407 39.43828 32.89617
# Shear Modulus (GPa) = -25.23581 22.64411 -1.29585
#
# Velocity S-wave (km/s) = -3.56767 3.37951 -0.80845
# Velocity P-wave (km/s) = 1.91800 5.92619 3.96491
#
# Compressibility (1/GPa) = 0.03794480
#
# Stress axis : x y z
#
# Youngs Moduli (GPa) = 33.13500 71.58460 108.37058
#
# Poissons Ratio (x) = 0.17735 0.36745
# Poissons Ratio (y) = 0.08209 0.20024
# Poissons Ratio (z) = 0.11235 0.13227
#
# Static dielectric constant tensor:
#      x y z
#    x 1.721840 0.000000 0.007170 
#    y 0.000000 1.712650 0.000000 
#    z 0.007170 0.000000 1.719390 
# 
# From -- ./inp_files/113808.got.cif
#   From: 2010.05.17/outbox.cif.g08.bks.cpg/sg15_57_cif.got.tgz:113808.got - 2010.06.03 18:47:42.
