data_PCOD9274848
_publ_section_title
;
Structure prediction by ZEFSAII (Michael W. Deem and Ramdas Pophale) SiO2 
 PCOD9274848
Probable space group: C 2/C
;
_chemical_formula_sum "Si O2"
_cell_formula_units_Z 60
_cell_length_a 22.262501
_cell_length_b 11.971986
_cell_length_c 16.972631
_cell_angle_alpha 90.000000
_cell_angle_beta 143.413770
_cell_angle_gamma 90.000000
_cell_volume 2696.241797
_symmetry_space_group_name_H-M "C 2/C"
_symmetry_group_IT_number 15
_symmetry_cell_setting 'monoclinic'
loop_
_space_group_symop_operation_xyz
x,y,z
-x,y,1/2-z
-x,-y,-z
x,-y,1/2+z
1/2+x,1/2+y,z
1/2-x,1/2+y,1/2-z
1/2-x,1/2-y,-z
1/2+x,1/2-y,1/2+z
loop_
_atom_site_type_symbol
_atom_site_label
_atom_site_fract_x
_atom_site_fract_y
_atom_site_fract_z
Si Si1 0.227494 0.190232 0.647886
Si Si2 0.478220 0.867035 0.618842
Si Si3 0.688696 0.036601 0.302649
Si Si4 0.979301 0.924839 0.554285
Si Si5 0.619389 0.917988 0.549541
Si Si6 0.837968 0.810950 0.047791
Si Si7 0.435708 0.784384 0.414139
Si Si8 0.000000 0.024815 0.750000
O O1 0.185979 0.315415 0.584088
O O2 0.318106 0.199487 0.804912
O O3 0.128771 0.130496 0.575592
O O4 0.277525 0.092692 0.644700
O O5 0.588862 0.922304 0.745049
O O6 0.418687 0.783109 0.611168
O O7 0.490266 0.786827 0.554962
O O8 0.400610 0.968888 0.519268
O O9 0.662220 0.051486 0.181658
O O10 0.782194 0.117929 0.420743
O O11 0.059531 0.826086 0.631887
O O12 0.979672 0.965485 0.644879
O O13 0.000000 0.000000 0.500000
O O14 0.504142 0.874048 0.440529
O O15 0.901525 0.900979 0.163226
O O16 0.750000 0.750000 0.000000
#
# Coordination Sequence:
#
# PCOD9274848 Si02
#       8
#     8   8   8   8   8   8   8   4
#     4  11  21  38  66  99 141 185 237 293 356 431
#     4  11  21  42  69 101 143 182 236 298 348 431
#     4  11  21  41  67  96 139 181 234 291 356 425
#     4  11  26  44  71 105 143 187 235 300 365 423
#     4  10  21  35  66 103 136 176 230 294 350 425
#     4  12  27  43  67  98 137 189 235 291 366 433
#     4  10  20  38  66 102 135 181 235 284 351 422
#     4  12  26  50  68 102 150 180 236 312 350 432
#
# _framework density 22.253197
#
# number of rings (size 3 to 8) (size 9 to 14) (size 15 to 20)
#    0.000    1.067    4.000    3.200    1.867    4.267 
#    0.000    0.667    5.867    0.000    0.000    0.000 
#    0.000    0.000    0.000    0.000    0.000    0.000 
#
# Total GULP energy -167026.477670 kJ/mol
# GULP energy per Si atom -5567.549256 kJ/mol
# Density = 2.220255 g / cm^3
# Si number density = 22.253197 Si / 1000 Ang^3
#
#
#
# Elastic Constant Matrix: (Units=GPa)
#
#
# Indices 1 2 3 4 5 6 
#
# 1 59.1031 40.7802 22.5503 0.0000 3.9786 0.0000
# 2 40.7802 123.2704 48.1822 0.0000 -2.6896 0.0000
# 3 22.5503 48.1822 119.5699 0.0000 20.2476 0.0000
# 4 0.0000 0.0000 0.0000 22.4358 0.0000 13.9210
# 5 3.9786 -2.6896 20.2476 0.0000 29.7022 0.0000
# 6 0.0000 0.0000 0.0000 13.9210 0.0000 22.0252
#
#
#
# Elastic Compliance Matrix: (Units=1/GPa)
#
#
# Indices 1 2 3 4 5 6 
#
# 1 0.022372 -0.007150 -0.000815 0.000000 -0.003088 0.000000
# 2 -0.007150 0.012348 -0.004498 0.000000 0.005142 0.000000
# 3 -0.000815 -0.004498 0.011735 0.000000 -0.008297 0.000000
# 4 0.000000 0.000000 0.000000 0.073330 0.000000 -0.046348
# 5 -0.003088 0.005142 -0.008297 0.000000 0.040203 0.000000
# 6 0.000000 0.000000 0.000000 -0.046348 0.000000 0.074697
#
#
# Mechanical properties :
#
#
# Convention : Reuss Voigt Hill
#
# Bulk Modulus (GPa) = 46.45046 58.32989 52.39018
# Shear Modulus (GPa) = 18.74162 27.52802 23.13482
#
# Velocity S-wave (km/s) = 2.90522 3.52097 3.22781
# Velocity P-wave (km/s) = 5.67209 6.54205 6.12254
#
# Compressibility (1/GPa) = 0.02152831
#
# Stress axis : x y z
#
# Youngs Moduli (GPa) = 44.69931 80.98566 85.21773
#
# Poissons Ratio (x) = 0.57903 0.06946
# Poissons Ratio (y) = 0.31959 0.38331
# Poissons Ratio (z) = 0.03644 0.36428
#
# Static dielectric constant tensor:
#      x y z
#    x 2.647910 0.000000 -0.844450 
#    y 0.000000 1.498360 0.000000 
#    z -0.844450 0.000000 2.491560 
# 
# From -- ./inp_files/255576.got.cif
#   From: 2010.05.17/outbox.cif.g08.bks.cpg/sg15_128_cif.got.tgz:255576.got - 2010.06.03 18:47:42.
