data_PCOD9274000
_publ_section_title
;
Structure prediction by ZEFSAII (Michael W. Deem and Ramdas Pophale) SiO2 
 PCOD9274000
Probable space group: C 2/C
;
_chemical_formula_sum "Si O2"
_cell_formula_units_Z 60
_cell_length_a 8.381242
_cell_length_b 14.331448
_cell_length_c 23.716124
_cell_angle_alpha 90.000000
_cell_angle_beta 84.721807
_cell_angle_gamma 90.000000
_cell_volume 2836.591172
_symmetry_space_group_name_H-M "C 2/C"
_symmetry_group_IT_number 15
_symmetry_cell_setting 'monoclinic'
loop_
_space_group_symop_operation_xyz
x,y,z
-x,y,1/2-z
-x,-y,-z
x,-y,1/2+z
1/2+x,1/2+y,z
1/2-x,1/2+y,1/2-z
1/2-x,1/2-y,-z
1/2+x,1/2-y,1/2+z
loop_
_atom_site_type_symbol
_atom_site_label
_atom_site_fract_x
_atom_site_fract_y
_atom_site_fract_z
Si Si1 0.591457 0.516754 0.939257
Si Si2 0.754523 0.879396 0.648065
Si Si3 0.565258 0.804690 0.351844
Si Si4 0.408364 0.592195 0.838637
Si Si5 0.089966 0.721071 0.336582
Si Si6 0.500000 0.090025 0.750000
Si Si7 0.246022 0.946880 0.731366
Si Si8 0.721160 0.794752 0.061598
O O1 0.684898 0.428700 0.910308
O O2 0.467984 0.552380 0.895916
O O3 0.714540 0.600638 0.942678
O O4 0.500000 0.500000 0.000000
O O5 0.877957 0.799383 0.661701
O O6 0.576234 0.836350 0.649418
O O7 0.764664 0.948084 0.700761
O O8 0.734271 0.859117 0.351473
O O9 0.455617 0.841998 0.303466
O O10 0.461113 0.801352 0.411529
O O11 0.531131 0.676140 0.816645
O O12 0.388057 0.502246 0.799042
O O13 0.200278 0.655172 0.292959
O O14 0.181379 0.739597 0.392433
O O15 0.391781 0.018151 0.719453
O O16 0.750000 0.750000 0.000000
#
# Coordination Sequence:
#
# PCOD9274000 Si02
#       8
#     8   8   8   8   8   4   8   8
#     4  11  25  45  67  94 132 172 230 284 337 413
#     4  11  23  42  64 100 129 179 221 279 349 415
#     4  10  23  41  65  92 132 167 223 270 341 403
#     4   9  24  44  64  99 132 177 219 282 341 414
#     4  10  23  44  66  97 139 178 224 276 352 416
#     4  10  20  38  60  96 126 168 214 272 332 414
#     4  11  21  41  69  94 141 169 229 272 349 421
#     4  11  25  44  67  96 132 177 228 284 342 411
#
# _framework density 21.152149000000001
#
# number of rings (size 3 to 8) (size 9 to 14) (size 15 to 20)
#    0.000    1.600    1.333    1.600    7.467    1.600 
#   16.800    5.333    0.000    0.000    0.000    0.000 
#    0.000    0.000    0.000    0.000    0.000    0.000 
#
# Total GULP energy -167354.165044 kJ/mol
# GULP energy per Si atom -5578.472168 kJ/mol
# Density = 2.110401 g / cm^3
# Si number density = 21.152149 Si / 1000 Ang^3
#
#
#
# Elastic Constant Matrix: (Units=GPa)
#
#
# Indices 1 2 3 4 5 6 
#
# 1 63.1400 29.5621 9.4599 0.0000 1.7543 0.0000
# 2 29.5621 78.6306 19.7661 0.0000 -1.3221 0.0000
# 3 9.4599 19.7661 93.4938 0.0000 -9.2517 0.0000
# 4 0.0000 0.0000 0.0000 36.8557 0.0000 2.0638
# 5 1.7543 -1.3221 -9.2517 0.0000 28.5340 0.0000
# 6 0.0000 0.0000 0.0000 2.0638 0.0000 8.6377
#
#
#
# Elastic Compliance Matrix: (Units=1/GPa)
#
#
# Indices 1 2 3 4 5 6 
#
# 1 0.019320 -0.007137 -0.000616 0.000000 -0.001718 0.000000
# 2 -0.007137 0.016071 -0.002643 0.000000 0.000326 0.000000
# 3 -0.000616 -0.002643 0.011684 0.000000 0.003704 0.000000
# 4 0.000000 0.000000 0.000000 0.027501 0.000000 -0.006571
# 5 -0.001718 0.000326 0.003704 0.000000 0.036367 0.000000
# 6 0.000000 0.000000 0.000000 -0.006571 0.000000 0.117342
#
#
# Mechanical properties :
#
#
# Convention : Reuss Voigt Hill
#
# Bulk Modulus (GPa) = 38.05018 39.20452 38.62735
# Shear Modulus (GPa) = 19.39206 26.57058 22.98132
#
# Velocity S-wave (km/s) = 3.03114 3.54809 3.29975
# Velocity P-wave (km/s) = 5.50257 5.94643 5.72880
#
# Compressibility (1/GPa) = 0.02628109
#
# Stress axis : x y z
#
# Youngs Moduli (GPa) = 51.76095 62.22371 85.59068
#
# Poissons Ratio (x) = 0.44412 0.05271
# Poissons Ratio (y) = 0.36944 0.22623
# Poissons Ratio (z) = 0.03188 0.16447
#
# Static dielectric constant tensor:
#      x y z
#    x 1.822450 0.000000 0.025240 
#    y 0.000000 1.688370 0.000000 
#    z 0.025240 0.000000 1.691460 
# 
# From -- ./inp_files/264651.got.cif
#   From: 2010.05.17/outbox.cif.g08.bks.cpg/sg15_133_cif.got.tgz:264651.got - 2010.06.03 18:47:42.
