data_PCOD9274834
_publ_section_title
;
Structure prediction by ZEFSAII (Michael W. Deem and Ramdas Pophale) SiO2 
 PCOD9274834
Probable space group: C 2/C
;
_chemical_formula_sum "Si O2"
_cell_formula_units_Z 40
_cell_length_a 14.703599
_cell_length_b 10.142008
_cell_length_c 11.583567
_cell_angle_alpha 90.000000
_cell_angle_beta 73.892595
_cell_angle_gamma 90.000000
_cell_volume 1659.576516
_symmetry_space_group_name_H-M "C 2/C"
_symmetry_group_IT_number 15
_symmetry_cell_setting 'monoclinic'
loop_
_space_group_symop_operation_xyz
x,y,z
-x,y,1/2-z
-x,-y,-z
x,-y,1/2+z
1/2+x,1/2+y,z
1/2-x,1/2+y,1/2-z
1/2-x,1/2-y,-z
1/2+x,1/2-y,1/2+z
loop_
_atom_site_type_symbol
_atom_site_label
_atom_site_fract_x
_atom_site_fract_y
_atom_site_fract_z
Si Si1 0.604491 0.285877 0.667184
Si Si2 0.279311 0.139957 0.360852
Si Si3 0.389223 0.512142 0.514392
Si Si4 0.756904 0.116550 0.746483
Si Si5 0.053357 0.519745 0.602120
O O1 0.500000 0.313155 0.750000
O O2 0.635421 0.421234 0.598738
O O3 0.674110 0.215014 0.731287
O O4 0.590989 0.169127 0.580416
O O5 0.296544 0.292727 0.333362
O O6 0.172540 0.117205 0.442580
O O7 0.282800 0.033610 0.249994
O O8 0.357756 0.077865 0.417107
O O9 0.500000 0.500000 0.500000
O O10 0.341887 0.608760 0.624947
O O11 0.000000 0.511295 0.750000
O O12 0.000000 0.500000 0.500000
#
# Coordination Sequence:
#
# PCOD9274834 Si02
#       5
#     8   8   8   8   8
#     4  10  20  38  65  97 134 190 242 289 355 440
#     4   9  21  38  68 103 138 183 238 296 362 429
#     4  10  21  37  66  99 135 180 236 291 360 424
#     4   9  20  38  67  99 139 176 238 294 362 423
#     4  10  23  39  66 102 140 190 246 295 359 431
#
# _framework density 24.102535
#
# number of rings (size 3 to 8) (size 9 to 14) (size 15 to 20)
#    1.200    1.200    0.000    1.800    2.800    0.000 
#    0.000    2.000    4.400   13.200   10.400    0.000 
#    0.000    0.000    0.000    0.000    0.000    0.000 
#
# Total GULP energy -111363.605728 kJ/mol
# GULP energy per Si atom -5568.180286 kJ/mol
# Density = 2.404768 g / cm^3
# Si number density = 24.102535 Si / 1000 Ang^3
#
#
#
# Elastic Constant Matrix: (Units=GPa)
#
#
# Indices 1 2 3 4 5 6 
#
# 1 110.7012 2.4362 37.3029 0.0000 -5.9715 0.0000
# 2 2.4362 121.4151 46.0555 0.0000 9.0069 0.0000
# 3 37.3029 46.0555 73.9219 0.0000 14.7562 0.0000
# 4 0.0000 0.0000 0.0000 42.2235 0.0000 3.3092
# 5 -5.9715 9.0069 14.7562 0.0000 42.5192 0.0000
# 6 0.0000 0.0000 0.0000 3.3092 0.0000 -8.9783
#
#
#
# Elastic Compliance Matrix: (Units=1/GPa)
#
#
# Indices 1 2 3 4 5 6 
#
# 1 0.012102 0.002724 -0.008626 0.000000 0.004116 0.000000
# 2 0.002724 0.011398 -0.008671 0.000000 0.000977 0.000000
# 3 -0.008626 -0.008671 0.024882 0.000000 -0.008010 0.000000
# 4 0.000000 0.000000 0.000000 0.023019 0.000000 0.008484
# 5 0.004116 0.000977 -0.008010 0.000000 0.026670 0.000000
# 6 0.000000 0.000000 0.000000 0.008484 0.000000 -0.108253
#
#
# Mechanical properties :
#
#
# Convention : Reuss Voigt Hill
#
# Bulk Modulus (GPa) = 51.98543 53.06970 52.52757
# Shear Modulus (GPa) = 197.04721 29.83580 113.44151
#
# Velocity S-wave (km/s) = 9.05159 3.52215 6.86792
# Velocity P-wave (km/s) = 11.43927 6.21344 9.20499
#
# Compressibility (1/GPa) = 0.01923616
#
# Stress axis : x y z
#
# Youngs Moduli (GPa) = 82.63111 87.73366 40.19032
#
# Poissons Ratio (x) = -0.23896 0.34666
# Poissons Ratio (y) = -0.22506 0.34849
# Poissons Ratio (z) = 0.71274 0.76073
#
# Static dielectric constant tensor:
#      x y z
#    x 1.936460 0.000000 0.098030 
#    y 0.000000 1.893090 0.000000 
#    z 0.098030 0.000000 2.056390 
# 
# From -- ./inp_files/94602.got.cif
#   From: 2010.05.17/outbox.cif.g08.bks.cpg/sg15_48_cif.got.tgz:94602.got - 2010.06.03 18:47:42.
