data_PCOD9274216
_publ_section_title
;
Structure prediction by ZEFSAII (Michael W. Deem and Ramdas Pophale) SiO2 
 PCOD9274216
Probable space group: C 2/C
;
_chemical_formula_sum "Si O2"
_cell_formula_units_Z 56
_cell_length_a 21.274848
_cell_length_b 9.840380
_cell_length_c 14.170456
_cell_angle_alpha 90.000000
_cell_angle_beta 73.443884
_cell_angle_gamma 90.000000
_cell_volume 2843.628801
_symmetry_space_group_name_H-M "C 2/C"
_symmetry_group_IT_number 15
_symmetry_cell_setting 'monoclinic'
loop_
_space_group_symop_operation_xyz
x,y,z
-x,y,1/2-z
-x,-y,-z
x,-y,1/2+z
1/2+x,1/2+y,z
1/2-x,1/2+y,1/2-z
1/2-x,1/2-y,-z
1/2+x,1/2-y,1/2+z
loop_
_atom_site_type_symbol
_atom_site_label
_atom_site_fract_x
_atom_site_fract_y
_atom_site_fract_z
Si Si1 0.172100 0.850321 0.540980
Si Si2 0.587367 0.995749 0.369751
Si Si3 0.041004 0.366612 0.574326
Si Si4 0.366171 0.066104 0.850521
Si Si5 0.762426 0.328676 0.859685
Si Si6 0.146272 0.146737 0.554767
Si Si7 0.788301 0.331315 0.631118
O O1 0.145559 0.711859 0.598492
O O2 0.187110 0.809245 0.426424
O O3 0.236844 0.881492 0.575204
O O4 0.131921 0.987517 0.565734
O O5 0.535211 0.115582 0.369842
O O6 0.651903 0.064051 0.385752
O O7 0.552654 0.898210 0.459184
O O8 0.607698 0.920567 0.266537
O O9 0.079907 0.484306 0.613297
O O10 0.079241 0.230189 0.581522
O O11 0.302537 0.966668 0.869923
O O12 0.808259 0.207622 0.880808
O O13 0.758633 0.316845 0.748251
O O14 0.692918 0.327094 0.942981
#
# Coordination Sequence:
#
# PCOD9274216 Si02
#       7
#     8   8   8   8   8   8   8
#     4  11  22  35  57  91 126 150 187 259 312 349
#     4  10  21  38  65  85 110 162 213 241 278 356
#     4  10  21  40  62  85 116 158 209 245 279 357
#     4  10  20  38  62  87 116 155 202 247 297 355
#     4   9  20  36  58  84 119 164 198 240 295 363
#     4  10  22  36  56  89 125 156 193 248 308 351
#     4  10  21  36  59  87 120 157 201 241 300 357
#
# _framework density 19.693147
#
# number of rings (size 3 to 8) (size 9 to 14) (size 15 to 20)
#    0.000    2.000    1.429    2.143    6.000    2.286 
#    0.000    0.714    0.000    5.143    0.000    0.000 
#    0.000    0.000    0.000    0.000    0.000    0.000 
#
# Total GULP energy -156331.293524 kJ/mol
# GULP energy per Si atom -5583.260483 kJ/mol
# Density = 1.964832 g / cm^3
# Si number density = 19.693147 Si / 1000 Ang^3
#
#
#
# Elastic Constant Matrix: (Units=GPa)
#
#
# Indices 1 2 3 4 5 6 
#
# 1 27.1637 4.6192 0.4846 0.0000 2.5041 0.0000
# 2 4.6192 112.8290 9.5403 0.0000 7.0197 0.0000
# 3 0.4846 9.5403 91.3959 0.0000 18.5578 0.0000
# 4 0.0000 0.0000 0.0000 11.6902 0.0000 -0.9163
# 5 2.5041 7.0197 18.5578 0.0000 18.8102 0.0000
# 6 0.0000 0.0000 0.0000 -0.9163 0.0000 16.1941
#
#
#
# Elastic Compliance Matrix: (Units=1/GPa)
#
#
# Indices 1 2 3 4 5 6 
#
# 1 0.037526 -0.001280 0.001065 0.000000 -0.005569 0.000000
# 2 -0.001280 0.009125 -0.000361 0.000000 -0.002879 0.000000
# 3 0.001065 -0.000361 0.013724 0.000000 -0.013547 0.000000
# 4 0.000000 0.000000 0.000000 0.085923 0.000000 0.004862
# 5 -0.005569 -0.002879 -0.013547 0.000000 0.068343 0.000000
# 6 0.000000 0.000000 0.000000 0.004862 0.000000 0.062026
#
#
# Mechanical properties :
#
#
# Convention : Reuss Voigt Hill
#
# Bulk Modulus (GPa) = 16.88512 28.96407 22.92459
# Shear Modulus (GPa) = 16.80332 23.78853 20.29592
#
# Velocity S-wave (km/s) = 2.92423 3.47934 3.21379
# Velocity P-wave (km/s) = 4.47149 5.55704 5.04356
#
# Compressibility (1/GPa) = 0.05922373
#
# Stress axis : x y z
#
# Youngs Moduli (GPa) = 26.64825 109.58904 72.86417
#
# Poissons Ratio (x) = 0.14026 -0.07763
# Poissons Ratio (y) = 0.03411 0.02632
# Poissons Ratio (z) = -0.02839 0.03959
#
# Static dielectric constant tensor:
#      x y z
#    x 1.704500 0.000000 -0.006620 
#    y 0.000000 1.697700 0.000000 
#    z -0.006620 0.000000 1.718160 
# 
# From -- ./inp_files/171809.got.cif
#   From: 2010.05.17/outbox.cif.g08.bks.cpg/sg15_86_cif.got.tgz:171809.got - 2010.06.03 18:47:42.
