data_PCOD9274108
_publ_section_title
;
Structure prediction by ZEFSAII (Michael W. Deem and Ramdas Pophale) SiO2 
 PCOD9274108
Probable space group: C 2/C
;
_chemical_formula_sum "Si O2"
_cell_formula_units_Z 52
_cell_length_a 15.489894
_cell_length_b 11.549913
_cell_length_c 18.824265
_cell_angle_alpha 90.000000
_cell_angle_beta 54.372673
_cell_angle_gamma 90.000000
_cell_volume 2737.418421
_symmetry_space_group_name_H-M "C 2/C"
_symmetry_group_IT_number 15
_symmetry_cell_setting 'monoclinic'
loop_
_space_group_symop_operation_xyz
x,y,z
-x,y,1/2-z
-x,-y,-z
x,-y,1/2+z
1/2+x,1/2+y,z
1/2-x,1/2+y,1/2-z
1/2-x,1/2-y,-z
1/2+x,1/2-y,1/2+z
loop_
_atom_site_type_symbol
_atom_site_label
_atom_site_fract_x
_atom_site_fract_y
_atom_site_fract_z
Si Si1 0.145239 0.330500 0.258646
Si Si2 0.710882 0.793533 0.696989
Si Si3 0.000000 0.144289 0.250000
Si Si4 0.133194 0.249338 0.587885
Si Si5 0.327491 0.480943 0.102421
Si Si6 0.976463 0.555349 0.176798
Si Si7 0.967372 0.990898 0.402185
O O1 0.210936 0.281983 0.293688
O O2 0.088063 0.228511 0.242862
O O3 0.231128 0.395782 0.167669
O O4 0.058040 0.425542 0.325997
O O5 0.644625 0.730811 0.667418
O O6 0.626502 0.863517 0.785137
O O7 0.776664 0.891832 0.623978
O O8 0.040006 0.063330 0.166540
O O9 0.250000 0.250000 0.500000
O O10 0.075036 0.371652 0.599844
O O11 0.067529 0.141390 0.590862
O O12 0.413137 0.487252 0.124796
O O13 0.391828 0.455462 0.999781
O O14 0.000000 0.548895 0.250000
#
# Coordination Sequence:
#
# PCOD9274108 Si02
#       7
#     8   8   4   8   8   8   8
#     4  11  22  40  62  90 125 157 211 255 309 378
#     4  10  20  38  61  91 116 159 204 255 306 363
#     4  12  26  38  62  96 122 164 210 256 306 384
#     4  11  22  38  62  89 121 160 209 256 310 371
#     4  10  22  42  63  86 127 169 198 253 322 366
#     4   9  20  36  61  85 114 160 200 246 309 362
#     4  11  24  40  62  93 125 162 210 258 312 371
#
# _framework density 18.995999999999999
#
# number of rings (size 3 to 8) (size 9 to 14) (size 15 to 20)
#    0.000    1.538    3.846    0.923    5.385    0.615 
#    0.000    0.769    0.000    0.000    0.000    0.000 
#    0.000    0.000    0.000    0.000    0.000    0.000 
#
# Total GULP energy -145075.198223 kJ/mol
# GULP energy per Si atom -5579.815316 kJ/mol
# Density = 1.895276 g / cm^3
# Si number density = 18.996000 Si / 1000 Ang^3
#
#
#
# Elastic Constant Matrix: (Units=GPa)
#
#
# Indices 1 2 3 4 5 6 
#
# 1 78.3364 25.8253 14.3936 0.0000 -6.1518 0.0000
# 2 25.8253 76.8980 28.4760 0.0000 -6.4332 0.0000
# 3 14.3936 28.4760 63.9450 0.0000 -6.5491 0.0000
# 4 0.0000 0.0000 0.0000 16.8755 0.0000 -2.2237
# 5 -6.1518 -6.4332 -6.5491 0.0000 28.7839 0.0000
# 6 0.0000 0.0000 0.0000 -2.2237 0.0000 44.0576
#
#
#
# Elastic Compliance Matrix: (Units=1/GPa)
#
#
# Indices 1 2 3 4 5 6 
#
# 1 0.014544 -0.004294 -0.001169 0.000000 0.001883 0.000000
# 2 -0.004294 0.016947 -0.006437 0.000000 0.001406 0.000000
# 3 -0.001169 -0.006437 0.019039 0.000000 0.002643 0.000000
# 4 0.000000 0.000000 0.000000 0.059654 0.000000 0.003011
# 5 0.001883 0.001406 0.002643 0.000000 0.036060 0.000000
# 6 0.000000 0.000000 0.000000 0.003011 0.000000 0.022850
#
#
# Mechanical properties :
#
#
# Convention : Reuss Voigt Hill
#
# Bulk Modulus (GPa) = 37.40944 39.61879 38.51412
# Shear Modulus (GPa) = 24.77676 27.97569 26.37622
#
# Velocity S-wave (km/s) = 3.61545 3.84176 3.73032
# Velocity P-wave (km/s) = 6.09628 6.37028 6.23479
#
# Compressibility (1/GPa) = 0.02673122
#
# Stress axis : x y z
#
# Youngs Moduli (GPa) = 68.75847 59.00593 52.52507
#
# Poissons Ratio (x) = 0.25338 0.06138
# Poissons Ratio (y) = 0.29525 0.33808
# Poissons Ratio (z) = 0.08035 0.37979
#
# Static dielectric constant tensor:
#      x y z
#    x 1.659080 0.000000 -0.012320 
#    y 0.000000 1.668010 0.000000 
#    z -0.012320 0.000000 1.674750 
# 
# From -- ./inp_files/152546.got.cif
#   From: 2010.05.17/outbox.cif.g08.bks.cpg/sg15_77_cif.got.tgz:152546.got - 2010.06.03 18:47:42.
