data_PCOD9274081
_publ_section_title
;
Structure prediction by ZEFSAII (Michael W. Deem and Ramdas Pophale) SiO2 
 PCOD9274081
Probable space group: C 2/C
;
_chemical_formula_sum "Si O2"
_cell_formula_units_Z 48
_cell_length_a 10.551211
_cell_length_b 19.023098
_cell_length_c 23.377632
_cell_angle_alpha 90.000000
_cell_angle_beta 145.919092
_cell_angle_gamma 90.000000
_cell_volume 2629.381196
_symmetry_space_group_name_H-M "C 2/C"
_symmetry_group_IT_number 15
_symmetry_cell_setting 'monoclinic'
loop_
_space_group_symop_operation_xyz
x,y,z
-x,y,1/2-z
-x,-y,-z
x,-y,1/2+z
1/2+x,1/2+y,z
1/2-x,1/2+y,1/2-z
1/2-x,1/2-y,-z
1/2+x,1/2-y,1/2+z
loop_
_atom_site_type_symbol
_atom_site_label
_atom_site_fract_x
_atom_site_fract_y
_atom_site_fract_z
Si Si1 0.146596 0.675637 0.475501
Si Si2 0.297790 0.185444 0.442135
Si Si3 0.002244 0.059013 0.182312
Si Si4 0.089459 0.640537 0.222025
Si Si5 0.464357 0.392297 0.304301
Si Si6 0.390890 0.777629 0.333511
O O1 0.250000 0.750000 0.500000
O O2 0.323787 0.636642 0.581605
O O3 0.915608 0.686256 0.424547
O O4 0.099752 0.639486 0.397547
O O5 0.480907 0.206393 0.558784
O O6 0.209258 0.105627 0.419022
O O7 0.086048 0.239470 0.368399
O O8 0.212432 0.092974 0.228644
O O9 0.000000 0.071126 0.250000
O O10 0.025355 0.975886 0.182514
O O11 0.194950 0.719046 0.267151
O O12 0.000000 0.618369 0.250000
O O13 0.500000 0.379565 0.250000
O O14 0.237085 0.348330 0.235073
#
# Coordination Sequence:
#
# PCOD9274081 Si02
#       6
#     8   8   8   8   8   8
#     4  12  22  36  62  92 120 162 211 255 304 367
#     4  10  21  37  60  91 120 162 202 249 310 365
#     4  10  22  39  61  92 124 164 204 251 310 372
#     4  11  22  40  62  86 123 165 209 254 310 358
#     4  11  22  38  62  95 126 156 208 255 307 365
#     4  10  20  38  61  88 126 154 200 259 307 357
#
# _framework density 18.255244999999999
#
# number of rings (size 3 to 8) (size 9 to 14) (size 15 to 20)
#    0.000    1.333    5.000    1.500    0.000    2.000 
#    0.000    2.500    0.000    0.000    0.000    0.000 
#    0.000    0.000    0.000    0.000    0.000    0.000 
#
# Total GULP energy -133863.429647 kJ/mol
# GULP energy per Si atom -5577.642902 kJ/mol
# Density = 1.821370 g / cm^3
# Si number density = 18.255245 Si / 1000 Ang^3
#
#
#
# Elastic Constant Matrix: (Units=GPa)
#
#
# Indices 1 2 3 4 5 6 
#
# 1 118.5038 48.9487 40.6059 0.0000 -6.8940 -0.0001
# 2 48.9487 124.3999 45.0823 0.0001 0.8592 0.0000
# 3 40.6059 45.0823 98.8942 0.0002 -11.9316 0.0001
# 4 0.0000 0.0001 0.0002 14.7938 0.0000 -7.0643
# 5 -6.8940 0.8592 -11.9316 0.0000 27.6312 0.0000
# 6 -0.0001 0.0000 0.0001 -7.0643 0.0000 17.4973
#
#
#
# Elastic Compliance Matrix: (Units=1/GPa)
#
#
# Indices 1 2 3 4 5 6 
#
# 1 0.010830 -0.003272 -0.002761 0.000000 0.001612 0.000000
# 2 -0.003272 0.010760 -0.003904 0.000000 -0.002837 0.000000
# 3 -0.002761 -0.003904 0.013669 0.000000 0.005335 0.000000
# 4 0.000000 0.000000 0.000000 0.083740 0.000000 0.033809
# 5 0.001612 -0.002837 0.005335 0.000000 0.038985 0.000000
# 6 0.000000 0.000000 0.000000 0.033809 0.000000 0.070802
#
#
# Mechanical properties :
#
#
# Convention : Reuss Voigt Hill
#
# Bulk Modulus (GPa) = 64.99620 67.89684 66.44652
# Shear Modulus (GPa) = 19.70149 25.79519 22.74834
#
# Velocity S-wave (km/s) = 3.28872 3.76311 3.53388
# Velocity P-wave (km/s) = 7.07830 7.49367 7.28894
#
# Compressibility (1/GPa) = 0.01538551
#
# Stress axis : x y z
#
# Youngs Moduli (GPa) = 92.33806 92.93283 73.15956
#
# Poissons Ratio (x) = 0.30407 0.20197
# Poissons Ratio (y) = 0.30212 0.28562
# Poissons Ratio (z) = 0.25492 0.36282
#
# Static dielectric constant tensor:
#      x y z
#    x 1.622070 0.000000 0.002350 
#    y 0.000000 1.635390 0.000000 
#    z 0.002350 0.000000 1.593960 
# 
# From -- ./inp_files/191948.got.cif
#   From: 2010.05.17/outbox.cif.g08.bks.cpg/sg15_96_cif.got.tgz:191948.got - 2010.06.03 18:47:42.
