data_PCOD9274492
_publ_section_title
;
Structure prediction by ZEFSAII (Michael W. Deem and Ramdas Pophale) SiO2 
 PCOD9274492
Probable space group: C 2/C
;
_chemical_formula_sum "Si O2"
_cell_formula_units_Z 56
_cell_length_a 19.546916
_cell_length_b 13.693671
_cell_length_c 9.878392
_cell_angle_alpha 90.000000
_cell_angle_beta 77.757276
_cell_angle_gamma 90.000000
_cell_volume 2584.006761
_symmetry_space_group_name_H-M "C 2/C"
_symmetry_group_IT_number 15
_symmetry_cell_setting 'monoclinic'
loop_
_space_group_symop_operation_xyz
x,y,z
-x,y,1/2-z
-x,-y,-z
x,-y,1/2+z
1/2+x,1/2+y,z
1/2-x,1/2+y,1/2-z
1/2-x,1/2-y,-z
1/2+x,1/2-y,1/2+z
loop_
_atom_site_type_symbol
_atom_site_label
_atom_site_fract_x
_atom_site_fract_y
_atom_site_fract_z
Si Si1 0.949989 0.530967 0.141216
Si Si2 0.621128 0.840512 0.397541
Si Si3 0.717663 0.174477 0.620513
Si Si4 0.800387 0.980694 0.240720
Si Si5 0.479753 0.766491 0.600429
Si Si6 0.955605 0.052629 0.630912
Si Si7 0.783201 0.535633 0.458648
O O1 0.894533 0.445559 0.166586
O O2 0.928327 0.640883 0.117335
O O3 0.000000 0.531247 0.250000
O O4 0.000000 0.500000 0.000000
O O5 0.663862 0.786751 0.259454
O O6 0.549992 0.790028 0.482102
O O7 0.666110 0.879114 0.508124
O O8 0.750000 0.250000 0.500000
O O9 0.779342 0.123320 0.682358
O O10 0.686765 0.075692 0.560410
O O11 0.881540 0.997576 0.187100
O O12 0.778121 0.974607 0.404861
O O13 0.751614 0.053222 0.172997
O O14 0.500000 0.760876 0.750000
O O15 0.446431 0.663450 0.582144
O O16 0.000000 0.053530 0.750000
O O17 0.000000 0.000000 0.500000
#
# Coordination Sequence:
#
# PCOD9274492 Si02
#       7
#     8   8   8   8   8   8   8
#     4   9  19  33  53  85 125 162 202 254 309 384
#     4  10  20  38  63  93 129 170 217 253 338 384
#     4   9  21  37  59  92 126 165 209 271 317 374
#     4   9  20  39  59  90 120 158 221 250 325 379
#     4   9  21  37  59  92 127 162 213 262 313 393
#     4  11  23  42  65  89 121 174 208 273 324 376
#     4   9  20  36  63  87 121 167 206 268 313 383
#
# _framework density 21.671771
#
# number of rings (size 3 to 8) (size 9 to 14) (size 15 to 20)
#    0.857    1.714    0.000    0.857    6.000    2.286 
#    2.571    2.143    0.000    9.429    0.000    0.000 
#    0.000    0.000    0.000    0.000    0.000    0.000 
#
# Total GULP energy -155898.091525 kJ/mol
# GULP energy per Si atom -5567.788983 kJ/mol
# Density = 2.162244 g / cm^3
# Si number density = 21.671771 Si / 1000 Ang^3
#
#
#
# Elastic Constant Matrix: (Units=GPa)
#
#
# Indices 1 2 3 4 5 6 
#
# 1 58.7908 -10.8388 13.6438 0.0000 -9.6737 0.0000
# 2 -10.8388 47.3964 18.7463 0.0000 4.3502 0.0000
# 3 13.6438 18.7463 115.5394 0.0000 -25.0772 0.0000
# 4 0.0000 0.0000 0.0000 16.7188 0.0000 -10.8943
# 5 -9.6737 4.3502 -25.0772 0.0000 26.8169 0.0000
# 6 0.0000 0.0000 0.0000 -10.8943 0.0000 7.7126
#
#
#
# Elastic Compliance Matrix: (Units=1/GPa)
#
#
# Indices 1 2 3 4 5 6 
#
# 1 0.019072 0.004837 -0.002151 0.000000 0.004084 0.000000
# 2 0.004837 0.025594 -0.006582 0.000000 -0.008562 0.000000
# 3 -0.002151 -0.006582 0.012597 0.000000 0.012072 0.000000
# 4 0.000000 0.000000 0.000000 0.751704 0.000000 1.061801
# 5 0.004084 -0.008562 0.012072 0.000000 0.051441 0.000000
# 6 0.000000 0.000000 0.000000 1.061801 0.000000 1.629478
#
#
# Mechanical properties :
#
#
# Convention : Reuss Voigt Hill
#
# Bulk Modulus (GPa) = 20.21322 29.42547 24.81934
# Shear Modulus (GPa) = 1.98873 23.59466 12.79170
#
# Velocity S-wave (km/s) = 0.95898 3.30317 2.43214
# Velocity P-wave (km/s) = 3.25168 5.30614 4.40049
#
# Compressibility (1/GPa) = 0.04947258
#
# Stress axis : x y z
#
# Youngs Moduli (GPa) = 52.43174 39.07144 79.38319
#
# Poissons Ratio (x) = -0.18900 0.17072
# Poissons Ratio (y) = -0.25363 0.52252
# Poissons Ratio (z) = 0.11276 0.25718
#
# Static dielectric constant tensor:
#      x y z
#    x 1.811320 0.000000 -0.000750 
#    y 0.000000 1.851380 0.000000 
#    z -0.000750 0.000000 1.771390 
# 
# From -- ./inp_files/112348.got.cif
#   From: 2010.05.17/outbox.cif.g08.bks.cpg/sg15_57_cif.got.tgz:112348.got - 2010.06.03 18:47:42.
