data_PCOD9274046
_publ_section_title
;
Structure prediction by ZEFSAII (Michael W. Deem and Ramdas Pophale) SiO2 
 PCOD9274046
Probable space group: C 2/C
;
_chemical_formula_sum "Si O2"
_cell_formula_units_Z 56
_cell_length_a 16.681394
_cell_length_b 14.158040
_cell_length_c 13.442081
_cell_angle_alpha 90.000000
_cell_angle_beta 107.340624
_cell_angle_gamma 90.000000
_cell_volume 3030.404031
_symmetry_space_group_name_H-M "C 2/C"
_symmetry_group_IT_number 15
_symmetry_cell_setting 'monoclinic'
loop_
_space_group_symop_operation_xyz
x,y,z
-x,y,1/2-z
-x,-y,-z
x,-y,1/2+z
1/2+x,1/2+y,z
1/2-x,1/2+y,1/2-z
1/2-x,1/2-y,-z
1/2+x,1/2-y,1/2+z
loop_
_atom_site_type_symbol
_atom_site_label
_atom_site_fract_x
_atom_site_fract_y
_atom_site_fract_z
Si Si1 0.649829 0.395405 0.920551
Si Si2 0.465909 0.548300 0.387305
Si Si3 0.697586 0.480892 0.273261
Si Si4 0.578014 0.763356 0.138987
Si Si5 0.780190 0.486465 0.098533
Si Si6 0.109793 0.304696 0.382563
Si Si7 0.783351 0.657335 0.956135
O O1 0.553338 0.424291 0.864770
O O2 0.701499 0.425742 0.842992
O O3 0.654332 0.285817 0.947433
O O4 0.689204 0.456477 0.022564
O O5 0.500000 0.500000 0.500000
O O6 0.396467 0.483316 0.307727
O O7 0.424141 0.651588 0.387256
O O8 0.765733 0.488901 0.210992
O O9 0.718175 0.394199 0.355356
O O10 0.606410 0.777665 0.263901
O O11 0.483481 0.804137 0.106545
O O12 0.637873 0.814853 0.083312
O O13 0.843176 0.403021 0.091874
O O14 0.803858 0.581618 0.050146
O O15 0.750000 0.750000 0.000000
#
# Coordination Sequence:
#
# PCOD9274046 Si02
#       7
#     8   8   8   8   8   8   8
#     4  10  21  35  59  92 119 153 206 260 311 373
#     4  11  20  36  64  92 124 162 206 254 326 379
#     4  11  21  37  59  90 127 160 201 262 312 382
#     4  10  21  39  61  86 127 164 203 265 309 369
#     4  11  22  37  62  89 116 167 207 255 313 376
#     4  10  20  38  61  86 117 164 211 250 310 363
#     4  11  25  41  61  92 126 169 209 261 327 379
#
# _framework density 18.479385000000001
#
# number of rings (size 3 to 8) (size 9 to 14) (size 15 to 20)
#    0.000    1.429    4.286    1.714    2.000    0.571 
#    0.000    0.000    0.000    0.000    0.000    0.000 
#    0.000    0.000    0.000    0.000    0.000    0.000 
#
# Total GULP energy -156093.152018 kJ/mol
# GULP energy per Si atom -5574.755429 kJ/mol
# Density = 1.843732 g / cm^3
# Si number density = 18.479385 Si / 1000 Ang^3
#
#
#
# Elastic Constant Matrix: (Units=GPa)
#
#
# Indices 1 2 3 4 5 6 
#
# 1 90.0260 59.4401 29.5949 0.0000 -14.4431 0.0000
# 2 59.4401 132.6809 45.0978 0.0000 -9.4507 0.0000
# 3 29.5949 45.0978 75.3862 0.0000 -10.1349 0.0000
# 4 0.0000 0.0000 0.0000 32.6970 0.0000 4.9470
# 5 -14.4431 -9.4507 -10.1349 0.0000 31.5431 0.0000
# 6 0.0000 0.0000 0.0000 4.9470 0.0000 26.5557
#
#
#
# Elastic Compliance Matrix: (Units=1/GPa)
#
#
# Indices 1 2 3 4 5 6 
#
# 1 0.016904 -0.006510 -0.002052 0.000000 0.005130 0.000000
# 2 -0.006510 0.012002 -0.004746 0.000000 -0.000910 0.000000
# 3 -0.002052 -0.004746 0.017342 0.000000 0.003210 0.000000
# 4 0.000000 0.000000 0.000000 0.031471 0.000000 -0.005863
# 5 0.005130 -0.000910 0.003210 0.000000 0.034811 0.000000
# 6 0.000000 0.000000 0.000000 -0.005863 0.000000 0.038749
#
#
# Mechanical properties :
#
#
# Convention : Reuss Voigt Hill
#
# Bulk Modulus (GPa) = 50.94109 62.92875 56.93492
# Shear Modulus (GPa) = 27.10952 29.08985 28.09969
#
# Velocity S-wave (km/s) = 3.83432 3.97190 3.90371
# Velocity P-wave (km/s) = 6.87233 7.42711 7.15510
#
# Compressibility (1/GPa) = 0.01963052
#
# Stress axis : x y z
#
# Youngs Moduli (GPa) = 59.15883 83.32143 57.66486
#
# Poissons Ratio (x) = 0.54241 0.11833
# Poissons Ratio (y) = 0.38511 0.27370
# Poissons Ratio (z) = 0.12139 0.39548
#
# Static dielectric constant tensor:
#      x y z
#    x 1.655270 0.000000 0.000250 
#    y 0.000000 1.632080 0.000000 
#    z 0.000250 0.000000 1.687490 
# 
# From -- ./inp_files/153496.got.cif
#   From: 2010.05.17/outbox.cif.g08.bks.cpg/sg15_77_cif.got.tgz:153496.got - 2010.06.03 18:47:42.
