data_PCOD9274298
_publ_section_title
;
Structure prediction by ZEFSAII (Michael W. Deem and Ramdas Pophale) SiO2 
 PCOD9274298
Probable space group: C 2/C
;
_chemical_formula_sum "Si O2"
_cell_formula_units_Z 48
_cell_length_a 16.372307
_cell_length_b 29.462646
_cell_length_c 9.889643
_cell_angle_alpha 90.000000
_cell_angle_beta 32.993218
_cell_angle_gamma 90.000000
_cell_volume 2597.717002
_symmetry_space_group_name_H-M "C 2/C"
_symmetry_group_IT_number 15
_symmetry_cell_setting 'monoclinic'
loop_
_space_group_symop_operation_xyz
x,y,z
-x,y,1/2-z
-x,-y,-z
x,-y,1/2+z
1/2+x,1/2+y,z
1/2-x,1/2+y,1/2-z
1/2-x,1/2-y,-z
1/2+x,1/2-y,1/2+z
loop_
_atom_site_type_symbol
_atom_site_label
_atom_site_fract_x
_atom_site_fract_y
_atom_site_fract_z
Si Si1 0.884172 0.450042 0.033464
Si Si2 0.173944 0.871600 0.849298
Si Si3 0.902057 0.448541 0.517545
Si Si4 0.648812 0.271938 0.760926
Si Si5 0.321101 0.378343 0.333546
Si Si6 0.204602 0.776020 0.201564
O O1 0.834672 0.501331 0.143003
O O2 0.758894 0.417056 0.144444
O O3 0.000000 0.453543 0.750000
O O4 0.985356 0.433502 0.018804
O O5 0.278970 0.911471 0.652732
O O6 0.195144 0.823434 0.742591
O O7 0.206519 0.873318 0.966180
O O8 0.999696 0.883204 0.073043
O O9 0.000000 0.454087 0.250000
O O10 0.750000 0.250000 0.500000
O O11 0.684459 0.242307 0.841386
O O12 0.467000 0.269955 0.004348
O O13 0.274672 0.329395 0.343741
O O14 0.250000 0.750000 0.000000
#
# Coordination Sequence:
#
# PCOD9274298 Si02
#       6
#     8   8   8   8   8   8
#     4  10  20  38  62  91 117 158 203 248 298 366
#     4  10  21  40  60  87 122 159 201 251 303 358
#     4  10  22  38  60  89 126 152 194 254 310 360
#     4  11  24  40  60  89 125 159 199 255 313 356
#     4  10  21  38  64  87 116 160 209 250 290 361
#     4  11  22  40  61  88 120 160 207 251 294 366
#
# _framework density 18.477764000000001
#
# number of rings (size 3 to 8) (size 9 to 14) (size 15 to 20)
#    0.000    1.667    3.333    1.000    0.000    6.000 
#    0.000    2.500    0.000    0.000    0.000    0.000 
#    0.000    0.000    0.000    0.000    0.000    0.000 
#
# Total GULP energy -133602.881756 kJ/mol
# GULP energy per Si atom -5566.786740 kJ/mol
# Density = 1.843571 g / cm^3
# Si number density = 18.477764 Si / 1000 Ang^3
#
#
#
# Elastic Constant Matrix: (Units=GPa)
#
#
# Indices 1 2 3 4 5 6 
#
# 1 76.8189 44.8587 4.4705 0.0000 8.9941 0.0000
# 2 44.8587 119.2258 35.6481 0.0000 -25.8277 0.0000
# 3 4.4705 35.6481 60.6915 0.0000 9.0518 0.0000
# 4 0.0000 0.0000 0.0000 37.6363 0.0000 -8.6632
# 5 8.9941 -25.8277 9.0518 0.0000 24.4227 0.0000
# 6 0.0000 0.0000 0.0000 -8.6632 0.0000 39.1443
#
#
#
# Elastic Compliance Matrix: (Units=1/GPa)
#
#
# Indices 1 2 3 4 5 6 
#
# 1 0.044154 -0.041977 0.032231 0.000000 -0.072598 0.000000
# 2 -0.041977 0.057685 -0.044663 0.000000 0.093016 0.000000
# 3 0.032231 -0.044663 0.052027 0.000000 -0.078385 0.000000
# 4 0.000000 0.000000 0.000000 0.027996 0.000000 0.006196
# 5 -0.072598 0.093016 -0.078385 0.000000 0.195100 0.000000
# 6 0.000000 0.000000 0.000000 0.006196 0.000000 0.026918
#
#
# Mechanical properties :
#
#
# Convention : Reuss Voigt Hill
#
# Bulk Modulus (GPa) = 22.19834 47.41010 34.80422
# Shear Modulus (GPa) = 9.47481 31.69124 20.58303
#
# Velocity S-wave (km/s) = 2.26690 4.14587 3.34119
# Velocity P-wave (km/s) = 4.34642 6.97361 5.81045
#
# Compressibility (1/GPa) = 0.04504842
#
# Stress axis : x y z
#
# Youngs Moduli (GPa) = 22.64785 17.33545 19.22082
#
# Poissons Ratio (x) = 0.72769 -0.61950
# Poissons Ratio (y) = 0.95068 0.85846
# Poissons Ratio (z) = -0.72996 0.77426
#
# Static dielectric constant tensor:
#      x y z
#    x 0.554410 0.000000 -0.186330 
#    y 0.000000 1.543100 0.000000 
#    z -0.186330 0.000000 1.634400 
# 
# From -- ./inp_files/33780.got.cif
#   From: 2010.05.17/outbox.cif.g08.bks.cpg/sg15_17_cif.got.tgz:33780.got - 2010.06.03 18:47:42.
