data_PCOD9274181
_publ_section_title
;
Structure prediction by ZEFSAII (Michael W. Deem and Ramdas Pophale) SiO2 
 PCOD9274181
Probable space group: C 2/C
;
_chemical_formula_sum "Si O2"
_cell_formula_units_Z 44
_cell_length_a 25.836127
_cell_length_b 6.437956
_cell_length_c 15.238781
_cell_angle_alpha 90.000000
_cell_angle_beta 119.986180
_cell_angle_gamma 90.000000
_cell_volume 2195.415556
_symmetry_space_group_name_H-M "C 2/C"
_symmetry_group_IT_number 15
_symmetry_cell_setting 'monoclinic'
loop_
_space_group_symop_operation_xyz
x,y,z
-x,y,1/2-z
-x,-y,-z
x,-y,1/2+z
1/2+x,1/2+y,z
1/2-x,1/2+y,1/2-z
1/2-x,1/2-y,-z
1/2+x,1/2-y,1/2+z
loop_
_atom_site_type_symbol
_atom_site_label
_atom_site_fract_x
_atom_site_fract_y
_atom_site_fract_z
Si Si1 0.500000 0.273399 0.750000
Si Si2 0.314430 0.313961 0.974855
Si Si3 0.987510 0.303252 0.047780
Si Si4 0.706581 0.066775 0.931479
Si Si5 0.101570 0.012516 0.103362
Si Si6 0.372971 0.431474 0.683881
O O1 0.512404 0.147033 0.848958
O O2 0.442288 0.414376 0.717645
O O3 0.341779 0.431495 0.083073
O O4 0.312895 0.073695 0.002182
O O5 0.247757 0.410795 0.909070
O O6 0.354661 0.369531 0.926000
O O7 0.043606 0.151511 0.077312
O O8 0.000000 0.500000 0.000000
O O9 0.926536 0.188743 0.967577
O O10 0.653479 0.195658 0.841113
O O11 0.750000 0.250000 0.000000
O O12 0.132809 0.975969 0.223603
#
# Coordination Sequence:
#
# PCOD9274181 Si02
#       6
#     4   8   8   8   8   8
#     4  10  20  38  62  84 130 164 204 264 310 380
#     4  10  20  41  65  84 123 169 202 262 319 376
#     4  10  22  39  58  94 127 161 209 259 313 380
#     4   9  21  40  60  89 121 160 210 255 317 378
#     4  10  22  39  61  93 122 159 212 256 309 383
#     4  10  21  39  60  90 125 157 209 259 314 382
#
# _framework density 20.041764000000001
#
# number of rings (size 3 to 8) (size 9 to 14) (size 15 to 20)
#    0.000    2.182    1.818    0.000    2.545    2.909 
#    9.818    0.909    0.000    0.000    0.000    0.000 
#    0.000    0.000    0.000    0.000    0.000    0.000 
#
# Total GULP energy -122701.992292 kJ/mol
# GULP energy per Si atom -5577.363286 kJ/mol
# Density = 1.999615 g / cm^3
# Si number density = 20.041764 Si / 1000 Ang^3
#
#
#
# Elastic Constant Matrix: (Units=GPa)
#
#
# Indices 1 2 3 4 5 6 
#
# 1 106.6753 17.1597 43.4369 0.0000 -10.5907 0.0000
# 2 17.1597 72.4615 32.7008 0.0000 -4.8919 0.0000
# 3 43.4369 32.7008 111.3921 0.0000 -29.9101 0.0000
# 4 0.0000 0.0000 0.0000 8.4001 0.0000 -9.2728
# 5 -10.5907 -4.8919 -29.9101 0.0000 40.0354 0.0000
# 6 0.0000 0.0000 0.0000 -9.2728 0.0000 25.2599
#
#
#
# Elastic Compliance Matrix: (Units=1/GPa)
#
#
# Indices 1 2 3 4 5 6 
#
# 1 0.011185 -0.000767 -0.004212 0.000000 -0.000282 0.000000
# 2 -0.000767 0.016081 -0.004940 0.000000 -0.001928 0.000000
# 3 -0.004212 -0.004940 0.014522 0.000000 0.009131 0.000000
# 4 0.000000 0.000000 0.000000 0.200156 0.000000 0.073477
# 5 -0.000282 -0.001928 0.009131 0.000000 0.031490 0.000000
# 6 0.000000 0.000000 0.000000 0.073477 0.000000 0.066562
#
#
# Mechanical properties :
#
#
# Convention : Reuss Voigt Hill
#
# Bulk Modulus (GPa) = 45.55670 53.01372 49.28521
# Shear Modulus (GPa) = 13.61849 27.88785 20.75317
#
# Velocity S-wave (km/s) = 2.60956 3.73431 3.22140
# Velocity P-wave (km/s) = 5.64446 6.71584 6.20332
#
# Compressibility (1/GPa) = 0.02195067
#
# Stress axis : x y z
#
# Youngs Moduli (GPa) = 89.40800 62.18519 68.86275
#
# Poissons Ratio (x) = 0.04769 0.29004
# Poissons Ratio (y) = 0.06857 0.34015
# Poissons Ratio (z) = 0.37658 0.30716
#
# Static dielectric constant tensor:
#      x y z
#    x 1.728310 0.000000 0.030230 
#    y 0.000000 1.710190 0.000000 
#    z 0.030230 0.000000 1.738210 
# 
# From -- ./inp_files/179826.got.cif
#   From: 2010.05.17/outbox.cif.g08.bks.cpg/sg15_90_cif.got.tgz:179826.got - 2010.06.03 18:47:42.
