data_PCOD9274443
_publ_section_title
;
Structure prediction by ZEFSAII (Michael W. Deem and Ramdas Pophale) SiO2 
 PCOD9274443
Probable space group: C 2/C
;
_chemical_formula_sum "Si O2"
_cell_formula_units_Z 60
_cell_length_a 11.236283
_cell_length_b 22.523211
_cell_length_c 20.846331
_cell_angle_alpha 90.000000
_cell_angle_beta 32.863649
_cell_angle_gamma 90.000000
_cell_volume 2862.831102
_symmetry_space_group_name_H-M "C 2/C"
_symmetry_group_IT_number 15
_symmetry_cell_setting 'monoclinic'
loop_
_space_group_symop_operation_xyz
x,y,z
-x,y,1/2-z
-x,-y,-z
x,-y,1/2+z
1/2+x,1/2+y,z
1/2-x,1/2+y,1/2-z
1/2-x,1/2-y,-z
1/2+x,1/2-y,1/2+z
loop_
_atom_site_type_symbol
_atom_site_label
_atom_site_fract_x
_atom_site_fract_y
_atom_site_fract_z
Si Si1 0.201341 0.680922 0.284985
Si Si2 0.000000 0.689511 0.250000
Si Si3 0.877561 0.175132 0.477880
Si Si4 0.763677 0.061265 0.330742
Si Si5 0.943174 0.258540 0.007186
Si Si6 0.622951 0.038816 0.796159
Si Si7 0.495096 0.874888 0.447396
Si Si8 0.169533 0.948051 0.435836
O O1 0.080543 0.655533 0.276495
O O2 0.431322 0.703152 0.152769
O O3 0.269947 0.628093 0.300464
O O4 0.044925 0.728409 0.390842
O O5 0.212914 0.725608 0.126444
O O6 0.681416 0.157138 0.519495
O O7 0.931262 0.112398 0.489262
O O8 0.867413 0.222375 0.540009
O O9 0.606393 0.071836 0.463286
O O10 0.000000 0.042869 0.250000
O O11 0.696552 0.018913 0.302394
O O12 0.912704 0.324032 0.049611
O O13 0.665378 0.093575 0.824260
O O14 0.727141 0.057437 0.681549
O O15 0.363975 0.033843 0.896682
O O16 0.000000 0.000000 0.500000
#
# Coordination Sequence:
#
# PCOD9274443 Si02
#       8
#     8   4   8   8   8   8   8   8
#     4  10  21  38  63  91 119 161 208 257 304 369
#     4  10  22  40  58  86 130 160 202 250 314 372
#     4  10  20  38  63  90 122 161 208 256 303 363
#     4  11  21  38  65  90 124 161 208 258 310 372
#     4  10  22  37  62  91 124 162 204 254 308 370
#     4  10  23  39  60  91 126 162 205 262 315 372
#     4  10  21  40  58  91 126 159 208 253 311 367
#     4  10  22  40  63  91 125 163 210 258 313 372
#
# _framework density 20.958275
#
# number of rings (size 3 to 8) (size 9 to 14) (size 15 to 20)
#    0.000    1.867    1.333    2.000    1.867    5.333 
#    1.200    4.000    0.000    0.000    0.000    0.000 
#    0.000    0.000    0.000    0.000    0.000    0.000 
#
# Total GULP energy -167040.240740 kJ/mol
# GULP energy per Si atom -5568.008025 kJ/mol
# Density = 2.091057 g / cm^3
# Si number density = 20.958275 Si / 1000 Ang^3
#
#
#
# Elastic Constant Matrix: (Units=GPa)
#
#
# Indices 1 2 3 4 5 6 
#
# 1 70.3717 12.4082 22.3318 0.0239 20.6027 0.0004
# 2 12.4082 53.5522 16.5238 0.0936 3.4016 0.0137
# 3 22.3318 16.5238 64.0734 0.2724 11.9848 0.0251
# 4 0.0239 0.0936 0.2724 6.1592 -0.0150 3.3260
# 5 20.6027 3.4016 11.9848 -0.0150 27.9856 -0.0058
# 6 0.0004 0.0137 0.0251 3.3260 -0.0058 39.5780
#
#
#
# Elastic Compliance Matrix: (Units=1/GPa)
#
#
# Indices 1 2 3 4 5 6 
#
# 1 0.019507 -0.002553 -0.003819 0.000106 -0.012415 -0.000008
# 2 -0.002553 0.020623 -0.004686 -0.000095 0.001380 0.000004
# 3 -0.003819 -0.004686 0.019043 -0.000798 -0.004775 0.000056
# 4 0.000106 -0.000095 -0.000798 0.170115 0.000364 -0.014295
# 5 -0.012415 0.001380 -0.004775 0.000364 0.046750 -0.000021
# 6 -0.000008 0.000004 0.000056 -0.014295 -0.000021 0.026468
#
#
# Mechanical properties :
#
#
# Convention : Reuss Voigt Hill
#
# Bulk Modulus (GPa) = 26.98532 32.28052 29.63292
# Shear Modulus (GPa) = 14.83790 23.86013 19.34901
#
# Velocity S-wave (km/s) = 2.66366 3.37777 3.04174
# Velocity P-wave (km/s) = 4.72904 5.53607 5.14839
#
# Compressibility (1/GPa) = 0.03705718
#
# Stress axis : x y z
#
# Youngs Moduli (GPa) = 51.26369 48.48847 52.51260
#
# Poissons Ratio (x) = 0.12380 0.20053
# Poissons Ratio (y) = 0.13088 0.24609
# Poissons Ratio (z) = 0.19576 0.22723
#
# Static dielectric constant tensor:
#      x y z
#    x 1.951530 0.000020 0.322720 
#    y 0.000020 1.739010 0.000050 
#    z 0.322720 0.000050 2.382530 
# 
# From -- ./inp_files/240848.got.cif
#   From: 2010.05.17/outbox.cif.g08.bks.cpg/sg15_121_cif.got.tgz:240848.got - 2010.06.03 18:47:42.
