data_PCOD9274062
_publ_section_title
;
Structure prediction by ZEFSAII (Michael W. Deem and Ramdas Pophale) SiO2 
 PCOD9274062
Probable space group: C 2/C
;
_chemical_formula_sum "Si O2"
_cell_formula_units_Z 60
_cell_length_a 8.921984
_cell_length_b 19.772933
_cell_length_c 20.421476
_cell_angle_alpha 90.000000
_cell_angle_beta 51.400008
_cell_angle_gamma 90.000000
_cell_volume 2815.529426
_symmetry_space_group_name_H-M "C 2/C"
_symmetry_group_IT_number 15
_symmetry_cell_setting 'monoclinic'
loop_
_space_group_symop_operation_xyz
x,y,z
-x,y,1/2-z
-x,-y,-z
x,-y,1/2+z
1/2+x,1/2+y,z
1/2-x,1/2+y,1/2-z
1/2-x,1/2-y,-z
1/2+x,1/2-y,1/2+z
loop_
_atom_site_type_symbol
_atom_site_label
_atom_site_fract_x
_atom_site_fract_y
_atom_site_fract_z
Si Si1 0.000000 0.587547 0.250000
Si Si2 0.075059 0.809204 0.301717
Si Si3 0.749742 0.970339 0.129425
Si Si4 0.174362 0.978991 0.036974
Si Si5 0.846996 0.348373 0.039180
Si Si6 0.901566 0.328196 0.649584
Si Si7 0.595122 0.903606 0.337775
Si Si8 0.296644 0.462473 0.835900
O O1 0.173750 0.533455 0.193614
O O2 0.998716 0.635066 0.314573
O O3 0.174589 0.743781 0.305639
O O4 0.226384 0.869478 0.248650
O O5 0.000000 0.790777 0.250000
O O6 0.872534 0.823826 0.392935
O O7 0.586955 0.914566 0.159482
O O8 0.958362 0.950060 0.097752
O O9 0.786541 0.996773 0.045989
O O10 0.327432 0.923092 0.014501
O O11 0.191337 0.034029 0.089024
O O12 0.933424 0.358331 0.088613
O O13 0.968038 0.312415 0.949836
O O14 0.755474 0.386854 0.669553
O O15 0.655829 0.978603 0.347139
O O16 0.500000 0.481707 0.750000
#
# Coordination Sequence:
#
# PCOD9274062 Si02
#       8
#     4   8   8   8   8   8   8   8
#     4  12  22  34  56  90 120 158 200 256 304 366
#     4  10  22  38  60  89 124 162 211 254 305 367
#     4  11  22  36  59  93 124 156 196 255 315 365
#     4  10  21  37  59  92 125 153 199 255 309 365
#     4  10  20  38  61  87 116 164 207 251 300 366
#     4  12  22  38  60  87 124 163 209 251 310 366
#     4  10  20  39  64  90 119 159 204 256 304 365
#     4  11  21  38  62  88 119 157 202 255 305 368
#
# _framework density 21.310378
#
# number of rings (size 3 to 8) (size 9 to 14) (size 15 to 20)
#    0.000    1.333    3.333    4.000    1.867    2.133 
#    0.000    1.333    0.000    0.000    0.000    9.333 
#    0.000    0.000    0.000    0.000    0.000    0.000 
#
# Total GULP energy -167399.460620 kJ/mol
# GULP energy per Si atom -5579.982021 kJ/mol
# Density = 2.126188 g / cm^3
# Si number density = 21.310378 Si / 1000 Ang^3
#
#
#
# Elastic Constant Matrix: (Units=GPa)
#
#
# Indices 1 2 3 4 5 6 
#
# 1 75.2880 18.7569 18.4092 0.0000 -2.6850 0.0000
# 2 18.7569 76.3253 20.6250 0.0000 1.6504 0.0000
# 3 18.4092 20.6250 108.5881 0.0000 13.6231 0.0000
# 4 0.0000 0.0000 0.0000 23.6844 0.0000 3.2898
# 5 -2.6850 1.6504 13.6231 0.0000 31.9778 0.0000
# 6 0.0000 0.0000 0.0000 3.2898 0.0000 28.5984
#
#
#
# Elastic Compliance Matrix: (Units=1/GPa)
#
#
# Indices 1 2 3 4 5 6 
#
# 1 0.014665 -0.003061 -0.002197 0.000000 0.002325 0.000000
# 2 -0.003061 0.014455 -0.002219 0.000000 -0.000057 0.000000
# 3 -0.002197 -0.002219 0.010577 0.000000 -0.004576 0.000000
# 4 0.000000 0.000000 0.000000 0.042907 0.000000 -0.004936
# 5 0.002325 -0.000057 -0.004576 0.000000 0.033419 0.000000
# 6 0.000000 0.000000 0.000000 -0.004936 0.000000 0.035535
#
#
# Mechanical properties :
#
#
# Convention : Reuss Voigt Hill
#
# Bulk Modulus (GPa) = 40.41426 41.75375 41.08401
# Shear Modulus (GPa) = 28.61075 30.34615 29.47845
#
# Velocity S-wave (km/s) = 3.66809 3.77770 3.72330
# Velocity P-wave (km/s) = 6.07829 6.21801 6.14855
#
# Compressibility (1/GPa) = 0.02474374
#
# Stress axis : x y z
#
# Youngs Moduli (GPa) = 68.19037 69.18048 94.54355
#
# Poissons Ratio (x) = 0.21173 0.20767
# Poissons Ratio (y) = 0.20870 0.20984
# Poissons Ratio (z) = 0.14978 0.15354
#
# Static dielectric constant tensor:
#      x y z
#    x 1.780690 0.000000 0.005340 
#    y 0.000000 1.767190 0.000000 
#    z 0.005340 0.000000 1.842400 
# 
# From -- ./inp_files/234065.got.cif
#   From: 2010.05.17/outbox.cif.g08.bks.cpg/sg15_118_cif.got.tgz:234065.got - 2010.06.03 18:47:42.
