data_PCOD9274966
_publ_section_title
;
Structure prediction by ZEFSAII (Michael W. Deem and Ramdas Pophale) SiO2 
 PCOD9274966
Probable space group: C 2/C
;
_chemical_formula_sum "Si O2"
_cell_formula_units_Z 48
_cell_length_a 28.586620
_cell_length_b 7.900770
_cell_length_c 14.459783
_cell_angle_alpha 90.000000
_cell_angle_beta 39.586914
_cell_angle_gamma 90.000000
_cell_volume 2081.145669
_symmetry_space_group_name_H-M "C 2/C"
_symmetry_group_IT_number 15
_symmetry_cell_setting 'monoclinic'
loop_
_space_group_symop_operation_xyz
x,y,z
-x,y,1/2-z
-x,-y,-z
x,-y,1/2+z
1/2+x,1/2+y,z
1/2-x,1/2+y,1/2-z
1/2-x,1/2-y,-z
1/2+x,1/2-y,1/2+z
loop_
_atom_site_type_symbol
_atom_site_label
_atom_site_fract_x
_atom_site_fract_y
_atom_site_fract_z
Si Si1 0.278673 0.913381 0.011203
Si Si2 0.726069 0.398408 0.418183
Si Si3 0.036771 0.179818 0.462350
Si Si4 0.939319 0.728374 0.264871
Si Si5 0.569000 0.640007 0.210765
Si Si6 0.192312 0.897793 0.800232
O O1 0.364881 0.875852 0.894655
O O2 0.261298 0.058802 0.962404
O O3 0.250000 0.750000 0.000000
O O4 0.228700 0.962739 0.175805
O O5 0.646600 0.312052 0.549076
O O6 0.776405 0.276365 0.283556
O O7 0.713652 0.561042 0.372048
O O8 0.060980 0.229846 0.322377
O O9 0.105533 0.127157 0.421292
O O10 0.979806 0.296850 0.604188
O O11 0.000000 0.000000 0.500000
O O12 0.000000 0.691575 0.250000
O O13 0.924760 0.933365 0.288232
O O14 0.500000 0.674270 0.250000
#
# Coordination Sequence:
#
# PCOD9274966 Si02
#       6
#     8   8   8   8   8   8
#     4  12  23  43  69 103 138 178 225 284 344 407
#     4  12  25  43  68 102 134 177 228 283 339 412
#     4  10  20  39  66  96 129 179 228 271 329 419
#     4  10  21  38  69  97 136 178 226 274 343 410
#     4  10  20  38  66  97 132 177 230 271 329 414
#     4  12  26  42  72  98 138 178 232 279 344 407
#
# _framework density 23.064219999999999
#
# number of rings (size 3 to 8) (size 9 to 14) (size 15 to 20)
#    0.000    1.000    3.333    5.500    2.333    1.333 
#    0.000    1.667    3.667    0.000    0.000    0.000 
#    0.000    0.000    0.000    0.000    0.000    0.000 
#
# Total GULP energy -134227.110389 kJ/mol
# GULP energy per Si atom -5592.796266 kJ/mol
# Density = 2.301172 g / cm^3
# Si number density = 23.064220 Si / 1000 Ang^3
#
#
#
# Elastic Constant Matrix: (Units=GPa)
#
#
# Indices 1 2 3 4 5 6 
#
# 1 96.9921 7.8380 13.8126 0.0000 -15.5630 0.0000
# 2 7.8380 33.6553 -2.3210 0.0006 -7.7239 -0.0001
# 3 13.8126 -2.3210 86.6617 0.0001 -9.9111 0.0000
# 4 0.0000 0.0006 0.0001 29.5385 0.0000 11.8554
# 5 -15.5630 -7.7239 -9.9111 0.0000 55.2339 0.0000
# 6 0.0000 -0.0001 0.0000 11.8554 0.0000 11.4608
#
#
#
# Elastic Compliance Matrix: (Units=1/GPa)
#
#
# Indices 1 2 3 4 5 6 
#
# 1 0.011110 -0.002105 -0.001534 0.000000 0.002561 0.000000
# 2 -0.002105 0.031251 0.001638 -0.000001 0.004071 0.000002
# 3 -0.001534 0.001638 0.012052 0.000000 0.001959 0.000000
# 4 0.000000 -0.000001 0.000000 0.057888 0.000000 -0.059881
# 5 0.002561 0.004071 0.001959 0.000000 0.019747 0.000000
# 6 0.000000 0.000002 0.000000 -0.059881 0.000000 0.149197
#
#
# Mechanical properties :
#
#
# Convention : Reuss Voigt Hill
#
# Bulk Modulus (GPa) = 19.83793 28.44094 24.13944
# Shear Modulus (GPa) = 16.55353 32.44526 24.49940
#
# Velocity S-wave (km/s) = 2.68193 3.75472 3.26272
# Velocity P-wave (km/s) = 4.26734 5.58168 4.96816
#
# Compressibility (1/GPa) = 0.05040848
#
# Stress axis : x y z
#
# Youngs Moduli (GPa) = 90.01210 31.99940 82.97654
#
# Poissons Ratio (x) = 0.06737 0.12731
# Poissons Ratio (y) = 0.18952 -0.13592
# Poissons Ratio (z) = 0.13810 -0.05242
#
# Static dielectric constant tensor:
#      x y z
#    x 1.965490 0.000000 0.203220 
#    y 0.000000 1.908770 0.000000 
#    z 0.203220 0.000000 2.143680 
# 
# From -- ./inp_files/180712.got.cif
#   From: 2010.05.17/outbox.cif.g08.bks.cpg/sg15_91_cif.got.tgz:180712.got - 2010.06.03 18:47:42.
