data_PCOD9274064
_publ_section_title
;
Structure prediction by ZEFSAII (Michael W. Deem and Ramdas Pophale) SiO2 
 PCOD9274064
Probable space group: C 2/C
;
_chemical_formula_sum "Si O2"
_cell_formula_units_Z 36
_cell_length_a 27.434827
_cell_length_b 6.896471
_cell_length_c 13.851209
_cell_angle_alpha 90.000000
_cell_angle_beta 33.991819
_cell_angle_gamma 90.000000
_cell_volume 1465.164963
_symmetry_space_group_name_H-M "C 2/C"
_symmetry_group_IT_number 15
_symmetry_cell_setting 'monoclinic'
loop_
_space_group_symop_operation_xyz
x,y,z
-x,y,1/2-z
-x,-y,-z
x,-y,1/2+z
1/2+x,1/2+y,z
1/2-x,1/2+y,1/2-z
1/2-x,1/2-y,-z
1/2+x,1/2-y,1/2+z
loop_
_atom_site_type_symbol
_atom_site_label
_atom_site_fract_x
_atom_site_fract_y
_atom_site_fract_z
Si Si1 0.500000 0.279307 0.250000
Si Si2 0.497811 0.730767 0.538955
Si Si3 0.660024 0.528423 0.991823
Si Si4 0.832836 0.855120 0.818271
Si Si5 0.175821 0.253352 0.780872
O O1 0.527356 0.197935 0.310596
O O2 0.416772 0.398879 0.425025
O O3 0.500000 0.500000 0.500000
O O4 0.598996 0.775362 0.351312
O O5 0.420434 0.807898 0.597738
O O6 0.747028 0.403618 0.864949
O O7 0.676783 0.705437 0.892995
O O8 0.620503 0.583892 0.159182
O O9 0.806033 0.046976 0.802892
O O10 0.750000 0.750000 0.000000
#
# Coordination Sequence:
#
# PCOD9274064 Si02
#       5
#     4   8   8   8   8
#     4  12  20  38  64  86 118 166 206 240 290 376
#     4  10  20  38  61  87 118 163 207 236 295 370
#     4  12  22  38  64  89 125 159 203 249 298 361
#     4  11  22  39  62  92 121 158 202 250 298 357
#     4  11  23  40  61  93 121 162 201 248 301 356
#
# _framework density 24.570613000000002
#
# number of rings (size 3 to 8) (size 9 to 14) (size 15 to 20)
#    0.000    0.889    8.889    2.000    0.000    0.000 
#    0.000    3.333    0.000    0.000    0.000    0.000 
#    0.000    0.000    0.000    0.000    0.000    0.000 
#
# Total GULP energy -100374.682146 kJ/mol
# GULP energy per Si atom -5576.371230 kJ/mol
# Density = 2.451469 g / cm^3
# Si number density = 24.570613 Si / 1000 Ang^3
#
#
#
# Elastic Constant Matrix: (Units=GPa)
#
#
# Indices 1 2 3 4 5 6 
#
# 1 112.8929 24.8424 37.3208 0.0002 25.2247 0.0000
# 2 24.8424 59.3819 24.9346 0.0013 7.1152 0.0005
# 3 37.3208 24.9346 160.8294 0.0006 9.8401 0.0002
# 4 0.0002 0.0013 0.0006 22.9194 0.0001 8.3582
# 5 25.2247 7.1152 9.8401 0.0001 65.0064 0.0000
# 6 0.0000 0.0005 0.0002 8.3582 0.0000 -4.7210
#
#
#
# Elastic Compliance Matrix: (Units=1/GPa)
#
#
# Indices 1 2 3 4 5 6 
#
# 1 0.011017 -0.003416 -0.001805 0.000000 -0.003628 0.000000
# 2 -0.003416 0.019231 -0.002161 -0.000001 -0.000452 0.000000
# 3 -0.001805 -0.002161 0.006979 0.000000 -0.000120 0.000000
# 4 0.000000 -0.000001 0.000000 0.026513 0.000000 0.046940
# 5 -0.003628 -0.000452 -0.000120 0.000000 0.016858 0.000000
# 6 0.000000 0.000000 0.000000 0.046940 0.000000 -0.128716
#
#
# Mechanical properties :
#
#
# Convention : Reuss Voigt Hill
#
# Bulk Modulus (GPa) = 44.51917 56.36665 50.44291
# Shear Modulus (GPa) = -193.30897 33.04139 -80.13379
#
# Velocity S-wave (km/s) = -8.87951 3.67106 -5.71703
# Velocity P-wave (km/s) = 9.32574 6.39996 4.79635
#
# Compressibility (1/GPa) = 0.02246224
#
# Stress axis : x y z
#
# Youngs Moduli (GPa) = 90.76872 51.99935 143.28783
#
# Poissons Ratio (x) = 0.17765 0.25862
# Poissons Ratio (y) = 0.31010 0.30966
# Poissons Ratio (z) = 0.16383 0.11237
#
# Static dielectric constant tensor:
#      x y z
#    x 2.181540 0.000000 -0.065210 
#    y 0.000000 2.184140 0.000000 
#    z -0.065210 0.000000 1.968350 
# 
# From -- ./inp_files/176818.got.cif
#   From: 2010.05.17/outbox.cif.g08.bks.cpg/sg15_89_cif.got.tgz:176818.got - 2010.06.03 18:47:42.
