data_PCOD9274148
_publ_section_title
;
Structure prediction by ZEFSAII (Michael W. Deem and Ramdas Pophale) SiO2 
 PCOD9274148
Probable space group: C 2/C
;
_chemical_formula_sum "Si O2"
_cell_formula_units_Z 64
_cell_length_a 14.806228
_cell_length_b 19.034543
_cell_length_c 15.909433
_cell_angle_alpha 90.000000
_cell_angle_beta 139.674570
_cell_angle_gamma 90.000000
_cell_volume 2901.562472
_symmetry_space_group_name_H-M "C 2/C"
_symmetry_group_IT_number 15
_symmetry_cell_setting 'monoclinic'
loop_
_space_group_symop_operation_xyz
x,y,z
-x,y,1/2-z
-x,-y,-z
x,-y,1/2+z
1/2+x,1/2+y,z
1/2-x,1/2+y,1/2-z
1/2-x,1/2-y,-z
1/2+x,1/2-y,1/2+z
loop_
_atom_site_type_symbol
_atom_site_label
_atom_site_fract_x
_atom_site_fract_y
_atom_site_fract_z
Si Si1 0.379793 0.634312 0.543802
Si Si2 0.225899 0.579048 0.576786
Si Si3 0.751771 0.569157 0.197428
Si Si4 0.893111 0.338435 0.250063
Si Si5 0.014351 0.475478 0.362879
Si Si6 0.764709 0.784674 0.755555
Si Si7 0.652755 0.421819 0.151370
Si Si8 0.430341 0.223175 0.034819
O O1 0.360025 0.591765 0.614251
O O2 0.249940 0.609316 0.393460
O O3 0.508975 0.614973 0.574686
O O4 0.395570 0.716055 0.577222
O O5 0.156065 0.506846 0.498160
O O6 0.264637 0.581805 0.701387
O O7 0.124610 0.645528 0.485579
O O8 0.715153 0.631623 0.234728
O O9 0.647412 0.503519 0.124675
O O10 0.897532 0.529420 0.313289
O O11 0.841122 0.262526 0.241129
O O12 0.745728 0.382232 0.146447
O O13 0.000000 0.328198 0.250000
O O14 0.983463 0.395357 0.368852
O O15 0.000000 0.476052 0.250000
O O16 0.596909 0.775286 0.638273
O O17 0.839662 0.752530 0.891809
#
# Coordination Sequence:
#
# PCOD9274148 Si02
#       8
#     8   8   8   8   8   8   8   8
#     4  11  22  39  62  93 133 172 200 252 331 406
#     4  12  22  37  65  98 132 159 206 271 323 385
#     4  10  22  38  65  86 127 173 207 261 317 382
#     4  10  22  42  66  86 122 172 221 268 314 375
#     4  10  20  38  61  95 122 162 215 258 318 385
#     4  11  22  42  64  92 128 168 220 263 321 384
#     4  11  23  41  63  96 125 165 216 266 323 377
#     4  11  22  39  62  97 131 172 202 262 326 399
#
# _framework density 22.057081
#
# number of rings (size 3 to 8) (size 9 to 14) (size 15 to 20)
#    0.000    1.250    5.000    1.125    0.000    3.000 
#    0.000    3.125    0.000    0.000    0.000    0.000 
#    0.000    0.000    0.000    0.000    0.000    0.000 
#
# Total GULP energy -178327.674262 kJ/mol
# GULP energy per Si atom -5572.739821 kJ/mol
# Density = 2.200688 g / cm^3
# Si number density = 22.057081 Si / 1000 Ang^3
#
#
#
# Elastic Constant Matrix: (Units=GPa)
#
#
# Indices 1 2 3 4 5 6 
#
# 1 89.7037 40.5220 16.8237 -0.0001 22.5504 0.0000
# 2 40.5220 113.6897 -14.6103 -0.0001 0.7944 -0.0001
# 3 16.8237 -14.6103 57.7942 -0.0001 9.7847 -0.0001
# 4 -0.0001 -0.0001 -0.0001 18.8008 -0.0001 4.5929
# 5 22.5504 0.7944 9.7847 -0.0001 21.4086 -0.0001
# 6 0.0000 -0.0001 -0.0001 4.5929 -0.0001 32.2515
#
#
#
# Elastic Compliance Matrix: (Units=1/GPa)
#
#
# Indices 1 2 3 4 5 6 
#
# 1 0.020240 -0.007677 -0.004629 0.000000 -0.018918 0.000000
# 2 -0.007677 0.012048 0.004321 0.000000 0.005664 0.000000
# 3 -0.004629 0.004321 0.020533 0.000000 -0.004669 0.000000
# 4 0.000000 0.000000 0.000000 0.055106 0.000000 -0.007848
# 5 -0.018918 0.005664 -0.004669 0.000000 0.068561 0.000000
# 6 0.000000 0.000000 0.000000 -0.007848 0.000000 0.032124
#
#
# Mechanical properties :
#
#
# Convention : Reuss Voigt Hill
#
# Bulk Modulus (GPa) = 27.13608 38.51759 32.82683
# Shear Modulus (GPa) = 21.10905 29.05567 25.08236
#
# Velocity S-wave (km/s) = 3.09693 3.63339 3.37583
# Velocity P-wave (km/s) = 5.01172 5.92475 5.48726
#
# Compressibility (1/GPa) = 0.03685131
#
# Stress axis : x y z
#
# Youngs Moduli (GPa) = 49.40786 83.00264 48.70148
#
# Poissons Ratio (x) = 0.63719 0.22546
# Poissons Ratio (y) = 0.37929 -0.21046
# Poissons Ratio (z) = 0.22873 -0.35869
#
# Static dielectric constant tensor:
#      x y z
#    x 1.868870 0.000000 -0.004850 
#    y 0.000000 1.870680 0.000000 
#    z -0.004850 0.000000 1.894270 
# 
# From -- ./inp_files/206479.got.cif
#   From: 2010.05.17/outbox.cif.g08.bks.cpg/sg15_104_cif.got.tgz:206479.got - 2010.06.03 18:47:42.
