data_PCOD9274757
_publ_section_title
;
Structure prediction by ZEFSAII (Michael W. Deem and Ramdas Pophale) SiO2 
 PCOD9274757
Probable space group: C 2/C
;
_chemical_formula_sum "Si O2"
_cell_formula_units_Z 64
_cell_length_a 14.757398
_cell_length_b 24.445961
_cell_length_c 14.890505
_cell_angle_alpha 90.000000
_cell_angle_beta 32.365020
_cell_angle_gamma 90.000000
_cell_volume 2875.627824
_symmetry_space_group_name_H-M "C 2/C"
_symmetry_group_IT_number 15
_symmetry_cell_setting 'monoclinic'
loop_
_space_group_symop_operation_xyz
x,y,z
-x,y,1/2-z
-x,-y,-z
x,-y,1/2+z
1/2+x,1/2+y,z
1/2-x,1/2+y,1/2-z
1/2-x,1/2-y,-z
1/2+x,1/2-y,1/2+z
loop_
_atom_site_type_symbol
_atom_site_label
_atom_site_fract_x
_atom_site_fract_y
_atom_site_fract_z
Si Si1 0.759002 0.883886 0.856371
Si Si2 0.116206 0.692205 0.992181
Si Si3 0.855377 0.404488 0.159789
Si Si4 0.203824 0.588892 0.591390
Si Si5 0.304099 0.037775 0.391332
Si Si6 0.714151 0.694448 0.325103
Si Si7 0.321724 0.517063 0.192217
Si Si8 0.842678 0.148934 0.942514
O O1 0.815279 0.833217 0.747195
O O2 0.849294 0.938651 0.745869
O O3 0.558243 0.898242 0.006737
O O4 0.781213 0.877699 0.944283
O O5 0.184717 0.639338 0.881970
O O6 0.161732 0.743809 0.891777
O O7 0.195595 0.687104 0.024468
O O8 0.915490 0.689989 0.168966
O O9 0.766331 0.393794 0.330923
O O10 0.789490 0.464455 0.186999
O O11 0.246980 0.524551 0.545305
O O12 0.000000 0.591586 0.750000
O O13 0.500000 0.044382 0.250000
O O14 0.280734 0.044702 0.304017
O O15 0.203050 0.085117 0.525198
O O16 0.628121 0.660878 0.477604
O O17 0.500000 0.500000 0.000000
O O18 0.000000 0.162889 0.750000
#
# Coordination Sequence:
#
# PCOD9274757 Si02
#       8
#     8   8   8   8   8   8   8   8
#     4  10  20  38  65  84 121 165 205 253 309 375
#     4  11  24  39  65  83 122 163 206 262 306 376
#     4   9  21  38  61  90 116 161 209 250 307 378
#     4   8  17  36  60  88 116 154 205 250 293 363
#     4  10  21  38  59  88 129 167 208 250 304 384
#     4  11  23  43  60  90 118 163 214 253 315 370
#     4  11  23  36  60  93 130 158 206 264 310 366
#     4  12  25  38  60  89 124 160 203 260 313 370
#
# _framework density 22.256008999999999
#
# number of rings (size 3 to 8) (size 9 to 14) (size 15 to 20)
#    0.000    1.750    1.250    3.375    5.250    1.000 
#    0.000    2.500    0.000    0.000    0.000    0.000 
#    0.000    0.000    0.000    0.000    0.000    0.000 
#
# Total GULP energy -178885.489368 kJ/mol
# GULP energy per Si atom -5590.171543 kJ/mol
# Density = 2.220535 g / cm^3
# Si number density = 22.256009 Si / 1000 Ang^3
#
#
#
# Elastic Constant Matrix: (Units=GPa)
#
#
# Indices 1 2 3 4 5 6 
#
# 1 33.8354 -6.4040 13.4071 0.0245 16.0227 -0.0153
# 2 -6.4040 70.2879 30.4155 0.0611 18.8144 -0.0516
# 3 13.4071 30.4155 93.6553 0.0888 20.2917 -0.0567
# 4 0.0245 0.0611 0.0888 19.8247 -0.0692 6.3655
# 5 16.0227 18.8144 20.2917 -0.0692 40.9769 0.0502
# 6 -0.0153 -0.0516 -0.0567 6.3655 0.0502 12.2560
#
#
#
# Elastic Compliance Matrix: (Units=1/GPa)
#
#
# Indices 1 2 3 4 5 6 
#
# 1 0.043214 0.011618 -0.005760 -0.000217 -0.019380 0.000268
# 2 0.011618 0.020878 -0.006029 -0.000155 -0.011144 0.000201
# 3 -0.005760 -0.006029 0.013859 -0.000066 -0.001843 0.000074
# 4 -0.000217 -0.000155 -0.000066 0.060542 0.000330 -0.031446
# 5 -0.019380 -0.011144 -0.001843 0.000330 0.038012 -0.000407
# 6 0.000268 0.000201 0.000074 -0.031446 -0.000407 0.097928
#
#
# Mechanical properties :
#
#
# Convention : Reuss Voigt Hill
#
# Bulk Modulus (GPa) = 12.88511 30.29066 21.58788
# Shear Modulus (GPa) = 16.63095 25.30217 20.96656
#
# Velocity S-wave (km/s) = 2.73657 3.37541 3.07263
# Velocity P-wave (km/s) = 3.97330 5.36943 4.72324
#
# Compressibility (1/GPa) = 0.07760898
#
# Stress axis : x y z
#
# Youngs Moduli (GPa) = 23.14080 47.89813 72.15379
#
# Poissons Ratio (x) = -0.55646 0.41559
# Poissons Ratio (y) = -0.26884 0.43499
# Poissons Ratio (z) = 0.13329 0.28876
#
# Static dielectric constant tensor:
#      x y z
#    x 1.860030 0.000010 0.001960 
#    y 0.000010 1.813150 0.000010 
#    z 0.001960 0.000010 1.828660 
# 
# From -- ./inp_files/164221.got.cif
#   From: 2010.05.17/outbox.cif.g08.bks.cpg/sg15_83_cif.got.tgz:164221.got - 2010.06.03 18:47:42.
