data_PCOD9274503
_publ_section_title
;
Structure prediction by ZEFSAII (Michael W. Deem and Ramdas Pophale) SiO2 
 PCOD9274503
Probable space group: C 2/C
;
_chemical_formula_sum "Si O2"
_cell_formula_units_Z 64
_cell_length_a 21.938736
_cell_length_b 14.621880
_cell_length_c 16.441100
_cell_angle_alpha 90.000000
_cell_angle_beta 35.017109
_cell_angle_gamma 90.000000
_cell_volume 3026.370805
_symmetry_space_group_name_H-M "C 2/C"
_symmetry_group_IT_number 15
_symmetry_cell_setting 'monoclinic'
loop_
_space_group_symop_operation_xyz
x,y,z
-x,y,1/2-z
-x,-y,-z
x,-y,1/2+z
1/2+x,1/2+y,z
1/2-x,1/2+y,1/2-z
1/2-x,1/2-y,-z
1/2+x,1/2-y,1/2+z
loop_
_atom_site_type_symbol
_atom_site_label
_atom_site_fract_x
_atom_site_fract_y
_atom_site_fract_z
Si Si1 0.297510 0.908175 0.870626
Si Si2 0.099728 0.072465 0.698046
Si Si3 0.853468 0.771858 0.239838
Si Si4 0.337507 0.873010 0.110888
Si Si5 0.500318 0.989593 0.099758
Si Si6 0.999196 0.707175 0.565593
Si Si7 0.334642 0.515445 0.131317
Si Si8 0.041733 0.904702 0.853054
O O1 0.356768 0.811506 0.798744
O O2 0.388189 0.985168 0.762337
O O3 0.223284 0.923350 0.872375
O O4 0.214489 0.909807 0.034138
O O5 0.090401 0.137279 0.787220
O O6 0.000000 0.094451 0.750000
O O7 0.094006 0.965880 0.726362
O O8 0.731681 0.798069 0.358705
O O9 0.908010 0.738117 0.097552
O O10 0.402767 0.825087 0.112145
O O11 0.253679 0.946876 0.236734
O O12 0.415835 0.932272 0.968844
O O13 0.529889 0.884248 0.080956
O O14 0.500000 0.000000 0.000000
O O15 0.968981 0.797148 0.648439
O O16 0.388705 0.575775 0.142277
O O17 0.427180 0.452430 0.992100
#
# Coordination Sequence:
#
# PCOD9274503 Si02
#       8
#     8   8   8   8   8   8   8   8
#     4  12  23  41  63  93 132 172 207 260 331 391
#     4  12  27  42  60  90 139 175 207 260 332 390
#     4  12  23  40  62  99 127 165 217 261 326 396
#     4  11  20  37  65  98 129 158 208 279 329 365
#     4  10  20  38  63  95 128 159 210 268 322 376
#     4  11  21  38  69 101 123 162 223 273 315 376
#     4  11  19  38  67  89 125 167 212 270 314 362
#     4  11  22  40  60  97 126 164 222 266 309 379
#
# _framework density 21.147441000000001
#
# number of rings (size 3 to 8) (size 9 to 14) (size 15 to 20)
#    0.000    0.750    8.750    1.875    1.750    0.000 
#    0.000    1.250    0.000    1.500    0.000    0.000 
#    0.000    0.000    0.000    0.000    0.000    0.000 
#
# Total GULP energy -178804.084527 kJ/mol
# GULP energy per Si atom -5587.627641 kJ/mol
# Density = 2.109931 g / cm^3
# Si number density = 21.147441 Si / 1000 Ang^3
#
#
#
# Elastic Constant Matrix: (Units=GPa)
#
#
# Indices 1 2 3 4 5 6 
#
# 1 29.2145 0.4035 3.8366 0.0000 -17.5585 0.0000
# 2 0.4035 135.1055 25.6305 0.0000 -8.4486 0.0000
# 3 3.8366 25.6305 79.2229 0.0000 -8.4047 0.0000
# 4 0.0000 0.0000 0.0000 37.9957 0.0000 -5.8914
# 5 -17.5585 -8.4486 -8.4047 0.0000 17.5623 0.0000
# 6 0.0000 0.0000 0.0000 -5.8914 0.0000 22.4802
#
#
#
# Elastic Compliance Matrix: (Units=1/GPa)
#
#
# Indices 1 2 3 4 5 6 
#
# 1 0.090748 0.004894 0.004106 0.000000 0.095047 0.000000
# 2 0.004894 0.008274 -0.002078 0.000000 0.007879 0.000000
# 3 0.004106 -0.002078 0.014144 0.000000 0.009874 0.000000
# 4 0.000000 0.000000 0.000000 0.027434 0.000000 0.007190
# 5 0.095047 0.007879 0.009874 0.000000 0.160482 0.000000
# 6 0.000000 0.000000 0.000000 0.007190 0.000000 0.046368
#
#
# Mechanical properties :
#
#
# Convention : Reuss Voigt Hill
#
# Bulk Modulus (GPa) = 7.87351 33.69824 20.78588
# Shear Modulus (GPa) = 13.29990 29.85244 21.57617
#
# Velocity S-wave (km/s) = 2.51053 3.76125 3.19764
# Velocity P-wave (km/s) = 3.48352 5.90188 4.84598
#
# Compressibility (1/GPa) = 0.12700817
#
# Stress axis : x y z
#
# Youngs Moduli (GPa) = 11.01952 120.86226 70.70363
#
# Poissons Ratio (x) = -0.59147 -0.29028
# Poissons Ratio (y) = -0.05393 0.14692
# Poissons Ratio (z) = -0.04524 0.25115
#
# Static dielectric constant tensor:
#      x y z
#    x 1.807160 0.000000 0.001320 
#    y 0.000000 1.783370 0.000000 
#    z 0.001320 0.000000 1.770040 
# 
# From -- ./inp_files/219704.got.cif
#   From: 2010.05.17/outbox.cif.g08.bks.cpg/sg15_110_cif.got.tgz:219704.got - 2010.06.03 18:47:42.
