data_PCOD9274590
_publ_section_title
;
Structure prediction by ZEFSAII (Michael W. Deem and Ramdas Pophale) SiO2 
 PCOD9274590
Probable space group: C 2/C
;
_chemical_formula_sum "Si O2"
_cell_formula_units_Z 52
_cell_length_a 19.078615
_cell_length_b 15.473403
_cell_length_c 10.938022
_cell_angle_alpha 90.000000
_cell_angle_beta 121.678617
_cell_angle_gamma 90.000000
_cell_volume 2747.923807
_symmetry_space_group_name_H-M "C 2/C"
_symmetry_group_IT_number 15
_symmetry_cell_setting 'monoclinic'
loop_
_space_group_symop_operation_xyz
x,y,z
-x,y,1/2-z
-x,-y,-z
x,-y,1/2+z
1/2+x,1/2+y,z
1/2-x,1/2+y,1/2-z
1/2-x,1/2-y,-z
1/2+x,1/2-y,1/2+z
loop_
_atom_site_type_symbol
_atom_site_label
_atom_site_fract_x
_atom_site_fract_y
_atom_site_fract_z
Si Si1 0.348504 0.033467 0.590291
Si Si2 0.691459 0.069415 0.677969
Si Si3 0.500000 0.158949 0.750000
Si Si4 0.876150 0.938570 0.430837
Si Si5 0.034971 0.890633 0.416955
Si Si6 0.299710 0.662150 0.073316
Si Si7 0.102740 0.250254 0.138338
O O1 0.341675 0.017437 0.731066
O O2 0.425676 0.096543 0.643002
O O3 0.267131 0.087516 0.483841
O O4 0.346830 0.959916 0.486082
O O5 0.790639 0.061248 0.776208
O O6 0.662256 0.168073 0.671563
O O7 0.467662 0.215293 0.833819
O O8 0.860994 0.867926 0.522996
O O9 0.956597 0.912145 0.429983
O O10 0.897509 0.033140 0.504731
O O11 0.069475 0.797708 0.489255
O O12 0.000000 0.890656 0.250000
O O13 0.348315 0.677608 0.241400
O O14 0.250000 0.750000 0.000000
#
# Coordination Sequence:
#
# PCOD9274590 Si02
#       7
#     8   8   4   8   8   8   8
#     4  10  22  37  63  91 120 160 214 256 320 368
#     4  10  22  42  63  91 122 166 213 261 306 387
#     4  10  20  38  64  88 116 164 218 258 302 378
#     4  10  23  41  66  87 127 164 213 252 317 378
#     4  11  26  40  58  98 131 166 198 262 329 378
#     4  11  19  40  68  91 115 163 220 259 292 383
#     4  11  22  39  62  91 124 160 215 256 315 369
#
# _framework density 18.923378
#
# number of rings (size 3 to 8) (size 9 to 14) (size 15 to 20)
#    0.000    1.538    4.615    1.846    8.615    2.462 
#    4.154    0.769    0.000    0.000    0.000    0.000 
#    0.000    0.000    0.000    0.000    0.000    0.000 
#
# Total GULP energy -145037.978598 kJ/mol
# GULP energy per Si atom -5578.383792 kJ/mol
# Density = 1.888031 g / cm^3
# Si number density = 18.923378 Si / 1000 Ang^3
#
#
#
# Elastic Constant Matrix: (Units=GPa)
#
#
# Indices 1 2 3 4 5 6 
#
# 1 74.4525 31.5684 21.4500 0.0000 9.4180 0.0000
# 2 31.5684 68.3533 38.1134 0.0000 -10.1645 0.0000
# 3 21.4500 38.1134 77.9667 0.0000 -1.1305 0.0000
# 4 0.0000 0.0000 0.0000 -35.3418 0.0000 151.7297
# 5 9.4180 -10.1645 -1.1305 0.0000 19.5527 0.0000
# 6 0.0000 0.0000 0.0000 151.7297 0.0000 -315.6728
#
#
#
# Elastic Compliance Matrix: (Units=1/GPa)
#
#
# Indices 1 2 3 4 5 6 
#
# 1 0.020478 -0.011774 -0.000110 0.000000 -0.015991 0.000000
# 2 -0.011774 0.028996 -0.010643 0.000000 0.020130 0.000000
# 3 -0.000110 -0.010643 0.017995 0.000000 -0.004439 0.000000
# 4 0.000000 0.000000 0.000000 0.026604 0.000000 0.012788
# 5 -0.015991 0.020130 -0.004439 0.000000 0.069054 0.000000
# 6 0.000000 0.000000 0.000000 0.012788 0.000000 0.002979
#
#
# Mechanical properties :
#
#
# Convention : Reuss Voigt Hill
#
# Bulk Modulus (GPa) = 44.61553 44.78179 44.69866
# Shear Modulus (GPa) = 22.86950 -57.64967 -17.39008
#
# Velocity S-wave (km/s) = 3.48017 -5.52548 -3.03475
# Velocity P-wave (km/s) = 6.30689 4.12210 3.37529
#
# Compressibility (1/GPa) = 0.02241372
#
# Stress axis : x y z
#
# Youngs Moduli (GPa) = 48.83210 34.48788 55.57200
#
# Poissons Ratio (x) = 0.40607 0.00611
# Poissons Ratio (y) = 0.57497 0.59146
# Poissons Ratio (z) = 0.00537 0.36706
#
# Static dielectric constant tensor:
#      x y z
#    x 1.513400 0.000000 -0.089960 
#    y 0.000000 1.651650 0.000000 
#    z -0.089960 0.000000 1.646210 
# 
# From -- ./inp_files/105480.got.cif
#   From: 2010.05.17/outbox.cif.g08.bks.cpg/sg15_53_cif.got.tgz:105480.got - 2010.06.03 18:47:42.
