data_PCOD9274591
_publ_section_title
;
Structure prediction by ZEFSAII (Michael W. Deem and Ramdas Pophale) SiO2 
 PCOD9274591
Probable space group: C 2/C
;
_chemical_formula_sum "Si O2"
_cell_formula_units_Z 60
_cell_length_a 27.292917
_cell_length_b 11.966474
_cell_length_c 16.268005
_cell_angle_alpha 90.000000
_cell_angle_beta 148.459794
_cell_angle_gamma 90.000000
_cell_volume 2779.281141
_symmetry_space_group_name_H-M "C 2/C"
_symmetry_group_IT_number 15
_symmetry_cell_setting 'monoclinic'
loop_
_space_group_symop_operation_xyz
x,y,z
-x,y,1/2-z
-x,-y,-z
x,-y,1/2+z
1/2+x,1/2+y,z
1/2-x,1/2+y,1/2-z
1/2-x,1/2-y,-z
1/2+x,1/2-y,1/2+z
loop_
_atom_site_type_symbol
_atom_site_label
_atom_site_fract_x
_atom_site_fract_y
_atom_site_fract_z
Si Si1 0.689246 0.681892 0.025924
Si Si2 0.500651 0.752883 0.982201
Si Si3 0.860962 0.693003 0.528278
Si Si4 0.906012 0.102163 0.984663
Si Si5 0.500000 0.537402 0.750000
Si Si6 0.035913 0.604575 0.682063
Si Si7 0.314171 0.379660 0.801189
Si Si8 0.363290 0.131557 0.162000
O O1 0.725241 0.672407 0.170345
O O2 0.768270 0.631140 0.079551
O O3 0.593691 0.611137 0.882533
O O4 0.664382 0.807202 0.961977
O O5 0.445121 0.674096 0.965897
O O6 0.529060 0.860726 0.077487
O O7 0.590734 0.686144 0.081020
O O8 0.435233 0.788372 0.813745
O O9 0.861043 0.814368 0.486842
O O10 0.901831 0.693989 0.678130
O O11 0.759882 0.638934 0.376153
O O12 0.934085 0.618273 0.578760
O O13 0.988087 0.038246 0.151826
O O14 0.836905 0.008016 0.851994
O O15 0.085569 0.486942 0.769308
#
# Coordination Sequence:
#
# PCOD9274591 Si02
#       8
#     8   8   8   8   4   8   8   8
#     4  10  23  40  61  92 121 158 208 251 305 366
#     4  11  23  39  61  91 123 162 208 247 300 367
#     4  10  23  41  62  91 121 158 204 249 305 366
#     4  10  21  40  61  86 124 157 192 252 307 354
#     4  10  20  38  64  88 118 160 202 250 304 360
#     4  10  23  41  62  88 124 165 202 251 305 358
#     4  11  24  39  64  91 119 160 204 253 304 365
#     4  11  23  41  63  88 126 164 202 257 306 357
#
# _framework density 21.588317
#
# number of rings (size 3 to 8) (size 9 to 14) (size 15 to 20)
#    0.000    1.600    0.000    5.600    0.000   11.200 
#    0.000    0.000    0.000    0.000    0.000    0.000 
#    0.000    0.000    0.000    0.000    0.000    0.000 
#
# Total GULP energy -167779.457850 kJ/mol
# GULP energy per Si atom -5592.648595 kJ/mol
# Density = 2.153918 g / cm^3
# Si number density = 21.588317 Si / 1000 Ang^3
#
#
#
# Elastic Constant Matrix: (Units=GPa)
#
#
# Indices 1 2 3 4 5 6 
#
# 1 20.6918 13.3082 -5.2783 0.0000 -3.0815 0.0000
# 2 13.3082 77.0342 8.5997 0.0000 14.5310 0.0000
# 3 -5.2783 8.5997 89.9396 0.0000 15.2372 0.0000
# 4 0.0000 0.0000 0.0000 -10.0413 0.0000 -1.9961
# 5 -3.0815 14.5310 15.2372 0.0000 24.3597 0.0000
# 6 0.0000 0.0000 0.0000 -1.9961 0.0000 20.2161
#
#
#
# Elastic Compliance Matrix: (Units=1/GPa)
#
#
# Indices 1 2 3 4 5 6 
#
# 1 0.059469 -0.013158 0.002398 0.000000 0.013872 0.000000
# 2 -0.013158 0.017539 -0.000442 0.000000 -0.011851 0.000000
# 3 0.002398 -0.000442 0.012534 0.000000 -0.007273 0.000000
# 4 0.000000 0.000000 0.000000 -0.097672 0.000000 -0.009644
# 5 0.013872 -0.011851 -0.007273 0.000000 0.054425 0.000000
# 6 0.000000 0.000000 0.000000 -0.009644 0.000000 0.048513
#
#
# Mechanical properties :
#
#
# Convention : Reuss Voigt Hill
#
# Bulk Modulus (GPa) = 14.89455 24.54718 19.72087
# Shear Modulus (GPa) = 35.81912 18.30929 27.06420
#
# Velocity S-wave (km/s) = 4.07773 2.91539 3.54453
# Velocity P-wave (km/s) = 5.39304 4.76739 5.08984
#
# Compressibility (1/GPa) = 0.06713865
#
# Stress axis : x y z
#
# Youngs Moduli (GPa) = 16.81559 57.01553 79.78467
#
# Poissons Ratio (x) = 0.75021 -0.19133
# Poissons Ratio (y) = 0.22126 0.03523
# Poissons Ratio (z) = -0.04033 0.02517
#
# Static dielectric constant tensor:
#      x y z
#    x 1.778070 0.000000 -0.014240 
#    y 0.000000 1.793490 0.000000 
#    z -0.014240 0.000000 1.758480 
# 
# From -- ./inp_files/222558.got.cif
#   From: 2010.05.17/outbox.cif.g08.bks.cpg/sg15_112_cif.got.tgz:222558.got - 2010.06.03 18:47:42.
