data_PCOD9274985
_publ_section_title
;
Structure prediction by ZEFSAII (Michael W. Deem and Ramdas Pophale) SiO2 
 PCOD9274985
Probable space group: C 2/C
;
_chemical_formula_sum "Si O2"
_cell_formula_units_Z 60
_cell_length_a 11.075861
_cell_length_b 9.432129
_cell_length_c 26.813130
_cell_angle_alpha 90.000000
_cell_angle_beta 61.055261
_cell_angle_gamma 90.000000
_cell_volume 2451.240487
_symmetry_space_group_name_H-M "C 2/C"
_symmetry_group_IT_number 15
_symmetry_cell_setting 'monoclinic'
loop_
_space_group_symop_operation_xyz
x,y,z
-x,y,1/2-z
-x,-y,-z
x,-y,1/2+z
1/2+x,1/2+y,z
1/2-x,1/2+y,1/2-z
1/2-x,1/2-y,-z
1/2+x,1/2-y,1/2+z
loop_
_atom_site_type_symbol
_atom_site_label
_atom_site_fract_x
_atom_site_fract_y
_atom_site_fract_z
Si Si1 0.843437 0.802691 0.286343
Si Si2 0.500000 0.253545 0.750000
Si Si3 0.845657 0.328982 0.891247
Si Si4 0.274284 0.935137 0.045168
Si Si5 0.193748 0.958074 0.773057
Si Si6 0.999340 0.478730 0.417235
Si Si7 0.247906 0.892679 0.358154
Si Si8 0.322238 0.277042 0.932071
O O1 0.835422 0.769124 0.345364
O O2 0.809594 0.654337 0.266375
O O3 0.000000 0.848191 0.250000
O O4 0.758963 0.930469 0.278711
O O5 0.575620 0.356889 0.774386
O O6 0.612780 0.158336 0.698582
O O7 0.782459 0.222404 0.943606
O O8 0.992208 0.395364 0.878287
O O9 0.764112 0.469752 0.890498
O O10 0.371364 0.959337 0.073760
O O11 0.156506 0.055141 0.072770
O O12 0.372628 0.973633 0.978953
O O13 0.157344 0.054057 0.829108
O O14 0.954688 0.325771 0.404101
O O15 0.226377 0.770561 0.404221
O O16 0.250000 0.250000 0.000000
#
# Coordination Sequence:
#
# PCOD9274985 Si02
#       8
#     8   4   8   8   8   8   8   8
#     4  11  25  40  59  90 124 162 216 262 317 384
#     4  12  24  44  66  88 130 172 224 270 330 394
#     4  10  23  37  62  95 120 166 214 262 318 382
#     4  10  20  38  67  90 127 167 213 258 322 382
#     4  11  24  41  64  88 124 166 214 268 324 387
#     4   9  20  41  61  94 128 168 205 264 323 381
#     4  10  24  42  65  93 128 174 215 270 335 386
#     4   9  20  40  65  95 129 166 214 262 322 393
#
# _framework density 24.477404
#
# number of rings (size 3 to 8) (size 9 to 14) (size 15 to 20)
#    0.000    1.867    2.000    0.400    5.600    6.400 
#    0.000    2.667    0.000   14.400    0.000    0.000 
#    0.000    0.000    0.000    0.000    0.000    0.000 
#
# Total GULP energy -167436.219990 kJ/mol
# GULP energy per Si atom -5581.207333 kJ/mol
# Density = 2.442169 g / cm^3
# Si number density = 24.477404 Si / 1000 Ang^3
#
#
#
# Elastic Constant Matrix: (Units=GPa)
#
#
# Indices 1 2 3 4 5 6 
#
# 1 65.7571 45.8349 29.5060 0.0000 25.3033 0.0000
# 2 45.8349 147.5678 65.0535 0.0000 8.2543 0.0000
# 3 29.5060 65.0535 89.1262 0.0000 19.3943 0.0000
# 4 0.0000 0.0000 0.0000 35.9745 0.0000 12.2541
# 5 25.3033 8.2543 19.3943 0.0000 32.3101 0.0000
# 6 0.0000 0.0000 0.0000 12.2541 0.0000 44.9970
#
#
#
# Elastic Compliance Matrix: (Units=1/GPa)
#
#
# Indices 1 2 3 4 5 6 
#
# 1 0.028399 -0.008121 0.001051 0.000000 -0.020797 0.000000
# 2 -0.008121 0.012439 -0.008147 0.000000 0.008073 0.000000
# 3 0.001051 -0.008147 0.019031 0.000000 -0.010165 0.000000
# 4 0.000000 0.000000 0.000000 0.030640 0.000000 -0.008344
# 5 -0.020797 0.008073 -0.010165 0.000000 0.051276 0.000000
# 6 0.000000 0.000000 0.000000 -0.008344 0.000000 0.024496
#
#
# Mechanical properties :
#
#
# Convention : Reuss Voigt Hill
#
# Bulk Modulus (GPa) = 33.97368 64.80442 49.38905
# Shear Modulus (GPa) = 24.20998 33.46011 28.83504
#
# Velocity S-wave (km/s) = 3.14837 3.70128 3.43596
# Velocity P-wave (km/s) = 5.20827 6.69318 5.99686
#
# Compressibility (1/GPa) = 0.02943455
#
# Stress axis : x y z
#
# Youngs Moduli (GPa) = 35.21273 80.39177 52.54616
#
# Poissons Ratio (x) = 0.65285 -0.05524
# Poissons Ratio (y) = 0.28596 0.42812
# Poissons Ratio (z) = -0.03702 0.65499
#
# Static dielectric constant tensor:
#      x y z
#    x 1.933780 0.000000 0.014300 
#    y 0.000000 1.931820 0.000000 
#    z 0.014300 0.000000 1.990440 
# 
# From -- ./inp_files/310294.got.cif
#   From: 2010.05.17/outbox.cif.g08.bks.cpg/sg15_156_cif.got.tgz:310294.got - 2010.06.03 18:47:42.
