data_PCOD9274345
_publ_section_title
;
Structure prediction by ZEFSAII (Michael W. Deem and Ramdas Pophale) SiO2 
 PCOD9274345
Probable space group: C 2/C
;
_chemical_formula_sum "Si O2"
_cell_formula_units_Z 60
_cell_length_a 10.076879
_cell_length_b 16.207341
_cell_length_c 20.841260
_cell_angle_alpha 90.000000
_cell_angle_beta 56.087466
_cell_angle_gamma 90.000000
_cell_volume 2824.765816
_symmetry_space_group_name_H-M "C 2/C"
_symmetry_group_IT_number 15
_symmetry_cell_setting 'monoclinic'
loop_
_space_group_symop_operation_xyz
x,y,z
-x,y,1/2-z
-x,-y,-z
x,-y,1/2+z
1/2+x,1/2+y,z
1/2-x,1/2+y,1/2-z
1/2-x,1/2-y,-z
1/2+x,1/2-y,1/2+z
loop_
_atom_site_type_symbol
_atom_site_label
_atom_site_fract_x
_atom_site_fract_y
_atom_site_fract_z
Si Si1 0.500000 0.858101 0.250000
Si Si2 0.727349 0.761847 0.774962
Si Si3 0.407013 0.019538 0.338591
Si Si4 0.058912 0.040675 0.159836
Si Si5 0.956079 0.861122 0.336319
Si Si6 0.143178 0.711178 0.971629
Si Si7 0.115050 0.404001 0.893591
Si Si8 0.147410 0.147971 0.376617
O O1 0.625451 0.799568 0.252170
O O2 0.407075 0.921566 0.323128
O O3 0.567141 0.710941 0.832809
O O4 0.720727 0.839433 0.823768
O O5 0.736269 0.798321 0.701001
O O6 0.500000 0.051773 0.250000
O O7 0.512202 0.041148 0.372070
O O8 0.245126 0.072697 0.382603
O O9 0.250849 0.044314 0.105980
O O10 0.000000 0.046038 0.250000
O O11 0.982382 0.110831 0.136767
O O12 0.003696 0.951679 0.148439
O O13 0.772200 0.840686 0.396424
O O14 0.000000 0.864879 0.250000
O O15 0.082262 0.788503 0.946525
O O16 0.250000 0.750000 0.000000
O O17 0.005319 0.650566 0.032368
#
# Coordination Sequence:
#
# PCOD9274345 Si02
#       8
#     4   8   8   8   8   8   8   8
#     4  10  24  34  62 104 130 158 214 274 322 374
#     4  12  20  38  64  97 126 160 215 269 314 372
#     4  10  20  38  62  94 121 172 212 255 311 387
#     4  11  24  42  66  99 131 167 208 273 330 383
#     4  11  24  40  67  96 124 162 221 267 319 375
#     4  12  25  42  65  98 125 173 224 267 309 390
#     4  12  24  41  67  93 134 169 213 266 324 378
#     4  12  22  41  69  93 126 173 217 257 326 383
#
# _framework density 21.240697999999998
#
# number of rings (size 3 to 8) (size 9 to 14) (size 15 to 20)
#    0.400    0.267    6.667    1.600    3.733    1.067 
#    0.000    2.000    0.000    0.000    0.000    0.000 
#    0.000    0.000    0.000    0.000    0.000    0.000 
#
# Total GULP energy -167558.051233 kJ/mol
# GULP energy per Si atom -5585.268374 kJ/mol
# Density = 2.119235 g / cm^3
# Si number density = 21.240698 Si / 1000 Ang^3
#
#
#
# Elastic Constant Matrix: (Units=GPa)
#
#
# Indices 1 2 3 4 5 6 
#
# 1 77.2878 15.7815 -1.2758 -0.0001 -3.5571 0.0000
# 2 15.7815 83.9523 2.0525 0.0000 8.9607 0.0000
# 3 -1.2758 2.0525 47.7090 0.0000 -8.2280 0.0000
# 4 -0.0001 0.0000 0.0000 -74.9887 0.0001 -6.0120
# 5 -3.5571 8.9607 -8.2280 0.0001 23.2967 0.0000
# 6 0.0000 0.0000 0.0000 -6.0120 0.0000 27.0605
#
#
#
# Elastic Compliance Matrix: (Units=1/GPa)
#
#
# Indices 1 2 3 4 5 6 
#
# 1 0.013738 -0.002999 0.001126 0.000000 0.003649 0.000000
# 2 -0.002999 0.013171 -0.001703 0.000000 -0.006125 0.000000
# 3 0.001126 -0.001703 0.022582 0.000000 0.008803 0.000000
# 4 0.000000 0.000000 0.000000 -0.013102 0.000000 -0.002911
# 5 0.003649 -0.006125 0.008803 0.000000 0.048947 0.000000
# 6 0.000000 0.000000 0.000000 -0.002911 0.000000 0.036307
#
#
# Mechanical properties :
#
#
# Convention : Reuss Voigt Hill
#
# Bulk Modulus (GPa) = 23.62032 26.89614 25.25823
# Shear Modulus (GPa) = 34.98745 7.89978 21.44361
#
# Velocity S-wave (km/s) = 4.06296 1.93061 3.18079
# Velocity P-wave (km/s) = 5.75801 4.20234 5.04055
#
# Compressibility (1/GPa) = 0.04233644
#
# Stress axis : x y z
#
# Youngs Moduli (GPa) = 72.79284 75.92553 44.28323
#
# Poissons Ratio (x) = 0.22773 -0.04985
# Poissons Ratio (y) = 0.21833 0.07543
# Poissons Ratio (z) = -0.08194 0.12932
#
# Static dielectric constant tensor:
#      x y z
#    x 1.753910 0.000000 -0.001110 
#    y 0.000000 1.814720 0.000000 
#    z -0.001110 0.000000 1.785470 
# 
# From -- ./inp_files/233056.got.cif
#   From: 2010.05.17/outbox.cif.g08.bks.cpg/sg15_117_cif.got.tgz:233056.got - 2010.06.03 18:47:42.
