data_PCOD9274959
_publ_section_title
;
Structure prediction by ZEFSAII (Michael W. Deem and Ramdas Pophale) SiO2 
 PCOD9274959
Probable space group: C 2/C
;
_chemical_formula_sum "Si O2"
_cell_formula_units_Z 56
_cell_length_a 28.547997
_cell_length_b 10.305250
_cell_length_c 8.037714
_cell_angle_alpha 90.000000
_cell_angle_beta 97.481968
_cell_angle_gamma 90.000000
_cell_volume 2344.516330
_symmetry_space_group_name_H-M "C 2/C"
_symmetry_group_IT_number 15
_symmetry_cell_setting 'monoclinic'
loop_
_space_group_symop_operation_xyz
x,y,z
-x,y,1/2-z
-x,-y,-z
x,-y,1/2+z
1/2+x,1/2+y,z
1/2-x,1/2+y,1/2-z
1/2-x,1/2-y,-z
1/2+x,1/2-y,1/2+z
loop_
_atom_site_type_symbol
_atom_site_label
_atom_site_fract_x
_atom_site_fract_y
_atom_site_fract_z
Si Si1 0.771493 0.090481 0.930961
Si Si2 0.363529 0.283173 0.601062
Si Si3 0.599316 0.676895 0.724072
Si Si4 0.610766 0.051357 0.096555
Si Si5 0.000000 0.259253 0.750000
Si Si6 0.839091 0.857991 0.947922
Si Si7 0.706237 0.900302 0.105011
Si Si8 0.500000 0.000000 0.000000
O O1 0.804742 0.973650 0.883355
O O2 0.741461 0.144066 0.766119
O O3 0.734109 0.015108 0.027782
O O4 0.808524 0.190892 0.027658
O O5 0.391318 0.357627 0.464274
O O6 0.380624 0.136882 0.568288
O O7 0.368598 0.321049 0.795677
O O8 0.610955 0.832617 0.732785
O O9 0.545466 0.670530 0.750208
O O10 0.631302 0.608693 0.874771
O O11 0.558370 0.992804 0.064425
O O12 0.656223 0.961811 0.136349
O O13 0.998178 0.358404 0.593141
O O14 0.808171 0.733238 0.988320
#
# Coordination Sequence:
#
# PCOD9274959 Si02
#       8
#     8   8   8   8   4   8   8   4
#     4  12  25  41  63  96 137 179 237 281 332 412
#     4  10  24  44  63  96 133 181 226 281 333 415
#     4   9  22  42  64  96 133 169 225 272 338 408
#     4   9  22  41  63  99 136 175 222 282 340 406
#     4  10  20  40  66 102 138 172 216 290 344 404
#     4  12  24  42  67  94 133 188 226 277 346 403
#     4  12  24  37  64  95 136 177 231 280 338 411
#     4  10  20  38  66  96 136 176 216 276 350 404
#
# _framework density 23.885524
#
# number of rings (size 3 to 8) (size 9 to 14) (size 15 to 20)
#    0.857    0.571    1.429    3.857    2.000    5.714 
#    0.000    0.000    0.000    0.857    0.000    0.000 
#    0.000    0.000    0.000    0.000    0.000    0.000 
#
# Total GULP energy -155890.678412 kJ/mol
# GULP energy per Si atom -5567.524229 kJ/mol
# Density = 2.383116 g / cm^3
# Si number density = 23.885524 Si / 1000 Ang^3
#
#
#
# Elastic Constant Matrix: (Units=GPa)
#
#
# Indices 1 2 3 4 5 6 
#
# 1 151.6048 13.8266 33.4795 0.0000 1.1559 0.0000
# 2 13.8266 48.6944 -9.0921 0.0000 8.7826 0.0000
# 3 33.4795 -9.0921 70.2989 0.0000 -11.5083 0.0000
# 4 0.0000 0.0000 0.0000 4.5519 0.0000 -25.0078
# 5 1.1559 8.7826 -11.5083 0.0000 32.3261 0.0000
# 6 0.0000 0.0000 0.0000 -25.0078 0.0000 10.4323
#
#
#
# Elastic Compliance Matrix: (Units=1/GPa)
#
#
# Indices 1 2 3 4 5 6 
#
# 1 0.007799 -0.002823 -0.004247 0.000000 -0.001024 0.000000
# 2 -0.002823 0.022870 0.003506 0.000000 -0.004864 0.000000
# 3 -0.004247 0.003506 0.017595 0.000000 0.005463 0.000000
# 4 0.000000 0.000000 0.000000 -0.018052 0.000000 -0.043273
# 5 -0.001024 -0.004864 0.005463 0.000000 0.034238 0.000000
# 6 0.000000 0.000000 0.000000 -0.043273 0.000000 -0.007876
#
#
# Mechanical properties :
#
#
# Convention : Reuss Voigt Hill
#
# Bulk Modulus (GPa) = 24.30940 38.55846 31.43393
# Shear Modulus (GPa) = 64.58748 24.95432 44.77090
#
# Velocity S-wave (km/s) = 5.20568 3.23576 4.33412
# Velocity P-wave (km/s) = 6.80674 5.48983 6.18345
#
# Compressibility (1/GPa) = 0.04113636
#
# Stress axis : x y z
#
# Youngs Moduli (GPa) = 128.21737 43.72586 56.83282
#
# Poissons Ratio (x) = 0.12343 0.24137
# Poissons Ratio (y) = 0.36194 -0.19925
# Poissons Ratio (z) = 0.54455 -0.15330
#
# Static dielectric constant tensor:
#      x y z
#    x 1.914230 0.000000 -0.084980 
#    y 0.000000 1.850480 0.000000 
#    z -0.084980 0.000000 1.948950 
# 
# From -- ./inp_files/69175.got.cif
#   From: 2010.05.17/outbox.cif.g08.bks.cpg/sg15_35_cif.got.tgz:69175.got - 2010.06.03 18:47:42.
