data_PCOD9274343
_publ_section_title
;
Structure prediction by ZEFSAII (Michael W. Deem and Ramdas Pophale) SiO2 
 PCOD9274343
Probable space group: C 2/C
;
_chemical_formula_sum "Si O2"
_cell_formula_units_Z 60
_cell_length_a 12.893408
_cell_length_b 25.611123
_cell_length_c 14.450084
_cell_angle_alpha 90.000000
_cell_angle_beta 43.804343
_cell_angle_gamma 90.000000
_cell_volume 3302.911863
_symmetry_space_group_name_H-M "C 2/C"
_symmetry_group_IT_number 15
_symmetry_cell_setting 'monoclinic'
loop_
_space_group_symop_operation_xyz
x,y,z
-x,y,1/2-z
-x,-y,-z
x,-y,1/2+z
1/2+x,1/2+y,z
1/2-x,1/2+y,1/2-z
1/2-x,1/2-y,-z
1/2+x,1/2-y,1/2+z
loop_
_atom_site_type_symbol
_atom_site_label
_atom_site_fract_x
_atom_site_fract_y
_atom_site_fract_z
Si Si1 0.248820 0.386183 0.662895
Si Si2 0.860233 0.275050 0.695276
Si Si3 0.163993 0.100709 0.599811
Si Si4 0.206671 0.711954 0.944379
Si Si5 0.139257 0.500033 0.481603
Si Si6 0.500000 0.036481 0.250000
Si Si7 0.838854 0.900823 0.812755
Si Si8 0.678728 0.283438 0.628686
O O1 0.181426 0.327872 0.720445
O O2 0.342743 0.397154 0.508702
O O3 0.110353 0.425874 0.737359
O O4 0.337049 0.394385 0.702241
O O5 0.818570 0.228420 0.790493
O O6 0.752767 0.267701 0.677442
O O7 0.028926 0.278685 0.548556
O O8 0.263395 0.151677 0.555812
O O9 0.251767 0.050919 0.586314
O O10 0.000000 0.104129 0.750000
O O11 0.250000 0.750000 0.000000
O O12 0.081230 0.499000 0.623595
O O13 0.229215 0.552186 0.404180
O O14 0.000000 0.500000 0.500000
O O15 0.792859 0.846088 0.890769
O O16 0.000000 0.913973 0.750000
O O17 0.500000 0.276437 0.750000
O O18 0.750000 0.250000 0.500000
#
# Coordination Sequence:
#
# PCOD9274343 Si02
#       8
#     8   8   8   8   8   4   8   8
#     4  10  20  38  66  84 122 170 211 250 322 378
#     4  11  22  37  62  90 126 170 212 256 320 382
#     4  11  24  41  61  95 129 161 211 271 321 380
#     4  12  23  36  60  96 132 164 209 257 324 385
#     4  11  22  42  65  92 127 163 217 261 323 378
#     4  10  20  38  62  94 120 160 214 264 306 378
#     4  10  22  42  66  90 123 168 213 257 312 383
#     4  10  22  43  65  90 124 168 214 261 311 374
#
# _framework density 18.165789
#
# number of rings (size 3 to 8) (size 9 to 14) (size 15 to 20)
#    0.000    1.333    2.667    4.000    1.867    0.000 
#    3.600    2.000    0.000    0.000    0.000    0.000 
#    0.000    0.000    0.000    0.000    0.000    0.000 
#
# Total GULP energy -167295.593124 kJ/mol
# GULP energy per Si atom -5576.519771 kJ/mol
# Density = 1.812444 g / cm^3
# Si number density = 18.165789 Si / 1000 Ang^3
#
#
#
# Elastic Constant Matrix: (Units=GPa)
#
#
# Indices 1 2 3 4 5 6 
#
# 1 110.3691 50.5321 27.1108 0.0000 -4.9032 0.0000
# 2 50.5321 98.5554 55.2063 0.0000 6.2559 0.0000
# 3 27.1108 55.2063 86.3065 0.0000 2.6857 0.0000
# 4 0.0000 0.0000 0.0000 25.3183 0.0000 1.5633
# 5 -4.9032 6.2559 2.6857 0.0000 22.3964 0.0000
# 6 0.0000 0.0000 0.0000 1.5633 0.0000 25.1137
#
#
#
# Elastic Compliance Matrix: (Units=1/GPa)
#
#
# Indices 1 2 3 4 5 6 
#
# 1 0.012281 -0.006771 0.000332 0.000000 0.004540 0.000000
# 2 -0.006771 0.019779 -0.010346 0.000000 -0.005767 0.000000
# 3 0.000332 -0.010346 0.018075 0.000000 0.000795 0.000000
# 4 0.000000 0.000000 0.000000 0.039650 0.000000 -0.002468
# 5 0.004540 -0.005767 0.000795 0.000000 0.047159 0.000000
# 6 0.000000 0.000000 0.000000 -0.002468 0.000000 0.039973
#
#
# Mechanical properties :
#
#
# Convention : Reuss Voigt Hill
#
# Bulk Modulus (GPa) = 60.36300 62.32547 61.34423
# Shear Modulus (GPa) = 23.14733 25.39112 24.26923
#
# Velocity S-wave (km/s) = 3.57350 3.74270 3.65908
# Velocity P-wave (km/s) = 7.09420 7.28428 7.18987
#
# Compressibility (1/GPa) = 0.01656644
#
# Stress axis : x y z
#
# Youngs Moduli (GPa) = 81.42911 50.55768 55.32438
#
# Poissons Ratio (x) = 0.34232 -0.01837
# Poissons Ratio (y) = 0.55134 0.57237
# Poissons Ratio (z) = -0.02704 0.52305
#
# Static dielectric constant tensor:
#      x y z
#    x 1.629800 0.000000 -0.050840 
#    y 0.000000 1.639850 0.000000 
#    z -0.050840 0.000000 1.412660 
# 
# From -- ./inp_files/148082.got.cif
#   From: 2010.05.17/outbox.cif.g08.bks.cpg/sg15_75_cif.got.tgz:148082.got - 2010.06.03 18:47:42.
