data_PCOD9274407
_publ_section_title
;
Structure prediction by ZEFSAII (Michael W. Deem and Ramdas Pophale) SiO2 
 PCOD9274407
Probable space group: C 2/C
;
_chemical_formula_sum "Si O2"
_cell_formula_units_Z 48
_cell_length_a 9.828243
_cell_length_b 29.171414
_cell_length_c 18.209469
_cell_angle_alpha 90.000000
_cell_angle_beta 29.883598
_cell_angle_gamma 90.000000
_cell_volume 2601.170680
_symmetry_space_group_name_H-M "C 2/C"
_symmetry_group_IT_number 15
_symmetry_cell_setting 'monoclinic'
loop_
_space_group_symop_operation_xyz
x,y,z
-x,y,1/2-z
-x,-y,-z
x,-y,1/2+z
1/2+x,1/2+y,z
1/2-x,1/2+y,1/2-z
1/2-x,1/2-y,-z
1/2+x,1/2-y,1/2+z
loop_
_atom_site_type_symbol
_atom_site_label
_atom_site_fract_x
_atom_site_fract_y
_atom_site_fract_z
Si Si1 0.490371 0.732062 0.579608
Si Si2 0.722890 0.379141 0.475001
Si Si3 0.013753 0.779287 0.894243
Si Si4 0.264894 0.545473 0.418888
Si Si5 0.130218 0.125613 0.847216
Si Si6 0.232520 0.057940 0.579687
O O1 0.241852 0.762685 0.729061
O O2 0.557079 0.731564 0.461012
O O3 0.438380 0.679321 0.625830
O O4 0.750000 0.750000 0.500000
O O5 0.573888 0.332511 0.569955
O O6 0.634929 0.421802 0.564165
O O7 0.648479 0.385904 0.424845
O O8 0.054280 0.377737 0.327312
O O9 0.750000 0.750000 0.000000
O O10 0.500000 0.540748 0.250000
O O11 0.208213 0.494113 0.475726
O O12 0.009575 0.568076 0.494924
O O13 0.902263 0.093796 0.914440
O O14 0.000000 0.055357 0.750000
#
# Coordination Sequence:
#
# PCOD9274407 Si02
#       6
#     8   8   8   8   8   8
#     4  11  24  40  60  90 123 158 205 252 301 355
#     4  10  21  39  61  87 120 158 202 243 301 358
#     4  11  22  40  61  87 122 161 201 251 299 358
#     4  10  22  38  59  92 121 151 195 252 302 351
#     4  10  21  39  63  86 117 162 201 244 295 366
#     4  10  20  38  63  87 119 155 200 248 294 356
#
# _framework density 18.453230000000001
#
# number of rings (size 3 to 8) (size 9 to 14) (size 15 to 20)
#    0.000    1.667    3.333    1.000    0.000    6.000 
#    0.000    2.500    0.000    0.000    0.000    0.000 
#    0.000    0.000    0.000    0.000    0.000    0.000 
#
# Total GULP energy -133646.372060 kJ/mol
# GULP energy per Si atom -5568.598836 kJ/mol
# Density = 1.841123 g / cm^3
# Si number density = 18.453230 Si / 1000 Ang^3
#
#
#
# Elastic Constant Matrix: (Units=GPa)
#
#
# Indices 1 2 3 4 5 6 
#
# 1 79.4949 62.7403 4.2266 0.0000 -10.5271 0.0000
# 2 62.7403 97.5541 2.8567 0.0000 15.0421 0.0000
# 3 4.2266 2.8567 43.7224 0.0001 -6.6961 -0.0002
# 4 0.0000 0.0000 0.0001 24.3625 0.0000 -2.8753
# 5 -10.5271 15.0421 -6.6961 0.0000 30.8350 0.0000
# 6 0.0000 0.0000 -0.0002 -2.8753 0.0000 48.5640
#
#
#
# Elastic Compliance Matrix: (Units=1/GPa)
#
#
# Indices 1 2 3 4 5 6 
#
# 1 0.040545 -0.030680 0.002583 0.000000 0.029370 0.000000
# 2 -0.030680 0.034410 -0.003576 0.000000 -0.028037 0.000000
# 3 0.002583 -0.003576 0.024058 0.000000 0.007851 0.000000
# 4 0.000000 0.000000 0.000000 0.041335 0.000000 0.002447
# 5 0.029370 -0.028037 0.007851 0.000000 0.057840 0.000000
# 6 0.000000 0.000000 0.000000 0.002447 0.000000 0.020736
#
#
# Mechanical properties :
#
#
# Convention : Reuss Voigt Hill
#
# Bulk Modulus (GPa) = 28.03771 40.04651 34.04211
# Shear Modulus (GPa) = 16.99750 30.81550 23.90650
#
# Velocity S-wave (km/s) = 3.03828 4.09090 3.60324
# Velocity P-wave (km/s) = 5.24739 6.63798 5.98322
#
# Compressibility (1/GPa) = 0.03566625
#
# Stress axis : x y z
#
# Youngs Moduli (GPa) = 24.66366 29.06120 41.56646
#
# Poissons Ratio (x) = 0.89161 -0.10737
# Poissons Ratio (y) = 0.75669 0.14865
# Poissons Ratio (z) = -0.06371 0.10393
#
# Static dielectric constant tensor:
#      x y z
#    x 1.759640 0.000000 0.104890 
#    y 0.000000 1.611950 0.000000 
#    z 0.104890 0.000000 1.800150 
# 
# From -- ./inp_files/52747.got.cif
#   From: 2010.05.17/outbox.cif.g08.bks.cpg/sg15_27_cif.got.tgz:52747.got - 2010.06.03 18:47:42.
