data_PCOD9274173
_publ_section_title
;
Structure prediction by ZEFSAII (Michael W. Deem and Ramdas Pophale) SiO2 
 PCOD9274173
Probable space group: C 2/C
;
_chemical_formula_sum "Si O2"
_cell_formula_units_Z 40
_cell_length_a 16.364994
_cell_length_b 12.545486
_cell_length_c 14.360063
_cell_angle_alpha 90.000000
_cell_angle_beta 36.935367
_cell_angle_gamma 90.000000
_cell_volume 1771.625060
_symmetry_space_group_name_H-M "C 2/C"
_symmetry_group_IT_number 15
_symmetry_cell_setting 'monoclinic'
loop_
_space_group_symop_operation_xyz
x,y,z
-x,y,1/2-z
-x,-y,-z
x,-y,1/2+z
1/2+x,1/2+y,z
1/2-x,1/2+y,1/2-z
1/2-x,1/2-y,-z
1/2+x,1/2-y,1/2+z
loop_
_atom_site_type_symbol
_atom_site_label
_atom_site_fract_x
_atom_site_fract_y
_atom_site_fract_z
Si Si1 0.500000 0.222211 0.250000
Si Si2 0.149376 0.918275 0.765273
Si Si3 0.080166 0.403540 0.055876
Si Si4 0.000000 0.209621 0.250000
Si Si5 0.667219 0.974804 0.661179
Si Si6 0.549158 0.606754 0.549915
O O1 0.391093 0.144391 0.299650
O O2 0.445768 0.299237 0.380478
O O3 0.311828 0.909654 0.624878
O O4 0.105383 0.861386 0.710422
O O5 0.076686 0.860962 0.918552
O O6 0.088367 0.037675 0.818189
O O7 0.067015 0.287093 0.112450
O O8 0.145446 0.474612 0.079174
O O9 0.930503 0.454787 0.183153
O O10 0.823812 0.971874 0.545382
#
# Coordination Sequence:
#
# PCOD9274173 Si02
#       6
#     4   8   8   4   8   8
#     4  10  20  38  62  84 114 152 190 236 282 338
#     4  11  23  37  58  87 117 152 191 234 284 337
#     4   9  20  39  61  83 111 152 191 233 287 335
#     4  10  20  38  62  84 114 152 190 236 282 338
#     4   9  20  39  61  83 111 152 191 233 287 335
#     4  11  23  37  58  87 117 152 191 234 284 337
#
# _framework density 22.578140999999999
#
# number of rings (size 3 to 8) (size 9 to 14) (size 15 to 20)
#    0.000    2.400    0.000    4.200    0.000    5.600 
#    0.000   14.000    0.000    1.200    0.000    0.000 
#    0.000    0.000    0.000    0.000    0.000    0.000 
#
# Total GULP energy -111719.670079 kJ/mol
# GULP energy per Si atom -5585.983504 kJ/mol
# Density = 2.252675 g / cm^3
# Si number density = 22.578141 Si / 1000 Ang^3
#
#
#
# Elastic Constant Matrix: (Units=GPa)
#
#
# Indices 1 2 3 4 5 6 
#
# 1 47.4819 6.4913 -8.2205 0.0000 8.7368 0.0000
# 2 6.4913 63.8068 44.5984 0.0000 21.7496 0.0000
# 3 -8.2205 44.5984 114.8947 0.0000 8.4013 0.0000
# 4 0.0000 0.0000 0.0000 11.8653 0.0000 2.5782
# 5 8.7368 21.7496 8.4013 0.0000 17.0483 0.0000
# 6 0.0000 0.0000 0.0000 2.5782 0.0000 6.4323
#
#
#
# Elastic Compliance Matrix: (Units=1/GPa)
#
#
# Indices 1 2 3 4 5 6 
#
# 1 0.024061 0.000771 0.002485 0.000000 -0.014539 0.000000
# 2 0.000771 0.038943 -0.011826 0.000000 -0.044249 0.000000
# 3 0.002485 -0.011826 0.012928 0.000000 0.007442 0.000000
# 4 0.000000 0.000000 0.000000 0.092319 0.000000 -0.037003
# 5 -0.014539 -0.044249 0.007442 0.000000 0.118892 0.000000
# 6 0.000000 0.000000 0.000000 -0.037003 0.000000 0.170296
#
#
# Mechanical properties :
#
#
# Convention : Reuss Voigt Hill
#
# Bulk Modulus (GPa) = 17.00907 34.65797 25.83352
# Shear Modulus (GPa) = 10.11788 19.29013 14.70400
#
# Velocity S-wave (km/s) = 2.11920 2.92614 2.55473
# Velocity P-wave (km/s) = 3.67937 5.17686 4.49097
#
# Compressibility (1/GPa) = 0.05879218
#
# Stress axis : x y z
#
# Youngs Moduli (GPa) = 41.56147 25.67882 77.35425
#
# Poissons Ratio (x) = -0.01979 -0.19226
# Poissons Ratio (y) = -0.03204 0.91476
# Poissons Ratio (z) = -0.10330 0.30367
#
# Static dielectric constant tensor:
#      x y z
#    x 1.842880 0.000000 -0.007290 
#    y 0.000000 1.812910 0.000000 
#    z -0.007290 0.000000 1.906870 
# 
# From -- ./inp_files/214988.got.cif
#   From: 2010.05.17/outbox.cif.g08.bks.cpg/sg15_108_cif.got.tgz:214988.got - 2010.06.03 18:47:42.
