data_PCOD9274085
_publ_section_title
;
Structure prediction by ZEFSAII (Michael W. Deem and Ramdas Pophale) SiO2 
 PCOD9274085
Probable space group: C 2/C
;
_chemical_formula_sum "Si O2"
_cell_formula_units_Z 60
_cell_length_a 8.728906
_cell_length_b 30.193058
_cell_length_c 11.199664
_cell_angle_alpha 90.000000
_cell_angle_beta 71.307455
_cell_angle_gamma 90.000000
_cell_volume 2796.001732
_symmetry_space_group_name_H-M "C 2/C"
_symmetry_group_IT_number 15
_symmetry_cell_setting 'monoclinic'
loop_
_space_group_symop_operation_xyz
x,y,z
-x,y,1/2-z
-x,-y,-z
x,-y,1/2+z
1/2+x,1/2+y,z
1/2-x,1/2+y,1/2-z
1/2-x,1/2-y,-z
1/2+x,1/2-y,1/2+z
loop_
_atom_site_type_symbol
_atom_site_label
_atom_site_fract_x
_atom_site_fract_y
_atom_site_fract_z
Si Si1 0.697149 0.498910 0.440798
Si Si2 0.774357 0.405633 0.523765
Si Si3 0.694715 0.459300 0.191234
Si Si4 0.305698 0.867842 0.276606
Si Si5 0.891077 0.721611 0.663576
Si Si6 0.500000 0.374359 0.750000
Si Si7 0.734392 0.316485 0.835278
Si Si8 0.505741 0.836913 0.933829
O O1 0.500000 0.500000 0.500000
O O2 0.777046 0.453467 0.466875
O O3 0.739225 0.495635 0.286683
O O4 0.743701 0.531046 0.540950
O O5 0.726581 0.373514 0.426010
O O6 0.638943 0.403799 0.658216
O O7 0.936502 0.384629 0.535858
O O8 0.500000 0.457841 0.250000
O O9 0.757355 0.410814 0.213607
O O10 0.500000 0.869621 0.250000
O O11 0.275838 0.819552 0.229117
O O12 0.804306 0.765095 0.638055
O O13 0.000000 0.734449 0.750000
O O14 0.006449 0.699249 0.537326
O O15 0.579189 0.343436 0.830925
O O16 0.863408 0.321885 0.695911
O O17 0.827169 0.336846 0.924244
#
# Coordination Sequence:
#
# PCOD9274085 Si02
#       8
#     8   8   8   8   8   4   8   8
#     4   9  19  36  63  88 125 158 205 256 315 370
#     4  10  20  38  61  89 120 166 201 253 314 376
#     4   9  19  38  59  91 123 155 205 265 307 369
#     4  10  20  39  61  85 122 161 203 250 310 375
#     4  11  20  37  63  84 114 171 206 252 316 362
#     4  10  22  36  62  86 122 156 212 248 312 370
#     4  10  22  39  58  89 120 163 204 266 308 367
#     4  10  21  40  58  85 128 157 205 260 314 373
#
# _framework density 21.459216000000001
#
# number of rings (size 3 to 8) (size 9 to 14) (size 15 to 20)
#    0.000    2.133    3.333    0.400    2.800    1.600 
#    9.600    4.000    5.867    0.000    0.000    0.000 
#    0.000    0.000    0.000    0.000    0.000    0.000 
#
# Total GULP energy -167177.897043 kJ/mol
# GULP energy per Si atom -5572.596568 kJ/mol
# Density = 2.141037 g / cm^3
# Si number density = 21.459216 Si / 1000 Ang^3
#
#
#
# Elastic Constant Matrix: (Units=GPa)
#
#
# Indices 1 2 3 4 5 6 
#
# 1 75.5528 36.4361 20.6640 0.0000 27.4295 0.0000
# 2 36.4361 58.1901 2.7026 0.0000 17.3089 0.0000
# 3 20.6640 2.7026 60.5357 0.0000 12.7788 0.0000
# 4 0.0000 0.0000 0.0000 -247.4496 0.0000 30.8698
# 5 27.4295 17.3089 12.7788 0.0000 27.5067 0.0000
# 6 0.0000 0.0000 0.0000 30.8698 0.0000 21.9513
#
#
#
# Elastic Compliance Matrix: (Units=1/GPa)
#
#
# Indices 1 2 3 4 5 6 
#
# 1 0.025946 -0.011066 -0.004846 0.000000 -0.016658 0.000000
# 2 -0.011066 0.026098 0.004157 0.000000 -0.007319 0.000000
# 3 -0.004846 0.004157 0.019425 0.000000 -0.006808 0.000000
# 4 0.000000 0.000000 0.000000 -0.003438 0.000000 0.004835
# 5 -0.016658 -0.007319 -0.006808 0.000000 0.060734 0.000000
# 6 0.000000 0.000000 0.000000 0.004835 0.000000 0.038756
#
#
# Mechanical properties :
#
#
# Convention : Reuss Voigt Hill
#
# Bulk Modulus (GPa) = 20.85117 34.87599 27.86358
# Shear Modulus (GPa) = 24.15262 -30.63326 -3.24032
#
# Velocity S-wave (km/s) = 3.35851 -3.78234 -1.23015
# Velocity P-wave (km/s) = 4.97767 1.66952 3.31586
#
# Compressibility (1/GPa) = 0.04795894
#
# Stress axis : x y z
#
# Youngs Moduli (GPa) = 38.54219 38.31711 51.48032
#
# Poissons Ratio (x) = 0.42401 0.24948
# Poissons Ratio (y) = 0.42650 -0.21402
# Poissons Ratio (z) = 0.18678 -0.15929
#
# Static dielectric constant tensor:
#      x y z
#    x 1.794070 0.000000 0.032850 
#    y 0.000000 1.762930 0.000000 
#    z 0.032850 0.000000 1.870620 
# 
# From -- ./inp_files/82185.got.cif
#   From: 2010.05.17/outbox.cif.g08.bks.cpg/sg15_42_cif.got.tgz:82185.got - 2010.06.03 18:47:42.
