data_PCOD9274244
_publ_section_title
;
Structure prediction by ZEFSAII (Michael W. Deem and Ramdas Pophale) SiO2 
 PCOD9274244
Probable space group: C 2/C
;
_chemical_formula_sum "Si O2"
_cell_formula_units_Z 52
_cell_length_a 19.728756
_cell_length_b 13.876672
_cell_length_c 13.642565
_cell_angle_alpha 90.000000
_cell_angle_beta 139.704588
_cell_angle_gamma 90.000000
_cell_volume 2415.478603
_symmetry_space_group_name_H-M "C 2/C"
_symmetry_group_IT_number 15
_symmetry_cell_setting 'monoclinic'
loop_
_space_group_symop_operation_xyz
x,y,z
-x,y,1/2-z
-x,-y,-z
x,-y,1/2+z
1/2+x,1/2+y,z
1/2-x,1/2+y,1/2-z
1/2-x,1/2-y,-z
1/2+x,1/2-y,1/2+z
loop_
_atom_site_type_symbol
_atom_site_label
_atom_site_fract_x
_atom_site_fract_y
_atom_site_fract_z
Si Si1 0.000000 0.711019 0.750000
Si Si2 0.160256 0.186648 0.555449
Si Si3 0.388053 0.135034 0.813578
Si Si4 0.874934 0.002460 0.369425
Si Si5 0.722587 0.928072 0.833017
Si Si6 0.053664 0.272594 0.632076
Si Si7 0.898580 0.917641 0.192931
O O1 0.037936 0.649203 0.699128
O O2 0.904663 0.777725 0.608499
O O3 0.283949 0.199155 0.683408
O O4 0.145631 0.075007 0.567455
O O5 0.108654 0.235393 0.593214
O O6 0.345883 0.025020 0.766753
O O7 0.447956 0.175139 0.976353
O O8 0.848064 0.971898 0.230197
O O9 0.799639 0.087548 0.323256
O O10 0.000000 0.000000 0.500000
O O11 0.633758 0.851091 0.758990
O O12 0.805180 0.916250 0.012402
O O13 0.054485 0.181888 0.707326
O O14 0.000000 0.962325 0.250000
#
# Coordination Sequence:
#
# PCOD9274244 Si02
#       7
#     4   8   8   8   8   8   8
#     4  10  20  38  62  88 122 162 218 258 324 390
#     4   9  21  36  61  87 119 162 210 266 317 386
#     4  10  22  40  60  92 126 166 214 270 326 388
#     4  10  21  39  61  91 126 160 209 269 327 386
#     4  11  23  41  65  90 132 169 218 268 330 388
#     4  10  23  41  62  89 127 173 216 260 332 395
#     4  11  23  40  65  98 127 168 222 270 326 393
#
# _framework density 21.527823999999999
#
# number of rings (size 3 to 8) (size 9 to 14) (size 15 to 20)
#    0.000    1.846    1.538    1.385    2.154    6.154 
#    4.154    0.000    0.000    0.000    0.000    0.000 
#    0.000    0.000    0.000    0.000    0.000    0.000 
#
# Total GULP energy -144746.351648 kJ/mol
# GULP energy per Si atom -5567.167371 kJ/mol
# Density = 2.147883 g / cm^3
# Si number density = 21.527824 Si / 1000 Ang^3
#
#
#
# Elastic Constant Matrix: (Units=GPa)
#
#
# Indices 1 2 3 4 5 6 
#
# 1 85.3547 10.2715 27.6701 0.0000 -3.8493 0.0000
# 2 10.2715 18.5571 10.5858 0.0000 -10.4601 0.0000
# 3 27.6701 10.5858 157.9578 0.0000 -3.4865 0.0000
# 4 0.0000 0.0000 0.0000 22.1906 0.0000 2.9563
# 5 -3.8493 -10.4601 -3.4865 0.0000 36.7693 0.0000
# 6 0.0000 0.0000 0.0000 2.9563 0.0000 9.1660
#
#
#
# Elastic Compliance Matrix: (Units=1/GPa)
#
#
# Indices 1 2 3 4 5 6 
#
# 1 0.013079 -0.006553 -0.001867 0.000000 -0.000672 0.000000
# 2 -0.006553 0.069961 -0.003123 0.000000 0.018920 0.000000
# 3 -0.001867 -0.003123 0.006858 0.000000 -0.000434 0.000000
# 4 0.000000 0.000000 0.000000 0.047087 0.000000 -0.015187
# 5 -0.000672 0.018920 -0.000434 0.000000 0.032468 0.000000
# 6 0.000000 0.000000 0.000000 -0.015187 0.000000 0.113997
#
#
# Mechanical properties :
#
#
# Convention : Reuss Voigt Hill
#
# Bulk Modulus (GPa) = 14.96742 39.88050 27.42396
# Shear Modulus (GPa) = 15.20649 27.84798 21.52723
#
# Velocity S-wave (km/s) = 2.66063 3.60054 3.16566
# Velocity P-wave (km/s) = 4.05047 5.98753 5.11160
#
# Compressibility (1/GPa) = 0.06681180
#
# Stress axis : x y z
#
# Youngs Moduli (GPa) = 76.45663 14.29362 145.82486
#
# Poissons Ratio (x) = 0.09367 0.27223
# Poissons Ratio (y) = 0.50105 0.45541
# Poissons Ratio (z) = 0.14273 0.04464
#
# Static dielectric constant tensor:
#      x y z
#    x 14.666590 0.000000 1.059000 
#    y 0.000000 2.033950 0.000000 
#    z 1.059000 0.000000 1.917380 
# 
# From -- ./inp_files/169011.got.cif
#   From: 2010.05.17/outbox.cif.g08.bks.cpg/sg15_85_cif.got.tgz:169011.got - 2010.06.03 18:47:42.
