data_PCOD9274706
_publ_section_title
;
Structure prediction by ZEFSAII (Michael W. Deem and Ramdas Pophale) SiO2 
 PCOD9274706
Probable space group: C 2/C
;
_chemical_formula_sum "Si O2"
_cell_formula_units_Z 48
_cell_length_a 21.289286
_cell_length_b 12.391780
_cell_length_c 15.207949
_cell_angle_alpha 90.000000
_cell_angle_beta 37.263607
_cell_angle_gamma 90.000000
_cell_volume 2429.223089
_symmetry_space_group_name_H-M "C 2/C"
_symmetry_group_IT_number 15
_symmetry_cell_setting 'monoclinic'
loop_
_space_group_symop_operation_xyz
x,y,z
-x,y,1/2-z
-x,-y,-z
x,-y,1/2+z
1/2+x,1/2+y,z
1/2-x,1/2+y,1/2-z
1/2-x,1/2-y,-z
1/2+x,1/2-y,1/2+z
loop_
_atom_site_type_symbol
_atom_site_label
_atom_site_fract_x
_atom_site_fract_y
_atom_site_fract_z
Si Si1 0.782286 0.700394 0.836075
Si Si2 0.958993 0.615084 0.510567
Si Si3 0.882301 0.122090 0.350638
Si Si4 0.380413 0.279633 0.463870
Si Si5 0.325714 0.763129 0.710163
Si Si6 0.407544 0.383886 0.249370
O O1 0.867152 0.644711 0.679924
O O2 0.843243 0.783947 0.829542
O O3 0.706807 0.763448 0.854031
O O4 0.705792 0.623389 0.975796
O O5 0.913163 0.661023 0.466943
O O6 0.000000 0.500000 0.500000
O O7 0.064306 0.682553 0.400568
O O8 0.000000 0.145897 0.250000
O O9 0.886272 0.004450 0.302987
O O10 0.270332 0.309826 0.627937
O O11 0.378200 0.299811 0.361396
O O12 0.469779 0.361765 0.397655
O O13 0.344965 0.645550 0.731811
#
# Coordination Sequence:
#
# PCOD9274706 Si02
#       6
#     8   8   8   8   8   8
#     4  10  24  41  60  93 123 162 206 252 308 381
#     4  10  22  38  60  89 128 166 200 250 314 372
#     4  11  22  42  67  89 123 160 211 257 312 371
#     4   9  19  38  59  94 121 153 210 254 303 365
#     4  10  21  40  61  88 130 157 205 260 299 377
#     4  10  20  38  64  95 118 162 206 262 315 354
#
# _framework density 19.759404
#
# number of rings (size 3 to 8) (size 9 to 14) (size 15 to 20)
#    0.000    2.000    1.667    1.500    2.333    2.667 
#    3.000    5.000    3.667    0.000    0.000    0.000 
#    0.000    0.000    0.000    0.000    0.000    0.000 
#
# Total GULP energy -133618.432617 kJ/mol
# GULP energy per Si atom -5567.434692 kJ/mol
# Density = 1.971443 g / cm^3
# Si number density = 19.759404 Si / 1000 Ang^3
#
#
#
# Elastic Constant Matrix: (Units=GPa)
#
#
# Indices 1 2 3 4 5 6 
#
# 1 68.4527 21.8972 15.6012 0.0000 -14.4021 0.0000
# 2 21.8972 71.8493 21.7690 0.0000 -7.7719 0.0000
# 3 15.6012 21.7690 85.4032 0.0000 -28.1094 0.0000
# 4 0.0000 0.0000 0.0000 20.2996 0.0000 -3.7999
# 5 -14.4021 -7.7719 -28.1094 0.0000 23.3994 0.0000
# 6 0.0000 0.0000 0.0000 -3.7999 0.0000 -8.9256
#
#
#
# Elastic Compliance Matrix: (Units=1/GPa)
#
#
# Indices 1 2 3 4 5 6 
#
# 1 0.018215 -0.004816 0.001759 0.000000 0.011725 0.000000
# 2 -0.004816 0.016362 -0.004098 0.000000 -0.002453 0.000000
# 3 0.001759 -0.004098 0.020411 0.000000 0.024241 0.000000
# 4 0.000000 0.000000 0.000000 0.045626 0.000000 -0.019424
# 5 0.011725 -0.002453 0.024241 0.000000 0.078259 0.000000
# 6 0.000000 0.000000 0.000000 -0.019424 0.000000 -0.103768
#
#
# Mechanical properties :
#
#
# Convention : Reuss Voigt Hill
#
# Bulk Modulus (GPa) = 24.58307 38.24887 31.41597
# Shear Modulus (GPa) = 48.55550 18.05053 33.30302
#
# Velocity S-wave (km/s) = 4.96253 3.02572 4.10985
# Velocity P-wave (km/s) = 6.73081 5.62192 6.20120
#
# Compressibility (1/GPa) = 0.04067841
#
# Stress axis : x y z
#
# Youngs Moduli (GPa) = 54.89938 61.11667 48.99290
#
# Poissons Ratio (x) = 0.29434 -0.08619
# Poissons Ratio (y) = 0.26440 0.20078
# Poissons Ratio (z) = -0.09658 0.25047
#
# Static dielectric constant tensor:
#      x y z
#    x 1.754860 0.000000 0.023440 
#    y 0.000000 1.724930 0.000000 
#    z 0.023440 0.000000 1.713370 
# 
# From -- ./inp_files/167835.got.cif
#   From: 2010.05.17/outbox.cif.g08.bks.cpg/sg15_84_cif.got.tgz:167835.got - 2010.06.03 18:47:42.
