data_PCOD9274833
_publ_section_title
;
Structure prediction by ZEFSAII (Michael W. Deem and Ramdas Pophale) SiO2 
 PCOD9274833
Probable space group: C 2/C
;
_chemical_formula_sum "Si O2"
_cell_formula_units_Z 44
_cell_length_a 30.101029
_cell_length_b 14.551452
_cell_length_c 15.296613
_cell_angle_alpha 90.000000
_cell_angle_beta 161.967085
_cell_angle_gamma 90.000000
_cell_volume 2074.113043
_symmetry_space_group_name_H-M "C 2/C"
_symmetry_group_IT_number 15
_symmetry_cell_setting 'monoclinic'
loop_
_space_group_symop_operation_xyz
x,y,z
-x,y,1/2-z
-x,-y,-z
x,-y,1/2+z
1/2+x,1/2+y,z
1/2-x,1/2+y,1/2-z
1/2-x,1/2-y,-z
1/2+x,1/2-y,1/2+z
loop_
_atom_site_type_symbol
_atom_site_label
_atom_site_fract_x
_atom_site_fract_y
_atom_site_fract_z
Si Si1 0.500000 0.249301 0.750000
Si Si2 0.704060 0.200013 0.656427
Si Si3 0.911802 0.403953 0.217952
Si Si4 0.500000 0.366757 0.250000
Si Si5 0.389070 0.776125 0.318354
Si Si6 0.928215 0.074942 0.427001
Si Si7 0.000000 0.543397 0.250000
O O1 0.374135 0.303638 0.467816
O O2 0.578247 0.183226 0.828142
O O3 0.634480 0.295289 0.491409
O O4 0.656854 0.197743 0.670004
O O5 0.631478 0.111527 0.479379
O O6 0.957688 0.362796 0.397064
O O7 0.010095 0.479029 0.354094
O O8 0.744976 0.433193 0.905749
O O9 0.527789 0.426153 0.388561
O O10 0.470726 0.679190 0.477196
O O11 0.250000 0.750000 0.000000
O O12 0.000000 0.000000 0.500000
#
# Coordination Sequence:
#
# PCOD9274833 Si02
#       7
#     4   8   8   4   8   8   4
#     4  11  18  37  69  91 114 176 219 256 326 396
#     4  10  20  38  68  88 122 166 219 262 322 387
#     4  10  21  40  60  88 132 165 209 267 321 396
#     4   9  18  41  62  94 128 172 207 276 318 379
#     4   9  17  38  60  85 116 171 204 258 315 387
#     4  10  20  38  65  97 134 167 218 270 323 385
#     4  10  24  40  57  97 128 156 216 274 320 379
#
# _framework density 21.213888000000001
#
# number of rings (size 3 to 8) (size 9 to 14) (size 15 to 20)
#    0.000    2.182    5.455    0.000    0.000    2.182 
#    6.545    3.636    0.000    6.545    0.000    0.000 
#    0.000    0.000    0.000    0.000    0.000    0.000 
#
# Total GULP energy -122699.093985 kJ/mol
# GULP energy per Si atom -5577.231545 kJ/mol
# Density = 2.116560 g / cm^3
# Si number density = 21.213888 Si / 1000 Ang^3
#
#
#
# Elastic Constant Matrix: (Units=GPa)
#
#
# Indices 1 2 3 4 5 6 
#
# 1 84.6746 44.6848 5.8113 0.0000 -6.7998 0.0000
# 2 44.6848 82.1077 19.2840 0.0000 1.6619 0.0000
# 3 5.8113 19.2840 76.7315 0.0000 10.2640 0.0000
# 4 0.0000 0.0000 0.0000 9.8657 0.0000 -5.1789
# 5 -6.7998 1.6619 10.2640 0.0000 36.1110 0.0000
# 6 0.0000 0.0000 0.0000 -5.1789 0.0000 36.0713
#
#
#
# Elastic Compliance Matrix: (Units=1/GPa)
#
#
# Indices 1 2 3 4 5 6 
#
# 1 0.017060 -0.009503 0.000632 0.000000 0.003470 0.000000
# 2 -0.009503 0.018241 -0.003652 0.000000 -0.001591 0.000000
# 3 0.000632 -0.003652 0.014412 0.000000 -0.003809 0.000000
# 4 0.000000 0.000000 0.000000 0.109623 0.000000 0.015739
# 5 0.003470 -0.001591 -0.003809 0.000000 0.029502 0.000000
# 6 0.000000 0.000000 0.000000 0.015739 0.000000 0.029983
#
#
# Mechanical properties :
#
#
# Convention : Reuss Voigt Hill
#
# Bulk Modulus (GPa) = 40.53958 42.56379 41.55168
# Shear Modulus (GPa) = 19.83426 27.99185 23.91305
#
# Velocity S-wave (km/s) = 3.06104 3.63644 3.36108
# Velocity P-wave (km/s) = 5.62536 6.14323 5.88999
#
# Compressibility (1/GPa) = 0.02466725
#
# Stress axis : x y z
#
# Youngs Moduli (GPa) = 58.61552 54.82195 69.38721
#
# Poissons Ratio (x) = 0.52099 -0.04386
# Poissons Ratio (y) = 0.55704 0.25338
# Poissons Ratio (z) = -0.03705 0.20019
#
# Static dielectric constant tensor:
#      x y z
#    x 1.803870 0.000000 -0.026650 
#    y 0.000000 1.807810 0.000000 
#    z -0.026650 0.000000 1.846690 
# 
# From -- ./inp_files/182400.got.cif
#   From: 2010.05.17/outbox.cif.g08.bks.cpg/sg15_92_cif.got.tgz:182400.got - 2010.06.03 18:47:42.
