data_PCOD9274897
_publ_section_title
;
Structure prediction by ZEFSAII (Michael W. Deem and Ramdas Pophale) SiO2 
 PCOD9274897
Probable space group: C 2/C
;
_chemical_formula_sum "Si O2"
_cell_formula_units_Z 44
_cell_length_a 11.279326
_cell_length_b 18.456105
_cell_length_c 12.253105
_cell_angle_alpha 90.000000
_cell_angle_beta 130.374836
_cell_angle_gamma 90.000000
_cell_volume 1943.226261
_symmetry_space_group_name_H-M "C 2/C"
_symmetry_group_IT_number 15
_symmetry_cell_setting 'monoclinic'
loop_
_space_group_symop_operation_xyz
x,y,z
-x,y,1/2-z
-x,-y,-z
x,-y,1/2+z
1/2+x,1/2+y,z
1/2-x,1/2+y,1/2-z
1/2-x,1/2-y,-z
1/2+x,1/2-y,1/2+z
loop_
_atom_site_type_symbol
_atom_site_label
_atom_site_fract_x
_atom_site_fract_y
_atom_site_fract_z
Si Si1 0.305021 0.086816 0.404517
Si Si2 0.905963 0.735006 0.520135
Si Si3 0.314504 0.134885 0.163776
Si Si4 0.852757 0.789718 0.243306
Si Si5 0.683868 0.435350 0.373216
Si Si6 0.000000 0.831100 0.750000
O O1 0.424151 0.148342 0.518385
O O2 0.293977 0.097916 0.268375
O O3 0.143924 0.117217 0.357767
O O4 0.301762 0.002336 0.427821
O O5 0.750000 0.750000 0.500000
O O6 0.891468 0.768560 0.390828
O O7 0.030592 0.777744 0.666813
O O8 0.500000 0.132780 0.250000
O O9 0.268296 0.219475 0.142935
O O10 0.216588 0.095694 0.012823
O O11 0.779590 0.868964 0.187265
O O12 0.000000 0.796869 0.250000
O O13 0.500000 0.455551 0.250000
#
# Coordination Sequence:
#
# PCOD9274897 Si02
#       6
#     8   8   8   8   8   4
#     4  10  22  40  63  94 133 163 221 276 324 385
#     4   9  20  39  58  90 126 172 210 255 324 391
#     4  10  23  44  63  90 138 177 213 265 325 398
#     4   9  20  39  65  94 126 170 219 267 320 391
#     4  11  23  39  66 103 126 166 218 279 330 375
#     4  10  20  38  66  90 132 172 220 268 322 396
#
# _framework density 22.642757
#
# number of rings (size 3 to 8) (size 9 to 14) (size 15 to 20)
#    0.000    2.182    0.909    0.545    5.091    4.364 
#   21.273    0.000    0.000    0.000    0.000    0.000 
#    0.000    0.000    0.000    0.000    0.000    0.000 
#
# Total GULP energy -122783.057742 kJ/mol
# GULP energy per Si atom -5581.048079 kJ/mol
# Density = 2.259122 g / cm^3
# Si number density = 22.642757 Si / 1000 Ang^3
#
#
#
# Elastic Constant Matrix: (Units=GPa)
#
#
# Indices 1 2 3 4 5 6 
#
# 1 86.9890 15.0720 17.9124 0.0000 -3.2282 0.0000
# 2 15.0720 193.5833 40.9304 0.0000 -29.7982 0.0000
# 3 17.9124 40.9304 81.8247 0.0000 -25.3581 0.0000
# 4 0.0000 0.0000 0.0000 17.8165 0.0000 -16.0842
# 5 -3.2282 -29.7982 -25.3581 0.0000 36.7745 0.0000
# 6 0.0000 0.0000 0.0000 -16.0842 0.0000 -10.6745
#
#
#
# Elastic Compliance Matrix: (Units=1/GPa)
#
#
# Indices 1 2 3 4 5 6 
#
# 1 0.012116 -0.000557 -0.002778 0.000000 -0.001303 0.000000
# 2 -0.000557 0.006161 -0.001816 0.000000 0.003691 0.000000
# 3 -0.002778 -0.001816 0.016795 0.000000 0.009866 0.000000
# 4 0.000000 0.000000 0.000000 0.023780 0.000000 -0.035831
# 5 -0.001303 0.003691 0.009866 0.000000 0.036872 0.000000
# 6 0.000000 0.000000 0.000000 -0.035831 0.000000 -0.039691
#
#
# Mechanical properties :
#
#
# Convention : Reuss Voigt Hill
#
# Bulk Modulus (GPa) = 40.36889 56.69185 48.53037
# Shear Modulus (GPa) = 67.03128 28.01546 47.52337
#
# Velocity S-wave (km/s) = 5.44684 3.52132 4.58627
# Velocity P-wave (km/s) = 7.57792 6.45173 7.03739
#
# Compressibility (1/GPa) = 0.02477155
#
# Stress axis : x y z
#
# Youngs Moduli (GPa) = 82.53725 162.30442 59.54048
#
# Poissons Ratio (x) = 0.09033 0.16538
# Poissons Ratio (y) = 0.04594 0.10814
# Poissons Ratio (z) = 0.22926 0.29478
#
# Static dielectric constant tensor:
#      x y z
#    x 2.066780 0.000000 0.144650 
#    y 0.000000 1.884820 0.000000 
#    z 0.144650 0.000000 1.875830 
# 
# From -- ./inp_files/98504.got.cif
#   From: 2010.05.17/outbox.cif.g08.bks.cpg/sg15_50_cif.got.tgz:98504.got - 2010.06.03 18:47:42.
