data_PCOD9274278
_publ_section_title
;
Structure prediction by ZEFSAII (Michael W. Deem and Ramdas Pophale) SiO2 
 PCOD9274278
Probable space group: C 2/C
;
_chemical_formula_sum "Si O2"
_cell_formula_units_Z 48
_cell_length_a 17.221678
_cell_length_b 7.932243
_cell_length_c 31.892230
_cell_angle_alpha 90.000000
_cell_angle_beta 145.054145
_cell_angle_gamma 90.000000
_cell_volume 2495.519367
_symmetry_space_group_name_H-M "C 2/C"
_symmetry_group_IT_number 15
_symmetry_cell_setting 'monoclinic'
loop_
_space_group_symop_operation_xyz
x,y,z
-x,y,1/2-z
-x,-y,-z
x,-y,1/2+z
1/2+x,1/2+y,z
1/2-x,1/2+y,1/2-z
1/2-x,1/2-y,-z
1/2+x,1/2-y,1/2+z
loop_
_atom_site_type_symbol
_atom_site_label
_atom_site_fract_x
_atom_site_fract_y
_atom_site_fract_z
Si Si1 0.865474 0.835237 0.481494
Si Si2 0.446987 0.117657 0.657799
Si Si3 0.020756 0.537348 0.598030
Si Si4 0.766904 0.118186 0.650623
Si Si5 0.000000 0.643128 0.250000
Si Si6 0.500000 0.636105 0.250000
Si Si7 0.558042 0.722316 0.990834
O O1 0.705492 0.818472 0.416684
O O2 0.937964 0.696714 0.542489
O O3 0.922995 0.795091 0.460159
O O4 0.904722 0.032155 0.506817
O O5 0.513499 0.058115 0.644408
O O6 0.529742 0.252207 0.722140
O O7 0.434223 0.963847 0.684206
O O8 0.169109 0.555579 0.643763
O O9 0.962893 0.360115 0.554803
O O10 0.876812 0.252574 0.714962
O O11 0.672611 0.199517 0.572729
O O12 0.867700 0.971951 0.680116
#
# Coordination Sequence:
#
# PCOD9274278 Si02
#       7
#     8   8   8   8   4   4   8
#     4  10  20  38  62  90 119 153 191 241 303 352
#     4  11  22  39  57  89 119 152 200 241 295 346
#     4  11  23  37  61  94 118 147 195 258 291 341
#     4  10  20  41  59  85 114 157 205 230 294 353
#     4  10  22  40  60  76 120 166 192 234 286 362
#     4  10  22  38  64  76 116 172 194 238 282 362
#     4  10  20  38  65  89 118 155 191 247 298 351
#
# _framework density 19.234473000000001
#
# number of rings (size 3 to 8) (size 9 to 14) (size 15 to 20)
#    0.000    1.667    1.667    4.500    0.000    2.000 
#    6.000    0.000    0.000    0.000    0.000    0.000 
#    0.000    0.000    0.000    0.000    0.000    0.000 
#
# Total GULP energy -133834.170515 kJ/mol
# GULP energy per Si atom -5576.423771 kJ/mol
# Density = 1.919069 g / cm^3
# Si number density = 19.234473 Si / 1000 Ang^3
#
#
#
# Elastic Constant Matrix: (Units=GPa)
#
#
# Indices 1 2 3 4 5 6 
#
# 1 64.7044 40.0673 29.7133 0.0001 -11.1226 0.0000
# 2 40.0673 108.6321 23.6463 0.0001 -11.2260 -0.0001
# 3 29.7133 23.6463 40.1055 0.0000 6.6050 0.0000
# 4 0.0001 0.0001 0.0000 10.4083 0.0000 10.9603
# 5 -11.1226 -11.2260 6.6050 0.0000 32.8426 0.0000
# 6 0.0000 -0.0001 0.0000 10.9603 0.0000 14.1913
#
#
#
# Elastic Compliance Matrix: (Units=1/GPa)
#
#
# Indices 1 2 3 4 5 6 
#
# 1 0.031184 -0.005319 -0.022141 0.000000 0.013196 0.000000
# 2 -0.005319 0.012337 -0.003859 -0.000001 0.003192 0.000001
# 3 -0.022141 -0.003859 0.046609 0.000000 -0.018191 0.000000
# 4 0.000000 -0.000001 0.000000 0.514564 0.000001 -0.397412
# 5 0.013196 0.003192 -0.018191 0.000001 0.039667 -0.000001
# 6 0.000000 0.000001 0.000000 -0.397412 -0.000001 0.377398
#
#
# Mechanical properties :
#
#
# Convention : Reuss Voigt Hill
#
# Bulk Modulus (GPa) = 36.37306 44.47733 40.42520
# Shear Modulus (GPa) = 4.57222 19.48943 12.03083
#
# Velocity S-wave (km/s) = 1.54346 3.18662 2.50368
# Velocity P-wave (km/s) = 4.70401 6.05915 5.42407
#
# Compressibility (1/GPa) = 0.02749287
#
# Stress axis : x y z
#
# Youngs Moduli (GPa) = 32.06738 81.05729 21.45495
#
# Poissons Ratio (x) = 0.43112 0.47504
# Poissons Ratio (y) = 0.17056 0.08280
# Poissons Ratio (z) = 0.71001 0.31280
#
# Static dielectric constant tensor:
#      x y z
#    x 1.641670 0.000000 0.015510 
#    y 0.000000 1.724410 0.000000 
#    z 0.015510 0.000000 1.685290 
# 
# From -- ./inp_files/208978.got.cif
#   From: 2010.05.17/outbox.cif.g08.bks.cpg/sg15_105_cif.got.tgz:208978.got - 2010.06.03 18:47:42.
