data_PCOD9274577
_publ_section_title
;
Structure prediction by ZEFSAII (Michael W. Deem and Ramdas Pophale) SiO2 
 PCOD9274577
Probable space group: C 2/C
;
_chemical_formula_sum "Si O2"
_cell_formula_units_Z 52
_cell_length_a 11.809788
_cell_length_b 21.362575
_cell_length_c 11.544081
_cell_angle_alpha 90.000000
_cell_angle_beta 58.936513
_cell_angle_gamma 90.000000
_cell_volume 2494.773668
_symmetry_space_group_name_H-M "C 2/C"
_symmetry_group_IT_number 15
_symmetry_cell_setting 'monoclinic'
loop_
_space_group_symop_operation_xyz
x,y,z
-x,y,1/2-z
-x,-y,-z
x,-y,1/2+z
1/2+x,1/2+y,z
1/2-x,1/2+y,1/2-z
1/2-x,1/2-y,-z
1/2+x,1/2-y,1/2+z
loop_
_atom_site_type_symbol
_atom_site_label
_atom_site_fract_x
_atom_site_fract_y
_atom_site_fract_z
Si Si1 0.627055 0.035655 0.099245
Si Si2 0.107382 0.601414 0.594713
Si Si3 0.203374 0.883066 0.843262
Si Si4 0.012612 0.345243 0.915297
Si Si5 0.528312 0.292349 0.102896
Si Si6 0.500000 0.630280 0.250000
Si Si7 0.678480 0.306031 0.473568
O O1 0.500000 0.030068 0.250000
O O2 0.754483 0.055035 0.107176
O O3 0.585760 0.095822 0.046824
O O4 0.638156 0.968427 0.032016
O O5 0.058080 0.649169 0.523385
O O6 0.233594 0.632595 0.585339
O O7 0.000000 0.596989 0.750000
O O8 0.347953 0.855098 0.728178
O O9 0.115214 0.898816 0.774071
O O10 0.124751 0.836260 0.973535
O O11 0.937431 0.281749 0.920524
O O12 0.500000 0.312234 0.250000
O O13 0.387105 0.290187 0.112507
O O14 0.431235 0.674125 0.378270
O O15 0.750000 0.250000 0.500000
#
# Coordination Sequence:
#
# PCOD9274577 Si02
#       7
#     8   8   8   8   8   4   8
#     4   9  21  39  63  92 124 161 210 258 315 365
#     4  11  23  39  63  96 124 159 214 267 309 364
#     4  10  21  40  65  90 127 170 208 255 312 380
#     4  11  21  40  64  92 125 166 206 256 322 376
#     4  11  24  39  62  97 128 161 209 260 319 374
#     4  10  20  38  64  86 122 172 212 242 296 394
#     4  11  22  39  63  91 124 164 207 257 312 373
#
# _framework density 20.843572999999999
#
# number of rings (size 3 to 8) (size 9 to 14) (size 15 to 20)
#    0.000    1.538    3.077    1.846    1.077    4.923 
#    0.000    3.077    3.385    0.000    0.000    0.000 
#    0.000    0.000    0.000    0.000    0.000    0.000 
#
# Total GULP energy -144817.860162 kJ/mol
# GULP energy per Si atom -5569.917699 kJ/mol
# Density = 2.079613 g / cm^3
# Si number density = 20.843573 Si / 1000 Ang^3
#
#
#
# Elastic Constant Matrix: (Units=GPa)
#
#
# Indices 1 2 3 4 5 6 
#
# 1 107.7680 22.3639 20.5105 0.0000 20.9251 0.0000
# 2 22.3639 69.0949 20.5961 0.0000 -5.6731 0.0000
# 3 20.5105 20.5961 80.9235 0.0000 13.6201 0.0000
# 4 0.0000 0.0000 0.0000 16.1889 0.0000 7.8507
# 5 20.9251 -5.6731 13.6201 0.0000 29.7381 0.0000
# 6 0.0000 0.0000 0.0000 7.8507 0.0000 17.9671
#
#
#
# Elastic Compliance Matrix: (Units=1/GPa)
#
#
# Indices 1 2 3 4 5 6 
#
# 1 0.012081 -0.004562 -0.000351 0.000000 -0.009210 0.000000
# 2 -0.004562 0.018167 -0.004975 0.000000 0.008954 0.000000
# 3 -0.000351 -0.004975 0.014986 0.000000 -0.007566 0.000000
# 4 0.000000 0.000000 0.000000 0.078379 0.000000 -0.034247
# 5 -0.009210 0.008954 -0.007566 0.000000 0.045281 0.000000
# 6 0.000000 0.000000 0.000000 -0.034247 0.000000 0.070622
#
#
# Mechanical properties :
#
#
# Convention : Reuss Voigt Hill
#
# Bulk Modulus (GPa) = 39.27804 42.74749 41.01276
# Shear Modulus (GPa) = 18.67228 25.73322 22.20275
#
# Velocity S-wave (km/s) = 2.99629 3.51748 3.26729
# Velocity P-wave (km/s) = 5.55477 6.08688 5.82690
#
# Compressibility (1/GPa) = 0.02545952
#
# Stress axis : x y z
#
# Youngs Moduli (GPa) = 82.77471 55.04350 66.73010
#
# Poissons Ratio (x) = 0.25110 0.02341
# Poissons Ratio (y) = 0.37761 0.33196
# Poissons Ratio (z) = 0.02903 0.27382
#
# Static dielectric constant tensor:
#      x y z
#    x 1.685870 0.000000 -0.039630 
#    y 0.000000 1.807240 0.000000 
#    z -0.039630 0.000000 1.708440 
# 
# From -- ./inp_files/89520.got.cif
#   From: 2010.05.17/outbox.cif.g08.bks.cpg/sg15_45_cif.got.tgz:89520.got - 2010.06.03 18:47:42.
