data_PCOD9274451
_publ_section_title
;
Structure prediction by ZEFSAII (Michael W. Deem and Ramdas Pophale) SiO2 
 PCOD9274451
Probable space group: C 2/C
;
_chemical_formula_sum "Si O2"
_cell_formula_units_Z 40
_cell_length_a 8.831144
_cell_length_b 10.236593
_cell_length_c 22.095786
_cell_angle_alpha 90.000000
_cell_angle_beta 124.902801
_cell_angle_gamma 90.000000
_cell_volume 1638.178903
_symmetry_space_group_name_H-M "C 2/C"
_symmetry_group_IT_number 15
_symmetry_cell_setting 'monoclinic'
loop_
_space_group_symop_operation_xyz
x,y,z
-x,y,1/2-z
-x,-y,-z
x,-y,1/2+z
1/2+x,1/2+y,z
1/2-x,1/2+y,1/2-z
1/2-x,1/2-y,-z
1/2+x,1/2-y,1/2+z
loop_
_atom_site_type_symbol
_atom_site_label
_atom_site_fract_x
_atom_site_fract_y
_atom_site_fract_z
Si Si1 0.110074 0.601597 0.105046
Si Si2 0.181615 0.677454 0.631726
Si Si3 0.286955 0.204508 0.721777
Si Si4 0.445204 0.354658 0.078892
Si Si5 0.132314 0.869795 0.947533
O O1 0.053662 0.451689 0.091660
O O2 0.193048 0.653395 0.187319
O O3 0.283147 0.613155 0.099794
O O4 0.961391 0.711907 0.051258
O O5 0.239563 0.667988 0.714812
O O6 0.339297 0.668370 0.617729
O O7 0.070949 0.810668 0.599927
O O8 0.500000 0.201320 0.750000
O O9 0.158738 0.119564 0.647325
O O10 0.371004 0.482355 0.028345
O O11 0.250000 0.750000 0.000000
#
# Coordination Sequence:
#
# PCOD9274451 Si02
#       5
#     8   8   8   8   8
#     4   9  23  40  58  93 124 162 202 257 307 365
#     4  11  21  39  65  89 125 164 204 254 317 368
#     4  10  20  38  63  90 128 156 197 258 319 369
#     4   9  23  39  61  95 122 159 206 253 311 369
#     4  11  24  43  64  88 127 172 211 255 306 365
#
# _framework density 24.417356999999999
#
# number of rings (size 3 to 8) (size 9 to 14) (size 15 to 20)
#    1.200    0.800    2.000    0.600    2.800    7.200 
#    0.000    2.000    0.000    0.000    0.000    0.000 
#    0.000    0.000    0.000    0.000    0.000    0.000 
#
# Total GULP energy -111557.891756 kJ/mol
# GULP energy per Si atom -5577.894588 kJ/mol
# Density = 2.436178 g / cm^3
# Si number density = 24.417357 Si / 1000 Ang^3
#
#
#
# Elastic Constant Matrix: (Units=GPa)
#
#
# Indices 1 2 3 4 5 6 
#
# 1 81.4219 45.5098 11.7028 0.0000 -3.0534 0.0000
# 2 45.5098 190.1888 14.9438 0.0000 7.6083 0.0000
# 3 11.7028 14.9438 46.7436 0.0000 3.9938 0.0000
# 4 0.0000 0.0000 0.0000 34.2992 0.0000 6.8625
# 5 -3.0534 7.6083 3.9938 0.0000 36.7467 0.0000
# 6 0.0000 0.0000 0.0000 6.8625 0.0000 31.7791
#
#
#
# Elastic Compliance Matrix: (Units=1/GPa)
#
#
# Indices 1 2 3 4 5 6 
#
# 1 0.014651 -0.003376 -0.002778 0.000000 0.002218 0.000000
# 2 -0.003376 0.006204 -0.001014 0.000000 -0.001455 0.000000
# 3 -0.002778 -0.001014 0.022625 0.000000 -0.002480 0.000000
# 4 0.000000 0.000000 0.000000 0.030472 0.000000 -0.006580
# 5 0.002218 -0.001455 -0.002480 0.000000 0.027968 0.000000
# 6 0.000000 0.000000 0.000000 -0.006580 0.000000 0.032888
#
#
# Mechanical properties :
#
#
# Convention : Reuss Voigt Hill
#
# Bulk Modulus (GPa) = 34.31323 51.40746 42.86035
# Shear Modulus (GPa) = 31.47438 36.97819 34.22629
#
# Velocity S-wave (km/s) = 3.59418 3.89578 3.74802
# Velocity P-wave (km/s) = 5.59531 6.42927 6.02673
#
# Compressibility (1/GPa) = 0.02914328
#
# Stress axis : x y z
#
# Youngs Moduli (GPa) = 68.25289 161.19416 44.19922
#
# Poissons Ratio (x) = 0.54425 0.12280
# Poissons Ratio (y) = 0.23045 0.04480
# Poissons Ratio (z) = 0.18963 0.16340
#
# Static dielectric constant tensor:
#      x y z
#    x 1.909870 0.000000 0.036240 
#    y 0.000000 1.987540 0.000000 
#    z 0.036240 0.000000 1.989100 
# 
# From -- ./inp_files/287418.got.cif
#   From: 2010.05.17/outbox.cif.g08.bks.cpg/sg15_144_cif.got.tgz:287418.got - 2010.06.03 18:47:42.
