data_PCOD9274832
_publ_section_title
;
Structure prediction by ZEFSAII (Michael W. Deem and Ramdas Pophale) SiO2 
 PCOD9274832
Probable space group: C 2/C
;
_chemical_formula_sum "Si O2"
_cell_formula_units_Z 56
_cell_length_a 5.278254
_cell_length_b 22.632365
_cell_length_c 20.198294
_cell_angle_alpha 90.000000
_cell_angle_beta 72.875038
_cell_angle_gamma 90.000000
_cell_volume 2305.900228
_symmetry_space_group_name_H-M "C 2/C"
_symmetry_group_IT_number 15
_symmetry_cell_setting 'monoclinic'
loop_
_space_group_symop_operation_xyz
x,y,z
-x,y,1/2-z
-x,-y,-z
x,-y,1/2+z
1/2+x,1/2+y,z
1/2-x,1/2+y,1/2-z
1/2-x,1/2-y,-z
1/2+x,1/2-y,1/2+z
loop_
_atom_site_type_symbol
_atom_site_label
_atom_site_fract_x
_atom_site_fract_y
_atom_site_fract_z
Si Si1 0.791100 0.219308 0.703960
Si Si2 0.432921 0.620602 0.074375
Si Si3 0.898577 0.347035 0.683162
Si Si4 0.283905 0.980104 0.708462
Si Si5 0.419790 0.102119 0.992405
Si Si6 0.342486 0.308161 0.450773
Si Si7 0.671529 0.008075 0.068529
O O1 0.500000 0.195301 0.750000
O O2 0.000000 0.214970 0.750000
O O3 0.736757 0.287382 0.685705
O O4 0.952537 0.196944 0.626001
O O5 0.180953 0.652513 0.123828
O O6 0.367139 0.551149 0.093807
O O7 0.742759 0.627935 0.066689
O O8 0.455575 0.650585 0.000156
O O9 0.000000 0.342013 0.750000
O O10 0.757667 0.410394 0.694726
O O11 0.500000 0.987284 0.750000
O O12 0.416048 0.005517 0.632460
O O13 0.000000 0.004927 0.750000
O O14 0.583318 0.154448 0.947300
O O15 0.246011 0.055667 0.963046
O O16 0.607073 0.053725 0.014255
O O17 0.250000 0.250000 0.500000
#
# Coordination Sequence:
#
# PCOD9274832 Si02
#       7
#     8   8   8   8   8   8   8
#     4  11  25  44  67  93 134 179 224 274 335 404
#     4  10  20  38  65  97 126 172 219 284 337 406
#     4   9  19  35  58  97 129 167 212 272 346 400
#     4  10  21  36  60  92 129 167 212 272 338 406
#     4  10  22  39  67  92 130 171 222 280 339 399
#     4  11  24  42  63  99 133 172 230 279 333 399
#     4   9  21  39  61  96 125 168 223 276 341 406
#
# _framework density 24.285527999999999
#
# number of rings (size 3 to 8) (size 9 to 14) (size 15 to 20)
#    0.000    2.000    1.429    0.857    8.000    2.857 
#    0.000    0.714    0.000    0.000    0.000    0.000 
#    0.000    0.000    0.000    0.000    0.000    0.000 
#
# Total GULP energy -155874.728835 kJ/mol
# GULP energy per Si atom -5566.954601 kJ/mol
# Density = 2.423025 g / cm^3
# Si number density = 24.285528 Si / 1000 Ang^3
#
#
#
# Elastic Constant Matrix: (Units=GPa)
#
#
# Indices 1 2 3 4 5 6 
#
# 1 79.6673 19.4063 56.9054 0.0000 -33.4077 0.0000
# 2 19.4063 72.9039 36.5711 0.0000 -12.2203 0.0000
# 3 56.9054 36.5711 185.0452 0.0000 -44.7732 0.0000
# 4 0.0000 0.0000 0.0000 29.1827 0.0000 -6.5223
# 5 -33.4077 -12.2203 -44.7732 0.0000 51.2274 0.0000
# 6 0.0000 0.0000 0.0000 -6.5223 0.0000 9.5215
#
#
#
# Elastic Compliance Matrix: (Units=1/GPa)
#
#
# Indices 1 2 3 4 5 6 
#
# 1 0.019242 -0.001919 -0.003313 0.000000 0.009195 0.000000
# 2 -0.001919 0.015483 -0.002383 0.000000 0.000359 0.000000
# 3 -0.003313 -0.002383 0.007905 0.000000 0.004180 0.000000
# 4 0.000000 0.000000 0.000000 0.040462 0.000000 0.027716
# 5 0.009195 0.000359 0.004180 0.000000 0.029256 0.000000
# 6 0.000000 0.000000 0.000000 0.027716 0.000000 0.124011
#
#
# Mechanical properties :
#
#
# Convention : Reuss Voigt Hill
#
# Bulk Modulus (GPa) = 36.49561 62.59800 49.54681
# Shear Modulus (GPa) = 19.17743 32.96856 26.07300
#
# Velocity S-wave (km/s) = 2.81315 3.68848 3.28014
# Velocity P-wave (km/s) = 5.06084 6.63111 5.89846
#
# Compressibility (1/GPa) = 0.02740056
#
# Stress axis : x y z
#
# Youngs Moduli (GPa) = 51.96933 64.58673 126.49606
#
# Poissons Ratio (x) = 0.12392 0.41913
# Poissons Ratio (y) = 0.09971 0.30143
# Poissons Ratio (z) = 0.17219 0.15391
#
# Static dielectric constant tensor:
#      x y z
#    x 1.876240 0.000000 -0.388710 
#    y 0.000000 1.941170 0.000000 
#    z -0.388710 0.000000 1.651090 
# 
# From -- ./inp_files/261643.got.cif
#   From: 2010.05.17/outbox.cif.g08.bks.cpg/sg15_131_cif.got.tgz:261643.got - 2010.06.03 18:47:42.
