data_PCOD9274954
_publ_section_title
;
Structure prediction by ZEFSAII (Michael W. Deem and Ramdas Pophale) SiO2 
 PCOD9274954
Probable space group: C 2/C
;
_chemical_formula_sum "Si O2"
_cell_formula_units_Z 56
_cell_length_a 11.303246
_cell_length_b 10.101979
_cell_length_c 18.203453
_cell_angle_alpha 90.000000
_cell_angle_beta 89.466635
_cell_angle_gamma 90.000000
_cell_volume 2078.474019
_symmetry_space_group_name_H-M "C 2/C"
_symmetry_group_IT_number 15
_symmetry_cell_setting 'monoclinic'
loop_
_space_group_symop_operation_xyz
x,y,z
-x,y,1/2-z
-x,-y,-z
x,-y,1/2+z
1/2+x,1/2+y,z
1/2-x,1/2+y,1/2-z
1/2-x,1/2-y,-z
1/2+x,1/2-y,1/2+z
loop_
_atom_site_type_symbol
_atom_site_label
_atom_site_fract_x
_atom_site_fract_y
_atom_site_fract_z
Si Si1 0.935125 0.838215 0.821116
Si Si2 0.376911 0.979584 0.596432
Si Si3 0.000711 0.912458 0.414926
Si Si4 0.607807 0.859876 0.642934
Si Si5 0.223367 0.515698 0.762108
Si Si6 0.216369 0.101439 0.476979
Si Si7 0.765767 0.803693 0.127086
O O1 0.873803 0.732370 0.876757
O O2 0.000000 0.776829 0.750000
O O3 0.996494 0.951323 0.869421
O O4 0.834288 0.925574 0.781792
O O5 0.332722 0.073714 0.662715
O O6 0.309683 0.015059 0.523330
O O7 0.514804 0.951313 0.598762
O O8 0.323743 0.839104 0.621037
O O9 0.942095 0.789913 0.366958
O O10 0.913658 0.914042 0.485654
O O11 0.141583 0.882400 0.425536
O O12 0.736047 0.889729 0.606567
O O13 0.626332 0.922444 0.722816
O O14 0.267903 0.627889 0.706405
O O15 0.250000 0.250000 0.500000
#
# Coordination Sequence:
#
# PCOD9274954 Si02
#       7
#     8   8   8   8   8   8   8
#     4  11  22  37  64  93 130 177 229 280 347 413
#     4  10  21  39  63  93 133 173 228 284 343 412
#     4  10  20  40  65  90 128 178 226 278 337 415
#     4  10  23  37  64  98 132 171 228 289 344 409
#     4  11  22  37  60  97 130 170 221 283 356 407
#     4  10  20  38  66  96 126 180 232 280 339 416
#     4  10  22  37  62  94 128 172 223 275 341 412
#
# _framework density 26.942841999999999
#
# number of rings (size 3 to 8) (size 9 to 14) (size 15 to 20)
#    0.000    1.714    4.286    0.857    4.000    1.143 
#    0.000    1.429    0.000    0.000    0.000    0.000 
#    0.000    0.000    0.000    0.000    0.000    0.000 
#
# Total GULP energy -156354.167744 kJ/mol
# GULP energy per Si atom -5584.077419 kJ/mol
# Density = 2.688152 g / cm^3
# Si number density = 26.942842 Si / 1000 Ang^3
#
#
#
# Elastic Constant Matrix: (Units=GPa)
#
#
# Indices 1 2 3 4 5 6 
#
# 1 115.4429 24.2293 30.2559 0.0000 -17.8736 0.0000
# 2 24.2293 71.0996 15.9587 0.0000 -6.9035 0.0000
# 3 30.2559 15.9587 107.9271 0.0000 -21.5652 0.0000
# 4 0.0000 0.0000 0.0000 22.6210 0.0000 -12.8519
# 5 -17.8736 -6.9035 -21.5652 0.0000 63.7519 0.0000
# 6 0.0000 0.0000 0.0000 -12.8519 0.0000 41.1900
#
#
#
# Elastic Compliance Matrix: (Units=1/GPa)
#
#
# Indices 1 2 3 4 5 6 
#
# 1 0.010068 -0.002795 -0.002044 0.000000 0.001829 0.000000
# 2 -0.002795 0.015373 -0.001409 0.000000 0.000405 0.000000
# 3 -0.002044 -0.001409 0.010620 0.000000 0.002867 0.000000
# 4 0.000000 0.000000 0.000000 0.053732 0.000000 0.016765
# 5 0.001829 0.000405 0.002867 0.000000 0.017212 0.000000
# 6 0.000000 0.000000 0.000000 0.016765 0.000000 0.029509
#
#
# Mechanical properties :
#
#
# Convention : Reuss Voigt Hill
#
# Bulk Modulus (GPa) = 42.43480 48.37307 45.40393
# Shear Modulus (GPa) = 31.87527 40.44761 36.16144
#
# Velocity S-wave (km/s) = 3.44331 3.87878 3.66752
# Velocity P-wave (km/s) = 5.62073 6.16870 5.90108
#
# Compressibility (1/GPa) = 0.02356557
#
# Stress axis : x y z
#
# Youngs Moduli (GPa) = 99.32894 65.05083 94.16591
#
# Poissons Ratio (x) = 0.18179 0.19245
# Poissons Ratio (y) = 0.27758 0.13266
# Poissons Ratio (z) = 0.20300 0.09165
#
# Static dielectric constant tensor:
#      x y z
#    x 2.219720 0.000000 -0.013150 
#    y 0.000000 2.207950 0.000000 
#    z -0.013150 0.000000 2.120280 
# 
# From -- ./inp_files/236947.got.cif
#   From: 2010.05.17/outbox.cif.g08.bks.cpg/sg15_119_cif.got.tgz:236947.got - 2010.06.03 18:47:42.
