data_PCOD9274784
_publ_section_title
;
Structure prediction by ZEFSAII (Michael W. Deem and Ramdas Pophale) SiO2 
 PCOD9274784
Probable space group: C 2/C
;
_chemical_formula_sum "Si O2"
_cell_formula_units_Z 52
_cell_length_a 13.472725
_cell_length_b 7.877686
_cell_length_c 22.872858
_cell_angle_alpha 90.000000
_cell_angle_beta 57.182392
_cell_angle_gamma 90.000000
_cell_volume 2040.143115
_symmetry_space_group_name_H-M "C 2/C"
_symmetry_group_IT_number 15
_symmetry_cell_setting 'monoclinic'
loop_
_space_group_symop_operation_xyz
x,y,z
-x,y,1/2-z
-x,-y,-z
x,-y,1/2+z
1/2+x,1/2+y,z
1/2-x,1/2+y,1/2-z
1/2-x,1/2-y,-z
1/2+x,1/2-y,1/2+z
loop_
_atom_site_type_symbol
_atom_site_label
_atom_site_fract_x
_atom_site_fract_y
_atom_site_fract_z
Si Si1 0.000000 0.411094 0.750000
Si Si2 0.369474 0.602707 0.140524
Si Si3 0.204170 0.184859 0.642182
Si Si4 0.924967 0.299479 0.461773
Si Si5 0.329918 0.987786 0.705869
Si Si6 0.277969 0.464534 0.483788
Si Si7 0.996415 0.252372 0.571347
O O1 0.079562 0.277059 0.687870
O O2 0.084824 0.520749 0.764759
O O3 0.291665 0.653737 0.108605
O O4 0.282904 0.590191 0.222935
O O5 0.434781 0.429238 0.105076
O O6 0.468297 0.748290 0.114852
O O7 0.213587 0.045618 0.589627
O O8 0.255376 0.102549 0.684513
O O9 0.856800 0.467884 0.463358
O O10 0.972909 0.310682 0.512380
O O11 0.844794 0.131121 0.486482
O O12 0.416267 0.872815 0.638251
O O13 0.363413 0.300125 0.468322
#
# Coordination Sequence:
#
# PCOD9274784 Si02
#       7
#     4   8   8   8   8   8   8
#     4  10  22  42  66  94 138 170 214 280 332 394
#     4  10  22  38  63  94 127 166 210 277 321 380
#     4  11  22  39  66  95 125 175 214 271 329 389
#     4  10  22  41  63  92 131 168 220 267 319 396
#     4  11  22  40  68  94 127 173 221 264 334 395
#     4  10  20  38  65  91 120 171 217 257 322 391
#     4  11  21  44  66  89 127 177 215 264 329 392
#
# _framework density 25.488409000000001
#
# number of rings (size 3 to 8) (size 9 to 14) (size 15 to 20)
#    0.000    1.538    3.077    3.692    2.154    0.615 
#    0.000   15.385    0.000    0.923    0.000    0.000 
#    0.000    0.000    0.000    0.000    0.000    0.000 
#
# Total GULP energy -145005.044102 kJ/mol
# GULP energy per Si atom -5577.117081 kJ/mol
# Density = 2.543040 g / cm^3
# Si number density = 25.488409 Si / 1000 Ang^3
#
#
#
# Elastic Constant Matrix: (Units=GPa)
#
#
# Indices 1 2 3 4 5 6 
#
# 1 119.5344 25.0543 39.4794 0.0000 -8.3561 0.0000
# 2 25.0543 110.5897 6.5626 0.0000 0.7567 0.0000
# 3 39.4794 6.5626 134.0783 0.0000 -16.8654 0.0000
# 4 0.0000 0.0000 0.0000 23.0928 0.0000 10.0985
# 5 -8.3561 0.7567 -16.8654 0.0000 50.1271 0.0000
# 6 0.0000 0.0000 0.0000 10.0985 0.0000 24.7393
#
#
#
# Elastic Compliance Matrix: (Units=1/GPa)
#
#
# Indices 1 2 3 4 5 6 
#
# 1 0.009730 -0.002051 -0.002670 0.000000 0.000755 0.000000
# 2 -0.002051 0.009505 0.000081 0.000000 -0.000458 0.000000
# 3 -0.002670 0.000081 0.008546 0.000000 0.002429 0.000000
# 4 0.000000 0.000000 0.000000 0.052713 0.000000 -0.021517
# 5 0.000755 -0.000458 0.002429 0.000000 0.020899 0.000000
# 6 0.000000 0.000000 0.000000 -0.021517 0.000000 0.049205
#
#
# Mechanical properties :
#
#
# Convention : Reuss Voigt Hill
#
# Bulk Modulus (GPa) = 54.04798 56.26612 55.15705
# Shear Modulus (GPa) = 30.11213 39.13224 34.62218
#
# Velocity S-wave (km/s) = 3.44089 3.92254 3.68958
# Velocity P-wave (km/s) = 6.08582 6.52979 6.31171
#
# Compressibility (1/GPa) = 0.01850208
#
# Stress axis : x y z
#
# Youngs Moduli (GPa) = 102.77266 105.20286 117.01373
#
# Poissons Ratio (x) = 0.21579 0.31240
# Poissons Ratio (y) = 0.21080 -0.00949
# Poissons Ratio (z) = 0.27438 -0.00853
#
# Static dielectric constant tensor:
#      x y z
#    x 2.068470 0.000000 -0.003700 
#    y 0.000000 2.139260 0.000000 
#    z -0.003700 0.000000 2.073000 
# 
# From -- ./inp_files/295040.got.cif
#   From: 2010.05.17/outbox.cif.g08.bks.cpg/sg15_148_cif.got.tgz:295040.got - 2010.06.03 18:47:42.
