data_PCOD9274007
_publ_section_title
;
Structure prediction by ZEFSAII (Michael W. Deem and Ramdas Pophale) SiO2 
 PCOD9274007
Probable space group: C 2/C
;
_chemical_formula_sum "Si O2"
_cell_formula_units_Z 60
_cell_length_a 12.363730
_cell_length_b 17.976145
_cell_length_c 16.359957
_cell_angle_alpha 90.000000
_cell_angle_beta 65.093952
_cell_angle_gamma 90.000000
_cell_volume 3297.883516
_symmetry_space_group_name_H-M "C 2/C"
_symmetry_group_IT_number 15
_symmetry_cell_setting 'monoclinic'
loop_
_space_group_symop_operation_xyz
x,y,z
-x,y,1/2-z
-x,-y,-z
x,-y,1/2+z
1/2+x,1/2+y,z
1/2-x,1/2+y,1/2-z
1/2-x,1/2-y,-z
1/2+x,1/2-y,1/2+z
loop_
_atom_site_type_symbol
_atom_site_label
_atom_site_fract_x
_atom_site_fract_y
_atom_site_fract_z
Si Si1 0.860956 0.551067 0.393653
Si Si2 0.614567 0.478964 0.517192
Si Si3 0.455230 0.891815 0.351709
Si Si4 0.603961 0.399742 0.149978
Si Si5 0.368541 0.143967 0.556980
Si Si6 0.000000 0.666316 0.250000
Si Si7 0.495886 0.734775 0.913412
Si Si8 0.797391 0.181140 0.537855
O O1 0.728307 0.517081 0.435734
O O2 0.947700 0.481068 0.356763
O O3 0.880212 0.586556 0.477352
O O4 0.893191 0.612178 0.314799
O O5 0.500000 0.500000 0.500000
O O6 0.611333 0.519634 0.605953
O O7 0.630115 0.389960 0.521613
O O8 0.500000 0.866743 0.250000
O O9 0.537257 0.867568 0.400893
O O10 0.323653 0.859021 0.398108
O O11 0.500000 0.398177 0.250000
O O12 0.734806 0.369489 0.133713
O O13 0.563926 0.342187 0.093076
O O14 0.404274 0.221193 0.501581
O O15 0.978606 0.717730 0.177268
O O16 0.618153 0.716415 0.920345
O O17 0.750000 0.250000 0.500000
#
# Coordination Sequence:
#
# PCOD9274007 Si02
#       8
#     8   8   8   8   8   4   8   8
#     4   9  20  38  60  90 123 157 207 253 317 370
#     4  10  21  40  65  86 121 171 209 249 319 391
#     4  11  22  36  61  90 122 163 209 259 312 377
#     4  11  23  40  62  95 124 162 214 269 312 368
#     4  10  22  38  61  89 124 167 208 256 317 381
#     4  10  20  38  60  98 120 152 204 272 306 356
#     4  11  21  39  66  89 127 164 212 256 323 375
#     4  11  23  43  63  89 127 173 212 255 325 396
#
# _framework density 18.193487000000001
#
# number of rings (size 3 to 8) (size 9 to 14) (size 15 to 20)
#    0.000    1.600    4.000    0.800    1.867    0.000 
#    0.000    2.000    0.000    0.000    0.000    0.000 
#    0.000    0.000    0.000    0.000    0.000    0.000 
#
# Total GULP energy -167163.389875 kJ/mol
# GULP energy per Si atom -5572.112996 kJ/mol
# Density = 1.815208 g / cm^3
# Si number density = 18.193487 Si / 1000 Ang^3
#
#
#
# Elastic Constant Matrix: (Units=GPa)
#
#
# Indices 1 2 3 4 5 6 
#
# 1 91.7584 31.9136 33.4084 0.0000 -2.2828 0.0000
# 2 31.9136 121.6541 40.9416 0.0000 4.8473 0.0000
# 3 33.4084 40.9416 79.1191 0.0000 -12.6693 0.0000
# 4 0.0000 0.0000 0.0000 15.1805 0.0000 -4.7276
# 5 -2.2828 4.8473 -12.6693 0.0000 19.5828 0.0000
# 6 0.0000 0.0000 0.0000 -4.7276 0.0000 21.2810
#
#
#
# Elastic Compliance Matrix: (Units=1/GPa)
#
#
# Indices 1 2 3 4 5 6 
#
# 1 0.013262 -0.001800 -0.004852 0.000000 -0.001147 0.000000
# 2 -0.001800 0.010990 -0.006020 0.000000 -0.006825 0.000000
# 3 -0.004852 -0.006020 0.020026 0.000000 0.013880 0.000000
# 4 0.000000 0.000000 0.000000 0.070770 0.000000 0.015722
# 5 -0.001147 -0.006825 0.013880 0.000000 0.061601 0.000000
# 6 0.000000 0.000000 0.000000 0.015722 0.000000 0.050483
#
#
# Mechanical properties :
#
#
# Convention : Reuss Voigt Hill
#
# Bulk Modulus (GPa) = 52.81603 56.11766 54.46684
# Shear Modulus (GPa) = 19.32086 23.62674 21.47380
#
# Velocity S-wave (km/s) = 3.26232 3.60757 3.43928
# Velocity P-wave (km/s) = 6.57902 6.94728 6.76565
#
# Compressibility (1/GPa) = 0.01893365
#
# Stress axis : x y z
#
# Youngs Moduli (GPa) = 75.40072 90.99081 49.93606
#
# Poissons Ratio (x) = 0.16383 0.24230
# Poissons Ratio (y) = 0.13576 0.30060
# Poissons Ratio (z) = 0.36586 0.54773
#
# Static dielectric constant tensor:
#      x y z
#    x 1.622540 0.000000 -0.023900 
#    y 0.000000 1.663440 0.000000 
#    z -0.023900 0.000000 1.617090 
# 
# From -- ./inp_files/146041.got.cif
#   From: 2010.05.17/outbox.cif.g08.bks.cpg/sg15_74_cif.got.tgz:146041.got - 2010.06.03 18:47:42.
