data_PCOD9274980
_publ_section_title
;
Structure prediction by ZEFSAII (Michael W. Deem and Ramdas Pophale) SiO2 
 PCOD9274980
Probable space group: C 2/C
;
_chemical_formula_sum "Si O2"
_cell_formula_units_Z 56
_cell_length_a 9.056909
_cell_length_b 21.034822
_cell_length_c 12.718612
_cell_angle_alpha 90.000000
_cell_angle_beta 100.632347
_cell_angle_gamma 90.000000
_cell_volume 2381.428578
_symmetry_space_group_name_H-M "C 2/C"
_symmetry_group_IT_number 15
_symmetry_cell_setting 'monoclinic'
loop_
_space_group_symop_operation_xyz
x,y,z
-x,y,1/2-z
-x,-y,-z
x,-y,1/2+z
1/2+x,1/2+y,z
1/2-x,1/2+y,1/2-z
1/2-x,1/2-y,-z
1/2+x,1/2-y,1/2+z
loop_
_atom_site_type_symbol
_atom_site_label
_atom_site_fract_x
_atom_site_fract_y
_atom_site_fract_z
Si Si1 0.500000 0.517867 0.750000
Si Si2 0.000000 0.469280 0.750000
Si Si3 0.583920 0.288154 0.863733
Si Si4 0.888611 0.705657 0.986653
Si Si5 0.755625 0.081649 0.593263
Si Si6 0.114655 0.638619 0.124248
Si Si7 0.002163 0.076929 0.057925
Si Si8 0.170384 0.462775 0.461322
O O1 0.355864 0.560485 0.704253
O O2 0.471924 0.472330 0.844979
O O3 0.886544 0.419313 0.793101
O O4 0.906984 0.512991 0.655755
O O5 0.500000 0.263797 0.750000
O O6 0.753750 0.309086 0.856296
O O7 0.520344 0.356217 0.889429
O O8 0.528145 0.241726 0.949261
O O9 0.955203 0.673731 0.101097
O O10 0.750000 0.750000 0.000000
O O11 0.825662 0.648452 0.906482
O O12 0.869267 0.086912 0.509821
O O13 0.656231 0.021971 0.541648
O O14 0.117592 0.601242 0.012698
O O15 0.150863 0.946608 0.018829
#
# Coordination Sequence:
#
# PCOD9274980 Si02
#       8
#     4   4   8   8   8   8   8   8
#     4  10  20  38  67 107 150 184 230 306 372 434
#     4  12  24  42  77 107 148 194 240 300 384 458
#     4  11  25  47  76 104 140 196 253 298 363 442
#     4  12  26  50  73  99 150 193 248 308 353 435
#     4  11  23  43  69 109 146 184 243 295 373 430
#     4  11  27  48  72 109 148 191 249 307 375 435
#     4  10  21  41  71 108 142 188 238 297 362 441
#     4  10  23  42  70 109 147 181 239 305 375 439
#
# _framework density 23.515298000000001
#
# number of rings (size 3 to 8) (size 9 to 14) (size 15 to 20)
#    0.000    1.143    3.571    2.571    4.000    3.429 
#    3.857    0.000    0.000    0.000    0.000    0.000 
#    0.000    0.000    0.000    0.000    0.000    0.000 
#
# Total GULP energy -156475.849437 kJ/mol
# GULP energy per Si atom -5588.423194 kJ/mol
# Density = 2.346178 g / cm^3
# Si number density = 23.515298 Si / 1000 Ang^3
#
#
#
# Elastic Constant Matrix: (Units=GPa)
#
#
# Indices 1 2 3 4 5 6 
#
# 1 106.6830 28.5890 36.4485 0.0000 6.8250 0.0000
# 2 28.5890 94.4980 12.9339 0.0000 9.1839 0.0000
# 3 36.4485 12.9339 96.7536 0.0000 19.0056 0.0000
# 4 0.0000 0.0000 0.0000 36.4004 0.0000 -1.5388
# 5 6.8250 9.1839 19.0056 0.0000 41.0156 0.0000
# 6 0.0000 0.0000 0.0000 -1.5388 0.0000 53.6123
#
#
#
# Elastic Compliance Matrix: (Units=1/GPa)
#
#
# Indices 1 2 3 4 5 6 
#
# 1 0.011524 -0.002992 -0.004066 0.000000 0.000637 0.000000
# 2 -0.002992 0.011695 -0.000022 0.000000 -0.002111 0.000000
# 3 -0.004066 -0.000022 0.012912 0.000000 -0.005301 0.000000
# 4 0.000000 0.000000 0.000000 0.027506 0.000000 0.000789
# 5 0.000637 -0.002111 -0.005301 0.000000 0.027204 0.000000
# 6 0.000000 0.000000 0.000000 0.000789 0.000000 0.018675
#
#
# Mechanical properties :
#
#
# Convention : Reuss Voigt Hill
#
# Bulk Modulus (GPa) = 45.51374 50.43085 47.97230
# Shear Modulus (GPa) = 38.16819 40.86988 39.51903
#
# Velocity S-wave (km/s) = 4.03317 4.17347 4.10392
# Velocity P-wave (km/s) = 6.40980 6.68703 6.54988
#
# Compressibility (1/GPa) = 0.02197139
#
# Stress axis : x y z
#
# Youngs Moduli (GPa) = 86.77683 85.50336 77.44940
#
# Poissons Ratio (x) = 0.25580 0.31493
# Poissons Ratio (y) = 0.25961 0.00169
# Poissons Ratio (z) = 0.35286 0.00186
#
# Static dielectric constant tensor:
#      x y z
#    x 2.023750 0.000000 -0.032800 
#    y 0.000000 1.864020 0.000000 
#    z -0.032800 0.000000 1.903870 
# 
# From -- ./inp_files/89067.got.cif
#   From: 2010.05.17/outbox.cif.g08.bks.cpg/sg15_45_cif.got.tgz:89067.got - 2010.06.03 18:47:42.
