data_PCOD9274226
_publ_section_title
;
Structure prediction by ZEFSAII (Michael W. Deem and Ramdas Pophale) SiO2 
 PCOD9274226
Probable space group: C 2/C
;
_chemical_formula_sum "Si O2"
_cell_formula_units_Z 48
_cell_length_a 10.743808
_cell_length_b 13.614755
_cell_length_c 24.212217
_cell_angle_alpha 90.000000
_cell_angle_beta 136.482734
_cell_angle_gamma 90.000000
_cell_volume 2438.668121
_symmetry_space_group_name_H-M "C 2/C"
_symmetry_group_IT_number 15
_symmetry_cell_setting 'monoclinic'
loop_
_space_group_symop_operation_xyz
x,y,z
-x,y,1/2-z
-x,-y,-z
x,-y,1/2+z
1/2+x,1/2+y,z
1/2-x,1/2+y,1/2-z
1/2-x,1/2-y,-z
1/2+x,1/2-y,1/2+z
loop_
_atom_site_type_symbol
_atom_site_label
_atom_site_fract_x
_atom_site_fract_y
_atom_site_fract_z
Si Si1 0.850927 0.720033 0.276114
Si Si2 0.476328 0.365988 0.618394
Si Si3 0.595891 0.450851 0.221989
Si Si4 0.490957 0.979976 0.812006
Si Si5 0.654171 0.579945 0.540243
Si Si6 0.193231 0.743386 0.838931
O O1 0.672660 0.687628 0.184017
O O2 0.906455 0.832850 0.285991
O O3 0.000290 0.638110 0.314033
O O4 0.792087 0.704726 0.320577
O O5 0.500232 0.478982 0.646003
O O6 0.391554 0.364607 0.530884
O O7 0.356064 0.311059 0.625218
O O8 0.500000 0.473685 0.250000
O O9 0.805049 0.482874 0.280154
O O10 0.500000 0.007685 0.750000
O O11 0.345669 0.025233 0.601418
O O12 0.500000 0.500000 0.500000
O O13 0.682813 0.655522 0.599563
O O14 0.000000 0.712994 0.750000
#
# Coordination Sequence:
#
# PCOD9274226 Si02
#       6
#     8   8   8   8   8   8
#     4  10  20  38  62  88 115 155 204 255 298 351
#     4  10  21  38  60  88 122 161 201 246 300 365
#     4  11  22  40  65  92 120 156 203 253 303 360
#     4  11  22  40  63  89 120 162 205 244 298 366
#     4  12  23  37  59  91 125 161 202 251 299 355
#     4  10  20  39  63  86 117 161 204 241 297 369
#
# _framework density 19.682876
#
# number of rings (size 3 to 8) (size 9 to 14) (size 15 to 20)
#    0.000    1.333    0.000   10.000    0.000    0.000 
#    0.000    8.333    0.000    0.000    0.000    0.000 
#    0.000    0.000    0.000    0.000    0.000    0.000 
#
# Total GULP energy -133966.002589 kJ/mol
# GULP energy per Si atom -5581.916775 kJ/mol
# Density = 1.963808 g / cm^3
# Si number density = 19.682876 Si / 1000 Ang^3
#
#
#
# Elastic Constant Matrix: (Units=GPa)
#
#
# Indices 1 2 3 4 5 6 
#
# 1 86.9884 3.2174 31.3277 0.0000 -8.8434 0.0000
# 2 3.2174 105.4720 25.3719 0.0000 -1.8418 0.0000
# 3 31.3277 25.3719 128.6525 0.0000 -10.1711 0.0000
# 4 0.0000 0.0000 0.0000 30.8557 0.0000 8.4761
# 5 -8.8434 -1.8418 -10.1711 0.0000 22.0816 0.0000
# 6 0.0000 0.0000 0.0000 8.4761 0.0000 12.7100
#
#
#
# Elastic Compliance Matrix: (Units=1/GPa)
#
#
# Indices 1 2 3 4 5 6 
#
# 1 0.012925 0.000375 -0.002916 0.000000 0.003865 0.000000
# 2 0.000375 0.009964 -0.002054 0.000000 0.000035 0.000000
# 3 -0.002916 -0.002054 0.009114 0.000000 0.002859 0.000000
# 4 0.000000 0.000000 0.000000 0.039678 0.000000 -0.026460
# 5 0.003865 0.000035 0.002859 0.000000 0.048154 0.000000
# 6 0.000000 0.000000 0.000000 -0.026460 0.000000 0.096324
#
#
# Mechanical properties :
#
#
# Convention : Reuss Voigt Hill
#
# Bulk Modulus (GPa) = 43.83287 48.99409 46.41348
# Shear Modulus (GPa) = 21.46357 30.54251 26.00304
#
# Velocity S-wave (km/s) = 3.30581 3.94347 3.63864
# Velocity P-wave (km/s) = 6.07363 6.75873 6.42532
#
# Compressibility (1/GPa) = 0.02281393
#
# Stress axis : x y z
#
# Youngs Moduli (GPa) = 77.37040 100.35764 109.72289
#
# Poissons Ratio (x) = -0.03759 0.31991
# Poissons Ratio (y) = -0.02898 0.22532
# Poissons Ratio (z) = 0.22558 0.20609
#
# Static dielectric constant tensor:
#      x y z
#    x 1.731820 0.000000 -0.009760 
#    y 0.000000 1.738940 0.000000 
#    z -0.009760 0.000000 1.657400 
# 
# From -- ./inp_files/237744.got.cif
#   From: 2010.05.17/outbox.cif.g08.bks.cpg/sg15_119_cif.got.tgz:237744.got - 2010.06.03 18:47:42.
