data_PCOD9274390
_publ_section_title
;
Structure prediction by ZEFSAII (Michael W. Deem and Ramdas Pophale) SiO2 
 PCOD9274390
Probable space group: C 2/C
;
_chemical_formula_sum "Si O2"
_cell_formula_units_Z 48
_cell_length_a 27.780246
_cell_length_b 11.443220
_cell_length_c 15.570683
_cell_angle_alpha 90.000000
_cell_angle_beta 146.388385
_cell_angle_gamma 90.000000
_cell_volume 2740.040629
_symmetry_space_group_name_H-M "C 2/C"
_symmetry_group_IT_number 15
_symmetry_cell_setting 'monoclinic'
loop_
_space_group_symop_operation_xyz
x,y,z
-x,y,1/2-z
-x,-y,-z
x,-y,1/2+z
1/2+x,1/2+y,z
1/2-x,1/2+y,1/2-z
1/2-x,1/2-y,-z
1/2+x,1/2-y,1/2+z
loop_
_atom_site_type_symbol
_atom_site_label
_atom_site_fract_x
_atom_site_fract_y
_atom_site_fract_z
Si Si1 0.261584 0.145034 0.582924
Si Si2 0.000000 0.015682 0.250000
Si Si3 0.834269 0.094499 0.584490
Si Si4 0.071492 0.500014 0.679991
Si Si5 0.178538 0.724118 0.284740
Si Si6 0.500000 0.092702 0.750000
Si Si7 0.122203 0.788721 0.010206
O O1 0.250000 0.250000 0.500000
O O2 0.360934 0.105309 0.738064
O O3 0.212239 0.178798 0.596970
O O4 0.211731 0.030724 0.474525
O O5 0.055944 0.102736 0.394999
O O6 0.069226 0.935298 0.303505
O O7 0.827976 0.164592 0.663426
O O8 0.776590 0.171413 0.431878
O O9 0.122774 0.378853 0.745968
O O10 0.000000 0.500000 0.500000
O O11 0.032042 0.519304 0.715773
O O12 0.141719 0.755603 0.136970
O O13 0.422787 0.178138 0.603135
#
# Coordination Sequence:
#
# PCOD9274390 Si02
#       7
#     8   4   8   8   8   4   8
#     4  10  20  40  61  84 114 157 196 245 305 362
#     4   9  20  39  62  88 114 161 205 246 296 364
#     4   9  21  40  58  83 125 152 197 249 303 357
#     4  11  22  38  60  89 123 156 203 251 304 361
#     4  10  21  41  57  86 126 161 193 251 308 367
#     4  11  20  37  62  88 120 161 205 260 292 358
#     4  10  20  38  63  84 119 157 204 250 303 356
#
# _framework density 17.517989
#
# number of rings (size 3 to 8) (size 9 to 14) (size 15 to 20)
#    0.000    2.000    3.333    0.000    0.000    1.333 
#   21.000    0.000    0.000    0.000    0.000    0.000 
#    0.000    0.000    0.000    0.000    0.000    0.000 
#
# Total GULP energy -133844.267316 kJ/mol
# GULP energy per Si atom -5576.844472 kJ/mol
# Density = 1.747812 g / cm^3
# Si number density = 17.517989 Si / 1000 Ang^3
#
#
#
# Elastic Constant Matrix: (Units=GPa)
#
#
# Indices 1 2 3 4 5 6 
#
# 1 130.9959 63.7543 71.3448 0.0000 0.8427 0.0000
# 2 63.7543 95.2193 40.1874 0.0000 -10.4845 0.0000
# 3 71.3448 40.1874 110.5433 0.0000 -9.2286 0.0000
# 4 0.0000 0.0000 0.0000 11.7358 0.0000 -3.5657
# 5 0.8427 -10.4845 -9.2286 0.0000 34.2236 0.0000
# 6 0.0000 0.0000 0.0000 -3.5657 0.0000 29.0037
#
#
#
# Elastic Compliance Matrix: (Units=1/GPa)
#
#
# Indices 1 2 3 4 5 6 
#
# 1 0.015607 -0.007749 -0.007659 0.000000 -0.004823 0.000000
# 2 -0.007749 0.016491 -0.000569 0.000000 0.005089 0.000000
# 3 -0.007659 -0.000569 0.014524 0.000000 0.003931 0.000000
# 4 0.000000 0.000000 0.000000 0.088516 0.000000 0.010882
# 5 -0.004823 0.005089 0.003931 0.000000 0.031957 0.000000
# 6 0.000000 0.000000 0.000000 0.010882 0.000000 0.035816
#
#
# Mechanical properties :
#
#
# Convention : Reuss Voigt Hill
#
# Bulk Modulus (GPa) = 68.17008 76.37016 72.27012
# Shear Modulus (GPa) = 20.85470 25.75742 23.30606
#
# Velocity S-wave (km/s) = 3.45407 3.83866 3.65143
# Velocity P-wave (km/s) = 7.40988 7.95846 7.68906
#
# Compressibility (1/GPa) = 0.01466919
#
# Stress axis : x y z
#
# Youngs Moduli (GPa) = 64.07333 60.63983 68.85054
#
# Poissons Ratio (x) = 0.46987 0.52730
# Poissons Ratio (y) = 0.49648 0.03920
# Poissons Ratio (z) = 0.49071 0.03453
#
# Static dielectric constant tensor:
#      x y z
#    x 0.814240 0.000000 -0.416340 
#    y 0.000000 1.590840 0.000000 
#    z -0.416340 0.000000 1.339510 
# 
# From -- ./inp_files/111838.got.cif
#   From: 2010.05.17/outbox.cif.g08.bks.cpg/sg15_56_cif.got.tgz:111838.got - 2010.06.03 18:47:42.
