data_PCOD9274996
_publ_section_title
;
Structure prediction by ZEFSAII (Michael W. Deem and Ramdas Pophale) SiO2 
 PCOD9274996
Probable space group: C 2/C
;
_chemical_formula_sum "Si O2"
_cell_formula_units_Z 56
_cell_length_a 27.436826
_cell_length_b 17.150344
_cell_length_c 9.583135
_cell_angle_alpha 90.000000
_cell_angle_beta 147.590549
_cell_angle_gamma 90.000000
_cell_volume 2416.860590
_symmetry_space_group_name_H-M "C 2/C"
_symmetry_group_IT_number 15
_symmetry_cell_setting 'monoclinic'
loop_
_space_group_symop_operation_xyz
x,y,z
-x,y,1/2-z
-x,-y,-z
x,-y,1/2+z
1/2+x,1/2+y,z
1/2-x,1/2+y,1/2-z
1/2-x,1/2-y,-z
1/2+x,1/2-y,1/2+z
loop_
_atom_site_type_symbol
_atom_site_label
_atom_site_fract_x
_atom_site_fract_y
_atom_site_fract_z
Si Si1 0.856075 0.732708 0.729322
Si Si2 0.833709 0.433271 0.096468
Si Si3 0.244355 0.875099 0.619484
Si Si4 0.964504 0.838737 0.821914
Si Si5 0.683718 0.457026 0.955824
Si Si6 0.898674 0.236594 0.629290
Si Si7 0.331261 0.897790 0.541196
O O1 0.750000 0.750000 0.500000
O O2 0.875687 0.640726 0.775045
O O3 0.888658 0.771772 0.665061
O O4 0.908427 0.771717 0.986225
O O5 0.822976 0.405533 0.911982
O O6 0.733304 0.442071 0.926702
O O7 0.874363 0.519779 0.195193
O O8 0.200499 0.799452 0.579254
O O9 0.278521 0.864154 0.546888
O O10 0.177271 0.950100 0.455674
O O11 0.911310 0.915219 0.746343
O O12 0.000000 0.845369 0.750000
O O13 0.042697 0.809504 0.115235
O O14 0.757284 0.422635 0.245021
O O15 0.897094 0.329163 0.652611
#
# Coordination Sequence:
#
# PCOD9274996 Si02
#       7
#     8   8   8   8   8   8   8
#     4  12  22  43  70  91 126 176 235 273 321 399
#     4  10  20  38  67  94 119 171 226 274 316 383
#     4  10  21  34  65  96 126 171 224 268 323 385
#     4  12  27  41  61  98 141 176 214 270 341 392
#     4  10  20  42  60  92 131 176 220 265 323 394
#     4  12  23  39  62  97 134 171 213 276 335 400
#     4  10  21  37  64  97 129 163 226 275 325 383
#
# _framework density 23.170555
#
# number of rings (size 3 to 8) (size 9 to 14) (size 15 to 20)
#    0.000    1.143    4.286    1.714    2.000    0.571 
#    0.000    2.143    0.000    0.000    0.000    0.000 
#    0.000    0.000    0.000    0.000    0.000    0.000 
#
# Total GULP energy -156345.501727 kJ/mol
# GULP energy per Si atom -5583.767919 kJ/mol
# Density = 2.311782 g / cm^3
# Si number density = 23.170555 Si / 1000 Ang^3
#
#
#
# Elastic Constant Matrix: (Units=GPa)
#
#
# Indices 1 2 3 4 5 6 
#
# 1 95.2492 16.7563 6.9592 0.0000 -22.2102 0.0000
# 2 16.7563 96.1777 8.0914 0.0000 -4.9184 0.0000
# 3 6.9592 8.0914 71.7540 0.0000 -4.5781 0.0000
# 4 0.0000 0.0000 0.0000 22.2979 0.0000 -5.5648
# 5 -22.2102 -4.9184 -4.5781 0.0000 27.0076 0.0000
# 6 0.0000 0.0000 0.0000 -5.5648 0.0000 33.0880
#
#
#
# Elastic Compliance Matrix: (Units=1/GPa)
#
#
# Indices 1 2 3 4 5 6 
#
# 1 0.013295 -0.001742 -0.000420 0.000000 0.010545 0.000000
# 2 -0.001742 0.010806 -0.001027 0.000000 0.000362 0.000000
# 3 -0.000420 -0.001027 0.014213 0.000000 0.001877 0.000000
# 4 0.000000 0.000000 0.000000 0.046812 0.000000 0.007873
# 5 0.010545 0.000362 0.001877 0.000000 0.046082 0.000000
# 6 0.000000 0.000000 0.000000 0.007873 0.000000 0.031547
#
#
# Mechanical properties :
#
#
# Convention : Reuss Voigt Hill
#
# Bulk Modulus (GPa) = 31.31225 36.31051 33.81138
# Shear Modulus (GPa) = 27.81234 31.90363 29.85799
#
# Velocity S-wave (km/s) = 3.46834 3.71469 3.59363
# Velocity P-wave (km/s) = 5.43896 5.83983 5.64295
#
# Compressibility (1/GPa) = 0.03193639
#
# Stress axis : x y z
#
# Youngs Moduli (GPa) = 75.21801 92.54374 70.35930
#
# Poissons Ratio (x) = 0.16118 0.02957
# Poissons Ratio (y) = 0.13100 0.07223
# Poissons Ratio (z) = 0.03161 0.09500
#
# Static dielectric constant tensor:
#      x y z
#    x 1.881780 0.000000 0.058530 
#    y 0.000000 1.897570 0.000000 
#    z 0.058530 0.000000 1.953150 
# 
# From -- ./inp_files/67207.got.cif
#   From: 2010.05.17/outbox.cif.g08.bks.cpg/sg15_34_cif.got.tgz:67207.got - 2010.06.03 18:47:42.
