data_PCOD9274552
_publ_section_title
;
Structure prediction by ZEFSAII (Michael W. Deem and Ramdas Pophale) SiO2 
 PCOD9274552
Probable space group: C 2/C
;
_chemical_formula_sum "Si O2"
_cell_formula_units_Z 52
_cell_length_a 17.606666
_cell_length_b 8.786947
_cell_length_c 12.921802
_cell_angle_alpha 90.000000
_cell_angle_beta 103.436142
_cell_angle_gamma 90.000000
_cell_volume 1944.400176
_symmetry_space_group_name_H-M "C 2/C"
_symmetry_group_IT_number 15
_symmetry_cell_setting 'monoclinic'
loop_
_space_group_symop_operation_xyz
x,y,z
-x,y,1/2-z
-x,-y,-z
x,-y,1/2+z
1/2+x,1/2+y,z
1/2-x,1/2+y,1/2-z
1/2-x,1/2-y,-z
1/2+x,1/2-y,1/2+z
loop_
_atom_site_type_symbol
_atom_site_label
_atom_site_fract_x
_atom_site_fract_y
_atom_site_fract_z
Si Si1 0.500000 0.072357 0.750000
Si Si2 0.803672 0.843137 0.628915
Si Si3 0.622289 0.169157 0.098915
Si Si4 0.897195 0.612731 0.054410
Si Si5 0.513063 0.697192 0.069886
Si Si6 0.109288 0.955254 0.198944
Si Si7 0.741729 0.975498 0.398062
O O1 0.469305 0.189391 0.828309
O O2 0.549374 0.958675 0.839199
O O3 0.714961 0.851279 0.646292
O O4 0.869656 0.955199 0.690986
O O5 0.784507 0.897942 0.508092
O O6 0.818480 0.662565 0.650251
O O7 0.600702 0.273453 0.191506
O O8 0.574580 0.269454 0.997330
O O9 0.601676 0.006858 0.042455
O O10 0.810453 0.612706 0.075737
O O11 0.931776 0.759981 0.010402
O O12 0.536811 0.534189 0.120480
O O13 0.189601 0.996539 0.161307
#
# Coordination Sequence:
#
# PCOD9274552 Si02
#       7
#     4   8   8   8   8   8   8
#     4  10  20  38  64  82 112 166 210 236 290 372
#     4   9  19  37  62  85 114 165 204 237 298 360
#     4   9  20  39  59  84 121 154 194 248 291 346
#     4  10  21  38  62  87 119 162 203 244 295 358
#     4  11  23  39  62  92 122 158 201 248 301 355
#     4  11  22  37  64  92 119 157 201 249 300 354
#     4   9  20  38  57  85 124 155 197 249 294 355
#
# _framework density 26.743466999999999
#
# number of rings (size 3 to 8) (size 9 to 14) (size 15 to 20)
#    0.000    2.154    0.000    4.154    0.000   11.692 
#    0.000    3.077    0.000    4.615    0.000    0.000 
#    0.000    0.000    0.000    0.000    0.000    0.000 
#
# Total GULP energy -144937.313406 kJ/mol
# GULP energy per Si atom -5574.512054 kJ/mol
# Density = 2.668260 g / cm^3
# Si number density = 26.743467 Si / 1000 Ang^3
#
#
#
# Elastic Constant Matrix: (Units=GPa)
#
#
# Indices 1 2 3 4 5 6 
#
# 1 98.3925 20.6871 16.4409 0.0000 -3.0070 0.0000
# 2 20.6871 65.2938 36.7899 0.0000 7.2244 0.0000
# 3 16.4409 36.7899 64.2762 0.0000 19.0215 0.0000
# 4 0.0000 0.0000 0.0000 29.9454 0.0000 3.1291
# 5 -3.0070 7.2244 19.0215 0.0000 47.5820 0.0000
# 6 0.0000 0.0000 0.0000 3.1291 0.0000 33.2426
#
#
#
# Elastic Compliance Matrix: (Units=1/GPa)
#
#
# Indices 1 2 3 4 5 6 
#
# 1 0.011092 -0.002675 -0.001853 0.000000 0.001848 0.000000
# 2 -0.002675 0.023415 -0.013175 0.000000 0.001543 0.000000
# 3 -0.001853 -0.013175 0.026104 0.000000 -0.008552 0.000000
# 4 0.000000 0.000000 0.000000 0.033726 0.000000 -0.003175
# 5 0.001848 0.001543 -0.008552 0.000000 0.024318 0.000000
# 6 0.000000 0.000000 0.000000 -0.003175 0.000000 0.030381
#
#
# Mechanical properties :
#
#
# Convention : Reuss Voigt Hill
#
# Bulk Modulus (GPa) = 39.67314 41.75539 40.71426
# Shear Modulus (GPa) = 25.92800 32.42363 29.17582
#
# Velocity S-wave (km/s) = 3.11707 3.48572 3.30654
# Velocity P-wave (km/s) = 5.27463 5.64336 5.46211
#
# Compressibility (1/GPa) = 0.02520597
#
# Stress axis : x y z
#
# Youngs Moduli (GPa) = 90.15646 42.70693 38.30901
#
# Poissons Ratio (x) = 0.11422 0.07099
# Poissons Ratio (y) = 0.24113 0.50471
# Poissons Ratio (z) = 0.16707 0.56265
#
# Static dielectric constant tensor:
#      x y z
#    x 2.176890 0.000000 -0.086390 
#    y 0.000000 2.149200 0.000000 
#    z -0.086390 0.000000 2.131960 
# 
# From -- ./inp_files/166356.got.cif
#   From: 2010.05.17/outbox.cif.g08.bks.cpg/sg15_84_cif.got.tgz:166356.got - 2010.06.03 18:47:42.
