data_PCOD9274638
_publ_section_title
;
Structure prediction by ZEFSAII (Michael W. Deem and Ramdas Pophale) SiO2 
 PCOD9274638
Probable space group: C 2/C
;
_chemical_formula_sum "Si O2"
_cell_formula_units_Z 36
_cell_length_a 11.652865
_cell_length_b 16.831057
_cell_length_c 9.606437
_cell_angle_alpha 90.000000
_cell_angle_beta 114.568360
_cell_angle_gamma 90.000000
_cell_volume 1713.534453
_symmetry_space_group_name_H-M "C 2/C"
_symmetry_group_IT_number 15
_symmetry_cell_setting 'monoclinic'
loop_
_space_group_symop_operation_xyz
x,y,z
-x,y,1/2-z
-x,-y,-z
x,-y,1/2+z
1/2+x,1/2+y,z
1/2-x,1/2+y,1/2-z
1/2-x,1/2-y,-z
1/2+x,1/2-y,1/2+z
loop_
_atom_site_type_symbol
_atom_site_label
_atom_site_fract_x
_atom_site_fract_y
_atom_site_fract_z
Si Si1 0.857360 0.733451 0.941317
Si Si2 0.500000 0.699873 0.750000
Si Si3 0.860660 0.208424 0.148690
Si Si4 0.766455 0.083015 0.675524
Si Si5 0.628564 0.462097 0.995241
O O1 0.821206 0.788801 0.791475
O O2 0.852150 0.640471 0.902927
O O3 0.750000 0.750000 0.000000
O O4 0.979111 0.754162 0.094366
O O5 0.383719 0.643461 0.725492
O O6 0.889555 0.123441 0.090023
O O7 0.000000 0.247996 0.250000
O O8 0.750000 0.250000 0.000000
O O9 0.804912 0.018923 0.581661
O O10 0.773498 0.046876 0.830535
O O11 0.500000 0.500000 0.000000
#
# Coordination Sequence:
#
# PCOD9274638 Si02
#       5
#     8   4   8   8   8
#     4  10  24  41  64  97 140 185 242 294 366 440
#     4  10  20  38  64  90 132 178 230 294 352 426
#     4  12  26  45  72 106 146 193 246 308 369 442
#     4  11  22  38  64  99 134 178 233 294 370 423
#     4  12  23  40  68 105 143 180 242 313 367 427
#
# _framework density 21.009208000000001
#
# number of rings (size 3 to 8) (size 9 to 14) (size 15 to 20)
#    0.000    0.889    4.444    2.667   12.444    0.000 
#    0.000    0.000    2.444    2.667    0.000    0.000 
#    0.000    0.000    0.000    0.000    0.000    0.000 
#
# Total GULP energy -100228.805939 kJ/mol
# GULP energy per Si atom -5568.266997 kJ/mol
# Density = 2.096139 g / cm^3
# Si number density = 21.009208 Si / 1000 Ang^3
#
#
#
# Elastic Constant Matrix: (Units=GPa)
#
#
# Indices 1 2 3 4 5 6 
#
# 1 46.8522 33.2890 35.4206 0.0000 -6.3531 0.0000
# 2 33.2890 118.8746 88.2717 0.0000 2.7131 0.0000
# 3 35.4206 88.2717 218.2831 0.0000 -11.8329 0.0000
# 4 0.0000 0.0000 0.0000 50.1277 0.0000 -1.4078
# 5 -6.3531 2.7131 -11.8329 0.0000 40.6042 0.0000
# 6 0.0000 0.0000 0.0000 -1.4078 0.0000 26.6580
#
#
#
# Elastic Compliance Matrix: (Units=1/GPa)
#
#
# Indices 1 2 3 4 5 6 
#
# 1 0.027917 -0.006759 -0.001560 0.000000 0.004365 0.000000
# 2 -0.006759 0.013866 -0.004692 0.000000 -0.003351 0.000000
# 3 -0.001560 -0.004692 0.006844 0.000000 0.002064 0.000000
# 4 0.000000 0.000000 0.000000 0.019979 0.000000 0.001055
# 5 0.004365 -0.003351 0.002064 0.000000 0.026136 0.000000
# 6 0.000000 0.000000 0.000000 0.001055 0.000000 0.037568
#
#
# Mechanical properties :
#
#
# Convention : Reuss Voigt Hill
#
# Bulk Modulus (GPa) = 44.23934 77.55248 60.89591
# Shear Modulus (GPa) = 30.14472 38.61324 34.37898
#
# Velocity S-wave (km/s) = 3.79203 4.29175 4.04960
# Velocity P-wave (km/s) = 6.34630 7.84554 7.13540
#
# Compressibility (1/GPa) = 0.02260432
#
# Stress axis : x y z
#
# Youngs Moduli (GPa) = 35.81995 72.12133 146.12027
#
# Poissons Ratio (x) = 0.48746 0.22799
# Poissons Ratio (y) = 0.24210 0.68560
# Poissons Ratio (z) = 0.05589 0.33839
#
# Static dielectric constant tensor:
#      x y z
#    x 1.901260 0.000000 0.019030 
#    y 0.000000 2.273770 0.000000 
#    z 0.019030 0.000000 2.157520 
# 
# From -- ./inp_files/29417.got.cif
#   From: 2010.05.17/outbox.cif.g08.bks.cpg/sg15_15_cif.got.tgz:29417.got - 2010.06.03 18:47:42.
