data_PCOD9274487
_publ_section_title
;
Structure prediction by ZEFSAII (Michael W. Deem and Ramdas Pophale) SiO2 
 PCOD9274487
Probable space group: C 2/C
;
_chemical_formula_sum "Si O2"
_cell_formula_units_Z 44
_cell_length_a 6.966441
_cell_length_b 13.062476
_cell_length_c 27.101654
_cell_angle_alpha 90.000000
_cell_angle_beta 137.538376
_cell_angle_gamma 90.000000
_cell_volume 1664.937566
_symmetry_space_group_name_H-M "C 2/C"
_symmetry_group_IT_number 15
_symmetry_cell_setting 'monoclinic'
loop_
_space_group_symop_operation_xyz
x,y,z
-x,y,1/2-z
-x,-y,-z
x,-y,1/2+z
1/2+x,1/2+y,z
1/2-x,1/2+y,1/2-z
1/2-x,1/2-y,-z
1/2+x,1/2-y,1/2+z
loop_
_atom_site_type_symbol
_atom_site_label
_atom_site_fract_x
_atom_site_fract_y
_atom_site_fract_z
Si Si1 0.114688 0.606498 0.199332
Si Si2 0.000000 0.277868 0.250000
Si Si3 0.570369 0.859081 0.026305
Si Si4 0.568532 0.712301 0.111138
Si Si5 0.595194 0.957052 0.937294
Si Si6 0.076016 0.403522 0.349773
O O1 0.316341 0.700565 0.248352
O O2 0.185627 0.631630 0.332158
O O3 0.160194 0.485497 0.214824
O O4 0.098834 0.609239 0.136033
O O5 0.812617 0.349512 0.178390
O O6 0.237455 0.840294 0.950009
O O7 0.722905 0.884595 0.003834
O O8 0.646074 0.759354 0.071912
O O9 0.572982 0.957871 0.062566
O O10 0.545114 0.811771 0.140521
O O11 0.744191 0.025206 0.921835
#
# Coordination Sequence:
#
# PCOD9274487 Si02
#       6
#     8   4   8   8   8   8
#     4  10  24  41  61  93 115 161 206 264 291 370
#     4  12  24  44  66  78 124 166 210 266 318 332
#     4   9  17  36  65  90 129 166 179 250 308 375
#     4  10  20  38  63  93 127 158 203 240 314 372
#     4   8  18  40  56  93 123 152 202 236 310 355
#     4   9  23  43  57  94 117 158 211 257 301 369
#
# _framework density 26.427416000000001
#
# number of rings (size 3 to 8) (size 9 to 14) (size 15 to 20)
#    1.091    1.455    0.000    1.091    0.000    5.091 
#    9.818    0.000    0.000    0.000    0.000    0.000 
#    0.000    0.000    0.000    0.000    0.000    0.000 
#
# Total GULP energy -122522.991238 kJ/mol
# GULP energy per Si atom -5569.226874 kJ/mol
# Density = 2.636727 g / cm^3
# Si number density = 26.427416 Si / 1000 Ang^3
#
#
#
# Elastic Constant Matrix: (Units=GPa)
#
#
# Indices 1 2 3 4 5 6 
#
# 1 64.1507 26.3036 31.4628 0.0000 -11.8080 0.0000
# 2 26.3036 118.8158 58.4711 0.0000 -11.4471 0.0000
# 3 31.4628 58.4711 76.3521 0.0000 -16.8572 0.0000
# 4 0.0000 0.0000 0.0000 39.5835 0.0000 -25.0358
# 5 -11.8080 -11.4471 -16.8572 0.0000 28.3949 0.0000
# 6 0.0000 0.0000 0.0000 -25.0358 0.0000 40.4458
#
#
#
# Elastic Compliance Matrix: (Units=1/GPa)
#
#
# Indices 1 2 3 4 5 6 
#
# 1 0.019943 -0.000673 -0.006826 0.000000 0.003969 0.000000
# 2 -0.000673 0.013545 -0.010302 0.000000 -0.000935 0.000000
# 3 -0.006826 -0.010302 0.025613 0.000000 0.008214 0.000000
# 4 0.000000 0.000000 0.000000 0.041517 0.000000 0.025699
# 5 0.003969 -0.000935 0.008214 0.000000 0.041367 0.000000
# 6 0.000000 0.000000 0.000000 0.025699 0.000000 0.040632
#
#
# Mechanical properties :
#
#
# Convention : Reuss Voigt Hill
#
# Bulk Modulus (GPa) = 42.55649 54.64375 48.60012
# Shear Modulus (GPa) = 22.11874 31.22358 26.67116
#
# Velocity S-wave (km/s) = 2.89617 3.44100 3.18027
# Velocity P-wave (km/s) = 5.22703 6.04228 5.64938
#
# Compressibility (1/GPa) = 0.02349818
#
# Stress axis : x y z
#
# Youngs Moduli (GPa) = 50.14343 73.82728 39.04293
#
# Poissons Ratio (x) = 0.04972 0.26650
# Poissons Ratio (y) = 0.03377 0.40222
# Poissons Ratio (z) = 0.34227 0.76057
#
# Static dielectric constant tensor:
#      x y z
#    x 2.135100 0.000000 0.019910 
#    y 0.000000 2.002970 0.000000 
#    z 0.019910 0.000000 2.227980 
# 
# From -- ./inp_files/291809.got.cif
#   From: 2010.05.17/outbox.cif.g08.bks.cpg/sg15_146_cif.got.tgz:291809.got - 2010.06.03 18:47:42.
