data_PCOD9274404
_publ_section_title
;
Structure prediction by ZEFSAII (Michael W. Deem and Ramdas Pophale) SiO2 
 PCOD9274404
Probable space group: C 2/C
;
_chemical_formula_sum "Si O2"
_cell_formula_units_Z 36
_cell_length_a 22.042257
_cell_length_b 17.415566
_cell_length_c 5.354146
_cell_angle_alpha 90.000000
_cell_angle_beta 53.907146
_cell_angle_gamma 90.000000
_cell_volume 1660.845681
_symmetry_space_group_name_H-M "C 2/C"
_symmetry_group_IT_number 15
_symmetry_cell_setting 'monoclinic'
loop_
_space_group_symop_operation_xyz
x,y,z
-x,y,1/2-z
-x,-y,-z
x,-y,1/2+z
1/2+x,1/2+y,z
1/2-x,1/2+y,1/2-z
1/2-x,1/2-y,-z
1/2+x,1/2-y,1/2+z
loop_
_atom_site_type_symbol
_atom_site_label
_atom_site_fract_x
_atom_site_fract_y
_atom_site_fract_z
Si Si1 0.500000 0.745360 0.750000
Si Si2 0.624085 0.977248 0.800994
Si Si3 0.710352 0.458763 0.581320
Si Si4 0.362174 0.801028 0.813099
Si Si5 0.847735 0.788674 0.833877
O O1 0.450252 0.793933 0.675930
O O2 0.563334 0.699730 0.445308
O O3 0.650952 0.889664 0.712928
O O4 0.582730 0.005807 0.656723
O O5 0.699666 0.029334 0.629200
O O6 0.682215 0.508520 0.414012
O O7 0.690228 0.370849 0.590023
O O8 0.343197 0.751552 0.614290
O O9 0.323908 0.765996 0.156891
#
# Coordination Sequence:
#
# PCOD9274404 Si02
#       5
#     4   8   8   8   8
#     4   8  22  36  66  84 114 152 212 242 282 332
#     4  10  21  39  58  86 127 153 189 244 299 356
#     4  10  21  39  58  86 127 153 189 244 299 356
#     4  10  20  38  63  87 115 156 203 241 288 348
#     4  10  20  38  63  87 115 156 203 241 288 348
#
# _framework density 21.675706000000002
#
# number of rings (size 3 to 8) (size 9 to 14) (size 15 to 20)
#    1.333    0.889    0.000    3.333    0.000    0.000 
#    0.000   28.889    0.000    0.000    0.000    0.000 
#    0.000    0.000    0.000    0.000    0.000    0.000 
#
# Total GULP energy -100430.802413 kJ/mol
# GULP energy per Si atom -5579.489023 kJ/mol
# Density = 2.162637 g / cm^3
# Si number density = 21.675706 Si / 1000 Ang^3
#
#
#
# Elastic Constant Matrix: (Units=GPa)
#
#
# Indices 1 2 3 4 5 6 
#
# 1 101.8421 69.0325 62.3521 0.0000 24.7170 0.0000
# 2 69.0325 153.6259 57.3528 0.0000 21.1555 0.0000
# 3 62.3521 57.3528 111.5837 0.0000 60.2480 0.0000
# 4 0.0000 0.0000 0.0000 7.7817 0.0000 47.5932
# 5 24.7170 21.1555 60.2480 0.0000 62.6887 0.0000
# 6 0.0000 0.0000 0.0000 47.5932 0.0000 -31.7164
#
#
#
# Elastic Compliance Matrix: (Units=1/GPa)
#
#
# Indices 1 2 3 4 5 6 
#
# 1 0.018266 -0.005146 -0.009585 0.000000 0.003746 0.000000
# 2 -0.005146 0.009717 -0.003002 0.000000 0.001634 0.000000
# 3 -0.009585 -0.003002 0.027590 0.000000 -0.021724 0.000000
# 4 0.000000 0.000000 0.000000 0.012626 0.000000 0.018947
# 5 0.003746 0.001634 -0.021724 0.000000 0.034801 0.000000
# 6 0.000000 0.000000 0.000000 0.018947 0.000000 -0.003098
#
#
# Mechanical properties :
#
#
# Convention : Reuss Voigt Hill
#
# Bulk Modulus (GPa) = 49.72867 82.72517 66.22692
# Shear Modulus (GPa) = 35.19399 19.63843 27.41621
#
# Velocity S-wave (km/s) = 4.03384 3.01327 3.56031
# Velocity P-wave (km/s) = 6.68489 7.09607 6.89354
#
# Compressibility (1/GPa) = 0.02010912
#
# Stress axis : x y z
#
# Youngs Moduli (GPa) = 54.74644 102.91255 36.24495
#
# Poissons Ratio (x) = 0.52954 0.34740
# Poissons Ratio (y) = 0.28170 0.10879
# Poissons Ratio (z) = 0.52474 0.30890
#
# Static dielectric constant tensor:
#      x y z
#    x 1.837560 0.000000 0.033910 
#    y 0.000000 1.715080 0.000000 
#    z 0.033910 0.000000 1.898930 
# 
# From -- ./inp_files/14972.got.cif
#   From: 2010.05.17/outbox.cif.g08.bks.cpg/sg15_8_cif.got.tgz:14972.got - 2010.06.03 18:47:42.
