data_PCOD9274294
_publ_section_title
;
Structure prediction by ZEFSAII (Michael W. Deem and Ramdas Pophale) SiO2 
 PCOD9274294
Probable space group: C 2/C
;
_chemical_formula_sum "Si O2"
_cell_formula_units_Z 44
_cell_length_a 7.958532
_cell_length_b 12.532566
_cell_length_c 16.658745
_cell_angle_alpha 90.000000
_cell_angle_beta 96.216380
_cell_angle_gamma 90.000000
_cell_volume 1651.787137
_symmetry_space_group_name_H-M "C 2/C"
_symmetry_group_IT_number 15
_symmetry_cell_setting 'monoclinic'
loop_
_space_group_symop_operation_xyz
x,y,z
-x,y,1/2-z
-x,-y,-z
x,-y,1/2+z
1/2+x,1/2+y,z
1/2-x,1/2+y,1/2-z
1/2-x,1/2-y,-z
1/2+x,1/2-y,1/2+z
loop_
_atom_site_type_symbol
_atom_site_label
_atom_site_fract_x
_atom_site_fract_y
_atom_site_fract_z
Si Si1 0.736703 0.422162 0.975942
Si Si2 0.208676 0.265150 0.117330
Si Si3 0.332027 0.970053 0.643903
Si Si4 0.991379 0.764125 0.459629
Si Si5 0.229627 0.545604 0.189788
Si Si6 0.000000 0.225923 0.250000
O O1 0.824867 0.467692 0.059890
O O2 0.837283 0.318011 0.947438
O O3 0.566376 0.372963 0.002205
O O4 0.720932 0.495719 0.896531
O O5 0.223325 0.136689 0.125916
O O6 0.114555 0.292791 0.030192
O O7 0.087909 0.295387 0.184662
O O8 0.406695 0.288865 0.115740
O O9 0.256719 0.016109 0.723806
O O10 0.527323 0.939981 0.669957
O O11 0.351496 0.648871 0.208302
#
# Coordination Sequence:
#
# PCOD9274294 Si02
#       6
#     8   8   8   8   8   4
#     4  11  21  41  67  93 132 176 212 282 330 400
#     4  10  20  39  61  95 122 173 217 271 319 406
#     4  10  22  38  69  89 126 173 229 266 325 389
#     4  10  22  37  64  96 131 161 220 263 352 388
#     4  10  20  39  62  94 122 172 226 266 322 389
#     4  10  20  38  62  90 130 178 218 272 324 392
#
# _framework density 26.637815
#
# number of rings (size 3 to 8) (size 9 to 14) (size 15 to 20)
#    0.000    1.818    3.636    0.545    0.000    0.727 
#    0.000    1.818    0.000    0.000    0.000    0.000 
#    0.000    0.000    0.000    0.000    0.000    0.000 
#
# Total GULP energy -122769.466432 kJ/mol
# GULP energy per Si atom -5580.430292 kJ/mol
# Density = 2.657719 g / cm^3
# Si number density = 26.637815 Si / 1000 Ang^3
#
#
#
# Elastic Constant Matrix: (Units=GPa)
#
#
# Indices 1 2 3 4 5 6 
#
# 1 96.3561 13.8586 66.1510 0.0000 -20.4061 0.0000
# 2 13.8586 56.1024 32.3978 0.0000 -5.2768 0.0000
# 3 66.1510 32.3978 244.7899 0.0000 -42.8079 0.0000
# 4 0.0000 0.0000 0.0000 18.8246 0.0000 2.2258
# 5 -20.4061 -5.2768 -42.8079 0.0000 69.8659 0.0000
# 6 0.0000 0.0000 0.0000 2.2258 0.0000 21.3300
#
#
#
# Elastic Compliance Matrix: (Units=1/GPa)
#
#
# Indices 1 2 3 4 5 6 
#
# 1 0.013035 -0.001298 -0.003026 0.000000 0.001855 0.000000
# 2 -0.001298 0.019430 -0.002274 0.000000 -0.000305 0.000000
# 3 -0.003026 -0.002274 0.005622 0.000000 0.002389 0.000000
# 4 0.000000 0.000000 0.000000 0.053786 0.000000 -0.005613
# 5 0.001855 -0.000305 0.002389 0.000000 0.016296 0.000000
# 6 0.000000 0.000000 0.000000 -0.005613 0.000000 0.047468
#
#
# Mechanical properties :
#
#
# Convention : Reuss Voigt Hill
#
# Bulk Modulus (GPa) = 40.17689 69.11814 54.64752
# Shear Modulus (GPa) = 28.22791 40.99350 34.61071
#
# Velocity S-wave (km/s) = 3.25882 3.92716 3.60850
# Velocity P-wave (km/s) = 5.41067 6.82402 6.15802
#
# Compressibility (1/GPa) = 0.02488993
#
# Stress axis : x y z
#
# Youngs Moduli (GPa) = 76.71393 51.46759 177.88145
#
# Poissons Ratio (x) = 0.06680 0.53836
# Poissons Ratio (y) = 0.09956 0.40452
# Poissons Ratio (z) = 0.23217 0.11704
#
# Static dielectric constant tensor:
#      x y z
#    x 2.060270 0.000000 -0.037180 
#    y 0.000000 2.131020 0.000000 
#    z -0.037180 0.000000 2.188000 
# 
# From -- ./inp_files/188807.got.cif
#   From: 2010.05.17/outbox.cif.g08.bks.cpg/sg15_95_cif.got.tgz:188807.got - 2010.06.03 18:47:42.
