data_PCOD9274238
_publ_section_title
;
Structure prediction by ZEFSAII (Michael W. Deem and Ramdas Pophale) SiO2 
 PCOD9274238
Probable space group: C 2/C
;
_chemical_formula_sum "Si O2"
_cell_formula_units_Z 60
_cell_length_a 9.200955
_cell_length_b 21.107920
_cell_length_c 16.664313
_cell_angle_alpha 90.000000
_cell_angle_beta 65.975650
_cell_angle_gamma 90.000000
_cell_volume 2956.063099
_symmetry_space_group_name_H-M "C 2/C"
_symmetry_group_IT_number 15
_symmetry_cell_setting 'monoclinic'
loop_
_space_group_symop_operation_xyz
x,y,z
-x,y,1/2-z
-x,-y,-z
x,-y,1/2+z
1/2+x,1/2+y,z
1/2-x,1/2+y,1/2-z
1/2-x,1/2-y,-z
1/2+x,1/2-y,1/2+z
loop_
_atom_site_type_symbol
_atom_site_label
_atom_site_fract_x
_atom_site_fract_y
_atom_site_fract_z
Si Si1 0.500000 0.068237 0.250000
Si Si2 0.110864 0.462742 0.329801
Si Si3 0.434489 0.446206 0.176522
Si Si4 0.273119 0.501616 0.457525
Si Si5 0.393989 0.130657 0.947218
Si Si6 0.433015 0.666082 0.549277
Si Si7 0.414731 0.209710 0.466181
Si Si8 0.740032 0.392487 0.907243
O O1 0.673530 0.099713 0.197985
O O2 0.515673 0.024414 0.325021
O O3 0.252577 0.460965 0.234179
O O4 0.178986 0.468777 0.404843
O O5 0.001083 0.401358 0.354350
O O6 0.500000 0.429569 0.250000
O O7 0.544307 0.502363 0.115792
O O8 0.445979 0.387877 0.113777
O O9 0.187036 0.568333 0.492164
O O10 0.279088 0.456280 0.534355
O O11 0.240123 0.166548 0.950142
O O12 0.510041 0.175518 0.972646
O O13 0.464105 0.734335 0.581086
O O14 0.572500 0.645384 0.454521
O O15 0.250000 0.250000 0.500000
O O16 0.374037 0.151260 0.419209
#
# Coordination Sequence:
#
# PCOD9274238 Si02
#       8
#     4   8   8   8   8   8   8   8
#     4  12  22  32  58  94 128 148 198 258 318 372
#     4  11  21  35  57  94 127 159 194 254 317 379
#     4   9  21  37  59  89 124 164 204 247 314 379
#     4  10  20  38  62  88 120 168 196 245 322 389
#     4  12  21  36  66  92 122 158 211 264 311 361
#     4  10  23  39  61  88 123 164 213 258 300 364
#     4  10  22  42  63  84 117 172 220 249 299 381
#     4  10  21  40  61  88 123 161 202 247 315 383
#
# _framework density 20.297264999999999
#
# number of rings (size 3 to 8) (size 9 to 14) (size 15 to 20)
#    0.000    1.600    2.667    2.400    3.733    1.067 
#    1.200    0.000    0.000    1.600    0.000    0.000 
#    0.000    0.000    0.000    0.000    0.000    0.000 
#
# Total GULP energy -167065.277338 kJ/mol
# GULP energy per Si atom -5568.842578 kJ/mol
# Density = 2.025107 g / cm^3
# Si number density = 20.297265 Si / 1000 Ang^3
#
#
#
# Elastic Constant Matrix: (Units=GPa)
#
#
# Indices 1 2 3 4 5 6 
#
# 1 104.6504 29.2112 30.3784 0.0000 -16.7882 0.0000
# 2 29.2112 65.4741 8.7287 0.0000 -5.8560 0.0000
# 3 30.3784 8.7287 73.4631 0.0000 -28.9486 0.0000
# 4 0.0000 0.0000 0.0000 -5.3865 0.0000 4.3488
# 5 -16.7882 -5.8560 -28.9486 0.0000 35.8470 0.0000
# 6 0.0000 0.0000 0.0000 4.3488 0.0000 37.1425
#
#
#
# Elastic Compliance Matrix: (Units=1/GPa)
#
#
# Indices 1 2 3 4 5 6 
#
# 1 0.012299 -0.004814 -0.003746 0.000000 0.001948 0.000000
# 2 -0.004814 0.017461 0.000222 0.000000 0.000778 0.000000
# 3 -0.003746 0.000222 0.021206 0.000000 0.015407 0.000000
# 4 0.000000 0.000000 0.000000 -0.169615 0.000000 0.019859
# 5 0.001948 0.000778 0.015407 0.000000 0.041378 0.000000
# 6 0.000000 0.000000 0.000000 0.019859 0.000000 0.024598
#
#
# Mechanical properties :
#
#
# Convention : Reuss Voigt Hill
#
# Bulk Modulus (GPa) = 29.16204 42.24713 35.70459
# Shear Modulus (GPa) = -203.52455 25.20522 -89.15967
#
# Velocity S-wave (km/s) = -10.02445 3.52775 -6.63493
# Velocity P-wave (km/s) = 10.93560 6.11986 6.40838
#
# Compressibility (1/GPa) = 0.03429115
#
# Stress axis : x y z
#
# Youngs Moduli (GPa) = 81.30540 57.27138 47.15573
#
# Poissons Ratio (x) = 0.27568 0.17666
# Poissons Ratio (y) = 0.39137 -0.01048
# Poissons Ratio (z) = 0.30459 -0.01273
#
# Static dielectric constant tensor:
#      x y z
#    x 1.788730 0.000000 -0.039540 
#    y 0.000000 1.741600 0.000000 
#    z -0.039540 0.000000 1.754030 
# 
# From -- ./inp_files/192521.got.cif
#   From: 2010.05.17/outbox.cif.g08.bks.cpg/sg15_97_cif.got.tgz:192521.got - 2010.06.03 18:47:42.
