data_PCOD9274348
_publ_section_title
;
Structure prediction by ZEFSAII (Michael W. Deem and Ramdas Pophale) SiO2 
 PCOD9274348
Probable space group: C 2/C
;
_chemical_formula_sum "Si O2"
_cell_formula_units_Z 52
_cell_length_a 26.992819
_cell_length_b 9.468538
_cell_length_c 18.762197
_cell_angle_alpha 90.000000
_cell_angle_beta 147.876351
_cell_angle_gamma 90.000000
_cell_volume 2549.886666
_symmetry_space_group_name_H-M "C 2/C"
_symmetry_group_IT_number 15
_symmetry_cell_setting 'monoclinic'
loop_
_space_group_symop_operation_xyz
x,y,z
-x,y,1/2-z
-x,-y,-z
x,-y,1/2+z
1/2+x,1/2+y,z
1/2-x,1/2+y,1/2-z
1/2-x,1/2-y,-z
1/2+x,1/2-y,1/2+z
loop_
_atom_site_type_symbol
_atom_site_label
_atom_site_fract_x
_atom_site_fract_y
_atom_site_fract_z
Si Si1 0.182904 0.283329 0.699067
Si Si2 0.200803 0.892745 0.958269
Si Si3 0.000000 0.055129 0.250000
Si Si4 0.203351 0.832079 0.377930
Si Si5 0.502996 0.583742 0.615503
Si Si6 0.463179 0.704789 0.427453
Si Si7 0.207604 0.596395 0.780401
O O1 0.224349 0.215127 0.822966
O O2 0.194975 0.451756 0.720844
O O3 0.231467 0.207166 0.691371
O O4 0.071589 0.251352 0.558824
O O5 0.090014 0.866500 0.830617
O O6 0.220486 0.005585 0.920252
O O7 0.250000 0.750000 0.000000
O O8 0.242041 0.941434 0.084199
O O9 0.959613 0.961384 0.136685
O O10 0.250000 0.750000 0.500000
O O11 0.090987 0.820258 0.243172
O O12 0.440577 0.660073 0.481469
O O13 0.539506 0.440269 0.621032
O O14 0.390078 0.825982 0.319491
#
# Coordination Sequence:
#
# PCOD9274348 Si02
#       7
#     8   8   4   8   8   8   8
#     4  11  26  41  65  98 128 169 215 275 314 391
#     4  11  24  40  68  94 127 175 209 264 325 384
#     4  10  20  38  62  94 124 160 220 254 308 392
#     4  10  20  42  62  89 125 165 212 264 318 379
#     4   9  20  35  67  88 123 170 208 263 326 374
#     4  10  22  42  62  91 133 166 212 262 325 385
#     4  12  25  39  68  96 131 169 219 262 330 381
#
# _framework density 20.393063000000001
#
# number of rings (size 3 to 8) (size 9 to 14) (size 15 to 20)
#    0.000    1.538    1.538    3.231   10.769    0.000 
#    0.000    0.000    0.000    0.923    0.000    0.000 
#    0.000    0.000    0.000    0.000    0.000    0.000 
#
# Total GULP energy -145053.999447 kJ/mol
# GULP energy per Si atom -5578.999979 kJ/mol
# Density = 2.034665 g / cm^3
# Si number density = 20.393063 Si / 1000 Ang^3
#
#
#
# Elastic Constant Matrix: (Units=GPa)
#
#
# Indices 1 2 3 4 5 6 
#
# 1 49.8788 -0.7999 15.1440 0.0000 -4.0685 0.0000
# 2 -0.7999 71.5096 20.5700 0.0000 12.0378 0.0000
# 3 15.1440 20.5700 103.7003 0.0000 -8.2796 0.0000
# 4 0.0000 0.0000 0.0000 39.9124 0.0000 -7.3990
# 5 -4.0685 12.0378 -8.2796 0.0000 29.5670 0.0000
# 6 0.0000 0.0000 0.0000 -7.3990 0.0000 21.4232
#
#
#
# Elastic Compliance Matrix: (Units=1/GPa)
#
#
# Indices 1 2 3 4 5 6 
#
# 1 0.021148 0.000850 -0.003122 0.000000 0.001690 0.000000
# 2 0.000850 0.016440 -0.004000 0.000000 -0.007696 0.000000
# 3 -0.003122 -0.004000 0.011239 0.000000 0.004346 0.000000
# 4 0.000000 0.000000 0.000000 0.026769 0.000000 0.009245
# 5 0.001690 -0.007696 0.004346 0.000000 0.038404 0.000000
# 6 0.000000 0.000000 0.000000 0.009245 0.000000 0.049871
#
#
# Mechanical properties :
#
#
# Convention : Reuss Voigt Hill
#
# Bulk Modulus (GPa) = 27.56026 32.76853 30.16440
# Shear Modulus (GPa) = 26.52387 30.85884 28.69136
#
# Velocity S-wave (km/s) = 3.61034 3.89421 3.75496
# Velocity P-wave (km/s) = 5.56087 6.02687 5.79855
#
# Compressibility (1/GPa) = 0.03628413
#
# Stress axis : x y z
#
# Youngs Moduli (GPa) = 47.28587 60.82836 88.97209
#
# Poissons Ratio (x) = -0.05172 0.27778
# Poissons Ratio (y) = -0.04020 0.35585
# Poissons Ratio (z) = 0.14763 0.24329
#
# Static dielectric constant tensor:
#      x y z
#    x 1.755310 0.000000 -0.043260 
#    y 0.000000 1.720240 0.000000 
#    z -0.043260 0.000000 1.748210 
# 
# From -- ./inp_files/181070.got.cif
#   From: 2010.05.17/outbox.cif.g08.bks.cpg/sg15_91_cif.got.tgz:181070.got - 2010.06.03 18:47:42.
