data_PCOD9274158
_publ_section_title
;
Structure prediction by ZEFSAII (Michael W. Deem and Ramdas Pophale) SiO2 
 PCOD9274158
Probable space group: C 2/C
;
_chemical_formula_sum "Si O2"
_cell_formula_units_Z 44
_cell_length_a 9.744929
_cell_length_b 10.634591
_cell_length_c 26.520090
_cell_angle_alpha 90.000000
_cell_angle_beta 41.334682
_cell_angle_gamma 90.000000
_cell_volume 1815.175207
_symmetry_space_group_name_H-M "C 2/C"
_symmetry_group_IT_number 15
_symmetry_cell_setting 'monoclinic'
loop_
_space_group_symop_operation_xyz
x,y,z
-x,y,1/2-z
-x,-y,-z
x,-y,1/2+z
1/2+x,1/2+y,z
1/2-x,1/2+y,1/2-z
1/2-x,1/2-y,-z
1/2+x,1/2-y,1/2+z
loop_
_atom_site_type_symbol
_atom_site_label
_atom_site_fract_x
_atom_site_fract_y
_atom_site_fract_z
Si Si1 0.307146 0.189237 0.901168
Si Si2 0.500000 0.254316 0.250000
Si Si3 0.014725 0.150854 0.065283
Si Si4 0.484974 0.143446 0.439861
Si Si5 0.291605 0.889826 0.090906
Si Si6 0.434116 0.938397 0.841110
O O1 0.414296 0.309895 0.898486
O O2 0.130133 0.236471 0.911800
O O3 0.468963 0.087858 0.834202
O O4 0.192387 0.109008 0.977627
O O5 0.618771 0.344044 0.178043
O O6 0.413808 0.149099 0.234042
O O7 0.970409 0.289675 0.054621
O O8 0.799800 0.078619 0.117023
O O9 0.283816 0.128569 0.532448
O O10 0.435616 0.123935 0.395521
O O11 0.628381 0.025839 0.416977
#
# Coordination Sequence:
#
# PCOD9274158 Si02
#       6
#     8   4   8   8   8   8
#     4  10  20  38  62 100 124 162 215 271 322 381
#     4  10  24  42  62  92 140 174 210 278 342 384
#     4   9  19  36  63  91 136 157 203 278 317 366
#     4  10  21  40  73  96 125 175 230 269 322 398
#     4   9  19  41  65  94 133 173 213 282 326 386
#     4  11  22  43  63  93 132 172 214 268 326 399
#
# _framework density 24.240082999999998
#
# number of rings (size 3 to 8) (size 9 to 14) (size 15 to 20)
#    0.000    2.182    1.818    0.545    2.545    6.545 
#    9.818    2.727    0.000    0.000    0.000    0.000 
#    0.000    0.000    0.000    0.000    0.000    0.000 
#
# Total GULP energy -122499.697351 kJ/mol
# GULP energy per Si atom -5568.168061 kJ/mol
# Density = 2.418491 g / cm^3
# Si number density = 24.240083 Si / 1000 Ang^3
#
#
#
# Elastic Constant Matrix: (Units=GPa)
#
#
# Indices 1 2 3 4 5 6 
#
# 1 90.5060 6.8807 37.3290 0.0000 26.9821 0.0000
# 2 6.8807 94.0302 25.2502 0.0000 14.0159 0.0000
# 3 37.3290 25.2502 151.5554 0.0002 37.4640 0.0000
# 4 0.0000 0.0000 0.0002 19.2044 0.0000 -4.4020
# 5 26.9821 14.0159 37.4640 0.0000 26.5630 0.0000
# 6 0.0000 0.0000 0.0000 -4.4020 0.0000 8.9071
#
#
#
# Elastic Compliance Matrix: (Units=1/GPa)
#
#
# Indices 1 2 3 4 5 6 
#
# 1 0.016007 0.001357 0.000042 0.000000 -0.017035 0.000000
# 2 0.001357 0.011698 -0.000640 0.000000 -0.006648 0.000000
# 3 0.000042 -0.000640 0.010166 0.000000 -0.014043 0.000000
# 4 0.000000 0.000000 0.000000 0.058724 0.000000 0.029022
# 5 -0.017035 -0.006648 -0.014043 0.000000 0.078264 0.000000
# 6 0.000000 0.000000 0.000000 0.029022 0.000000 0.126614
#
#
# Mechanical properties :
#
#
# Convention : Reuss Voigt Hill
#
# Bulk Modulus (GPa) = 25.38741 52.77903 39.08322
# Shear Modulus (GPa) = 15.97010 28.71034 22.34022
#
# Velocity S-wave (km/s) = 2.56955 3.44527 3.03912
# Velocity P-wave (km/s) = 4.39312 6.13573 5.33604
#
# Compressibility (1/GPa) = 0.03938960
#
# Stress axis : x y z
#
# Youngs Moduli (GPa) = 62.47283 85.48186 98.36880
#
# Poissons Ratio (x) = -0.11596 -0.00417
# Poissons Ratio (y) = -0.08475 0.06293
# Poissons Ratio (z) = -0.00265 0.05468
#
# Static dielectric constant tensor:
#      x y z
#    x 1.976490 0.000000 0.019110 
#    y 0.000000 1.937740 0.000000 
#    z 0.019110 0.000000 2.115530 
# 
# From -- ./inp_files/196292.got.cif
#   From: 2010.05.17/outbox.cif.g08.bks.cpg/sg15_99_cif.got.tgz:196292.got - 2010.06.03 18:47:42.
