data_PCOD9274535
_publ_section_title
;
Structure prediction by ZEFSAII (Michael W. Deem and Ramdas Pophale) SiO2 
 PCOD9274535
Probable space group: C 2/C
;
_chemical_formula_sum "Si O2"
_cell_formula_units_Z 28
_cell_length_a 8.708275
_cell_length_b 15.453316
_cell_length_c 8.695106
_cell_angle_alpha 90.000000
_cell_angle_beta 98.759779
_cell_angle_gamma 90.000000
_cell_volume 1156.466643
_symmetry_space_group_name_H-M "C 2/C"
_symmetry_group_IT_number 15
_symmetry_cell_setting 'monoclinic'
loop_
_space_group_symop_operation_xyz
x,y,z
-x,y,1/2-z
-x,-y,-z
x,-y,1/2+z
1/2+x,1/2+y,z
1/2-x,1/2+y,1/2-z
1/2-x,1/2-y,-z
1/2+x,1/2-y,1/2+z
loop_
_atom_site_type_symbol
_atom_site_label
_atom_site_fract_x
_atom_site_fract_y
_atom_site_fract_z
Si Si1 0.846429 0.710719 0.326256
Si Si2 0.000000 0.862173 0.750000
Si Si3 0.408762 0.069657 0.585142
Si Si4 0.412865 0.412595 0.394215
O O1 0.667141 0.688027 0.254112
O O2 0.877023 0.653941 0.480843
O O3 0.864749 0.812717 0.353067
O O4 0.000000 0.685919 0.250000
O O5 0.982742 0.908694 0.578325
O O6 0.500000 0.093467 0.750000
O O7 0.243952 0.032471 0.613765
O O8 0.500000 0.000000 0.500000
O O9 0.500000 0.436561 0.250000
#
# Coordination Sequence:
#
# PCOD9274535 Si02
#       4
#     8   4   8   8
#     4  10  23  39  71 106 136 182 231 293 361 404
#     4  10  20  38  64 100 148 164 232 292 348 406
#     4  11  24  43  68  95 141 189 230 281 356 428
#     4  10  24  41  70 108 132 186 233 297 352 407
#
# _framework density 24.211677999999999
#
# number of rings (size 3 to 8) (size 9 to 14) (size 15 to 20)
#    0.000    1.714    0.000    4.286   12.000    2.286 
#    0.000    1.429    6.286    0.000    0.000    0.000 
#    0.000    0.000    0.000    0.000    0.000    0.000 
#
# Total GULP energy -78172.540238 kJ/mol
# GULP energy per Si atom -5583.752874 kJ/mol
# Density = 2.415657 g / cm^3
# Si number density = 24.211678 Si / 1000 Ang^3
#
#
#
# Elastic Constant Matrix: (Units=GPa)
#
#
# Indices 1 2 3 4 5 6 
#
# 1 254.7600 56.9286 125.4610 0.0000 -29.7348 0.0000
# 2 56.9286 49.3914 37.4284 0.0000 1.4358 0.0000
# 3 125.4610 37.4284 175.8641 0.0000 -8.0910 0.0000
# 4 0.0000 0.0000 0.0000 24.6297 0.0000 -5.3371
# 5 -29.7348 1.4358 -8.0910 0.0000 69.8724 0.0000
# 6 0.0000 0.0000 0.0000 -5.3371 0.0000 45.8339
#
#
#
# Elastic Compliance Matrix: (Units=1/GPa)
#
#
# Indices 1 2 3 4 5 6 
#
# 1 0.007505 -0.005693 -0.004012 0.000000 0.002846 0.000000
# 2 -0.005693 0.028542 -0.002163 0.000000 -0.003260 0.000000
# 3 -0.004012 -0.002163 0.008980 0.000000 -0.000623 0.000000
# 4 0.000000 0.000000 0.000000 0.041652 0.000000 0.004850
# 5 0.002846 -0.003260 -0.000623 0.000000 0.015518 0.000000
# 6 0.000000 0.000000 0.000000 0.004850 0.000000 0.022383
#
#
# Mechanical properties :
#
#
# Convention : Reuss Voigt Hill
#
# Bulk Modulus (GPa) = 46.96663 102.18350 74.57507
# Shear Modulus (GPa) = 32.17220 45.41371 38.79296
#
# Velocity S-wave (km/s) = 3.64921 4.33563 4.00714
# Velocity P-wave (km/s) = 6.09886 8.20728 7.23034
#
# Compressibility (1/GPa) = 0.02129171
#
# Stress axis : x y z
#
# Youngs Moduli (GPa) = 133.23848 35.03549 111.36181
#
# Poissons Ratio (x) = 0.19947 0.44674
# Poissons Ratio (y) = 0.75859 0.24086
# Poissons Ratio (z) = 0.53450 0.07578
#
# Static dielectric constant tensor:
#      x y z
#    x 2.065740 0.000000 -0.054780 
#    y 0.000000 1.986520 0.000000 
#    z -0.054780 0.000000 1.530400 
# 
# From -- ./inp_files/21690.got.cif
#   From: 2010.05.17/outbox.cif.g08.bks.cpg/sg15_11_cif.got.tgz:21690.got - 2010.06.03 18:47:42.
