data_PCOD9274596
_publ_section_title
;
Structure prediction by ZEFSAII (Michael W. Deem and Ramdas Pophale) SiO2 
 PCOD9274596
Probable space group: C 2/C
;
_chemical_formula_sum "Si O2"
_cell_formula_units_Z 64
_cell_length_a 32.450707
_cell_length_b 9.074956
_cell_length_c 15.731999
_cell_angle_alpha 90.000000
_cell_angle_beta 42.112478
_cell_angle_gamma 90.000000
_cell_volume 3106.765712
_symmetry_space_group_name_H-M "C 2/C"
_symmetry_group_IT_number 15
_symmetry_cell_setting 'monoclinic'
loop_
_space_group_symop_operation_xyz
x,y,z
-x,y,1/2-z
-x,-y,-z
x,-y,1/2+z
1/2+x,1/2+y,z
1/2-x,1/2+y,1/2-z
1/2-x,1/2-y,-z
1/2+x,1/2-y,1/2+z
loop_
_atom_site_type_symbol
_atom_site_label
_atom_site_fract_x
_atom_site_fract_y
_atom_site_fract_z
Si Si1 0.889432 0.842767 0.853716
Si Si2 0.919707 0.611407 0.672883
Si Si3 0.756126 0.944058 0.807861
Si Si4 0.619277 0.395846 0.439245
Si Si5 0.261934 0.425274 0.989841
Si Si6 0.996892 0.930753 0.161862
Si Si7 0.448622 0.787464 0.594360
Si Si8 0.695243 0.112113 0.758757
O O1 0.893121 0.691985 0.796076
O O2 0.834358 0.938840 0.897610
O O3 0.953146 0.927994 0.743324
O O4 0.876335 0.826638 0.973338
O O5 0.923685 0.436538 0.673910
O O6 0.874144 0.646140 0.663972
O O7 0.987736 0.671282 0.550344
O O8 0.745269 0.985835 0.923054
O O9 0.769553 0.768344 0.781493
O O10 0.818313 0.023696 0.681328
O O11 0.703844 0.007225 0.826187
O O12 0.563554 0.513849 0.530739
O O13 0.598841 0.278758 0.400304
O O14 0.250000 0.250000 0.000000
O O15 0.225097 0.468578 0.130481
O O16 0.966045 0.830862 0.138441
O O17 0.000000 0.856359 0.250000
#
# Coordination Sequence:
#
# PCOD9274596 Si02
#       8
#     8   8   8   8   8   8   8   8
#     4  11  20  40  65  93 122 169 214 257 321 395
#     4  11  24  42  62  94 130 166 214 264 323 388
#     4  11  23  40  67  95 126 171 215 274 318 386
#     4  11  22  38  72  92 122 170 224 258 323 393
#     4  10  20  38  64  88 124 169 210 255 319 384
#     4  10  22  39  62  93 124 165 214 265 318 382
#     4  11  24  41  63  97 129 164 210 272 325 376
#     4  11  24  43  64  95 130 170 222 263 327 391
#
# _framework density 20.600201999999999
#
# number of rings (size 3 to 8) (size 9 to 14) (size 15 to 20)
#    0.000    1.250    5.000    1.875    1.750    0.000 
#    4.500    3.125    0.000    0.000    0.000    0.000 
#    0.000    0.000    0.000    0.000    0.000    0.000 
#
# Total GULP energy -178858.967296 kJ/mol
# GULP energy per Si atom -5589.342728 kJ/mol
# Density = 2.055332 g / cm^3
# Si number density = 20.600202 Si / 1000 Ang^3
#
#
#
# Elastic Constant Matrix: (Units=GPa)
#
#
# Indices 1 2 3 4 5 6 
#
# 1 109.4213 33.1851 27.2860 0.0000 27.9040 -0.0001
# 2 33.1851 63.6920 28.0470 -0.0001 19.6245 -0.0006
# 3 27.2860 28.0470 76.5298 0.0000 18.7233 -0.0001
# 4 0.0000 -0.0001 0.0000 23.7742 0.0000 6.1455
# 5 27.9040 19.6245 18.7233 0.0000 48.8635 0.0001
# 6 -0.0001 -0.0006 -0.0001 6.1455 0.0001 22.6902
#
#
#
# Elastic Compliance Matrix: (Units=1/GPa)
#
#
# Indices 1 2 3 4 5 6 
#
# 1 0.011953 -0.004102 -0.001646 0.000000 -0.004548 0.000000
# 2 -0.004102 0.021514 -0.005386 0.000000 -0.004234 0.000001
# 3 -0.001646 -0.005386 0.016406 0.000000 -0.003183 0.000000
# 4 0.000000 0.000000 0.000000 0.045229 0.000000 -0.012250
# 5 -0.004548 -0.004234 -0.003183 0.000000 0.025983 0.000000
# 6 0.000000 0.000001 0.000000 -0.012250 0.000000 0.047390
#
#
# Mechanical properties :
#
#
# Convention : Reuss Voigt Hill
#
# Bulk Modulus (GPa) = 36.22407 47.40881 41.81644
# Shear Modulus (GPa) = 25.00685 29.80724 27.40705
#
# Velocity S-wave (km/s) = 3.48790 3.80799 3.65146
# Velocity P-wave (km/s) = 5.81749 6.51138 6.17419
#
# Compressibility (1/GPa) = 0.02760595
#
# Stress axis : x y z
#
# Youngs Moduli (GPa) = 83.65948 46.48092 60.95165
#
# Poissons Ratio (x) = 0.19066 0.10032
# Poissons Ratio (y) = 0.34316 0.32830
# Poissons Ratio (z) = 0.13769 0.25036
#
# Static dielectric constant tensor:
#      x y z
#    x 1.765650 0.000000 -0.015050 
#    y 0.000000 1.715450 0.000000 
#    z -0.015050 0.000000 1.744950 
# 
# From -- ./inp_files/181144.got.cif
#   From: 2010.05.17/outbox.cif.g08.bks.cpg/sg15_91_cif.got.tgz:181144.got - 2010.06.03 18:47:42.
