data_PCOD9274722
_publ_section_title
;
Structure prediction by ZEFSAII (Michael W. Deem and Ramdas Pophale) SiO2 
 PCOD9274722
Probable space group: C 2/C
;
_chemical_formula_sum "Si O2"
_cell_formula_units_Z 48
_cell_length_a 22.648094
_cell_length_b 20.820228
_cell_length_c 10.845748
_cell_angle_alpha 90.000000
_cell_angle_beta 156.062292
_cell_angle_gamma 90.000000
_cell_volume 2075.046795
_symmetry_space_group_name_H-M "C 2/C"
_symmetry_group_IT_number 15
_symmetry_cell_setting 'monoclinic'
loop_
_space_group_symop_operation_xyz
x,y,z
-x,y,1/2-z
-x,-y,-z
x,-y,1/2+z
1/2+x,1/2+y,z
1/2-x,1/2+y,1/2-z
1/2-x,1/2-y,-z
1/2+x,1/2-y,1/2+z
loop_
_atom_site_type_symbol
_atom_site_label
_atom_site_fract_x
_atom_site_fract_y
_atom_site_fract_z
Si Si1 0.175476 0.053178 0.781097
Si Si2 0.893157 0.710251 0.730890
Si Si3 0.741646 0.507161 0.155796
Si Si4 0.955809 0.176326 0.868586
Si Si5 0.491155 0.902925 0.596506
Si Si6 0.729551 0.653168 0.210054
O O1 0.162469 0.022403 0.623049
O O2 0.082973 0.116996 0.619300
O O3 0.346434 0.073585 0.122579
O O4 0.152238 0.009231 0.857571
O O5 0.750000 0.750000 0.500000
O O6 0.856755 0.688741 0.523986
O O7 0.925397 0.646889 0.873559
O O8 0.017279 0.760845 0.000460
O O9 0.884930 0.464291 0.406600
O O10 0.770352 0.580612 0.251358
O O11 0.828725 0.185382 0.525610
O O12 0.095012 0.155447 0.050668
O O13 0.500000 0.871682 0.750000
#
# Coordination Sequence:
#
# PCOD9274722 Si02
#       6
#     8   8   8   8   8   8
#     4  10  21  38  62  95 133 172 217 274 332 393
#     4  10  21  37  64  90 127 172 224 264 324 396
#     4  10  20  38  64  96 132 166 223 266 336 389
#     4   9  20  38  61  92 131 175 218 266 333 391
#     4  10  22  37  63  93 128 174 211 282 328 383
#     4   9  19  37  64  96 125 173 216 274 329 394
#
# _framework density 23.132007999999999
#
# number of rings (size 3 to 8) (size 9 to 14) (size 15 to 20)
#    0.000    2.333    0.000    1.500    4.667    4.000 
#    0.000   10.833   14.667    9.000    0.000    0.000 
#    0.000    0.000    0.000    0.000    0.000    0.000 
#
# Total GULP energy -134241.565851 kJ/mol
# GULP energy per Si atom -5593.398577 kJ/mol
# Density = 2.307936 g / cm^3
# Si number density = 23.132008 Si / 1000 Ang^3
#
#
#
# Elastic Constant Matrix: (Units=GPa)
#
#
# Indices 1 2 3 4 5 6 
#
# 1 116.0115 57.5283 53.8769 0.0000 -14.2836 0.0000
# 2 57.5283 119.3282 90.6385 0.0000 -21.2504 0.0000
# 3 53.8769 90.6385 112.1713 0.0000 -20.0327 0.0000
# 4 0.0000 0.0000 0.0000 35.9337 0.0000 7.5636
# 5 -14.2836 -21.2504 -20.0327 0.0000 40.9870 0.0000
# 6 0.0000 0.0000 0.0000 7.5636 0.0000 6.4875
#
#
#
# Elastic Compliance Matrix: (Units=1/GPa)
#
#
# Indices 1 2 3 4 5 6 
#
# 1 0.011679 -0.003437 -0.002655 0.000000 0.000990 0.000000
# 2 -0.003437 0.023036 -0.016483 0.000000 0.002690 0.000000
# 3 -0.002655 -0.016483 0.023904 0.000000 0.002212 0.000000
# 4 0.000000 0.000000 0.000000 0.036879 0.000000 -0.042997
# 5 0.000990 0.002690 0.002212 0.000000 0.027219 0.000000
# 6 0.000000 0.000000 0.000000 -0.042997 0.000000 0.204273
#
#
# Mechanical properties :
#
#
# Convention : Reuss Voigt Hill
#
# Bulk Modulus (GPa) = 74.24622 83.51093 78.87857
# Shear Modulus (GPa) = 13.27558 26.37946 19.82752
#
# Velocity S-wave (km/s) = 2.39823 3.38063 2.93088
# Velocity P-wave (km/s) = 6.31151 7.17067 6.75476
#
# Compressibility (1/GPa) = 0.01346870
#
# Stress axis : x y z
#
# Youngs Moduli (GPa) = 85.62013 43.40980 41.83382
#
# Poissons Ratio (x) = 0.14922 0.11109
# Poissons Ratio (y) = 0.29431 0.68954
# Poissons Ratio (z) = 0.22735 0.71551
#
# Static dielectric constant tensor:
#      x y z
#    x 2.133290 0.000000 -0.330980 
#    y 0.000000 1.814390 0.000000 
#    z -0.330980 0.000000 2.471760 
# 
# From -- ./inp_files/124347.got.cif
#   From: 2010.05.17/outbox.cif.g08.bks.cpg/sg15_63_cif.got.tgz:124347.got - 2010.06.03 18:47:42.
