data_PCOD9274146
_publ_section_title
;
Structure prediction by ZEFSAII (Michael W. Deem and Ramdas Pophale) SiO2 
 PCOD9274146
Probable space group: C 2/C
;
_chemical_formula_sum "Si O2"
_cell_formula_units_Z 52
_cell_length_a 13.686321
_cell_length_b 11.789953
_cell_length_c 18.830215
_cell_angle_alpha 90.000000
_cell_angle_beta 131.838836
_cell_angle_gamma 90.000000
_cell_volume 2263.728622
_symmetry_space_group_name_H-M "C 2/C"
_symmetry_group_IT_number 15
_symmetry_cell_setting 'monoclinic'
loop_
_space_group_symop_operation_xyz
x,y,z
-x,y,1/2-z
-x,-y,-z
x,-y,1/2+z
1/2+x,1/2+y,z
1/2-x,1/2+y,1/2-z
1/2-x,1/2-y,-z
1/2+x,1/2-y,1/2+z
loop_
_atom_site_type_symbol
_atom_site_label
_atom_site_fract_x
_atom_site_fract_y
_atom_site_fract_z
Si Si1 0.000000 0.896475 0.750000
Si Si2 0.385294 0.090095 0.584218
Si Si3 0.952889 0.183365 0.074578
Si Si4 0.733301 0.305191 0.637637
Si Si5 0.881033 0.905506 0.266430
Si Si6 0.156071 0.061295 0.966878
Si Si7 0.331796 0.046747 0.722487
O O1 0.041254 0.825996 0.837336
O O2 0.115874 0.976903 0.775840
O O3 0.370847 0.201084 0.527329
O O4 0.295427 0.989500 0.508622
O O5 0.345714 0.097022 0.649554
O O6 0.540088 0.067916 0.667724
O O7 0.097185 0.200478 0.114201
O O8 0.903714 0.057718 0.028533
O O9 0.817688 0.194044 0.690602
O O10 0.691882 0.340383 0.538720
O O11 0.816354 0.412382 0.704871
O O12 0.965609 0.895283 0.138662
O O13 0.795999 0.912495 0.296988
#
# Coordination Sequence:
#
# PCOD9274146 Si02
#       7
#     4   8   8   8   8   8   8
#     4  10  22  38  62  96 130 174 226 266 316 406
#     4  10  21  35  64  99 133 168 222 275 330 382
#     4  11  20  38  66  98 132 171 219 280 336 380
#     4  11  22  40  70  94 133 179 227 271 334 400
#     4  11  23  42  66  93 138 183 218 268 348 389
#     4  10  23  41  64 103 134 171 226 283 325 403
#     4  10  20  38  61  94 133 175 220 269 324 399
#
# _framework density 22.970950999999999
#
# number of rings (size 3 to 8) (size 9 to 14) (size 15 to 20)
#    0.000    1.538    4.615    1.846    2.154    2.462 
#    0.000    6.923    0.000    4.615    0.000    0.000 
#    0.000    0.000    0.000    0.000    0.000    0.000 
#
# Total GULP energy -145070.495156 kJ/mol
# GULP energy per Si atom -5579.634429 kJ/mol
# Density = 2.291867 g / cm^3
# Si number density = 22.970951 Si / 1000 Ang^3
#
#
#
# Elastic Constant Matrix: (Units=GPa)
#
#
# Indices 1 2 3 4 5 6 
#
# 1 57.4346 40.9465 6.9695 0.0000 0.9127 0.0000
# 2 40.9465 53.4415 -3.2652 0.0000 8.3817 0.0000
# 3 6.9695 -3.2652 80.3751 0.0000 27.0284 0.0000
# 4 0.0000 0.0000 0.0000 39.9123 0.0000 2.2173
# 5 0.9127 8.3817 27.0284 0.0000 31.7227 0.0000
# 6 0.0000 0.0000 0.0000 2.2173 0.0000 15.1317
#
#
#
# Elastic Compliance Matrix: (Units=1/GPa)
#
#
# Indices 1 2 3 4 5 6 
#
# 1 0.046998 -0.039845 -0.012305 0.000000 0.019660 0.000000
# 2 -0.039845 0.054049 0.014110 0.000000 -0.025157 0.000000
# 3 -0.012305 0.014110 0.021327 0.000000 -0.021545 0.000000
# 4 0.000000 0.000000 0.000000 0.025261 0.000000 -0.003702
# 5 0.019660 -0.025157 -0.021545 0.000000 0.055961 0.000000
# 6 0.000000 0.000000 0.000000 -0.003702 0.000000 0.066629
#
#
# Mechanical properties :
#
#
# Convention : Reuss Voigt Hill
#
# Bulk Modulus (GPa) = 21.60092 31.17253 26.38673
# Shear Modulus (GPa) = 13.82223 27.12670 20.47446
#
# Velocity S-wave (km/s) = 2.45567 3.44017 2.98874
# Velocity P-wave (km/s) = 4.17905 5.42029 4.83963
#
# Compressibility (1/GPa) = 0.04629433
#
# Stress axis : x y z
#
# Youngs Moduli (GPa) = 21.27735 18.50184 46.88866
#
# Poissons Ratio (x) = 0.73721 0.57698
# Poissons Ratio (y) = 0.84780 -0.66162
# Poissons Ratio (z) = 0.26182 -0.26107
#
# Static dielectric constant tensor:
#      x y z
#    x 1.857030 0.000000 -0.015860 
#    y 0.000000 1.895070 0.000000 
#    z -0.015860 0.000000 1.931640 
# 
# From -- ./inp_files/203889.got.cif
#   From: 2010.05.17/outbox.cif.g08.bks.cpg/sg15_102_cif.got.tgz:203889.got - 2010.06.03 18:47:42.
