data_PCOD9274221
_publ_section_title
;
Structure prediction by ZEFSAII (Michael W. Deem and Ramdas Pophale) SiO2 
 PCOD9274221
Probable space group: C 2/C
;
_chemical_formula_sum "Si O2"
_cell_formula_units_Z 32
_cell_length_a 22.407720
_cell_length_b 7.665771
_cell_length_c 13.377731
_cell_angle_alpha 90.000000
_cell_angle_beta 32.375426
_cell_angle_gamma 90.000000
_cell_volume 1230.457865
_symmetry_space_group_name_H-M "C 2/C"
_symmetry_group_IT_number 15
_symmetry_cell_setting 'monoclinic'
loop_
_space_group_symop_operation_xyz
x,y,z
-x,y,1/2-z
-x,-y,-z
x,-y,1/2+z
1/2+x,1/2+y,z
1/2-x,1/2+y,1/2-z
1/2-x,1/2-y,-z
1/2+x,1/2-y,1/2+z
loop_
_atom_site_type_symbol
_atom_site_label
_atom_site_fract_x
_atom_site_fract_y
_atom_site_fract_z
Si Si1 0.902734 0.456229 0.713332
Si Si2 0.036007 0.062867 0.837842
Si Si3 0.768316 0.553330 0.070861
Si Si4 0.301322 0.327285 0.622440
O O1 0.934143 0.266680 0.710438
O O2 0.794677 0.425888 0.799973
O O3 0.000000 0.500000 0.500000
O O4 0.870647 0.582841 0.850091
O O5 0.156666 0.971496 0.662076
O O6 0.917334 0.065337 0.948312
O O7 0.000000 0.000000 0.000000
O O8 0.735671 0.677024 0.208701
O O9 0.798875 0.368073 0.081276
#
# Coordination Sequence:
#
# PCOD9274221 Si02
#       4
#     8   8   8   8
#     4  11  23  38  60  90 121 156 198 240 292 359
#     4   9  19  37  59  86 117 153 198 238 288 352
#     4  10  22  39  61  89 118 155 200 242 295 355
#     4  10  20  38  62  87 119 157 194 247 298 339
#
# _framework density 26.00658
#
# number of rings (size 3 to 8) (size 9 to 14) (size 15 to 20)
#    0.000    2.000    0.000    4.500    0.000    7.000 
#    0.000   13.750    0.000   27.000    0.000    0.000 
#    0.000    0.000    0.000    0.000    0.000    0.000 
#
# Total GULP energy -89419.140860 kJ/mol
# GULP energy per Si atom -5588.696304 kJ/mol
# Density = 2.594739 g / cm^3
# Si number density = 26.006580 Si / 1000 Ang^3
#
#
#
# Elastic Constant Matrix: (Units=GPa)
#
#
# Indices 1 2 3 4 5 6 
#
# 1 140.0488 11.3017 53.7398 -0.0007 -24.7120 0.0004
# 2 11.3017 78.0854 17.9146 -0.0020 21.5067 0.0016
# 3 53.7398 17.9146 200.1348 -0.0015 21.5187 0.0010
# 4 -0.0007 -0.0020 -0.0015 22.3911 0.0007 6.1557
# 5 -24.7120 21.5067 21.5187 0.0007 50.3240 -0.0003
# 6 0.0004 0.0016 0.0010 6.1557 -0.0003 34.4118
#
#
#
# Elastic Compliance Matrix: (Units=1/GPa)
#
#
# Indices 1 2 3 4 5 6 
#
# 1 0.009898 -0.002735 -0.003209 0.000000 0.007402 0.000000
# 2 -0.002735 0.015355 0.000220 0.000002 -0.007999 -0.000001
# 3 -0.003209 0.000220 0.006308 0.000001 -0.004367 0.000000
# 4 0.000000 0.000002 0.000001 0.046971 -0.000002 -0.008402
# 5 0.007402 -0.007999 -0.004367 -0.000002 0.028792 0.000001
# 6 0.000000 -0.000001 0.000000 -0.008402 0.000001 0.030563
#
#
# Mechanical properties :
#
#
# Convention : Reuss Voigt Hill
#
# Bulk Modulus (GPa) = 49.71711 64.90903 57.31307
# Shear Modulus (GPa) = 32.04311 43.77957 37.91134
#
# Velocity S-wave (km/s) = 3.51396 4.10738 3.82220
# Velocity P-wave (km/s) = 5.96846 6.89253 6.44707
#
# Compressibility (1/GPa) = 0.02011380
#
# Stress axis : x y z
#
# Youngs Moduli (GPa) = 101.02559 65.12487 158.52494
#
# Poissons Ratio (x) = 0.17812 0.50870
# Poissons Ratio (y) = 0.27631 -0.03488
# Poissons Ratio (z) = 0.32418 -0.01433
#
# Static dielectric constant tensor:
#      x y z
#    x 18.703720 0.000000 -16.153420 
#    y 0.000000 2.025020 0.000000 
#    z -16.153420 0.000000 17.971520 
# 
# From -- ./inp_files/84304.got.cif
#   From: 2010.05.17/outbox.cif.g08.bks.cpg/sg15_43_cif.got.tgz:84304.got - 2010.06.03 18:47:42.
