data_PCOD9274851
_publ_section_title
;
Structure prediction by ZEFSAII (Michael W. Deem and Ramdas Pophale) SiO2 
 PCOD9274851
Probable space group: C 2/C
;
_chemical_formula_sum "Si O2"
_cell_formula_units_Z 44
_cell_length_a 23.848539
_cell_length_b 8.982210
_cell_length_c 28.916184
_cell_angle_alpha 90.000000
_cell_angle_beta 159.999640
_cell_angle_gamma 90.000000
_cell_volume 2118.581348
_symmetry_space_group_name_H-M "C 2/C"
_symmetry_group_IT_number 15
_symmetry_cell_setting 'monoclinic'
loop_
_space_group_symop_operation_xyz
x,y,z
-x,y,1/2-z
-x,-y,-z
x,-y,1/2+z
1/2+x,1/2+y,z
1/2-x,1/2+y,1/2-z
1/2-x,1/2-y,-z
1/2+x,1/2-y,1/2+z
loop_
_atom_site_type_symbol
_atom_site_label
_atom_site_fract_x
_atom_site_fract_y
_atom_site_fract_z
Si Si1 0.879741 0.955910 0.447611
Si Si2 0.562226 0.414504 0.248981
Si Si3 0.230524 0.691857 0.085386
Si Si4 0.997825 0.506271 0.347980
Si Si5 0.353439 0.301193 0.005551
Si Si6 0.500000 0.088707 0.750000
O O1 0.885511 0.787485 0.470823
O O2 0.689095 0.969341 0.286817
O O3 0.900758 0.074109 0.505392
O O4 0.000000 0.000000 0.500000
O O5 0.500000 0.470892 0.250000
O O6 0.669657 0.554535 0.313825
O O7 0.406560 0.373571 0.096308
O O8 0.680604 0.273574 0.354459
O O9 0.354628 0.806838 0.156485
O O10 0.116881 0.620099 0.958756
O O11 0.036339 0.511642 0.322955
O O12 0.036169 0.654887 0.405512
#
# Coordination Sequence:
#
# PCOD9274851 Si02
#       6
#     8   8   8   8   8   4
#     4  11  26  46  68  92 131 179 237 294 333 385
#     4  11  23  41  67 103 141 181 213 269 345 417
#     4  10  23  41  66  99 134 174 227 267 341 412
#     4  10  23  42  64  99 133 178 221 272 339 407
#     4  11  24  44  63  99 138 174 230 272 335 405
#     4  10  20  38  66 102 140 170 210 270 346 416
#
# _framework density 20.768616000000002
#
# number of rings (size 3 to 8) (size 9 to 14) (size 15 to 20)
#    0.000    1.455    2.727    1.091    6.364    7.273 
#    0.000    1.818    0.000    0.000    0.000    0.000 
#    0.000    0.000    0.000    0.000    0.000    0.000 
#
# Total GULP energy -122666.167064 kJ/mol
# GULP energy per Si atom -5575.734867 kJ/mol
# Density = 2.072135 g / cm^3
# Si number density = 20.768616 Si / 1000 Ang^3
#
#
#
# Elastic Constant Matrix: (Units=GPa)
#
#
# Indices 1 2 3 4 5 6 
#
# 1 62.5822 45.9304 33.0481 -0.0004 9.7526 0.0007
# 2 45.9304 121.0376 37.2177 -0.0011 -8.6625 -0.0005
# 3 33.0481 37.2177 92.9811 0.0037 -5.6500 0.0008
# 4 -0.0004 -0.0011 0.0037 13.6421 -0.0009 -2.4574
# 5 9.7526 -8.6625 -5.6500 -0.0009 21.4319 -0.0002
# 6 0.0007 -0.0005 0.0008 -2.4574 -0.0002 19.9278
#
#
#
# Elastic Compliance Matrix: (Units=1/GPa)
#
#
# Indices 1 2 3 4 5 6 
#
# 1 0.031595 -0.010998 -0.008101 0.000001 -0.020958 -0.000001
# 2 -0.010998 0.013426 -0.000844 0.000002 0.010209 0.000001
# 3 -0.008101 -0.000844 0.014406 -0.000004 0.007143 -0.000001
# 4 0.000001 0.000002 -0.000004 0.074968 0.000003 0.009245
# 5 -0.020958 0.010209 0.007143 0.000003 0.062206 0.000002
# 6 -0.000001 0.000001 -0.000001 0.009245 0.000002 0.051321
#
#
# Mechanical properties :
#
#
# Convention : Reuss Voigt Hill
#
# Bulk Modulus (GPa) = 51.17886 56.55483 53.86685
# Shear Modulus (GPa) = 16.98815 21.69399 19.34107
#
# Velocity S-wave (km/s) = 2.86312 3.23547 3.05497
# Velocity P-wave (km/s) = 5.96874 6.42244 6.19974
#
# Compressibility (1/GPa) = 0.01953932
#
# Stress axis : x y z
#
# Youngs Moduli (GPa) = 31.65067 74.48358 69.41442
#
# Poissons Ratio (x) = 0.81920 0.56232
# Poissons Ratio (y) = 0.34811 0.05862
# Poissons Ratio (z) = 0.25640 0.06290
#
# Static dielectric constant tensor:
#      x y z
#    x 1.740380 0.000000 -0.025780 
#    y 0.000000 1.803590 0.000000 
#    z -0.025780 0.000000 1.786180 
# 
# From -- ./inp_files/116241.got.cif
#   From: 2010.05.17/outbox.cif.g08.bks.cpg/sg15_59_cif.got.tgz:116241.got - 2010.06.03 18:47:42.
