data_PCOD9274566
_publ_section_title
;
Structure prediction by ZEFSAII (Michael W. Deem and Ramdas Pophale) SiO2 
 PCOD9274566
Probable space group: C 2/C
;
_chemical_formula_sum "Si O2"
_cell_formula_units_Z 64
_cell_length_a 33.670278
_cell_length_b 8.711297
_cell_length_c 25.472494
_cell_angle_alpha 90.000000
_cell_angle_beta 155.786451
_cell_angle_gamma 90.000000
_cell_volume 3064.303368
_symmetry_space_group_name_H-M "C 2/C"
_symmetry_group_IT_number 15
_symmetry_cell_setting 'monoclinic'
loop_
_space_group_symop_operation_xyz
x,y,z
-x,y,1/2-z
-x,-y,-z
x,-y,1/2+z
1/2+x,1/2+y,z
1/2-x,1/2+y,1/2-z
1/2-x,1/2-y,-z
1/2+x,1/2-y,1/2+z
loop_
_atom_site_type_symbol
_atom_site_label
_atom_site_fract_x
_atom_site_fract_y
_atom_site_fract_z
Si Si1 0.052835 0.384842 0.867085
Si Si2 0.420044 0.017714 0.796430
Si Si3 0.263488 0.651311 0.965007
Si Si4 0.289181 0.923339 0.729341
Si Si5 0.902246 0.031352 0.572756
Si Si6 0.214726 0.391044 0.599404
Si Si7 0.309161 0.416377 0.296582
Si Si8 0.952452 0.810752 0.548629
O O1 0.063850 0.202240 0.875553
O O2 0.000000 0.441981 0.750000
O O3 0.993986 0.422682 0.849557
O O4 0.154140 0.473889 0.997669
O O5 0.323921 0.032256 0.645121
O O6 0.464513 0.186664 0.859516
O O7 0.384056 0.951776 0.808592
O O8 0.251649 0.769322 0.902588
O O9 0.250000 0.750000 0.000000
O O10 0.365468 0.564815 0.078743
O O11 0.195925 0.950583 0.580183
O O12 0.287711 0.750844 0.748170
O O13 0.271417 0.034983 0.757286
O O14 0.970929 0.927517 0.618911
O O15 0.297208 0.462707 0.735254
O O16 0.138579 0.295729 0.543079
O O17 0.412067 0.404858 0.450269
#
# Coordination Sequence:
#
# PCOD9274566 Si02
#       8
#     8   8   8   8   8   8   8   8
#     4  11  22  40  62  90 124 160 198 261 319 342
#     4  10  23  41  58  92 126 151 209 264 292 355
#     4  10  21  41  64  86 116 165 211 251 295 366
#     4  10  21  38  63  85 118 159 204 241 298 372
#     4   9  20  39  59  86 121 160 202 241 302 381
#     4  10  20  38  64  85 118 167 204 235 299 384
#     4  11  19  37  63  86 114 167 195 234 306 375
#     4   9  20  38  60  87 119 161 197 241 303 365
#
# _framework density 20.885660000000001
#
# number of rings (size 3 to 8) (size 9 to 14) (size 15 to 20)
#    0.000    2.000    2.500    1.500    0.000    1.500 
#    4.500    3.750    0.000    0.000    0.000    0.000 
#    0.000    0.000    0.000    0.000    0.000    0.000 
#
# Total GULP energy -178603.863612 kJ/mol
# GULP energy per Si atom -5581.370738 kJ/mol
# Density = 2.083812 g / cm^3
# Si number density = 20.885660 Si / 1000 Ang^3
#
#
#
# Elastic Constant Matrix: (Units=GPa)
#
#
# Indices 1 2 3 4 5 6 
#
# 1 73.5088 18.8529 21.9466 0.0000 9.1986 0.0000
# 2 18.8529 88.2737 13.5408 0.0000 8.2754 0.0000
# 3 21.9466 13.5408 40.3050 0.0000 -10.8412 0.0000
# 4 0.0000 0.0000 0.0000 24.6119 0.0000 -7.9602
# 5 9.1986 8.2754 -10.8412 0.0000 22.6726 0.0000
# 6 0.0000 0.0000 0.0000 -7.9602 0.0000 25.8550
#
#
#
# Elastic Compliance Matrix: (Units=1/GPa)
#
#
# Indices 1 2 3 4 5 6 
#
# 1 0.020023 -0.000620 -0.014711 0.000000 -0.014932 0.000000
# 2 -0.000620 0.013085 -0.006054 0.000000 -0.007419 0.000000
# 3 -0.014711 -0.006054 0.042524 0.000000 0.028512 0.000000
# 4 0.000000 0.000000 0.000000 0.045124 0.000000 0.013893
# 5 -0.014932 -0.007419 0.028512 0.000000 0.066505 0.000000
# 6 0.000000 0.000000 0.000000 0.013893 0.000000 0.042955
#
#
# Mechanical properties :
#
#
# Convention : Reuss Voigt Hill
#
# Bulk Modulus (GPa) = 30.42996 34.52978 32.47987
# Shear Modulus (GPa) = 17.60931 24.47772 21.04351
#
# Velocity S-wave (km/s) = 2.90682 3.42714 3.17765
# Velocity P-wave (km/s) = 5.08601 5.67707 5.38965
#
# Compressibility (1/GPa) = 0.03286235
#
# Stress axis : x y z
#
# Youngs Moduli (GPa) = 49.94147 76.42328 23.51607
#
# Poissons Ratio (x) = 0.04739 0.34595
# Poissons Ratio (y) = 0.03097 0.14237
# Poissons Ratio (z) = 0.73469 0.46267
#
# Static dielectric constant tensor:
#      x y z
#    x 1.765110 0.000000 -0.018110 
#    y 0.000000 1.737220 0.000000 
#    z -0.018110 0.000000 1.769770 
# 
# From -- ./inp_files/284434.got.cif
#   From: 2010.05.17/outbox.cif.g08.bks.cpg/sg15_143_cif.got.tgz:284434.got - 2010.06.03 18:47:42.
