data_PCOD9274032
_publ_section_title
;
Structure prediction by ZEFSAII (Michael W. Deem and Ramdas Pophale) SiO2 
 PCOD9274032
Probable space group: C 2/C
;
_chemical_formula_sum "Si O2"
_cell_formula_units_Z 48
_cell_length_a 29.606923
_cell_length_b 8.903173
_cell_length_c 17.739959
_cell_angle_alpha 90.000000
_cell_angle_beta 150.973527
_cell_angle_gamma 90.000000
_cell_volume 2268.943774
_symmetry_space_group_name_H-M "C 2/C"
_symmetry_group_IT_number 15
_symmetry_cell_setting 'monoclinic'
loop_
_space_group_symop_operation_xyz
x,y,z
-x,y,1/2-z
-x,-y,-z
x,-y,1/2+z
1/2+x,1/2+y,z
1/2-x,1/2+y,1/2-z
1/2-x,1/2-y,-z
1/2+x,1/2-y,1/2+z
loop_
_atom_site_type_symbol
_atom_site_label
_atom_site_fract_x
_atom_site_fract_y
_atom_site_fract_z
Si Si1 0.170952 0.277330 0.818967
Si Si2 0.904764 0.894061 0.066156
Si Si3 0.713225 0.657116 0.375948
Si Si4 0.968128 0.964497 0.370944
Si Si5 0.205270 0.408382 0.104010
Si Si6 0.286602 0.951014 0.207971
O O1 0.076675 0.199587 0.707778
O O2 0.205102 0.188098 0.793502
O O3 0.155556 0.444041 0.765146
O O4 0.250000 0.250000 0.000000
O O5 0.000000 0.909154 0.250000
O O6 0.936563 0.968760 0.035201
O O7 0.873614 0.720173 0.017647
O O8 0.817248 0.991591 0.965544
O O9 0.750000 0.750000 0.500000
O O10 0.620788 0.572509 0.269809
O O11 0.787779 0.542092 0.447305
O O12 0.693388 0.779156 0.282193
O O13 0.000000 0.000000 0.500000
O O14 0.204970 0.469005 0.189187
#
# Coordination Sequence:
#
# PCOD9274032 Si02
#       6
#     8   8   8   8   8   8
#     4  10  20  38  61  84 115 163 203 231 291 380
#     4  11  22  39  61  87 119 158 200 247 297 356
#     4  11  22  39  62  90 122 160 201 250 303 359
#     4  11  22  39  61  90 121 154 199 257 302 344
#     4  10  21  38  59  86 117 158 201 239 294 368
#     4  11  21  39  63  87 118 163 204 242 298 371
#
# _framework density 21.155217
#
# number of rings (size 3 to 8) (size 9 to 14) (size 15 to 20)
#    0.000    1.333    0.000   10.000    0.000    0.000 
#    0.000    9.167    0.000    0.000    0.000    0.000 
#    0.000    0.000    0.000    0.000    0.000    0.000 
#
# Total GULP energy -133737.911003 kJ/mol
# GULP energy per Si atom -5572.412958 kJ/mol
# Density = 2.110707 g / cm^3
# Si number density = 21.155217 Si / 1000 Ang^3
#
#
#
# Elastic Constant Matrix: (Units=GPa)
#
#
# Indices 1 2 3 4 5 6 
#
# 1 82.4698 33.8243 -1.8521 0.0000 -9.9254 0.0000
# 2 33.8243 98.8233 4.4666 0.0000 4.7783 0.0000
# 3 -1.8521 4.4666 33.9394 0.0000 0.3511 0.0000
# 4 0.0000 0.0000 0.0000 29.7708 0.0000 -4.2696
# 5 -9.9254 4.7783 0.3511 0.0000 36.0210 0.0000
# 6 0.0000 0.0000 0.0000 -4.2696 0.0000 44.5360
#
#
#
# Elastic Compliance Matrix: (Units=1/GPa)
#
#
# Indices 1 2 3 4 5 6 
#
# 1 0.014964 -0.005422 0.001480 0.000000 0.004828 0.000000
# 2 -0.005422 0.012209 -0.001871 0.000000 -0.003095 0.000000
# 3 0.001480 -0.001871 0.029787 0.000000 0.000366 0.000000
# 4 0.000000 0.000000 0.000000 0.034058 0.000000 0.003265
# 5 0.004828 -0.003095 0.000366 0.000000 0.029499 0.000000
# 6 0.000000 0.000000 0.000000 0.003265 0.000000 0.022767
#
#
# Mechanical properties :
#
#
# Convention : Reuss Voigt Hill
#
# Bulk Modulus (GPa) = 22.05781 32.01224 27.03503
# Shear Modulus (GPa) = 29.40813 33.98512 31.69663
#
# Velocity S-wave (km/s) = 3.73247 4.01242 3.87497
# Velocity P-wave (km/s) = 5.38743 6.05235 5.72954
#
# Compressibility (1/GPa) = 0.04533541
#
# Stress axis : x y z
#
# Youngs Moduli (GPa) = 66.82822 81.90623 33.57116
#
# Poissons Ratio (x) = 0.44410 -0.04969
# Poissons Ratio (y) = 0.36234 0.06280
# Poissons Ratio (z) = -0.09892 0.15322
#
# Static dielectric constant tensor:
#      x y z
#    x 2.092910 0.000000 -0.058600 
#    y 0.000000 1.844550 0.000000 
#    z -0.058600 0.000000 1.786490 
# 
# From -- ./inp_files/224710.got.cif
#   From: 2010.05.17/outbox.cif.g08.bks.cpg/sg15_113_cif.got.tgz:224710.got - 2010.06.03 18:47:42.
