data_PCOD9274960
_publ_section_title
;
Structure prediction by ZEFSAII (Michael W. Deem and Ramdas Pophale) SiO2 
 PCOD9274960
Probable space group: C 2/C
;
_chemical_formula_sum "Si O2"
_cell_formula_units_Z 64
_cell_length_a 21.097782
_cell_length_b 11.820279
_cell_length_c 16.895681
_cell_angle_alpha 90.000000
_cell_angle_beta 50.944432
_cell_angle_gamma 90.000000
_cell_volume 3271.910428
_symmetry_space_group_name_H-M "C 2/C"
_symmetry_group_IT_number 15
_symmetry_cell_setting 'monoclinic'
loop_
_space_group_symop_operation_xyz
x,y,z
-x,y,1/2-z
-x,-y,-z
x,-y,1/2+z
1/2+x,1/2+y,z
1/2-x,1/2+y,1/2-z
1/2-x,1/2-y,-z
1/2+x,1/2-y,1/2+z
loop_
_atom_site_type_symbol
_atom_site_label
_atom_site_fract_x
_atom_site_fract_y
_atom_site_fract_z
Si Si1 0.415771 0.319431 0.267826
Si Si2 0.060104 0.524087 0.774147
Si Si3 0.071754 0.928674 0.761197
Si Si4 0.510983 0.167248 0.420280
Si Si5 0.175529 0.833530 0.551183
Si Si6 0.164115 0.271946 0.512185
Si Si7 0.486034 0.242714 0.904278
Si Si8 0.234001 0.558077 0.067855
O O1 0.500000 0.323620 0.250000
O O2 0.400047 0.444194 0.248478
O O3 0.428820 0.238861 0.183631
O O4 0.357624 0.274649 0.382383
O O5 0.152276 0.489118 0.676344
O O6 0.000000 0.485373 0.750000
O O7 0.031038 0.458465 0.875431
O O8 0.037682 0.654422 0.809740
O O9 0.144155 0.862078 0.663227
O O10 0.000000 0.930252 0.750000
O O11 0.035155 0.861024 0.863159
O O12 0.418548 0.202818 0.469705
O O13 0.523838 0.193789 0.501051
O O14 0.250000 0.750000 0.500000
O O15 0.101751 0.771718 0.563798
O O16 0.204256 0.952867 0.490597
O O17 0.204959 0.391734 0.504850
O O18 0.217074 0.167596 0.434784
#
# Coordination Sequence:
#
# PCOD9274960 Si02
#       8
#     8   8   8   8   8   8   8   8
#     4   9  16  34  62  89 115 154 211 254 295 364
#     4  12  21  42  66  91 117 169 218 257 301 384
#     4   9  18  36  58  84 115 158 209 250 294 372
#     4  11  22  39  64  92 126 161 209 263 321 371
#     4  11  22  39  62  88 122 163 214 257 303 372
#     4  10  20  38  66  97 119 156 213 271 310 368
#     4  11  25  39  61  91 128 169 207 254 316 385
#     4  11  21  37  68  95 119 155 221 265 307 353
#
# _framework density 19.560437
#
# number of rings (size 3 to 8) (size 9 to 14) (size 15 to 20)
#    0.000    1.500    3.750    3.375    1.750    0.500 
#    0.000    2.500    0.000    0.000    0.000    0.000 
#    0.000    0.000    0.000    0.000    0.000    0.000 
#
# Total GULP energy -178341.397980 kJ/mol
# GULP energy per Si atom -5573.168687 kJ/mol
# Density = 1.951592 g / cm^3
# Si number density = 19.560437 Si / 1000 Ang^3
#
#
#
# Elastic Constant Matrix: (Units=GPa)
#
#
# Indices 1 2 3 4 5 6 
#
# 1 46.4984 28.7968 26.1440 0.0000 -14.9143 0.0000
# 2 28.7968 114.4949 25.6610 0.0000 -9.2605 0.0000
# 3 26.1440 25.6610 72.3300 0.0000 -8.8696 0.0000
# 4 0.0000 0.0000 0.0000 30.1474 0.0000 -13.5148
# 5 -14.9143 -9.2605 -8.8696 0.0000 34.9097 0.0000
# 6 0.0000 0.0000 0.0000 -13.5148 0.0000 18.0627
#
#
#
# Elastic Compliance Matrix: (Units=1/GPa)
#
#
# Indices 1 2 3 4 5 6 
#
# 1 0.033233 -0.005547 -0.008757 0.000000 0.010502 0.000000
# 2 -0.005547 0.010515 -0.001728 0.000000 -0.000019 0.000000
# 3 -0.008757 -0.001728 0.017638 0.000000 0.000282 0.000000
# 4 0.000000 0.000000 0.000000 0.049912 0.000000 0.037345
# 5 0.010502 -0.000019 0.000282 0.000000 0.033198 0.000000
# 6 0.000000 0.000000 0.000000 0.037345 0.000000 0.083305
#
#
# Mechanical properties :
#
#
# Convention : Reuss Voigt Hill
#
# Bulk Modulus (GPa) = 34.10196 43.83631 38.96913
# Shear Modulus (GPa) = 18.54339 26.80541 22.67440
#
# Velocity S-wave (km/s) = 3.08231 3.70589 3.40839
# Velocity P-wave (km/s) = 5.48995 6.38521 5.95443
#
# Compressibility (1/GPa) = 0.02932383
#
# Stress axis : x y z
#
# Youngs Moduli (GPa) = 30.09052 95.10470 56.69488
#
# Poissons Ratio (x) = 0.52750 0.49646
# Poissons Ratio (y) = 0.16690 0.09797
# Poissons Ratio (z) = 0.26349 0.16434
#
# Static dielectric constant tensor:
#      x y z
#    x 1.685440 0.000000 -0.058170 
#    y 0.000000 1.776410 0.000000 
#    z -0.058170 0.000000 1.710420 
# 
# From -- ./inp_files/219137.got.cif
#   From: 2010.05.17/outbox.cif.g08.bks.cpg/sg15_110_cif.got.tgz:219137.got - 2010.06.03 18:47:42.
