data_PCOD9274598
_publ_section_title
;
Structure prediction by ZEFSAII (Michael W. Deem and Ramdas Pophale) SiO2 
 PCOD9274598
Probable space group: C 2/C
;
_chemical_formula_sum "Si O2"
_cell_formula_units_Z 52
_cell_length_a 7.157402
_cell_length_b 28.240813
_cell_length_c 13.156273
_cell_angle_alpha 90.000000
_cell_angle_beta 53.403126
_cell_angle_gamma 90.000000
_cell_volume 2135.009912
_symmetry_space_group_name_H-M "C 2/C"
_symmetry_group_IT_number 15
_symmetry_cell_setting 'monoclinic'
loop_
_space_group_symop_operation_xyz
x,y,z
-x,y,1/2-z
-x,-y,-z
x,-y,1/2+z
1/2+x,1/2+y,z
1/2-x,1/2+y,1/2-z
1/2-x,1/2-y,-z
1/2+x,1/2-y,1/2+z
loop_
_atom_site_type_symbol
_atom_site_label
_atom_site_fract_x
_atom_site_fract_y
_atom_site_fract_z
Si Si1 0.500000 0.185680 0.750000
Si Si2 0.702813 0.616775 0.956368
Si Si3 0.374013 0.016257 0.890046
Si Si4 0.726921 0.761436 0.359779
Si Si5 0.663030 0.660344 0.297044
Si Si6 0.564110 0.149085 0.017766
Si Si7 0.791548 0.945427 0.396624
O O1 0.275515 0.152984 0.844657
O O2 0.430258 0.218165 0.679950
O O3 0.742804 0.564423 0.902768
O O4 0.889786 0.633677 0.982356
O O5 0.462663 0.621292 0.094092
O O6 0.500000 0.995396 0.750000
O O7 0.569608 0.036608 0.903269
O O8 0.217165 0.980054 0.003703
O O9 0.675732 0.705897 0.366086
O O10 0.649864 0.796772 0.475079
O O11 0.000000 0.768153 0.250000
O O12 0.500000 0.670222 0.250000
O O13 0.909275 0.646688 0.168929
O O14 0.759031 0.108764 0.944042
O O15 0.000000 0.949845 0.250000
#
# Coordination Sequence:
#
# PCOD9274598 Si02
#       7
#     4   8   8   8   8   8   8
#     4  10  20  38  64  88 126 166 214 270 318 396
#     4   9  19  36  64  91 120 164 213 267 329 391
#     4  10  21  40  66  98 126 164 227 274 333 410
#     4  11  23  38  62  91 126 172 222 269 322 390
#     4  10  21  38  62  90 126 169 215 269 329 389
#     4   9  21  39  59  88 128 167 214 265 333 393
#     4  10  22  41  66  92 132 173 212 280 339 396
#
# _framework density 24.355861000000001
#
# number of rings (size 3 to 8) (size 9 to 14) (size 15 to 20)
#    0.000    2.154    1.538    0.462    2.154    7.385 
#    0.000    0.769    0.000    0.000    0.000    0.000 
#    0.000    0.000    0.000    0.000    0.000    0.000 
#
# Total GULP energy -145418.465499 kJ/mol
# GULP energy per Si atom -5593.017904 kJ/mol
# Density = 2.430043 g / cm^3
# Si number density = 24.355861 Si / 1000 Ang^3
#
#
#
# Elastic Constant Matrix: (Units=GPa)
#
#
# Indices 1 2 3 4 5 6 
#
# 1 60.3142 -0.8981 -2.3956 0.0000 8.7023 0.0000
# 2 -0.8981 74.3678 42.0003 0.0000 -2.3287 0.0000
# 3 -2.3956 42.0003 150.2054 0.0000 -5.8922 0.0000
# 4 0.0000 0.0000 0.0000 17.1527 0.0000 -17.2955
# 5 8.7023 -2.3287 -5.8922 0.0000 42.6053 0.0000
# 6 0.0000 0.0000 0.0000 -17.2955 0.0000 9.8788
#
#
#
# Elastic Compliance Matrix: (Units=1/GPa)
#
#
# Indices 1 2 3 4 5 6 
#
# 1 0.017086 0.000025 0.000129 0.000000 -0.003471 0.000000
# 2 0.000025 0.015971 -0.004456 0.000000 0.000252 0.000000
# 3 0.000129 -0.004456 0.007938 0.000000 0.000828 0.000000
# 4 0.000000 0.000000 0.000000 -0.076175 0.000000 -0.133365
# 5 -0.003471 0.000252 0.000828 0.000000 0.024308 0.000000
# 6 0.000000 0.000000 0.000000 -0.133365 0.000000 -0.132264
#
#
# Mechanical properties :
#
#
# Convention : Reuss Voigt Hill
#
# Bulk Modulus (GPa) = 30.87170 40.25564 35.56367
# Shear Modulus (GPa) = -40.40887 30.33940 -5.03473
#
# Velocity S-wave (km/s) = -4.07763 3.53324 -1.43932
# Velocity P-wave (km/s) = 3.07679 5.76273 3.44546
#
# Compressibility (1/GPa) = 0.03239213
#
# Stress axis : x y z
#
# Youngs Moduli (GPa) = 58.52709 62.61262 125.97696
#
# Poissons Ratio (x) = -0.00154 -0.01631
# Poissons Ratio (y) = -0.00143 0.56130
# Poissons Ratio (z) = -0.00758 0.27898
#
# Static dielectric constant tensor:
#      x y z
#    x 2.071690 0.000000 -0.026420 
#    y 0.000000 1.891280 0.000000 
#    z -0.026420 0.000000 1.895010 
# 
# From -- ./inp_files/139745.got.cif
#   From: 2010.05.17/outbox.cif.g08.bks.cpg/sg15_70_cif.got.tgz:139745.got - 2010.06.03 18:47:42.
