data_PCOD9274737
_publ_section_title
;
Structure prediction by ZEFSAII (Michael W. Deem and Ramdas Pophale) SiO2 
 PCOD9274737
Probable space group: C 2/C
;
_chemical_formula_sum "Si O2"
_cell_formula_units_Z 40
_cell_length_a 11.835850
_cell_length_b 15.387978
_cell_length_c 13.711262
_cell_angle_alpha 90.000000
_cell_angle_beta 139.974590
_cell_angle_gamma 90.000000
_cell_volume 1606.036345
_symmetry_space_group_name_H-M "C 2/C"
_symmetry_group_IT_number 15
_symmetry_cell_setting 'monoclinic'
loop_
_space_group_symop_operation_xyz
x,y,z
-x,y,1/2-z
-x,-y,-z
x,-y,1/2+z
1/2+x,1/2+y,z
1/2-x,1/2+y,1/2-z
1/2-x,1/2-y,-z
1/2+x,1/2-y,1/2+z
loop_
_atom_site_type_symbol
_atom_site_label
_atom_site_fract_x
_atom_site_fract_y
_atom_site_fract_z
Si Si1 0.435249 0.104653 0.594431
Si Si2 0.813854 0.699558 0.159635
Si Si3 0.336131 0.470402 0.025434
Si Si4 0.690998 0.427405 0.195291
Si Si5 0.434797 0.767694 0.935735
O O1 0.500000 0.113373 0.750000
O O2 0.604207 0.071071 0.645567
O O3 0.394093 0.195084 0.514699
O O4 0.274231 0.038386 0.485059
O O5 0.766776 0.619980 0.058167
O O6 0.000000 0.740096 0.250000
O O7 0.847728 0.673153 0.294401
O O8 0.642926 0.759459 0.052925
O O9 0.327395 0.512231 0.911183
O O10 0.543305 0.453218 0.175775
O O11 0.640307 0.329201 0.129035
#
# Coordination Sequence:
#
# PCOD9274737 Si02
#       5
#     8   8   8   8   8
#     4  10  20  38  64  98 135 177 217 279 333 400
#     4  11  22  41  65  97 126 181 224 287 328 401
#     4   9  20  37  65  87 133 178 216 268 346 385
#     4   9  18  38  61  92 131 173 220 272 322 398
#     4  11  22  39  68  98 133 173 231 275 338 394
#
# _framework density 24.906037999999999
#
# number of rings (size 3 to 8) (size 9 to 14) (size 15 to 20)
#    0.000    2.000    2.000    2.400    0.000    3.200 
#    0.000    9.000    4.400    9.600    0.000    0.000 
#    0.000    0.000    0.000    0.000    0.000    0.000 
#
# Total GULP energy -111803.571780 kJ/mol
# GULP energy per Si atom -5590.178589 kJ/mol
# Density = 2.484935 g / cm^3
# Si number density = 24.906038 Si / 1000 Ang^3
#
#
#
# Elastic Constant Matrix: (Units=GPa)
#
#
# Indices 1 2 3 4 5 6 
#
# 1 139.5764 71.9811 54.3950 0.0000 34.6974 0.0000
# 2 71.9811 99.0085 32.5622 0.0000 11.4399 0.0000
# 3 54.3950 32.5622 86.9690 -0.0002 19.4291 -0.0001
# 4 0.0000 0.0000 -0.0002 17.0757 -0.0001 -5.8692
# 5 34.6974 11.4399 19.4291 -0.0001 51.3803 0.0000
# 6 0.0000 0.0000 -0.0001 -5.8692 0.0000 24.7883
#
#
#
# Elastic Compliance Matrix: (Units=1/GPa)
#
#
# Indices 1 2 3 4 5 6 
#
# 1 0.015090 -0.008661 -0.004751 0.000000 -0.006465 0.000000
# 2 -0.008661 0.016539 -0.001375 0.000000 0.002687 0.000000
# 3 -0.004751 -0.001375 0.015510 0.000000 -0.002350 0.000000
# 4 0.000000 0.000000 0.000000 0.063751 0.000000 0.015095
# 5 -0.006465 0.002687 -0.002350 0.000000 0.024119 0.000000
# 6 0.000000 0.000000 0.000000 0.015095 0.000000 0.043916
#
#
# Mechanical properties :
#
#
# Convention : Reuss Voigt Hill
#
# Bulk Modulus (GPa) = 56.93498 71.49226 64.21362
# Shear Modulus (GPa) = 23.32590 29.75656 26.54123
#
# Velocity S-wave (km/s) = 3.06364 3.46027 3.26798
# Velocity P-wave (km/s) = 5.95181 6.68818 6.33071
#
# Compressibility (1/GPa) = 0.01756390
#
# Stress axis : x y z
#
# Youngs Moduli (GPa) = 66.26967 60.46354 64.47534
#
# Poissons Ratio (x) = 0.52368 0.30631
# Poissons Ratio (y) = 0.57397 0.08868
# Poissons Ratio (z) = 0.31483 0.08316
#
# Static dielectric constant tensor:
#      x y z
#    x 2.004740 0.000000 -0.004660 
#    y 0.000000 1.973500 0.000000 
#    z -0.004660 0.000000 1.985090 
# 
# From -- ./inp_files/145876.got.cif
#   From: 2010.05.17/outbox.cif.g08.bks.cpg/sg15_73_cif.got.tgz:145876.got - 2010.06.03 18:47:42.
