data_PCOD9274369
_publ_section_title
;
Structure prediction by ZEFSAII (Michael W. Deem and Ramdas Pophale) SiO2 
 PCOD9274369
Probable space group: C 2/C
;
_chemical_formula_sum "Si O2"
_cell_formula_units_Z 56
_cell_length_a 5.185036
_cell_length_b 21.041412
_cell_length_c 23.374693
_cell_angle_alpha 90.000000
_cell_angle_beta 114.505994
_cell_angle_gamma 90.000000
_cell_volume 2320.463664
_symmetry_space_group_name_H-M "C 2/C"
_symmetry_group_IT_number 15
_symmetry_cell_setting 'monoclinic'
loop_
_space_group_symop_operation_xyz
x,y,z
-x,y,1/2-z
-x,-y,-z
x,-y,1/2+z
1/2+x,1/2+y,z
1/2-x,1/2+y,1/2-z
1/2-x,1/2-y,-z
1/2+x,1/2-y,1/2+z
loop_
_atom_site_type_symbol
_atom_site_label
_atom_site_fract_x
_atom_site_fract_y
_atom_site_fract_z
Si Si1 0.723550 0.209584 0.409862
Si Si2 0.196330 0.681916 0.663893
Si Si3 0.212017 0.148849 0.192605
Si Si4 0.000000 0.960327 0.750000
Si Si5 0.671165 0.043555 0.635650
Si Si6 0.500000 0.750378 0.250000
Si Si7 0.493104 0.549230 0.945980
Si Si8 0.096169 0.196347 0.542475
O O1 0.647166 0.262212 0.354801
O O2 0.729224 0.148396 0.369500
O O3 0.529386 0.238656 0.441352
O O4 0.029216 0.206565 0.469149
O O5 0.304583 0.612503 0.661330
O O6 0.176879 0.699201 0.728365
O O7 0.893852 0.685813 0.601764
O O8 0.500000 0.170025 0.250000
O O9 0.131139 0.082767 0.212365
O O10 0.972443 0.198538 0.194675
O O11 0.764298 0.999975 0.696106
O O12 0.333503 0.047349 0.603446
O O13 0.797277 0.026045 0.585082
O O14 0.554890 0.625519 0.962880
O O15 0.500000 0.500000 0.000000
#
# Coordination Sequence:
#
# PCOD9274369 Si02
#       8
#     8   8   8   4   8   4   8   8
#     4  10  20  38  62  96 129 171 221 285 351 418
#     4  10  20  40  60  94 131 170 224 282 347 413
#     4  10  22  41  64  92 132 174 230 288 349 421
#     4  11  28  44  64 100 132 191 240 288 360 413
#     4  11  26  45  70  97 140 178 237 288 341 422
#     4   9  20  38  64  94 126 169 222 286 352 415
#     4  11  25  46  69 103 136 184 229 287 347 420
#     4  10  21  36  64  95 131 171 223 276 352 416
#
# _framework density 24.133106999999999
#
# number of rings (size 3 to 8) (size 9 to 14) (size 15 to 20)
#    0.000    1.714    1.429    1.714    4.000    2.286 
#    5.143    1.429    0.000    0.000    0.000    0.000 
#    0.000    0.000    0.000    0.000    0.000    0.000 
#
# Total GULP energy -155870.505910 kJ/mol
# GULP energy per Si atom -5566.803782 kJ/mol
# Density = 2.407818 g / cm^3
# Si number density = 24.133107 Si / 1000 Ang^3
#
#
#
# Elastic Constant Matrix: (Units=GPa)
#
#
# Indices 1 2 3 4 5 6 
#
# 1 68.0816 11.5723 34.5697 0.0000 -10.4677 0.0000
# 2 11.5723 92.5780 29.0159 0.0000 3.1430 0.0000
# 3 34.5697 29.0159 116.6245 0.0000 -0.7124 0.0000
# 4 0.0000 0.0000 0.0000 31.4973 0.0000 -5.8850
# 5 -10.4677 3.1430 -0.7124 0.0000 40.4249 0.0000
# 6 0.0000 0.0000 0.0000 -5.8850 0.0000 13.5314
#
#
#
# Elastic Compliance Matrix: (Units=1/GPa)
#
#
# Indices 1 2 3 4 5 6 
#
# 1 0.018162 -0.000814 -0.005152 0.000000 0.004675 0.000000
# 2 -0.000814 0.011789 -0.002699 0.000000 -0.001175 0.000000
# 3 -0.005152 -0.002699 0.010768 0.000000 -0.000935 0.000000
# 4 0.000000 0.000000 0.000000 0.034557 0.000000 0.015029
# 5 0.004675 -0.001175 -0.000935 0.000000 0.026023 0.000000
# 6 0.000000 0.000000 0.000000 0.015029 0.000000 0.080439
#
#
# Mechanical properties :
#
#
# Convention : Reuss Voigt Hill
#
# Bulk Modulus (GPa) = 42.75764 47.51107 45.13436
# Shear Modulus (GPa) = 24.17054 30.56580 27.36817
#
# Velocity S-wave (km/s) = 3.16816 3.56272 3.37122
# Velocity P-wave (km/s) = 5.58022 6.05424 5.82206
#
# Compressibility (1/GPa) = 0.02338763
#
# Stress axis : x y z
#
# Youngs Moduli (GPa) = 55.06104 84.82280 92.87138
#
# Poissons Ratio (x) = 0.06905 0.47851
# Poissons Ratio (y) = 0.04482 0.25066
# Poissons Ratio (z) = 0.28369 0.22894
#
# Static dielectric constant tensor:
#      x y z
#    x 2.173030 0.000000 -0.085370 
#    y 0.000000 2.046800 0.000000 
#    z -0.085370 0.000000 2.068040 
# 
# From -- ./inp_files/261422.got.cif
#   From: 2010.05.17/outbox.cif.g08.bks.cpg/sg15_131_cif.got.tgz:261422.got - 2010.06.03 18:47:42.
