data_PCOD9274128
_publ_section_title
;
Structure prediction by ZEFSAII (Michael W. Deem and Ramdas Pophale) SiO2 
 PCOD9274128
Probable space group: C 2/C
;
_chemical_formula_sum "Si O2"
_cell_formula_units_Z 44
_cell_length_a 13.493635
_cell_length_b 26.787674
_cell_length_c 7.707521
_cell_angle_alpha 90.000000
_cell_angle_beta 49.808510
_cell_angle_gamma 90.000000
_cell_volume 2128.190884
_symmetry_space_group_name_H-M "C 2/C"
_symmetry_group_IT_number 15
_symmetry_cell_setting 'monoclinic'
loop_
_space_group_symop_operation_xyz
x,y,z
-x,y,1/2-z
-x,-y,-z
x,-y,1/2+z
1/2+x,1/2+y,z
1/2-x,1/2+y,1/2-z
1/2-x,1/2-y,-z
1/2+x,1/2-y,1/2+z
loop_
_atom_site_type_symbol
_atom_site_label
_atom_site_fract_x
_atom_site_fract_y
_atom_site_fract_z
Si Si1 0.822190 0.536683 0.065777
Si Si2 0.392350 0.595059 0.005840
Si Si3 0.500000 0.761810 0.750000
Si Si4 0.787363 0.340570 0.047092
Si Si5 0.095323 0.566399 0.906321
Si Si6 0.968847 0.813634 0.980260
O O1 0.689422 0.553362 0.303456
O O2 0.847238 0.477425 0.037606
O O3 0.836255 0.558605 0.857385
O O4 0.943717 0.557534 0.040308
O O5 0.500000 0.575049 0.750000
O O6 0.294442 0.629703 0.005010
O O7 0.464588 0.633026 0.054046
O O8 0.624922 0.796962 0.629388
O O9 0.519518 0.726353 0.562523
O O10 0.877268 0.380512 0.042864
O O11 0.682640 0.319747 0.302522
O O12 0.000000 0.798807 0.750000
#
# Coordination Sequence:
#
# PCOD9274128 Si02
#       6
#     8   8   4   8   8   8
#     4  10  20  38  61  92 125 159 207 249 311 369
#     4  10  21  40  63  89 126 162 200 253 310 372
#     4  12  24  44  64  90 124 168 208 266 312 362
#     4  11  22  41  63  89 125 163 207 258 316 361
#     4  10  21  37  62  92 122 161 203 259 304 367
#     4  11  24  43  63  90 126 162 208 261 309 373
#
# _framework density 20.674838000000001
#
# number of rings (size 3 to 8) (size 9 to 14) (size 15 to 20)
#    0.000    1.455    2.727    3.818    0.000    3.636 
#    6.545    9.091    0.000    0.000    0.000    0.000 
#    0.000    0.000    0.000    0.000    0.000    0.000 
#
# Total GULP energy -123084.909080 kJ/mol
# GULP energy per Si atom -5594.768595 kJ/mol
# Density = 2.062778 g / cm^3
# Si number density = 20.674838 Si / 1000 Ang^3
#
#
#
# Elastic Constant Matrix: (Units=GPa)
#
#
# Indices 1 2 3 4 5 6 
#
# 1 30.4512 3.1754 19.2190 0.0000 8.1074 0.0000
# 2 3.1754 50.9023 8.7853 0.0000 0.4602 0.0000
# 3 19.2190 8.7853 108.4071 0.0000 7.3107 0.0000
# 4 0.0000 0.0000 0.0000 22.7465 0.0000 -21.1823
# 5 8.1074 0.4602 7.3107 0.0000 37.6401 0.0000
# 6 0.0000 0.0000 0.0000 -21.1823 0.0000 3.6974
#
#
#
# Elastic Compliance Matrix: (Units=1/GPa)
#
#
# Indices 1 2 3 4 5 6 
#
# 1 0.038848 -0.001271 -0.006304 0.000000 -0.007128 0.000000
# 2 -0.001271 0.019966 -0.001413 0.000000 0.000304 0.000000
# 3 -0.006304 -0.001413 0.010501 0.000000 -0.000665 0.000000
# 4 0.000000 0.000000 0.000000 -0.010141 0.000000 -0.058099
# 5 -0.007128 0.000304 -0.000665 0.000000 0.028228 0.000000
# 6 0.000000 0.000000 0.000000 -0.058099 0.000000 -0.062390
#
#
# Mechanical properties :
#
#
# Convention : Reuss Voigt Hill
#
# Bulk Modulus (GPa) = 19.47805 28.01331 23.74568
# Shear Modulus (GPa) = 83.19305 23.38886 53.29096
#
# Velocity S-wave (km/s) = 6.35029 3.36709 5.08249
# Velocity P-wave (km/s) = 7.95046 5.35680 6.77883
#
# Compressibility (1/GPa) = 0.05133985
#
# Stress axis : x y z
#
# Youngs Moduli (GPa) = 25.74131 50.08536 95.22578
#
# Poissons Ratio (x) = 0.06366 0.60026
# Poissons Ratio (y) = 0.03272 0.13457
# Poissons Ratio (z) = 0.16226 0.07078
#
# Static dielectric constant tensor:
#      x y z
#    x 1.738650 0.000000 -0.007310 
#    y 0.000000 1.718790 0.000000 
#    z -0.007310 0.000000 1.729090 
# 
# From -- ./inp_files/42015.got.cif
#   From: 2010.05.17/outbox.cif.g08.bks.cpg/sg15_22_cif.got.tgz:42015.got - 2010.06.03 18:47:42.
