data_PCOD9274156
_publ_section_title
;
Structure prediction by ZEFSAII (Michael W. Deem and Ramdas Pophale) SiO2 
 PCOD9274156
Probable space group: C 2/C
;
_chemical_formula_sum "Si O2"
_cell_formula_units_Z 60
_cell_length_a 25.594988
_cell_length_b 17.404589
_cell_length_c 18.801200
_cell_angle_alpha 90.000000
_cell_angle_beta 164.249720
_cell_angle_gamma 90.000000
_cell_volume 2273.455005
_symmetry_space_group_name_H-M "C 2/C"
_symmetry_group_IT_number 15
_symmetry_cell_setting 'monoclinic'
loop_
_space_group_symop_operation_xyz
x,y,z
-x,y,1/2-z
-x,-y,-z
x,-y,1/2+z
1/2+x,1/2+y,z
1/2-x,1/2+y,1/2-z
1/2-x,1/2-y,-z
1/2+x,1/2-y,1/2+z
loop_
_atom_site_type_symbol
_atom_site_label
_atom_site_fract_x
_atom_site_fract_y
_atom_site_fract_z
Si Si1 0.641303 0.423185 0.807635
Si Si2 0.957387 0.403780 0.853466
Si Si3 0.500000 0.138682 0.250000
Si Si4 0.269545 0.317523 0.468355
Si Si5 0.331752 0.286423 0.399512
Si Si6 0.266135 0.506237 0.334510
Si Si7 0.754187 0.871384 0.701969
Si Si8 0.354971 0.729109 0.767092
O O1 0.769157 0.397045 0.041420
O O2 0.496440 0.349905 0.609297
O O3 0.493113 0.491078 0.627215
O O4 0.740449 0.423269 0.861431
O O5 0.799403 0.463932 0.675042
O O6 0.896370 0.316580 0.795935
O O7 0.990016 0.406963 0.811509
O O8 0.147663 0.434354 0.145582
O O9 0.690958 0.191000 0.503912
O O10 0.500000 0.321880 0.750000
O O11 0.250000 0.250000 0.500000
O O12 0.198707 0.302807 0.295047
O O13 0.393724 0.198696 0.499515
O O14 0.270339 0.275715 0.236758
O O15 0.210816 0.575609 0.210704
O O16 0.957563 0.827054 0.983944
#
# Coordination Sequence:
#
# PCOD9274156 Si02
#       8
#     8   8   4   8   8   8   8   8
#     4  10  21  37  65 100 143 182 230 281 343 423
#     4  11  25  46  72 102 145 182 230 295 356 425
#     4  12  26  48  74 108 134 180 248 306 352 410
#     4  10  20  38  61  98 139 179 228 289 338 409
#     4  10  20  38  67 102 130 182 236 284 341 407
#     4  11  24  45  71 106 142 188 228 284 362 432
#     4  11  20  39  72 104 136 184 236 289 347 421
#     4  11  23  44  76 105 135 182 243 303 348 413
#
# _framework density 26.391551
#
# number of rings (size 3 to 8) (size 9 to 14) (size 15 to 20)
#    0.000    1.333    2.667    4.000    0.000    0.000 
#    0.000    9.333    4.400    0.000    0.000    0.000 
#    0.000    0.000    0.000    0.000    0.000    0.000 
#
# Total GULP energy -167657.101071 kJ/mol
# GULP energy per Si atom -5588.570036 kJ/mol
# Density = 2.633148 g / cm^3
# Si number density = 26.391551 Si / 1000 Ang^3
#
#
#
# Elastic Constant Matrix: (Units=GPa)
#
#
# Indices 1 2 3 4 5 6 
#
# 1 191.9387 66.8036 10.0766 -0.0033 -4.4681 -0.0025
# 2 66.8036 96.1294 33.2554 0.0041 -14.7136 0.0034
# 3 10.0766 33.2554 57.5975 0.0039 -9.5029 0.0042
# 4 -0.0033 0.0041 0.0039 42.8652 0.0032 -0.8539
# 5 -4.4681 -14.7136 -9.5029 0.0032 28.2346 0.0030
# 6 -0.0025 0.0034 0.0042 -0.8539 0.0030 41.3542
#
#
#
# Elastic Compliance Matrix: (Units=1/GPa)
#
#
# Indices 1 2 3 4 5 6 
#
# 1 0.007091 -0.005771 0.001885 0.000001 -0.001251 0.000001
# 2 -0.005771 0.018259 -0.008590 -0.000002 0.005711 -0.000001
# 3 0.001885 -0.008590 0.022555 -0.000001 0.003413 -0.000002
# 4 0.000001 -0.000002 -0.000001 0.023339 -0.000004 0.000482
# 5 -0.001251 0.005711 0.003413 -0.000004 0.039344 -0.000004
# 6 0.000001 -0.000001 -0.000002 0.000482 -0.000004 0.024191
#
#
# Mechanical properties :
#
#
# Convention : Reuss Voigt Hill
#
# Bulk Modulus (GPa) = 43.56929 62.88186 53.22558
# Shear Modulus (GPa) = 29.87179 38.19279 34.03229
#
# Velocity S-wave (km/s) = 3.36798 3.80828 3.59488
# Velocity P-wave (km/s) = 5.62752 6.57386 6.11901
#
# Compressibility (1/GPa) = 0.02295195
#
# Stress axis : x y z
#
# Youngs Moduli (GPa) = 141.03365 54.76738 44.33592
#
# Poissons Ratio (x) = 0.31607 -0.08358
# Poissons Ratio (y) = 0.81391 0.38087
# Poissons Ratio (z) = -0.26588 0.47048
#
# Static dielectric constant tensor:
#      x y z
#    x 2.102760 -0.000010 -0.021790 
#    y -0.000010 2.120150 0.000010 
#    z -0.021790 0.000010 2.494020 
# 
# From -- ./inp_files/257878.got.cif
#   From: 2010.05.17/outbox.cif.g08.bks.cpg/sg15_129_cif.got.tgz:257878.got - 2010.06.03 18:47:42.
