data_PCOD9274249
_publ_section_title
;
Structure prediction by ZEFSAII (Michael W. Deem and Ramdas Pophale) SiO2 
 PCOD9274249
Probable space group: C 2/C
;
_chemical_formula_sum "Si O2"
_cell_formula_units_Z 56
_cell_length_a 7.984840
_cell_length_b 17.285866
_cell_length_c 19.342806
_cell_angle_alpha 90.000000
_cell_angle_beta 69.672977
_cell_angle_gamma 90.000000
_cell_volume 2503.527834
_symmetry_space_group_name_H-M "C 2/C"
_symmetry_group_IT_number 15
_symmetry_cell_setting 'monoclinic'
loop_
_space_group_symop_operation_xyz
x,y,z
-x,y,1/2-z
-x,-y,-z
x,-y,1/2+z
1/2+x,1/2+y,z
1/2-x,1/2+y,1/2-z
1/2-x,1/2-y,-z
1/2+x,1/2-y,1/2+z
loop_
_atom_site_type_symbol
_atom_site_label
_atom_site_fract_x
_atom_site_fract_y
_atom_site_fract_z
Si Si1 0.500000 0.245543 0.750000
Si Si2 0.610637 0.943496 0.932318
Si Si3 0.063446 0.969104 0.063667
Si Si4 0.324552 0.996905 0.729118
Si Si5 0.500000 0.252521 0.250000
Si Si6 0.167090 0.867479 0.309060
Si Si7 0.328815 0.352329 0.672958
Si Si8 0.294267 0.163653 0.468999
O O1 0.661862 0.187370 0.707615
O O2 0.486749 0.302942 0.685222
O O3 0.603394 0.969747 0.854275
O O4 0.504036 0.861530 0.945682
O O5 0.819893 0.960261 0.920350
O O6 0.500000 0.000000 0.000000
O O7 0.895412 0.928731 0.125287
O O8 0.196121 0.897761 0.032115
O O9 0.000000 0.000000 0.000000
O O10 0.500000 0.010247 0.750000
O O11 0.199800 0.934253 0.785535
O O12 0.217529 0.076707 0.737772
O O13 0.509284 0.308518 0.314125
O O14 0.333494 0.198188 0.274178
O O15 0.289060 0.351515 0.596397
O O16 0.250000 0.250000 0.500000
#
# Coordination Sequence:
#
# PCOD9274249 Si02
#       8
#     4   8   8   8   4   8   8   8
#     4  10  26  40  66  92 138 172 226 290 342 408
#     4  10  24  43  68 100 133 181 225 278 346 408
#     4  11  25  42  64  96 138 172 221 284 338 407
#     4  12  22  40  71  94 126 172 228 280 329 408
#     4  10  20  38  62  88 126 164 216 284 324 394
#     4  11  23  41  63  96 127 172 226 275 342 392
#     4  11  22  42  64  97 130 178 230 278 340 409
#     4  11  23  43  67  95 133 183 227 274 341 414
#
# _framework density 22.368435000000002
#
# number of rings (size 3 to 8) (size 9 to 14) (size 15 to 20)
#    0.000    1.143    2.857    2.571    2.000    8.571 
#    0.000    1.429    0.000    0.000    0.000    0.000 
#    0.000    0.000    0.000    0.000    0.000    0.000 
#
# Total GULP energy -156090.612928 kJ/mol
# GULP energy per Si atom -5574.664747 kJ/mol
# Density = 2.231752 g / cm^3
# Si number density = 22.368435 Si / 1000 Ang^3
#
#
#
# Elastic Constant Matrix: (Units=GPa)
#
#
# Indices 1 2 3 4 5 6 
#
# 1 81.6111 41.3042 6.1630 0.0000 8.9033 0.0000
# 2 41.3042 145.9260 22.0638 0.0000 0.0415 0.0000
# 3 6.1630 22.0638 75.5953 0.0000 7.1343 0.0000
# 4 0.0000 0.0000 0.0000 35.6840 0.0000 -6.6325
# 5 8.9033 0.0415 7.1343 0.0000 30.1533 0.0000
# 6 0.0000 0.0000 0.0000 -6.6325 0.0000 54.8921
#
#
#
# Elastic Compliance Matrix: (Units=1/GPa)
#
#
# Indices 1 2 3 4 5 6 
#
# 1 0.014874 -0.004278 0.000460 0.000000 -0.004495 0.000000
# 2 -0.004278 0.008407 -0.002274 0.000000 0.001790 0.000000
# 3 0.000460 -0.002274 0.014184 0.000000 -0.003489 0.000000
# 4 0.000000 0.000000 0.000000 0.028668 0.000000 0.003464
# 5 -0.004495 0.001790 -0.003489 0.000000 0.035314 0.000000
# 6 0.000000 0.000000 0.000000 0.003464 0.000000 0.018636
#
#
# Mechanical properties :
#
#
# Convention : Reuss Voigt Hill
#
# Bulk Modulus (GPa) = 39.55534 49.13270 44.34402
# Shear Modulus (GPa) = 35.53818 39.71930 37.62874
#
# Velocity S-wave (km/s) = 3.99026 4.21846 4.10594
# Velocity P-wave (km/s) = 6.24111 6.76314 6.50736
#
# Compressibility (1/GPa) = 0.02528103
#
# Stress axis : x y z
#
# Youngs Moduli (GPa) = 67.23046 118.94730 70.50337
#
# Poissons Ratio (x) = 0.50891 -0.03245
# Poissons Ratio (y) = 0.28764 0.16031
# Poissons Ratio (z) = -0.03095 0.27047
#
# Static dielectric constant tensor:
#      x y z
#    x 1.758630 0.000000 -0.227770 
#    y 0.000000 1.823430 0.000000 
#    z -0.227770 0.000000 1.500000 
# 
# From -- ./inp_files/190975.got.cif
#   From: 2010.05.17/outbox.cif.g08.bks.cpg/sg15_96_cif.got.tgz:190975.got - 2010.06.03 18:47:42.
