data_PCOD9274850
_publ_section_title
;
Structure prediction by ZEFSAII (Michael W. Deem and Ramdas Pophale) SiO2 
 PCOD9274850
Probable space group: C 2/C
;
_chemical_formula_sum "Si O2"
_cell_formula_units_Z 52
_cell_length_a 19.390670
_cell_length_b 18.962413
_cell_length_c 10.891306
_cell_angle_alpha 90.000000
_cell_angle_beta 147.121792
_cell_angle_gamma 90.000000
_cell_volume 2173.953614
_symmetry_space_group_name_H-M "C 2/C"
_symmetry_group_IT_number 15
_symmetry_cell_setting 'monoclinic'
loop_
_space_group_symop_operation_xyz
x,y,z
-x,y,1/2-z
-x,-y,-z
x,-y,1/2+z
1/2+x,1/2+y,z
1/2-x,1/2+y,1/2-z
1/2-x,1/2-y,-z
1/2+x,1/2-y,1/2+z
loop_
_atom_site_type_symbol
_atom_site_label
_atom_site_fract_x
_atom_site_fract_y
_atom_site_fract_z
Si Si1 0.774572 0.075410 0.576174
Si Si2 0.701866 0.135165 0.122464
Si Si3 0.500000 0.352707 0.750000
Si Si4 0.639699 0.795662 0.768309
Si Si5 0.394704 0.019667 0.986697
Si Si6 0.486771 0.671859 0.517582
Si Si7 0.270029 0.920175 0.095072
O O1 0.667396 0.127036 0.360947
O O2 0.729395 0.058354 0.644581
O O3 0.905285 0.118060 0.773622
O O4 0.774508 0.998200 0.516569
O O5 0.653461 0.195473 0.141448
O O6 0.853739 0.140465 0.360880
O O7 0.684541 0.130501 0.949150
O O8 0.644271 0.061461 0.080857
O O9 0.505002 0.321881 0.618298
O O10 0.360481 0.389482 0.545387
O O11 0.513967 0.750730 0.607585
O O12 0.750000 0.750000 0.000000
O O13 0.500000 0.025228 0.250000
O O14 0.397336 0.060240 0.862198
#
# Coordination Sequence:
#
# PCOD9274850 Si02
#       7
#     8   8   4   8   8   8   8
#     4  10  21  38  65  99 131 180 222 283 352 414
#     4  10  23  42  68 101 131 180 234 289 350 406
#     4  10  20  38  66 102 140 168 222 296 352 410
#     4  10  22  43  64  95 142 181 232 278 339 422
#     4  11  23  42  67 100 145 178 229 286 363 427
#     4  10  22  41  66  97 137 177 235 284 339 419
#     4  10  21  37  69 101 136 174 225 291 357 408
#
# _framework density 23.919553000000001
#
# number of rings (size 3 to 8) (size 9 to 14) (size 15 to 20)
#    0.000    1.846    3.077    0.000    2.154    6.769 
#    6.923    3.077    0.000    0.000    0.000    0.000 
#    0.000    0.000    0.000    0.000    0.000    0.000 
#
# Total GULP energy -144857.983361 kJ/mol
# GULP energy per Si atom -5571.460898 kJ/mol
# Density = 2.386511 g / cm^3
# Si number density = 23.919553 Si / 1000 Ang^3
#
#
#
# Elastic Constant Matrix: (Units=GPa)
#
#
# Indices 1 2 3 4 5 6 
#
# 1 67.0921 24.9206 33.3025 0.0000 8.9766 0.0000
# 2 24.9206 36.0024 36.3221 0.0000 9.9381 0.0000
# 3 33.3025 36.3221 126.3312 0.0000 -9.1991 0.0000
# 4 0.0000 0.0000 0.0000 17.3968 0.0000 3.3803
# 5 8.9766 9.9381 -9.1991 0.0000 27.5671 0.0000
# 6 0.0000 0.0000 0.0000 3.3803 0.0000 20.7769
#
#
#
# Elastic Compliance Matrix: (Units=1/GPa)
#
#
# Indices 1 2 3 4 5 6 
#
# 1 0.020668 -0.010518 -0.002704 0.000000 -0.003840 0.000000
# 2 -0.010518 0.056185 -0.014970 0.000000 -0.021825 0.000000
# 3 -0.002704 -0.014970 0.013723 0.000000 0.010857 0.000000
# 4 0.000000 0.000000 0.000000 0.059358 0.000000 -0.009657
# 5 -0.003840 -0.021825 0.010857 0.000000 0.049017 0.000000
# 6 0.000000 0.000000 0.000000 -0.009657 0.000000 0.049702
#
#
# Mechanical properties :
#
#
# Convention : Reuss Voigt Hill
#
# Bulk Modulus (GPa) = 29.24765 46.50177 37.87471
# Shear Modulus (GPa) = 15.80109 22.14018 18.97064
#
# Velocity S-wave (km/s) = 2.57299 3.04568 2.81926
# Velocity P-wave (km/s) = 4.59141 5.64370 5.14453
#
# Compressibility (1/GPa) = 0.03419078
#
# Stress axis : x y z
#
# Youngs Moduli (GPa) = 48.38488 17.79849 72.86902
#
# Poissons Ratio (x) = 0.18721 0.19702
# Poissons Ratio (y) = 0.50891 1.09088
# Poissons Ratio (z) = 0.13082 0.26645
#
# Static dielectric constant tensor:
#      x y z
#    x 2.007800 0.000000 -0.055670 
#    y 0.000000 1.897180 0.000000 
#    z -0.055670 0.000000 1.903740 
# 
# From -- ./inp_files/114413.got.cif
#   From: 2010.05.17/outbox.cif.g08.bks.cpg/sg15_58_cif.got.tgz:114413.got - 2010.06.03 18:47:42.
