data_PCOD9274159
_publ_section_title
;
Structure prediction by ZEFSAII (Michael W. Deem and Ramdas Pophale) SiO2 
 PCOD9274159
Probable space group: C 2/C
;
_chemical_formula_sum "Si O2"
_cell_formula_units_Z 44
_cell_length_a 25.371004
_cell_length_b 5.143126
_cell_length_c 13.175813
_cell_angle_alpha 90.000000
_cell_angle_beta 94.695068
_cell_angle_gamma 90.000000
_cell_volume 1713.493601
_symmetry_space_group_name_H-M "C 2/C"
_symmetry_group_IT_number 15
_symmetry_cell_setting 'monoclinic'
loop_
_space_group_symop_operation_xyz
x,y,z
-x,y,1/2-z
-x,-y,-z
x,-y,1/2+z
1/2+x,1/2+y,z
1/2-x,1/2+y,1/2-z
1/2-x,1/2-y,-z
1/2+x,1/2-y,1/2+z
loop_
_atom_site_type_symbol
_atom_site_label
_atom_site_fract_x
_atom_site_fract_y
_atom_site_fract_z
Si Si1 0.217899 0.674299 0.715099
Si Si2 0.635666 0.470559 0.311836
Si Si3 0.932664 0.325242 0.070737
Si Si4 0.500000 0.196611 0.750000
Si Si5 0.072700 0.935149 0.122788
Si Si6 0.655263 0.786188 0.008761
O O1 0.239028 0.400319 0.758227
O O2 0.167413 0.789225 0.768154
O O3 0.200891 0.652457 0.595262
O O4 0.585807 0.575938 0.367580
O O5 0.610915 0.306607 0.214523
O O6 0.670921 0.343401 0.404855
O O7 0.966222 0.468434 0.163198
O O8 0.879462 0.469653 0.030271
O O9 0.956127 0.242641 0.965655
O O10 0.466174 0.374259 0.822849
O O11 0.114150 0.103559 0.063519
#
# Coordination Sequence:
#
# PCOD9274159 Si02
#       6
#     8   8   8   4   8   8
#     4  11  27  44  69 104 138 174 231 286 338 409
#     4   9  22  41  64  92 131 178 220 273 345 400
#     4  10  21  39  65  89 133 176 224 275 337 406
#     4  10  20  38  62 100 130 174 230 278 336 398
#     4   9  20  39  61  92 130 175 221 275 338 402
#     4  10  23  41  65  92 131 180 219 278 344 402
#
# _framework density 25.678533000000002
#
# number of rings (size 3 to 8) (size 9 to 14) (size 15 to 20)
#    0.000    2.182    0.000    0.545   10.182    5.091 
#    0.000    9.091    0.000    0.000    0.000    0.000 
#    0.000    0.000    0.000    0.000    0.000    0.000 
#
# Total GULP energy -122909.987933 kJ/mol
# GULP energy per Si atom -5586.817633 kJ/mol
# Density = 2.562009 g / cm^3
# Si number density = 25.678533 Si / 1000 Ang^3
#
#
#
# Elastic Constant Matrix: (Units=GPa)
#
#
# Indices 1 2 3 4 5 6 
#
# 1 66.8758 10.3991 57.1419 0.0000 4.4754 0.0000
# 2 10.3991 49.1691 56.2969 0.0000 7.4137 0.0000
# 3 57.1419 56.2969 260.2550 0.0000 41.3829 0.0000
# 4 0.0000 0.0000 0.0000 21.3327 0.0000 -14.9209
# 5 4.4754 7.4137 41.3829 0.0000 54.8357 0.0000
# 6 0.0000 0.0000 0.0000 -14.9209 0.0000 39.4892
#
#
#
# Elastic Compliance Matrix: (Units=1/GPa)
#
#
# Indices 1 2 3 4 5 6 
#
# 1 0.018598 0.001061 -0.004601 0.000000 0.001811 0.000000
# 2 0.001061 0.027130 -0.006255 0.000000 0.000966 0.000000
# 3 -0.004601 -0.006255 0.006831 0.000000 -0.003934 0.000000
# 4 0.000000 0.000000 0.000000 0.063715 0.000000 0.024074
# 5 0.001811 0.000966 -0.003934 0.000000 0.020927 0.000000
# 6 0.000000 0.000000 0.000000 0.024074 0.000000 0.034420
#
#
# Mechanical properties :
#
#
# Convention : Reuss Voigt Hill
#
# Bulk Modulus (GPa) = 30.33087 69.33066 49.83076
# Shear Modulus (GPa) = 24.72796 39.96234 32.34515
#
# Velocity S-wave (km/s) = 3.10656 3.94922 3.55296
# Velocity P-wave (km/s) = 4.97042 6.91760 6.02321
#
# Compressibility (1/GPa) = 0.03296971
#
# Stress axis : x y z
#
# Youngs Moduli (GPa) = 53.76883 36.85973 146.38616
#
# Poissons Ratio (x) = -0.03913 0.67352
# Poissons Ratio (y) = -0.05707 0.91568
# Poissons Ratio (z) = 0.24739 0.23057
#
# Static dielectric constant tensor:
#      x y z
#    x 2.165790 0.000000 0.097130 
#    y 0.000000 2.052080 0.000000 
#    z 0.097130 0.000000 2.056610 
# 
# From -- ./inp_files/124959.got.cif
#   From: 2010.05.17/outbox.cif.g08.bks.cpg/sg15_63_cif.got.tgz:124959.got - 2010.06.03 18:47:42.
