data_PCOD9274842
_publ_section_title
;
Structure prediction by ZEFSAII (Michael W. Deem and Ramdas Pophale) SiO2 
 PCOD9274842
Probable space group: C 2/C
;
_chemical_formula_sum "Si O2"
_cell_formula_units_Z 64
_cell_length_a 9.208992
_cell_length_b 33.014279
_cell_length_c 17.674393
_cell_angle_alpha 90.000000
_cell_angle_beta 36.046385
_cell_angle_gamma 90.000000
_cell_volume 3161.990925
_symmetry_space_group_name_H-M "C 2/C"
_symmetry_group_IT_number 15
_symmetry_cell_setting 'monoclinic'
loop_
_space_group_symop_operation_xyz
x,y,z
-x,y,1/2-z
-x,-y,-z
x,-y,1/2+z
1/2+x,1/2+y,z
1/2-x,1/2+y,1/2-z
1/2-x,1/2-y,-z
1/2+x,1/2-y,1/2+z
loop_
_atom_site_type_symbol
_atom_site_label
_atom_site_fract_x
_atom_site_fract_y
_atom_site_fract_z
Si Si1 0.415037 0.121520 0.199740
Si Si2 0.204366 0.329024 0.455276
Si Si3 0.346638 0.310184 0.137253
Si Si4 0.286646 0.045664 0.155388
Si Si5 0.235875 0.776109 0.611149
Si Si6 0.580260 0.870162 0.356731
Si Si7 0.212400 0.452717 0.345873
Si Si8 0.573626 0.667063 0.062224
O O1 0.500000 0.117448 0.250000
O O2 0.613775 0.141602 0.060231
O O3 0.338508 0.078664 0.197257
O O4 0.183259 0.151888 0.297898
O O5 0.442222 0.306321 0.387924
O O6 0.224470 0.355783 0.371232
O O7 0.992512 0.297281 0.522725
O O8 0.255222 0.267292 0.143957
O O9 0.148093 0.338878 0.261773
O O10 0.445597 0.331357 0.019953
O O11 0.000000 0.050653 0.250000
O O12 0.311612 0.998998 0.171232
O O13 0.499980 0.051740 0.000863
O O14 0.166358 0.789162 0.554369
O O15 0.000000 0.796668 0.750000
O O16 0.653492 0.916431 0.312704
O O17 0.290583 0.863907 0.493690
O O18 0.500000 0.448173 0.250000
#
# Coordination Sequence:
#
# PCOD9274842 Si02
#       8
#     8   8   8   8   8   8   8   8
#     4  12  23  41  65  95 129 165 212 264 330 374
#     4  11  23  41  63  91 121 169 210 267 314 381
#     4  12  24  42  59  94 128 166 212 264 330 380
#     4  10  22  39  68  99 130 167 223 269 317 392
#     4  11  23  40  64  89 120 164 219 267 320 376
#     4  11  23  40  68  92 127 172 215 261 322 393
#     4  10  20  38  66 100 129 169 218 270 319 388
#     4  11  24  41  65  90 125 169 213 270 315 385
#
# _framework density 20.240414000000001
#
# number of rings (size 3 to 8) (size 9 to 14) (size 15 to 20)
#    0.000    1.000    3.750    3.750    1.750    1.000 
#    0.000    2.500    0.000    8.250    0.000    0.000 
#    0.000    0.000    0.000    0.000    0.000    0.000 
#
# Total GULP energy -178489.004002 kJ/mol
# GULP energy per Si atom -5577.781375 kJ/mol
# Density = 2.019435 g / cm^3
# Si number density = 20.240414 Si / 1000 Ang^3
#
#
#
# Elastic Constant Matrix: (Units=GPa)
#
#
# Indices 1 2 3 4 5 6 
#
# 1 119.5637 47.2660 31.7874 0.0000 1.8608 0.0000
# 2 47.2660 137.6725 21.7726 0.0000 3.3358 0.0000
# 3 31.7874 21.7726 66.7423 0.0000 -4.1132 0.0000
# 4 0.0000 0.0000 0.0000 21.6040 0.0000 -8.1855
# 5 1.8608 3.3358 -4.1132 0.0000 41.2558 0.0000
# 6 0.0000 0.0000 0.0000 -8.1855 0.0000 -114.6398
#
#
#
# Elastic Compliance Matrix: (Units=1/GPa)
#
#
# Indices 1 2 3 4 5 6 
#
# 1 0.010656 -0.002988 -0.004141 0.000000 -0.000652 0.000000
# 2 -0.002988 0.008528 -0.001402 0.000000 -0.000695 0.000000
# 3 -0.004141 -0.001402 0.017539 0.000000 0.002049 0.000000
# 4 0.000000 0.000000 0.000000 0.045068 0.000000 -0.003218
# 5 -0.000652 -0.000695 0.002049 0.000000 0.024529 0.000000
# 6 0.000000 0.000000 0.000000 -0.003218 0.000000 -0.008493
#
#
# Mechanical properties :
#
#
# Convention : Reuss Voigt Hill
#
# Bulk Modulus (GPa) = 50.85931 58.40339 54.63135
# Shear Modulus (GPa) = 41.17239 4.52082 22.84661
#
# Velocity S-wave (km/s) = 4.51507 1.49613 3.36335
# Velocity P-wave (km/s) = 7.23625 5.64819 6.49097
#
# Compressibility (1/GPa) = 0.01966208
#
# Stress axis : x y z
#
# Youngs Moduli (GPa) = 93.84534 117.26214 57.01716
#
# Poissons Ratio (x) = 0.35035 0.23608
# Poissons Ratio (y) = 0.28039 0.07993
# Poissons Ratio (z) = 0.38857 0.16438
#
# Static dielectric constant tensor:
#      x y z
#    x 1.705720 0.000000 -0.003360 
#    y 0.000000 1.717300 0.000000 
#    z -0.003360 0.000000 1.759580 
# 
# From -- ./inp_files/194239.got.cif
#   From: 2010.05.17/outbox.cif.g08.bks.cpg/sg15_98_cif.got.tgz:194239.got - 2010.06.03 18:47:42.
