data_PCOD9274736
_publ_section_title
;
Structure prediction by ZEFSAII (Michael W. Deem and Ramdas Pophale) SiO2 
 PCOD9274736
Probable space group: C 2/C
;
_chemical_formula_sum "Si O2"
_cell_formula_units_Z 40
_cell_length_a 26.669228
_cell_length_b 8.670379
_cell_length_c 26.271559
_cell_angle_alpha 90.000000
_cell_angle_beta 162.105318
_cell_angle_gamma 90.000000
_cell_volume 1866.603684
_symmetry_space_group_name_H-M "C 2/C"
_symmetry_group_IT_number 15
_symmetry_cell_setting 'monoclinic'
loop_
_space_group_symop_operation_xyz
x,y,z
-x,y,1/2-z
-x,-y,-z
x,-y,1/2+z
1/2+x,1/2+y,z
1/2-x,1/2+y,1/2-z
1/2-x,1/2-y,-z
1/2+x,1/2-y,1/2+z
loop_
_atom_site_type_symbol
_atom_site_label
_atom_site_fract_x
_atom_site_fract_y
_atom_site_fract_z
Si Si1 0.816839 0.085798 0.378643
Si Si2 0.399477 0.424529 0.789529
Si Si3 0.726548 0.187894 0.033805
Si Si4 0.595594 0.903298 0.227842
Si Si5 0.670341 0.934642 0.144463
O O1 0.831755 0.256384 0.371873
O O2 0.652931 0.053558 0.253711
O O3 0.799440 0.971039 0.313961
O O4 0.968309 0.038532 0.559949
O O5 0.366766 0.415474 0.696924
O O6 0.433018 0.245457 0.836354
O O7 0.230522 0.473640 0.652795
O O8 0.747466 0.341654 0.088582
O O9 0.750000 0.250000 0.000000
O O10 0.556985 0.101493 0.881232
O O11 0.500000 0.000000 0.000000
#
# Coordination Sequence:
#
# PCOD9274736 Si02
#       5
#     8   8   8   8   8
#     4  12  24  42  64  96 143 188 233 288 340 421
#     4  10  22  41  60  95 136 173 234 292 348 409
#     4  10  20  38  70 101 129 173 234 293 352 411
#     4  10  20  38  64  98 134 169 231 281 346 405
#     4  12  26  42  66  98 139 192 237 279 352 418
#
# _framework density 21.429293999999999
#
# number of rings (size 3 to 8) (size 9 to 14) (size 15 to 20)
#    1.200    0.000    2.000    4.800    0.000    3.200 
#    0.000    2.000    0.000    1.200    5.200    0.000 
#    0.000    0.000    0.000    0.000    0.000    0.000 
#
# Total GULP energy -111531.842001 kJ/mol
# GULP energy per Si atom -5576.592100 kJ/mol
# Density = 2.138052 g / cm^3
# Si number density = 21.429294 Si / 1000 Ang^3
#
#
#
# Elastic Constant Matrix: (Units=GPa)
#
#
# Indices 1 2 3 4 5 6 
#
# 1 132.0274 62.6398 56.7785 -0.0047 -6.6185 0.0008
# 2 62.6398 136.5390 57.2779 -0.0159 3.9815 -0.0034
# 3 56.7785 57.2779 114.4641 -0.0243 3.5965 -0.0057
# 4 -0.0047 -0.0159 -0.0243 28.1630 -0.0082 4.0728
# 5 -6.6185 3.9815 3.5965 -0.0082 36.8108 0.0003
# 6 0.0008 -0.0034 -0.0057 4.0728 0.0003 34.0443
#
#
#
# Elastic Compliance Matrix: (Units=1/GPa)
#
#
# Indices 1 2 3 4 5 6 
#
# 1 0.011020 -0.003552 -0.003775 -0.000002 0.002734 -0.000001
# 2 -0.003552 0.010426 -0.003410 0.000002 -0.001433 0.000000
# 3 -0.003775 -0.003410 0.012363 0.000008 -0.001518 0.000001
# 4 -0.000002 0.000002 0.000008 0.036133 0.000007 -0.004323
# 5 0.002734 -0.001433 -0.001518 0.000007 0.027961 -0.000002
# 6 -0.000001 0.000000 0.000001 -0.004323 -0.000002 0.029891
#
#
# Mechanical properties :
#
#
# Convention : Reuss Voigt Hill
#
# Bulk Modulus (GPa) = 81.07085 81.82479 81.44782
# Shear Modulus (GPa) = 32.59926 33.55924 33.07925
#
# Velocity S-wave (km/s) = 3.90455 3.96162 3.93319
# Velocity P-wave (km/s) = 7.63160 7.69366 7.66269
#
# Compressibility (1/GPa) = 0.01233489
#
# Stress axis : x y z
#
# Youngs Moduli (GPa) = 90.74651 95.91693 80.88658
#
# Poissons Ratio (x) = 0.34067 0.30533
# Poissons Ratio (y) = 0.32230 0.27584
# Poissons Ratio (z) = 0.34255 0.32710
#
# Static dielectric constant tensor:
#      x y z
#    x 1.828630 0.000000 0.030280 
#    y 0.000000 1.750110 0.000000 
#    z 0.030280 0.000000 1.924730 
# 
# From -- ./inp_files/303128.got.cif
#   From: 2010.05.17/outbox.cif.g08.bks.cpg/sg15_152_cif.got.tgz:303128.got - 2010.06.03 18:47:42.
