data_PCOD9274225
_publ_section_title
;
Structure prediction by ZEFSAII (Michael W. Deem and Ramdas Pophale) SiO2 
 PCOD9274225
Probable space group: C 2/C
;
_chemical_formula_sum "Si O2"
_cell_formula_units_Z 60
_cell_length_a 15.871766
_cell_length_b 15.027394
_cell_length_c 20.430653
_cell_angle_alpha 90.000000
_cell_angle_beta 40.774335
_cell_angle_gamma 90.000000
_cell_volume 3182.427524
_symmetry_space_group_name_H-M "C 2/C"
_symmetry_group_IT_number 15
_symmetry_cell_setting 'monoclinic'
loop_
_space_group_symop_operation_xyz
x,y,z
-x,y,1/2-z
-x,-y,-z
x,-y,1/2+z
1/2+x,1/2+y,z
1/2-x,1/2+y,1/2-z
1/2-x,1/2-y,-z
1/2+x,1/2-y,1/2+z
loop_
_atom_site_type_symbol
_atom_site_label
_atom_site_fract_x
_atom_site_fract_y
_atom_site_fract_z
Si Si1 0.313396 0.507605 0.448397
Si Si2 0.627985 0.766742 0.238706
Si Si3 0.285639 0.334839 0.397886
Si Si4 0.467197 0.740474 0.897809
Si Si5 0.265014 0.210180 0.289554
Si Si6 0.500000 0.606213 0.250000
Si Si7 0.833450 0.327261 0.417641
Si Si8 0.417293 0.417826 0.517484
O O1 0.275826 0.439492 0.413540
O O2 0.443520 0.552241 0.343998
O O3 0.208147 0.581939 0.524583
O O4 0.338659 0.457413 0.501880
O O5 0.695883 0.746789 0.266073
O O6 0.609247 0.672152 0.213065
O O7 0.484376 0.804699 0.335551
O O8 0.694073 0.827695 0.144467
O O9 0.412953 0.305511 0.363580
O O10 0.158116 0.293491 0.505128
O O11 0.283518 0.292716 0.328169
O O12 0.586067 0.806993 0.816861
O O13 0.495654 0.663498 0.935583
O O14 0.180522 0.132452 0.374188
O O15 0.750000 0.250000 0.500000
O O16 0.500000 0.500000 0.500000
#
# Coordination Sequence:
#
# PCOD9274225 Si02
#       8
#     8   8   8   8   8   4   8   8
#     4  11  21  38  63  87 121 162 208 265 301 375
#     4  10  22  38  60  91 113 165 209 244 324 373
#     4   9  21  38  59  89 119 163 203 246 311 376
#     4   9  20  40  61  86 124 167 204 241 315 381
#     4  11  22  40  63  90 129 161 200 260 318 377
#     4  10  20  38  62  88 114 156 216 254 310 370
#     4  10  20  40  62  83 119 163 204 255 312 374
#     4  10  23  38  62  97 124 159 216 267 305 368
#
# _framework density 18.853532000000001
#
# number of rings (size 3 to 8) (size 9 to 14) (size 15 to 20)
#    0.000    2.133    2.667    2.000    5.600    1.067 
#    4.800    0.667    0.000    0.000    0.000    0.000 
#    0.000    0.000    0.000    0.000    0.000    0.000 
#
# Total GULP energy -167094.268131 kJ/mol
# GULP energy per Si atom -5569.808938 kJ/mol
# Density = 1.881062 g / cm^3
# Si number density = 18.853532 Si / 1000 Ang^3
#
#
#
# Elastic Constant Matrix: (Units=GPa)
#
#
# Indices 1 2 3 4 5 6 
#
# 1 87.5083 5.5115 27.0450 0.0000 1.1006 0.0000
# 2 5.5115 61.2685 11.2258 0.0000 -11.4869 0.0000
# 3 27.0450 11.2258 95.3248 0.0000 -3.4860 0.0000
# 4 0.0000 0.0000 0.0000 6.5832 0.0000 8.5006
# 5 1.1006 -11.4869 -3.4860 0.0000 12.8900 0.0000
# 6 0.0000 0.0000 0.0000 8.5006 0.0000 26.8524
#
#
#
# Elastic Compliance Matrix: (Units=1/GPa)
#
#
# Indices 1 2 3 4 5 6 
#
# 1 0.012634 -0.001039 -0.003571 0.000000 -0.002970 0.000000
# 2 -0.001039 0.019953 -0.001415 0.000000 0.017487 0.000000
# 3 -0.003571 -0.001415 0.011751 0.000000 0.002222 0.000000
# 4 0.000000 0.000000 0.000000 0.256923 0.000000 -0.081333
# 5 -0.002970 0.017487 0.002222 0.000000 0.094018 0.000000
# 6 0.000000 0.000000 0.000000 -0.081333 0.000000 0.062988
#
#
# Mechanical properties :
#
#
# Convention : Reuss Voigt Hill
#
# Bulk Modulus (GPa) = 30.97153 36.85180 33.91166
# Shear Modulus (GPa) = 10.39329 22.61973 16.50651
#
# Velocity S-wave (km/s) = 2.35045 3.46751 2.96212
# Velocity P-wave (km/s) = 4.88152 5.96828 5.45205
#
# Compressibility (1/GPa) = 0.03228772
#
# Stress axis : x y z
#
# Youngs Moduli (GPa) = 79.15258 50.11786 85.09604
#
# Poissons Ratio (x) = 0.05208 0.30385
# Poissons Ratio (y) = 0.08225 0.12045
# Poissons Ratio (z) = 0.28263 0.07094
#
# Static dielectric constant tensor:
#      x y z
#    x 1.662330 0.000000 0.019500 
#    y 0.000000 1.683320 0.000000 
#    z 0.019500 0.000000 1.674090 
# 
# From -- ./inp_files/244690.got.cif
#   From: 2010.05.17/outbox.cif.g08.bks.cpg/sg15_123_cif.got.tgz:244690.got - 2010.06.03 18:47:42.
