data_PCOD9274758
_publ_section_title
;
Structure prediction by ZEFSAII (Michael W. Deem and Ramdas Pophale) SiO2 
 PCOD9274758
Probable space group: C 2/C
;
_chemical_formula_sum "Si O2"
_cell_formula_units_Z 56
_cell_length_a 23.483709
_cell_length_b 8.491509
_cell_length_c 13.762539
_cell_angle_alpha 90.000000
_cell_angle_beta 110.862768
_cell_angle_gamma 90.000000
_cell_volume 2564.482454
_symmetry_space_group_name_H-M "C 2/C"
_symmetry_group_IT_number 15
_symmetry_cell_setting 'monoclinic'
loop_
_space_group_symop_operation_xyz
x,y,z
-x,y,1/2-z
-x,-y,-z
x,-y,1/2+z
1/2+x,1/2+y,z
1/2-x,1/2+y,1/2-z
1/2-x,1/2-y,-z
1/2+x,1/2-y,1/2+z
loop_
_atom_site_type_symbol
_atom_site_label
_atom_site_fract_x
_atom_site_fract_y
_atom_site_fract_z
Si Si1 0.738480 0.286569 0.122084
Si Si2 0.815385 0.232846 0.482587
Si Si3 0.063186 0.995201 0.636350
Si Si4 0.305830 0.534178 0.275441
Si Si5 0.065818 0.722500 0.773699
Si Si6 0.568033 0.469862 0.410369
Si Si7 0.832283 0.419291 0.040129
O O1 0.735197 0.390220 0.216085
O O2 0.780094 0.137640 0.173142
O O3 0.768496 0.395015 0.058398
O O4 0.674418 0.219213 0.044208
O O5 0.750000 0.250000 0.500000
O O6 0.809630 0.144551 0.374788
O O7 0.872615 0.139414 0.566753
O O8 0.837220 0.414130 0.491659
O O9 0.129751 0.042423 0.712227
O O10 0.064002 0.807943 0.667405
O O11 0.066118 0.014583 0.523050
O O12 0.003753 0.080509 0.643329
O O13 0.118342 0.610434 0.845515
O O14 0.000000 0.647514 0.750000
O O15 0.071700 0.876110 0.846306
#
# Coordination Sequence:
#
# PCOD9274758 Si02
#       7
#     8   8   8   8   8   8   8
#     4  11  23  36  62  90 123 162 203 254 319 369
#     4  11  22  37  60  89 128 161 202 260 311 374
#     4   9  18  36  60  86 116 158 211 252 290 378
#     4  11  21  39  61  91 123 164 209 257 310 383
#     4  10  20  38  65  85 115 167 210 252 308 374
#     4   9  20  36  61  88 116 160 211 255 304 361
#     4  11  22  39  58  88 125 160 198 257 317 373
#
# _framework density 21.836765
#
# number of rings (size 3 to 8) (size 9 to 14) (size 15 to 20)
#    0.000    1.714    2.857    2.571    2.000    1.143 
#    0.000    2.143    0.000   22.286    0.000    0.000 
#    0.000    0.000    0.000    0.000    0.000    0.000 
#
# Total GULP energy -155910.058717 kJ/mol
# GULP energy per Si atom -5568.216383 kJ/mol
# Density = 2.178706 g / cm^3
# Si number density = 21.836765 Si / 1000 Ang^3
#
#
#
# Elastic Constant Matrix: (Units=GPa)
#
#
# Indices 1 2 3 4 5 6 
#
# 1 105.9934 25.4549 31.8240 0.0000 18.7901 0.0000
# 2 25.4549 59.4856 18.6233 0.0000 18.1010 0.0000
# 3 31.8240 18.6233 92.9270 0.0000 6.8156 0.0000
# 4 0.0000 0.0000 0.0000 38.1533 0.0000 3.0687
# 5 18.7901 18.1010 6.8156 0.0000 36.0802 0.0000
# 6 0.0000 0.0000 0.0000 3.0687 0.0000 21.0694
#
#
#
# Elastic Compliance Matrix: (Units=1/GPa)
#
#
# Indices 1 2 3 4 5 6 
#
# 1 0.011793 -0.002792 -0.003175 0.000000 -0.004141 0.000000
# 2 -0.002792 0.021546 -0.002713 0.000000 -0.008843 0.000000
# 3 -0.003175 -0.002713 0.012342 0.000000 0.000683 0.000000
# 4 0.000000 0.000000 0.000000 0.026521 0.000000 -0.003863
# 5 -0.004141 -0.008843 0.000683 0.000000 0.034180 0.000000
# 6 0.000000 0.000000 0.000000 -0.003863 0.000000 0.048025
#
#
# Mechanical properties :
#
#
# Convention : Reuss Voigt Hill
#
# Bulk Modulus (GPa) = 35.31157 45.57896 40.44526
# Shear Modulus (GPa) = 27.59282 31.22749 29.41016
#
# Velocity S-wave (km/s) = 3.55856 3.78569 3.67388
# Velocity P-wave (km/s) = 5.75242 6.32665 6.04635
#
# Compressibility (1/GPa) = 0.02831933
#
# Stress axis : x y z
#
# Youngs Moduli (GPa) = 84.79965 46.41282 81.02313
#
# Poissons Ratio (x) = 0.12959 0.25727
# Poissons Ratio (y) = 0.23677 0.21983
# Poissons Ratio (z) = 0.26926 0.12593
#
# Static dielectric constant tensor:
#      x y z
#    x 1.895290 0.000000 0.010490 
#    y 0.000000 1.794620 0.000000 
#    z 0.010490 0.000000 1.902120 
# 
# From -- ./inp_files/171967.got.cif
#   From: 2010.05.17/outbox.cif.g08.bks.cpg/sg15_86_cif.got.tgz:171967.got - 2010.06.03 18:47:42.
