data_PCOD9274091
_publ_section_title
;
Structure prediction by ZEFSAII (Michael W. Deem and Ramdas Pophale) SiO2 
 PCOD9274091
Probable space group: C 2/C
;
_chemical_formula_sum "Si O2"
_cell_formula_units_Z 64
_cell_length_a 8.970203
_cell_length_b 27.051757
_cell_length_c 13.572848
_cell_angle_alpha 90.000000
_cell_angle_beta 99.147629
_cell_angle_gamma 90.000000
_cell_volume 3251.696099
_symmetry_space_group_name_H-M "C 2/C"
_symmetry_group_IT_number 15
_symmetry_cell_setting 'monoclinic'
loop_
_space_group_symop_operation_xyz
x,y,z
-x,y,1/2-z
-x,-y,-z
x,-y,1/2+z
1/2+x,1/2+y,z
1/2-x,1/2+y,1/2-z
1/2-x,1/2-y,-z
1/2+x,1/2-y,1/2+z
loop_
_atom_site_type_symbol
_atom_site_label
_atom_site_fract_x
_atom_site_fract_y
_atom_site_fract_z
Si Si1 0.345800 0.618221 0.626600
Si Si2 0.628346 0.920730 0.392276
Si Si3 0.579440 0.769285 0.651124
Si Si4 0.186945 0.463369 0.200673
Si Si5 0.664819 0.341183 0.155157
Si Si6 0.365833 0.071825 0.378725
Si Si7 0.359640 0.852824 0.577387
Si Si8 0.177683 0.154521 0.259414
O O1 0.322649 0.561107 0.654767
O O2 0.320435 0.650029 0.724833
O O3 0.515958 0.628000 0.610912
O O4 0.230960 0.634461 0.530124
O O5 0.710213 0.954456 0.318860
O O6 0.453320 0.928588 0.347691
O O7 0.690422 0.865662 0.380495
O O8 0.654312 0.935396 0.506790
O O9 0.500000 0.764226 0.750000
O O10 0.626582 0.714831 0.623641
O O11 0.460110 0.802888 0.578587
O O12 0.730129 0.801350 0.679469
O O13 0.138777 0.518527 0.171695
O O14 0.520515 0.103541 0.383261
O O15 0.233848 0.104921 0.319115
O O16 0.242705 0.847362 0.655110
O O17 0.000000 0.160623 0.250000
#
# Coordination Sequence:
#
# PCOD9274091 Si02
#       8
#     8   8   8   8   8   8   8   8
#     4  10  20  38  61  89 124 161 205 251 309 365
#     4  10  22  37  62  91 123 155 211 250 300 363
#     4   9  18  42  63  85 121 167 203 250 310 364
#     4  10  22  39  62  90 123 161 208 252 297 368
#     4  10  21  40  60  88 134 158 195 265 313 351
#     4  11  22  42  65  88 126 165 202 253 309 364
#     4  10  22  38  67  88 118 165 215 247 304 379
#     4  10  24  42  59  93 124 154 209 261 303 368
#
# _framework density 19.682036
#
# number of rings (size 3 to 8) (size 9 to 14) (size 15 to 20)
#    0.000    2.000    2.500    1.500    5.250    0.500 
#    9.000    3.125    0.000    0.000    0.000    0.000 
#    0.000    0.000    0.000    0.000    0.000    0.000 
#
# Total GULP energy -178576.938866 kJ/mol
# GULP energy per Si atom -5580.529340 kJ/mol
# Density = 1.963724 g / cm^3
# Si number density = 19.682036 Si / 1000 Ang^3
#
#
#
# Elastic Constant Matrix: (Units=GPa)
#
#
# Indices 1 2 3 4 5 6 
#
# 1 108.9287 53.4371 14.4728 0.0000 10.3056 0.0000
# 2 53.4371 117.7823 7.8691 0.0000 -2.4037 0.0000
# 3 14.4728 7.8691 58.2950 0.0000 1.2701 0.0000
# 4 0.0000 0.0000 0.0000 10.4964 0.0000 2.0710
# 5 10.3056 -2.4037 1.2701 0.0000 20.4359 0.0000
# 6 0.0000 0.0000 0.0000 2.0710 0.0000 7.2185
#
#
#
# Elastic Compliance Matrix: (Units=1/GPa)
#
#
# Indices 1 2 3 4 5 6 
#
# 1 0.013064 -0.005920 -0.002289 0.000000 -0.007142 0.000000
# 2 -0.005920 0.011274 -0.000146 0.000000 0.004321 0.000000
# 3 -0.002289 -0.000146 0.017741 0.000000 0.000034 0.000000
# 4 0.000000 0.000000 0.000000 0.100987 0.000000 -0.028973
# 5 -0.007142 0.004321 0.000034 0.000000 0.053041 0.000000
# 6 0.000000 0.000000 0.000000 -0.028973 0.000000 0.146845
#
#
# Mechanical properties :
#
#
# Convention : Reuss Voigt Hill
#
# Bulk Modulus (GPa) = 39.41705 48.50711 43.96208
# Shear Modulus (GPa) = 13.58255 21.57863 17.58059
#
# Velocity S-wave (km/s) = 2.62982 3.31473 2.99194
# Velocity P-wave (km/s) = 5.41218 6.27286 5.85835
#
# Compressibility (1/GPa) = 0.02536973
#
# Stress axis : x y z
#
# Youngs Moduli (GPa) = 76.54438 88.69909 56.36559
#
# Poissons Ratio (x) = 0.52510 0.12900
# Poissons Ratio (y) = 0.45315 0.00824
# Poissons Ratio (z) = 0.17519 0.01297
#
# Static dielectric constant tensor:
#      x y z
#    x 1.704790 0.000000 -0.022080 
#    y 0.000000 1.701250 0.000000 
#    z -0.022080 0.000000 1.696340 
# 
# From -- ./inp_files/138622.got.cif
#   From: 2010.05.17/outbox.cif.g08.bks.cpg/sg15_70_cif.got.tgz:138622.got - 2010.06.03 18:47:42.
