data_PCOD9274817
_publ_section_title
;
Structure prediction by ZEFSAII (Michael W. Deem and Ramdas Pophale) SiO2 
 PCOD9274817
Probable space group: C 2/C
;
_chemical_formula_sum "Si O2"
_cell_formula_units_Z 56
_cell_length_a 10.699769
_cell_length_b 8.549298
_cell_length_c 22.958061
_cell_angle_alpha 90.000000
_cell_angle_beta 104.470337
_cell_angle_gamma 90.000000
_cell_volume 2033.479225
_symmetry_space_group_name_H-M "C 2/C"
_symmetry_group_IT_number 15
_symmetry_cell_setting 'monoclinic'
loop_
_space_group_symop_operation_xyz
x,y,z
-x,y,1/2-z
-x,-y,-z
x,-y,1/2+z
1/2+x,1/2+y,z
1/2-x,1/2+y,1/2-z
1/2-x,1/2-y,-z
1/2+x,1/2-y,1/2+z
loop_
_atom_site_type_symbol
_atom_site_label
_atom_site_fract_x
_atom_site_fract_y
_atom_site_fract_z
Si Si1 0.185943 0.288733 0.260272
Si Si2 0.023692 0.210605 0.972711
Si Si3 0.028400 0.796934 0.155118
Si Si4 0.262834 0.901694 0.060755
Si Si5 0.124306 0.897749 0.861986
Si Si6 0.196224 0.605539 0.318358
Si Si7 0.703938 0.078880 0.547806
O O1 0.333791 0.287056 0.300170
O O2 0.113962 0.178944 0.297978
O O3 0.153315 0.469372 0.267953
O O4 0.192173 0.209997 0.198213
O O5 0.973949 0.291963 0.907264
O O6 0.160371 0.147419 0.961843
O O7 0.891904 0.117218 0.970578
O O8 0.084949 0.303696 0.033526
O O9 0.920007 0.721319 0.181723
O O10 0.991098 0.979792 0.140413
O O11 0.337481 0.746545 0.091259
O O12 0.271670 0.021189 0.116307
O O13 0.326160 0.958402 0.008044
O O14 0.250437 0.007652 0.886439
#
# Coordination Sequence:
#
# PCOD9274817 Si02
#       7
#     8   8   8   8   8   8   8
#     4  11  24  46  64  96 129 167 219 275 326 392
#     4  10  20  38  65  94 130 174 215 259 329 382
#     4  11  21  44  66  89 130 173 206 270 330 378
#     4  11  21  41  64  99 133 171 218 272 323 384
#     4  10  23  40  66  97 131 171 222 266 321 395
#     4  11  23  41  72  92 127 170 218 273 330 391
#     4  10  21  38  64  97 135 173 221 264 314 394
#
# _framework density 27.539006000000001
#
# number of rings (size 3 to 8) (size 9 to 14) (size 15 to 20)
#    0.000    1.429    4.286    2.143    0.000    0.571 
#    0.000   10.000    0.000    0.000    0.000    0.000 
#    0.000    0.000    0.000    0.000    0.000    0.000 
#
# Total GULP energy -156552.139056 kJ/mol
# GULP energy per Si atom -5591.147823 kJ/mol
# Density = 2.747633 g / cm^3
# Si number density = 27.539006 Si / 1000 Ang^3
#
#
#
# Elastic Constant Matrix: (Units=GPa)
#
#
# Indices 1 2 3 4 5 6 
#
# 1 101.9995 33.1480 12.3721 0.0000 26.9417 0.0000
# 2 33.1480 93.6384 43.4697 0.0000 22.7821 0.0000
# 3 12.3721 43.4697 90.9782 0.0000 15.0227 0.0000
# 4 0.0000 0.0000 0.0000 36.0254 0.0000 8.8537
# 5 26.9417 22.7821 15.0227 0.0000 50.7224 0.0000
# 6 0.0000 0.0000 0.0000 8.8537 0.0000 33.6683
#
#
#
# Elastic Compliance Matrix: (Units=1/GPa)
#
#
# Indices 1 2 3 4 5 6 
#
# 1 0.012189 -0.003448 0.000844 0.000000 -0.005176 0.000000
# 2 -0.003448 0.015720 -0.006496 0.000000 -0.003305 0.000000
# 3 0.000844 -0.006496 0.014271 0.000000 -0.001757 0.000000
# 4 0.000000 0.000000 0.000000 0.029676 0.000000 -0.007804
# 5 -0.005176 -0.003305 -0.001757 0.000000 0.024469 0.000000
# 6 0.000000 0.000000 0.000000 -0.007804 0.000000 0.031754
#
#
# Mechanical properties :
#
#
# Convention : Reuss Voigt Hill
#
# Bulk Modulus (GPa) = 41.70020 51.62172 46.66096
# Shear Modulus (GPa) = 32.41030 37.25832 34.83431
#
# Velocity S-wave (km/s) = 3.43430 3.68221 3.56041
# Velocity P-wave (km/s) = 5.55887 6.07156 5.82086
#
# Compressibility (1/GPa) = 0.02398070
#
# Stress axis : x y z
#
# Youngs Moduli (GPa) = 82.04043 63.61400 70.07227
#
# Poissons Ratio (x) = 0.21932 -0.05917
# Poissons Ratio (y) = 0.28284 0.45521
# Poissons Ratio (z) = -0.06927 0.41326
#
# Static dielectric constant tensor:
#      x y z
#    x 2.128140 0.000000 0.009100 
#    y 0.000000 2.303340 0.000000 
#    z 0.009100 0.000000 2.143710 
# 
# From -- ./inp_files/291602.got.cif
#   From: 2010.05.17/outbox.cif.g08.bks.cpg/sg15_146_cif.got.tgz:291602.got - 2010.06.03 18:47:42.
