data_PCOD9274486
_publ_section_title
;
Structure prediction by ZEFSAII (Michael W. Deem and Ramdas Pophale) SiO2 
 PCOD9274486
Probable space group: C 2/C
;
_chemical_formula_sum "Si O2"
_cell_formula_units_Z 56
_cell_length_a 14.703919
_cell_length_b 17.356320
_cell_length_c 13.822943
_cell_angle_alpha 90.000000
_cell_angle_beta 125.260840
_cell_angle_gamma 90.000000
_cell_volume 2880.478661
_symmetry_space_group_name_H-M "C 2/C"
_symmetry_group_IT_number 15
_symmetry_cell_setting 'monoclinic'
loop_
_space_group_symop_operation_xyz
x,y,z
-x,y,1/2-z
-x,-y,-z
x,-y,1/2+z
1/2+x,1/2+y,z
1/2-x,1/2+y,1/2-z
1/2-x,1/2-y,-z
1/2+x,1/2-y,1/2+z
loop_
_atom_site_type_symbol
_atom_site_label
_atom_site_fract_x
_atom_site_fract_y
_atom_site_fract_z
Si Si1 0.238194 0.030772 0.748687
Si Si2 0.159443 0.106424 0.079553
Si Si3 0.206769 0.491830 0.991602
Si Si4 0.289234 0.663230 0.050929
Si Si5 0.411727 0.660350 0.936758
Si Si6 0.537444 0.031752 0.126959
Si Si7 0.809621 0.680390 0.306685
O O1 0.174435 0.103770 0.669359
O O2 0.167202 0.957208 0.669924
O O3 0.361458 0.022847 0.777009
O O4 0.259710 0.026631 0.876423
O O5 0.210710 0.058604 0.022653
O O6 0.239223 0.175709 0.164685
O O7 0.036133 0.136035 0.987827
O O8 0.079847 0.466231 0.890908
O O9 0.219759 0.584418 0.986224
O O10 0.279624 0.666574 0.161206
O O11 0.250000 0.750000 0.000000
O O12 0.393909 0.654151 0.042500
O O13 0.377158 0.744051 0.877150
O O14 0.599876 0.112268 0.147933
O O15 0.500000 0.000000 0.000000
#
# Coordination Sequence:
#
# PCOD9274486 Si02
#       7
#     8   8   8   8   8   8   8
#     4  10  21  38  60  93 126 162 206 252 309 375
#     4  11  23  41  63  92 124 175 202 257 312 379
#     4  11  21  40  66  95 124 160 220 248 310 380
#     4  10  20  38  63  93 127 154 202 263 319 371
#     4  11  24  41  62  93 130 159 211 258 318 382
#     4   9  18  37  64  87 120 163 203 255 302 366
#     4  10  22  43  61  92 128 159 206 263 322 361
#
# _framework density 19.441213999999999
#
# number of rings (size 3 to 8) (size 9 to 14) (size 15 to 20)
#    0.000    1.714    5.714    0.429    0.000    5.714 
#    0.000    4.286    0.000    0.000    0.000    0.000 
#    0.000    0.000    0.000    0.000    0.000    0.000 
#
# Total GULP energy -155868.716787 kJ/mol
# GULP energy per Si atom -5566.739885 kJ/mol
# Density = 1.939696 g / cm^3
# Si number density = 19.441214 Si / 1000 Ang^3
#
#
#
# Elastic Constant Matrix: (Units=GPa)
#
#
# Indices 1 2 3 4 5 6 
#
# 1 131.5558 62.5030 55.6875 0.0000 8.3920 0.0000
# 2 62.5030 70.6520 41.4071 0.0000 12.3329 0.0000
# 3 55.6875 41.4071 90.2750 0.0000 10.1971 0.0000
# 4 0.0000 0.0000 0.0000 25.7577 0.0000 -1.9067
# 5 8.3920 12.3329 10.1971 0.0000 39.2276 0.0000
# 6 0.0000 0.0000 0.0000 -1.9067 0.0000 23.9161
#
#
#
# Elastic Compliance Matrix: (Units=1/GPa)
#
#
# Indices 1 2 3 4 5 6 
#
# 1 0.014194 -0.010348 -0.004156 0.000000 0.001297 0.000000
# 2 -0.010348 0.027495 -0.005669 0.000000 -0.004957 0.000000
# 3 -0.004156 -0.005669 0.016422 0.000000 -0.001597 0.000000
# 4 0.000000 0.000000 0.000000 0.039054 0.000000 0.003113
# 5 0.001297 -0.004957 -0.001597 0.000000 0.027189 0.000000
# 6 0.000000 0.000000 0.000000 0.003113 0.000000 0.042061
#
#
# Mechanical properties :
#
#
# Convention : Reuss Voigt Hill
#
# Bulk Modulus (GPa) = 56.28556 67.96422 62.12489
# Shear Modulus (GPa) = 23.50937 26.63930 25.07434
#
# Velocity S-wave (km/s) = 3.48121 3.70570 3.59521
# Velocity P-wave (km/s) = 6.72108 7.30372 7.01845
#
# Compressibility (1/GPa) = 0.01776655
#
# Stress axis : x y z
#
# Youngs Moduli (GPa) = 70.45194 36.36962 60.89562
#
# Poissons Ratio (x) = 0.37634 0.25309
# Poissons Ratio (y) = 0.72900 0.34519
# Poissons Ratio (z) = 0.29281 0.20616
#
# Static dielectric constant tensor:
#      x y z
#    x 1.761570 0.000000 -0.039390 
#    y 0.000000 1.689470 0.000000 
#    z -0.039390 0.000000 1.694610 
# 
# From -- ./inp_files/155232.got.cif
#   From: 2010.05.17/outbox.cif.g08.bks.cpg/sg15_78_cif.got.tgz:155232.got - 2010.06.03 18:47:42.
