data_PCOD9274719
_publ_section_title
;
Structure prediction by ZEFSAII (Michael W. Deem and Ramdas Pophale) SiO2 
 PCOD9274719
Probable space group: C 2/C
;
_chemical_formula_sum "Si O2"
_cell_formula_units_Z 64
_cell_length_a 14.226385
_cell_length_b 12.647412
_cell_length_c 23.487304
_cell_angle_alpha 90.000000
_cell_angle_beta 32.913662
_cell_angle_gamma 90.000000
_cell_volume 2296.300697
_symmetry_space_group_name_H-M "C 2/C"
_symmetry_group_IT_number 15
_symmetry_cell_setting 'monoclinic'
loop_
_space_group_symop_operation_xyz
x,y,z
-x,y,1/2-z
-x,-y,-z
x,-y,1/2+z
1/2+x,1/2+y,z
1/2-x,1/2+y,1/2-z
1/2-x,1/2-y,-z
1/2+x,1/2-y,1/2+z
loop_
_atom_site_type_symbol
_atom_site_label
_atom_site_fract_x
_atom_site_fract_y
_atom_site_fract_z
Si Si1 0.865472 0.652857 0.081661
Si Si2 0.713266 0.625717 0.535818
Si Si3 0.153986 0.944721 0.486220
Si Si4 0.396390 0.244544 0.861062
Si Si5 0.406283 0.025772 0.163349
Si Si6 0.733497 0.675807 0.646048
Si Si7 0.775547 0.901276 0.638591
Si Si8 0.722462 0.797116 0.249328
O O1 0.729949 0.665574 0.099875
O O2 0.832996 0.550736 0.137730
O O3 0.843250 0.751388 0.137806
O O4 0.059344 0.653313 0.959852
O O5 0.750000 0.750000 0.500000
O O6 0.604628 0.545318 0.551132
O O7 0.656398 0.617110 0.630931
O O8 0.897898 0.564543 0.439103
O O9 0.263967 0.998940 0.379866
O O10 0.270763 0.847756 0.447426
O O11 0.979820 0.901402 0.546433
O O12 0.500000 0.213099 0.750000
O O13 0.547018 0.273023 0.828985
O O14 0.312032 0.100251 0.255973
O O15 0.366094 0.912449 0.209912
O O16 0.717059 0.798169 0.635713
O O17 0.685519 0.683509 0.736827
#
# Coordination Sequence:
#
# PCOD9274719 Si02
#       8
#     8   8   8   8   8   8   8   8
#     4  10  22  40  64  98 135 168 229 289 337 412
#     4  11  24  42  64  99 136 170 222 285 347 413
#     4  11  22  39  66  98 125 172 225 292 333 413
#     4  10  20  38  64  96 127 165 227 289 327 399
#     4  11  24  41  70  98 134 185 224 287 348 423
#     4  11  23  42  63  94 133 182 217 278 357 408
#     4  11  22  39  68  97 127 173 229 276 355 402
#     4  11  23  42  66  96 133 179 236 276 348 423
#
# _framework density 27.870913999999999
#
# number of rings (size 3 to 8) (size 9 to 14) (size 15 to 20)
#    0.000    1.250    5.000    1.500    1.750    2.500 
#    0.000    0.000    0.000    0.000    0.000    0.000 
#    0.000    0.000    0.000    0.000    0.000    0.000 
#
# Total GULP energy -179012.624109 kJ/mol
# GULP energy per Si atom -5594.144503 kJ/mol
# Density = 2.780748 g / cm^3
# Si number density = 27.870914 Si / 1000 Ang^3
#
#
#
# Elastic Constant Matrix: (Units=GPa)
#
#
# Indices 1 2 3 4 5 6 
#
# 1 147.8422 23.1214 28.6070 -0.0001 16.2542 0.0000
# 2 23.1214 93.0367 21.7233 -0.0002 10.1836 0.0000
# 3 28.6070 21.7233 89.5823 -0.0014 22.0037 0.0004
# 4 -0.0001 -0.0002 -0.0014 38.3412 0.0002 12.9399
# 5 16.2542 10.1836 22.0037 0.0002 46.0102 0.0000
# 6 0.0000 0.0000 0.0004 12.9399 0.0000 33.6482
#
#
#
# Elastic Compliance Matrix: (Units=1/GPa)
#
#
# Indices 1 2 3 4 5 6 
#
# 1 0.007463 -0.001291 -0.001691 0.000000 -0.001542 0.000000
# 2 -0.001291 0.011692 -0.002152 0.000000 -0.001103 0.000000
# 3 -0.001691 -0.002152 0.013553 0.000001 -0.005408 0.000000
# 4 0.000000 0.000000 0.000001 0.029972 0.000000 -0.011526
# 5 -0.001542 -0.001103 -0.005408 0.000000 0.025109 0.000000
# 6 0.000000 0.000000 0.000000 -0.011526 0.000000 0.034152
#
#
# Mechanical properties :
#
#
# Convention : Reuss Voigt Hill
#
# Bulk Modulus (GPa) = 44.56492 53.04053 48.80272
# Shear Modulus (GPa) = 35.79356 40.73387 38.26371
#
# Velocity S-wave (km/s) = 3.58755 3.82713 3.70927
# Velocity P-wave (km/s) = 5.76065 6.21300 5.99110
#
# Compressibility (1/GPa) = 0.02243917
#
# Stress axis : x y z
#
# Youngs Moduli (GPa) = 134.00088 85.52493 73.78300
#
# Poissons Ratio (x) = 0.11041 0.12479
# Poissons Ratio (y) = 0.17299 0.15880
# Poissons Ratio (z) = 0.22664 0.18408
#
# Static dielectric constant tensor:
#      x y z
#    x 2.226400 0.000000 -0.008750 
#    y 0.000000 2.233590 0.000000 
#    z -0.008750 0.000000 2.140320 
# 
# From -- ./inp_files/274327.got.cif
#   From: 2010.05.17/outbox.cif.g08.bks.cpg/sg15_138_cif.got.tgz:274327.got - 2010.06.03 18:47:42.
