data_PCOD9274435
_publ_section_title
;
Structure prediction by ZEFSAII (Michael W. Deem and Ramdas Pophale) SiO2 
 PCOD9274435
Probable space group: C 2/C
;
_chemical_formula_sum "Si O2"
_cell_formula_units_Z 56
_cell_length_a 11.769121
_cell_length_b 13.744725
_cell_length_c 18.329676
_cell_angle_alpha 90.000000
_cell_angle_beta 56.345967
_cell_angle_gamma 90.000000
_cell_volume 2468.120829
_symmetry_space_group_name_H-M "C 2/C"
_symmetry_group_IT_number 15
_symmetry_cell_setting 'monoclinic'
loop_
_space_group_symop_operation_xyz
x,y,z
-x,y,1/2-z
-x,-y,-z
x,-y,1/2+z
1/2+x,1/2+y,z
1/2-x,1/2+y,1/2-z
1/2-x,1/2-y,-z
1/2+x,1/2-y,1/2+z
loop_
_atom_site_type_symbol
_atom_site_label
_atom_site_fract_x
_atom_site_fract_y
_atom_site_fract_z
Si Si1 0.768886 0.532578 0.074873
Si Si2 0.548062 0.791893 0.812681
Si Si3 0.445461 0.202805 0.658656
Si Si4 0.825159 0.107946 0.682722
Si Si5 0.753993 0.653258 0.948312
Si Si6 0.662954 0.599429 0.261144
Si Si7 0.944533 0.649300 0.500825
O O1 0.672100 0.557570 0.176210
O O2 0.817827 0.422810 0.054891
O O3 0.713563 0.567466 0.017078
O O4 0.911287 0.592376 0.037425
O O5 0.500000 0.820713 0.750000
O O6 0.574255 0.676646 0.807866
O O7 0.690630 0.848394 0.775771
O O8 0.451431 0.814893 0.915738
O O9 0.323030 0.135306 0.730843
O O10 0.585549 0.148822 0.627999
O O11 0.438247 0.310279 0.694145
O O12 0.435785 0.217777 0.574535
O O13 0.824733 0.148159 0.599691
O O14 0.853457 0.994065 0.681236
O O15 0.750000 0.750000 0.000000
#
# Coordination Sequence:
#
# PCOD9274435 Si02
#       7
#     8   8   8   8   8   8   8
#     4   9  18  34  58  87 119 157 200 256 307 361
#     4  10  23  40  61  85 125 167 211 261 306 367
#     4  10  20  38  63  89 125 164 202 261 313 370
#     4  11  22  39  59  95 126 159 208 261 313 374
#     4  11  22  37  61  91 127 161 208 262 316 372
#     4  10  21  39  63  92 124 159 211 259 312 373
#     4   9  17  35  59  85 116 161 207 249 302 363
#
# _framework density 22.689328
#
# number of rings (size 3 to 8) (size 9 to 14) (size 15 to 20)
#    0.000    2.000    1.429    3.857    4.000    0.000 
#    0.000   11.429    0.000    0.000    0.000    0.000 
#    0.000    0.000    0.000    0.000    0.000    0.000 
#
# Total GULP energy -156498.375557 kJ/mol
# GULP energy per Si atom -5589.227698 kJ/mol
# Density = 2.263769 g / cm^3
# Si number density = 22.689328 Si / 1000 Ang^3
#
#
#
# Elastic Constant Matrix: (Units=GPa)
#
#
# Indices 1 2 3 4 5 6 
#
# 1 44.6726 3.4637 35.0475 0.0000 27.5209 0.0000
# 2 3.4637 85.7882 16.7903 0.0000 7.8621 0.0000
# 3 35.0475 16.7903 112.1892 0.0000 33.6868 0.0000
# 4 0.0000 0.0000 0.0000 31.5018 0.0000 6.8715
# 5 27.5209 7.8621 33.6868 0.0000 28.9569 0.0000
# 6 0.0000 0.0000 0.0000 6.8715 0.0000 18.6182
#
#
#
# Elastic Compliance Matrix: (Units=1/GPa)
#
#
# Indices 1 2 3 4 5 6 
#
# 1 0.055052 0.002874 -0.002587 0.000000 -0.050092 0.000000
# 2 0.002874 0.012220 -0.001399 0.000000 -0.004422 0.000000
# 3 -0.002587 -0.001399 0.013953 0.000000 -0.013393 0.000000
# 4 0.000000 0.000000 0.000000 0.034524 0.000000 -0.012742
# 5 -0.050092 -0.004422 -0.013393 0.000000 0.098924 0.000000
# 6 0.000000 0.000000 0.000000 -0.012742 0.000000 0.058414
#
#
# Mechanical properties :
#
#
# Convention : Reuss Voigt Hill
#
# Bulk Modulus (GPa) = 12.65809 39.25034 25.95422
# Shear Modulus (GPa) = 16.57597 28.30528 22.44063
#
# Velocity S-wave (km/s) = 2.70582 3.53585 3.14831
# Velocity P-wave (km/s) = 3.91829 5.83149 4.96786
#
# Compressibility (1/GPa) = 0.07900084
#
# Stress axis : x y z
#
# Youngs Moduli (GPa) = 18.16478 81.83554 71.67145
#
# Poissons Ratio (x) = -0.23522 0.18541
# Poissons Ratio (y) = -0.05221 0.10026
# Poissons Ratio (z) = 0.04699 0.11448
#
# Static dielectric constant tensor:
#      x y z
#    x 1.874520 0.000000 -0.017820 
#    y 0.000000 1.839210 0.000000 
#    z -0.017820 0.000000 1.862100 
# 
# From -- ./inp_files/205349.got.cif
#   From: 2010.05.17/outbox.cif.g08.bks.cpg/sg15_103_cif.got.tgz:205349.got - 2010.06.03 18:47:42.
