data_PCOD9274615
_publ_section_title
;
Structure prediction by ZEFSAII (Michael W. Deem and Ramdas Pophale) SiO2 
 PCOD9274615
Probable space group: C 2/C
;
_chemical_formula_sum "Si O2"
_cell_formula_units_Z 44
_cell_length_a 9.119873
_cell_length_b 34.233841
_cell_length_c 8.123831
_cell_angle_alpha 90.000000
_cell_angle_beta 122.268021
_cell_angle_gamma 90.000000
_cell_volume 2144.616789
_symmetry_space_group_name_H-M "C 2/C"
_symmetry_group_IT_number 15
_symmetry_cell_setting 'monoclinic'
loop_
_space_group_symop_operation_xyz
x,y,z
-x,y,1/2-z
-x,-y,-z
x,-y,1/2+z
1/2+x,1/2+y,z
1/2-x,1/2+y,1/2-z
1/2-x,1/2-y,-z
1/2+x,1/2-y,1/2+z
loop_
_atom_site_type_symbol
_atom_site_label
_atom_site_fract_x
_atom_site_fract_y
_atom_site_fract_z
Si Si1 0.497984 0.096748 0.053360
Si Si2 0.558588 0.257335 0.449034
Si Si3 0.899938 0.318808 0.015633
Si Si4 0.174549 0.471159 0.464545
Si Si5 0.681270 0.547678 0.771679
Si Si6 0.000000 0.803657 0.750000
O O1 0.500000 0.094072 0.250000
O O2 0.538577 0.140003 0.018414
O O3 0.630224 0.064964 0.055996
O O4 0.310069 0.083664 0.875865
O O5 0.500000 0.280285 0.250000
O O6 0.750000 0.250000 0.500000
O O7 0.456365 0.216813 0.428142
O O8 0.541082 0.279744 0.608860
O O9 0.000000 0.311850 0.250000
O O10 0.690016 0.321912 0.904045
O O11 0.226789 0.509981 0.590828
O O12 0.325544 0.460569 0.426507
O O13 0.000000 0.477520 0.250000
O O14 0.500000 0.553817 0.750000
#
# Coordination Sequence:
#
# PCOD9274615 Si02
#       6
#     8   8   8   8   8   4
#     4  11  24  44  62  90 135 178 219 276 345 403
#     4  12  23  43  75 105 140 183 233 282 344 414
#     4  12  25  47  71 100 143 183 226 290 347 405
#     4  10  20  38  64  89 126 174 215 271 337 401
#     4  11  21  38  64  97 125 169 222 274 333 404
#     4  12  26  48  72 110 136 186 236 286 344 416
#
# _framework density 20.516487000000001
#
# number of rings (size 3 to 8) (size 9 to 14) (size 15 to 20)
#    0.000    0.727    2.727    8.182    0.000    0.000 
#    8.182    0.909    0.000    0.000    0.000    0.000 
#    0.000    0.000    0.000    0.000    0.000    0.000 
#
# Total GULP energy -122793.657493 kJ/mol
# GULP energy per Si atom -5581.529886 kJ/mol
# Density = 2.046979 g / cm^3
# Si number density = 20.516487 Si / 1000 Ang^3
#
#
#
# Elastic Constant Matrix: (Units=GPa)
#
#
# Indices 1 2 3 4 5 6 
#
# 1 167.0978 46.6801 42.5053 0.0000 -21.4888 0.0000
# 2 46.6801 92.4192 31.6289 0.0000 -8.2487 0.0000
# 3 42.5053 31.6289 98.3518 0.0000 -27.8873 0.0000
# 4 0.0000 0.0000 0.0000 4.8305 0.0000 2.2734
# 5 -21.4888 -8.2487 -27.8873 0.0000 40.9669 0.0000
# 6 0.0000 0.0000 0.0000 2.2734 0.0000 1.2120
#
#
#
# Elastic Compliance Matrix: (Units=1/GPa)
#
#
# Indices 1 2 3 4 5 6 
#
# 1 0.007540 -0.003046 -0.001650 0.000000 0.002219 0.000000
# 2 -0.003046 0.013391 -0.003319 0.000000 -0.001161 0.000000
# 3 -0.001650 -0.003319 0.014267 0.000000 0.008178 0.000000
# 4 0.000000 0.000000 0.000000 1.767284 0.000000 -3.315139
# 5 0.002219 -0.001161 0.008178 0.000000 0.030907 0.000000
# 6 0.000000 0.000000 0.000000 -3.315139 0.000000 7.043776
#
#
# Mechanical properties :
#
#
# Convention : Reuss Voigt Hill
#
# Bulk Modulus (GPa) = 52.17032 66.61084 59.39058
# Shear Modulus (GPa) = 0.56182 25.20549 12.88366
#
# Velocity S-wave (km/s) = 0.52387 3.50887 2.50864
# Velocity P-wave (km/s) = 5.08425 6.99669 6.11569
#
# Compressibility (1/GPa) = 0.01916799
#
# Stress axis : x y z
#
# Youngs Moduli (GPa) = 132.61728 74.67676 70.09147
#
# Poissons Ratio (x) = 0.22745 0.11567
# Poissons Ratio (y) = 0.40393 0.23265
# Poissons Ratio (z) = 0.21885 0.24787
#
# Static dielectric constant tensor:
#      x y z
#    x 1.728040 0.000000 -0.009060 
#    y 0.000000 1.704840 0.000000 
#    z -0.009060 0.000000 1.705500 
# 
# From -- ./inp_files/26250.got.cif
#   From: 2010.05.17/outbox.cif.g08.bks.cpg/sg15_14_cif.got.tgz:26250.got - 2010.06.03 18:47:42.
