data_PCOD9274641
_publ_section_title
;
Structure prediction by ZEFSAII (Michael W. Deem and Ramdas Pophale) SiO2 
 PCOD9274641
Probable space group: C 2/C
;
_chemical_formula_sum "Si O2"
_cell_formula_units_Z 56
_cell_length_a 21.742279
_cell_length_b 17.595070
_cell_length_c 9.092453
_cell_angle_alpha 90.000000
_cell_angle_beta 128.707968
_cell_angle_gamma 90.000000
_cell_volume 2714.331688
_symmetry_space_group_name_H-M "C 2/C"
_symmetry_group_IT_number 15
_symmetry_cell_setting 'monoclinic'
loop_
_space_group_symop_operation_xyz
x,y,z
-x,y,1/2-z
-x,-y,-z
x,-y,1/2+z
1/2+x,1/2+y,z
1/2-x,1/2+y,1/2-z
1/2-x,1/2-y,-z
1/2+x,1/2-y,1/2+z
loop_
_atom_site_type_symbol
_atom_site_label
_atom_site_fract_x
_atom_site_fract_y
_atom_site_fract_z
Si Si1 0.028128 0.421058 0.963314
Si Si2 0.816846 0.954305 0.525823
Si Si3 0.640801 0.331958 0.119253
Si Si4 0.214152 0.459414 0.624273
Si Si5 0.890034 0.335456 0.872144
Si Si6 0.820409 0.620199 0.965397
Si Si7 0.452926 0.439403 0.329580
O O1 0.000000 0.425849 0.750000
O O2 0.980183 0.357348 0.980028
O O3 0.118699 0.392087 0.080214
O O4 0.000000 0.500000 0.000000
O O5 0.868953 0.888911 0.531388
O O6 0.766817 0.917994 0.582334
O O7 0.766235 0.998052 0.325944
O O8 0.871363 0.018367 0.675008
O O9 0.626945 0.243672 0.075354
O O10 0.733036 0.348020 0.300894
O O11 0.575815 0.362131 0.137422
O O12 0.151738 0.404196 0.603459
O O13 0.181621 0.531935 0.485787
O O14 0.853930 0.332645 0.652430
O O15 0.500000 0.426391 0.250000
O O16 0.500000 0.500000 0.500000
#
# Coordination Sequence:
#
# PCOD9274641 Si02
#       7
#     8   8   8   8   8   8   8
#     4  10  21  36  63  91 121 164 210 251 303 377
#     4  11  21  39  63  95 116 169 212 250 303 381
#     4  11  24  39  63  93 131 155 207 269 314 362
#     4  11  19  36  66  90 123 162 214 249 303 384
#     4  11  22  38  61  95 130 156 204 271 316 353
#     4  10  20  38  64  91 120 170 211 245 312 387
#     4  12  22  39  67  89 120 166 212 252 307 378
#
# _framework density 20.631229999999999
#
# number of rings (size 3 to 8) (size 9 to 14) (size 15 to 20)
#    0.000    1.143    7.143    0.429    0.000    2.286 
#    0.000    1.429    3.143    0.000    0.000    0.000 
#    0.000    0.000    0.000    0.000    0.000    0.000 
#
# Total GULP energy -156082.936449 kJ/mol
# GULP energy per Si atom -5574.390587 kJ/mol
# Density = 2.058427 g / cm^3
# Si number density = 20.631230 Si / 1000 Ang^3
#
#
#
# Elastic Constant Matrix: (Units=GPa)
#
#
# Indices 1 2 3 4 5 6 
#
# 1 144.2224 15.9269 4.2870 0.0000 -18.7486 0.0000
# 2 15.9269 90.6387 -7.3713 0.0000 -6.3974 0.0000
# 3 4.2870 -7.3713 20.8047 0.0000 -6.4461 0.0000
# 4 0.0000 0.0000 0.0000 8.7821 0.0000 -1.0284
# 5 -18.7486 -6.3974 -6.4461 0.0000 28.2712 0.0000
# 6 0.0000 0.0000 0.0000 -1.0284 0.0000 34.2428
#
#
#
# Elastic Compliance Matrix: (Units=1/GPa)
#
#
# Indices 1 2 3 4 5 6 
#
# 1 0.007681 -0.001054 -0.000486 0.000000 0.004745 0.000000
# 2 -0.001054 0.011888 0.005430 0.000000 0.003229 0.000000
# 3 -0.000486 0.005430 0.054200 0.000000 0.013264 0.000000
# 4 0.000000 0.000000 0.000000 0.114269 0.000000 0.003432
# 5 0.004745 0.003229 0.013264 0.000000 0.042273 0.000000
# 6 0.000000 0.000000 0.000000 0.003432 0.000000 0.029306
#
#
# Mechanical properties :
#
#
# Convention : Reuss Voigt Hill
#
# Bulk Modulus (GPa) = 12.26296 31.26120 21.76208
# Shear Modulus (GPa) = 17.91971 30.44743 24.18357
#
# Velocity S-wave (km/s) = 2.95035 3.84577 3.42743
# Velocity P-wave (km/s) = 4.19081 5.90806 5.12192
#
# Compressibility (1/GPa) = 0.08154638
#
# Stress axis : x y z
#
# Youngs Moduli (GPa) = 130.18420 84.12158 18.45022
#
# Poissons Ratio (x) = 0.08870 0.00897
# Poissons Ratio (y) = 0.13727 -0.10018
# Poissons Ratio (z) = 0.06332 -0.45674
#
# Static dielectric constant tensor:
#      x y z
#    x 1.910740 0.000000 -0.039900 
#    y 0.000000 2.016310 0.000000 
#    z -0.039900 0.000000 1.850540 
# 
# From -- ./inp_files/56707.got.cif
#   From: 2010.05.17/outbox.cif.g08.bks.cpg/sg15_29_cif.got.tgz:56707.got - 2010.06.03 18:47:42.
