data_PCOD9274485
_publ_section_title
;
Structure prediction by ZEFSAII (Michael W. Deem and Ramdas Pophale) SiO2 
 PCOD9274485
Probable space group: C 2/C
;
_chemical_formula_sum "Si O2"
_cell_formula_units_Z 44
_cell_length_a 11.773513
_cell_length_b 21.840032
_cell_length_c 8.845182
_cell_angle_alpha 90.000000
_cell_angle_beta 117.855560
_cell_angle_gamma 90.000000
_cell_volume 2010.858006
_symmetry_space_group_name_H-M "C 2/C"
_symmetry_group_IT_number 15
_symmetry_cell_setting 'monoclinic'
loop_
_space_group_symop_operation_xyz
x,y,z
-x,y,1/2-z
-x,-y,-z
x,-y,1/2+z
1/2+x,1/2+y,z
1/2-x,1/2+y,1/2-z
1/2-x,1/2-y,-z
1/2+x,1/2-y,1/2+z
loop_
_atom_site_type_symbol
_atom_site_label
_atom_site_fract_x
_atom_site_fract_y
_atom_site_fract_z
Si Si1 0.114535 0.916315 0.064158
Si Si2 0.131245 0.581130 0.417286
Si Si3 0.808475 0.289653 0.402882
Si Si4 0.453659 0.712916 0.897435
Si Si5 0.366275 0.032885 0.753226
Si Si6 0.000000 0.992290 0.250000
O O1 0.036541 0.853391 0.018003
O O2 0.267640 0.914497 0.140095
O O3 0.093844 0.948449 0.214369
O O4 0.065535 0.963087 0.909425
O O5 0.191491 0.642459 0.524068
O O6 0.111848 0.540637 0.555561
O O7 0.191636 0.533559 0.333255
O O8 0.000000 0.600260 0.250000
O O9 0.750000 0.250000 0.500000
O O10 0.701420 0.278874 0.206748
O O11 0.953263 0.263759 0.470116
O O12 0.500000 0.707849 0.750000
O O13 0.500000 0.038976 0.750000
#
# Coordination Sequence:
#
# PCOD9274485 Si02
#       6
#     8   8   8   8   8   4
#     4  11  21  41  63  95 135 168 218 263 335 393
#     4  11  21  38  61  98 127 165 215 268 334 386
#     4  10  21  37  63  95 126 172 222 276 312 385
#     4  10  20  38  63  93 125 169 221 274 318 381
#     4  11  23  38  63  96 133 165 208 271 333 392
#     4  10  24  36  64  98 128 178 210 266 332 404
#
# _framework density 21.881208999999998
#
# number of rings (size 3 to 8) (size 9 to 14) (size 15 to 20)
#    0.000    1.455    2.727    4.909    0.000    1.455 
#    0.000    1.818    2.000    2.182    0.000    0.000 
#    0.000    0.000    0.000    0.000    0.000    0.000 
#
# Total GULP energy -122573.635012 kJ/mol
# GULP energy per Si atom -5571.528864 kJ/mol
# Density = 2.183141 g / cm^3
# Si number density = 21.881209 Si / 1000 Ang^3
#
#
#
# Elastic Constant Matrix: (Units=GPa)
#
#
# Indices 1 2 3 4 5 6 
#
# 1 67.0036 36.4071 44.0068 0.0000 25.7493 0.0000
# 2 36.4071 119.9276 42.8217 0.0000 6.1086 0.0000
# 3 44.0068 42.8217 89.4411 0.0000 13.2831 0.0000
# 4 0.0000 0.0000 0.0000 -83.9471 0.0000 75.5117
# 5 25.7493 6.1086 13.2831 0.0000 33.5112 0.0000
# 6 0.0000 0.0000 0.0000 75.5117 0.0000 -9.7621
#
#
#
# Elastic Compliance Matrix: (Units=1/GPa)
#
#
# Indices 1 2 3 4 5 6 
#
# 1 0.032018 -0.004989 -0.010462 0.000000 -0.019545 0.000000
# 2 -0.004989 0.010835 -0.003197 0.000000 0.003125 0.000000
# 3 -0.010462 -0.003197 0.017615 0.000000 0.001639 0.000000
# 4 0.000000 0.000000 0.000000 0.001999 0.000000 0.015466
# 5 -0.019545 0.003125 0.001639 0.000000 0.043640 0.000000
# 6 0.000000 0.000000 0.000000 0.015466 0.000000 0.017193
#
#
# Mechanical properties :
#
#
# Convention : Reuss Voigt Hill
#
# Bulk Modulus (GPa) = 43.15494 58.09372 50.62433
# Shear Modulus (GPa) = 29.70512 -1.83048 13.93732
#
# Velocity S-wave (km/s) = 3.68851 -0.91562 2.52653
# Velocity P-wave (km/s) = 6.15673 5.04870 5.63004
#
# Compressibility (1/GPa) = 0.02317232
#
# Stress axis : x y z
#
# Youngs Moduli (GPa) = 31.23258 92.29176 56.76833
#
# Poissons Ratio (x) = 0.46040 0.59393
# Poissons Ratio (y) = 0.15581 0.18150
# Poissons Ratio (z) = 0.32676 0.29508
#
# Static dielectric constant tensor:
#      x y z
#    x 1.898230 0.000000 0.074630 
#    y 0.000000 1.911510 0.000000 
#    z 0.074630 0.000000 1.870760 
# 
# From -- ./inp_files/31047.got.cif
#   From: 2010.05.17/outbox.cif.g08.bks.cpg/sg15_16_cif.got.tgz:31047.got - 2010.06.03 18:47:42.
