data_PCOD9274191
_publ_section_title
;
Structure prediction by ZEFSAII (Michael W. Deem and Ramdas Pophale) SiO2 
 PCOD9274191
Probable space group: C 2/C
;
_chemical_formula_sum "Si O2"
_cell_formula_units_Z 56
_cell_length_a 16.658729
_cell_length_b 10.741073
_cell_length_c 23.552092
_cell_angle_alpha 90.000000
_cell_angle_beta 30.479056
_cell_angle_gamma 90.000000
_cell_volume 2137.559802
_symmetry_space_group_name_H-M "C 2/C"
_symmetry_group_IT_number 15
_symmetry_cell_setting 'monoclinic'
loop_
_space_group_symop_operation_xyz
x,y,z
-x,y,1/2-z
-x,-y,-z
x,-y,1/2+z
1/2+x,1/2+y,z
1/2-x,1/2+y,1/2-z
1/2-x,1/2-y,-z
1/2+x,1/2-y,1/2+z
loop_
_atom_site_type_symbol
_atom_site_label
_atom_site_fract_x
_atom_site_fract_y
_atom_site_fract_z
Si Si1 0.780369 0.910244 0.360838
Si Si2 0.622876 0.871226 0.288538
Si Si3 0.868816 0.777025 0.618413
Si Si4 0.918641 0.954446 0.875926
Si Si5 0.498707 0.385252 0.429205
Si Si6 0.500000 0.230344 0.750000
Si Si7 0.500000 0.182717 0.250000
Si Si8 0.516160 0.872140 0.858375
O O1 0.638373 0.860541 0.408514
O O2 0.904365 0.997583 0.251571
O O3 0.790237 0.963127 0.418472
O O4 0.864387 0.777188 0.315502
O O5 0.560692 0.753406 0.362827
O O6 0.809886 0.887843 0.187136
O O7 0.599064 0.849156 0.235657
O O8 0.530259 0.988341 0.370631
O O9 0.701980 0.837735 0.737168
O O10 0.946895 0.867990 0.525658
O O11 0.921387 0.004009 0.939107
O O12 0.904495 0.821306 0.852279
O O13 0.452536 0.252199 0.427066
O O14 0.553146 0.112699 0.162373
#
# Coordination Sequence:
#
# PCOD9274191 Si02
#       8
#     8   8   8   8   8   4   4   8
#     4   8  13  31  57  87 117 149 201 256 305 363
#     4  11  24  42  62  90 127 179 206 259 330 382
#     4  10  22  37  62  98 127 160 222 262 321 373
#     4   9  17  36  65  90 122 164 212 258 313 375
#     4  11  22  38  66  99 123 166 217 273 310 375
#     4  10  24  42  68  86 128 176 214 250 330 390
#     4   8  12  30  54  80 110 150 196 246 298 362
#     4  10  20  38  62  85 131 160 210 262 315 377
#
# _framework density 26.198097000000001
#
# number of rings (size 3 to 8) (size 9 to 14) (size 15 to 20)
#    0.000    2.571    5.714    0.429    4.000    1.714 
#    0.000    0.714    0.000    0.000    0.000    0.000 
#    0.000    0.000    0.000    0.000    0.000    0.000 
#
# Total GULP energy -155948.241959 kJ/mol
# GULP energy per Si atom -5569.580070 kJ/mol
# Density = 2.613847 g / cm^3
# Si number density = 26.198097 Si / 1000 Ang^3
#
#
#
# Elastic Constant Matrix: (Units=GPa)
#
#
# Indices 1 2 3 4 5 6 
#
# 1 126.1278 18.6248 -1.5691 -0.0005 37.6547 0.0006
# 2 18.6248 83.5060 -1.7783 -0.0014 -0.7231 0.0003
# 3 -1.5691 -1.7783 78.0464 -0.0025 16.5043 0.0000
# 4 -0.0005 -0.0014 -0.0025 -0.7792 0.0004 -15.3209
# 5 37.6547 -0.7231 16.5043 0.0004 31.9850 -0.0002
# 6 0.0006 0.0003 0.0000 -15.3209 -0.0002 -18.0235
#
#
#
# Elastic Compliance Matrix: (Units=1/GPa)
#
#
# Indices 1 2 3 4 5 6 
#
# 1 0.014063 -0.003210 0.004182 0.000002 -0.018787 -0.000001
# 2 -0.003210 0.012714 -0.000713 0.000001 0.004434 -0.000001
# 3 0.004182 -0.000713 0.015631 0.000004 -0.013005 -0.000003
# 4 0.000002 0.000001 0.000004 0.081670 -0.000006 -0.069424
# 5 -0.018787 0.004434 -0.013005 -0.000006 0.060193 0.000004
# 6 -0.000001 -0.000001 -0.000003 -0.069424 0.000004 0.003531
#
#
# Mechanical properties :
#
#
# Convention : Reuss Voigt Hill
#
# Bulk Modulus (GPa) = 23.29495 35.35945 29.32720
# Shear Modulus (GPa) = 24.80254 20.79664 22.79959
#
# Velocity S-wave (km/s) = 3.08024 2.82054 2.95325
# Velocity P-wave (km/s) = 4.64345 4.91259 4.77991
#
# Compressibility (1/GPa) = 0.04292775
#
# Stress axis : x y z
#
# Youngs Moduli (GPa) = 71.10758 78.65094 63.97561
#
# Poissons Ratio (x) = 0.25249 -0.26757
# Poissons Ratio (y) = 0.22827 0.04559
# Poissons Ratio (z) = -0.29740 0.05604
#
# Static dielectric constant tensor:
#      x y z
#    x 2.538930 0.000000 -0.014110 
#    y 0.000000 2.084940 0.000000 
#    z -0.014110 0.000000 2.151380 
# 
# From -- ./inp_files/277068.got.cif
#   From: 2010.05.17/outbox.cif.g08.bks.cpg/sg15_139_cif.got.tgz:277068.got - 2010.06.03 18:47:42.
