data_PCOD9274984
_publ_section_title
;
Structure prediction by ZEFSAII (Michael W. Deem and Ramdas Pophale) SiO2 
 PCOD9274984
Probable space group: C 2/C
;
_chemical_formula_sum "Si O2"
_cell_formula_units_Z 48
_cell_length_a 22.062339
_cell_length_b 6.770142
_cell_length_c 19.781914
_cell_angle_alpha 90.000000
_cell_angle_beta 48.507298
_cell_angle_gamma 90.000000
_cell_volume 2213.210480
_symmetry_space_group_name_H-M "C 2/C"
_symmetry_group_IT_number 15
_symmetry_cell_setting 'monoclinic'
loop_
_space_group_symop_operation_xyz
x,y,z
-x,y,1/2-z
-x,-y,-z
x,-y,1/2+z
1/2+x,1/2+y,z
1/2-x,1/2+y,1/2-z
1/2-x,1/2-y,-z
1/2+x,1/2-y,1/2+z
loop_
_atom_site_type_symbol
_atom_site_label
_atom_site_fract_x
_atom_site_fract_y
_atom_site_fract_z
Si Si1 0.302358 0.052214 0.545621
Si Si2 0.174755 0.219570 0.173963
Si Si3 0.951316 0.031506 0.128447
Si Si4 0.425903 0.508023 0.351451
Si Si5 0.531799 0.807054 0.511927
Si Si6 0.167671 0.364958 0.628539
O O1 0.389730 0.127124 0.504260
O O2 0.236963 0.225380 0.608228
O O3 0.302911 0.042363 0.463979
O O4 0.267389 0.856019 0.607772
O O5 0.119851 0.104846 0.269704
O O6 0.154493 0.451074 0.187934
O O7 0.147066 0.138729 0.120791
O O8 0.944801 0.152875 0.064411
O O9 0.039685 0.054434 0.100091
O O10 0.959548 0.798539 0.107219
O O11 0.500000 0.571148 0.250000
O O12 0.402807 0.285415 0.344720
O O13 0.500000 0.000000 0.500000
#
# Coordination Sequence:
#
# PCOD9274984 Si02
#       6
#     8   8   8   8   8   8
#     4  10  22  41  61  97 126 166 214 261 317 392
#     4  10  22  38  65  99 124 164 214 271 327 375
#     4  10  23  43  59  97 132 166 221 267 313 392
#     4   9  19  35  61  93 130 154 205 271 314 375
#     4  11  25  43  67  88 129 183 213 259 323 389
#     4  10  20  38  67  90 127 163 203 269 328 374
#
# _framework density 21.687951999999999
#
# number of rings (size 3 to 8) (size 9 to 14) (size 15 to 20)
#    0.000    2.000    1.667    0.500    2.333    8.667 
#    6.000    0.000    0.000    0.000    0.000    0.000 
#    0.000    0.000    0.000    0.000    0.000    0.000 
#
# Total GULP energy -133670.980870 kJ/mol
# GULP energy per Si atom -5569.624203 kJ/mol
# Density = 2.163859 g / cm^3
# Si number density = 21.687952 Si / 1000 Ang^3
#
#
#
# Elastic Constant Matrix: (Units=GPa)
#
#
# Indices 1 2 3 4 5 6 
#
# 1 52.1326 16.6833 0.8265 -0.0062 -6.1630 0.0072
# 2 16.6833 90.9929 8.7681 -0.0050 -4.1946 0.0101
# 3 0.8265 8.7681 25.9917 0.0042 -1.8254 0.0007
# 4 -0.0062 -0.0050 0.0042 27.9049 -0.0064 1.2827
# 5 -6.1630 -4.1946 -1.8254 -0.0064 18.6415 0.0020
# 6 0.0072 0.0101 0.0007 1.2827 0.0020 10.1968
#
#
#
# Elastic Compliance Matrix: (Units=1/GPa)
#
#
# Indices 1 2 3 4 5 6 
#
# 1 0.021079 -0.003674 0.001008 0.000006 0.006241 -0.000013
# 2 -0.003674 0.012090 -0.003882 0.000003 0.001125 -0.000010
# 3 0.001008 -0.003882 0.039988 -0.000006 0.003375 0.000001
# 4 0.000006 0.000003 -0.000006 0.036044 0.000015 -0.004534
# 5 0.006241 0.001125 0.003375 0.000015 0.056291 -0.000019
# 6 -0.000013 -0.000010 0.000001 -0.004534 -0.000019 0.098640
#
#
# Mechanical properties :
#
#
# Convention : Reuss Voigt Hill
#
# Bulk Modulus (GPa) = 16.65026 24.63034 20.64030
# Shear Modulus (GPa) = 16.82081 20.87127 18.84604
#
# Velocity S-wave (km/s) = 2.78795 3.10553 2.95102
# Velocity P-wave (km/s) = 4.24940 4.92346 4.59880
#
# Compressibility (1/GPa) = 0.06005912
#
# Stress axis : x y z
#
# Youngs Moduli (GPa) = 47.43949 82.71620 25.00720
#
# Poissons Ratio (x) = 0.30392 -0.02519
# Poissons Ratio (y) = 0.17430 0.09709
# Poissons Ratio (z) = -0.04780 0.32114
#
# Static dielectric constant tensor:
#      x y z
#    x 1.863170 -0.000020 -0.001560 
#    y -0.000020 1.877340 0.000120 
#    z -0.001560 0.000120 1.875140 
# 
# From -- ./inp_files/254255.got.cif
#   From: 2010.05.17/outbox.cif.g08.bks.cpg/sg15_128_cif.got.tgz:254255.got - 2010.06.03 18:47:42.
