data_PCOD9274623
_publ_section_title
;
Structure prediction by ZEFSAII (Michael W. Deem and Ramdas Pophale) SiO2 
 PCOD9274623
Probable space group: C 2/C
;
_chemical_formula_sum "Si O2"
_cell_formula_units_Z 56
_cell_length_a 19.248185
_cell_length_b 9.214334
_cell_length_c 29.430716
_cell_angle_alpha 90.000000
_cell_angle_beta 34.439381
_cell_angle_gamma 90.000000
_cell_volume 2951.979094
_symmetry_space_group_name_H-M "C 2/C"
_symmetry_group_IT_number 15
_symmetry_cell_setting 'monoclinic'
loop_
_space_group_symop_operation_xyz
x,y,z
-x,y,1/2-z
-x,-y,-z
x,-y,1/2+z
1/2+x,1/2+y,z
1/2-x,1/2+y,1/2-z
1/2-x,1/2-y,-z
1/2+x,1/2-y,1/2+z
loop_
_atom_site_type_symbol
_atom_site_label
_atom_site_fract_x
_atom_site_fract_y
_atom_site_fract_z
Si Si1 0.345515 0.048398 0.977906
Si Si2 0.085553 0.977557 0.746086
Si Si3 0.250662 0.784491 0.208125
Si Si4 0.836333 0.620154 0.084251
Si Si5 0.516820 0.626144 0.455576
Si Si6 0.591144 0.614977 0.079487
Si Si7 0.603192 0.050513 0.345528
O O1 0.331774 0.028362 0.039861
O O2 0.215955 0.028006 0.023115
O O3 0.378170 0.216350 0.947793
O O4 0.465105 0.955993 0.901411
O O5 0.158014 0.114795 0.728842
O O6 0.000000 0.019183 0.750000
O O7 0.192521 0.865320 0.673574
O O8 0.999040 0.903931 0.829853
O O9 0.349938 0.700109 0.123159
O O10 0.330044 0.895511 0.196104
O O11 0.179433 0.673485 0.278918
O O12 0.894673 0.566494 0.100390
O O13 0.917882 0.754636 0.024745
O O14 0.500000 0.500000 0.500000
O O15 0.478816 0.562752 0.427291
#
# Coordination Sequence:
#
# PCOD9274623 Si02
#       7
#     8   8   8   8   8   8   8
#     4  10  20  38  64  90 123 159 216 256 307 375
#     4  11  23  40  64  89 128 167 211 255 323 380
#     4  11  25  41  64  93 127 164 209 262 315 380
#     4  10  21  36  64  92 117 168 208 255 308 379
#     4  11  24  41  63  94 131 160 215 266 314 374
#     4  10  21  40  61  93 125 162 207 265 309 369
#     4  11  23  40  64  93 125 166 212 258 315 378
#
# _framework density 18.970324999999999
#
# number of rings (size 3 to 8) (size 9 to 14) (size 15 to 20)
#    0.000    1.429    4.286    2.143    6.000    0.000 
#    2.571    0.714    0.000    0.000    0.000    0.000 
#    0.000    0.000    0.000    0.000    0.000    0.000 
#
# Total GULP energy -156081.593928 kJ/mol
# GULP energy per Si atom -5574.342640 kJ/mol
# Density = 1.892715 g / cm^3
# Si number density = 18.970325 Si / 1000 Ang^3
#
#
#
# Elastic Constant Matrix: (Units=GPa)
#
#
# Indices 1 2 3 4 5 6 
#
# 1 70.4558 0.4451 39.5518 0.0000 -6.8309 0.0001
# 2 0.4451 22.7185 32.1007 0.0000 9.5155 0.0002
# 3 39.5518 32.1007 130.6075 0.0000 -4.9985 0.0000
# 4 0.0000 0.0000 0.0000 37.0750 0.0000 0.1569
# 5 -6.8309 9.5155 -4.9985 0.0000 33.7585 0.0000
# 6 0.0001 0.0002 0.0000 0.1569 0.0000 14.2507
#
#
#
# Elastic Compliance Matrix: (Units=1/GPa)
#
#
# Indices 1 2 3 4 5 6 
#
# 1 0.019012 0.012642 -0.008904 0.000000 -0.001035 0.000000
# 2 0.012642 0.096204 -0.028575 0.000000 -0.028790 -0.000001
# 3 -0.008904 -0.028575 0.017716 0.000000 0.008876 0.000000
# 4 0.000000 0.000000 0.000000 0.026974 0.000000 -0.000297
# 5 -0.001035 -0.028790 0.008876 0.000000 0.038842 0.000000
# 6 0.000000 -0.000001 0.000000 -0.000297 0.000000 0.070175
#
#
# Mechanical properties :
#
#
# Convention : Reuss Voigt Hill
#
# Bulk Modulus (GPa) = 12.01094 40.88634 26.44864
# Shear Modulus (GPa) = 14.43628 27.12913 20.78270
#
# Velocity S-wave (km/s) = 2.76160 3.78575 3.31348
# Velocity P-wave (km/s) = 4.06371 6.38034 5.34895
#
# Compressibility (1/GPa) = 0.08325744
#
# Stress axis : x y z
#
# Youngs Moduli (GPa) = 52.59956 10.39453 56.44641
#
# Poissons Ratio (x) = -0.13141 0.50260
# Poissons Ratio (y) = -0.66498 1.61298
# Poissons Ratio (z) = 0.46835 0.29703
#
# Static dielectric constant tensor:
#      x y z
#    x 1.706600 0.000000 -0.026990 
#    y 0.000000 1.664600 0.000000 
#    z -0.026990 0.000000 1.685060 
# 
# From -- ./inp_files/317506.got.cif
#   From: 2010.05.17/outbox.cif.g08.bks.cpg/sg15_159_cif.got.tgz:317506.got - 2010.06.03 18:47:42.
