data_PCOD9274525
_publ_section_title
;
Structure prediction by ZEFSAII (Michael W. Deem and Ramdas Pophale) SiO2 
 PCOD9274525
Probable space group: C 2/C
;
_chemical_formula_sum "Si O2"
_cell_formula_units_Z 48
_cell_length_a 12.819999
_cell_length_b 13.575715
_cell_length_c 13.977138
_cell_angle_alpha 90.000000
_cell_angle_beta 119.680664
_cell_angle_gamma 90.000000
_cell_volume 2113.431150
_symmetry_space_group_name_H-M "C 2/C"
_symmetry_group_IT_number 15
_symmetry_cell_setting 'monoclinic'
loop_
_space_group_symop_operation_xyz
x,y,z
-x,y,1/2-z
-x,-y,-z
x,-y,1/2+z
1/2+x,1/2+y,z
1/2-x,1/2+y,1/2-z
1/2-x,1/2-y,-z
1/2+x,1/2-y,1/2+z
loop_
_atom_site_type_symbol
_atom_site_label
_atom_site_fract_x
_atom_site_fract_y
_atom_site_fract_z
Si Si1 0.897676 0.193291 0.972353
Si Si2 0.720947 0.641319 0.387876
Si Si3 0.294025 0.917219 0.227498
Si Si4 0.366103 0.963744 0.468658
Si Si5 0.867455 0.625643 0.166484
Si Si6 0.144481 0.790263 0.672062
O O1 0.834230 0.292085 0.906288
O O2 0.832056 0.108507 0.881196
O O3 0.857680 0.189397 0.065491
O O4 0.039005 0.198164 0.047445
O O5 0.787154 0.553424 0.471110
O O6 0.646345 0.627282 0.256960
O O7 0.294897 0.938757 0.340304
O O8 0.363901 0.811168 0.268692
O O9 0.352103 0.013696 0.204099
O O10 0.363708 0.884010 0.550284
O O11 0.500000 0.000000 0.500000
O O12 0.766311 0.693248 0.167927
O O13 0.000000 0.661779 0.250000
#
# Coordination Sequence:
#
# PCOD9274525 Si02
#       6
#     8   8   8   8   8   8
#     4  10  22  39  66  99 143 174 229 293 353 408
#     4  10  20  38  63  99 130 179 227 283 340 412
#     4  11  24  43  69 100 136 185 233 279 353 414
#     4  12  22  41  67  97 133 181 240 282 335 412
#     4  12  25  44  74 103 137 185 241 288 343 425
#     4  11  24  43  67 103 144 177 228 297 359 412
#
# _framework density 22.711881999999999
#
# number of rings (size 3 to 8) (size 9 to 14) (size 15 to 20)
#    0.000    1.000    5.000    1.500    0.000    2.667 
#    0.000    0.833    0.000    0.000    0.000    0.000 
#    0.000    0.000    0.000    0.000    0.000    0.000 
#
# Total GULP energy -133770.299249 kJ/mol
# GULP energy per Si atom -5573.762469 kJ/mol
# Density = 2.266019 g / cm^3
# Si number density = 22.711882 Si / 1000 Ang^3
#
#
#
# Elastic Constant Matrix: (Units=GPa)
#
#
# Indices 1 2 3 4 5 6 
#
# 1 97.7997 11.8449 49.5699 0.0000 11.4349 0.0000
# 2 11.8449 35.4116 1.6040 0.0000 11.0294 0.0000
# 3 49.5699 1.6040 128.9952 0.0000 6.5744 0.0000
# 4 0.0000 0.0000 0.0000 15.7904 0.0000 2.0049
# 5 11.4349 11.0294 6.5744 0.0000 47.6426 0.0000
# 6 0.0000 0.0000 0.0000 2.0049 0.0000 19.7434
#
#
#
# Elastic Compliance Matrix: (Units=1/GPa)
#
#
# Indices 1 2 3 4 5 6 
#
# 1 0.013420 -0.003744 -0.005026 0.000000 -0.001661 0.000000
# 2 -0.003744 0.031478 0.001383 0.000000 -0.006579 0.000000
# 3 -0.005026 0.001383 0.009689 0.000000 -0.000451 0.000000
# 4 0.000000 0.000000 0.000000 0.064157 0.000000 -0.006515
# 5 -0.001661 -0.006579 -0.000451 0.000000 0.022974 0.000000
# 6 0.000000 0.000000 0.000000 -0.006515 0.000000 0.051311
#
#
# Mechanical properties :
#
#
# Convention : Reuss Voigt Hill
#
# Bulk Modulus (GPa) = 25.11724 43.13823 34.12773
# Shear Modulus (GPa) = 22.61681 29.91447 26.26564
#
# Velocity S-wave (km/s) = 3.15908 3.63316 3.40438
# Velocity P-wave (km/s) = 4.93857 6.05267 5.52378
#
# Compressibility (1/GPa) = 0.03981330
#
# Stress axis : x y z
#
# Youngs Moduli (GPa) = 74.51605 31.76795 103.20653
#
# Poissons Ratio (x) = 0.11894 0.51869
# Poissons Ratio (y) = 0.27898 -0.14270
# Poissons Ratio (z) = 0.37450 -0.04392
#
# Static dielectric constant tensor:
#      x y z
#    x 1.846120 0.000000 0.035530 
#    y 0.000000 2.091900 0.000000 
#    z 0.035530 0.000000 1.898310 
# 
# From -- ./inp_files/144369.got.cif
#   From: 2010.05.17/outbox.cif.g08.bks.cpg/sg15_73_cif.got.tgz:144369.got - 2010.06.03 18:47:42.
