data_PCOD9274497
_publ_section_title
;
Structure prediction by ZEFSAII (Michael W. Deem and Ramdas Pophale) SiO2 
 PCOD9274497
Probable space group: C 2/C
;
_chemical_formula_sum "Si O2"
_cell_formula_units_Z 56
_cell_length_a 17.977042
_cell_length_b 25.908226
_cell_length_c 9.900153
_cell_angle_alpha 90.000000
_cell_angle_beta 35.486970
_cell_angle_gamma 90.000000
_cell_volume 2676.784169
_symmetry_space_group_name_H-M "C 2/C"
_symmetry_group_IT_number 15
_symmetry_cell_setting 'monoclinic'
loop_
_space_group_symop_operation_xyz
x,y,z
-x,y,1/2-z
-x,-y,-z
x,-y,1/2+z
1/2+x,1/2+y,z
1/2-x,1/2+y,1/2-z
1/2-x,1/2-y,-z
1/2+x,1/2-y,1/2+z
loop_
_atom_site_type_symbol
_atom_site_label
_atom_site_fract_x
_atom_site_fract_y
_atom_site_fract_z
Si Si1 0.084382 0.835394 0.400068
Si Si2 0.261403 0.960929 0.475501
Si Si3 0.500000 0.415637 0.750000
Si Si4 0.327887 0.784895 0.988104
Si Si5 0.729003 0.939355 0.715403
Si Si6 0.975747 0.620945 0.628206
Si Si7 0.462417 0.229316 0.534509
Si Si8 0.500000 0.614565 0.750000
O O1 0.046645 0.877867 0.562714
O O2 0.237434 0.831527 0.163244
O O3 0.024982 0.778245 0.514872
O O4 0.031347 0.850649 0.332605
O O5 0.117623 0.947892 0.637563
O O6 0.270067 0.958340 0.627456
O O7 0.360088 0.918399 0.270382
O O8 0.295651 0.014933 0.354822
O O9 0.250000 0.750000 0.000000
O O10 0.445143 0.796098 0.715983
O O11 0.352228 0.754149 0.092008
O O12 0.870913 0.917179 0.474709
O O13 0.613335 0.898036 0.866847
O O14 0.931889 0.679752 0.667462
O O15 0.000000 0.616918 0.750000
#
# Coordination Sequence:
#
# PCOD9274497 Si02
#       8
#     8   8   4   8   8   8   8   4
#     4  11  23  38  62  94 133 171 210 262 315 388
#     4  11  25  47  67  96 128 169 218 276 336 391
#     4  12  25  42  62 100 138 166 221 262 330 398
#     4   9  18  36  58  85 123 170 216 262 302 374
#     4  11  25  45  72  95 126 169 216 281 335 387
#     4  10  23  44  66  96 132 170 218 268 327 393
#     4  10  20  38  63  94 127 172 217 259 320 381
#     4  12  23  42  68  98 128 172 217 262 328 392
#
# _framework density 20.920627
#
# number of rings (size 3 to 8) (size 9 to 14) (size 15 to 20)
#    0.000    1.429    1.429    4.286    3.000    2.286 
#    5.143    1.429    0.000    0.000    0.000    0.000 
#    0.000    0.000    0.000    0.000    0.000    0.000 
#
# Total GULP energy -156029.287733 kJ/mol
# GULP energy per Si atom -5572.474562 kJ/mol
# Density = 2.087301 g / cm^3
# Si number density = 20.920627 Si / 1000 Ang^3
#
#
#
# Elastic Constant Matrix: (Units=GPa)
#
#
# Indices 1 2 3 4 5 6 
#
# 1 49.8229 -8.8600 -12.7175 0.0000 8.6708 0.0000
# 2 -8.8600 63.1129 0.2170 0.0000 13.7741 0.0000
# 3 -12.7175 0.2170 43.1936 0.0000 4.7767 0.0000
# 4 0.0000 0.0000 0.0000 38.8465 0.0000 2.4796
# 5 8.6708 13.7741 4.7767 0.0000 19.0198 0.0000
# 6 0.0000 0.0000 0.0000 2.4796 0.0000 35.1290
#
#
#
# Elastic Compliance Matrix: (Units=1/GPa)
#
#
# Indices 1 2 3 4 5 6 
#
# 1 0.028114 0.008659 0.010640 0.000000 -0.021760 0.000000
# 2 0.008659 0.021575 0.004737 0.000000 -0.020762 0.000000
# 3 0.010640 0.004737 0.027953 0.000000 -0.015302 0.000000
# 4 0.000000 0.000000 0.000000 0.025859 0.000000 -0.001825
# 5 -0.021760 -0.020762 -0.015302 0.000000 0.081375 0.000000
# 6 0.000000 0.000000 0.000000 -0.001825 0.000000 0.028595
#
#
# Mechanical properties :
#
#
# Convention : Reuss Voigt Hill
#
# Bulk Modulus (GPa) = 7.95449 12.60095 10.27772
# Shear Modulus (GPa) = 24.11928 30.43172 27.27550
#
# Velocity S-wave (km/s) = 3.39911 3.81810 3.61468
# Velocity P-wave (km/s) = 4.38358 5.04712 4.72701
#
# Compressibility (1/GPa) = 0.12571513
#
# Stress axis : x y z
#
# Youngs Moduli (GPa) = 35.56968 46.34969 35.77458
#
# Poissons Ratio (x) = -0.40135 -0.38066
# Poissons Ratio (y) = -0.30800 -0.16947
# Poissons Ratio (z) = -0.37848 -0.21957
#
# Static dielectric constant tensor:
#      x y z
#    x 2.235570 0.000000 -0.546980 
#    y 0.000000 1.655030 0.000000 
#    z -0.546980 0.000000 2.519760 
# 
# From -- ./inp_files/52322.got.cif
#   From: 2010.05.17/outbox.cif.g08.bks.cpg/sg15_27_cif.got.tgz:52322.got - 2010.06.03 18:47:42.
