data_PCOD9274742
_publ_section_title
;
Structure prediction by ZEFSAII (Michael W. Deem and Ramdas Pophale) SiO2 
 PCOD9274742
Probable space group: C 2/C
;
_chemical_formula_sum "Si O2"
_cell_formula_units_Z 48
_cell_length_a 22.150017
_cell_length_b 11.475945
_cell_length_c 14.022423
_cell_angle_alpha 90.000000
_cell_angle_beta 143.938108
_cell_angle_gamma 90.000000
_cell_volume 2098.211413
_symmetry_space_group_name_H-M "C 2/C"
_symmetry_group_IT_number 15
_symmetry_cell_setting 'monoclinic'
loop_
_space_group_symop_operation_xyz
x,y,z
-x,y,1/2-z
-x,-y,-z
x,-y,1/2+z
1/2+x,1/2+y,z
1/2-x,1/2+y,1/2-z
1/2-x,1/2-y,-z
1/2+x,1/2-y,1/2+z
loop_
_atom_site_type_symbol
_atom_site_label
_atom_site_fract_x
_atom_site_fract_y
_atom_site_fract_z
Si Si1 0.251838 0.500732 0.814968
Si Si2 0.145788 0.729852 0.758246
Si Si3 0.119534 0.839411 0.405522
Si Si4 0.260860 0.104876 0.911943
Si Si5 0.051119 0.620784 0.031435
Si Si6 0.157778 0.630703 0.970750
O O1 0.206913 0.611977 0.811733
O O2 0.166620 0.396245 0.717537
O O3 0.271116 0.329780 0.653034
O O4 0.351920 0.446806 0.989220
O O5 0.035947 0.719559 0.564465
O O6 0.171359 0.497979 0.954052
O O7 0.129858 0.719693 0.851603
O O8 0.166722 0.868390 0.361652
O O9 0.172690 0.721280 0.510194
O O10 0.000000 0.820917 0.250000
O O11 0.236257 0.053265 0.776159
O O12 0.076494 0.626903 0.951634
O O13 0.000000 0.500000 0.000000
#
# Coordination Sequence:
#
# PCOD9274742 Si02
#       6
#     8   8   8   8   8   8
#     4  10  22  43  68 100 139 177 239 294 342 431
#     4  10  20  38  64  98 138 179 225 295 358 418
#     4  11  25  49  72  99 142 192 235 291 367 427
#     4  10  24  45  68 100 141 186 238 295 347 435
#     4   9  20  38  63  95 130 181 232 279 343 419
#     4  10  20  39  64  98 138 178 231 297 351 419
#
# _framework density 22.876626999999999
#
# number of rings (size 3 to 8) (size 9 to 14) (size 15 to 20)
#    0.000    2.000    1.667    0.500    4.667    3.333 
#   15.000    0.000    0.000    0.000    0.000    0.000 
#    0.000    0.000    0.000    0.000    0.000    0.000 
#
# Total GULP energy -133878.773376 kJ/mol
# GULP energy per Si atom -5578.282224 kJ/mol
# Density = 2.282456 g / cm^3
# Si number density = 22.876627 Si / 1000 Ang^3
#
#
#
# Elastic Constant Matrix: (Units=GPa)
#
#
# Indices 1 2 3 4 5 6 
#
# 1 126.8111 41.2961 51.6764 0.0000 5.1264 0.0000
# 2 41.2961 80.6602 39.3662 0.0000 9.8268 0.0000
# 3 51.6764 39.3662 81.1742 0.0000 11.2701 0.0000
# 4 0.0000 0.0000 0.0000 20.2918 0.0000 -1.2677
# 5 5.1264 9.8268 11.2701 0.0000 37.4237 0.0000
# 6 0.0000 0.0000 0.0000 -1.2677 0.0000 20.5737
#
#
#
# Elastic Compliance Matrix: (Units=1/GPa)
#
#
# Indices 1 2 3 4 5 6 
#
# 1 0.011193 -0.003023 -0.005799 0.000000 0.001007 0.000000
# 2 -0.003023 0.017199 -0.006102 0.000000 -0.002264 0.000000
# 3 -0.005799 -0.006102 0.019451 0.000000 -0.003461 0.000000
# 4 0.000000 0.000000 0.000000 0.049471 0.000000 0.003048
# 5 0.001007 -0.002264 -0.003461 0.000000 0.028220 0.000000
# 6 0.000000 0.000000 0.000000 0.003048 0.000000 0.048794
#
#
# Mechanical properties :
#
#
# Convention : Reuss Voigt Hill
#
# Bulk Modulus (GPa) = 55.57297 61.48032 58.52664
# Shear Modulus (GPa) = 23.78976 26.07829 24.93403
#
# Velocity S-wave (km/s) = 3.22827 3.37998 3.30500
# Velocity P-wave (km/s) = 6.18392 6.49349 6.34060
#
# Compressibility (1/GPa) = 0.01799436
#
# Stress axis : x y z
#
# Youngs Moduli (GPa) = 89.34447 58.14171 51.41140
#
# Poissons Ratio (x) = 0.17575 0.29815
# Poissons Ratio (y) = 0.27006 0.31373
# Poissons Ratio (z) = 0.51813 0.35480
#
# Static dielectric constant tensor:
#      x y z
#    x 2.023950 0.000000 -0.102220 
#    y 0.000000 1.840800 0.000000 
#    z -0.102220 0.000000 1.990340 
# 
# From -- ./inp_files/173365.got.cif
#   From: 2010.05.17/outbox.cif.g08.bks.cpg/sg15_87_cif.got.tgz:173365.got - 2010.06.03 18:47:42.
