data_PCOD9274649
_publ_section_title
;
Structure prediction by ZEFSAII (Michael W. Deem and Ramdas Pophale) SiO2 
 PCOD9274649
Probable space group: C 2/C
;
_chemical_formula_sum "Si O2"
_cell_formula_units_Z 64
_cell_length_a 14.935796
_cell_length_b 17.092893
_cell_length_c 23.768341
_cell_angle_alpha 90.000000
_cell_angle_beta 30.088074
_cell_angle_gamma 90.000000
_cell_volume 3042.055065
_symmetry_space_group_name_H-M "C 2/C"
_symmetry_group_IT_number 15
_symmetry_cell_setting 'monoclinic'
loop_
_space_group_symop_operation_xyz
x,y,z
-x,y,1/2-z
-x,-y,-z
x,-y,1/2+z
1/2+x,1/2+y,z
1/2-x,1/2+y,1/2-z
1/2-x,1/2-y,-z
1/2+x,1/2-y,1/2+z
loop_
_atom_site_type_symbol
_atom_site_label
_atom_site_fract_x
_atom_site_fract_y
_atom_site_fract_z
Si Si1 0.296613 0.046443 0.346294
Si Si2 0.296867 0.518205 0.484327
Si Si3 0.277093 0.801988 0.251830
Si Si4 0.475396 0.310131 0.506423
Si Si5 0.587274 0.694012 0.074549
Si Si6 0.179944 0.198020 0.680506
Si Si7 0.394003 0.478058 0.255934
Si Si8 0.105012 0.477791 0.326842
O O1 0.500000 0.070262 0.250000
O O2 0.161777 0.118112 0.418932
O O3 0.233403 0.991556 0.432322
O O4 0.307432 0.006946 0.279247
O O5 0.366613 0.605617 0.434355
O O6 0.453212 0.463872 0.374513
O O7 0.104877 0.502168 0.560170
O O8 0.411539 0.733437 0.196749
O O9 0.186288 0.777980 0.242482
O O10 0.380769 0.883053 0.182003
O O11 0.131541 0.819751 0.377353
O O12 0.554443 0.303179 0.525640
O O13 0.356656 0.233878 0.557576
O O14 0.750000 0.750000 0.000000
O O15 0.173523 0.104266 0.682535
O O16 0.000000 0.227762 0.750000
O O17 0.500000 0.518916 0.250000
O O18 0.223520 0.510366 0.314267
#
# Coordination Sequence:
#
# PCOD9274649 Si02
#       8
#     8   8   8   8   8   8   8   8
#     4  10  21  37  66 102 125 157 206 266 338 376
#     4  11  22  40  66  92 127 167 205 272 316 376
#     4  10  21  38  60  89 119 166 208 248 319 378
#     4  11  22  38  64  92 127 163 202 267 315 375
#     4  11  23  41  60  88 127 164 209 257 315 376
#     4   9  20  39  61  86 123 159 205 257 307 372
#     4  10  22  41  60  86 120 171 217 249 302 375
#     4  10  20  38  64  91 125 158 207 262 322 384
#
# _framework density 21.038408
#
# number of rings (size 3 to 8) (size 9 to 14) (size 15 to 20)
#    0.000    1.750    1.250    3.375    0.000    3.000 
#    2.250   12.500    0.000    0.000    0.000    0.000 
#    0.000    0.000    0.000    0.000    0.000    0.000 
#
# Total GULP energy -178705.545596 kJ/mol
# GULP energy per Si atom -5584.548300 kJ/mol
# Density = 2.099052 g / cm^3
# Si number density = 21.038408 Si / 1000 Ang^3
#
#
#
# Elastic Constant Matrix: (Units=GPa)
#
#
# Indices 1 2 3 4 5 6 
#
# 1 120.4098 22.2739 12.7836 0.0007 -24.6243 -0.0003
# 2 22.2739 70.1237 22.5865 -0.0016 -9.8075 0.0000
# 3 12.7836 22.5865 49.2449 -0.0018 -15.0503 -0.0007
# 4 0.0007 -0.0016 -0.0018 28.6231 0.0000 -5.4214
# 5 -24.6243 -9.8075 -15.0503 0.0000 21.1701 0.0012
# 6 -0.0003 0.0000 -0.0007 -5.4214 0.0012 21.4049
#
#
#
# Elastic Compliance Matrix: (Units=1/GPa)
#
#
# Indices 1 2 3 4 5 6 
#
# 1 0.011308 -0.002439 0.002373 0.000000 0.013710 -0.000001
# 2 -0.002439 0.017402 -0.007348 0.000001 0.000001 0.000000
# 3 0.002373 -0.007348 0.029211 0.000001 0.020123 0.000000
# 4 0.000000 0.000001 0.000001 0.036697 0.000000 0.009295
# 5 0.013710 0.000001 0.020123 0.000000 0.077490 -0.000003
# 6 -0.000001 0.000000 0.000000 0.009295 -0.000003 0.049072
#
#
# Mechanical properties :
#
#
# Convention : Reuss Voigt Hill
#
# Bulk Modulus (GPa) = 23.20516 39.45184 31.32850
# Shear Modulus (GPa) = 19.97022 26.38191 23.17607
#
# Velocity S-wave (km/s) = 3.08429 3.54501 3.32265
# Velocity P-wave (km/s) = 4.87213 5.96231 5.44458
#
# Compressibility (1/GPa) = 0.04309386
#
# Stress axis : x y z
#
# Youngs Moduli (GPa) = 88.43309 57.46424 34.23383
#
# Poissons Ratio (x) = 0.14014 -0.08125
# Poissons Ratio (y) = 0.21566 0.25155
# Poissons Ratio (z) = -0.20988 0.42225
#
# Static dielectric constant tensor:
#      x y z
#    x 1.791320 0.000000 -0.008960 
#    y 0.000000 1.766220 0.000000 
#    z -0.008960 0.000000 1.730780 
# 
# From -- ./inp_files/274816.got.cif
#   From: 2010.05.17/outbox.cif.g08.bks.cpg/sg15_138_cif.got.tgz:274816.got - 2010.06.03 18:47:42.
