data_PCOD9274267
_publ_section_title
;
Structure prediction by ZEFSAII (Michael W. Deem and Ramdas Pophale) SiO2 
 PCOD9274267
Probable space group: C 2/C
;
_chemical_formula_sum "Si O2"
_cell_formula_units_Z 52
_cell_length_a 13.933812
_cell_length_b 5.181459
_cell_length_c 27.455687
_cell_angle_alpha 90.000000
_cell_angle_beta 79.469135
_cell_angle_gamma 90.000000
_cell_volume 1948.843768
_symmetry_space_group_name_H-M "C 2/C"
_symmetry_group_IT_number 15
_symmetry_cell_setting 'monoclinic'
loop_
_space_group_symop_operation_xyz
x,y,z
-x,y,1/2-z
-x,-y,-z
x,-y,1/2+z
1/2+x,1/2+y,z
1/2-x,1/2+y,1/2-z
1/2-x,1/2-y,-z
1/2+x,1/2-y,1/2+z
loop_
_atom_site_type_symbol
_atom_site_label
_atom_site_fract_x
_atom_site_fract_y
_atom_site_fract_z
Si Si1 0.392351 0.251974 0.518472
Si Si2 0.919366 0.728627 0.666531
Si Si3 0.420786 0.630207 0.837907
Si Si4 0.000000 0.508717 0.750000
Si Si5 0.300687 0.502460 0.939067
Si Si6 0.045155 0.390645 0.072201
Si Si7 0.764011 0.999870 0.781780
O O1 0.329464 0.457268 0.493789
O O2 0.313153 0.065091 0.551631
O O3 0.474096 0.318405 0.550462
O O4 0.443185 0.105018 0.469216
O O5 0.931478 0.673920 0.722364
O O6 0.807963 0.648498 0.672928
O O7 0.983388 0.547980 0.625449
O O8 0.976745 0.996973 0.656210
O O9 0.442357 0.842407 0.795063
O O10 0.357940 0.672608 0.892932
O O11 0.354431 0.441163 0.809765
O O12 0.350419 0.228219 0.924306
O O13 0.776411 0.230300 0.738994
#
# Coordination Sequence:
#
# PCOD9274267 Si02
#       7
#     8   8   8   4   8   8   8
#     4  10  20  38  62  89 124 166 203 286 322 416
#     4  11  24  40  64  94 129 179 225 287 345 425
#     4  11  24  40  64  94 129 179 225 287 345 425
#     4  12  20  40  60  84 126 164 222 276 338 404
#     4  10  21  38  61  90 125 162 220 263 347 402
#     4  10  21  38  61  90 125 162 220 263 347 402
#     4  12  25  46  68  99 140 186 237 296 354 423
#
# _framework density 26.682490000000001
#
# number of rings (size 3 to 8) (size 9 to 14) (size 15 to 20)
#    0.000    1.231    1.538    5.077    0.000    0.000 
#    0.000    0.000    6.769    0.000    0.000    0.000 
#    0.000    0.000    0.000    0.000    0.000    0.000 
#
# Total GULP energy -144996.860769 kJ/mol
# GULP energy per Si atom -5576.802337 kJ/mol
# Density = 2.662176 g / cm^3
# Si number density = 26.682490 Si / 1000 Ang^3
#
#
#
# Elastic Constant Matrix: (Units=GPa)
#
#
# Indices 1 2 3 4 5 6 
#
# 1 58.4674 1.7644 30.9031 0.0001 -16.6021 0.0001
# 2 1.7644 77.9468 25.9602 0.0001 -1.4174 0.0002
# 3 30.9031 25.9602 187.2359 0.0000 -10.5193 0.0000
# 4 0.0001 0.0001 0.0000 42.8587 0.0000 -3.4014
# 5 -16.6021 -1.4174 -10.5193 0.0000 45.5901 0.0000
# 6 0.0001 0.0002 0.0000 -3.4014 0.0000 25.8399
#
#
#
# Elastic Compliance Matrix: (Units=1/GPa)
#
#
# Indices 1 2 3 4 5 6 
#
# 1 0.020673 0.000697 -0.003125 0.000000 0.006829 0.000000
# 2 0.000697 0.013474 -0.001971 0.000000 0.000218 0.000000
# 3 -0.003125 -0.001971 0.006142 0.000000 0.000218 0.000000
# 4 0.000000 0.000000 0.000000 0.023579 0.000000 0.003104
# 5 0.006829 0.000218 0.000218 0.000000 0.024478 0.000000
# 6 0.000000 0.000000 0.000000 0.003104 0.000000 0.039108
#
#
# Mechanical properties :
#
#
# Convention : Reuss Voigt Hill
#
# Bulk Modulus (GPa) = 31.75468 48.98951 40.37209
# Shear Modulus (GPa) = 34.07148 40.52591 37.29870
#
# Velocity S-wave (km/s) = 3.57728 3.90143 3.74287
# Velocity P-wave (km/s) = 5.38418 6.22053 5.81740
#
# Compressibility (1/GPa) = 0.03149142
#
# Stress axis : x y z
#
# Youngs Moduli (GPa) = 48.37130 74.21771 162.80897
#
# Poissons Ratio (x) = -0.05173 0.50880
# Poissons Ratio (y) = -0.03372 0.32089
# Poissons Ratio (z) = 0.15117 0.14628
#
# Static dielectric constant tensor:
#      x y z
#    x 2.387450 0.000000 -0.057660 
#    y 0.000000 2.267710 0.000000 
#    z -0.057660 0.000000 2.076030 
# 
# From -- ./inp_files/312289.got.cif
#   From: 2010.05.17/outbox.cif.g08.bks.cpg/sg15_157_cif.got.tgz:312289.got - 2010.06.03 18:47:42.
