data_PCOD9274481
_publ_section_title
;
Structure prediction by ZEFSAII (Michael W. Deem and Ramdas Pophale) SiO2 
 PCOD9274481
Probable space group: C 2/C
;
_chemical_formula_sum "Si O2"
_cell_formula_units_Z 64
_cell_length_a 32.543037
_cell_length_b 18.536319
_cell_length_c 9.788037
_cell_angle_alpha 90.000000
_cell_angle_beta 146.605659
_cell_angle_gamma 90.000000
_cell_volume 3249.782128
_symmetry_space_group_name_H-M "C 2/C"
_symmetry_group_IT_number 15
_symmetry_cell_setting 'monoclinic'
loop_
_space_group_symop_operation_xyz
x,y,z
-x,y,1/2-z
-x,-y,-z
x,-y,1/2+z
1/2+x,1/2+y,z
1/2-x,1/2+y,1/2-z
1/2-x,1/2-y,-z
1/2+x,1/2-y,1/2+z
loop_
_atom_site_type_symbol
_atom_site_label
_atom_site_fract_x
_atom_site_fract_y
_atom_site_fract_z
Si Si1 0.205541 0.345127 0.893372
Si Si2 0.842202 0.518591 0.070304
Si Si3 0.554514 0.575262 0.769536
Si Si4 0.450940 0.408975 0.746547
Si Si5 0.815787 0.704783 0.615598
Si Si6 0.777294 0.905975 0.821696
Si Si7 0.339716 0.279904 0.413334
Si Si8 0.088268 0.583070 0.509979
O O1 0.166085 0.410802 0.859163
O O2 0.261171 0.379285 0.932037
O O3 0.151519 0.288036 0.665835
O O4 0.254737 0.302784 0.142200
O O5 0.889553 0.461553 0.291570
O O6 0.760668 0.484360 0.807881
O O7 0.879820 0.540069 0.031966
O O8 0.500000 0.577545 0.750000
O O9 0.571106 0.490976 0.776926
O O10 0.505810 0.614565 0.519513
O O11 0.638781 0.604177 0.999882
O O12 0.500000 0.417278 0.750000
O O13 0.387937 0.351926 0.534837
O O14 0.750000 0.750000 0.500000
O O15 0.773538 0.644601 0.411202
O O16 0.854021 0.753603 0.606575
O O17 0.871651 0.661222 0.867849
O O18 0.000000 0.590372 0.250000
#
# Coordination Sequence:
#
# PCOD9274481 Si02
#       8
#     8   8   8   8   8   8   8   8
#     4  10  20  38  63  93 120 168 219 261 320 385
#     4  11  21  41  70  98 125 165 214 267 335 382
#     4  10  22  37  60  94 127 165 212 264 325 371
#     4  10  21  39  56  86 127 161 210 254 315 377
#     4  10  23  41  60  91 127 166 218 259 308 391
#     4  10  21  38  64  92 125 160 220 265 314 387
#     4  10  21  38  60  85 128 167 214 263 307 386
#     4  11  24  44  67 100 133 165 212 276 329 387
#
# _framework density 19.693629000000001
#
# number of rings (size 3 to 8) (size 9 to 14) (size 15 to 20)
#    0.000    1.750    1.250    2.625    1.750    2.000 
#    4.500    0.000    0.000    0.000    0.000    0.000 
#    0.000    0.000    0.000    0.000    0.000    0.000 
#
# Total GULP energy -178320.958843 kJ/mol
# GULP energy per Si atom -5572.529964 kJ/mol
# Density = 1.964881 g / cm^3
# Si number density = 19.693629 Si / 1000 Ang^3
#
#
#
# Elastic Constant Matrix: (Units=GPa)
#
#
# Indices 1 2 3 4 5 6 
#
# 1 68.1964 6.2040 35.1018 0.0000 -5.7916 0.0000
# 2 6.2040 60.4560 13.0787 0.0000 -10.4087 0.0000
# 3 35.1018 13.0787 86.4049 0.0000 -2.7020 0.0000
# 4 0.0000 0.0000 0.0000 40.1849 0.0000 5.5808
# 5 -5.7916 -10.4087 -2.7020 0.0000 22.8209 0.0000
# 6 0.0000 0.0000 0.0000 5.5808 0.0000 40.9669
#
#
#
# Elastic Compliance Matrix: (Units=1/GPa)
#
#
# Indices 1 2 3 4 5 6 
#
# 1 0.018889 0.000410 -0.007608 0.000000 0.004080 0.000000
# 2 0.000410 0.018501 -0.002710 0.000000 0.008221 0.000000
# 3 -0.007608 -0.002710 0.015031 0.000000 -0.001387 0.000000
# 4 0.000000 0.000000 0.000000 0.025365 0.000000 -0.003455
# 5 0.004080 0.008221 -0.001387 0.000000 0.048440 0.000000
# 6 0.000000 0.000000 0.000000 -0.003455 0.000000 0.024881
#
#
# Mechanical properties :
#
#
# Convention : Reuss Voigt Hill
#
# Bulk Modulus (GPa) = 30.67054 35.98069 33.32561
# Shear Modulus (GPa) = 27.50429 31.50607 29.50518
#
# Velocity S-wave (km/s) = 3.74118 4.00410 3.87487
# Velocity P-wave (km/s) = 5.85402 6.29976 6.08097
#
# Compressibility (1/GPa) = 0.03260458
#
# Stress axis : x y z
#
# Youngs Moduli (GPa) = 52.94189 54.05232 66.52954
#
# Poissons Ratio (x) = -0.02216 0.50615
# Poissons Ratio (y) = -0.02170 0.18028
# Poissons Ratio (z) = 0.40278 0.14647
#
# Static dielectric constant tensor:
#      x y z
#    x 2.032010 0.000000 -0.038910 
#    y 0.000000 0.846070 0.000000 
#    z -0.038910 0.000000 1.705380 
# 
# From -- ./inp_files/70624.got.cif
#   From: 2010.05.17/outbox.cif.g08.bks.cpg/sg15_36_cif.got.tgz:70624.got - 2010.06.03 18:47:42.
