data_PCOD9274824
_publ_section_title
;
Structure prediction by ZEFSAII (Michael W. Deem and Ramdas Pophale) SiO2 
 PCOD9274824
Probable space group: C 2/C
;
_chemical_formula_sum "Si O2"
_cell_formula_units_Z 60
_cell_length_a 19.930130
_cell_length_b 11.134679
_cell_length_c 21.653159
_cell_angle_alpha 90.000000
_cell_angle_beta 35.175358
_cell_angle_gamma 90.000000
_cell_volume 2768.168455
_symmetry_space_group_name_H-M "C 2/C"
_symmetry_group_IT_number 15
_symmetry_cell_setting 'monoclinic'
loop_
_space_group_symop_operation_xyz
x,y,z
-x,y,1/2-z
-x,-y,-z
x,-y,1/2+z
1/2+x,1/2+y,z
1/2-x,1/2+y,1/2-z
1/2-x,1/2-y,-z
1/2+x,1/2-y,1/2+z
loop_
_atom_site_type_symbol
_atom_site_label
_atom_site_fract_x
_atom_site_fract_y
_atom_site_fract_z
Si Si1 0.102744 0.561153 0.360931
Si Si2 0.500000 0.656168 0.250000
Si Si3 0.658598 0.364990 0.800549
Si Si4 0.080744 0.520203 0.247345
Si Si5 0.095436 0.327526 0.445005
Si Si6 0.221108 0.716481 0.634347
Si Si7 0.768757 0.809791 0.553418
Si Si8 0.424941 0.551993 0.433809
O O1 0.234899 0.580226 0.241951
O O2 0.027148 0.535645 0.355944
O O3 0.111299 0.462828 0.408550
O O4 0.039388 0.678908 0.434179
O O5 0.379898 0.731749 0.334645
O O6 0.475724 0.576943 0.327909
O O7 0.617235 0.250505 0.868937
O O8 0.714461 0.314407 0.694540
O O9 0.545529 0.449061 0.881374
O O10 0.165190 0.408956 0.196835
O O11 0.149420 0.637813 0.172096
O O12 0.000000 0.488835 0.250000
O O13 0.175883 0.284325 0.440213
O O14 0.343675 0.667552 0.514539
O O15 0.750000 0.750000 0.500000
O O16 0.852322 0.928409 0.488585
#
# Coordination Sequence:
#
# PCOD9274824 Si02
#       8
#     8   4   8   8   8   8   8   8
#     4  11  24  42  66  98 131 175 229 278 331 408
#     4  10  20  40  64  96 138 174 218 278 326 386
#     4  11  22  42  66  98 133 170 220 284 337 389
#     4  11  21  41  66  95 128 175 225 268 332 406
#     4  11  24  43  68  97 131 176 228 275 338 398
#     4  10  20  38  65  95 129 172 221 276 332 389
#     4  11  25  46  64  96 137 178 220 273 340 405
#     4  10  24  40  65  99 133 175 226 269 334 405
#
# _framework density 21.674982
#
# number of rings (size 3 to 8) (size 9 to 14) (size 15 to 20)
#    0.000    1.333    3.333    2.000    0.000    3.733 
#    6.000    1.333    0.000    0.000    0.000    0.000 
#    0.000    0.000    0.000    0.000    0.000    0.000 
#
# Total GULP energy -167073.296527 kJ/mol
# GULP energy per Si atom -5569.109884 kJ/mol
# Density = 2.162565 g / cm^3
# Si number density = 21.674982 Si / 1000 Ang^3
#
#
#
# Elastic Constant Matrix: (Units=GPa)
#
#
# Indices 1 2 3 4 5 6 
#
# 1 93.3957 23.3044 21.7431 0.0000 5.2018 0.0000
# 2 23.3044 59.2575 5.5019 0.0000 4.2840 0.0000
# 3 21.7431 5.5019 65.8550 0.0000 0.0567 0.0000
# 4 0.0000 0.0000 0.0000 22.7304 0.0000 4.5852
# 5 5.2018 4.2840 0.0567 0.0000 31.2314 0.0000
# 6 0.0000 0.0000 0.0000 4.5852 0.0000 24.6630
#
#
#
# Elastic Compliance Matrix: (Units=1/GPa)
#
#
# Indices 1 2 3 4 5 6 
#
# 1 0.012830 -0.004580 -0.003852 0.000000 -0.001502 0.000000
# 2 -0.004580 0.018813 -0.000058 0.000000 -0.001818 0.000000
# 3 -0.003852 -0.000058 0.016461 0.000000 0.000620 0.000000
# 4 0.000000 0.000000 0.000000 0.045708 0.000000 -0.008498
# 5 -0.001502 -0.001818 0.000620 0.000000 0.032517 0.000000
# 6 0.000000 0.000000 0.000000 -0.008498 0.000000 0.042126
#
#
# Mechanical properties :
#
#
# Convention : Reuss Voigt Hill
#
# Bulk Modulus (GPa) = 32.12881 35.51191 33.82036
# Shear Modulus (GPa) = 25.53473 26.92220 26.22847
#
# Velocity S-wave (km/s) = 3.43603 3.52815 3.48239
# Velocity P-wave (km/s) = 5.53145 5.74600 5.63974
#
# Compressibility (1/GPa) = 0.03112471
#
# Stress axis : x y z
#
# Youngs Moduli (GPa) = 77.94043 53.15379 60.74931
#
# Poissons Ratio (x) = 0.24342 0.23402
# Poissons Ratio (y) = 0.35693 0.00353
# Poissons Ratio (z) = 0.30025 0.00309
#
# Static dielectric constant tensor:
#      x y z
#    x 1.843250 0.000000 0.002630 
#    y 0.000000 1.783480 0.000000 
#    z 0.002630 0.000000 1.901500 
# 
# From -- ./inp_files/280078.got.cif
#   From: 2010.05.17/outbox.cif.g08.bks.cpg/sg15_141_cif.got.tgz:280078.got - 2010.06.03 18:47:42.
