data_PCOD9274658
_publ_section_title
;
Structure prediction by ZEFSAII (Michael W. Deem and Ramdas Pophale) SiO2 
 PCOD9274658
Probable space group: C 2/C
;
_chemical_formula_sum "Si O2"
_cell_formula_units_Z 56
_cell_length_a 9.390347
_cell_length_b 15.809070
_cell_length_c 16.713568
_cell_angle_alpha 90.000000
_cell_angle_beta 86.986938
_cell_angle_gamma 90.000000
_cell_volume 2477.743481
_symmetry_space_group_name_H-M "C 2/C"
_symmetry_group_IT_number 15
_symmetry_cell_setting 'monoclinic'
loop_
_space_group_symop_operation_xyz
x,y,z
-x,y,1/2-z
-x,-y,-z
x,-y,1/2+z
1/2+x,1/2+y,z
1/2-x,1/2+y,1/2-z
1/2-x,1/2-y,-z
1/2+x,1/2-y,1/2+z
loop_
_atom_site_type_symbol
_atom_site_label
_atom_site_fract_x
_atom_site_fract_y
_atom_site_fract_z
Si Si1 0.668048 0.034699 0.755200
Si Si2 0.999296 0.205946 0.089765
Si Si3 0.709949 0.449021 0.910245
Si Si4 0.202467 0.290416 0.197164
Si Si5 0.471127 0.854760 0.979446
Si Si6 0.621466 0.867657 0.811744
Si Si7 0.221640 0.121352 0.967600
O O1 0.500000 0.048926 0.750000
O O2 0.728151 0.989611 0.673479
O O3 0.688483 0.961723 0.821343
O O4 0.720284 0.131415 0.757816
O O5 0.050348 0.259792 0.164982
O O6 0.899207 0.125838 0.106413
O O7 0.929191 0.272206 0.030579
O O8 0.142474 0.171856 0.040316
O O9 0.649345 0.530851 0.957360
O O10 0.836708 0.411665 0.961406
O O11 0.272527 0.203458 0.222393
O O12 0.281154 0.326767 0.114985
O O13 0.543223 0.835246 0.892490
O O14 0.608706 0.892910 0.021996
O O15 0.500000 0.878983 0.750000
#
# Coordination Sequence:
#
# PCOD9274658 Si02
#       7
#     8   8   8   8   8   8   8
#     4  10  22  40  60  82 119 168 212 248 295 375
#     4  11  21  38  63  98 125 154 194 272 322 365
#     4  11  22  36  60  97 127 153 208 256 305 365
#     4  10  21  40  64  89 118 165 211 251 315 374
#     4  11  19  39  63  88 124 165 203 248 313 373
#     4  11  20  40  66  80 122 168 211 252 300 364
#     4  10  20  38  64  92 126 162 196 251 323 377
#
# _framework density 22.601209000000001
#
# number of rings (size 3 to 8) (size 9 to 14) (size 15 to 20)
#    0.000    1.429    5.714    2.143    0.000    1.143 
#    0.000    4.286    0.000    0.000    0.000    0.000 
#    0.000    0.000    0.000    0.000    0.000    0.000 
#
# Total GULP energy -156222.195124 kJ/mol
# GULP energy per Si atom -5579.364112 kJ/mol
# Density = 2.254977 g / cm^3
# Si number density = 22.601209 Si / 1000 Ang^3
#
#
#
# Elastic Constant Matrix: (Units=GPa)
#
#
# Indices 1 2 3 4 5 6 
#
# 1 39.9970 27.8318 -3.2054 0.0000 -3.1269 0.0000
# 2 27.8318 161.8715 8.0150 0.0000 0.6509 0.0000
# 3 -3.2054 8.0150 35.0823 0.0000 -4.6280 0.0000
# 4 0.0000 0.0000 0.0000 13.4751 0.0000 1.6127
# 5 -3.1269 0.6509 -4.6280 0.0000 20.0887 0.0000
# 6 0.0000 0.0000 0.0000 1.6127 0.0000 26.7718
#
#
#
# Elastic Compliance Matrix: (Units=1/GPa)
#
#
# Indices 1 2 3 4 5 6 
#
# 1 0.029549 -0.005336 0.004691 0.000000 0.005853 0.000000
# 2 -0.005336 0.007218 -0.002348 0.000000 -0.001606 0.000000
# 3 0.004691 -0.002348 0.030503 0.000000 0.007833 0.000000
# 4 0.000000 0.000000 0.000000 0.074750 0.000000 -0.004503
# 5 0.005853 -0.001606 0.007833 0.000000 0.052547 0.000000
# 6 0.000000 0.000000 0.000000 -0.004503 0.000000 0.037624
#
#
# Mechanical properties :
#
#
# Convention : Reuss Voigt Hill
#
# Bulk Modulus (GPa) = 16.31791 33.58149 24.94970
# Shear Modulus (GPa) = 19.33450 25.68775 22.51113
#
# Velocity S-wave (km/s) = 2.92800 3.37496 3.15939
# Velocity P-wave (km/s) = 4.32048 5.48431 4.93681
#
# Compressibility (1/GPa) = 0.06128237
#
# Stress axis : x y z
#
# Youngs Moduli (GPa) = 33.84241 138.54259 32.78370
#
# Poissons Ratio (x) = 0.73931 -0.15379
# Poissons Ratio (y) = 0.18060 0.07699
# Poissons Ratio (z) = -0.15876 0.32536
#
# Static dielectric constant tensor:
#      x y z
#    x 1.868890 0.000000 -0.013760 
#    y 0.000000 1.901190 0.000000 
#    z -0.013760 0.000000 1.881500 
# 
# From -- ./inp_files/231540.got.cif
#   From: 2010.05.17/outbox.cif.g08.bks.cpg/sg15_116_cif.got.tgz:231540.got - 2010.06.03 18:47:42.
