data_PCOD9274714
_publ_section_title
;
Structure prediction by ZEFSAII (Michael W. Deem and Ramdas Pophale) SiO2 
 PCOD9274714
Probable space group: C 2/C
;
_chemical_formula_sum "Si O2"
_cell_formula_units_Z 40
_cell_length_a 14.815326
_cell_length_b 11.000113
_cell_length_c 16.280258
_cell_angle_alpha 90.000000
_cell_angle_beta 129.726691
_cell_angle_gamma 90.000000
_cell_volume 2040.579543
_symmetry_space_group_name_H-M "C 2/C"
_symmetry_group_IT_number 15
_symmetry_cell_setting 'monoclinic'
loop_
_space_group_symop_operation_xyz
x,y,z
-x,y,1/2-z
-x,-y,-z
x,-y,1/2+z
1/2+x,1/2+y,z
1/2-x,1/2+y,1/2-z
1/2-x,1/2-y,-z
1/2+x,1/2-y,1/2+z
loop_
_atom_site_type_symbol
_atom_site_label
_atom_site_fract_x
_atom_site_fract_y
_atom_site_fract_z
Si Si1 0.481685 0.460060 0.336964
Si Si2 0.463273 0.138224 0.477083
Si Si3 0.963843 0.247086 0.322717
Si Si4 0.327638 0.697489 0.471516
Si Si5 0.214008 0.758812 0.238964
O O1 0.500000 0.442246 0.250000
O O2 0.458288 0.602319 0.337208
O O3 0.598822 0.418864 0.454268
O O4 0.374194 0.372003 0.299340
O O5 0.450898 0.191523 0.561443
O O6 0.569515 0.209827 0.494913
O O7 0.348491 0.164721 0.357887
O O8 0.500000 0.000000 0.500000
O O9 0.835648 0.299567 0.268715
O O10 0.000000 0.265369 0.250000
O O11 0.250000 0.750000 0.500000
O O12 0.245987 0.693392 0.343556
#
# Coordination Sequence:
#
# PCOD9274714 Si02
#       5
#     8   8   8   8   8
#     4  10  20  39  66  92 125 160 210 260 303 379
#     4  10  24  42  58  92 129 159 204 260 311 375
#     4  10  24  43  63  92 123 167 210 252 318 378
#     4  10  20  38  64  96 120 163 208 253 315 365
#     4  10  22  37  65  88 127 162 209 256 313 357
#
# _framework density 19.602274999999999
#
# number of rings (size 3 to 8) (size 9 to 14) (size 15 to 20)
#    0.000    2.000    2.000    0.000    5.600    8.000 
#    3.600    0.000    0.000    0.000    0.000    0.000 
#    0.000    0.000    0.000    0.000    0.000    0.000 
#
# Total GULP energy -111670.356154 kJ/mol
# GULP energy per Si atom -5583.517808 kJ/mol
# Density = 1.955766 g / cm^3
# Si number density = 19.602275 Si / 1000 Ang^3
#
#
#
# Elastic Constant Matrix: (Units=GPa)
#
#
# Indices 1 2 3 4 5 6 
#
# 1 72.9164 12.4283 40.2352 0.0000 -19.6123 0.0000
# 2 12.4283 73.9657 37.6516 0.0000 -14.4902 0.0000
# 3 40.2352 37.6516 184.1688 0.0000 -12.6428 0.0000
# 4 0.0000 0.0000 0.0000 14.9802 0.0000 -7.6249
# 5 -19.6123 -14.4902 -12.6428 0.0000 31.6472 0.0000
# 6 0.0000 0.0000 0.0000 -7.6249 0.0000 17.7797
#
#
#
# Elastic Compliance Matrix: (Units=1/GPa)
#
#
# Indices 1 2 3 4 5 6 
#
# 1 0.018243 0.000685 -0.003422 0.000000 0.010252 0.000000
# 2 0.000685 0.016243 -0.003013 0.000000 0.006658 0.000000
# 3 -0.003422 -0.003013 0.006738 0.000000 -0.000809 0.000000
# 4 0.000000 0.000000 0.000000 0.085395 0.000000 0.036622
# 5 0.010252 0.006658 -0.000809 0.000000 0.040677 0.000000
# 6 0.000000 0.000000 0.000000 0.036622 0.000000 0.071949
#
#
# Mechanical properties :
#
#
# Convention : Reuss Voigt Hill
#
# Bulk Modulus (GPa) = 33.64322 56.85347 45.24834
# Shear Modulus (GPa) = 19.18253 28.93047 24.05650
#
# Velocity S-wave (km/s) = 3.13163 3.84588 3.50698
# Velocity P-wave (km/s) = 5.50239 6.98480 6.28744
#
# Compressibility (1/GPa) = 0.02972367
#
# Stress axis : x y z
#
# Youngs Moduli (GPa) = 54.81462 61.56548 148.41413
#
# Poissons Ratio (x) = -0.04217 0.50785
# Poissons Ratio (y) = -0.03754 0.44722
# Poissons Ratio (z) = 0.18757 0.18552
#
# Static dielectric constant tensor:
#      x y z
#    x 1.775700 0.000000 0.105380 
#    y 0.000000 1.662460 0.000000 
#    z 0.105380 0.000000 1.822000 
# 
# From -- ./inp_files/95149.got.cif
#   From: 2010.05.17/outbox.cif.g08.bks.cpg/sg15_48_cif.got.tgz:95149.got - 2010.06.03 18:47:42.
