data_PCOD9274513
_publ_section_title
;
Structure prediction by ZEFSAII (Michael W. Deem and Ramdas Pophale) SiO2 
 PCOD9274513
Probable space group: C 2/C
;
_chemical_formula_sum "Si O2"
_cell_formula_units_Z 56
_cell_length_a 6.504939
_cell_length_b 25.380159
_cell_length_c 17.809310
_cell_angle_alpha 90.000000
_cell_angle_beta 122.496440
_cell_angle_gamma 90.000000
_cell_volume 2479.882146
_symmetry_space_group_name_H-M "C 2/C"
_symmetry_group_IT_number 15
_symmetry_cell_setting 'monoclinic'
loop_
_space_group_symop_operation_xyz
x,y,z
-x,y,1/2-z
-x,-y,-z
x,-y,1/2+z
1/2+x,1/2+y,z
1/2-x,1/2+y,1/2-z
1/2-x,1/2-y,-z
1/2+x,1/2-y,1/2+z
loop_
_atom_site_type_symbol
_atom_site_label
_atom_site_fract_x
_atom_site_fract_y
_atom_site_fract_z
Si Si1 0.315961 0.171414 0.529483
Si Si2 0.500000 0.394367 0.250000
Si Si3 0.788601 0.418425 0.810846
Si Si4 0.500000 0.171402 0.250000
Si Si5 0.546703 0.929356 0.014013
Si Si6 0.969424 0.469249 0.339908
Si Si7 0.999501 0.770822 0.842434
Si Si8 0.576418 0.398050 0.104422
O O1 0.512971 0.128039 0.546512
O O2 0.440759 0.214402 0.608520
O O3 0.121220 0.140860 0.543917
O O4 0.194150 0.193908 0.429006
O O5 0.550473 0.367780 0.179477
O O6 0.730371 0.433286 0.300316
O O7 0.500000 0.412624 0.750000
O O8 0.921152 0.368515 0.800587
O O9 0.860249 0.424248 0.910504
O O10 0.883690 0.473833 0.796202
O O11 0.265835 0.207110 0.187365
O O12 0.457287 0.971458 0.057692
O O13 0.828368 0.930787 0.045267
O O14 0.193380 0.438340 0.345921
O O15 0.000000 0.771107 0.750000
#
# Coordination Sequence:
#
# PCOD9274513 Si02
#       8
#     8   4   8   4   8   8   8   8
#     4  10  23  45  70  96 135 178 223 281 347 406
#     4  10  20  38  63  96 140 172 225 278 326 392
#     4  12  25  42  67  94 134 180 221 274 336 399
#     4  12  26  40  67  98 132 172 229 274 334 402
#     4  10  22  41  65  98 131 169 222 278 334 401
#     4  10  22  39  64  93 135 175 221 271 332 400
#     4  11  25  46  69  98 135 176 225 285 343 411
#     4  10  22  39  66  99 135 176 224 280 335 400
#
# _framework density 22.581719
#
# number of rings (size 3 to 8) (size 9 to 14) (size 15 to 20)
#    0.000    1.429    0.714    3.857    2.000    6.286 
#    0.000    6.429    0.000    0.000    0.000    0.000 
#    0.000    0.000    0.000    0.000    0.000    0.000 
#
# Total GULP energy -156240.179009 kJ/mol
# GULP energy per Si atom -5580.006393 kJ/mol
# Density = 2.253032 g / cm^3
# Si number density = 22.581719 Si / 1000 Ang^3
#
#
#
# Elastic Constant Matrix: (Units=GPa)
#
#
# Indices 1 2 3 4 5 6 
#
# 1 138.6347 41.6571 66.2429 0.0000 10.5324 0.0000
# 2 41.6571 87.4749 21.9397 0.0000 12.5323 0.0000
# 3 66.2429 21.9397 130.0806 0.0000 0.6469 0.0000
# 4 0.0000 0.0000 0.0000 29.9292 0.0000 1.2485
# 5 10.5324 12.5323 0.6469 0.0000 46.7293 0.0000
# 6 0.0000 0.0000 0.0000 1.2485 0.0000 31.8947
#
#
#
# Elastic Compliance Matrix: (Units=1/GPa)
#
#
# Indices 1 2 3 4 5 6 
#
# 1 0.010742 -0.003707 -0.004838 0.000000 -0.001360 0.000000
# 2 -0.003707 0.013706 -0.000410 0.000000 -0.002835 0.000000
# 3 -0.004838 -0.000410 0.010215 0.000000 0.001059 0.000000
# 4 0.000000 0.000000 0.000000 0.033467 0.000000 -0.001310
# 5 -0.001360 -0.002835 0.001059 0.000000 0.022452 0.000000
# 6 0.000000 0.000000 0.000000 -0.001310 0.000000 0.031404
#
#
# Mechanical properties :
#
#
# Convention : Reuss Voigt Hill
#
# Bulk Modulus (GPa) = 59.69087 68.42996 64.06042
# Shear Modulus (GPa) = 34.36837 36.80067 35.58452
#
# Velocity S-wave (km/s) = 3.90546 4.04129 3.97396
# Velocity P-wave (km/s) = 6.84306 7.22116 7.03465
#
# Compressibility (1/GPa) = 0.01675298
#
# Stress axis : x y z
#
# Youngs Moduli (GPa) = 93.08857 72.95959 97.89194
#
# Poissons Ratio (x) = 0.27049 0.47365
# Poissons Ratio (y) = 0.34511 0.04010
# Poissons Ratio (z) = 0.45041 0.02989
#
# Static dielectric constant tensor:
#      x y z
#    x 1.819550 0.000000 -0.090020 
#    y 0.000000 1.892550 0.000000 
#    z -0.090020 0.000000 2.023730 
# 
# From -- ./inp_files/186818.got.cif
#   From: 2010.05.17/outbox.cif.g08.bks.cpg/sg15_94_cif.got.tgz:186818.got - 2010.06.03 18:47:42.
