data_PCOD9274202
_publ_section_title
;
Structure prediction by ZEFSAII (Michael W. Deem and Ramdas Pophale) SiO2 
 PCOD9274202
Probable space group: C 2/C
;
_chemical_formula_sum "Si O2"
_cell_formula_units_Z 56
_cell_length_a 16.748007
_cell_length_b 9.107350
_cell_length_c 27.564283
_cell_angle_alpha 90.000000
_cell_angle_beta 133.741743
_cell_angle_gamma 90.000000
_cell_volume 3037.510848
_symmetry_space_group_name_H-M "C 2/C"
_symmetry_group_IT_number 15
_symmetry_cell_setting 'monoclinic'
loop_
_space_group_symop_operation_xyz
x,y,z
-x,y,1/2-z
-x,-y,-z
x,-y,1/2+z
1/2+x,1/2+y,z
1/2-x,1/2+y,1/2-z
1/2-x,1/2-y,-z
1/2+x,1/2-y,1/2+z
loop_
_atom_site_type_symbol
_atom_site_label
_atom_site_fract_x
_atom_site_fract_y
_atom_site_fract_z
Si Si1 0.685645 0.168151 0.068132
Si Si2 0.331592 0.150730 0.893686
Si Si3 0.513557 0.350589 0.476424
Si Si4 0.458472 0.087291 0.582797
Si Si5 0.906585 0.647427 0.670538
Si Si6 0.620674 0.245372 0.433808
Si Si7 0.620084 0.192490 0.322456
O O1 0.598030 0.258381 0.063749
O O2 0.803500 0.243641 0.123451
O O3 0.690357 0.003003 0.089409
O O4 0.632211 0.160929 0.991491
O O5 0.422223 0.119794 0.890435
O O6 0.217167 0.230367 0.832991
O O7 0.391022 0.257584 0.957024
O O8 0.500000 0.500000 0.500000
O O9 0.553806 0.362694 0.437983
O O10 0.455243 0.140539 0.636660
O O11 0.429761 0.913783 0.572926
O O12 0.862175 0.482859 0.664172
O O13 0.000000 0.683463 0.750000
O O14 0.750000 0.250000 0.500000
O O15 0.615140 0.261271 0.373986
O O16 0.500000 0.211621 0.250000
#
# Coordination Sequence:
#
# PCOD9274202 Si02
#       7
#     8   8   8   8   8   8   8
#     4  11  20  37  63  86 119 152 198 248 296 347
#     4  11  20  40  59  88 118 153 197 249 298 352
#     4  11  21  35  59  93 118 148 195 250 300 350
#     4  10  20  38  62  86 119 156 197 245 305 347
#     4  10  23  41  58  86 121 158 197 247 299 360
#     4  11  19  37  63  89 118 155 197 245 300 356
#     4  10  22  40  63  82 119 161 202 239 297 362
#
# _framework density 18.436147999999999
#
# number of rings (size 3 to 8) (size 9 to 14) (size 15 to 20)
#    0.000    1.429    4.286    2.143    2.000    0.571 
#    7.714    0.000    0.000    0.000    0.000    0.000 
#    0.000    0.000    0.000    0.000    0.000    0.000 
#
# Total GULP energy -156297.120282 kJ/mol
# GULP energy per Si atom -5582.040010 kJ/mol
# Density = 1.839419 g / cm^3
# Si number density = 18.436148 Si / 1000 Ang^3
#
#
#
# Elastic Constant Matrix: (Units=GPa)
#
#
# Indices 1 2 3 4 5 6 
#
# 1 115.9247 58.6905 67.1060 0.0000 10.0556 0.0000
# 2 58.6905 91.3047 52.9036 0.0000 15.4992 0.0000
# 3 67.1060 52.9036 111.9968 0.0000 4.1036 0.0000
# 4 0.0000 0.0000 0.0000 23.9226 0.0000 7.1603
# 5 10.0556 15.4992 4.1036 0.0000 25.9129 0.0000
# 6 0.0000 0.0000 0.0000 7.1603 0.0000 34.7957
#
#
#
# Elastic Compliance Matrix: (Units=1/GPa)
#
#
# Indices 1 2 3 4 5 6 
#
# 1 0.015494 -0.006020 -0.006389 0.000000 -0.001400 0.000000
# 2 -0.006020 0.019238 -0.005174 0.000000 -0.008351 0.000000
# 3 -0.006389 -0.005174 0.015084 0.000000 0.003185 0.000000
# 4 0.000000 0.000000 0.000000 0.044545 0.000000 -0.009167
# 5 -0.001400 -0.008351 0.003185 0.000000 0.043625 0.000000
# 6 0.000000 0.000000 0.000000 -0.009167 0.000000 0.030625
#
#
# Mechanical properties :
#
#
# Convention : Reuss Voigt Hill
#
# Bulk Modulus (GPa) = 68.25955 75.18072 71.72013
# Shear Modulus (GPa) = 23.96245 26.29463 25.12854
#
# Velocity S-wave (km/s) = 3.60912 3.78067 3.69589
# Velocity P-wave (km/s) = 7.38058 7.74116 7.56302
#
# Compressibility (1/GPa) = 0.01464997
#
# Stress axis : x y z
#
# Youngs Moduli (GPa) = 64.54214 51.98132 66.29496
#
# Poissons Ratio (x) = 0.31293 0.42353
# Poissons Ratio (y) = 0.38855 0.34302
# Poissons Ratio (z) = 0.41233 0.26896
#
# Static dielectric constant tensor:
#      x y z
#    x 1.655140 0.000000 -0.006820 
#    y 0.000000 1.650150 0.000000 
#    z -0.006820 0.000000 1.620450 
# 
# From -- ./inp_files/298558.got.cif
#   From: 2010.05.17/outbox.cif.g08.bks.cpg/sg15_150_cif.got.tgz:298558.got - 2010.06.03 18:47:42.
