data_PCOD9274501
_publ_section_title
;
Structure prediction by ZEFSAII (Michael W. Deem and Ramdas Pophale) SiO2 
 PCOD9274501
Probable space group: C 2/C
;
_chemical_formula_sum "Si O2"
_cell_formula_units_Z 64
_cell_length_a 8.977414
_cell_length_b 20.331837
_cell_length_c 23.605536
_cell_angle_alpha 90.000000
_cell_angle_beta 50.385552
_cell_angle_gamma 90.000000
_cell_volume 3319.183212
_symmetry_space_group_name_H-M "C 2/C"
_symmetry_group_IT_number 15
_symmetry_cell_setting 'monoclinic'
loop_
_space_group_symop_operation_xyz
x,y,z
-x,y,1/2-z
-x,-y,-z
x,-y,1/2+z
1/2+x,1/2+y,z
1/2-x,1/2+y,1/2-z
1/2-x,1/2-y,-z
1/2+x,1/2-y,1/2+z
loop_
_atom_site_type_symbol
_atom_site_label
_atom_site_fract_x
_atom_site_fract_y
_atom_site_fract_z
Si Si1 0.722036 0.803283 0.456404
Si Si2 0.121993 0.686023 0.542751
Si Si3 0.933238 0.925588 0.959345
Si Si4 0.265149 0.436285 0.511362
Si Si5 0.920474 0.277584 0.208327
Si Si6 0.016986 0.269402 0.810038
Si Si7 0.468312 0.620650 0.181085
Si Si8 0.649227 0.897621 0.844771
O O1 0.750000 0.750000 0.500000
O O2 0.513401 0.817200 0.479854
O O3 0.788982 0.873327 0.464839
O O4 0.834212 0.769723 0.377037
O O5 0.250000 0.750000 0.500000
O O6 0.261586 0.624268 0.514239
O O7 0.011804 0.693152 0.629459
O O8 0.052528 0.895909 0.878641
O O9 0.084056 0.929291 0.973791
O O10 0.833155 0.994896 0.968232
O O11 0.043445 0.435960 0.589000
O O12 0.690518 0.282838 0.265669
O O13 0.000000 0.300298 0.250000
O O14 0.951882 0.198424 0.196762
O O15 0.067717 0.326819 0.842763
O O16 0.000000 0.296431 0.750000
O O17 0.688964 0.604686 0.145396
O O18 0.297141 0.584450 0.257313
#
# Coordination Sequence:
#
# PCOD9274501 Si02
#       8
#     8   8   8   8   8   8   8   8
#     4  12  25  39  65  99 128 165 213 267 322 377
#     4  12  25  39  65  98 128 167 212 264 324 381
#     4  11  26  44  64  90 132 172 218 262 320 380
#     4  11  26  44  63  93 129 174 216 264 316 382
#     4  11  22  38  61  95 131 163 203 267 323 377
#     4  11  22  38  59  95 132 160 208 263 321 379
#     4  10  20  38  63  95 123 162 211 261 313 380
#     4  10  21  36  65  94 123 162 211 261 316 375
#
# _framework density 19.281853000000002
#
# number of rings (size 3 to 8) (size 9 to 14) (size 15 to 20)
#    0.000    1.000    6.250    1.500    7.000    2.000 
#    0.000    1.250    2.750    0.000    0.000    0.000 
#    0.000    0.000    0.000    0.000    0.000    0.000 
#
# Total GULP energy -178408.954402 kJ/mol
# GULP energy per Si atom -5575.279825 kJ/mol
# Density = 1.923797 g / cm^3
# Si number density = 19.281853 Si / 1000 Ang^3
#
#
#
# Elastic Constant Matrix: (Units=GPa)
#
#
# Indices 1 2 3 4 5 6 
#
# 1 67.7060 8.9304 2.4165 0.0000 -4.4970 0.0002
# 2 8.9304 56.8201 -1.5777 0.0000 1.0956 0.0000
# 3 2.4165 -1.5777 57.7773 0.0000 1.7197 0.0001
# 4 0.0000 0.0000 0.0000 10.7390 0.0000 1.1509
# 5 -4.4970 1.0956 1.7197 0.0000 39.2652 -0.0001
# 6 0.0002 0.0000 0.0001 1.1509 -0.0001 23.0732
#
#
#
# Elastic Compliance Matrix: (Units=1/GPa)
#
#
# Indices 1 2 3 4 5 6 
#
# 1 0.015243 -0.002452 -0.000759 0.000000 0.001847 0.000000
# 2 -0.002452 0.018018 0.000619 0.000000 -0.000811 0.000000
# 3 -0.000759 0.000619 0.017382 0.000000 -0.000866 0.000000
# 4 0.000000 0.000000 0.000000 0.093619 0.000000 -0.004670
# 5 0.001847 -0.000811 -0.000866 0.000000 0.025740 0.000000
# 6 0.000000 0.000000 0.000000 -0.004670 0.000000 0.043573
#
#
# Mechanical properties :
#
#
# Convention : Reuss Voigt Hill
#
# Bulk Modulus (GPa) = 21.99907 22.42687 22.21297
# Shear Modulus (GPa) = 21.37541 26.11776 23.74659
#
# Velocity S-wave (km/s) = 3.33314 3.68438 3.51315
# Velocity P-wave (km/s) = 5.12319 5.45489 5.29164
#
# Compressibility (1/GPa) = 0.04545647
#
# Stress axis : x y z
#
# Youngs Moduli (GPa) = 65.60371 55.50108 57.52997
#
# Poissons Ratio (x) = 0.13611 0.04369
# Poissons Ratio (y) = 0.16089 -0.03559
# Poissons Ratio (z) = 0.04982 -0.03434
#
# Static dielectric constant tensor:
#      x y z
#    x 1.692230 0.000000 -0.029440 
#    y 0.000000 1.635040 0.000000 
#    z -0.029440 0.000000 1.681220 
# 
# From -- ./inp_files/266083.got.cif
#   From: 2010.05.17/outbox.cif.g08.bks.cpg/sg15_134_cif.got.tgz:266083.got - 2010.06.03 18:47:42.
