data_PCOD9274334
_publ_section_title
;
Structure prediction by ZEFSAII (Michael W. Deem and Ramdas Pophale) SiO2 
 PCOD9274334
Probable space group: C 2/C
;
_chemical_formula_sum "Si O2"
_cell_formula_units_Z 48
_cell_length_a 9.741803
_cell_length_b 16.025102
_cell_length_c 29.152268
_cell_angle_alpha 90.000000
_cell_angle_beta 31.758171
_cell_angle_gamma 90.000000
_cell_volume 2395.382645
_symmetry_space_group_name_H-M "C 2/C"
_symmetry_group_IT_number 15
_symmetry_cell_setting 'monoclinic'
loop_
_space_group_symop_operation_xyz
x,y,z
-x,y,1/2-z
-x,-y,-z
x,-y,1/2+z
1/2+x,1/2+y,z
1/2-x,1/2+y,1/2-z
1/2-x,1/2-y,-z
1/2+x,1/2-y,1/2+z
loop_
_atom_site_type_symbol
_atom_site_label
_atom_site_fract_x
_atom_site_fract_y
_atom_site_fract_z
Si Si1 0.378298 0.171679 0.834583
Si Si2 0.087426 0.260775 0.501115
Si Si3 0.221399 0.436857 0.418026
Si Si4 0.932821 0.660614 0.622658
Si Si5 0.191541 0.985189 0.346623
Si Si6 0.549432 0.664690 0.424642
O O1 0.500000 0.188546 0.750000
O O2 0.570702 0.147716 0.821539
O O3 0.215064 0.249709 0.899753
O O4 0.174467 0.095242 0.885010
O O5 0.250000 0.250000 0.500000
O O6 0.151807 0.348786 0.460996
O O7 0.152314 0.190348 0.445334
O O8 0.498452 0.468278 0.358920
O O9 0.000000 0.500000 0.500000
O O10 0.207163 0.410318 0.368283
O O11 0.235112 0.659988 0.519547
O O12 0.858169 0.756922 0.632763
O O13 0.500000 0.985543 0.250000
O O14 0.129406 0.074437 0.385228
#
# Coordination Sequence:
#
# PCOD9274334 Si02
#       6
#     8   8   8   8   8   8
#     4  10  22  40  62  89 133 165 207 264 325 375
#     4  10  20  38  62  93 122 165 216 255 311 380
#     4  11  21  38  68  97 121 161 221 269 308 385
#     4   9  19  38  67  91 117 164 214 259 311 378
#     4  11  23  40  59  93 135 164 201 266 330 376
#     4   9  19  37  62  92 122 159 211 259 314 379
#
# _framework density 20.038551999999999
#
# number of rings (size 3 to 8) (size 9 to 14) (size 15 to 20)
#    0.000    2.000    3.333    1.000    0.000    4.000 
#    3.000    3.333    0.000    0.000    0.000    0.000 
#    0.000    0.000    0.000    0.000    0.000    0.000 
#
# Total GULP energy -133751.244092 kJ/mol
# GULP energy per Si atom -5572.968504 kJ/mol
# Density = 1.999294 g / cm^3
# Si number density = 20.038552 Si / 1000 Ang^3
#
#
#
# Elastic Constant Matrix: (Units=GPa)
#
#
# Indices 1 2 3 4 5 6 
#
# 1 182.2182 35.0400 41.3819 0.0035 18.4622 0.0043
# 2 35.0400 73.7429 30.8395 0.0273 -2.1587 0.0024
# 3 41.3819 30.8395 65.5285 0.1052 3.2845 -0.0089
# 4 0.0035 0.0273 0.1052 11.9404 -0.0124 -5.3449
# 5 18.4622 -2.1587 3.2845 -0.0124 32.2340 -0.0141
# 6 0.0043 0.0024 -0.0089 -5.3449 -0.0141 28.5686
#
#
#
# Elastic Compliance Matrix: (Units=1/GPa)
#
#
# Indices 1 2 3 4 5 6 
#
# 1 0.007016 -0.002083 -0.003259 0.000028 -0.003826 0.000001
# 2 -0.002083 0.017625 -0.007135 0.000028 0.003100 0.000003
# 3 -0.003259 -0.007135 0.020713 -0.000178 -0.000722 -0.000026
# 4 0.000028 0.000028 -0.000178 0.091406 0.000046 0.017101
# 5 -0.003826 0.003100 -0.000722 0.000046 0.033496 0.000025
# 6 0.000001 0.000003 -0.000026 0.017101 0.000025 0.038203
#
#
# Mechanical properties :
#
#
# Convention : Reuss Voigt Hill
#
# Bulk Modulus (GPa) = 49.01768 59.55693 54.28731
# Shear Modulus (GPa) = 20.81495 28.83046 24.82270
#
# Velocity S-wave (km/s) = 3.22645 3.79720 3.52340
# Velocity P-wave (km/s) = 6.19635 7.00076 6.61080
#
# Compressibility (1/GPa) = 0.02040080
#
# Stress axis : x y z
#
# Youngs Moduli (GPa) = 142.52741 56.73771 48.27941
#
# Poissons Ratio (x) = 0.11819 0.15733
# Poissons Ratio (y) = 0.29689 0.34446
# Poissons Ratio (z) = 0.46446 0.40481
#
# Static dielectric constant tensor:
#      x y z
#    x 1.777720 0.000000 -0.009380 
#    y 0.000000 1.723000 0.000000 
#    z -0.009380 0.000000 1.770660 
# 
# From -- ./inp_files/289026.got.cif
#   From: 2010.05.17/outbox.cif.g08.bks.cpg/sg15_145_cif.got.tgz:289026.got - 2010.06.03 18:47:42.
