data_PCOD9274314
_publ_section_title
;
Structure prediction by ZEFSAII (Michael W. Deem and Ramdas Pophale) SiO2 
 PCOD9274314
Probable space group: C 2/C
;
_chemical_formula_sum "Si O2"
_cell_formula_units_Z 56
_cell_length_a 19.106147
_cell_length_b 18.214217
_cell_length_c 19.437760
_cell_angle_alpha 90.000000
_cell_angle_beta 24.630118
_cell_angle_gamma 90.000000
_cell_volume 2819.126038
_symmetry_space_group_name_H-M "C 2/C"
_symmetry_group_IT_number 15
_symmetry_cell_setting 'monoclinic'
loop_
_space_group_symop_operation_xyz
x,y,z
-x,y,1/2-z
-x,-y,-z
x,-y,1/2+z
1/2+x,1/2+y,z
1/2-x,1/2+y,1/2-z
1/2-x,1/2-y,-z
1/2+x,1/2-y,1/2+z
loop_
_atom_site_type_symbol
_atom_site_label
_atom_site_fract_x
_atom_site_fract_y
_atom_site_fract_z
Si Si1 0.326518 0.166577 0.150900
Si Si2 0.206710 0.657101 0.842950
Si Si3 0.689404 0.316827 0.101350
Si Si4 0.430816 0.304630 0.007845
Si Si5 0.232126 0.488218 0.855641
Si Si6 0.838931 0.523570 0.438234
Si Si7 0.936472 0.082301 0.379638
O O1 0.372162 0.220558 0.045939
O O2 0.318540 0.079866 0.145359
O O3 0.132183 0.186731 0.344979
O O4 0.506774 0.175716 0.028241
O O5 0.289656 0.694735 0.835667
O O6 0.312576 0.677368 0.679636
O O7 0.224529 0.568734 0.831150
O O8 0.500000 0.328717 0.250000
O O9 0.750000 0.250000 0.000000
O O10 0.776722 0.394262 0.007882
O O11 0.397947 0.357582 0.972392
O O12 0.417221 0.468630 0.718780
O O13 0.121424 0.488620 0.023257
O O14 0.709059 0.472462 0.513672
O O15 0.000000 0.529378 0.250000
O O16 0.000000 0.115921 0.250000
#
# Coordination Sequence:
#
# PCOD9274314 Si02
#       7
#     8   8   8   8   8   8   8
#     4  11  23  41  63  94 134 160 214 263 316 381
#     4  11  24  44  66  92 127 168 215 264 319 378
#     4  11  25  43  63  89 125 164 211 263 323 379
#     4  11  24  41  66  95 130 173 206 264 322 373
#     4   9  21  42  62  90 124 167 212 265 310 377
#     4  10  20  38  62  92 121 163 210 261 314 379
#     4   9  20  42  64  89 130 164 209 263 312 377
#
# _framework density 19.864312000000002
#
# number of rings (size 3 to 8) (size 9 to 14) (size 15 to 20)
#    0.000    1.714    1.429    3.000    4.000    2.286 
#   10.286    7.143    0.000    0.000    0.000    0.000 
#    0.000    0.000    0.000    0.000    0.000    0.000 
#
# Total GULP energy -155886.825738 kJ/mol
# GULP energy per Si atom -5567.386633 kJ/mol
# Density = 1.981910 g / cm^3
# Si number density = 19.864312 Si / 1000 Ang^3
#
#
#
# Elastic Constant Matrix: (Units=GPa)
#
#
# Indices 1 2 3 4 5 6 
#
# 1 80.2413 13.1331 35.4276 0.0005 9.6234 -0.0001
# 2 13.1331 80.1748 7.7105 0.0019 20.3759 -0.0048
# 3 35.4276 7.7105 93.5680 -0.0001 12.7686 -0.0052
# 4 0.0005 0.0019 -0.0001 26.9572 -0.0022 4.6396
# 5 9.6234 20.3759 12.7686 -0.0022 25.0544 0.0020
# 6 -0.0001 -0.0048 -0.0052 4.6396 0.0020 20.6542
#
#
#
# Elastic Compliance Matrix: (Units=1/GPa)
#
#
# Indices 1 2 3 4 5 6 
#
# 1 0.015330 -0.001507 -0.005421 0.000000 -0.001900 -0.000001
# 2 -0.001507 0.015891 0.001016 -0.000003 -0.012863 0.000006
# 3 -0.005421 0.001016 0.013418 -0.000001 -0.005583 0.000004
# 4 0.000000 -0.000003 -0.000001 0.038588 0.000007 -0.008668
# 5 -0.001900 -0.012863 -0.005583 0.000007 0.053949 -0.000011
# 6 -0.000001 0.000006 0.000004 -0.008668 -0.000011 0.050363
#
#
# Mechanical properties :
#
#
# Convention : Reuss Voigt Hill
#
# Bulk Modulus (GPa) = 30.47298 40.72516 35.59907
# Shear Modulus (GPa) = 23.77541 27.71402 25.74471
#
# Velocity S-wave (km/s) = 3.46336 3.73924 3.60394
# Velocity P-wave (km/s) = 5.60063 6.26009 5.93952
#
# Compressibility (1/GPa) = 0.03281596
#
# Stress axis : x y z
#
# Youngs Moduli (GPa) = 65.22981 62.92946 74.52632
#
# Poissons Ratio (x) = 0.09483 0.40401
# Poissons Ratio (y) = 0.09830 -0.07575
# Poissons Ratio (z) = 0.35362 -0.06396
#
# Static dielectric constant tensor:
#      x y z
#    x 1.715580 0.000000 -0.004070 
#    y 0.000000 1.704050 0.000000 
#    z -0.004070 0.000000 1.698560 
# 
# From -- ./inp_files/253329.got.cif
#   From: 2010.05.17/outbox.cif.g08.bks.cpg/sg15_127_cif.got.tgz:253329.got - 2010.06.03 18:47:42.
