data_PCOD9274452
_publ_section_title
;
Structure prediction by ZEFSAII (Michael W. Deem and Ramdas Pophale) SiO2 
 PCOD9274452
Probable space group: C 2/C
;
_chemical_formula_sum "Si O2"
_cell_formula_units_Z 44
_cell_length_a 7.165233
_cell_length_b 28.765872
_cell_length_c 8.819009
_cell_angle_alpha 90.000000
_cell_angle_beta 78.006993
_cell_angle_gamma 90.000000
_cell_volume 1778.047277
_symmetry_space_group_name_H-M "C 2/C"
_symmetry_group_IT_number 15
_symmetry_cell_setting 'monoclinic'
loop_
_space_group_symop_operation_xyz
x,y,z
-x,y,1/2-z
-x,-y,-z
x,-y,1/2+z
1/2+x,1/2+y,z
1/2-x,1/2+y,1/2-z
1/2-x,1/2-y,-z
1/2+x,1/2-y,1/2+z
loop_
_atom_site_type_symbol
_atom_site_label
_atom_site_fract_x
_atom_site_fract_y
_atom_site_fract_z
Si Si1 0.057256 0.195534 0.570412
Si Si2 0.000606 0.712987 0.930724
Si Si3 0.500000 0.539195 0.750000
Si Si4 0.194722 0.538527 0.308268
Si Si5 0.981069 0.391148 0.431830
Si Si6 0.389986 0.400143 0.525655
O O1 0.943226 0.240888 0.533304
O O2 0.281286 0.206188 0.549986
O O3 0.034512 0.151664 0.464207
O O4 0.000000 0.181557 0.750000
O O5 0.000000 0.721694 0.750000
O O6 0.909407 0.662033 0.972231
O O7 0.681749 0.507034 0.682235
O O8 0.472655 0.570998 0.607721
O O9 0.134716 0.569170 0.461915
O O10 0.000000 0.527407 0.250000
O O11 0.326864 0.570928 0.180661
O O12 0.000000 0.397726 0.250000
O O13 0.193482 0.393962 0.464917
#
# Coordination Sequence:
#
# PCOD9274452 Si02
#       6
#     8   8   4   8   8   8
#     4  10  20  38  63  90 129 177 210 270 328 383
#     4   9  20  38  61  96 127 169 222 259 323 395
#     4  12  24  42  68  98 128 174 226 274 330 398
#     4  10  24  44  67  97 131 174 218 276 331 390
#     4   9  20  40  66  95 131 173 214 266 327 391
#     4  10  22  41  63  91 134 168 218 273 329 388
#
# _framework density 24.746248000000001
#
# number of rings (size 3 to 8) (size 9 to 14) (size 15 to 20)
#    0.000    2.182    0.909    0.545    0.000   12.364 
#    4.909    0.000    0.000    0.000    0.000    0.000 
#    0.000    0.000    0.000    0.000    0.000    0.000 
#
# Total GULP energy -123211.247394 kJ/mol
# GULP energy per Si atom -5600.511245 kJ/mol
# Density = 2.468992 g / cm^3
# Si number density = 24.746248 Si / 1000 Ang^3
#
#
#
# Elastic Constant Matrix: (Units=GPa)
#
#
# Indices 1 2 3 4 5 6 
#
# 1 94.8873 28.8039 20.1921 0.0000 12.6906 0.0000
# 2 28.8039 141.8124 43.1645 0.0000 -4.0917 0.0000
# 3 20.1921 43.1645 63.5021 0.0000 -2.5044 0.0000
# 4 0.0000 0.0000 0.0000 20.3230 0.0000 -9.1085
# 5 12.6906 -4.0917 -2.5044 0.0000 38.7316 0.0000
# 6 0.0000 0.0000 0.0000 -9.1085 0.0000 -7.4236
#
#
#
# Elastic Compliance Matrix: (Units=1/GPa)
#
#
# Indices 1 2 3 4 5 6 
#
# 1 0.012269 -0.001738 -0.002893 0.000000 -0.004391 0.000000
# 2 -0.001738 0.009149 -0.005620 0.000000 0.001173 0.000000
# 3 -0.002893 -0.005620 0.020554 0.000000 0.001683 0.000000
# 4 0.000000 0.000000 0.000000 0.031747 0.000000 -0.038953
# 5 -0.004391 0.001173 0.001683 0.000000 0.027490 0.000000
# 6 0.000000 0.000000 0.000000 -0.038953 0.000000 -0.086912
#
#
# Mechanical properties :
#
#
# Convention : Reuss Voigt Hill
#
# Bulk Modulus (GPa) = 46.57674 53.83586 50.20630
# Shear Modulus (GPa) = 119.17049 24.19562 71.68305
#
# Velocity S-wave (km/s) = 6.94705 3.13029 5.38796
# Velocity P-wave (km/s) = 9.12202 5.90486 7.68371
#
# Compressibility (1/GPa) = 0.02146994
#
# Stress axis : x y z
#
# Youngs Moduli (GPa) = 81.50397 109.30114 48.65269
#
# Poissons Ratio (x) = 0.18999 0.14075
# Poissons Ratio (y) = 0.14167 0.27343
# Poissons Ratio (z) = 0.23579 0.61427
#
# Static dielectric constant tensor:
#      x y z
#    x 2.027760 0.000000 -0.008900 
#    y 0.000000 1.973930 0.000000 
#    z -0.008900 0.000000 1.871050 
# 
# From -- ./inp_files/25555.got.cif
#   From: 2010.05.17/outbox.cif.g08.bks.cpg/sg15_13_cif.got.tgz:25555.got - 2010.06.03 18:47:42.
