data_PCOD9274331
_publ_section_title
;
Structure prediction by ZEFSAII (Michael W. Deem and Ramdas Pophale) SiO2 
 PCOD9274331
Probable space group: C 2/C
;
_chemical_formula_sum "Si O2"
_cell_formula_units_Z 32
_cell_length_a 8.425386
_cell_length_b 27.889385
_cell_length_c 5.687969
_cell_angle_alpha 90.000000
_cell_angle_beta 95.451026
_cell_angle_gamma 90.000000
_cell_volume 1330.508112
_symmetry_space_group_name_H-M "C 2/C"
_symmetry_group_IT_number 15
_symmetry_cell_setting 'monoclinic'
loop_
_space_group_symop_operation_xyz
x,y,z
-x,y,1/2-z
-x,-y,-z
x,-y,1/2+z
1/2+x,1/2+y,z
1/2-x,1/2+y,1/2-z
1/2-x,1/2-y,-z
1/2+x,1/2-y,1/2+z
loop_
_atom_site_type_symbol
_atom_site_label
_atom_site_fract_x
_atom_site_fract_y
_atom_site_fract_z
Si Si1 0.754290 0.310182 0.417078
Si Si2 0.500000 0.330988 0.750000
Si Si3 0.000000 0.739990 0.250000
Si Si4 0.650868 0.402446 0.140944
Si Si5 0.057966 0.554823 0.008230
O O1 0.639210 0.304625 0.629427
O O2 0.651898 0.275663 0.226007
O O3 0.740409 0.365181 0.331721
O O4 0.928814 0.293523 0.530197
O O5 0.416744 0.365302 0.553817
O O6 0.500000 0.425278 0.250000
O O7 0.755185 0.439534 0.008216
O O8 0.000000 0.575618 0.750000
O O9 0.000000 0.575873 0.250000
O O10 0.000000 0.500000 0.000000
#
# Coordination Sequence:
#
# PCOD9274331 Si02
#       5
#     8   4   4   8   8
#     4  10  21  39  60  96 133 188 236 299 352 425
#     4  10  20  38  62  92 135 178 242 291 354 428
#     4  10  20  40  60  90 143 180 242 297 360 410
#     4  10  22  42  68  99 137 187 239 291 362 434
#     4  10  24  46  72 105 144 179 230 301 365 439
#
# _framework density 24.050964
#
# number of rings (size 3 to 8) (size 9 to 14) (size 15 to 20)
#    0.000    2.000    3.750    0.000    7.000    3.000 
#    0.000    5.000    0.000    0.000    0.000    0.000 
#    0.000    0.000    0.000    0.000    0.000    0.000 
#
# Total GULP energy -89087.057868 kJ/mol
# GULP energy per Si atom -5567.941117 kJ/mol
# Density = 2.399622 g / cm^3
# Si number density = 24.050964 Si / 1000 Ang^3
#
#
#
# Elastic Constant Matrix: (Units=GPa)
#
#
# Indices 1 2 3 4 5 6 
#
# 1 142.3058 67.6436 63.5940 0.0000 -9.4841 0.0000
# 2 67.6436 58.8095 10.6631 0.0000 -20.2975 0.0000
# 3 63.5940 10.6631 144.8253 0.0000 -18.5306 0.0000
# 4 0.0000 0.0000 0.0000 -31.8673 0.0000 -8.5457
# 5 -9.4841 -20.2975 -18.5306 0.0000 47.0479 0.0000
# 6 0.0000 0.0000 0.0000 -8.5457 0.0000 31.0380
#
#
#
# Elastic Compliance Matrix: (Units=1/GPa)
#
#
# Indices 1 2 3 4 5 6 
#
# 1 0.027404 -0.034195 -0.011264 0.000000 -0.013665 0.000000
# 2 -0.034195 0.062667 0.013667 0.000000 0.025526 0.000000
# 3 -0.011264 0.013667 0.011909 0.000000 0.008316 0.000000
# 4 0.000000 0.000000 0.000000 -0.029223 0.000000 -0.008046
# 5 -0.013665 0.025526 0.008316 0.000000 0.032788 0.000000
# 6 0.000000 0.000000 0.000000 -0.008046 0.000000 0.030003
#
#
# Mechanical properties :
#
#
# Convention : Reuss Voigt Hill
#
# Bulk Modulus (GPa) = 26.04365 69.97134 48.00750
# Shear Modulus (GPa) = 23.59254 22.84638 23.21946
#
# Velocity S-wave (km/s) = 3.13539 3.08541 3.11050
# Velocity P-wave (km/s) = 4.89486 6.46909 5.73623
#
# Compressibility (1/GPa) = 0.03839707
#
# Stress axis : x y z
#
# Youngs Moduli (GPa) = 36.49075 15.95733 83.97120
#
# Poissons Ratio (x) = 0.54565 0.94587
# Poissons Ratio (y) = 1.24779 -1.14765
# Poissons Ratio (z) = 0.41104 -0.21809
#
# Static dielectric constant tensor:
#      x y z
#    x 2.170370 0.000000 -0.032100 
#    y 0.000000 1.907730 0.000000 
#    z -0.032100 0.000000 2.187430 
# 
# From -- ./inp_files/2675.got.cif
#   From: 2010.05.17/outbox.cif.g08.bks.cpg/sg15_2_cif.got.tgz:2675.got - 2010.06.03 18:47:42.
