data_PCOD9274126
_publ_section_title
;
Structure prediction by ZEFSAII (Michael W. Deem and Ramdas Pophale) SiO2 
 PCOD9274126
Probable space group: C 2/C
;
_chemical_formula_sum "Si O2"
_cell_formula_units_Z 56
_cell_length_a 18.154582
_cell_length_b 8.776123
_cell_length_c 21.366147
_cell_angle_alpha 90.000000
_cell_angle_beta 120.530588
_cell_angle_gamma 90.000000
_cell_volume 2932.235860
_symmetry_space_group_name_H-M "C 2/C"
_symmetry_group_IT_number 15
_symmetry_cell_setting 'monoclinic'
loop_
_space_group_symop_operation_xyz
x,y,z
-x,y,1/2-z
-x,-y,-z
x,-y,1/2+z
1/2+x,1/2+y,z
1/2-x,1/2+y,1/2-z
1/2-x,1/2-y,-z
1/2+x,1/2-y,1/2+z
loop_
_atom_site_type_symbol
_atom_site_label
_atom_site_fract_x
_atom_site_fract_y
_atom_site_fract_z
Si Si1 0.428168 0.558841 0.673972
Si Si2 0.596792 0.888436 0.310256
Si Si3 0.704202 0.646209 0.427986
Si Si4 0.768785 0.827705 0.186760
Si Si5 0.303389 0.167395 0.967614
Si Si6 0.037660 0.635900 0.385372
Si Si7 0.348450 0.939139 0.791826
O O1 0.500000 0.490920 0.750000
O O2 0.384553 0.451600 0.602460
O O3 0.352616 0.606264 0.688869
O O4 0.463148 0.712167 0.657430
O O5 0.500000 0.837263 0.250000
O O6 0.667002 0.761711 0.359296
O O7 0.581182 0.003307 0.361895
O O8 0.631280 0.981151 0.265884
O O9 0.750000 0.750000 0.500000
O O10 0.770894 0.507670 0.445736
O O11 0.717532 0.751642 0.106872
O O12 0.798357 0.713423 0.252865
O O13 0.709218 0.955286 0.190438
O O14 0.250000 0.250000 0.000000
O O15 0.400955 0.166205 0.030013
O O16 0.941384 0.593289 0.360728
#
# Coordination Sequence:
#
# PCOD9274126 Si02
#       7
#     8   8   8   8   8   8   8
#     4  11  20  39  66  92 117 167 226 254 312 391
#     4  10  20  38  61  92 124 164 209 267 319 372
#     4  11  22  32  57  97 127 149 204 277 321 351
#     4  11  24  39  63  94 124 172 210 265 328 382
#     4  11  21  39  65  91 121 168 221 261 317 391
#     4  11  19  41  68  90 119 171 220 262 312 391
#     4  11  24  40  63  90 135 167 212 266 329 387
#
# _framework density 19.098053
#
# number of rings (size 3 to 8) (size 9 to 14) (size 15 to 20)
#    0.000    1.143    7.143    0.857    4.000    0.571 
#    0.000    0.000    0.000    0.857    0.000    0.000 
#    0.000    0.000    0.000    0.000    0.000    0.000 
#
# Total GULP energy -156028.891615 kJ/mol
# GULP energy per Si atom -5572.460415 kJ/mol
# Density = 1.905459 g / cm^3
# Si number density = 19.098053 Si / 1000 Ang^3
#
#
#
# Elastic Constant Matrix: (Units=GPa)
#
#
# Indices 1 2 3 4 5 6 
#
# 1 74.6134 18.2688 27.2448 0.0000 13.3563 0.0000
# 2 18.2688 67.7526 10.3313 0.0000 14.8300 0.0000
# 3 27.2448 10.3313 110.7204 0.0000 36.0129 0.0000
# 4 0.0000 0.0000 0.0000 36.1122 0.0000 3.4673
# 5 13.3563 14.8300 36.0129 0.0000 25.6334 0.0000
# 6 0.0000 0.0000 0.0000 3.4673 0.0000 16.9576
#
#
#
# Elastic Compliance Matrix: (Units=1/GPa)
#
#
# Indices 1 2 3 4 5 6 
#
# 1 0.015640 -0.003280 -0.002779 0.000000 -0.002348 0.000000
# 2 -0.003280 0.018128 0.003629 0.000000 -0.013878 0.000000
# 3 -0.002779 0.003629 0.017658 0.000000 -0.025460 0.000000
# 4 0.000000 0.000000 0.000000 0.028246 0.000000 -0.005775
# 5 -0.002348 -0.013878 -0.025460 0.000000 0.084033 0.000000
# 6 0.000000 0.000000 0.000000 -0.005775 0.000000 0.060152
#
#
# Mechanical properties :
#
#
# Convention : Reuss Voigt Hill
#
# Bulk Modulus (GPa) = 21.47377 40.53070 31.00224
# Shear Modulus (GPa) = 20.47182 28.89008 24.68095
#
# Velocity S-wave (km/s) = 3.27759 3.89359 3.59880
# Velocity P-wave (km/s) = 5.05884 6.44065 5.79110
#
# Compressibility (1/GPa) = 0.04656843
#
# Stress axis : x y z
#
# Youngs Moduli (GPa) = 63.93692 55.16278 56.63161
#
# Poissons Ratio (x) = 0.18091 0.15738
# Poissons Ratio (y) = 0.20969 -0.20554
# Poissons Ratio (z) = 0.17768 -0.20021
#
# Static dielectric constant tensor:
#      x y z
#    x 1.867200 0.000000 -0.031880 
#    y 0.000000 1.716780 0.000000 
#    z -0.031880 0.000000 1.723060 
# 
# From -- ./inp_files/276358.got.cif
#   From: 2010.05.17/outbox.cif.g08.bks.cpg/sg15_139_cif.got.tgz:276358.got - 2010.06.03 18:47:42.
