data_PCOD9274209
_publ_section_title
;
Structure prediction by ZEFSAII (Michael W. Deem and Ramdas Pophale) SiO2 
 PCOD9274209
Probable space group: C 2/C
;
_chemical_formula_sum "Si O2"
_cell_formula_units_Z 60
_cell_length_a 7.372846
_cell_length_b 15.087016
_cell_length_c 23.886592
_cell_angle_alpha 90.000000
_cell_angle_beta 83.176340
_cell_angle_gamma 90.000000
_cell_volume 2638.186208
_symmetry_space_group_name_H-M "C 2/C"
_symmetry_group_IT_number 15
_symmetry_cell_setting 'monoclinic'
loop_
_space_group_symop_operation_xyz
x,y,z
-x,y,1/2-z
-x,-y,-z
x,-y,1/2+z
1/2+x,1/2+y,z
1/2-x,1/2+y,1/2-z
1/2-x,1/2-y,-z
1/2+x,1/2-y,1/2+z
loop_
_atom_site_type_symbol
_atom_site_label
_atom_site_fract_x
_atom_site_fract_y
_atom_site_fract_z
Si Si1 0.500000 0.666334 0.250000
Si Si2 0.341988 0.482355 0.150199
Si Si3 0.750132 0.840955 0.934273
Si Si4 0.716511 0.973758 0.383751
Si Si5 0.311682 0.977056 0.732957
Si Si6 0.282390 0.315063 0.446650
Si Si7 0.139851 0.186073 0.364192
Si Si8 0.324987 0.352369 0.057905
O O1 0.333639 0.601038 0.274669
O O2 0.572189 0.713131 0.303997
O O3 0.561523 0.471929 0.135054
O O4 0.281701 0.463332 0.215623
O O5 0.289840 0.585346 0.143871
O O6 0.255882 0.420317 0.106285
O O7 0.675904 0.928973 0.908853
O O8 0.665209 0.747908 0.919773
O O9 0.961178 0.825512 0.909829
O O10 0.729570 0.851064 0.001690
O O11 0.640979 0.968384 0.324089
O O12 0.659439 0.896688 0.428568
O O13 0.500000 0.939300 0.750000
O O14 0.250000 0.250000 0.500000
O O15 0.273732 0.252243 0.391659
O O16 0.461175 0.369356 0.459500
#
# Coordination Sequence:
#
# PCOD9274209 Si02
#       8
#     4   8   8   8   8   8   8   8
#     4  10  20  44  64  92 134 162 212 262 316 380
#     4   9  20  39  64  85 124 165 203 252 319 374
#     4  10  20  38  62  86 122 168 202 255 322 368
#     4  10  21  40  63  85 128 170 203 261 320 370
#     4  11  20  38  67  97 121 163 216 262 311 384
#     4  11  23  38  60  93 124 162 219 257 300 386
#     4  10  20  39  65  84 124 165 204 260 311 367
#     4  10  22  38  61  92 126 162 206 262 318 373
#
# _framework density 22.742896999999999
#
# number of rings (size 3 to 8) (size 9 to 14) (size 15 to 20)
#    0.000    1.867    5.333    0.000    1.867    4.800 
#    3.600    0.667    0.000    0.000    0.000    0.000 
#    0.000    0.000    0.000    0.000    0.000    0.000 
#
# Total GULP energy -167265.838154 kJ/mol
# GULP energy per Si atom -5575.527938 kJ/mol
# Density = 2.269113 g / cm^3
# Si number density = 22.742897 Si / 1000 Ang^3
#
#
#
# Elastic Constant Matrix: (Units=GPa)
#
#
# Indices 1 2 3 4 5 6 
#
# 1 46.9613 -20.8908 -4.9251 0.0000 2.9229 0.0000
# 2 -20.8908 35.1306 32.0792 0.0000 8.4535 0.0000
# 3 -4.9251 32.0792 100.0861 0.0000 1.7154 0.0000
# 4 0.0000 0.0000 0.0000 32.4347 0.0000 12.2680
# 5 2.9229 8.4535 1.7154 0.0000 25.3959 0.0000
# 6 0.0000 0.0000 0.0000 12.2680 0.0000 12.7165
#
#
#
# Elastic Compliance Matrix: (Units=1/GPa)
#
#
# Indices 1 2 3 4 5 6 
#
# 1 0.035656 0.032252 -0.008338 0.000000 -0.014276 0.000000
# 2 0.032252 0.073844 -0.021621 0.000000 -0.026832 0.000000
# 3 -0.008338 -0.021621 0.016390 0.000000 0.007050 0.000000
# 4 0.000000 0.000000 0.000000 0.048545 0.000000 -0.046833
# 5 -0.014276 -0.026832 0.007050 0.000000 0.049475 0.000000
# 6 0.000000 0.000000 0.000000 -0.046833 0.000000 0.123818
#
#
# Mechanical properties :
#
#
# Convention : Reuss Voigt Hill
#
# Bulk Modulus (GPa) = 7.66425 21.63383 14.64904
# Shear Modulus (GPa) = 12.93210 25.83707 19.38459
#
# Velocity S-wave (km/s) = 2.38717 3.37419 2.92265
# Velocity P-wave (km/s) = 3.31291 4.97124 4.22425
#
# Compressibility (1/GPa) = 0.13047586
#
# Stress axis : x y z
#
# Youngs Moduli (GPa) = 28.04603 13.54200 61.01195
#
# Poissons Ratio (x) = -0.43676 0.50872
# Poissons Ratio (y) = -0.90455 1.31916
# Poissons Ratio (z) = 0.23385 0.29280
#
# Static dielectric constant tensor:
#      x y z
#    x 1.978640 0.000000 -0.017930 
#    y 0.000000 1.868710 0.000000 
#    z -0.017930 0.000000 1.880140 
# 
# From -- ./inp_files/264327.got.cif
#   From: 2010.05.17/outbox.cif.g08.bks.cpg/sg15_133_cif.got.tgz:264327.got - 2010.06.03 18:47:42.
