data_PCOD9274913
_publ_section_title
;
Structure prediction by ZEFSAII (Michael W. Deem and Ramdas Pophale) SiO2 
 PCOD9274913
Probable space group: C 2/C
;
_chemical_formula_sum "Si O2"
_cell_formula_units_Z 44
_cell_length_a 11.645201
_cell_length_b 9.410599
_cell_length_c 17.661727
_cell_angle_alpha 90.000000
_cell_angle_beta 66.320788
_cell_angle_gamma 90.000000
_cell_volume 1772.564436
_symmetry_space_group_name_H-M "C 2/C"
_symmetry_group_IT_number 15
_symmetry_cell_setting 'monoclinic'
loop_
_space_group_symop_operation_xyz
x,y,z
-x,y,1/2-z
-x,-y,-z
x,-y,1/2+z
1/2+x,1/2+y,z
1/2-x,1/2+y,1/2-z
1/2-x,1/2-y,-z
1/2+x,1/2-y,1/2+z
loop_
_atom_site_type_symbol
_atom_site_label
_atom_site_fract_x
_atom_site_fract_y
_atom_site_fract_z
Si Si1 0.918324 0.032044 0.615390
Si Si2 0.704605 0.182209 0.332797
Si Si3 0.871933 0.814370 0.926708
Si Si4 0.237649 0.286392 0.652722
Si Si5 0.937675 0.576522 0.587518
Si Si6 0.000000 0.133067 0.750000
O O1 0.797372 0.939805 0.622545
O O2 0.046086 0.945707 0.560573
O O3 0.884297 0.195246 0.607110
O O4 0.932620 0.040888 0.703526
O O5 0.815244 0.144727 0.360795
O O6 0.755020 0.233579 0.239003
O O7 0.620355 0.043380 0.343795
O O8 0.968322 0.683932 0.897197
O O9 0.750000 0.750000 0.000000
O O10 0.095531 0.237950 0.680378
O O11 0.324056 0.173405 0.587683
O O12 0.000000 0.500000 0.500000
#
# Coordination Sequence:
#
# PCOD9274913 Si02
#       6
#     8   8   8   8   8   4
#     4  10  22  38  62  94 123 165 214 265 317 388
#     4  11  22  41  66  95 126 171 219 269 323 387
#     4  11  23  41  64  90 130 172 211 266 332 387
#     4  10  22  40  66  97 132 170 220 276 324 394
#     4  11  23  42  67  98 135 173 217 272 332 394
#     4  10  20  38  66  92 132 166 212 270 338 378
#
# _framework density 24.822793999999998
#
# number of rings (size 3 to 8) (size 9 to 14) (size 15 to 20)
#    0.000    1.455    1.818    4.364    0.000    5.818 
#    0.000    0.909    0.000    0.000    0.000    0.000 
#    0.000    0.000    0.000    0.000    0.000    0.000 
#
# Total GULP energy -122949.279439 kJ/mol
# GULP energy per Si atom -5588.603611 kJ/mol
# Density = 2.476630 g / cm^3
# Si number density = 24.822794 Si / 1000 Ang^3
#
#
#
# Elastic Constant Matrix: (Units=GPa)
#
#
# Indices 1 2 3 4 5 6 
#
# 1 89.8499 46.2895 19.6670 0.0000 -25.0233 0.0000
# 2 46.2895 148.2062 7.8888 0.0000 -30.8239 0.0000
# 3 19.6670 7.8888 48.7876 0.0000 -20.0820 0.0000
# 4 0.0000 0.0000 0.0000 39.7095 0.0000 -15.7866
# 5 -25.0233 -30.8239 -20.0820 0.0000 44.6263 0.0000
# 6 0.0000 0.0000 0.0000 -15.7866 0.0000 42.7842
#
#
#
# Elastic Compliance Matrix: (Units=1/GPa)
#
#
# Indices 1 2 3 4 5 6 
#
# 1 0.014977 -0.003598 -0.003709 0.000000 0.004244 0.000000
# 2 -0.003598 0.008800 0.002085 0.000000 0.004999 0.000000
# 3 -0.003709 0.002085 0.026255 0.000000 0.011175 0.000000
# 4 0.000000 0.000000 0.000000 0.029512 0.000000 0.010889
# 5 0.004244 0.004999 0.011175 0.000000 0.033270 0.000000
# 6 0.000000 0.000000 0.000000 0.010889 0.000000 0.027391
#
#
# Mechanical properties :
#
#
# Convention : Reuss Voigt Hill
#
# Bulk Modulus (GPa) = 25.25954 48.28158 36.77056
# Shear Modulus (GPa) = 30.51691 39.62391 35.07041
#
# Velocity S-wave (km/s) = 3.51007 3.99967 3.76284
# Velocity P-wave (km/s) = 5.15999 6.38925 5.80724
#
# Compressibility (1/GPa) = 0.03958901
#
# Stress axis : x y z
#
# Youngs Moduli (GPa) = 66.76933 113.63976 38.08809
#
# Poissons Ratio (x) = 0.40884 0.14126
# Poissons Ratio (y) = 0.24021 -0.07942
# Poissons Ratio (z) = 0.24763 -0.23695
#
# Static dielectric constant tensor:
#      x y z
#    x 1.950990 0.000000 -0.007190 
#    y 0.000000 2.003370 0.000000 
#    z -0.007190 0.000000 2.035620 
# 
# From -- ./inp_files/236124.got.cif
#   From: 2010.05.17/outbox.cif.g08.bks.cpg/sg15_119_cif.got.tgz:236124.got - 2010.06.03 18:47:42.
