data_PCOD9274408
_publ_section_title
;
Structure prediction by ZEFSAII (Michael W. Deem and Ramdas Pophale) SiO2 
 PCOD9274408
Probable space group: C 2/C
;
_chemical_formula_sum "Si O2"
_cell_formula_units_Z 64
_cell_length_a 14.814733
_cell_length_b 17.384229
_cell_length_c 16.479348
_cell_angle_alpha 90.000000
_cell_angle_beta 131.514039
_cell_angle_gamma 90.000000
_cell_volume 3177.980735
_symmetry_space_group_name_H-M "C 2/C"
_symmetry_group_IT_number 15
_symmetry_cell_setting 'monoclinic'
loop_
_space_group_symop_operation_xyz
x,y,z
-x,y,1/2-z
-x,-y,-z
x,-y,1/2+z
1/2+x,1/2+y,z
1/2-x,1/2+y,1/2-z
1/2-x,1/2-y,-z
1/2+x,1/2-y,1/2+z
loop_
_atom_site_type_symbol
_atom_site_label
_atom_site_fract_x
_atom_site_fract_y
_atom_site_fract_z
Si Si1 0.244962 0.125170 0.794497
Si Si2 0.022477 0.851374 0.353746
Si Si3 0.376498 0.224312 0.491068
Si Si4 0.631924 0.338490 0.866333
Si Si5 0.025800 0.592123 0.669321
Si Si6 0.302395 0.516926 0.582474
Si Si7 0.560404 0.931623 0.872928
Si Si8 0.907190 0.720278 0.002182
O O1 0.109192 0.139796 0.686215
O O2 0.340647 0.114664 0.779839
O O3 0.238934 0.053747 0.855318
O O4 0.296850 0.195429 0.879587
O O5 0.000000 0.818994 0.250000
O O6 0.083206 0.933573 0.377084
O O7 0.110579 0.794983 0.453920
O O8 0.368427 0.296325 0.546855
O O9 0.241535 0.202482 0.383324
O O10 0.430928 0.150765 0.572592
O O11 0.475259 0.236682 0.481601
O O12 0.500000 0.327845 0.750000
O O13 0.664514 0.428179 0.891538
O O14 0.000000 0.593281 0.750000
O O15 0.008505 0.504431 0.629145
O O16 0.196735 0.535697 0.455399
O O17 0.500000 0.917969 0.750000
O O18 0.562119 0.854013 0.925164
#
# Coordination Sequence:
#
# PCOD9274408 Si02
#       8
#     8   8   8   8   8   8   8   8
#     4   9  21  36  63  88 117 167 202 245 308 364
#     4  10  21  39  60  88 124 164 199 247 306 366
#     4  10  23  38  58  87 115 158 200 256 298 361
#     4  11  22  39  61  86 120 159 202 247 308 368
#     4  10  20  38  63  87 120 155 202 252 305 352
#     4  10  21  40  63  90 122 162 200 246 303 366
#     4  10  21  37  62  92 117 155 203 255 300 355
#     4  10  22  37  59  89 121 155 208 252 299 357
#
# _framework density 20.138573999999998
#
# number of rings (size 3 to 8) (size 9 to 14) (size 15 to 20)
#    0.000    2.000    1.250    1.875    1.750   11.000 
#    0.000    0.625    0.000    0.000    0.000    0.000 
#    0.000    0.000    0.000    0.000    0.000    0.000 
#
# Total GULP energy -178618.987080 kJ/mol
# GULP energy per Si atom -5581.843346 kJ/mol
# Density = 2.009274 g / cm^3
# Si number density = 20.138574 Si / 1000 Ang^3
#
#
#
# Elastic Constant Matrix: (Units=GPa)
#
#
# Indices 1 2 3 4 5 6 
#
# 1 82.4183 17.9463 24.8091 0.0000 29.3224 0.0000
# 2 17.9463 93.2128 14.3708 0.0000 -2.8401 0.0000
# 3 24.8091 14.3708 73.6220 0.0000 18.9715 0.0000
# 4 0.0000 0.0000 0.0000 35.9359 0.0000 -4.6382
# 5 29.3224 -2.8401 18.9715 0.0000 24.8801 0.0000
# 6 0.0000 0.0000 0.0000 -4.6382 0.0000 16.4565
#
#
#
# Elastic Compliance Matrix: (Units=1/GPa)
#
#
# Indices 1 2 3 4 5 6 
#
# 1 0.023284 -0.005437 0.000555 0.000000 -0.028486 0.000000
# 2 -0.005437 0.012599 -0.003297 0.000000 0.010359 0.000000
# 3 0.000555 -0.003297 0.017803 0.000000 -0.014606 0.000000
# 4 0.000000 0.000000 0.000000 0.028878 0.000000 0.008139
# 5 -0.028486 0.010359 -0.014606 0.000000 0.086085 0.000000
# 6 0.000000 0.000000 0.000000 0.008139 0.000000 0.063060
#
#
# Mechanical properties :
#
#
# Convention : Reuss Voigt Hill
#
# Bulk Modulus (GPa) = 26.78778 40.38950 33.58864
# Shear Modulus (GPa) = 19.19324 28.26295 23.72810
#
# Velocity S-wave (km/s) = 3.09051 3.75029 3.43628
# Velocity P-wave (km/s) = 5.10545 6.23316 5.69728
#
# Compressibility (1/GPa) = 0.03733045
#
# Stress axis : x y z
#
# Youngs Moduli (GPa) = 42.94710 79.37310 56.17011
#
# Poissons Ratio (x) = 0.43151 -0.03119
# Poissons Ratio (y) = 0.23348 0.18517
# Poissons Ratio (z) = -0.02385 0.26167
#
# Static dielectric constant tensor:
#      x y z
#    x 1.724310 0.000000 0.009270 
#    y 0.000000 1.711760 0.000000 
#    z 0.009270 0.000000 1.740230 
# 
# From -- ./inp_files/205738.got.cif
#   From: 2010.05.17/outbox.cif.g08.bks.cpg/sg15_103_cif.got.tgz:205738.got - 2010.06.03 18:47:42.
