data_PCOD9274047
_publ_section_title
;
Structure prediction by ZEFSAII (Michael W. Deem and Ramdas Pophale) SiO2 
 PCOD9274047
Probable space group: C 2/C
;
_chemical_formula_sum "Si O2"
_cell_formula_units_Z 60
_cell_length_a 18.927835
_cell_length_b 8.360392
_cell_length_c 18.488131
_cell_angle_alpha 90.000000
_cell_angle_beta 77.124921
_cell_angle_gamma 90.000000
_cell_volume 2852.082236
_symmetry_space_group_name_H-M "C 2/C"
_symmetry_group_IT_number 15
_symmetry_cell_setting 'monoclinic'
loop_
_space_group_symop_operation_xyz
x,y,z
-x,y,1/2-z
-x,-y,-z
x,-y,1/2+z
1/2+x,1/2+y,z
1/2-x,1/2+y,1/2-z
1/2-x,1/2-y,-z
1/2+x,1/2-y,1/2+z
loop_
_atom_site_type_symbol
_atom_site_label
_atom_site_fract_x
_atom_site_fract_y
_atom_site_fract_z
Si Si1 0.055527 0.450269 0.423938
Si Si2 0.647811 0.361722 0.726042
Si Si3 0.530538 0.192346 0.140343
Si Si4 0.805118 0.617616 0.145757
Si Si5 0.062769 0.132020 0.485266
Si Si6 0.000000 0.960779 0.250000
Si Si7 0.189127 0.994762 0.374315
Si Si8 0.153919 0.519226 0.202531
O O1 0.138703 0.508964 0.412625
O O2 0.050088 0.260442 0.423833
O O3 0.000000 0.500000 0.500000
O O4 0.023965 0.548007 0.364133
O O5 0.718553 0.413839 0.662737
O O6 0.572226 0.439175 0.720195
O O7 0.664327 0.423015 0.804077
O O8 0.641010 0.169809 0.720035
O O9 0.489342 0.340438 0.185676
O O10 0.590824 0.118007 0.178725
O O11 0.562270 0.265996 0.059060
O O12 0.825127 0.590469 0.224839
O O13 0.818558 0.803505 0.127323
O O14 0.139342 0.054863 0.450222
O O15 0.000000 0.000000 0.500000
O O16 0.273866 0.031452 0.362620
#
# Coordination Sequence:
#
# PCOD9274047 Si02
#       8
#     8   8   8   8   8   4   8   8
#     4  10  21  38  61  84 114 154 194 237 292 353
#     4  10  22  38  62  90 120 158 200 246 295 355
#     4  11  24  39  59  88 121 154 195 251 299 351
#     4  10  20  39  63  89 120 157 201 245 296 355
#     4  11  23  39  61  86 116 158 204 246 295 359
#     4  12  24  40  62  92 124 152 198 252 298 344
#     4  10  20  38  61  86 118 157 200 243 293 358
#     4  10  22  38  59  88 121 156 195 246 304 352
#
# _framework density 21.037261000000001
#
# number of rings (size 3 to 8) (size 9 to 14) (size 15 to 20)
#    0.000    1.600    0.000    5.600    0.000    7.467 
#    0.000    1.333    0.000    8.800    0.000    0.000 
#    0.000    0.000    0.000    0.000    0.000    0.000 
#
# Total GULP energy -167546.433003 kJ/mol
# GULP energy per Si atom -5584.881100 kJ/mol
# Density = 2.098938 g / cm^3
# Si number density = 21.037261 Si / 1000 Ang^3
#
#
#
# Elastic Constant Matrix: (Units=GPa)
#
#
# Indices 1 2 3 4 5 6 
#
# 1 112.4896 58.2485 25.3126 0.0000 -28.6162 0.0000
# 2 58.2485 113.7870 27.7484 0.0000 -21.2261 0.0000
# 3 25.3126 27.7484 63.3641 0.0000 -30.9326 0.0000
# 4 0.0000 0.0000 0.0000 38.2915 0.0000 -7.8283
# 5 -28.6162 -21.2261 -30.9326 0.0000 35.5318 0.0000
# 6 0.0000 0.0000 0.0000 -7.8283 0.0000 29.7331
#
#
#
# Elastic Compliance Matrix: (Units=1/GPa)
#
#
# Indices 1 2 3 4 5 6 
#
# 1 0.013817 -0.005744 0.001310 0.000000 0.008837 0.000000
# 2 -0.005744 0.012515 -0.003121 0.000000 0.000133 0.000000
# 3 0.001310 -0.003121 0.028225 0.000000 0.023762 0.000000
# 4 0.000000 0.000000 0.000000 0.027601 0.000000 0.007267
# 5 0.008837 0.000133 0.023762 0.000000 0.056026 0.000000
# 6 0.000000 0.000000 0.000000 0.007267 0.000000 0.035546
#
#
# Mechanical properties :
#
#
# Convention : Reuss Voigt Hill
#
# Bulk Modulus (GPa) = 25.35075 56.91775 41.13425
# Shear Modulus (GPa) = 24.75364 32.60004 28.67684
#
# Velocity S-wave (km/s) = 3.43396 3.94081 3.69609
# Velocity P-wave (km/s) = 5.27251 6.91528 6.14900
#
# Compressibility (1/GPa) = 0.03944656
#
# Stress axis : x y z
#
# Youngs Moduli (GPa) = 72.37247 79.90593 35.42915
#
# Poissons Ratio (x) = 0.45899 -0.04640
# Poissons Ratio (y) = 0.41572 0.11057
# Poissons Ratio (z) = -0.09477 0.24937
#
# Static dielectric constant tensor:
#      x y z
#    x 1.770340 0.000000 -0.022550 
#    y 0.000000 1.784050 0.000000 
#    z -0.022550 0.000000 1.811990 
# 
# From -- ./inp_files/247421.got.cif
#   From: 2010.05.17/outbox.cif.g08.bks.cpg/sg15_124_cif.got.tgz:247421.got - 2010.06.03 18:47:42.
