data_PCOD9274283
_publ_section_title
;
Structure prediction by ZEFSAII (Michael W. Deem and Ramdas Pophale) SiO2 
 PCOD9274283
Probable space group: C 2/C
;
_chemical_formula_sum "Si O2"
_cell_formula_units_Z 60
_cell_length_a 9.917237
_cell_length_b 14.162299
_cell_length_c 23.217219
_cell_angle_alpha 90.000000
_cell_angle_beta 62.893855
_cell_angle_gamma 90.000000
_cell_volume 2902.716673
_symmetry_space_group_name_H-M "C 2/C"
_symmetry_group_IT_number 15
_symmetry_cell_setting 'monoclinic'
loop_
_space_group_symop_operation_xyz
x,y,z
-x,y,1/2-z
-x,-y,-z
x,-y,1/2+z
1/2+x,1/2+y,z
1/2-x,1/2+y,1/2-z
1/2-x,1/2-y,-z
1/2+x,1/2-y,1/2+z
loop_
_atom_site_type_symbol
_atom_site_label
_atom_site_fract_x
_atom_site_fract_y
_atom_site_fract_z
Si Si1 0.880609 0.398870 0.396258
Si Si2 0.599659 0.683986 0.116345
Si Si3 0.064240 0.551826 0.297333
Si Si4 0.779128 0.022969 0.475193
Si Si5 0.000000 0.500000 0.500000
Si Si6 0.915792 0.018678 0.207770
Si Si7 0.961396 0.893148 0.084708
Si Si8 0.560133 0.823479 0.908795
O O1 0.935981 0.292115 0.390723
O O2 0.878077 0.455412 0.458179
O O3 0.702356 0.403445 0.414316
O O4 0.975814 0.456533 0.332103
O O5 0.639451 0.621832 0.052250
O O6 0.480296 0.620493 0.173888
O O7 0.757733 0.687158 0.119840
O O8 0.239637 0.529160 0.255234
O O9 0.032131 0.624761 0.354258
O O10 0.000000 0.588441 0.250000
O O11 0.683858 0.988676 0.438913
O O12 0.899971 0.948458 0.472374
O O13 0.003265 0.388395 0.528024
O O14 0.945007 0.945645 0.149697
O O15 0.000000 0.991345 0.250000
O O16 0.998925 0.783304 0.080179
#
# Coordination Sequence:
#
# PCOD9274283 Si02
#       8
#     8   8   8   8   4   8   8   8
#     4  11  21  39  62  92 124 165 209 260 320 375
#     4   9  21  38  65  90 117 167 218 252 308 386
#     4  12  24  40  63  90 131 165 207 271 313 365
#     4  10  20  38  64  90 127 158 206 267 318 381
#     4  10  20  38  62  90 122 162 208 260 320 378
#     4  11  22  41  64  88 124 168 216 261 309 380
#     4  10  23  39  63  93 124 167 209 260 324 379
#     4  10  21  41  63  91 126 165 209 259 316 384
#
# _framework density 20.670290999999999
#
# number of rings (size 3 to 8) (size 9 to 14) (size 15 to 20)
#    0.000    1.600    4.000    0.800    0.000    2.667 
#    0.000    1.333    0.000    0.000    0.000    0.000 
#    0.000    0.000    0.000    0.000    0.000    0.000 
#
# Total GULP energy -167092.542344 kJ/mol
# GULP energy per Si atom -5569.751411 kJ/mol
# Density = 2.062324 g / cm^3
# Si number density = 20.670291 Si / 1000 Ang^3
#
#
#
# Elastic Constant Matrix: (Units=GPa)
#
#
# Indices 1 2 3 4 5 6 
#
# 1 83.8878 41.4969 22.9186 0.0000 5.2121 0.0000
# 2 41.4969 179.8435 43.7837 0.0000 -4.1432 0.0000
# 3 22.9186 43.7837 83.9664 0.0000 8.1180 0.0000
# 4 0.0000 0.0000 0.0000 31.8535 0.0000 -14.1479
# 5 5.2121 -4.1432 8.1180 0.0000 32.5299 0.0000
# 6 0.0000 0.0000 0.0000 -14.1479 0.0000 36.9407
#
#
#
# Elastic Compliance Matrix: (Units=1/GPa)
#
#
# Indices 1 2 3 4 5 6 
#
# 1 0.014005 -0.002745 -0.002194 0.000000 -0.002046 0.000000
# 2 -0.002745 0.006998 -0.003103 0.000000 0.002105 0.000000
# 3 -0.002194 -0.003103 0.014480 0.000000 -0.003657 0.000000
# 4 0.000000 0.000000 0.000000 0.037829 0.000000 0.014488
# 5 -0.002046 0.002105 -0.003657 0.000000 0.032250 0.000000
# 6 0.000000 0.000000 0.000000 0.014488 0.000000 0.032619
#
#
# Mechanical properties :
#
#
# Convention : Reuss Voigt Hill
#
# Bulk Modulus (GPa) = 51.54775 62.67737 57.11256
# Shear Modulus (GPa) = 31.10814 36.23138 33.66976
#
# Velocity S-wave (km/s) = 3.88360 4.19122 4.04034
# Velocity P-wave (km/s) = 6.71581 7.33553 7.03250
#
# Compressibility (1/GPa) = 0.01939949
#
# Stress axis : x y z
#
# Youngs Moduli (GPa) = 71.40422 142.90436 69.06030
#
# Poissons Ratio (x) = 0.39220 0.15150
# Poissons Ratio (y) = 0.19597 0.21432
# Poissons Ratio (z) = 0.15664 0.44348
#
# Static dielectric constant tensor:
#      x y z
#    x 1.971510 0.000000 0.125240 
#    y 0.000000 1.748290 0.000000 
#    z 0.125240 0.000000 1.827260 
# 
# From -- ./inp_files/268942.got.cif
#   From: 2010.05.17/outbox.cif.g08.bks.cpg/sg15_135_cif.got.tgz:268942.got - 2010.06.03 18:47:42.
