data_PCOD9274263
_publ_section_title
;
Structure prediction by ZEFSAII (Michael W. Deem and Ramdas Pophale) SiO2 
 PCOD9274263
Probable space group: C 2/C
;
_chemical_formula_sum "Si O2"
_cell_formula_units_Z 64
_cell_length_a 11.986799
_cell_length_b 14.544401
_cell_length_c 16.364353
_cell_angle_alpha 90.000000
_cell_angle_beta 71.890620
_cell_angle_gamma 90.000000
_cell_volume 2711.652077
_symmetry_space_group_name_H-M "C 2/C"
_symmetry_group_IT_number 15
_symmetry_cell_setting 'monoclinic'
loop_
_space_group_symop_operation_xyz
x,y,z
-x,y,1/2-z
-x,-y,-z
x,-y,1/2+z
1/2+x,1/2+y,z
1/2-x,1/2+y,1/2-z
1/2-x,1/2-y,-z
1/2+x,1/2-y,1/2+z
loop_
_atom_site_type_symbol
_atom_site_label
_atom_site_fract_x
_atom_site_fract_y
_atom_site_fract_z
Si Si1 0.189703 0.663659 0.731157
Si Si2 0.820271 0.960415 0.398452
Si Si3 0.927351 0.903154 0.151793
Si Si4 0.620252 0.653622 0.171241
Si Si5 0.087507 0.505183 0.157173
Si Si6 0.330725 0.427724 0.580602
Si Si7 0.562648 0.103520 0.919086
Si Si8 0.526340 0.713088 0.018193
O O1 0.317617 0.630636 0.729669
O O2 0.191769 0.766712 0.699421
O O3 0.150390 0.590972 0.670124
O O4 0.094910 0.651855 0.824287
O O5 0.842931 0.977162 0.490003
O O6 0.691460 0.917191 0.423753
O O7 0.939308 0.905621 0.348567
O O8 0.819784 0.054932 0.348742
O O9 0.895252 0.007008 0.130977
O O10 0.923810 0.837467 0.072610
O O11 0.500000 0.645114 0.250000
O O12 0.595939 0.687824 0.084454
O O13 0.192854 0.576917 0.127972
O O14 0.000000 0.529843 0.250000
O O15 0.015243 0.483471 0.091414
O O16 0.397069 0.331743 0.559988
O O17 0.489146 0.177945 0.985945
#
# Coordination Sequence:
#
# PCOD9274263 Si02
#       8
#     8   8   8   8   8   8   8   8
#     4  10  21  38  60  88 118 149 201 250 293 347
#     4  11  24  38  61  91 121 155 199 247 296 353
#     4  10  21  38  61  90 120 157 198 246 302 345
#     4  12  21  36  63  93 111 149 208 249 283 349
#     4   9  19  37  61  83 118 160 192 242 305 346
#     4  10  20  38  62  89 121 155 202 247 293 352
#     4  11  23  39  58  88 124 159 194 242 300 356
#     4  11  20  39  63  84 120 157 198 242 291 354
#
# _framework density 23.601849000000001
#
# number of rings (size 3 to 8) (size 9 to 14) (size 15 to 20)
#    0.000    1.500    5.000    1.125    1.750    5.000 
#    0.000    1.250    0.000    0.000    0.000    0.000 
#    0.000    0.000    0.000    0.000    0.000    0.000 
#
# Total GULP energy -179028.833488 kJ/mol
# GULP energy per Si atom -5594.651046 kJ/mol
# Density = 2.354813 g / cm^3
# Si number density = 23.601849 Si / 1000 Ang^3
#
#
#
# Elastic Constant Matrix: (Units=GPa)
#
#
# Indices 1 2 3 4 5 6 
#
# 1 105.3870 -4.5601 13.5501 0.0000 -1.4001 0.0000
# 2 -4.5601 35.9887 -5.3530 0.0000 3.0993 0.0000
# 3 13.5501 -5.3530 36.5960 0.0000 -6.3800 0.0000
# 4 0.0000 0.0000 0.0000 6.9029 0.0000 -9.9169
# 5 -1.4001 3.0993 -6.3800 0.0000 42.2298 0.0000
# 6 0.0000 0.0000 0.0000 -9.9169 0.0000 22.4318
#
#
#
# Elastic Compliance Matrix: (Units=1/GPa)
#
#
# Indices 1 2 3 4 5 6 
#
# 1 0.009985 0.000748 -0.003635 0.000000 -0.000273 0.000000
# 2 0.000748 0.028553 0.003634 0.000000 -0.001522 0.000000
# 3 -0.003635 0.003634 0.029924 0.000000 0.004134 0.000000
# 4 0.000000 0.000000 0.000000 0.397024 0.000000 0.175521
# 5 -0.000273 -0.001522 0.004134 0.000000 0.024407 0.000000
# 6 0.000000 0.000000 0.000000 0.175521 0.000000 0.122176
#
#
# Mechanical properties :
#
#
# Convention : Reuss Voigt Hill
#
# Bulk Modulus (GPa) = 14.29481 20.58285 17.43883
# Shear Modulus (GPa) = 7.88776 25.93521 16.91149
#
# Velocity S-wave (km/s) = 1.83010 3.31851 2.67972
# Velocity P-wave (km/s) = 3.24584 4.83974 4.12059
#
# Compressibility (1/GPa) = 0.06995546
#
# Stress axis : x y z
#
# Youngs Moduli (GPa) = 100.15045 35.02273 33.41847
#
# Poissons Ratio (x) = -0.02620 0.12148
# Poissons Ratio (y) = -0.07491 -0.12145
# Poissons Ratio (z) = 0.36407 -0.12728
#
# Static dielectric constant tensor:
#      x y z
#    x 1.908990 0.000000 0.029620 
#    y 0.000000 1.863400 0.000000 
#    z 0.029620 0.000000 1.951250 
# 
# From -- ./inp_files/238736.got.cif
#   From: 2010.05.17/outbox.cif.g08.bks.cpg/sg15_120_cif.got.tgz:238736.got - 2010.06.03 18:47:42.
