data_PCOD9274634
_publ_section_title
;
Structure prediction by ZEFSAII (Michael W. Deem and Ramdas Pophale) SiO2 
 PCOD9274634
Probable space group: C 2/C
;
_chemical_formula_sum "Si O2"
_cell_formula_units_Z 48
_cell_length_a 20.664750
_cell_length_b 25.583303
_cell_length_c 14.239121
_cell_angle_alpha 90.000000
_cell_angle_beta 161.340287
_cell_angle_gamma 90.000000
_cell_volume 2408.506610
_symmetry_space_group_name_H-M "C 2/C"
_symmetry_group_IT_number 15
_symmetry_cell_setting 'monoclinic'
loop_
_space_group_symop_operation_xyz
x,y,z
-x,y,1/2-z
-x,-y,-z
x,-y,1/2+z
1/2+x,1/2+y,z
1/2-x,1/2+y,1/2-z
1/2-x,1/2-y,-z
1/2+x,1/2-y,1/2+z
loop_
_atom_site_type_symbol
_atom_site_label
_atom_site_fract_x
_atom_site_fract_y
_atom_site_fract_z
Si Si1 0.854541 0.060433 0.386929
Si Si2 0.432949 0.678965 0.550976
Si Si3 0.492936 0.453686 0.869737
Si Si4 0.301889 0.650586 0.918731
Si Si5 0.210376 0.712730 0.601084
Si Si6 0.565340 0.907360 0.237578
O O1 0.871101 0.120819 0.437675
O O2 0.982114 0.054490 0.466798
O O3 0.615476 0.055297 0.042702
O O4 0.931653 0.011283 0.552033
O O5 0.500000 0.673012 0.750000
O O6 0.609931 0.697804 0.723416
O O7 0.278784 0.727351 0.348148
O O8 0.265733 0.441604 0.525949
O O9 0.630023 0.407273 0.019952
O O10 0.233777 0.679912 0.730135
O O11 0.122355 0.639347 0.745460
O O12 0.500000 0.671725 0.250000
O O13 0.000000 0.706570 0.250000
O O14 0.500000 0.886094 0.250000
#
# Coordination Sequence:
#
# PCOD9274634 Si02
#       6
#     8   8   8   8   8   8
#     4  10  20  38  64  90 127 168 220 258 325 399
#     4  11  24  41  65  93 130 172 219 273 321 382
#     4   9  19  40  58  94 133 164 209 273 325 386
#     4  10  21  41  66  92 131 169 212 271 328 383
#     4  11  24  44  65  94 130 174 219 277 322 377
#     4   9  20  36  62  91 128 170 200 266 328 385
#
# _framework density 19.929361
#
# number of rings (size 3 to 8) (size 9 to 14) (size 15 to 20)
#    0.000    2.000    1.667    2.000    4.667    2.667 
#    3.000    3.333    0.000    0.000    0.000    0.000 
#    0.000    0.000    0.000    0.000    0.000    0.000 
#
# Total GULP energy -133637.856086 kJ/mol
# GULP energy per Si atom -5568.244004 kJ/mol
# Density = 1.988400 g / cm^3
# Si number density = 19.929361 Si / 1000 Ang^3
#
#
#
# Elastic Constant Matrix: (Units=GPa)
#
#
# Indices 1 2 3 4 5 6 
#
# 1 126.0407 51.9137 43.0139 0.0000 -14.3684 0.0001
# 2 51.9137 153.3095 51.0538 0.0000 -7.7019 0.0000
# 3 43.0139 51.0538 41.3923 -0.0003 -6.1426 0.0003
# 4 0.0000 0.0000 -0.0003 44.9851 0.0000 -24.4994
# 5 -14.3684 -7.7019 -6.1426 0.0000 23.8673 0.0001
# 6 0.0001 0.0000 0.0003 -24.4994 0.0001 41.1625
#
#
#
# Elastic Compliance Matrix: (Units=1/GPa)
#
#
# Indices 1 2 3 4 5 6 
#
# 1 0.012731 0.000167 -0.012778 0.000000 0.004429 0.000000
# 2 0.000167 0.011072 -0.013812 0.000000 0.000119 0.000000
# 3 -0.012778 -0.013812 0.054762 0.000000 0.001944 0.000000
# 4 0.000000 0.000000 0.000000 0.032891 0.000000 0.019576
# 5 0.004429 0.000119 0.001944 0.000000 0.045103 0.000000
# 6 0.000000 0.000000 0.000000 0.019576 0.000000 0.035946
#
#
# Mechanical properties :
#
#
# Convention : Reuss Voigt Hill
#
# Bulk Modulus (GPa) = 38.88260 68.07835 53.48048
# Shear Modulus (GPa) = 19.69095 33.65372 26.67233
#
# Velocity S-wave (km/s) = 3.14672 4.11378 3.66231
# Velocity P-wave (km/s) = 5.72320 7.53646 6.69153
#
# Compressibility (1/GPa) = 0.02571844
#
# Stress axis : x y z
#
# Youngs Moduli (GPa) = 78.54859 90.32054 18.26086
#
# Poissons Ratio (x) = -0.01507 0.23334
# Poissons Ratio (y) = -0.01310 0.25221
# Poissons Ratio (z) = 1.00371 1.24748
#
# Static dielectric constant tensor:
#      x y z
#    x 1.777890 0.000000 -0.036300 
#    y 0.000000 1.735190 0.000000 
#    z -0.036300 0.000000 1.740940 
# 
# From -- ./inp_files/169711.got.cif
#   From: 2010.05.17/outbox.cif.g08.bks.cpg/sg15_85_cif.got.tgz:169711.got - 2010.06.03 18:47:42.
