data_PCOD9274945
_publ_section_title
;
Structure prediction by ZEFSAII (Michael W. Deem and Ramdas Pophale) SiO2 
 PCOD9274945
Probable space group: C 2/C
;
_chemical_formula_sum "Si O2"
_cell_formula_units_Z 40
_cell_length_a 13.408235
_cell_length_b 11.762783
_cell_length_c 12.054862
_cell_angle_alpha 90.000000
_cell_angle_beta 85.626570
_cell_angle_gamma 90.000000
_cell_volume 1895.734561
_symmetry_space_group_name_H-M "C 2/C"
_symmetry_group_IT_number 15
_symmetry_cell_setting 'monoclinic'
loop_
_space_group_symop_operation_xyz
x,y,z
-x,y,1/2-z
-x,-y,-z
x,-y,1/2+z
1/2+x,1/2+y,z
1/2-x,1/2+y,1/2-z
1/2-x,1/2-y,-z
1/2+x,1/2-y,1/2+z
loop_
_atom_site_type_symbol
_atom_site_label
_atom_site_fract_x
_atom_site_fract_y
_atom_site_fract_z
Si Si1 0.780881 0.778758 0.840341
Si Si2 0.261704 0.942338 0.455142
Si Si3 0.311231 0.324679 0.584128
Si Si4 0.008077 0.688609 0.581376
Si Si5 0.979799 0.450301 0.868927
O O1 0.731076 0.657098 0.872201
O O2 0.770280 0.813039 0.713632
O O3 0.894846 0.743645 0.869453
O O4 0.742057 0.877021 0.926595
O O5 0.188143 0.047060 0.457395
O O6 0.367488 0.004526 0.410494
O O7 0.250000 0.250000 0.500000
O O8 0.422373 0.279170 0.583223
O O9 0.965001 0.573068 0.641938
O O10 0.019891 0.635642 0.457481
O O11 0.000000 0.394985 0.750000
#
# Coordination Sequence:
#
# PCOD9274945 Si02
#       5
#     8   8   8   8   8
#     4  10  24  44  66  92 136 173 218 273 332 396
#     4  10  23  42  66  99 130 173 221 271 335 390
#     4  12  24  40  68  98 131 171 228 272 328 389
#     4  10  21  41  60  96 127 177 221 266 330 388
#     4  10  20  38  66  95 131 169 226 278 322 389
#
# _framework density 21.100000000000001
#
# number of rings (size 3 to 8) (size 9 to 14) (size 15 to 20)
#    0.000    1.600    2.000    3.000    2.800    7.200 
#    0.000    0.000    0.000    0.000    0.000    0.000 
#    0.000    0.000    0.000    0.000    0.000    0.000 
#
# Total GULP energy -111464.195833 kJ/mol
# GULP energy per Si atom -5573.209792 kJ/mol
# Density = 2.105197 g / cm^3
# Si number density = 21.100000 Si / 1000 Ang^3
#
#
#
# Elastic Constant Matrix: (Units=GPa)
#
#
# Indices 1 2 3 4 5 6 
#
# 1 47.7171 26.3903 6.2204 0.0000 -3.6730 0.0000
# 2 26.3903 132.5802 39.2394 0.0000 -2.5326 0.0000
# 3 6.2204 39.2394 178.2903 0.0000 4.6579 0.0000
# 4 0.0000 0.0000 0.0000 14.1274 0.0000 -2.9173
# 5 -3.6730 -2.5326 4.6579 0.0000 14.4132 0.0000
# 6 0.0000 0.0000 0.0000 -2.9173 0.0000 23.8393
#
#
#
# Elastic Compliance Matrix: (Units=1/GPa)
#
#
# Indices 1 2 3 4 5 6 
#
# 1 0.023944 -0.004683 0.000058 0.000000 0.005260 0.000000
# 2 -0.004683 0.009042 -0.001853 0.000000 0.000994 0.000000
# 3 0.000058 -0.001853 0.006074 0.000000 -0.002274 0.000000
# 4 0.000000 0.000000 0.000000 0.072620 0.000000 0.008887
# 5 0.005260 0.000994 -0.002274 0.000000 0.071631 0.000000
# 6 0.000000 0.000000 0.000000 0.008887 0.000000 0.043035
#
#
# Mechanical properties :
#
#
# Convention : Reuss Voigt Hill
#
# Bulk Modulus (GPa) = 38.30702 55.80978 47.05840
# Shear Modulus (GPa) = 20.16109 29.59181 24.87645
#
# Velocity S-wave (km/s) = 3.09447 3.74900 3.43735
# Velocity P-wave (km/s) = 5.56436 6.72663 6.17291
#
# Compressibility (1/GPa) = 0.02610488
#
# Stress axis : x y z
#
# Youngs Moduli (GPa) = 41.76408 110.59489 164.63737
#
# Poissons Ratio (x) = 0.51788 -0.00951
# Poissons Ratio (y) = 0.19557 0.30501
# Poissons Ratio (z) = -0.00241 0.20489
#
# Static dielectric constant tensor:
#      x y z
#    x 1.875960 0.000000 -0.009440 
#    y 0.000000 1.761160 0.000000 
#    z -0.009440 0.000000 1.891670 
# 
# From -- ./inp_files/94630.got.cif
#   From: 2010.05.17/outbox.cif.g08.bks.cpg/sg15_48_cif.got.tgz:94630.got - 2010.06.03 18:47:42.
