data_PCOD9274986
_publ_section_title
;
Structure prediction by ZEFSAII (Michael W. Deem and Ramdas Pophale) SiO2 
 PCOD9274986
Probable space group: C 2/C
;
_chemical_formula_sum "Si O2"
_cell_formula_units_Z 56
_cell_length_a 8.988076
_cell_length_b 27.021917
_cell_length_c 18.535979
_cell_angle_alpha 90.000000
_cell_angle_beta 37.266074
_cell_angle_gamma 90.000000
_cell_volume 2725.994406
_symmetry_space_group_name_H-M "C 2/C"
_symmetry_group_IT_number 15
_symmetry_cell_setting 'monoclinic'
loop_
_space_group_symop_operation_xyz
x,y,z
-x,y,1/2-z
-x,-y,-z
x,-y,1/2+z
1/2+x,1/2+y,z
1/2-x,1/2+y,1/2-z
1/2-x,1/2-y,-z
1/2+x,1/2-y,1/2+z
loop_
_atom_site_type_symbol
_atom_site_label
_atom_site_fract_x
_atom_site_fract_y
_atom_site_fract_z
Si Si1 0.471656 0.872803 0.142924
Si Si2 0.783941 0.353565 0.055994
Si Si3 0.266282 0.683648 0.290384
Si Si4 0.043305 0.154270 0.438108
Si Si5 0.368755 0.976340 0.367302
Si Si6 0.369716 0.568459 0.994522
Si Si7 0.883588 0.796868 0.143739
O O1 0.351504 0.863772 0.111784
O O2 0.474624 0.930614 0.163172
O O3 0.325072 0.837627 0.255462
O O4 0.760627 0.859213 0.027456
O O5 0.642315 0.399489 0.073278
O O6 0.603527 0.307046 0.115038
O O7 0.029515 0.343414 0.915096
O O8 0.500000 0.670843 0.250000
O O9 0.321943 0.670957 0.185918
O O10 0.221962 0.742401 0.311944
O O11 0.183194 0.108356 0.421805
O O12 0.001755 0.192929 0.519530
O O13 0.500000 0.002297 0.250000
O O14 0.128914 0.952338 0.422704
O O15 0.297104 0.019945 0.448616
#
# Coordination Sequence:
#
# PCOD9274986 Si02
#       7
#     8   8   8   8   8   8   8
#     4  11  21  41  66  92 130 162 206 271 315 377
#     4  11  24  42  61  94 134 161 211 267 325 366
#     4  12  25  41  65  93 128 174 215 262 320 378
#     4  10  22  42  65  89 128 167 214 255 314 381
#     4  10  20  38  67  91 120 168 216 252 321 382
#     4   9  22  40  62  94 124 164 213 264 308 382
#     4  11  25  41  65  92 126 173 219 261 313 375
#
# _framework density 20.542963
#
# number of rings (size 3 to 8) (size 9 to 14) (size 15 to 20)
#    0.000    1.429    1.429    4.714    4.000    3.429 
#    5.143    0.000    0.000    0.000    0.000    0.000 
#    0.000    0.000    0.000    0.000    0.000    0.000 
#
# Total GULP energy -156341.577084 kJ/mol
# GULP energy per Si atom -5583.627753 kJ/mol
# Density = 2.049621 g / cm^3
# Si number density = 20.542963 Si / 1000 Ang^3
#
#
#
# Elastic Constant Matrix: (Units=GPa)
#
#
# Indices 1 2 3 4 5 6 
#
# 1 103.0099 9.1788 11.0975 0.0000 12.1150 0.0000
# 2 9.1788 59.6810 19.7932 0.0000 6.5681 0.0000
# 3 11.0975 19.7932 91.4371 0.0000 15.3075 0.0001
# 4 0.0000 0.0000 0.0000 15.4943 0.0000 -2.0531
# 5 12.1150 6.5681 15.3075 0.0000 36.5136 0.0000
# 6 0.0000 0.0000 0.0001 -2.0531 0.0000 20.4810
#
#
#
# Elastic Compliance Matrix: (Units=1/GPa)
#
#
# Indices 1 2 3 4 5 6 
#
# 1 0.010209 -0.001074 -0.000507 0.000000 -0.002981 0.000000
# 2 -0.001074 0.018267 -0.003585 0.000000 -0.001427 0.000000
# 3 -0.000507 -0.003585 0.012516 0.000000 -0.004434 0.000000
# 4 0.000000 0.000000 0.000000 0.065409 0.000000 0.006557
# 5 -0.002981 -0.001427 -0.004434 0.000000 0.030492 0.000000
# 6 0.000000 0.000000 0.000000 0.006557 0.000000 0.049483
#
#
# Mechanical properties :
#
#
# Convention : Reuss Voigt Hill
#
# Bulk Modulus (GPa) = 32.61618 37.14078 34.87848
# Shear Modulus (GPa) = 24.16301 28.76834 26.46567
#
# Velocity S-wave (km/s) = 3.43332 3.74625 3.59320
# Velocity P-wave (km/s) = 5.62392 6.06888 5.85063
#
# Compressibility (1/GPa) = 0.03065963
#
# Stress axis : x y z
#
# Youngs Moduli (GPa) = 97.95481 54.74392 79.89507
#
# Poissons Ratio (x) = 0.05878 0.04055
# Poissons Ratio (y) = 0.10517 0.28643
# Poissons Ratio (z) = 0.04971 0.19626
#
# Static dielectric constant tensor:
#      x y z
#    x 1.728870 0.000000 -0.036790 
#    y 0.000000 1.733890 0.000000 
#    z -0.036790 0.000000 1.748640 
# 
# From -- ./inp_files/193841.got.cif
#   From: 2010.05.17/outbox.cif.g08.bks.cpg/sg15_97_cif.got.tgz:193841.got - 2010.06.03 18:47:42.
