data_PCOD9274999
_publ_section_title
;
Structure prediction by ZEFSAII (Michael W. Deem and Ramdas Pophale) SiO2 
 PCOD9274999
Probable space group: C 2/C
;
_chemical_formula_sum "Si O2"
_cell_formula_units_Z 40
_cell_length_a 17.829165
_cell_length_b 9.834430
_cell_length_c 14.072158
_cell_angle_alpha 90.000000
_cell_angle_beta 129.846691
_cell_angle_gamma 90.000000
_cell_volume 1894.380904
_symmetry_space_group_name_H-M "C 2/C"
_symmetry_group_IT_number 15
_symmetry_cell_setting 'monoclinic'
loop_
_space_group_symop_operation_xyz
x,y,z
-x,y,1/2-z
-x,-y,-z
x,-y,1/2+z
1/2+x,1/2+y,z
1/2-x,1/2+y,1/2-z
1/2-x,1/2-y,-z
1/2+x,1/2-y,1/2+z
loop_
_atom_site_type_symbol
_atom_site_label
_atom_site_fract_x
_atom_site_fract_y
_atom_site_fract_z
Si Si1 0.000000 0.589880 0.250000
Si Si2 0.206588 0.343404 0.882337
Si Si3 0.832489 0.422929 0.848918
Si Si4 0.000000 0.146948 0.250000
Si Si5 0.281800 0.404039 0.550844
Si Si6 0.480168 0.130450 0.891453
O O1 0.908381 0.678135 0.201291
O O2 0.019392 0.490467 0.354464
O O3 0.221968 0.345762 0.781511
O O4 0.250000 0.250000 0.000000
O O5 0.231682 0.496180 0.935305
O O6 0.761401 0.437309 0.880427
O O7 0.881269 0.566791 0.854790
O O8 0.931750 0.345314 0.963416
O O9 0.898580 0.075021 0.141547
O O10 0.968818 0.242314 0.313504
O O11 0.250000 0.250000 0.500000
#
# Coordination Sequence:
#
# PCOD9274999 Si02
#       6
#     4   8   8   4   8   8
#     4   9  16  39  62  82 124 168 222 264 308 398
#     4  11  25  40  61  94 132 173 216 275 337 399
#     4  10  20  38  67  94 125 172 230 266 322 400
#     4  11  22  39  68 100 140 166 224 292 334 378
#     4  12  23  43  66  97 130 175 225 278 327 396
#     4   9  17  37  66  98 120 174 226 271 317 399
#
# _framework density 21.115076999999999
#
# number of rings (size 3 to 8) (size 9 to 14) (size 15 to 20)
#    0.000    1.600    4.000    2.400    0.000    4.000 
#    0.000    1.000    0.000    0.000    0.000    0.000 
#    0.000    0.000    0.000    0.000    0.000    0.000 
#
# Total GULP energy -111537.583179 kJ/mol
# GULP energy per Si atom -5576.879159 kJ/mol
# Density = 2.106702 g / cm^3
# Si number density = 21.115077 Si / 1000 Ang^3
#
#
#
# Elastic Constant Matrix: (Units=GPa)
#
#
# Indices 1 2 3 4 5 6 
#
# 1 107.0780 -2.9146 20.2056 0.0000 -1.9894 0.0000
# 2 -2.9146 32.3383 12.9514 0.0000 -6.8445 0.0000
# 3 20.2056 12.9514 118.5894 0.0000 -18.1738 0.0000
# 4 0.0000 0.0000 0.0000 19.1747 0.0000 -1.2800
# 5 -1.9894 -6.8445 -18.1738 0.0000 44.4163 0.0000
# 6 0.0000 0.0000 0.0000 -1.2800 0.0000 17.5168
#
#
#
# Elastic Compliance Matrix: (Units=1/GPa)
#
#
# Indices 1 2 3 4 5 6 
#
# 1 0.009729 0.001600 -0.001843 0.000000 -0.000072 0.000000
# 2 0.001600 0.033205 -0.003311 0.000000 0.003834 0.000000
# 3 -0.001843 -0.003311 0.009621 0.000000 0.003344 0.000000
# 4 0.000000 0.000000 0.000000 0.052408 0.000000 0.003830
# 5 -0.000072 0.003834 0.003344 0.000000 0.024470 0.000000
# 6 0.000000 0.000000 0.000000 0.003830 0.000000 0.057368
#
#
# Mechanical properties :
#
#
# Convention : Reuss Voigt Hill
#
# Bulk Modulus (GPa) = 22.00484 35.38783 28.69634
# Shear Modulus (GPa) = 23.91680 31.40579 27.66129
#
# Velocity S-wave (km/s) = 3.36919 3.86082 3.62335
# Velocity P-wave (km/s) = 5.05760 6.05561 5.57897
#
# Compressibility (1/GPa) = 0.04544455
#
# Stress axis : x y z
#
# Youngs Moduli (GPa) = 102.78499 30.11606 103.94358
#
# Poissons Ratio (x) = -0.04818 0.19161
# Poissons Ratio (y) = -0.16445 0.34421
# Poissons Ratio (z) = 0.18948 0.09973
#
# Static dielectric constant tensor:
#      x y z
#    x 1.808640 0.000000 -0.032380 
#    y 0.000000 1.791970 0.000000 
#    z -0.032380 0.000000 1.838600 
# 
# From -- ./inp_files/160572.got.cif
#   From: 2010.05.17/outbox.cif.g08.bks.cpg/sg15_81_cif.got.tgz:160572.got - 2010.06.03 18:47:42.
