data_PCOD9274776
_publ_section_title
;
Structure prediction by ZEFSAII (Michael W. Deem and Ramdas Pophale) SiO2 
 PCOD9274776
Probable space group: C 2/C
;
_chemical_formula_sum "Si O2"
_cell_formula_units_Z 56
_cell_length_a 5.196689
_cell_length_b 23.931593
_cell_length_c 19.686314
_cell_angle_alpha 90.000000
_cell_angle_beta 65.859658
_cell_angle_gamma 90.000000
_cell_volume 2234.177741
_symmetry_space_group_name_H-M "C 2/C"
_symmetry_group_IT_number 15
_symmetry_cell_setting 'monoclinic'
loop_
_space_group_symop_operation_xyz
x,y,z
-x,y,1/2-z
-x,-y,-z
x,-y,1/2+z
1/2+x,1/2+y,z
1/2-x,1/2+y,1/2-z
1/2-x,1/2-y,-z
1/2+x,1/2-y,1/2+z
loop_
_atom_site_type_symbol
_atom_site_label
_atom_site_fract_x
_atom_site_fract_y
_atom_site_fract_z
Si Si1 0.391389 0.364269 0.559651
Si Si2 0.138534 0.241580 0.101714
Si Si3 0.425578 0.392793 0.181987
Si Si4 0.564200 0.037432 0.380717
Si Si5 0.227641 0.953237 0.496344
Si Si6 0.278364 0.310981 0.441684
Si Si7 0.000000 0.293196 0.250000
Si Si8 0.000000 0.484738 0.250000
O O1 0.550559 0.322045 0.592554
O O2 0.180096 0.415191 0.602577
O O3 0.624354 0.393152 0.485017
O O4 0.213381 0.328936 0.525161
O O5 0.986189 0.278706 0.060669
O O6 0.963843 0.255275 0.188759
O O7 0.443746 0.270622 0.083835
O O8 0.500000 0.410152 0.250000
O O9 0.668284 0.367721 0.108167
O O10 0.250076 0.336397 0.211938
O O11 0.222685 0.444806 0.185478
O O12 0.754872 0.057924 0.423758
O O13 0.489126 0.979047 0.428768
O O14 0.640832 0.021030 0.295399
O O15 0.000000 0.000000 0.500000
#
# Coordination Sequence:
#
# PCOD9274776 Si02
#       8
#     8   8   8   8   8   8   4   4
#     4  11  24  40  65  95 128 176 220 269 341 391
#     4  11  24  41  67  98 136 175 218 277 322 411
#     4  10  20  38  65  90 127 167 219 271 336 390
#     4  10  23  43  65  91 137 169 228 281 337 400
#     4   9  21  43  64  90 127 176 222 275 337 395
#     4  11  24  41  68  99 135 168 225 275 331 390
#     4   9  20  42  58  96 134 170 216 265 340 392
#     4  11  24  40  64 100 126 174 224 279 336 402
#
# _framework density 25.065149999999999
#
# number of rings (size 3 to 8) (size 9 to 14) (size 15 to 20)
#    0.000    1.714    1.429    1.714    4.000    5.714 
#    2.571    0.000    0.000    0.000    0.000    0.000 
#    0.000    0.000    0.000    0.000    0.000    0.000 
#
# Total GULP energy -155976.618632 kJ/mol
# GULP energy per Si atom -5570.593523 kJ/mol
# Density = 2.500810 g / cm^3
# Si number density = 25.065150 Si / 1000 Ang^3
#
#
#
# Elastic Constant Matrix: (Units=GPa)
#
#
# Indices 1 2 3 4 5 6 
#
# 1 100.8841 39.4132 -1.1653 0.0000 15.0722 0.0000
# 2 39.4132 152.4746 32.3376 0.0000 -2.6227 0.0000
# 3 -1.1653 32.3376 73.3462 0.0000 18.8686 0.0000
# 4 0.0000 0.0000 0.0000 55.3079 0.0000 -5.5515
# 5 15.0722 -2.6227 18.8686 0.0000 31.7568 0.0000
# 6 0.0000 0.0000 0.0000 -5.5515 0.0000 47.6073
#
#
#
# Elastic Compliance Matrix: (Units=1/GPa)
#
#
# Indices 1 2 3 4 5 6 
#
# 1 0.013134 -0.004534 0.004613 0.000000 -0.009348 0.000000
# 2 -0.004534 0.009041 -0.005670 0.000000 0.006268 0.000000
# 3 0.004613 -0.005670 0.019939 0.000000 -0.014504 0.000000
# 4 0.000000 0.000000 0.000000 0.018295 0.000000 0.002133
# 5 -0.009348 0.006268 -0.014504 0.000000 0.045062 0.000000
# 6 0.000000 0.000000 0.000000 0.002133 0.000000 0.021254
#
#
# Mechanical properties :
#
#
# Convention : Reuss Voigt Hill
#
# Bulk Modulus (GPa) = 32.33171 51.98621 42.15896
# Shear Modulus (GPa) = 33.73431 44.00902 38.87166
#
# Velocity S-wave (km/s) = 3.67258 4.19475 3.94232
# Velocity P-wave (km/s) = 5.55976 6.65182 6.13016
#
# Compressibility (1/GPa) = 0.03092938
#
# Stress axis : x y z
#
# Youngs Moduli (GPa) = 76.14026 110.60848 50.15401
#
# Poissons Ratio (x) = 0.50150 -0.23134
# Poissons Ratio (y) = 0.34522 0.28440
# Poissons Ratio (z) = -0.35120 0.62720
#
# Static dielectric constant tensor:
#      x y z
#    x 1.925450 0.000000 0.042200 
#    y 0.000000 2.075300 0.000000 
#    z 0.042200 0.000000 2.105060 
# 
# From -- ./inp_files/227878.got.cif
#   From: 2010.05.17/outbox.cif.g08.bks.cpg/sg15_114_cif.got.tgz:227878.got - 2010.06.03 18:47:42.
