data_PCOD9274304
_publ_section_title
;
Structure prediction by ZEFSAII (Michael W. Deem and Ramdas Pophale) SiO2 
 PCOD9274304
Probable space group: C 2/C
;
_chemical_formula_sum "Si O2"
_cell_formula_units_Z 40
_cell_length_a 18.226488
_cell_length_b 15.529375
_cell_length_c 12.305606
_cell_angle_alpha 90.000000
_cell_angle_beta 27.742306
_cell_angle_gamma 90.000000
_cell_volume 1621.345712
_symmetry_space_group_name_H-M "C 2/C"
_symmetry_group_IT_number 15
_symmetry_cell_setting 'monoclinic'
loop_
_space_group_symop_operation_xyz
x,y,z
-x,y,1/2-z
-x,-y,-z
x,-y,1/2+z
1/2+x,1/2+y,z
1/2-x,1/2+y,1/2-z
1/2-x,1/2-y,-z
1/2+x,1/2-y,1/2+z
loop_
_atom_site_type_symbol
_atom_site_label
_atom_site_fract_x
_atom_site_fract_y
_atom_site_fract_z
Si Si1 0.000000 0.424067 0.250000
Si Si2 0.000000 0.163679 0.250000
Si Si3 0.466633 0.434307 0.448065
Si Si4 0.569538 0.235671 0.037877
Si Si5 0.913775 0.291419 0.536992
Si Si6 0.736371 0.510344 0.945508
O O1 0.104990 0.478378 0.196174
O O2 0.894808 0.362552 0.466502
O O3 0.015655 0.221349 0.336404
O O4 0.846864 0.103368 0.459839
O O5 0.500000 0.500000 0.500000
O O6 0.474378 0.332369 0.443537
O O7 0.294205 0.461496 0.627125
O O8 0.614099 0.456946 0.178357
O O9 0.500000 0.219891 0.250000
O O10 0.501107 0.176090 0.031445
O O11 0.757253 0.243160 0.783723
#
# Coordination Sequence:
#
# PCOD9274304 Si02
#       6
#     4   4   8   8   8   8
#     4  11  22  40  64 102 126 145 220 270 330 343
#     4   9  18  38  62  94 118 155 220 254 322 351
#     4  10  20  39  65  84 119 172 213 248 304 370
#     4  12  23  42  59  90 131 164 213 238 317 392
#     4  11  23  37  65  92 125 167 197 271 307 374
#     4  10  20  38  62  91 122 157 205 272 302 367
#
# _framework density 24.670864999999999
#
# number of rings (size 3 to 8) (size 9 to 14) (size 15 to 20)
#    0.000    1.600    2.000    6.600    0.000    3.200 
#    0.000    6.000    0.000    0.000    0.000    0.000 
#    0.000    0.000    0.000    0.000    0.000    0.000 
#
# Total GULP energy -111654.123027 kJ/mol
# GULP energy per Si atom -5582.706151 kJ/mol
# Density = 2.461471 g / cm^3
# Si number density = 24.670865 Si / 1000 Ang^3
#
#
#
# Elastic Constant Matrix: (Units=GPa)
#
#
# Indices 1 2 3 4 5 6 
#
# 1 173.5302 11.1448 37.5156 0.0000 0.0209 -0.0001
# 2 11.1448 50.4502 -3.0848 -0.0004 11.0465 0.0001
# 3 37.5156 -3.0848 100.4584 -0.0005 15.4064 0.0001
# 4 0.0000 -0.0004 -0.0005 21.8780 0.0001 5.1749
# 5 0.0209 11.0465 15.4064 0.0001 52.2746 0.0001
# 6 -0.0001 0.0001 0.0001 5.1749 0.0001 33.2215
#
#
#
# Elastic Compliance Matrix: (Units=1/GPa)
#
#
# Indices 1 2 3 4 5 6 
#
# 1 0.006453 -0.001843 -0.002645 0.000000 0.001166 0.000000
# 2 -0.001843 0.021492 0.002141 0.000000 -0.005172 0.000000
# 3 -0.002645 0.002141 0.011602 0.000000 -0.003871 0.000000
# 4 0.000000 0.000000 0.000000 0.047457 0.000000 -0.007392
# 5 0.001166 -0.005172 -0.003871 0.000000 0.021363 0.000000
# 6 0.000000 0.000000 0.000000 -0.007392 0.000000 0.031253
#
#
# Mechanical properties :
#
#
# Convention : Reuss Voigt Hill
#
# Bulk Modulus (GPa) = 28.69182 46.17666 37.43424
# Shear Modulus (GPa) = 32.06585 40.06570 36.06577
#
# Velocity S-wave (km/s) = 3.60911 4.03427 3.82760
# Velocity P-wave (km/s) = 5.38727 6.36067 5.89410
#
# Compressibility (1/GPa) = 0.03485314
#
# Stress axis : x y z
#
# Youngs Moduli (GPa) = 154.97268 46.52907 86.19528
#
# Poissons Ratio (x) = 0.08573 0.22800
# Poissons Ratio (y) = 0.28555 -0.18456
# Poissons Ratio (z) = 0.40993 -0.09963
#
# Static dielectric constant tensor:
#      x y z
#    x 2.100880 0.000000 0.035180 
#    y 0.000000 1.796240 0.000000 
#    z 0.035180 0.000000 1.980040 
# 
# From -- ./inp_files/106843.got.cif
#   From: 2010.05.17/outbox.cif.g08.bks.cpg/sg15_54_cif.got.tgz:106843.got - 2010.06.03 18:47:42.
