data_PCOD9274247
_publ_section_title
;
Structure prediction by ZEFSAII (Michael W. Deem and Ramdas Pophale) SiO2 
 PCOD9274247
Probable space group: C 2/C
;
_chemical_formula_sum "Si O2"
_cell_formula_units_Z 52
_cell_length_a 26.304903
_cell_length_b 18.353855
_cell_length_c 15.398242
_cell_angle_alpha 90.000000
_cell_angle_beta 21.005242
_cell_angle_gamma 90.000000
_cell_volume 2664.819509
_symmetry_space_group_name_H-M "C 2/C"
_symmetry_group_IT_number 15
_symmetry_cell_setting 'monoclinic'
loop_
_space_group_symop_operation_xyz
x,y,z
-x,y,1/2-z
-x,-y,-z
x,-y,1/2+z
1/2+x,1/2+y,z
1/2-x,1/2+y,1/2-z
1/2-x,1/2-y,-z
1/2+x,1/2-y,1/2+z
loop_
_atom_site_type_symbol
_atom_site_label
_atom_site_fract_x
_atom_site_fract_y
_atom_site_fract_z
Si Si1 0.445154 0.535347 0.999552
Si Si2 0.295313 0.869308 0.236377
Si Si3 0.335079 0.211906 0.504335
Si Si4 0.049653 0.582625 0.433780
Si Si5 0.000000 0.071744 0.250000
Si Si6 0.628099 0.976873 0.980317
Si Si7 0.316682 0.355899 0.419852
O O1 0.477381 0.479666 0.869518
O O2 0.533651 0.606914 0.835090
O O3 0.500000 0.500000 0.000000
O O4 0.278651 0.548253 0.276700
O O5 0.430589 0.863225 0.085252
O O6 0.146087 0.882759 0.522279
O O7 0.334935 0.944302 0.121463
O O8 0.279139 0.806397 0.189802
O O9 0.500000 0.189763 0.250000
O O10 0.330010 0.292302 0.470430
O O11 0.247161 0.168557 0.571198
O O12 0.079874 0.583509 0.487372
O O13 0.197710 0.590935 0.148072
O O14 0.000000 0.500000 0.500000
O O15 0.500000 0.988032 0.250000
#
# Coordination Sequence:
#
# PCOD9274247 Si02
#       7
#     8   8   8   8   4   8   8
#     4  11  23  37  62  97 134 163 202 272 342 383
#     4  10  20  38  62  88 124 169 216 257 324 386
#     4  11  23  39  63  88 123 172 213 262 306 386
#     4  10  21  35  62  89 125 163 205 266 327 379
#     4  10  22  38  62  96 126 166 212 276 324 394
#     4  10  22  35  58  91 128 162 205 266 329 392
#     4  11  23  39  62  94 125 160 217 263 315 384
#
# _framework density 19.513515999999999
#
# number of rings (size 3 to 8) (size 9 to 14) (size 15 to 20)
#    0.000    1.538    1.538    5.077   11.846    0.000 
#    0.000    0.000    1.692    0.923    0.000    0.000 
#    0.000    0.000    0.000    0.000    0.000    0.000 
#
# Total GULP energy -145027.127237 kJ/mol
# GULP energy per Si atom -5577.966432 kJ/mol
# Density = 1.946910 g / cm^3
# Si number density = 19.513516 Si / 1000 Ang^3
#
#
#
# Elastic Constant Matrix: (Units=GPa)
#
#
# Indices 1 2 3 4 5 6 
#
# 1 125.2360 22.5268 42.8000 0.0001 -11.6954 0.0000
# 2 22.5268 36.7233 22.8429 0.0005 -2.4175 -0.0006
# 3 42.8000 22.8429 158.6230 0.0001 -15.7910 -0.0004
# 4 0.0001 0.0005 0.0001 7.9088 -0.0002 4.3786
# 5 -11.6954 -2.4175 -15.7910 -0.0002 32.5936 0.0003
# 6 0.0000 -0.0006 -0.0004 4.3786 0.0003 23.3198
#
#
#
# Elastic Compliance Matrix: (Units=1/GPa)
#
#
# Indices 1 2 3 4 5 6 
#
# 1 0.009622 -0.004699 -0.001692 0.000000 0.002284 0.000000
# 2 -0.004699 0.032206 -0.003467 -0.000003 -0.000977 0.000001
# 3 -0.001692 -0.003467 0.007538 0.000000 0.002788 0.000000
# 4 0.000000 -0.000003 0.000000 0.141110 0.000001 -0.026495
# 5 0.002284 -0.000977 0.002788 0.000001 0.032779 -0.000001
# 6 0.000000 0.000001 0.000000 -0.026495 -0.000001 0.047857
#
#
# Mechanical properties :
#
#
# Convention : Reuss Voigt Hill
#
# Bulk Modulus (GPa) = 33.72910 55.21354 44.47132
# Shear Modulus (GPa) = 16.62730 28.25861 22.44296
#
# Velocity S-wave (km/s) = 2.92223 3.80959 3.39503
# Velocity P-wave (km/s) = 5.35802 6.90703 6.18124
#
# Compressibility (1/GPa) = 0.02964799
#
# Stress axis : x y z
#
# Youngs Moduli (GPa) = 103.93069 31.05044 132.66819
#
# Poissons Ratio (x) = 0.14592 0.22448
# Poissons Ratio (y) = 0.48841 0.45998
# Poissons Ratio (z) = 0.17585 0.10766
#
# Static dielectric constant tensor:
#      x y z
#    x 1.697410 0.000000 0.052800 
#    y 0.000000 1.711610 0.000000 
#    z 0.052800 0.000000 1.562480 
# 
# From -- ./inp_files/179016.got.cif
#   From: 2010.05.17/outbox.cif.g08.bks.cpg/sg15_90_cif.got.tgz:179016.got - 2010.06.03 18:47:42.
