data_PCOD9274696
_publ_section_title
;
Structure prediction by ZEFSAII (Michael W. Deem and Ramdas Pophale) SiO2 
 PCOD9274696
Probable space group: C 2/C
;
_chemical_formula_sum "Si O2"
_cell_formula_units_Z 36
_cell_length_a 13.287548
_cell_length_b 18.211832
_cell_length_c 12.731605
_cell_angle_alpha 90.000000
_cell_angle_beta 146.048106
_cell_angle_gamma 90.000000
_cell_volume 1720.688287
_symmetry_space_group_name_H-M "C 2/C"
_symmetry_group_IT_number 15
_symmetry_cell_setting 'monoclinic'
loop_
_space_group_symop_operation_xyz
x,y,z
-x,y,1/2-z
-x,-y,-z
x,-y,1/2+z
1/2+x,1/2+y,z
1/2-x,1/2+y,1/2-z
1/2-x,1/2-y,-z
1/2+x,1/2-y,1/2+z
loop_
_atom_site_type_symbol
_atom_site_label
_atom_site_fract_x
_atom_site_fract_y
_atom_site_fract_z
Si Si1 0.322039 0.352069 0.405480
Si Si2 0.693276 0.594465 0.243987
Si Si3 0.316620 0.013468 0.155029
Si Si4 0.000000 0.992124 0.250000
Si Si5 0.040885 0.702410 0.905451
O O1 0.516661 0.375572 0.528694
O O2 0.241849 0.428441 0.379353
O O3 0.391950 0.286250 0.540862
O O4 0.150209 0.313620 0.201667
O O5 0.816462 0.550815 0.268621
O O6 0.608304 0.541465 0.258899
O O7 0.808993 0.654640 0.406127
O O8 0.500000 0.017444 0.250000
O O9 0.156422 0.048795 0.947568
O O10 0.000000 0.680586 0.750000
#
# Coordination Sequence:
#
# PCOD9274696 Si02
#       5
#     8   8   8   4   8
#     4  11  22  37  61  97 132 168 208 267 337 393
#     4  11  24  42  62  98 135 172 220 265 331 393
#     4  11  25  42  64  96 135 178 219 265 321 392
#     4  10  20  38  64  94 128 166 210 266 330 378
#     4  12  23  35  64  99 138 167 204 268 346 398
#
# _framework density 20.921859999999999
#
# number of rings (size 3 to 8) (size 9 to 14) (size 15 to 20)
#    0.000    0.889    2.222    8.000    6.222    5.333 
#    2.000    0.000    0.000    1.333    2.889    0.000 
#    0.000    0.000    0.000    0.000    0.000    0.000 
#
# Total GULP energy -100317.193411 kJ/mol
# GULP energy per Si atom -5573.177412 kJ/mol
# Density = 2.087424 g / cm^3
# Si number density = 20.921860 Si / 1000 Ang^3
#
#
#
# Elastic Constant Matrix: (Units=GPa)
#
#
# Indices 1 2 3 4 5 6 
#
# 1 126.1484 72.2482 52.0590 0.0000 15.0767 0.0000
# 2 72.2482 69.6409 33.4334 0.0000 4.6635 0.0000
# 3 52.0590 33.4334 118.5707 0.0000 29.7944 0.0000
# 4 0.0000 0.0000 0.0000 4.9350 0.0000 -13.3676
# 5 15.0767 4.6635 29.7944 0.0000 28.9291 0.0000
# 6 0.0000 0.0000 0.0000 -13.3676 0.0000 -15.5190
#
#
#
# Elastic Compliance Matrix: (Units=1/GPa)
#
#
# Indices 1 2 3 4 5 6 
#
# 1 0.021373 -0.020782 -0.002114 0.000000 -0.005611 0.000000
# 2 -0.020782 0.036997 -0.003414 0.000000 0.008383 0.000000
# 3 -0.002114 -0.003414 0.013369 0.000000 -0.012117 0.000000
# 4 0.000000 0.000000 0.000000 0.060792 0.000000 -0.052365
# 5 -0.005611 0.008383 -0.012117 0.000000 0.048620 0.000000
# 6 0.000000 0.000000 0.000000 -0.052365 0.000000 -0.019332
#
#
# Mechanical properties :
#
#
# Convention : Reuss Voigt Hill
#
# Bulk Modulus (GPa) = 52.30350 69.98236 61.14293
# Shear Modulus (GPa) = 22.64358 14.11031 18.37694
#
# Velocity S-wave (km/s) = 3.29339 2.59979 2.96693
# Velocity P-wave (km/s) = 6.28615 6.52180 6.40506
#
# Compressibility (1/GPa) = 0.01911918
#
# Stress axis : x y z
#
# Youngs Moduli (GPa) = 46.78875 27.02893 74.79819
#
# Poissons Ratio (x) = 0.56172 0.15810
# Poissons Ratio (y) = 0.97238 0.25537
# Poissons Ratio (z) = 0.09890 0.09228
#
# Static dielectric constant tensor:
#      x y z
#    x 1.813360 0.000000 0.051020 
#    y 0.000000 1.772320 0.000000 
#    z 0.051020 0.000000 1.842690 
# 
# From -- ./inp_files/155323.got.cif
#   From: 2010.05.17/outbox.cif.g08.bks.cpg/sg15_78_cif.got.tgz:155323.got - 2010.06.03 18:47:42.
