data_PCOD9274183
_publ_section_title
;
Structure prediction by ZEFSAII (Michael W. Deem and Ramdas Pophale) SiO2 
 PCOD9274183
Probable space group: C 2/C
;
_chemical_formula_sum "Si O2"
_cell_formula_units_Z 52
_cell_length_a 6.317048
_cell_length_b 17.961306
_cell_length_c 20.716477
_cell_angle_alpha 90.000000
_cell_angle_beta 72.117718
_cell_angle_gamma 90.000000
_cell_volume 2236.985789
_symmetry_space_group_name_H-M "C 2/C"
_symmetry_group_IT_number 15
_symmetry_cell_setting 'monoclinic'
loop_
_space_group_symop_operation_xyz
x,y,z
-x,y,1/2-z
-x,-y,-z
x,-y,1/2+z
1/2+x,1/2+y,z
1/2-x,1/2+y,1/2-z
1/2-x,1/2-y,-z
1/2+x,1/2-y,1/2+z
loop_
_atom_site_type_symbol
_atom_site_label
_atom_site_fract_x
_atom_site_fract_y
_atom_site_fract_z
Si Si1 0.774271 0.913372 0.591532
Si Si2 0.801054 0.370266 0.679629
Si Si3 0.808448 0.174395 0.456303
Si Si4 0.910437 0.013410 0.847481
Si Si5 0.500000 0.740252 0.250000
Si Si6 0.437169 0.053858 0.940181
Si Si7 0.692121 0.111228 0.686991
O O1 0.563451 0.880216 0.648718
O O2 0.929891 0.962595 0.623490
O O3 0.938530 0.849750 0.550845
O O4 0.676299 0.972208 0.548962
O O5 0.722281 0.331686 0.618678
O O6 0.700190 0.453827 0.690880
O O7 0.696725 0.319285 0.745509
O O8 0.750000 0.250000 0.500000
O O9 0.650094 0.108941 0.497611
O O10 0.069256 0.081609 0.812757
O O11 0.699706 0.045280 0.905806
O O12 0.362663 0.801479 0.303839
O O13 0.347924 0.088585 0.882083
O O14 0.500000 0.075714 0.750000
#
# Coordination Sequence:
#
# PCOD9274183 Si02
#       7
#     8   8   8   8   4   8   8
#     4   9  21  39  59  86 120 157 199 247 299 360
#     4  10  22  39  60  87 122 162 198 248 305 363
#     4  11  23  37  58  89 120 155 204 248 304 362
#     4   9  20  38  62  90 115 155 206 247 300 362
#     4  10  22  42  60  86 126 158 198 248 310 364
#     4  10  20  38  62  85 115 155 198 250 300 356
#     4   9  21  38  59  86 118 153 199 249 298 361
#
# _framework density 23.245566
#
# number of rings (size 3 to 8) (size 9 to 14) (size 15 to 20)
#    0.462    1.846    0.000    1.385    0.000   14.154 
#    0.000    5.385    0.000    0.000    0.000    0.000 
#    0.000    0.000    0.000    0.000    0.000    0.000 
#
# Total GULP energy -145005.860704 kJ/mol
# GULP energy per Si atom -5577.148489 kJ/mol
# Density = 2.319266 g / cm^3
# Si number density = 23.245566 Si / 1000 Ang^3
#
#
#
# Elastic Constant Matrix: (Units=GPa)
#
#
# Indices 1 2 3 4 5 6 
#
# 1 117.9385 78.1651 55.7459 0.0000 -48.1313 0.0000
# 2 78.1651 141.2957 62.1424 0.0000 -30.4079 0.0000
# 3 55.7459 62.1424 73.9086 0.0000 -22.1169 0.0000
# 4 0.0000 0.0000 0.0000 49.6122 0.0000 -36.5870
# 5 -48.1313 -30.4079 -22.1169 0.0000 55.0820 0.0000
# 6 0.0000 0.0000 0.0000 -36.5870 0.0000 8.8594
#
#
#
# Elastic Compliance Matrix: (Units=1/GPa)
#
#
# Indices 1 2 3 4 5 6 
#
# 1 0.020407 -0.005596 -0.007132 0.000000 0.011879 0.000000
# 2 -0.005596 0.013140 -0.006956 0.000000 -0.000429 0.000000
# 3 -0.007132 -0.006956 0.024713 0.000000 -0.000149 0.000000
# 4 0.000000 0.000000 0.000000 -0.009854 0.000000 -0.040694
# 5 0.011879 -0.000429 -0.000149 0.000000 0.028238 0.000000
# 6 0.000000 0.000000 0.000000 -0.040694 0.000000 -0.055181
#
#
# Mechanical properties :
#
#
# Convention : Reuss Voigt Hill
#
# Bulk Modulus (GPa) = 52.93072 80.58330 66.75701
# Shear Modulus (GPa) = 74.48553 31.85001 53.16777
#
# Velocity S-wave (km/s) = 5.66679 3.70558 4.78768
# Velocity P-wave (km/s) = 8.10162 7.28353 7.70344
#
# Compressibility (1/GPa) = 0.01889262
#
# Stress axis : x y z
#
# Youngs Moduli (GPa) = 49.00388 76.10457 40.46398
#
# Poissons Ratio (x) = 0.42587 0.28859
# Poissons Ratio (y) = 0.27422 0.28145
# Poissons Ratio (z) = 0.34950 0.52935
#
# Static dielectric constant tensor:
#      x y z
#    x 1.894880 0.000000 0.060850 
#    y 0.000000 1.894230 0.000000 
#    z 0.060850 0.000000 1.969850 
# 
# From -- ./inp_files/285987.got.cif
#   From: 2010.05.17/outbox.cif.g08.bks.cpg/sg15_143_cif.got.tgz:285987.got - 2010.06.03 18:47:42.
