data_PCOD9274509
_publ_section_title
;
Structure prediction by ZEFSAII (Michael W. Deem and Ramdas Pophale) SiO2 
 PCOD9274509
Probable space group: C 2/C
;
_chemical_formula_sum "Si O2"
_cell_formula_units_Z 60
_cell_length_a 9.556963
_cell_length_b 20.132353
_cell_length_c 17.139509
_cell_angle_alpha 90.000000
_cell_angle_beta 113.383480
_cell_angle_gamma 90.000000
_cell_volume 3026.868583
_symmetry_space_group_name_H-M "C 2/C"
_symmetry_group_IT_number 15
_symmetry_cell_setting 'monoclinic'
loop_
_space_group_symop_operation_xyz
x,y,z
-x,y,1/2-z
-x,-y,-z
x,-y,1/2+z
1/2+x,1/2+y,z
1/2-x,1/2+y,1/2-z
1/2-x,1/2-y,-z
1/2+x,1/2-y,1/2+z
loop_
_atom_site_type_symbol
_atom_site_label
_atom_site_fract_x
_atom_site_fract_y
_atom_site_fract_z
Si Si1 0.451600 0.072995 0.650532
Si Si2 0.000000 0.146642 0.750000
Si Si3 0.411371 0.267827 0.373994
Si Si4 0.648266 0.534014 0.494002
Si Si5 0.027345 0.163256 0.050753
Si Si6 0.574784 0.767878 0.348798
Si Si7 0.321753 0.179284 0.043702
Si Si8 0.229265 0.427782 0.099561
O O1 0.500000 0.056471 0.750000
O O2 0.288121 0.045691 0.585307
O O3 0.440990 0.153311 0.642860
O O4 0.589058 0.052473 0.623821
O O5 0.912516 0.193466 0.792729
O O6 0.870691 0.103033 0.679198
O O7 0.481322 0.319896 0.451665
O O8 0.250720 0.250859 0.375878
O O9 0.514785 0.202563 0.390422
O O10 0.500000 0.500000 0.500000
O O11 0.581441 0.603723 0.448162
O O12 0.711020 0.488279 0.439083
O O13 0.998429 0.227091 0.097365
O O14 0.207540 0.149582 0.083228
O O15 0.500000 0.750396 0.250000
O O16 0.250000 0.250000 0.000000
O O17 0.327022 0.129288 0.972816
#
# Coordination Sequence:
#
# PCOD9274509 Si02
#       8
#     8   4   8   8   8   8   8   8
#     4  11  25  44  72 102 132 171 231 290 333 399
#     4  12  22  40  68 104 132 174 230 282 332 404
#     4  11  22  36  67 100 130 169 218 280 339 396
#     4  12  25  46  68  95 137 186 226 268 339 414
#     4  11  22  43  64  98 132 173 218 272 339 406
#     4  11  24  41  68 101 136 168 221 287 345 394
#     4  10  20  38  63  96 129 170 210 273 329 395
#     4  12  25  42  70  98 138 175 235 270 341 400
#
# _framework density 19.822467
#
# number of rings (size 3 to 8) (size 9 to 14) (size 15 to 20)
#    0.000    0.800    5.333    4.000    5.600    0.000 
#    1.200    0.000    1.467    0.000    0.000    0.000 
#    0.000    0.000    0.000    0.000    0.000    0.000 
#
# Total GULP energy -167595.605576 kJ/mol
# GULP energy per Si atom -5586.520186 kJ/mol
# Density = 1.977735 g / cm^3
# Si number density = 19.822467 Si / 1000 Ang^3
#
#
#
# Elastic Constant Matrix: (Units=GPa)
#
#
# Indices 1 2 3 4 5 6 
#
# 1 138.6494 29.5074 40.7556 0.0000 -9.4478 0.0000
# 2 29.5074 70.8646 47.7020 0.0000 -6.3644 0.0000
# 3 40.7556 47.7020 85.1607 0.0000 -11.8536 0.0000
# 4 0.0000 0.0000 0.0000 20.8691 0.0000 -0.9597
# 5 -9.4478 -6.3644 -11.8536 0.0000 37.6700 0.0000
# 6 0.0000 0.0000 0.0000 -0.9597 0.0000 35.3704
#
#
#
# Elastic Compliance Matrix: (Units=1/GPa)
#
#
# Indices 1 2 3 4 5 6 
#
# 1 0.008494 -0.001291 -0.003217 0.000000 0.000900 0.000000
# 2 -0.001291 0.022850 -0.012225 0.000000 -0.000310 0.000000
# 3 -0.003217 -0.012225 0.020633 0.000000 0.003621 0.000000
# 4 0.000000 0.000000 0.000000 0.047978 0.000000 0.001302
# 5 0.000900 -0.000310 0.003621 0.000000 0.027859 0.000000
# 6 0.000000 0.000000 0.000000 0.001302 0.000000 0.028308
#
#
# Mechanical properties :
#
#
# Convention : Reuss Voigt Hill
#
# Bulk Modulus (GPa) = 54.01539 58.95606 56.48573
# Shear Modulus (GPa) = 25.54191 30.56254 28.05223
#
# Velocity S-wave (km/s) = 3.59351 3.93085 3.76596
# Velocity P-wave (km/s) = 6.67282 7.09991 6.88967
#
# Compressibility (1/GPa) = 0.01851324
#
# Stress axis : x y z
#
# Youngs Moduli (GPa) = 117.73004 43.76385 48.46507
#
# Poissons Ratio (x) = 0.05648 0.15590
# Poissons Ratio (y) = 0.15195 0.59247
# Poissons Ratio (z) = 0.37871 0.53500
#
# Static dielectric constant tensor:
#      x y z
#    x 1.660620 0.000000 -0.005760 
#    y 0.000000 1.699880 0.000000 
#    z -0.005760 0.000000 1.671190 
# 
# From -- ./inp_files/192238.got.cif
#   From: 2010.05.17/outbox.cif.g08.bks.cpg/sg15_97_cif.got.tgz:192238.got - 2010.06.03 18:47:42.
