data_PCOD9274289
_publ_section_title
;
Structure prediction by ZEFSAII (Michael W. Deem and Ramdas Pophale) SiO2 
 PCOD9274289
Probable space group: C 2/C
;
_chemical_formula_sum "Si O2"
_cell_formula_units_Z 52
_cell_length_a 8.983578
_cell_length_b 18.403189
_cell_length_c 15.865852
_cell_angle_alpha 90.000000
_cell_angle_beta 74.496967
_cell_angle_gamma 90.000000
_cell_volume 2527.609437
_symmetry_space_group_name_H-M "C 2/C"
_symmetry_group_IT_number 15
_symmetry_cell_setting 'monoclinic'
loop_
_space_group_symop_operation_xyz
x,y,z
-x,y,1/2-z
-x,-y,-z
x,-y,1/2+z
1/2+x,1/2+y,z
1/2-x,1/2+y,1/2-z
1/2-x,1/2-y,-z
1/2+x,1/2-y,1/2+z
loop_
_atom_site_type_symbol
_atom_site_label
_atom_site_fract_x
_atom_site_fract_y
_atom_site_fract_z
Si Si1 0.527013 0.317211 0.148702
Si Si2 0.631772 0.304797 0.476817
Si Si3 0.946589 0.418567 0.982868
Si Si4 0.500000 0.707757 0.250000
Si Si5 0.723428 0.397489 0.608648
Si Si6 0.379011 0.536092 0.955382
Si Si7 0.869540 0.722671 0.602749
O O1 0.500000 0.326574 0.250000
O O2 0.376293 0.290987 0.121078
O O3 0.549546 0.393884 0.099338
O O4 0.686098 0.272410 0.117497
O O5 0.750000 0.250000 0.500000
O O6 0.687506 0.376676 0.515634
O O7 0.461961 0.281739 0.533782
O O8 0.092265 0.390757 0.906287
O O9 0.775324 0.434463 0.974074
O O10 0.921258 0.357401 0.060166
O O11 0.000000 0.500000 0.000000
O O12 0.378113 0.654097 0.316332
O O13 0.578637 0.757771 0.310162
O O14 0.670838 0.481216 0.612523
O O15 0.500000 0.500000 0.000000
#
# Coordination Sequence:
#
# PCOD9274289 Si02
#       7
#     8   8   8   4   8   8   8
#     4  11  25  38  60  95 127 165 212 280 330 378
#     4  11  21  38  65  88 120 172 211 265 326 403
#     4   9  19  36  63  90 116 164 218 268 308 391
#     4  10  24  36  64  96 134 176 206 284 340 404
#     4  10  20  38  62  90 125 166 221 258 328 390
#     4  10  20  40  63  89 120 168 222 262 318 396
#     4  10  22  39  60  93 127 167 224 260 333 395
#
# _framework density 20.572799
#
# number of rings (size 3 to 8) (size 9 to 14) (size 15 to 20)
#    0.000    1.846    3.077    0.462    5.385    0.000 
#    0.000    0.000    0.000    0.000    2.000    0.000 
#    0.000    0.000    0.000    0.000    0.000    0.000 
#
# Total GULP energy -144794.581406 kJ/mol
# GULP energy per Si atom -5569.022362 kJ/mol
# Density = 2.052597 g / cm^3
# Si number density = 20.572799 Si / 1000 Ang^3
#
#
#
# Elastic Constant Matrix: (Units=GPa)
#
#
# Indices 1 2 3 4 5 6 
#
# 1 143.1939 25.1925 52.5870 0.0000 -0.1734 0.0000
# 2 25.1925 68.5131 2.8518 0.0000 -0.4364 0.0000
# 3 52.5870 2.8518 84.5049 0.0000 13.7716 0.0000
# 4 0.0000 0.0000 0.0000 23.8841 0.0000 2.1991
# 5 -0.1734 -0.4364 13.7716 0.0000 37.4423 0.0000
# 6 0.0000 0.0000 0.0000 2.1991 0.0000 38.0306
#
#
#
# Elastic Compliance Matrix: (Units=1/GPa)
#
#
# Indices 1 2 3 4 5 6 
#
# 1 0.009957 -0.003377 -0.006471 0.000000 0.002387 0.000000
# 2 -0.003377 0.015766 0.001640 0.000000 -0.000435 0.000000
# 3 -0.006471 0.001640 0.016815 0.000000 -0.006196 0.000000
# 4 0.000000 0.000000 0.000000 0.042093 0.000000 -0.002434
# 5 0.002387 -0.000435 -0.006196 0.000000 0.028993 0.000000
# 6 0.000000 0.000000 0.000000 -0.002434 0.000000 0.026435
#
#
# Mechanical properties :
#
#
# Convention : Reuss Voigt Hill
#
# Bulk Modulus (GPa) = 38.28082 50.83050 44.55566
# Shear Modulus (GPa) = 30.26960 34.24344 32.25652
#
# Velocity S-wave (km/s) = 3.83997 4.08426 3.96399
# Velocity P-wave (km/s) = 6.18937 6.85586 6.53112
#
# Compressibility (1/GPa) = 0.02612274
#
# Stress axis : x y z
#
# Youngs Moduli (GPa) = 100.43175 63.42633 59.47079
#
# Poissons Ratio (x) = 0.21417 0.38485
# Poissons Ratio (y) = 0.33912 -0.09754
# Poissons Ratio (z) = 0.64992 -0.10403
#
# Static dielectric constant tensor:
#      x y z
#    x 1.823920 0.000000 0.020820 
#    y 0.000000 1.840440 0.000000 
#    z 0.020820 0.000000 1.788320 
# 
# From -- ./inp_files/135968.got.cif
#   From: 2010.05.17/outbox.cif.g08.bks.cpg/sg15_68_cif.got.tgz:135968.got - 2010.06.03 18:47:42.
