data_PCOD9274927
_publ_section_title
;
Structure prediction by ZEFSAII (Michael W. Deem and Ramdas Pophale) SiO2 
 PCOD9274927
Probable space group: C 2/C
;
_chemical_formula_sum "Si O2"
_cell_formula_units_Z 44
_cell_length_a 12.951378
_cell_length_b 7.921791
_cell_length_c 16.266880
_cell_angle_alpha 90.000000
_cell_angle_beta 75.468214
_cell_angle_gamma 90.000000
_cell_volume 1615.559035
_symmetry_space_group_name_H-M "C 2/C"
_symmetry_group_IT_number 15
_symmetry_cell_setting 'monoclinic'
loop_
_space_group_symop_operation_xyz
x,y,z
-x,y,1/2-z
-x,-y,-z
x,-y,1/2+z
1/2+x,1/2+y,z
1/2-x,1/2+y,1/2-z
1/2-x,1/2-y,-z
1/2+x,1/2-y,1/2+z
loop_
_atom_site_type_symbol
_atom_site_label
_atom_site_fract_x
_atom_site_fract_y
_atom_site_fract_z
Si Si1 0.010028 0.740701 0.930445
Si Si2 0.000000 0.365010 0.250000
Si Si3 0.643832 0.400052 0.158583
Si Si4 0.301342 0.973235 0.847858
Si Si5 0.163391 0.455810 0.968895
Si Si6 0.913977 0.930177 0.146538
O O1 0.067339 0.918354 0.921700
O O2 0.983607 0.730050 0.838758
O O3 0.907529 0.714477 0.009255
O O4 0.088271 0.588003 0.936579
O O5 0.103748 0.481937 0.233339
O O6 0.710912 0.228271 0.161139
O O7 0.532507 0.350219 0.134154
O O8 0.611606 0.477550 0.252390
O O9 0.719624 0.525219 0.092405
O O10 0.208783 0.109756 0.850776
O O11 0.331087 0.988743 0.937411
#
# Coordination Sequence:
#
# PCOD9274927 Si02
#       6
#     8   4   8   8   8   8
#     4  10  21  41  66  94 131 173 221 275 325 403
#     4  10  20  38  66  94 122 180 224 254 340 392
#     4  11  23  42  64  98 134 168 221 279 324 404
#     4  11  23  41  67  96 131 176 218 277 332 394
#     4  10  22  42  67  93 132 175 217 274 337 390
#     4  11  24  40  66  95 131 171 215 276 331 390
#
# _framework density 27.235157000000001
#
# number of rings (size 3 to 8) (size 9 to 14) (size 15 to 20)
#    0.000    1.455    1.818    3.818    0.000    1.455 
#    0.000    0.000    0.000    0.000    0.000    0.000 
#    0.000    0.000    0.000    0.000    0.000    0.000 
#
# Total GULP energy -122891.416759 kJ/mol
# GULP energy per Si atom -5585.973489 kJ/mol
# Density = 2.717317 g / cm^3
# Si number density = 27.235157 Si / 1000 Ang^3
#
#
#
# Elastic Constant Matrix: (Units=GPa)
#
#
# Indices 1 2 3 4 5 6 
#
# 1 152.0229 21.5484 50.0547 0.0000 -33.5309 0.0000
# 2 21.5484 43.8547 1.9934 0.0000 -15.4179 0.0000
# 3 50.0547 1.9934 80.1027 0.0000 -25.8771 0.0000
# 4 0.0000 0.0000 0.0000 2.0974 0.0000 -15.9347
# 5 -33.5309 -15.4179 -25.8771 0.0000 67.9443 0.0000
# 6 0.0000 0.0000 0.0000 -15.9347 0.0000 44.1126
#
#
#
# Elastic Compliance Matrix: (Units=1/GPa)
#
#
# Indices 1 2 3 4 5 6 
#
# 1 0.009148 -0.003646 -0.005057 0.000000 0.001761 0.000000
# 2 -0.003646 0.026365 0.003391 0.000000 0.005475 0.000000
# 3 -0.005057 0.003391 0.017107 0.000000 0.004789 0.000000
# 4 0.000000 0.000000 0.000000 -0.273326 0.000000 -0.098733
# 5 0.001761 0.005475 0.004789 0.000000 0.018654 0.000000
# 6 0.000000 0.000000 0.000000 -0.098733 0.000000 -0.012996
#
#
# Mechanical properties :
#
#
# Convention : Reuss Voigt Hill
#
# Bulk Modulus (GPa) = 23.81201 47.01925 35.41563
# Shear Modulus (GPa) = -26.25692 36.32311 5.03310
#
# Velocity S-wave (km/s) = -3.10834 3.65593 1.36089
# Velocity P-wave (km/s) = 2.02984 5.92644 3.93716
#
# Compressibility (1/GPa) = 0.04199561
#
# Stress axis : x y z
#
# Youngs Moduli (GPa) = 109.31038 37.92956 58.45696
#
# Poissons Ratio (x) = 0.13829 0.29561
# Poissons Ratio (y) = 0.39854 -0.19822
# Poissons Ratio (z) = 0.55276 -0.12861
#
# Static dielectric constant tensor:
#      x y z
#    x 2.261030 0.000000 0.040670 
#    y 0.000000 2.300530 0.000000 
#    z 0.040670 0.000000 2.058160 
# 
# From -- ./inp_files/151341.got.cif
#   From: 2010.05.17/outbox.cif.g08.bks.cpg/sg15_76_cif.got.tgz:151341.got - 2010.06.03 18:47:42.
