data_PCOD9274500
_publ_section_title
;
Structure prediction by ZEFSAII (Michael W. Deem and Ramdas Pophale) SiO2 
 PCOD9274500
Probable space group: C 2/C
;
_chemical_formula_sum "Si O2"
_cell_formula_units_Z 40
_cell_length_a 15.153538
_cell_length_b 6.985344
_cell_length_c 18.227523
_cell_angle_alpha 90.000000
_cell_angle_beta 56.945316
_cell_angle_gamma 90.000000
_cell_volume 1617.154221
_symmetry_space_group_name_H-M "C 2/C"
_symmetry_group_IT_number 15
_symmetry_cell_setting 'monoclinic'
loop_
_space_group_symop_operation_xyz
x,y,z
-x,y,1/2-z
-x,-y,-z
x,-y,1/2+z
1/2+x,1/2+y,z
1/2-x,1/2+y,1/2-z
1/2-x,1/2-y,-z
1/2+x,1/2-y,1/2+z
loop_
_atom_site_type_symbol
_atom_site_label
_atom_site_fract_x
_atom_site_fract_y
_atom_site_fract_z
Si Si1 0.493329 0.272140 0.481528
Si Si2 0.569671 0.864478 0.789155
Si Si3 0.399000 0.678142 0.248346
Si Si4 0.213210 0.749951 0.434064
Si Si5 0.698438 0.645704 0.356615
O O1 0.500000 0.500000 0.500000
O O2 0.515769 0.212371 0.387688
O O3 0.592160 0.189557 0.481522
O O4 0.377343 0.217878 0.562120
O O5 0.500000 0.815651 0.750000
O O6 0.688874 0.788032 0.724493
O O7 0.582537 0.096570 0.781042
O O8 0.500000 0.619248 0.250000
O O9 0.297687 0.644672 0.345183
O O10 0.371113 0.589661 0.182749
O O11 0.250000 0.750000 0.500000
O O12 0.220561 0.965020 0.398288
#
# Coordination Sequence:
#
# PCOD9274500 Si02
#       5
#     8   8   8   8   8
#     4  10  21  40  63  93 132 171 223 280 339 406
#     4  10  22  41  65  94 134 174 222 285 343 407
#     4  10  20  38  65  93 131 177 225 276 344 402
#     4  10  20  38  63  94 134 175 225 279 335 404
#     4  10  21  39  65  95 132 177 226 274 343 403
#
# _framework density 24.734805999999999
#
# number of rings (size 3 to 8) (size 9 to 14) (size 15 to 20)
#    0.000    2.000    2.000    1.200    0.000    1.600 
#    0.000   16.000    0.000    0.000    0.000    0.000 
#    0.000    0.000    0.000    0.000    0.000    0.000 
#
# Total GULP energy -111862.403821 kJ/mol
# GULP energy per Si atom -5593.120191 kJ/mol
# Density = 2.467851 g / cm^3
# Si number density = 24.734806 Si / 1000 Ang^3
#
#
#
# Elastic Constant Matrix: (Units=GPa)
#
#
# Indices 1 2 3 4 5 6 
#
# 1 184.2241 10.9656 104.0463 0.0001 8.8747 0.0003
# 2 10.9656 116.5085 25.0313 0.0003 13.9763 0.0005
# 3 104.0463 25.0313 226.6398 0.0000 15.5246 0.0001
# 4 0.0001 0.0003 0.0000 38.0080 0.0000 6.2162
# 5 8.8747 13.9763 15.5246 0.0000 68.7943 0.0001
# 6 0.0003 0.0005 0.0001 6.2162 0.0001 -2.6779
#
#
#
# Elastic Compliance Matrix: (Units=1/GPa)
#
#
# Indices 1 2 3 4 5 6 
#
# 1 0.007331 0.000055 -0.003358 0.000000 -0.000199 0.000000
# 2 0.000055 0.008967 -0.000904 0.000000 -0.001625 0.000001
# 3 -0.003358 -0.000904 0.006106 0.000000 -0.000761 0.000000
# 4 0.000000 0.000000 0.000000 0.019070 0.000000 0.044267
# 5 -0.000199 -0.001625 -0.000761 0.000000 0.015064 0.000000
# 6 0.000000 0.000001 0.000000 0.044267 0.000000 -0.270665
#
#
# Mechanical properties :
#
#
# Convention : Reuss Voigt Hill
#
# Bulk Modulus (GPa) = 71.48099 89.71766 80.59932
# Shear Modulus (GPa) = -24.86950 46.64684 10.88867
#
# Velocity S-wave (km/s) = -3.17432 4.34738 2.10041
# Velocity P-wave (km/s) = 3.94039 7.84539 6.20793
#
# Compressibility (1/GPa) = 0.01398973
#
# Stress axis : x y z
#
# Youngs Moduli (GPa) = 136.40685 111.51894 163.77572
#
# Poissons Ratio (x) = -0.00617 0.54996
# Poissons Ratio (y) = -0.00755 0.14813
# Poissons Ratio (z) = 0.45806 0.10087
#
# Static dielectric constant tensor:
#      x y z
#    x 1.973270 0.000000 -0.082270 
#    y 0.000000 2.109380 0.000000 
#    z -0.082270 0.000000 1.949390 
# 
# From -- ./inp_files/150541.got.cif
#   From: 2010.05.17/outbox.cif.g08.bks.cpg/sg15_76_cif.got.tgz:150541.got - 2010.06.03 18:47:42.
