data_PCOD9274050
_publ_section_title
;
Structure prediction by ZEFSAII (Michael W. Deem and Ramdas Pophale) SiO2 
 PCOD9274050
Probable space group: C 2/C
;
_chemical_formula_sum "Si O2"
_cell_formula_units_Z 56
_cell_length_a 23.572846
_cell_length_b 14.250372
_cell_length_c 15.078998
_cell_angle_alpha 90.000000
_cell_angle_beta 28.752952
_cell_angle_gamma 90.000000
_cell_volume 2436.612249
_symmetry_space_group_name_H-M "C 2/C"
_symmetry_group_IT_number 15
_symmetry_cell_setting 'monoclinic'
loop_
_space_group_symop_operation_xyz
x,y,z
-x,y,1/2-z
-x,-y,-z
x,-y,1/2+z
1/2+x,1/2+y,z
1/2-x,1/2+y,1/2-z
1/2-x,1/2-y,-z
1/2+x,1/2-y,1/2+z
loop_
_atom_site_type_symbol
_atom_site_label
_atom_site_fract_x
_atom_site_fract_y
_atom_site_fract_z
Si Si1 0.440462 0.100661 0.692726
Si Si2 0.703828 0.604612 0.128614
Si Si3 0.015790 0.208767 0.130281
Si Si4 0.956027 0.061066 0.646871
Si Si5 0.387819 0.059186 0.573497
Si Si6 0.209607 0.187825 0.730906
Si Si7 0.214168 0.105101 0.327571
O O1 0.527718 0.179636 0.610096
O O2 0.424934 0.118428 0.608697
O O3 0.502381 0.999577 0.614737
O O4 0.321328 0.112431 0.910922
O O5 0.606746 0.685379 0.249340
O O6 0.636697 0.511521 0.185988
O O7 0.725899 0.604179 0.203655
O O8 0.000000 0.173382 0.250000
O O9 0.129673 0.167922 0.927601
O O10 0.879452 0.151524 0.722778
O O11 0.075264 0.086496 0.534239
O O12 0.000000 0.000000 0.500000
O O13 0.321937 0.120876 0.590357
O O14 0.298275 0.981208 0.737092
O O15 0.246192 0.296458 0.683793
#
# Coordination Sequence:
#
# PCOD9274050 Si02
#       7
#     8   8   8   8   8   8   8
#     4  11  25  38  59  95 130 159 210 260 322 382
#     4  11  21  41  61  92 132 163 208 267 313 392
#     4  12  22  36  61  99 132 160 199 261 339 387
#     4  10  20  38  61  86 119 169 214 243 304 380
#     4  11  23  40  60  91 123 174 209 254 319 378
#     4  12  21  37  62  89 124 164 208 258 310 378
#     4  11  21  39  66  91 124 165 217 260 319 368
#
# _framework density 22.982728000000002
#
# number of rings (size 3 to 8) (size 9 to 14) (size 15 to 20)
#    0.000    0.857    7.143    3.000    0.000    0.000 
#    0.000    0.000    0.000    5.143    0.000    0.000 
#    0.000    0.000    0.000    0.000    0.000    0.000 
#
# Total GULP energy -156508.649501 kJ/mol
# GULP energy per Si atom -5589.594625 kJ/mol
# Density = 2.293042 g / cm^3
# Si number density = 22.982728 Si / 1000 Ang^3
#
#
#
# Elastic Constant Matrix: (Units=GPa)
#
#
# Indices 1 2 3 4 5 6 
#
# 1 37.9980 5.7359 6.3249 0.0000 -18.0081 0.0000
# 2 5.7359 99.4969 2.6891 0.0000 -17.7719 0.0000
# 3 6.3249 2.6891 42.3706 0.0000 -22.0678 0.0000
# 4 0.0000 0.0000 0.0000 33.1392 0.0000 -14.2272
# 5 -18.0081 -17.7719 -22.0678 0.0000 31.3716 0.0000
# 6 0.0000 0.0000 0.0000 -14.2272 0.0000 37.0883
#
#
#
# Elastic Compliance Matrix: (Units=1/GPa)
#
#
# Indices 1 2 3 4 5 6 
#
# 1 0.039022 0.003084 0.010346 0.000000 0.031424 0.000000
# 2 0.003084 0.011893 0.005075 0.000000 0.012077 0.000000
# 3 0.010346 0.005075 0.041546 0.000000 0.038039 0.000000
# 4 0.000000 0.000000 0.000000 0.036125 0.000000 0.013858
# 5 0.031424 0.012077 0.038039 0.000000 0.083513 0.000000
# 6 0.000000 0.000000 0.000000 0.013858 0.000000 0.032279
#
#
# Mechanical properties :
#
#
# Convention : Reuss Voigt Hill
#
# Bulk Modulus (GPa) = 7.72378 23.26281 15.49330
# Shear Modulus (GPa) = 19.95800 31.32753 25.64276
#
# Velocity S-wave (km/s) = 2.95004 3.69601 3.34389
# Velocity P-wave (km/s) = 3.86932 5.32521 4.65454
#
# Compressibility (1/GPa) = 0.12947022
#
# Stress axis : x y z
#
# Youngs Moduli (GPa) = 25.62653 84.08424 24.06947
#
# Poissons Ratio (x) = -0.25929 -0.24902
# Poissons Ratio (y) = -0.07902 -0.12215
# Poissons Ratio (z) = -0.26513 -0.42673
#
# Static dielectric constant tensor:
#      x y z
#    x 1.899090 0.000000 -0.039270 
#    y 0.000000 1.899810 0.000000 
#    z -0.039270 0.000000 1.854450 
# 
# From -- ./inp_files/173803.got.cif
#   From: 2010.05.17/outbox.cif.g08.bks.cpg/sg15_87_cif.got.tgz:173803.got - 2010.06.03 18:47:42.
