data_PCOD9274071
_publ_section_title
;
Structure prediction by ZEFSAII (Michael W. Deem and Ramdas Pophale) SiO2 
 PCOD9274071
Probable space group: C 2/C
;
_chemical_formula_sum "Si O2"
_cell_formula_units_Z 52
_cell_length_a 5.101128
_cell_length_b 21.752769
_cell_length_c 23.035199
_cell_angle_alpha 90.000000
_cell_angle_beta 105.430114
_cell_angle_gamma 90.000000
_cell_volume 2463.938209
_symmetry_space_group_name_H-M "C 2/C"
_symmetry_group_IT_number 15
_symmetry_cell_setting 'monoclinic'
loop_
_space_group_symop_operation_xyz
x,y,z
-x,y,1/2-z
-x,-y,-z
x,-y,1/2+z
1/2+x,1/2+y,z
1/2-x,1/2+y,1/2-z
1/2-x,1/2-y,-z
1/2+x,1/2-y,1/2+z
loop_
_atom_site_type_symbol
_atom_site_label
_atom_site_fract_x
_atom_site_fract_y
_atom_site_fract_z
Si Si1 0.000000 0.912449 0.750000
Si Si2 0.946278 0.250828 0.955627
Si Si3 0.918509 0.449453 0.096145
Si Si4 0.645602 0.428388 0.560351
Si Si5 0.088838 0.877980 0.428575
Si Si6 0.277826 0.031343 0.773093
Si Si7 0.291949 0.124768 0.380831
O O1 0.129748 0.875883 0.810666
O O2 0.214795 0.964571 0.740764
O O3 0.839008 0.309177 0.913303
O O4 0.976827 0.190894 0.916762
O O5 0.750000 0.250000 0.000000
O O6 0.250000 0.250000 0.000000
O O7 0.769589 0.504247 0.052278
O O8 0.655007 0.419369 0.110642
O O9 0.112675 0.399853 0.075415
O O10 0.118375 0.477210 0.156163
O O11 0.592933 0.392421 0.497790
O O12 0.380127 0.419394 0.584969
O O13 0.900183 0.398474 0.608692
O O14 0.500000 0.065359 0.750000
O O15 0.000000 0.066765 0.750000
#
# Coordination Sequence:
#
# PCOD9274071 Si02
#       7
#     4   8   8   8   8   8   8
#     4  10  24  38  68  94 126 156 226 266 334 378
#     4  12  23  45  66  90 129 177 221 266 326 394
#     4  12  23  38  61  96 130 167 209 273 329 399
#     4  12  22  40  61  98 133 165 205 267 340 387
#     4  12  24  38  62  93 132 172 216 256 325 414
#     4  10  20  38  61  87 124 166 206 256 328 391
#     4  12  23  40  70  95 127 168 222 280 325 394
#
# _framework density 21.104424000000002
#
# number of rings (size 3 to 8) (size 9 to 14) (size 15 to 20)
#    0.462    0.000    4.615    5.538    0.000    0.000 
#    0.000    0.000    5.077    0.000    0.000    0.000 
#    0.000    0.000    0.000    0.000    0.000    0.000 
#
# Total GULP energy -144842.064053 kJ/mol
# GULP energy per Si atom -5570.848617 kJ/mol
# Density = 2.105639 g / cm^3
# Si number density = 21.104424 Si / 1000 Ang^3
#
#
#
# Elastic Constant Matrix: (Units=GPa)
#
#
# Indices 1 2 3 4 5 6 
#
# 1 147.2795 16.4338 8.4025 0.0000 10.7470 0.0000
# 2 16.4338 88.3249 -4.0613 0.0000 4.1049 0.0000
# 3 8.4025 -4.0613 76.3811 0.0000 23.3203 0.0000
# 4 0.0000 0.0000 0.0000 25.8179 0.0000 3.1917
# 5 10.7470 4.1049 23.3203 0.0000 33.4673 0.0000
# 6 0.0000 0.0000 0.0000 3.1917 0.0000 28.6372
#
#
#
# Elastic Compliance Matrix: (Units=1/GPa)
#
#
# Indices 1 2 3 4 5 6 
#
# 1 0.007085 -0.001239 -0.000250 0.000000 -0.001949 0.000000
# 2 -0.001239 0.011708 0.001366 0.000000 -0.001990 0.000000
# 3 -0.000250 0.001366 0.016791 0.000000 -0.011788 0.000000
# 4 0.000000 0.000000 0.000000 0.039274 0.000000 -0.004377
# 5 -0.001949 -0.001990 -0.011788 0.000000 0.038964 0.000000
# 6 0.000000 0.000000 0.000000 -0.004377 0.000000 0.035407
#
#
# Mechanical properties :
#
#
# Convention : Reuss Voigt Hill
#
# Bulk Modulus (GPa) = 28.29828 39.28173 33.79001
# Shear Modulus (GPa) = 31.00703 36.99850 34.00276
#
# Velocity S-wave (km/s) = 3.83720 4.19157 4.01829
# Velocity P-wave (km/s) = 5.75065 6.48684 6.12980
#
# Compressibility (1/GPa) = 0.03533783
#
# Stress axis : x y z
#
# Youngs Moduli (GPa) = 141.15238 85.41376 59.55434
#
# Poissons Ratio (x) = 0.10584 0.01491
# Poissons Ratio (y) = 0.17490 -0.08138
# Poissons Ratio (z) = 0.03533 -0.11672
#
# Static dielectric constant tensor:
#      x y z
#    x 1.847360 0.000000 0.029830 
#    y 0.000000 1.824830 0.000000 
#    z 0.029830 0.000000 1.804950 
# 
# From -- ./inp_files/261232.got.cif
#   From: 2010.05.17/outbox.cif.g08.bks.cpg/sg15_131_cif.got.tgz:261232.got - 2010.06.03 18:47:42.
