data_PCOD9274802
_publ_section_title
;
Structure prediction by ZEFSAII (Michael W. Deem and Ramdas Pophale) SiO2 
 PCOD9274802
Probable space group: C 2/C
;
_chemical_formula_sum "Si O2"
_cell_formula_units_Z 56
_cell_length_a 11.251994
_cell_length_b 32.003058
_cell_length_c 8.968629
_cell_angle_alpha 90.000000
_cell_angle_beta 119.829479
_cell_angle_gamma 90.000000
_cell_volume 2801.698132
_symmetry_space_group_name_H-M "C 2/C"
_symmetry_group_IT_number 15
_symmetry_cell_setting 'monoclinic'
loop_
_space_group_symop_operation_xyz
x,y,z
-x,y,1/2-z
-x,-y,-z
x,-y,1/2+z
1/2+x,1/2+y,z
1/2-x,1/2+y,1/2-z
1/2-x,1/2-y,-z
1/2+x,1/2-y,1/2+z
loop_
_atom_site_type_symbol
_atom_site_label
_atom_site_fract_x
_atom_site_fract_y
_atom_site_fract_z
Si Si1 0.000000 0.079635 0.750000
Si Si2 0.814104 0.103612 0.383176
Si Si3 0.235084 0.049870 0.723289
Si Si4 0.659877 0.024065 0.390413
Si Si5 0.433445 0.835680 0.850127
Si Si6 0.000000 0.144722 0.250000
Si Si7 0.621116 0.865078 0.211243
Si Si8 0.759129 0.299571 0.006475
O O1 0.078653 0.050805 0.679977
O O2 0.892355 0.106846 0.589930
O O3 0.746622 0.057705 0.348115
O O4 0.686809 0.134464 0.282776
O O5 0.923152 0.115711 0.323484
O O6 0.271302 0.097797 0.712145
O O7 0.277589 0.020648 0.614300
O O8 0.318640 0.034908 0.922381
O O9 0.500000 0.025761 0.250000
O O10 0.500000 0.813062 0.750000
O O11 0.552948 0.861480 0.007416
O O12 0.364116 0.809511 0.937648
O O13 0.117843 0.175476 0.387961
O O14 0.500000 0.876532 0.250000
O O15 0.680510 0.821170 0.307010
O O16 0.750000 0.250000 0.000000
#
# Coordination Sequence:
#
# PCOD9274802 Si02
#       8
#     4   8   8   8   8   4   8   8
#     4  10  22  37  56  78 124 162 208 258 312 377
#     4  10  21  38  59  89 119 165 205 254 316 366
#     4  11  23  37  56  86 121 165 211 257 315 361
#     4  11  23  37  59  86 123 163 213 270 302 366
#     4  10  20  38  65  93 122 158 206 260 313 376
#     4  10  22  37  64  90 122 158 212 252 306 395
#     4  10  21  39  64  89 121 166 205 259 317 377
#     4  10  23  40  66  91 123 165 203 258 317 384
#
# _framework density 19.987879
#
# number of rings (size 3 to 8) (size 9 to 14) (size 15 to 20)
#    0.000    1.714    0.000    4.714    3.000    7.429 
#    0.000    0.714    9.429    0.000    0.000    0.000 
#    0.000    0.000    0.000    0.000    0.000    0.000 
#
# Total GULP energy -156294.072822 kJ/mol
# GULP energy per Si atom -5581.931172 kJ/mol
# Density = 1.994239 g / cm^3
# Si number density = 19.987879 Si / 1000 Ang^3
#
#
#
# Elastic Constant Matrix: (Units=GPa)
#
#
# Indices 1 2 3 4 5 6 
#
# 1 90.4153 29.3133 16.8547 0.0000 -0.6729 0.0000
# 2 29.3133 105.3467 20.0435 0.0000 -1.6955 0.0000
# 3 16.8547 20.0435 78.0002 0.0000 6.8240 0.0000
# 4 0.0000 0.0000 0.0000 15.1869 0.0000 -2.0950
# 5 -0.6729 -1.6955 6.8240 0.0000 32.7689 0.0000
# 6 0.0000 0.0000 0.0000 -2.0950 0.0000 14.7331
#
#
#
# Elastic Compliance Matrix: (Units=1/GPa)
#
#
# Indices 1 2 3 4 5 6 
#
# 1 0.012423 -0.003080 -0.001937 0.000000 0.000499 0.000000
# 2 -0.003080 0.010781 -0.002188 0.000000 0.000950 0.000000
# 3 -0.001937 -0.002188 0.014071 0.000000 -0.003083 0.000000
# 4 0.000000 0.000000 0.000000 0.067164 0.000000 0.009551
# 5 0.000499 0.000950 -0.003083 0.000000 0.031218 0.000000
# 6 0.000000 0.000000 0.000000 0.009551 0.000000 0.069233
#
#
# Mechanical properties :
#
#
# Convention : Reuss Voigt Hill
#
# Bulk Modulus (GPa) = 43.73361 45.13168 44.43264
# Shear Modulus (GPa) = 22.03401 26.37449 24.20425
#
# Velocity S-wave (km/s) = 3.32380 3.63647 3.48364
# Velocity P-wave (km/s) = 6.05456 6.34511 6.20154
#
# Compressibility (1/GPa) = 0.02286571
#
# Stress axis : x y z
#
# Youngs Moduli (GPa) = 80.49268 92.75423 71.06856
#
# Poissons Ratio (x) = 0.28572 0.13763
# Poissons Ratio (y) = 0.24795 0.15549
# Poissons Ratio (z) = 0.15588 0.20294
#
# Static dielectric constant tensor:
#      x y z
#    x 1.725920 0.000000 0.010900 
#    y 0.000000 1.675180 0.000000 
#    z 0.010900 0.000000 1.739380 
# 
# From -- ./inp_files/35815.got.cif
#   From: 2010.05.17/outbox.cif.g08.bks.cpg/sg15_18_cif.got.tgz:35815.got - 2010.06.03 18:47:42.
