data_PCOD9274488
_publ_section_title
;
Structure prediction by ZEFSAII (Michael W. Deem and Ramdas Pophale) SiO2 
 PCOD9274488
Probable space group: C 2/C
;
_chemical_formula_sum "Si O2"
_cell_formula_units_Z 32
_cell_length_a 6.926257
_cell_length_b 13.210857
_cell_length_c 20.205118
_cell_angle_alpha 90.000000
_cell_angle_beta 45.285507
_cell_angle_gamma 90.000000
_cell_volume 1313.800263
_symmetry_space_group_name_H-M "C 2/C"
_symmetry_group_IT_number 15
_symmetry_cell_setting 'monoclinic'
loop_
_space_group_symop_operation_xyz
x,y,z
-x,y,1/2-z
-x,-y,-z
x,-y,1/2+z
1/2+x,1/2+y,z
1/2-x,1/2+y,1/2-z
1/2-x,1/2-y,-z
1/2+x,1/2-y,1/2+z
loop_
_atom_site_type_symbol
_atom_site_label
_atom_site_fract_x
_atom_site_fract_y
_atom_site_fract_z
Si Si1 0.566356 0.867145 0.081246
Si Si2 0.527345 0.699074 0.910765
Si Si3 0.105059 0.154045 0.122835
Si Si4 0.767388 0.040843 0.731582
O O1 0.475299 0.750018 0.114520
O O2 0.346542 0.938852 0.167824
O O3 0.841587 0.867265 0.060676
O O4 0.662818 0.885640 0.983990
O O5 0.740911 0.791380 0.854063
O O6 0.539149 0.629655 0.843615
O O7 0.250000 0.750000 0.000000
O O8 0.904696 0.066147 0.188808
O O9 0.500000 0.048060 0.750000
#
# Coordination Sequence:
#
# PCOD9274488 Si02
#       4
#     8   8   8   8
#     4   8  19  41  57  90 125 160 218 253 308 384
#     4   9  19  37  61  85 125 162 206 260 309 372
#     4   9  19  40  63  86 124 167 210 260 308 378
#     4  10  20  38  63  93 127 167 214 258 325 369
#
# _framework density 24.356821
#
# number of rings (size 3 to 8) (size 9 to 14) (size 15 to 20)
#    1.500    1.500    0.000    0.000    0.000    5.000 
#    9.000    1.250    0.000    0.000    0.000    0.000 
#    0.000    0.000    0.000    0.000    0.000    0.000 
#
# Total GULP energy -89387.638348 kJ/mol
# GULP energy per Si atom -5586.727397 kJ/mol
# Density = 2.430138 g / cm^3
# Si number density = 24.356821 Si / 1000 Ang^3
#
#
#
# Elastic Constant Matrix: (Units=GPa)
#
#
# Indices 1 2 3 4 5 6 
#
# 1 71.1684 11.6901 11.5828 -0.0007 3.0747 0.0003
# 2 11.6901 95.8639 79.8280 0.0009 -3.0369 -0.0012
# 3 11.5828 79.8280 123.1579 -0.0022 -7.7279 0.0003
# 4 -0.0007 0.0009 -0.0022 64.5391 0.0003 -12.0163
# 5 3.0747 -3.0369 -7.7279 0.0003 25.4557 -0.0003
# 6 0.0003 -0.0012 0.0003 -12.0163 -0.0003 28.8239
#
#
#
# Elastic Compliance Matrix: (Units=1/GPa)
#
#
# Indices 1 2 3 4 5 6 
#
# 1 0.014460 -0.001277 -0.000664 0.000000 -0.002100 0.000000
# 2 -0.001277 0.022858 -0.014797 -0.000001 -0.001611 0.000001
# 3 -0.000664 -0.014797 0.018010 0.000001 0.003783 0.000000
# 4 0.000000 -0.000001 0.000001 0.016798 0.000000 0.007003
# 5 -0.002100 -0.001611 0.003783 0.000000 0.040494 0.000000
# 6 0.000000 0.000001 0.000000 0.007003 0.000000 0.037613
#
#
# Mechanical properties :
#
#
# Convention : Reuss Voigt Hill
#
# Bulk Modulus (GPa) = 45.76157 55.15466 50.45811
# Shear Modulus (GPa) = 26.17898 36.23635 31.20767
#
# Velocity S-wave (km/s) = 3.28199 3.86129 3.58337
# Velocity P-wave (km/s) = 5.76114 6.52480 6.15483
#
# Compressibility (1/GPa) = 0.02185240
#
# Stress axis : x y z
#
# Youngs Moduli (GPa) = 69.15752 43.74867 55.52322
#
# Poissons Ratio (x) = 0.05586 0.03687
# Poissons Ratio (y) = 0.08830 0.82157
# Poissons Ratio (z) = 0.04593 0.64735
#
# Static dielectric constant tensor:
#      x y z
#    x 2.042170 0.000000 -0.011360 
#    y 0.000000 1.911080 0.000000 
#    z -0.011360 0.000000 1.923220 
# 
# From -- ./inp_files/178073.got.cif
#   From: 2010.05.17/outbox.cif.g08.bks.cpg/sg15_90_cif.got.tgz:178073.got - 2010.06.03 18:47:42.
