data_PCOD9274917
_publ_section_title
;
Structure prediction by ZEFSAII (Michael W. Deem and Ramdas Pophale) SiO2 
 PCOD9274917
Probable space group: C 2/C
;
_chemical_formula_sum "Si O2"
_cell_formula_units_Z 56
_cell_length_a 19.560801
_cell_length_b 13.044799
_cell_length_c 12.700756
_cell_angle_alpha 90.000000
_cell_angle_beta 118.307010
_cell_angle_gamma 90.000000
_cell_volume 2853.272002
_symmetry_space_group_name_H-M "C 2/C"
_symmetry_group_IT_number 15
_symmetry_cell_setting 'monoclinic'
loop_
_space_group_symop_operation_xyz
x,y,z
-x,y,1/2-z
-x,-y,-z
x,-y,1/2+z
1/2+x,1/2+y,z
1/2-x,1/2+y,1/2-z
1/2-x,1/2-y,-z
1/2+x,1/2-y,1/2+z
loop_
_atom_site_type_symbol
_atom_site_label
_atom_site_fract_x
_atom_site_fract_y
_atom_site_fract_z
Si Si1 0.158922 0.965198 0.345301
Si Si2 0.408328 0.682437 0.170142
Si Si3 0.270690 0.873585 0.598346
Si Si4 0.692334 0.236891 0.712472
Si Si5 0.580599 0.255914 0.254321
Si Si6 0.703167 0.006533 0.691559
Si Si7 0.142548 0.703685 0.076315
O O1 0.226265 0.916590 0.466667
O O2 0.096877 0.876928 0.278365
O O3 0.206295 0.993860 0.275044
O O4 0.124051 0.067392 0.369558
O O5 0.500000 0.679090 0.250000
O O6 0.369745 0.723357 0.249523
O O7 0.385744 0.753427 0.054854
O O8 0.209858 0.809100 0.625467
O O9 0.345745 0.801748 0.638545
O O10 0.300807 0.966780 0.692223
O O11 0.673840 0.121893 0.663164
O O12 0.775854 0.241230 0.833607
O O13 0.500000 0.228037 0.250000
O O14 0.586543 0.227518 0.134729
O O15 0.661163 0.918098 0.592727
#
# Coordination Sequence:
#
# PCOD9274917 Si02
#       7
#     8   8   8   8   8   8   8
#     4  12  21  38  66  95 123 167 217 253 312 374
#     4  12  26  41  62  97 130 160 204 265 327 366
#     4  10  22  37  65  93 123 171 214 255 299 378
#     4  10  20  41  64  91 128 161 215 251 302 383
#     4  10  22  41  61  94 133 161 207 264 319 361
#     4  10  20  38  66  93 116 160 227 249 299 365
#     4  10  22  42  64  90 125 174 206 255 307 378
#
# _framework density 19.626591000000001
#
# number of rings (size 3 to 8) (size 9 to 14) (size 15 to 20)
#    0.000    1.714    5.714    2.143    2.000    1.143 
#    0.000    5.714    0.000    0.000    0.000    0.000 
#    0.000    0.000    0.000    0.000    0.000    0.000 
#
# Total GULP energy -156327.931949 kJ/mol
# GULP energy per Si atom -5583.140427 kJ/mol
# Density = 1.958192 g / cm^3
# Si number density = 19.626591 Si / 1000 Ang^3
#
#
#
# Elastic Constant Matrix: (Units=GPa)
#
#
# Indices 1 2 3 4 5 6 
#
# 1 157.7514 45.5084 29.0701 0.0000 0.4485 0.0000
# 2 45.5084 137.9474 33.0824 0.0000 -2.8501 0.0000
# 3 29.0701 33.0824 47.4891 0.0000 -0.7725 0.0000
# 4 0.0000 0.0000 0.0000 19.2285 0.0000 1.5969
# 5 0.4485 -2.8501 -0.7725 0.0000 7.2484 0.0000
# 6 0.0000 0.0000 0.0000 1.5969 0.0000 15.7685
#
#
#
# Elastic Compliance Matrix: (Units=1/GPa)
#
#
# Indices 1 2 3 4 5 6 
#
# 1 0.007456 -0.001669 -0.003426 0.000000 -0.001483 0.000000
# 2 -0.001669 0.009133 -0.005290 0.000000 0.003131 0.000000
# 3 -0.003426 -0.005290 0.026856 0.000000 0.000994 0.000000
# 4 0.000000 0.000000 0.000000 0.052447 0.000000 -0.005311
# 5 -0.001483 0.003131 0.000994 0.000000 0.139390 0.000000
# 6 0.000000 0.000000 0.000000 -0.005311 0.000000 0.063956
#
#
# Mechanical properties :
#
#
# Convention : Reuss Voigt Hill
#
# Bulk Modulus (GPa) = 44.09951 62.05665 53.07808
# Shear Modulus (GPa) = 15.26415 24.15087 19.70751
#
# Velocity S-wave (km/s) = 2.79180 3.51168 3.17223
# Velocity P-wave (km/s) = 5.73675 6.93757 6.36554
#
# Compressibility (1/GPa) = 0.02267599
#
# Stress axis : x y z
#
# Youngs Moduli (GPa) = 134.12009 109.49362 37.23596
#
# Poissons Ratio (x) = 0.18272 0.12756
# Poissons Ratio (y) = 0.22382 0.19697
# Poissons Ratio (z) = 0.45946 0.57920
#
# Static dielectric constant tensor:
#      x y z
#    x 1.687190 0.000000 -0.029440 
#    y 0.000000 1.709220 0.000000 
#    z -0.029440 0.000000 1.685830 
# 
# From -- ./inp_files/161422.got.cif
#   From: 2010.05.17/outbox.cif.g08.bks.cpg/sg15_81_cif.got.tgz:161422.got - 2010.06.03 18:47:42.
