data_PCOD9274188
_publ_section_title
;
Structure prediction by ZEFSAII (Michael W. Deem and Ramdas Pophale) SiO2 
 PCOD9274188
Probable space group: C 2/C
;
_chemical_formula_sum "Si O2"
_cell_formula_units_Z 60
_cell_length_a 12.309575
_cell_length_b 31.515951
_cell_length_c 7.675656
_cell_angle_alpha 90.000000
_cell_angle_beta 89.538253
_cell_angle_gamma 90.000000
_cell_volume 2977.658408
_symmetry_space_group_name_H-M "C 2/C"
_symmetry_group_IT_number 15
_symmetry_cell_setting 'monoclinic'
loop_
_space_group_symop_operation_xyz
x,y,z
-x,y,1/2-z
-x,-y,-z
x,-y,1/2+z
1/2+x,1/2+y,z
1/2-x,1/2+y,1/2-z
1/2-x,1/2-y,-z
1/2+x,1/2-y,1/2+z
loop_
_atom_site_type_symbol
_atom_site_label
_atom_site_fract_x
_atom_site_fract_y
_atom_site_fract_z
Si Si1 0.614481 0.355363 0.639887
Si Si2 0.544254 0.199401 0.490476
Si Si3 0.359052 0.532860 0.080994
Si Si4 0.000000 0.622589 0.250000
Si Si5 0.284711 0.109667 0.422513
Si Si6 0.404209 0.445759 0.983830
Si Si7 0.612271 0.712660 0.838208
Si Si8 0.172817 0.689059 0.845580
O O1 0.500000 0.353539 0.750000
O O2 0.707064 0.365669 0.783067
O O3 0.613582 0.395660 0.506818
O O4 0.630667 0.314542 0.516121
O O5 0.547988 0.155420 0.389358
O O6 0.597486 0.238610 0.392388
O O7 0.607983 0.191167 0.666431
O O8 0.416225 0.209868 0.523971
O O9 0.271421 0.566349 0.018512
O O10 0.470416 0.543368 0.976907
O O11 0.383027 0.545072 0.279916
O O12 0.335780 0.482789 0.075996
O O13 0.898905 0.598390 0.331293
O O14 0.307145 0.142428 0.577249
O O15 0.500000 0.697876 0.750000
O O16 0.710676 0.708239 0.701156
#
# Coordination Sequence:
#
# PCOD9274188 Si02
#       8
#     8   8   8   4   8   8   8   8
#     4  11  21  38  57  84 123 156 192 246 304 360
#     4  10  22  44  58  84 116 159 213 250 302 351
#     4   9  17  32  55  84 112 152 187 229 284 363
#     4  10  20  40  62  80 114 164 204 254 294 348
#     4  10  20  38  62  85 118 156 203 243 302 353
#     4   9  17  33  53  82 117 150 184 226 296 360
#     4  12  25  38  57  89 118 156 208 252 305 354
#     4  10  23  40  60  84 117 158 201 254 298 354
#
# _framework density 20.150061999999998
#
# number of rings (size 3 to 8) (size 9 to 14) (size 15 to 20)
#    0.000    1.867    3.333    2.000    1.867    1.600 
#    2.400    0.000    0.000    3.200    0.000    3.733 
#    0.000    0.000    0.000    0.000    0.000    0.000 
#
# Total GULP energy -167321.497234 kJ/mol
# GULP energy per Si atom -5577.383241 kJ/mol
# Density = 2.010420 g / cm^3
# Si number density = 20.150062 Si / 1000 Ang^3
#
#
#
# Elastic Constant Matrix: (Units=GPa)
#
#
# Indices 1 2 3 4 5 6 
#
# 1 116.4144 45.0282 18.7921 0.0000 -22.5610 0.0000
# 2 45.0282 64.5561 17.3893 0.0000 -4.5625 0.0000
# 3 18.7921 17.3893 36.0637 0.0000 -3.1314 0.0000
# 4 0.0000 0.0000 0.0000 28.9679 0.0000 7.8907
# 5 -22.5610 -4.5625 -3.1314 0.0000 22.5076 0.0000
# 6 0.0000 0.0000 0.0000 7.8907 0.0000 10.8106
#
#
#
# Elastic Compliance Matrix: (Units=1/GPa)
#
#
# Indices 1 2 3 4 5 6 
#
# 1 0.014864 -0.008823 -0.002381 0.000000 0.012779 0.000000
# 2 -0.008823 0.023174 -0.007021 0.000000 -0.005123 0.000000
# 3 -0.002381 -0.007021 0.032416 0.000000 0.000700 0.000000
# 4 0.000000 0.000000 0.000000 0.043088 0.000000 -0.031450
# 5 0.012779 -0.005123 0.000700 0.000000 0.056298 0.000000
# 6 0.000000 0.000000 0.000000 -0.031450 0.000000 0.115457
#
#
# Mechanical properties :
#
#
# Convention : Reuss Voigt Hill
#
# Bulk Modulus (GPa) = 29.40993 42.16149 35.78571
# Shear Modulus (GPa) = 15.01138 21.51220 18.26179
#
# Velocity S-wave (km/s) = 2.73239 3.27096 3.01373
# Velocity P-wave (km/s) = 4.95800 5.93589 5.46884
#
# Compressibility (1/GPa) = 0.03400212
#
# Stress axis : x y z
#
# Youngs Moduli (GPa) = 67.27851 43.15254 30.84902
#
# Poissons Ratio (x) = 0.38073 0.07346
# Poissons Ratio (y) = 0.59359 0.21660
# Poissons Ratio (z) = 0.16021 0.30299
#
# Static dielectric constant tensor:
#      x y z
#    x 1.747710 0.000000 -0.013940 
#    y 0.000000 1.731340 0.000000 
#    z -0.013940 0.000000 1.748250 
# 
# From -- ./inp_files/35247.got.cif
#   From: 2010.05.17/outbox.cif.g08.bks.cpg/sg15_18_cif.got.tgz:35247.got - 2010.06.03 18:47:42.
