data_PCOD9274082
_publ_section_title
;
Structure prediction by ZEFSAII (Michael W. Deem and Ramdas Pophale) SiO2 
 PCOD9274082
Probable space group: C 2/C
;
_chemical_formula_sum "Si O2"
_cell_formula_units_Z 56
_cell_length_a 12.522875
_cell_length_b 15.012227
_cell_length_c 17.834092
_cell_angle_alpha 90.000000
_cell_angle_beta 129.404426
_cell_angle_gamma 90.000000
_cell_volume 2590.612123
_symmetry_space_group_name_H-M "C 2/C"
_symmetry_group_IT_number 15
_symmetry_cell_setting 'monoclinic'
loop_
_space_group_symop_operation_xyz
x,y,z
-x,y,1/2-z
-x,-y,-z
x,-y,1/2+z
1/2+x,1/2+y,z
1/2-x,1/2+y,1/2-z
1/2-x,1/2-y,-z
1/2+x,1/2-y,1/2+z
loop_
_atom_site_type_symbol
_atom_site_label
_atom_site_fract_x
_atom_site_fract_y
_atom_site_fract_z
Si Si1 0.365950 0.905189 0.234979
Si Si2 0.651551 0.635502 0.090506
Si Si3 0.111849 0.402546 0.686533
Si Si4 0.823304 0.655935 0.447886
Si Si5 0.154873 0.870406 0.017425
Si Si6 0.632469 0.842052 0.110704
Si Si7 0.701939 0.147491 0.485629
O O1 0.500000 0.869027 0.250000
O O2 0.247980 0.918906 0.121058
O O3 0.312090 0.845965 0.280402
O O4 0.406789 0.995792 0.295674
O O5 0.782806 0.630112 0.203390
O O6 0.622583 0.741204 0.078515
O O7 0.699051 0.601366 0.030455
O O8 0.503718 0.599280 0.049950
O O9 0.184767 0.383123 0.639275
O O10 0.958464 0.360996 0.611284
O O11 0.823874 0.764510 0.450599
O O12 0.713285 0.623338 0.459492
O O13 0.974594 0.625731 0.543423
O O14 0.709571 0.887087 0.074725
O O15 0.750000 0.250000 0.500000
#
# Coordination Sequence:
#
# PCOD9274082 Si02
#       7
#     8   8   8   8   8   8   8
#     4  12  23  38  59  92 126 162 205 257 321 382
#     4  10  20  38  61  89 119 162 208 252 310 367
#     4  11  23  38  60  91 125 161 204 253 321 382
#     4   9  19  39  61  91 117 155 208 262 306 363
#     4  10  21  38  64  88 123 160 209 261 306 363
#     4   9  19  36  61  90 115 156 206 260 303 363
#     4   9  19  37  61  87 117 153 203 253 302 366
#
# _framework density 21.616513000000001
#
# number of rings (size 3 to 8) (size 9 to 14) (size 15 to 20)
#    0.000    2.000    1.429    3.000    0.000    3.429 
#    2.571    2.143    3.143    0.000    0.000    0.000 
#    0.000    0.000    0.000    0.000    0.000    0.000 
#
# Total GULP energy -156102.704319 kJ/mol
# GULP energy per Si atom -5575.096583 kJ/mol
# Density = 2.156731 g / cm^3
# Si number density = 21.616513 Si / 1000 Ang^3
#
#
#
# Elastic Constant Matrix: (Units=GPa)
#
#
# Indices 1 2 3 4 5 6 
#
# 1 190.7642 26.0448 49.4212 0.0000 -26.8439 0.0000
# 2 26.0448 40.0414 13.5235 0.0000 -5.4941 0.0000
# 3 49.4212 13.5235 47.3651 0.0000 -12.1827 0.0000
# 4 0.0000 0.0000 0.0000 30.7362 0.0000 -5.7941
# 5 -26.8439 -5.4941 -12.1827 0.0000 35.6420 0.0000
# 6 0.0000 0.0000 0.0000 -5.7941 0.0000 13.1158
#
#
#
# Elastic Compliance Matrix: (Units=1/GPa)
#
#
# Indices 1 2 3 4 5 6 
#
# 1 0.007712 -0.002365 -0.006547 0.000000 0.003206 0.000000
# 2 -0.002365 0.028461 -0.005469 0.000000 0.000736 0.000000
# 3 -0.006547 -0.005469 0.030721 0.000000 0.004727 0.000000
# 4 0.000000 0.000000 0.000000 0.035491 0.000000 0.015679
# 5 0.003206 0.000736 0.004727 0.000000 0.032201 0.000000
# 6 0.000000 0.000000 0.000000 0.015679 0.000000 0.083170
#
#
# Mechanical properties :
#
#
# Convention : Reuss Voigt Hill
#
# Bulk Modulus (GPa) = 26.22470 50.68330 38.45400
# Shear Modulus (GPa) = 19.28802 28.51088 23.89945
#
# Velocity S-wave (km/s) = 2.99035 3.63566 3.32868
# Velocity P-wave (km/s) = 4.90724 6.41261 5.70975
#
# Compressibility (1/GPa) = 0.03813199
#
# Stress axis : x y z
#
# Youngs Moduli (GPa) = 129.66257 35.13627 32.55097
#
# Poissons Ratio (x) = 0.08311 0.21312
# Poissons Ratio (y) = 0.30669 0.17801
# Poissons Ratio (z) = 0.84892 0.19214
#
# Static dielectric constant tensor:
#      x y z
#    x 1.842920 0.000000 -0.051420 
#    y 0.000000 1.905190 0.000000 
#    z -0.051420 0.000000 1.824590 
# 
# From -- ./inp_files/199596.got.cif
#   From: 2010.05.17/outbox.cif.g08.bks.cpg/sg15_100_cif.got.tgz:199596.got - 2010.06.03 18:47:42.
