data_PCOD9274296
_publ_section_title
;
Structure prediction by ZEFSAII (Michael W. Deem and Ramdas Pophale) SiO2 
 PCOD9274296
Probable space group: C 2/C
;
_chemical_formula_sum "Si O2"
_cell_formula_units_Z 60
_cell_length_a 9.531132
_cell_length_b 28.301709
_cell_length_c 10.387064
_cell_angle_alpha 90.000000
_cell_angle_beta 82.999201
_cell_angle_gamma 90.000000
_cell_volume 2780.993150
_symmetry_space_group_name_H-M "C 2/C"
_symmetry_group_IT_number 15
_symmetry_cell_setting 'monoclinic'
loop_
_space_group_symop_operation_xyz
x,y,z
-x,y,1/2-z
-x,-y,-z
x,-y,1/2+z
1/2+x,1/2+y,z
1/2-x,1/2+y,1/2-z
1/2-x,1/2-y,-z
1/2+x,1/2-y,1/2+z
loop_
_atom_site_type_symbol
_atom_site_label
_atom_site_fract_x
_atom_site_fract_y
_atom_site_fract_z
Si Si1 0.371463 0.479757 0.600512
Si Si2 0.473507 0.876309 0.109993
Si Si3 0.421923 0.021392 0.890668
Si Si4 0.662850 0.389267 0.030352
Si Si5 0.000000 0.951303 0.250000
Si Si6 0.601156 0.288727 0.120270
Si Si7 0.332613 0.747868 0.280561
Si Si8 0.105421 0.293249 0.960113
O O1 0.500000 0.500000 0.500000
O O2 0.230426 0.501621 0.564811
O O3 0.350257 0.423177 0.593772
O O4 0.380875 0.509744 0.731132
O O5 0.500000 0.854018 0.250000
O O6 0.570391 0.922296 0.106268
O O7 0.313566 0.890679 0.089409
O O8 0.524551 0.841419 0.993502
O O9 0.500000 0.006798 0.750000
O O10 0.500000 0.000000 0.000000
O O11 0.551631 0.416157 0.134277
O O12 0.627209 0.333672 0.025629
O O13 0.500000 0.304600 0.250000
O O14 0.749676 0.271207 0.168431
O O15 0.509632 0.246830 0.066088
O O16 0.500000 0.737219 0.250000
O O17 0.227708 0.706053 0.338753
O O18 0.325759 0.781162 0.408518
#
# Coordination Sequence:
#
# PCOD9274296 Si02
#       8
#     8   8   8   8   4   8   8   8
#     4  10  23  39  65  96 133 169 217 278 344 395
#     4  11  22  38  69  97 126 171 227 268 329 400
#     4  11  23  44  71 101 134 176 226 283 339 405
#     4  11  20  37  64  97 121 171 224 266 333 401
#     4  10  20  38  62  90 136 166 208 282 326 404
#     4  10  21  39  67  90 125 171 218 272 328 390
#     4  10  21  39  63  91 126 166 213 270 333 383
#     4  10  22  40  63  94 130 166 216 278 324 391
#
# _framework density 21.575026999999999
#
# number of rings (size 3 to 8) (size 9 to 14) (size 15 to 20)
#    0.000    1.600    2.000    3.600    1.867    2.133 
#    7.200    2.000    8.800    0.000    0.000    0.000 
#    0.000    0.000    0.000    0.000    0.000    0.000 
#
# Total GULP energy -167092.940645 kJ/mol
# GULP energy per Si atom -5569.764688 kJ/mol
# Density = 2.152592 g / cm^3
# Si number density = 21.575027 Si / 1000 Ang^3
#
#
#
# Elastic Constant Matrix: (Units=GPa)
#
#
# Indices 1 2 3 4 5 6 
#
# 1 134.6860 36.9183 21.2301 0.0000 -2.8929 0.0000
# 2 36.9183 88.3359 41.5701 0.0000 -15.7043 0.0000
# 3 21.2301 41.5701 52.4799 0.0000 -1.7368 0.0000
# 4 0.0000 0.0000 0.0000 3.5286 0.0000 11.5763
# 5 -2.8929 -15.7043 -1.7368 0.0000 39.5934 0.0000
# 6 0.0000 0.0000 0.0000 11.5763 0.0000 3.3868
#
#
#
# Elastic Compliance Matrix: (Units=1/GPa)
#
#
# Indices 1 2 3 4 5 6 
#
# 1 0.008435 -0.003243 -0.000867 0.000000 -0.000708 0.000000
# 2 -0.003243 0.021162 -0.015202 0.000000 0.007490 0.000000
# 3 -0.000867 -0.015202 0.031291 0.000000 -0.004721 0.000000
# 4 0.000000 0.000000 0.000000 -0.027747 0.000000 0.094841
# 5 -0.000708 0.007490 -0.004721 0.000000 0.027969 0.000000
# 6 0.000000 0.000000 0.000000 0.094841 0.000000 -0.028909
#
#
# Mechanical properties :
#
#
# Convention : Reuss Voigt Hill
#
# Bulk Modulus (GPa) = 44.91731 52.77096 48.84414
# Shear Modulus (GPa) = 63.90025 21.02064 42.46045
#
# Velocity S-wave (km/s) = 5.44812 3.12477 4.44107
# Velocity P-wave (km/s) = 7.77434 6.12628 6.99899
#
# Compressibility (1/GPa) = 0.02226313
#
# Stress axis : x y z
#
# Youngs Moduli (GPa) = 118.55227 47.25548 31.95767
#
# Poissons Ratio (x) = 0.15327 0.02770
# Poissons Ratio (y) = 0.38450 0.48584
# Poissons Ratio (z) = 0.10274 0.71840
#
# Static dielectric constant tensor:
#      x y z
#    x 1.707360 0.000000 -0.041860 
#    y 0.000000 1.810630 0.000000 
#    z -0.041860 0.000000 1.912750 
# 
# From -- ./inp_files/81347.got.cif
#   From: 2010.05.17/outbox.cif.g08.bks.cpg/sg15_41_cif.got.tgz:81347.got - 2010.06.03 18:47:42.
