data_PCOD9274134
_publ_section_title
;
Structure prediction by ZEFSAII (Michael W. Deem and Ramdas Pophale) SiO2 
 PCOD9274134
Probable space group: C 2/C
;
_chemical_formula_sum "Si O2"
_cell_formula_units_Z 48
_cell_length_a 17.173472
_cell_length_b 20.664873
_cell_length_c 10.261892
_cell_angle_alpha 90.000000
_cell_angle_beta 141.457520
_cell_angle_gamma 90.000000
_cell_volume 2269.197761
_symmetry_space_group_name_H-M "C 2/C"
_symmetry_group_IT_number 15
_symmetry_cell_setting 'monoclinic'
loop_
_space_group_symop_operation_xyz
x,y,z
-x,y,1/2-z
-x,-y,-z
x,-y,1/2+z
1/2+x,1/2+y,z
1/2-x,1/2+y,1/2-z
1/2-x,1/2-y,-z
1/2+x,1/2-y,1/2+z
loop_
_atom_site_type_symbol
_atom_site_label
_atom_site_fract_x
_atom_site_fract_y
_atom_site_fract_z
Si Si1 0.416439 0.364516 0.337961
Si Si2 0.104371 0.265600 0.779311
Si Si3 0.845222 0.920742 0.961142
Si Si4 0.105820 0.553134 0.789145
Si Si5 0.081252 0.586338 0.170753
Si Si6 0.863934 0.072791 0.026943
O O1 0.421359 0.287635 0.364913
O O2 0.556343 0.392110 0.510572
O O3 0.340582 0.396512 0.354877
O O4 0.361761 0.384672 0.123406
O O5 0.082422 0.341146 0.725678
O O6 0.000000 0.247310 0.750000
O O7 0.250000 0.250000 0.000000
O O8 0.701599 0.915359 0.732920
O O9 0.874701 0.995779 0.019836
O O10 0.110824 0.474369 0.804350
O O11 0.000000 0.576648 0.750000
O O12 0.045648 0.569541 0.569379
O O13 0.245761 0.580679 0.967884
O O14 0.000000 0.096851 0.250000
#
# Coordination Sequence:
#
# PCOD9274134 Si02
#       6
#     8   8   8   8   8   8
#     4  11  21  38  58  98 126 155 213 254 319 369
#     4  12  23  39  64  92 128 162 200 259 321 374
#     4  10  20  38  61  93 121 166 200 264 314 365
#     4  10  24  42  61  94 126 170 214 251 319 377
#     4  10  22  39  65  92 127 162 207 264 313 378
#     4  11  24  37  63  91 124 166 210 263 302 366
#
# _framework density 21.152849
#
# number of rings (size 3 to 8) (size 9 to 14) (size 15 to 20)
#    0.000    1.333    5.000    1.000    4.667    6.667 
#    0.000    0.833    0.000    2.000    0.000    0.000 
#    0.000    0.000    0.000    0.000    0.000    0.000 
#
# Total GULP energy -133791.716534 kJ/mol
# GULP energy per Si atom -5574.654856 kJ/mol
# Density = 2.110470 g / cm^3
# Si number density = 21.152849 Si / 1000 Ang^3
#
#
#
# Elastic Constant Matrix: (Units=GPa)
#
#
# Indices 1 2 3 4 5 6 
#
# 1 135.4953 25.6883 31.6726 0.0000 29.1847 0.0000
# 2 25.6883 85.4871 8.2425 0.0000 1.3272 0.0000
# 3 31.6726 8.2425 70.4306 0.0000 32.4378 0.0000
# 4 0.0000 0.0000 0.0000 16.8159 0.0000 4.1461
# 5 29.1847 1.3272 32.4378 0.0000 39.4557 0.0000
# 6 0.0000 0.0000 0.0000 4.1461 0.0000 14.2940
#
#
#
# Elastic Compliance Matrix: (Units=1/GPa)
#
#
# Indices 1 2 3 4 5 6 
#
# 1 0.009431 -0.002624 -0.001226 0.000000 -0.005880 0.000000
# 2 -0.002624 0.012596 -0.001598 0.000000 0.002831 0.000000
# 3 -0.001226 -0.001598 0.023327 0.000000 -0.018217 0.000000
# 4 0.000000 0.000000 0.000000 0.064048 0.000000 -0.018578
# 5 -0.005880 0.002831 -0.018217 0.000000 0.044576 0.000000
# 6 0.000000 0.000000 0.000000 -0.018578 0.000000 0.075348
#
#
# Mechanical properties :
#
#
# Convention : Reuss Voigt Hill
#
# Bulk Modulus (GPa) = 29.02115 46.95774 37.98944
# Shear Modulus (GPa) = 19.86426 29.16710 24.51568
#
# Velocity S-wave (km/s) = 3.06777 3.71735 3.40807
# Velocity P-wave (km/s) = 5.12814 6.37749 5.78663
#
# Compressibility (1/GPa) = 0.03445763
#
# Stress axis : x y z
#
# Youngs Moduli (GPa) = 106.03421 79.38769 42.86896
#
# Poissons Ratio (x) = 0.20835 0.05255
# Poissons Ratio (y) = 0.27828 0.06850
# Poissons Ratio (z) = 0.12999 0.12686
#
# Static dielectric constant tensor:
#      x y z
#    x 1.788830 0.000000 0.003860 
#    y 0.000000 1.751990 0.000000 
#    z 0.003860 0.000000 1.863720 
# 
# From -- ./inp_files/107380.got.cif
#   From: 2010.05.17/outbox.cif.g08.bks.cpg/sg15_54_cif.got.tgz:107380.got - 2010.06.03 18:47:42.
