data_PCOD9274389
_publ_section_title
;
Structure prediction by ZEFSAII (Michael W. Deem and Ramdas Pophale) SiO2 
 PCOD9274389
Probable space group: C 2/C
;
_chemical_formula_sum "Si O2"
_cell_formula_units_Z 32
_cell_length_a 13.981600
_cell_length_b 15.548120
_cell_length_c 7.156199
_cell_angle_alpha 90.000000
_cell_angle_beta 59.632388
_cell_angle_gamma 90.000000
_cell_volume 1342.230464
_symmetry_space_group_name_H-M "C 2/C"
_symmetry_group_IT_number 15
_symmetry_cell_setting 'monoclinic'
loop_
_space_group_symop_operation_xyz
x,y,z
-x,y,1/2-z
-x,-y,-z
x,-y,1/2+z
1/2+x,1/2+y,z
1/2-x,1/2+y,1/2-z
1/2-x,1/2-y,-z
1/2+x,1/2-y,1/2+z
loop_
_atom_site_type_symbol
_atom_site_label
_atom_site_fract_x
_atom_site_fract_y
_atom_site_fract_z
Si Si1 0.151846 0.065968 0.724644
Si Si2 0.000000 0.565104 0.250000
Si Si3 0.000000 0.729928 0.750000
Si Si4 0.131221 0.405628 0.265760
Si Si5 0.591630 0.385351 0.891057
O O1 0.248716 0.095280 0.764405
O O2 0.159257 0.112141 0.517415
O O3 0.145911 0.961851 0.715245
O O4 0.032682 0.087575 0.927642
O O5 0.095471 0.500267 0.231167
O O6 0.949473 0.614626 0.475914
O O7 0.899423 0.660016 0.869348
O O8 0.933815 0.795775 0.681242
#
# Coordination Sequence:
#
# PCOD9274389 Si02
#       5
#     8   4   4   8   8
#     4  10  20  38  63  84 116 165 198 230 295 367
#     4   9  20  38  60  85 116 158 204 237 284 368
#     4  11  24  38  56  91 128 150 192 257 296 332
#     4  10  21  39  62  86 117 158 198 242 296 350
#     4  10  21  37  59  91 121 149 198 248 289 350
#
# _framework density 23.840913
#
# number of rings (size 3 to 8) (size 9 to 14) (size 15 to 20)
#    0.000    2.000    0.000    4.500    0.000    4.000 
#    0.000    7.500    0.000    0.000    0.000    0.000 
#    0.000    0.000    0.000    0.000    0.000    0.000 
#
# Total GULP energy -89234.515338 kJ/mol
# GULP energy per Si atom -5577.157209 kJ/mol
# Density = 2.378665 g / cm^3
# Si number density = 23.840913 Si / 1000 Ang^3
#
#
#
# Elastic Constant Matrix: (Units=GPa)
#
#
# Indices 1 2 3 4 5 6 
#
# 1 206.2860 35.4448 8.9980 0.0000 19.3230 0.0000
# 2 35.4448 100.0912 4.3520 0.0000 4.4643 0.0000
# 3 8.9980 4.3520 50.6159 0.0000 16.3059 0.0000
# 4 0.0000 0.0000 0.0000 90.1947 0.0000 200.7402
# 5 19.3230 4.4643 16.3059 0.0000 19.9213 0.0000
# 6 0.0000 0.0000 0.0000 200.7402 0.0000 481.6412
#
#
#
# Elastic Compliance Matrix: (Units=1/GPa)
#
#
# Indices 1 2 3 4 5 6 
#
# 1 0.005668 -0.001787 0.001070 0.000000 -0.005973 0.000000
# 2 -0.001787 0.010657 -0.000526 0.000000 -0.000224 0.000000
# 3 0.001070 -0.000526 0.027037 0.000000 -0.023051 0.000000
# 4 0.000000 0.000000 0.000000 0.153153 0.000000 -0.063832
# 5 -0.005973 -0.000224 -0.023051 0.000000 0.074909 0.000000
# 6 0.000000 0.000000 0.000000 -0.063832 0.000000 0.028680
#
#
# Mechanical properties :
#
#
# Convention : Reuss Voigt Hill
#
# Bulk Modulus (GPa) = 24.46489 50.50917 37.48703
# Shear Modulus (GPa) = 15.81202 138.89797 77.35500
#
# Velocity S-wave (km/s) = 2.57812 7.64113 5.70235
# Velocity P-wave (km/s) = 4.37565 9.95394 7.68854
#
# Compressibility (1/GPa) = 0.04087490
#
# Stress axis : x y z
#
# Youngs Moduli (GPa) = 176.44422 93.83835 36.98578
#
# Poissons Ratio (x) = 0.16770 -0.03959
# Poissons Ratio (y) = 0.31533 0.01947
# Poissons Ratio (z) = -0.18885 0.04941
#
# Static dielectric constant tensor:
#      x y z
#    x 1.913850 0.000000 0.044350 
#    y 0.000000 1.924230 0.000000 
#    z 0.044350 0.000000 2.024090 
# 
# From -- ./inp_files/37272.got.cif
#   From: 2010.05.17/outbox.cif.g08.bks.cpg/sg15_19_cif.got.tgz:37272.got - 2010.06.03 18:47:42.
