data_PCOD9274232
_publ_section_title
;
Structure prediction by ZEFSAII (Michael W. Deem and Ramdas Pophale) SiO2 
 PCOD9274232
Probable space group: C 2/C
;
_chemical_formula_sum "Si O2"
_cell_formula_units_Z 56
_cell_length_a 11.122797
_cell_length_b 8.655191
_cell_length_c 28.356047
_cell_angle_alpha 90.000000
_cell_angle_beta 122.318416
_cell_angle_gamma 90.000000
_cell_volume 2306.956136
_symmetry_space_group_name_H-M "C 2/C"
_symmetry_group_IT_number 15
_symmetry_cell_setting 'monoclinic'
loop_
_space_group_symop_operation_xyz
x,y,z
-x,y,1/2-z
-x,-y,-z
x,-y,1/2+z
1/2+x,1/2+y,z
1/2-x,1/2+y,1/2-z
1/2-x,1/2-y,-z
1/2+x,1/2-y,1/2+z
loop_
_atom_site_type_symbol
_atom_site_label
_atom_site_fract_x
_atom_site_fract_y
_atom_site_fract_z
Si Si1 0.574252 0.194958 0.446022
Si Si2 0.760051 0.824167 0.389479
Si Si3 0.500000 0.969942 0.750000
Si Si4 0.500000 0.472268 0.750000
Si Si5 0.461138 0.278714 0.171634
Si Si6 0.296749 0.783462 0.230924
Si Si7 0.607982 0.175158 0.946983
Si Si8 0.391381 0.623552 0.456091
O O1 0.407074 0.227500 0.425475
O O2 0.579945 0.260178 0.392385
O O3 0.651983 0.282848 0.506301
O O4 0.600358 0.010067 0.452166
O O5 0.712977 0.799779 0.327289
O O6 0.634541 0.781519 0.398531
O O7 0.792110 0.003530 0.408219
O O8 0.583615 0.861240 0.803923
O O9 0.602634 0.071011 0.737746
O O10 0.582827 0.571429 0.807352
O O11 0.611366 0.369917 0.743639
O O12 0.634342 0.281553 0.212628
O O13 0.469898 0.257309 0.938643
O O14 0.750000 0.250000 0.000000
O O15 0.500000 0.500000 0.500000
#
# Coordination Sequence:
#
# PCOD9274232 Si02
#       8
#     8   8   4   4   8   8   8   8
#     4  10  22  39  61  89 122 163 208 255 295 370
#     4  10  23  41  58  90 126 161 207 251 302 366
#     4  10  20  38  62  88 120 154 198 254 306 374
#     4  10  22  40  66  94 116 156 202 252 310 380
#     4  10  21  40  61  89 124 151 203 254 309 361
#     4  10  21  39  64  89 121 158 197 249 315 361
#     4  12  22  39  63  85 124 169 204 246 308 350
#     4  10  21  40  58  87 125 162 207 249 293 362
#
# _framework density 24.274408999999999
#
# number of rings (size 3 to 8) (size 9 to 14) (size 15 to 20)
#    0.000    1.714    2.857    2.143    0.000    4.000 
#    0.000   10.000    0.000    0.000    0.000    0.000 
#    0.000    0.000    0.000    0.000    0.000    0.000 
#
# Total GULP energy -156297.749941 kJ/mol
# GULP energy per Si atom -5582.062498 kJ/mol
# Density = 2.421916 g / cm^3
# Si number density = 24.274409 Si / 1000 Ang^3
#
#
#
# Elastic Constant Matrix: (Units=GPa)
#
#
# Indices 1 2 3 4 5 6 
#
# 1 52.1028 25.5293 11.5559 0.0000 -31.3897 0.0000
# 2 25.5293 130.7697 29.1510 0.0000 -12.0853 0.0000
# 3 11.5559 29.1510 100.2226 0.0000 -12.3361 0.0000
# 4 0.0000 0.0000 0.0000 20.8842 0.0000 -9.2461
# 5 -31.3897 -12.0853 -12.3361 0.0000 44.1604 0.0000
# 6 0.0000 0.0000 0.0000 -9.2461 0.0000 34.6521
#
#
#
# Elastic Compliance Matrix: (Units=1/GPa)
#
#
# Indices 1 2 3 4 5 6 
#
# 1 0.036317 -0.004878 0.000253 0.000000 0.024551 0.000000
# 2 -0.004878 0.008947 -0.002242 0.000000 -0.001645 0.000000
# 3 0.000253 -0.002242 0.010923 0.000000 0.002618 0.000000
# 4 0.000000 0.000000 0.000000 0.054297 0.000000 0.014488
# 5 0.024551 -0.001645 0.002618 0.000000 0.040377 0.000000
# 6 0.000000 0.000000 0.000000 0.014488 0.000000 0.032724
#
#
# Mechanical properties :
#
#
# Convention : Reuss Voigt Hill
#
# Bulk Modulus (GPa) = 23.55509 46.17418 34.86463
# Shear Modulus (GPa) = 23.64398 34.39660 29.02029
#
# Velocity S-wave (km/s) = 3.12433 3.76838 3.46137
# Velocity P-wave (km/s) = 4.76865 6.16419 5.51077
#
# Compressibility (1/GPa) = 0.04245367
#
# Stress axis : x y z
#
# Youngs Moduli (GPa) = 27.53511 111.76789 91.54960
#
# Poissons Ratio (x) = 0.54515 -0.02317
# Poissons Ratio (y) = 0.13430 0.20530
# Poissons Ratio (z) = -0.00697 0.25063
#
# Static dielectric constant tensor:
#      x y z
#    x 2.034650 0.000000 0.060540 
#    y 0.000000 1.975770 0.000000 
#    z 0.060540 0.000000 1.942130 
# 
# From -- ./inp_files/310064.got.cif
#   From: 2010.05.17/outbox.cif.g08.bks.cpg/sg15_156_cif.got.tgz:310064.got - 2010.06.03 18:47:42.
