data_PCOD9274220
_publ_section_title
;
Structure prediction by ZEFSAII (Michael W. Deem and Ramdas Pophale) SiO2 
 PCOD9274220
Probable space group: C 2/C
;
_chemical_formula_sum "Si O2"
_cell_formula_units_Z 48
_cell_length_a 29.247897
_cell_length_b 15.746733
_cell_length_c 14.919937
_cell_angle_alpha 90.000000
_cell_angle_beta 20.235759
_cell_angle_gamma 90.000000
_cell_volume 2376.743914
_symmetry_space_group_name_H-M "C 2/C"
_symmetry_group_IT_number 15
_symmetry_cell_setting 'monoclinic'
loop_
_space_group_symop_operation_xyz
x,y,z
-x,y,1/2-z
-x,-y,-z
x,-y,1/2+z
1/2+x,1/2+y,z
1/2-x,1/2+y,1/2-z
1/2-x,1/2-y,-z
1/2+x,1/2-y,1/2+z
loop_
_atom_site_type_symbol
_atom_site_label
_atom_site_fract_x
_atom_site_fract_y
_atom_site_fract_z
Si Si1 0.805108 0.782841 0.258145
Si Si2 0.128945 0.591354 0.963523
Si Si3 0.126267 0.970462 0.583422
Si Si4 0.122204 0.854109 0.179593
Si Si5 0.876572 0.252179 0.145927
Si Si6 0.594590 0.276740 0.697292
O O1 0.711463 0.847645 0.378263
O O2 0.845172 0.828309 0.278213
O O3 0.725743 0.698138 0.428770
O O4 0.941526 0.764553 0.954986
O O5 0.236774 0.528256 0.724072
O O6 0.084104 0.657438 0.968601
O O7 0.000000 0.555834 0.250000
O O8 0.118744 0.878091 0.643763
O O9 0.000000 0.977304 0.750000
O O10 0.126235 0.046822 0.653277
O O11 0.976454 0.818004 0.425967
O O12 0.721178 0.236538 0.414899
O O13 0.894026 0.253687 0.220825
#
# Coordination Sequence:
#
# PCOD9274220 Si02
#       6
#     8   8   8   8   8   8
#     4  10  20  38  62  87 118 158 201 243 294 363
#     4  11  21  39  63  87 117 164 201 254 303 357
#     4  11  23  39  60  89 125 154 196 256 306 354
#     4  10  22  38  60  88 119 158 201 242 299 367
#     4   9  19  34  64  87 114 155 201 238 285 372
#     4   9  19  39  60  91 118 154 196 245 299 350
#
# _framework density 20.195696999999999
#
# number of rings (size 3 to 8) (size 9 to 14) (size 15 to 20)
#    0.000    2.000    3.333    0.000    2.333    2.667 
#    0.000    2.500    0.000    0.000    0.000    0.000 
#    0.000    0.000    0.000    0.000    0.000    0.000 
#
# Total GULP energy -133934.870078 kJ/mol
# GULP energy per Si atom -5580.619587 kJ/mol
# Density = 2.014973 g / cm^3
# Si number density = 20.195697 Si / 1000 Ang^3
#
#
#
# Elastic Constant Matrix: (Units=GPa)
#
#
# Indices 1 2 3 4 5 6 
#
# 1 55.8023 27.1081 19.4783 0.0000 -11.8766 0.0000
# 2 27.1081 59.3244 31.9711 0.0000 -3.3791 0.0000
# 3 19.4783 31.9711 178.1615 0.0000 -5.2162 0.0000
# 4 0.0000 0.0000 0.0000 18.5304 0.0000 6.6015
# 5 -11.8766 -3.3791 -5.2162 0.0000 25.0651 0.0000
# 6 0.0000 0.0000 0.0000 6.6015 0.0000 7.1942
#
#
#
# Elastic Compliance Matrix: (Units=1/GPa)
#
#
# Indices 1 2 3 4 5 6 
#
# 1 0.025609 -0.010803 -0.000552 0.000000 0.010563 0.000000
# 2 -0.010803 0.023302 -0.003077 0.000000 -0.002618 0.000000
# 3 -0.000552 -0.003077 0.006244 0.000000 0.000623 0.000000
# 4 0.000000 0.000000 0.000000 0.080175 0.000000 -0.073570
# 5 0.010563 -0.002618 0.000623 0.000000 0.044678 0.000000
# 6 0.000000 0.000000 0.000000 -0.073570 0.000000 0.206511
#
#
# Mechanical properties :
#
#
# Convention : Reuss Voigt Hill
#
# Bulk Modulus (GPa) = 38.03594 50.04478 44.04036
# Shear Modulus (GPa) = 11.78837 24.47332 18.13084
#
# Velocity S-wave (km/s) = 2.41862 3.48488 2.99951
# Velocity P-wave (km/s) = 5.16471 6.40517 5.81810
#
# Compressibility (1/GPa) = 0.02629092
#
# Stress axis : x y z
#
# Youngs Moduli (GPa) = 39.04846 42.91474 160.16238
#
# Poissons Ratio (x) = 0.46360 0.08841
# Poissons Ratio (y) = 0.42184 0.49284
# Poissons Ratio (z) = 0.02155 0.13205
#
# Static dielectric constant tensor:
#      x y z
#    x 1.756980 0.000000 0.009590 
#    y 0.000000 1.648510 0.000000 
#    z 0.009590 0.000000 1.782120 
# 
# From -- ./inp_files/182439.got.cif
#   From: 2010.05.17/outbox.cif.g08.bks.cpg/sg15_92_cif.got.tgz:182439.got - 2010.06.03 18:47:42.
