data_PCOD9274635
_publ_section_title
;
Structure prediction by ZEFSAII (Michael W. Deem and Ramdas Pophale) SiO2 
 PCOD9274635
Probable space group: C 2/C
;
_chemical_formula_sum "Si O2"
_cell_formula_units_Z 60
_cell_length_a 12.070310
_cell_length_b 7.198367
_cell_length_c 27.848773
_cell_angle_alpha 90.000000
_cell_angle_beta 93.973889
_cell_angle_gamma 90.000000
_cell_volume 2413.865449
_symmetry_space_group_name_H-M "C 2/C"
_symmetry_group_IT_number 15
_symmetry_cell_setting 'monoclinic'
loop_
_space_group_symop_operation_xyz
x,y,z
-x,y,1/2-z
-x,-y,-z
x,-y,1/2+z
1/2+x,1/2+y,z
1/2-x,1/2+y,1/2-z
1/2-x,1/2-y,-z
1/2+x,1/2-y,1/2+z
loop_
_atom_site_type_symbol
_atom_site_label
_atom_site_fract_x
_atom_site_fract_y
_atom_site_fract_z
Si Si1 0.330247 0.411132 0.634508
Si Si2 0.630058 0.753804 0.261921
Si Si3 0.811387 0.077887 0.978161
Si Si4 0.750000 0.750000 0.000000
Si Si5 0.870689 0.491887 0.594876
Si Si6 0.614549 0.097660 0.585888
Si Si7 0.750521 0.935966 0.817596
Si Si8 0.435565 0.477790 0.387902
O O1 0.339181 0.376700 0.691873
O O2 0.344659 0.209005 0.607909
O O3 0.212669 0.494733 0.616591
O O4 0.437213 0.531676 0.622257
O O5 0.500000 0.740238 0.250000
O O6 0.667757 0.953264 0.281085
O O7 0.691128 0.711035 0.214268
O O8 0.713274 0.940509 0.951454
O O9 0.892596 0.111774 0.936450
O O10 0.848176 0.921923 0.015717
O O11 0.750000 0.250000 0.000000
O O12 0.840902 0.642569 0.965257
O O13 0.824303 0.382844 0.639073
O O14 0.998629 0.485986 0.585857
O O15 0.588011 0.300218 0.607178
O O16 0.849037 0.067340 0.842426
#
# Coordination Sequence:
#
# PCOD9274635 Si02
#       8
#     8   8   8   4   8   8   8   8
#     4  10  20  38  65  90 121 167 212 259 328 391
#     4  11  23  40  64  91 126 164 208 271 320 392
#     4  10  20  38  64  90 128 172 217 274 330 395
#     4  10  22  38  60  98 126 168 226 270 328 390
#     4   9  21  40  60  90 129 168 209 269 325 391
#     4  10  21  38  64  93 130 169 213 267 331 384
#     4  10  22  41  63  89 124 163 208 258 330 381
#     4   9  20  40  60  88 127 161 206 265 317 384
#
# _framework density 24.856397999999999
#
# number of rings (size 3 to 8) (size 9 to 14) (size 15 to 20)
#    0.000    2.133    1.333    0.800    1.867    1.600 
#    0.000   23.333    0.000    0.000    0.000    0.000 
#    0.000    0.000    0.000    0.000    0.000    0.000 
#
# Total GULP energy -167464.255658 kJ/mol
# GULP energy per Si atom -5582.141855 kJ/mol
# Density = 2.479982 g / cm^3
# Si number density = 24.856398 Si / 1000 Ang^3
#
#
#
# Elastic Constant Matrix: (Units=GPa)
#
#
# Indices 1 2 3 4 5 6 
#
# 1 196.6728 41.7733 61.3780 0.0000 -6.5564 0.0000
# 2 41.7733 97.9703 32.6888 0.0000 -14.1430 0.0000
# 3 61.3780 32.6888 138.0632 0.0000 -13.2551 0.0000
# 4 0.0000 0.0000 0.0000 32.6975 0.0000 -5.3723
# 5 -6.5564 -14.1430 -13.2551 0.0000 31.4045 0.0000
# 6 0.0000 0.0000 0.0000 -5.3723 0.0000 40.6442
#
#
#
# Elastic Compliance Matrix: (Units=1/GPa)
#
#
# Indices 1 2 3 4 5 6 
#
# 1 0.006214 -0.001946 -0.002357 0.000000 -0.000574 0.000000
# 2 -0.001946 0.012209 -0.001601 0.000000 0.004416 0.000000
# 3 -0.002357 -0.001601 0.008915 0.000000 0.002549 0.000000
# 4 0.000000 0.000000 0.000000 0.031262 0.000000 0.004132
# 5 -0.000574 0.004416 0.002549 0.000000 0.034788 0.000000
# 6 0.000000 0.000000 0.000000 0.004132 0.000000 0.025150
#
#
# Mechanical properties :
#
#
# Convention : Reuss Voigt Hill
#
# Bulk Modulus (GPa) = 64.39658 78.26518 71.33088
# Shear Modulus (GPa) = 36.89398 40.74032 38.81715
#
# Velocity S-wave (km/s) = 3.85682 4.05288 3.95607
# Velocity P-wave (km/s) = 6.76736 7.31139 7.04463
#
# Compressibility (1/GPa) = 0.01552878
#
# Stress axis : x y z
#
# Youngs Moduli (GPa) = 160.91654 81.90791 112.17236
#
# Poissons Ratio (x) = 0.15940 0.26439
# Poissons Ratio (y) = 0.31317 0.17964
# Poissons Ratio (z) = 0.37928 0.13117
#
# Static dielectric constant tensor:
#      x y z
#    x 1.960260 0.000000 0.063900 
#    y 0.000000 2.233790 0.000000 
#    z 0.063900 0.000000 2.093080 
# 
# From -- ./inp_files/310004.got.cif
#   From: 2010.05.17/outbox.cif.g08.bks.cpg/sg15_156_cif.got.tgz:310004.got - 2010.06.03 18:47:42.
