data_PCOD9274654
_publ_section_title
;
Structure prediction by ZEFSAII (Michael W. Deem and Ramdas Pophale) SiO2 
 PCOD9274654
Probable space group: C 2/C
;
_chemical_formula_sum "Si O2"
_cell_formula_units_Z 44
_cell_length_a 20.146765
_cell_length_b 11.408111
_cell_length_c 12.436560
_cell_angle_alpha 90.000000
_cell_angle_beta 124.527313
_cell_angle_gamma 90.000000
_cell_volume 2354.890316
_symmetry_space_group_name_H-M "C 2/C"
_symmetry_group_IT_number 15
_symmetry_cell_setting 'monoclinic'
loop_
_space_group_symop_operation_xyz
x,y,z
-x,y,1/2-z
-x,-y,-z
x,-y,1/2+z
1/2+x,1/2+y,z
1/2-x,1/2+y,1/2-z
1/2-x,1/2-y,-z
1/2+x,1/2-y,1/2+z
loop_
_atom_site_type_symbol
_atom_site_label
_atom_site_fract_x
_atom_site_fract_y
_atom_site_fract_z
Si Si1 0.500000 0.145921 0.750000
Si Si2 0.546009 0.332653 0.968567
Si Si3 0.541758 0.601254 0.898669
Si Si4 0.274838 0.764720 0.855508
Si Si5 0.269490 0.343609 0.925403
Si Si6 0.679544 0.081005 0.905897
O O1 0.508697 0.232273 0.859811
O O2 0.582872 0.074465 0.819121
O O3 0.533598 0.460915 0.906410
O O4 0.503452 0.337226 0.044367
O O5 0.640936 0.306048 0.065581
O O6 0.500000 0.636400 0.750000
O O7 0.635617 0.630539 0.985758
O O8 0.253583 0.800204 0.715190
O O9 0.207386 0.683277 0.849064
O O10 0.288781 0.875151 0.948231
O O11 0.220878 0.461521 0.908417
O O12 0.250000 0.250000 0.000000
#
# Coordination Sequence:
#
# PCOD9274654 Si02
#       6
#     4   8   8   8   8   8
#     4  10  20  42  64  92 120 168 216 250 320 388
#     4  10  20  38  64  92 120 166 210 262 313 377
#     4  11  22  37  63  94 128 158 211 268 315 368
#     4  10  22  43  66  89 129 167 217 258 324 380
#     4  12  26  41  64  97 130 170 213 266 321 377
#     4  10  23  42  67  92 125 172 207 264 316 389
#
# _framework density 18.684522000000001
#
# number of rings (size 3 to 8) (size 9 to 14) (size 15 to 20)
#    0.000    1.455    2.727    2.182    2.545    2.909 
#    4.909    1.818    0.000    0.000    0.000    0.000 
#    0.000    0.000    0.000    0.000    0.000    0.000 
#
# Total GULP energy -122958.351355 kJ/mol
# GULP energy per Si atom -5589.015971 kJ/mol
# Density = 1.864199 g / cm^3
# Si number density = 18.684522 Si / 1000 Ang^3
#
#
#
# Elastic Constant Matrix: (Units=GPa)
#
#
# Indices 1 2 3 4 5 6 
#
# 1 114.0020 19.7968 57.5108 0.0000 -8.0374 0.0000
# 2 19.7968 34.2596 29.0826 0.0000 -12.5037 0.0000
# 3 57.5108 29.0826 141.7297 0.0000 -21.6022 0.0000
# 4 0.0000 0.0000 0.0000 -263.7066 0.0000 113.3482
# 5 -8.0374 -12.5037 -21.6022 0.0000 37.3155 0.0000
# 6 0.0000 0.0000 0.0000 113.3482 0.0000 -30.2966
#
#
#
# Elastic Compliance Matrix: (Units=1/GPa)
#
#
# Indices 1 2 3 4 5 6 
#
# 1 0.011348 -0.003514 -0.004048 0.000000 -0.001077 0.000000
# 2 -0.003514 0.039000 -0.005155 0.000000 0.009327 0.000000
# 3 -0.004048 -0.005155 0.010266 0.000000 0.003344 0.000000
# 4 0.000000 0.000000 0.000000 0.006236 0.000000 0.023330
# 5 -0.001077 0.009327 0.003344 0.000000 0.031628 0.000000
# 6 0.000000 0.000000 0.000000 0.023330 0.000000 0.054279
#
#
# Mechanical properties :
#
#
# Convention : Reuss Voigt Hill
#
# Bulk Modulus (GPa) = 28.42594 55.86353 42.14473
# Shear Modulus (GPa) = 26.32743 -39.09747 -6.38502
#
# Velocity S-wave (km/s) = 3.75780 -4.57935 -1.85059
# Velocity P-wave (km/s) = 5.83736 1.41512 4.24720
#
# Compressibility (1/GPa) = 0.03517914
#
# Stress axis : x y z
#
# Youngs Moduli (GPa) = 88.12024 25.64128 97.41252
#
# Poissons Ratio (x) = 0.09011 0.39431
# Poissons Ratio (y) = 0.30968 0.50217
# Poissons Ratio (z) = 0.35669 0.13218
#
# Static dielectric constant tensor:
#      x y z
#    x 1.630140 0.000000 -0.004780 
#    y 0.000000 1.622810 0.000000 
#    z -0.004780 0.000000 1.626470 
# 
# From -- ./inp_files/103869.got.cif
#   From: 2010.05.17/outbox.cif.g08.bks.cpg/sg15_52_cif.got.tgz:103869.got - 2010.06.03 18:47:42.
