data_PCOD9274669
_publ_section_title
;
Structure prediction by ZEFSAII (Michael W. Deem and Ramdas Pophale) SiO2 
 PCOD9274669
Probable space group: C 2/C
;
_chemical_formula_sum "Si O2"
_cell_formula_units_Z 40
_cell_length_a 6.311893
_cell_length_b 25.002301
_cell_length_c 11.331054
_cell_angle_alpha 90.000000
_cell_angle_beta 78.332770
_cell_angle_gamma 90.000000
_cell_volume 1751.228449
_symmetry_space_group_name_H-M "C 2/C"
_symmetry_group_IT_number 15
_symmetry_cell_setting 'monoclinic'
loop_
_space_group_symop_operation_xyz
x,y,z
-x,y,1/2-z
-x,-y,-z
x,-y,1/2+z
1/2+x,1/2+y,z
1/2-x,1/2+y,1/2-z
1/2-x,1/2-y,-z
1/2+x,1/2-y,1/2+z
loop_
_atom_site_type_symbol
_atom_site_label
_atom_site_fract_x
_atom_site_fract_y
_atom_site_fract_z
Si Si1 0.884210 0.995375 0.384639
Si Si2 0.853327 0.173593 0.428672
Si Si3 0.688021 0.375105 0.072510
Si Si4 0.419879 0.085408 0.131276
Si Si5 0.411242 0.224948 0.578715
O O1 0.843230 0.932667 0.366678
O O2 0.000000 0.014875 0.250000
O O3 0.676303 0.033236 0.419206
O O4 0.000000 0.000000 0.500000
O O5 0.769956 0.129593 0.346691
O O6 0.632569 0.200298 0.502369
O O7 0.979715 0.143982 0.521564
O O8 0.007027 0.221344 0.368427
O O9 0.776067 0.325862 0.143182
O O10 0.878509 0.387938 0.957794
O O11 0.500000 0.070026 0.250000
O O12 0.250000 0.250000 0.500000
#
# Coordination Sequence:
#
# PCOD9274669 Si02
#       5
#     8   8   8   8   8
#     4  12  25  44  69  99 137 183 230 292 360 427
#     4   9  17  34  62  91 132 168 226 281 346 407
#     4  10  20  38  64  92 130 173 226 280 354 413
#     4  11  23  38  64  99 131 176 230 285 349 425
#     4   8  16  32  61  94 122 178 217 283 341 421
#
# _framework density 22.841107999999998
#
# number of rings (size 3 to 8) (size 9 to 14) (size 15 to 20)
#    0.000    2.000    2.000    1.800    0.000    0.000 
#    0.000    0.000    0.000   55.200    0.000    0.000 
#    0.000    0.000    0.000    0.000    0.000    0.000 
#
# Total GULP energy -111480.301095 kJ/mol
# GULP energy per Si atom -5574.015055 kJ/mol
# Density = 2.278912 g / cm^3
# Si number density = 22.841108 Si / 1000 Ang^3
#
#
#
# Elastic Constant Matrix: (Units=GPa)
#
#
# Indices 1 2 3 4 5 6 
#
# 1 143.1471 61.9776 40.6850 0.0000 26.3514 0.0000
# 2 61.9776 168.3717 12.8235 0.0000 23.9575 0.0000
# 3 40.6850 12.8235 66.5183 0.0000 14.0502 0.0000
# 4 0.0000 0.0000 0.0000 -13.3435 0.0000 -13.5757
# 5 26.3514 23.9575 14.0502 0.0000 26.5969 0.0000
# 6 0.0000 0.0000 0.0000 -13.5757 0.0000 51.9194
#
#
#
# Elastic Compliance Matrix: (Units=1/GPa)
#
#
# Indices 1 2 3 4 5 6 
#
# 1 0.010527 -0.002737 -0.004760 0.000000 -0.005450 0.000000
# 2 -0.002737 0.007524 0.001218 0.000000 -0.004709 0.000000
# 3 -0.004760 0.001218 0.019074 0.000000 -0.006457 0.000000
# 4 0.000000 0.000000 0.000000 -0.059195 0.000000 -0.015478
# 5 -0.005450 -0.004709 -0.006457 0.000000 0.050651 0.000000
# 6 0.000000 0.000000 0.000000 -0.015478 0.000000 0.015213
#
#
# Mechanical properties :
#
#
# Convention : Reuss Voigt Hill
#
# Bulk Modulus (GPa) = 40.70402 67.66770 54.18586
# Shear Modulus (GPa) = 77.47067 30.53795 54.00431
#
# Velocity S-wave (km/s) = 5.83017 3.66043 4.86773
# Velocity P-wave (km/s) = 7.94860 6.89599 7.44094
#
# Compressibility (1/GPa) = 0.02456760
#
# Stress axis : x y z
#
# Youngs Moduli (GPa) = 94.99442 132.90804 52.42770
#
# Poissons Ratio (x) = 0.36377 0.24955
# Poissons Ratio (y) = 0.26000 -0.06387
# Poissons Ratio (z) = 0.45216 -0.16191
#
# Static dielectric constant tensor:
#      x y z
#    x 1.954220 0.000000 -0.198370 
#    y 0.000000 1.905720 0.000000 
#    z -0.198370 0.000000 2.158870 
# 
# From -- ./inp_files/73068.got.cif
#   From: 2010.05.17/outbox.cif.g08.bks.cpg/sg15_37_cif.got.tgz:73068.got - 2010.06.03 18:47:42.
