data_PCOD9274778
_publ_section_title
;
Structure prediction by ZEFSAII (Michael W. Deem and Ramdas Pophale) SiO2 
 PCOD9274778
Probable space group: C 2/C
;
_chemical_formula_sum "Si O2"
_cell_formula_units_Z 60
_cell_length_a 21.061430
_cell_length_b 24.814550
_cell_length_c 8.595749
_cell_angle_alpha 90.000000
_cell_angle_beta 141.852865
_cell_angle_gamma 90.000000
_cell_volume 2774.876545
_symmetry_space_group_name_H-M "C 2/C"
_symmetry_group_IT_number 15
_symmetry_cell_setting 'monoclinic'
loop_
_space_group_symop_operation_xyz
x,y,z
-x,y,1/2-z
-x,-y,-z
x,-y,1/2+z
1/2+x,1/2+y,z
1/2-x,1/2+y,1/2-z
1/2-x,1/2-y,-z
1/2+x,1/2-y,1/2+z
loop_
_atom_site_type_symbol
_atom_site_label
_atom_site_fract_x
_atom_site_fract_y
_atom_site_fract_z
Si Si1 0.829775 0.927174 0.059393
Si Si2 0.838020 0.215679 0.856495
Si Si3 0.433238 0.719911 0.358119
Si Si4 0.000000 0.144175 0.750000
Si Si5 0.799098 0.329728 0.673669
Si Si6 0.975211 0.337793 0.518875
Si Si7 0.905016 0.542451 0.845623
Si Si8 0.756286 0.487357 0.325330
O O1 0.741944 0.885067 0.837080
O O2 0.819254 0.979622 0.931891
O O3 0.933238 0.894436 0.231114
O O4 0.804324 0.944938 0.185495
O O5 0.788759 0.275471 0.753431
O O6 0.764098 0.179641 0.608378
O O7 0.860119 0.201059 0.077078
O O8 0.949193 0.216832 0.983322
O O9 0.432855 0.682977 0.510153
O O10 0.414600 0.782763 0.363055
O O11 0.917445 0.333855 0.863119
O O12 0.932057 0.395141 0.384075
O O13 0.000000 0.338361 0.750000
O O14 0.814212 0.527061 0.554172
O O15 0.851429 0.536099 0.910316
O O16 0.000000 0.500000 0.000000
#
# Coordination Sequence:
#
# PCOD9274778 Si02
#       8
#     8   8   8   4   8   8   8   8
#     4  11  24  45  68  92 129 172 221 291 339 395
#     4   9  20  39  62  93 130 174 217 258 326 409
#     4  10  21  40  61  97 130 168 225 272 328 403
#     4  12  24  46  70  92 130 174 228 290 348 386
#     4  10  20  38  65  90 132 176 208 263 331 397
#     4  11  21  35  60  93 135 170 207 266 326 389
#     4  11  21  39  66  98 135 176 213 264 330 407
#     4  10  24  44  64  96 131 166 229 274 334 403
#
# _framework density 21.622582000000001
#
# number of rings (size 3 to 8) (size 9 to 14) (size 15 to 20)
#    0.000    1.600    2.000    3.600    1.867    0.533 
#    9.600    1.333    0.000    0.000    0.000    0.000 
#    0.000    0.000    0.000    0.000    0.000    0.000 
#
# Total GULP energy -167595.646129 kJ/mol
# GULP energy per Si atom -5586.521538 kJ/mol
# Density = 2.157337 g / cm^3
# Si number density = 21.622582 Si / 1000 Ang^3
#
#
#
# Elastic Constant Matrix: (Units=GPa)
#
#
# Indices 1 2 3 4 5 6 
#
# 1 94.2659 50.3382 15.5176 0.0000 -3.7999 0.0000
# 2 50.3382 119.6284 25.7729 0.0000 1.3669 0.0000
# 3 15.5176 25.7729 61.7254 0.0000 -16.9624 0.0000
# 4 0.0000 0.0000 0.0000 22.3851 0.0000 11.0176
# 5 -3.7999 1.3669 -16.9624 0.0000 22.5763 0.0000
# 6 0.0000 0.0000 0.0000 11.0176 0.0000 52.6082
#
#
#
# Elastic Compliance Matrix: (Units=1/GPa)
#
#
# Indices 1 2 3 4 5 6 
#
# 1 0.013851 -0.005763 -0.000427 0.000000 0.002359 0.000000
# 2 -0.005763 0.011933 -0.005039 0.000000 -0.005479 0.000000
# 3 -0.000427 -0.005039 0.023284 0.000000 0.017727 0.000000
# 4 0.000000 0.000000 0.000000 0.049806 0.000000 -0.010431
# 5 0.002359 -0.005479 0.017727 0.000000 0.058342 0.000000
# 6 0.000000 0.000000 0.000000 -0.010431 0.000000 0.021193
#
#
# Mechanical properties :
#
#
# Convention : Reuss Voigt Hill
#
# Bulk Modulus (GPa) = 37.58247 50.98635 44.28441
# Shear Modulus (GPa) = 23.83924 31.77999 27.80961
#
# Velocity S-wave (km/s) = 3.32402 3.83790 3.59017
# Velocity P-wave (km/s) = 5.67018 6.57804 6.14091
#
# Compressibility (1/GPa) = 0.02660815
#
# Stress axis : x y z
#
# Youngs Moduli (GPa) = 72.19478 83.80414 42.94841
#
# Poissons Ratio (x) = 0.48300 0.01836
# Poissons Ratio (y) = 0.41609 0.21642
# Poissons Ratio (z) = 0.03086 0.42229
#
# Static dielectric constant tensor:
#      x y z
#    x 1.831830 0.000000 -0.004520 
#    y 0.000000 1.782720 0.000000 
#    z -0.004520 0.000000 1.782030 
# 
# From -- ./inp_files/58797.got.cif
#   From: 2010.05.17/outbox.cif.g08.bks.cpg/sg15_30_cif.got.tgz:58797.got - 2010.06.03 18:47:42.
