data_PCOD9274218
_publ_section_title
;
Structure prediction by ZEFSAII (Michael W. Deem and Ramdas Pophale) SiO2 
 PCOD9274218
Probable space group: C 2/C
;
_chemical_formula_sum "Si O2"
_cell_formula_units_Z 36
_cell_length_a 12.008033
_cell_length_b 29.118458
_cell_length_c 13.861603
_cell_angle_alpha 90.000000
_cell_angle_beta 21.088827
_cell_angle_gamma 90.000000
_cell_volume 1743.945101
_symmetry_space_group_name_H-M "C 2/C"
_symmetry_group_IT_number 15
_symmetry_cell_setting 'monoclinic'
loop_
_space_group_symop_operation_xyz
x,y,z
-x,y,1/2-z
-x,-y,-z
x,-y,1/2+z
1/2+x,1/2+y,z
1/2-x,1/2+y,1/2-z
1/2-x,1/2-y,-z
1/2+x,1/2-y,1/2+z
loop_
_atom_site_type_symbol
_atom_site_label
_atom_site_fract_x
_atom_site_fract_y
_atom_site_fract_z
Si Si1 0.531632 0.218639 0.483488
Si Si2 0.927862 0.461175 0.195091
Si Si3 0.361572 0.144060 0.466669
Si Si4 0.000000 0.783828 0.750000
Si Si5 0.754568 0.561228 0.253211
O O1 0.237168 0.238619 0.778606
O O2 0.413849 0.187619 0.492663
O O3 0.782724 0.191358 0.347588
O O4 0.859672 0.514046 0.220707
O O5 0.609524 0.433713 0.434146
O O6 0.000000 0.458224 0.250000
O O7 0.179972 0.444350 0.914007
O O8 0.500000 0.153571 0.250000
O O9 0.546672 0.101988 0.363744
O O10 0.000000 0.133066 0.750000
O O11 0.250000 0.750000 0.500000
#
# Coordination Sequence:
#
# PCOD9274218 Si02
#       5
#     8   8   8   4   8
#     4  10  21  39  62  87 118 157 204 246 302 358
#     4  10  20  38  62  87 117 157 199 249 298 356
#     4  12  25  40  61  88 126 162 203 250 302 363
#     4   8  16  34  58  80 108 148 192 240 292 354
#     4  10  22  38  59  87 122 155 201 242 300 363
#
# _framework density 20.642851
#
# number of rings (size 3 to 8) (size 9 to 14) (size 15 to 20)
#    0.000    1.778    0.000    4.000    0.000    6.222 
#    4.000    0.000    4.889    0.000    0.000    0.000 
#    0.000    0.000    0.000    0.000    0.000    0.000 
#
# Total GULP energy -100519.505200 kJ/mol
# GULP energy per Si atom -5584.416956 kJ/mol
# Density = 2.059587 g / cm^3
# Si number density = 20.642851 Si / 1000 Ang^3
#
#
#
# Elastic Constant Matrix: (Units=GPa)
#
#
# Indices 1 2 3 4 5 6 
#
# 1 105.4298 13.2381 -3.0490 -0.0002 -3.8134 0.0005
# 2 13.2381 20.3816 0.2685 0.0002 -14.9264 0.0006
# 3 -3.0490 0.2685 83.3006 -0.0025 5.6239 0.0099
# 4 -0.0002 0.0002 -0.0025 18.1996 -0.0003 -21.1175
# 5 -3.8134 -14.9264 5.6239 -0.0003 30.9585 0.0037
# 6 0.0005 0.0006 0.0099 -21.1175 0.0037 99.3637
#
#
#
# Elastic Compliance Matrix: (Units=1/GPa)
#
#
# Indices 1 2 3 4 5 6 
#
# 1 0.010548 -0.009264 0.000638 0.000000 -0.003283 0.000000
# 2 -0.009264 0.084606 -0.003330 -0.000004 0.040256 -0.000002
# 3 0.000638 -0.003330 0.012293 0.000001 -0.003760 -0.000001
# 4 0.000000 -0.000004 0.000001 0.072931 -0.000003 0.015500
# 5 -0.003283 0.040256 -0.003760 -0.000003 0.051989 -0.000002
# 6 0.000000 -0.000002 -0.000001 0.015500 -0.000002 0.013358
#
#
# Mechanical properties :
#
#
# Convention : Reuss Voigt Hill
#
# Bulk Modulus (GPa) = 11.97104 25.55857 18.76480
# Shear Modulus (GPa) = 16.80781 42.94797 29.87789
#
# Velocity S-wave (km/s) = 2.85655 4.56623 3.80856
# Velocity P-wave (km/s) = 4.08553 6.34104 5.33387
#
# Compressibility (1/GPa) = 0.08353495
#
# Stress axis : x y z
#
# Youngs Moduli (GPa) = 94.80609 11.81953 81.34956
#
# Poissons Ratio (x) = 0.10949 -0.05187
# Poissons Ratio (y) = 0.87825 0.27086
# Poissons Ratio (z) = -0.06045 0.03935
#
# Static dielectric constant tensor:
#      x y z
#    x 1.785910 0.000000 -0.008410 
#    y 0.000000 1.706310 0.000000 
#    z -0.008410 0.000000 1.700780 
# 
# From -- ./inp_files/4282.got.cif
#   From: 2010.05.17/outbox.cif.g08.bks.cpg/sg15_3_cif.got.tgz:4282.got - 2010.06.03 18:47:42.
