data_PCOD9274483
_publ_section_title
;
Structure prediction by ZEFSAII (Michael W. Deem and Ramdas Pophale) SiO2 
 PCOD9274483
Probable space group: C 2/C
;
_chemical_formula_sum "Si O2"
_cell_formula_units_Z 40
_cell_length_a 23.202897
_cell_length_b 14.923834
_cell_length_c 13.733279
_cell_angle_alpha 90.000000
_cell_angle_beta 22.829944
_cell_angle_gamma 90.000000
_cell_volume 1845.124135
_symmetry_space_group_name_H-M "C 2/C"
_symmetry_group_IT_number 15
_symmetry_cell_setting 'monoclinic'
loop_
_space_group_symop_operation_xyz
x,y,z
-x,y,1/2-z
-x,-y,-z
x,-y,1/2+z
1/2+x,1/2+y,z
1/2-x,1/2+y,1/2-z
1/2-x,1/2-y,-z
1/2+x,1/2-y,1/2+z
loop_
_atom_site_type_symbol
_atom_site_label
_atom_site_fract_x
_atom_site_fract_y
_atom_site_fract_z
Si Si1 0.453936 0.151168 0.688248
Si Si2 0.007365 0.768997 0.433185
Si Si3 0.194038 0.896095 0.285040
Si Si4 0.000000 0.683625 0.250000
Si Si5 0.500000 0.684200 0.250000
Si Si6 0.246210 0.406321 0.848234
O O1 0.478479 0.178188 0.539550
O O2 0.431492 0.247366 0.777542
O O3 0.603239 0.108187 0.501141
O O4 0.316707 0.094516 0.942959
O O5 0.062175 0.744427 0.240730
O O6 0.854003 0.823232 0.662492
O O7 0.112646 0.833343 0.332408
O O8 0.122486 0.870865 0.500359
O O9 0.173995 0.000753 0.296740
O O10 0.367626 0.874157 0.002057
#
# Coordination Sequence:
#
# PCOD9274483 Si02
#       6
#     8   8   8   4   4   8
#     4   9  19  39  62  88 120 167 208 239 303 385
#     4  11  22  39  61  87 122 169 208 248 303 369
#     4  11  23  40  62  94 126 158 204 259 310 358
#     4  12  24  42  62  88 126 168 208 256 302 362
#     4   8  18  38  60  84 118 156 198 238 296 378
#     4  10  20  38  63  93 123 154 203 262 306 362
#
# _framework density 21.678758999999999
#
# number of rings (size 3 to 8) (size 9 to 14) (size 15 to 20)
#    0.000    2.000    0.000    6.600    0.000    2.400 
#    0.000   10.000    0.000    0.000    0.000    0.000 
#    0.000    0.000    0.000    0.000    0.000    0.000 
#
# Total GULP energy -111740.714477 kJ/mol
# GULP energy per Si atom -5587.035724 kJ/mol
# Density = 2.162942 g / cm^3
# Si number density = 21.678759 Si / 1000 Ang^3
#
#
#
# Elastic Constant Matrix: (Units=GPa)
#
#
# Indices 1 2 3 4 5 6 
#
# 1 80.9644 19.7864 21.9359 0.0001 33.2531 -0.0001
# 2 19.7864 51.1745 19.6609 0.0001 14.3558 0.0000
# 3 21.9359 19.6609 109.8547 0.0001 13.1515 -0.0001
# 4 0.0001 0.0001 0.0001 29.4773 -0.0001 3.1272
# 5 33.2531 14.3558 13.1515 -0.0001 30.2955 0.0001
# 6 -0.0001 0.0000 -0.0001 3.1272 0.0001 9.0934
#
#
#
# Elastic Compliance Matrix: (Units=1/GPa)
#
#
# Indices 1 2 3 4 5 6 
#
# 1 0.022881 -0.001643 -0.001436 0.000000 -0.023712 0.000000
# 2 -0.001643 0.023570 -0.002921 0.000000 -0.008097 0.000000
# 3 -0.001436 -0.002921 0.010082 0.000000 -0.001416 0.000000
# 4 0.000000 0.000000 0.000000 0.035209 0.000000 -0.012108
# 5 -0.023712 -0.008097 -0.001416 0.000000 0.063488 -0.000001
# 6 0.000000 0.000000 0.000000 -0.012108 -0.000001 0.114133
#
#
# Mechanical properties :
#
#
# Convention : Reuss Voigt Hill
#
# Bulk Modulus (GPa) = 22.45533 40.52888 31.49210
# Shear Modulus (GPa) = 16.88010 25.81393 21.34702
#
# Velocity S-wave (km/s) = 2.79345 3.45446 3.14139
# Velocity P-wave (km/s) = 4.55908 5.88616 5.26460
#
# Compressibility (1/GPa) = 0.04453286
#
# Stress axis : x y z
#
# Youngs Moduli (GPa) = 43.70491 42.42687 99.18672
#
# Poissons Ratio (x) = 0.06971 0.14243
# Poissons Ratio (y) = 0.07181 0.28971
# Poissons Ratio (z) = 0.06276 0.12392
#
# Static dielectric constant tensor:
#      x y z
#    x 1.845790 0.000000 -0.010940 
#    y 0.000000 1.777490 0.000000 
#    z -0.010940 0.000000 1.814950 
# 
# From -- ./inp_files/178312.got.cif
#   From: 2010.05.17/outbox.cif.g08.bks.cpg/sg15_90_cif.got.tgz:178312.got - 2010.06.03 18:47:42.
