data_PCOD9274332
_publ_section_title
;
Structure prediction by ZEFSAII (Michael W. Deem and Ramdas Pophale) SiO2 
 PCOD9274332
Probable space group: C 2/C
;
_chemical_formula_sum "Si O2"
_cell_formula_units_Z 56
_cell_length_a 9.237747
_cell_length_b 30.581123
_cell_length_c 17.423729
_cell_angle_alpha 90.000000
_cell_angle_beta 33.922731
_cell_angle_gamma 90.000000
_cell_volume 2746.962104
_symmetry_space_group_name_H-M "C 2/C"
_symmetry_group_IT_number 15
_symmetry_cell_setting 'monoclinic'
loop_
_space_group_symop_operation_xyz
x,y,z
-x,y,1/2-z
-x,-y,-z
x,-y,1/2+z
1/2+x,1/2+y,z
1/2-x,1/2+y,1/2-z
1/2-x,1/2-y,-z
1/2+x,1/2-y,1/2+z
loop_
_atom_site_type_symbol
_atom_site_label
_atom_site_fract_x
_atom_site_fract_y
_atom_site_fract_z
Si Si1 0.107508 0.916959 0.945426
Si Si2 0.500000 0.006613 0.250000
Si Si3 0.726634 0.657733 0.504148
Si Si4 0.828135 0.430014 0.233427
Si Si5 0.311276 0.811343 0.606364
Si Si6 0.000000 0.895161 0.250000
Si Si7 0.308744 0.287363 0.094734
Si Si8 0.747888 0.136002 0.510141
O O1 0.259894 0.960807 0.862172
O O2 0.263294 0.879003 0.922143
O O3 0.883864 0.926814 0.106275
O O4 0.983699 0.896941 0.922599
O O5 0.478073 0.974446 0.186633
O O6 0.618172 0.634757 0.629727
O O7 0.502387 0.690926 0.572362
O O8 0.001886 0.679530 0.403786
O O9 0.701034 0.426191 0.206195
O O10 0.010586 0.387527 0.157122
O O11 0.385815 0.762684 0.545587
O O12 0.348520 0.851031 0.530833
O O13 0.000000 0.810423 0.750000
O O14 0.331488 0.318693 0.011811
O O15 0.000000 0.288242 0.250000
#
# Coordination Sequence:
#
# PCOD9274332 Si02
#       8
#     8   4   8   8   8   4   8   8
#     4  10  23  39  63  91 120 161 208 254 313 383
#     4  12  24  40  64  93 122 152 205 270 320 370
#     4  10  21  40  64  88 129 166 210 250 314 373
#     4  11  21  39  64  91 118 155 213 255 308 379
#     4  11  24  38  59  94 134 165 207 258 317 369
#     4  10  20  38  62  93 112 164 205 256 306 372
#     4  10  21  38  63  94 126 163 216 261 299 369
#     4  11  20  40  65  87 121 169 207 253 308 371
#
# _framework density 20.386157999999998
#
# number of rings (size 3 to 8) (size 9 to 14) (size 15 to 20)
#    0.000    1.429    2.857    3.857    2.000    0.000 
#    0.000    4.286    0.000    0.000    0.000    0.000 
#    0.000    0.000    0.000    0.000    0.000    0.000 
#
# Total GULP energy -156138.665151 kJ/mol
# GULP energy per Si atom -5576.380898 kJ/mol
# Density = 2.033976 g / cm^3
# Si number density = 20.386158 Si / 1000 Ang^3
#
#
#
# Elastic Constant Matrix: (Units=GPa)
#
#
# Indices 1 2 3 4 5 6 
#
# 1 154.0830 50.2831 14.5472 0.0000 -21.9405 0.0000
# 2 50.2831 124.7543 23.6085 0.0000 -11.6695 0.0000
# 3 14.5472 23.6085 35.5476 0.0000 -8.9945 0.0000
# 4 0.0000 0.0000 0.0000 25.2864 0.0000 -11.8702
# 5 -21.9405 -11.6695 -8.9945 0.0000 26.4888 0.0000
# 6 0.0000 0.0000 0.0000 -11.8702 0.0000 20.5010
#
#
#
# Elastic Compliance Matrix: (Units=1/GPa)
#
#
# Indices 1 2 3 4 5 6 
#
# 1 0.008189 -0.002761 -0.000119 0.000000 0.005526 0.000000
# 2 -0.002761 0.010213 -0.005572 0.000000 0.000320 0.000000
# 3 -0.000119 -0.005572 0.034170 0.000000 0.009049 0.000000
# 4 0.000000 0.000000 0.000000 0.054308 0.000000 0.031444
# 5 0.005526 0.000320 0.009049 0.000000 0.045543 0.000000
# 6 0.000000 0.000000 0.000000 0.031444 0.000000 0.066985
#
#
# Mechanical properties :
#
#
# Convention : Reuss Voigt Hill
#
# Bulk Modulus (GPa) = 28.03631 54.58473 41.31052
# Shear Modulus (GPa) = 20.14489 29.51833 24.83161
#
# Velocity S-wave (km/s) = 3.14692 3.80933 3.49386
# Velocity P-wave (km/s) = 5.19486 6.79570 6.04848
#
# Compressibility (1/GPa) = 0.03566804
#
# Stress axis : x y z
#
# Youngs Moduli (GPa) = 122.11116 97.91375 29.26517
#
# Poissons Ratio (x) = 0.27037 0.00349
# Poissons Ratio (y) = 0.33718 0.16306
# Poissons Ratio (z) = 0.01455 0.54556
#
# Static dielectric constant tensor:
#      x y z
#    x 1.769420 0.000000 -0.036610 
#    y 0.000000 1.725430 0.000000 
#    z -0.036610 0.000000 1.777520 
# 
# From -- ./inp_files/193863.got.cif
#   From: 2010.05.17/outbox.cif.g08.bks.cpg/sg15_97_cif.got.tgz:193863.got - 2010.06.03 18:47:42.
