data_PCOD9274728
_publ_section_title
;
Structure prediction by ZEFSAII (Michael W. Deem and Ramdas Pophale) SiO2 
 PCOD9274728
Probable space group: C 2/C
;
_chemical_formula_sum "Si O2"
_cell_formula_units_Z 52
_cell_length_a 23.280659
_cell_length_b 11.534646
_cell_length_c 13.496399
_cell_angle_alpha 90.000000
_cell_angle_beta 135.745984
_cell_angle_gamma 90.000000
_cell_volume 2529.144964
_symmetry_space_group_name_H-M "C 2/C"
_symmetry_group_IT_number 15
_symmetry_cell_setting 'monoclinic'
loop_
_space_group_symop_operation_xyz
x,y,z
-x,y,1/2-z
-x,-y,-z
x,-y,1/2+z
1/2+x,1/2+y,z
1/2-x,1/2+y,1/2-z
1/2-x,1/2-y,-z
1/2+x,1/2-y,1/2+z
loop_
_atom_site_type_symbol
_atom_site_label
_atom_site_fract_x
_atom_site_fract_y
_atom_site_fract_z
Si Si1 0.867483 0.015514 0.882399
Si Si2 0.258036 0.885635 0.126692
Si Si3 0.553876 0.929437 0.116763
Si Si4 0.562886 0.027247 0.889585
Si Si5 0.500000 0.200197 0.250000
Si Si6 0.002308 0.186640 0.545633
Si Si7 0.759665 0.373846 0.895409
O O1 0.818328 0.048073 0.920056
O O2 0.920138 0.124540 0.909171
O O3 0.796275 0.972373 0.721218
O O4 0.931178 0.909338 0.968895
O O5 0.346719 0.942222 0.255213
O O6 0.261088 0.753679 0.170843
O O7 0.243719 0.876124 0.992429
O O8 0.538064 0.933841 0.227733
O O9 0.529056 0.797062 0.056040
O O10 0.541857 0.002230 0.989257
O O11 0.571315 0.891359 0.869056
O O12 0.644292 0.101106 0.000956
O O13 0.476650 0.270111 0.317996
#
# Coordination Sequence:
#
# PCOD9274728 Si02
#       7
#     8   8   8   8   4   8   8
#     4  11  26  44  67  98 131 178 216 271 337 391
#     4  11  24  42  65  98 132 174 216 275 327 383
#     4  12  20  41  67  93 134 170 218 271 318 395
#     4  10  20  38  64  97 122 169 213 260 327 375
#     4  10  22  42  66  94 124 168 226 272 312 396
#     4  11  25  45  64  97 132 176 219 266 335 397
#     4  11  23  44  65  97 134 168 223 273 325 394
#
# _framework density 20.560307999999999
#
# number of rings (size 3 to 8) (size 9 to 14) (size 15 to 20)
#    0.462    0.615    4.615    1.846    2.154    0.000 
#    0.000    0.769    0.000    0.000    0.000    0.000 
#    0.000    0.000    0.000    0.000    0.000    0.000 
#
# Total GULP energy -144885.227610 kJ/mol
# GULP energy per Si atom -5572.508754 kJ/mol
# Density = 2.051351 g / cm^3
# Si number density = 20.560308 Si / 1000 Ang^3
#
#
#
# Elastic Constant Matrix: (Units=GPa)
#
#
# Indices 1 2 3 4 5 6 
#
# 1 165.5413 46.8247 41.2511 0.0000 -5.7953 0.0000
# 2 46.8247 84.0262 14.7382 0.0000 -9.5536 0.0000
# 3 41.2511 14.7382 67.6622 0.0000 -3.1432 0.0000
# 4 0.0000 0.0000 0.0000 27.7935 0.0000 -2.0896
# 5 -5.7953 -9.5536 -3.1432 0.0000 36.2039 0.0000
# 6 0.0000 0.0000 0.0000 -2.0896 0.0000 21.6402
#
#
#
# Elastic Compliance Matrix: (Units=1/GPa)
#
#
# Indices 1 2 3 4 5 6 
#
# 1 0.008152 -0.003824 -0.004140 0.000000 -0.000064 0.000000
# 2 -0.003824 0.014511 -0.000683 0.000000 0.003158 0.000000
# 3 -0.004140 -0.000683 0.017483 0.000000 0.000675 0.000000
# 4 0.000000 0.000000 0.000000 0.036243 0.000000 0.003500
# 5 -0.000064 0.003158 0.000675 0.000000 0.028503 0.000000
# 6 0.000000 0.000000 0.000000 0.003500 0.000000 0.046548
#
#
# Mechanical properties :
#
#
# Convention : Reuss Voigt Hill
#
# Bulk Modulus (GPa) = 43.75825 58.09529 50.92677
# Shear Modulus (GPa) = 28.35266 31.42190 29.88728
#
# Velocity S-wave (km/s) = 3.71752 3.91356 3.81680
# Velocity P-wave (km/s) = 6.30521 6.98131 6.65185
#
# Compressibility (1/GPa) = 0.02285283
#
# Stress axis : x y z
#
# Youngs Moduli (GPa) = 122.67296 68.91468 57.19744
#
# Poissons Ratio (x) = 0.26351 0.23679
# Poissons Ratio (y) = 0.46907 0.03906
# Poissons Ratio (z) = 0.50785 0.04706
#
# Static dielectric constant tensor:
#      x y z
#    x 1.803030 0.000000 -0.165970 
#    y 0.000000 1.716610 0.000000 
#    z -0.165970 0.000000 1.918250 
# 
# From -- ./inp_files/118071.got.cif
#   From: 2010.05.17/outbox.cif.g08.bks.cpg/sg15_60_cif.got.tgz:118071.got - 2010.06.03 18:47:42.
