data_PCOD9274725
_publ_section_title
;
Structure prediction by ZEFSAII (Michael W. Deem and Ramdas Pophale) SiO2 
 PCOD9274725
Probable space group: C 2/C
;
_chemical_formula_sum "Si O2"
_cell_formula_units_Z 48
_cell_length_a 4.871797
_cell_length_b 15.686571
_cell_length_c 29.414382
_cell_angle_alpha 90.000000
_cell_angle_beta 118.896955
_cell_angle_gamma 90.000000
_cell_volume 1968.014190
_symmetry_space_group_name_H-M "C 2/C"
_symmetry_group_IT_number 15
_symmetry_cell_setting 'monoclinic'
loop_
_space_group_symop_operation_xyz
x,y,z
-x,y,1/2-z
-x,-y,-z
x,-y,1/2+z
1/2+x,1/2+y,z
1/2-x,1/2+y,1/2-z
1/2-x,1/2-y,-z
1/2+x,1/2-y,1/2+z
loop_
_atom_site_type_symbol
_atom_site_label
_atom_site_fract_x
_atom_site_fract_y
_atom_site_fract_z
Si Si1 0.302005 0.298451 0.574528
Si Si2 0.685761 0.374077 0.025366
Si Si3 0.118727 0.542589 0.439015
Si Si4 0.500000 0.771666 0.250000
Si Si5 0.167506 0.856491 0.682504
Si Si6 0.500000 0.384080 0.250000
Si Si7 0.379563 0.970282 0.826223
O O1 0.329766 0.330558 0.525233
O O2 0.191653 0.201161 0.562326
O O3 0.605369 0.308109 0.629741
O O4 0.079305 0.370514 0.577468
O O5 0.956622 0.445329 0.051828
O O6 0.369411 0.428450 0.997454
O O7 0.149885 0.524870 0.386896
O O8 0.430224 0.712922 0.288028
O O9 0.185486 0.829436 0.226708
O O10 0.501417 0.901720 0.701271
O O11 0.933182 0.934708 0.674696
O O12 0.231142 0.442987 0.205913
#
# Coordination Sequence:
#
# PCOD9274725 Si02
#       7
#     8   8   8   4   8   4   8
#     4  10  21  38  63 100 137 182 233 284 351 425
#     4  10  20  38  64  96 139 182 228 286 346 424
#     4  10  21  38  63 100 137 182 233 284 351 425
#     4  12  27  46  71 108 140 180 244 312 367 428
#     4  11  24  46  73 100 140 190 236 290 362 435
#     4  12  27  46  71 108 140 180 244 312 367 428
#     4  11  24  46  73 100 140 190 236 290 362 435
#
# _framework density 24.390070000000001
#
# number of rings (size 3 to 8) (size 9 to 14) (size 15 to 20)
#    0.000    1.333    1.667    3.500    2.333    1.333 
#    0.000    0.000    0.000    0.000    0.000    0.000 
#    0.000    0.000    0.000    0.000    0.000    0.000 
#
# Total GULP energy -133608.950266 kJ/mol
# GULP energy per Si atom -5567.039594 kJ/mol
# Density = 2.433456 g / cm^3
# Si number density = 24.390070 Si / 1000 Ang^3
#
#
#
# Elastic Constant Matrix: (Units=GPa)
#
#
# Indices 1 2 3 4 5 6 
#
# 1 86.9956 33.7733 19.3880 0.0000 -9.9584 0.0000
# 2 33.7733 162.9749 38.4159 0.0000 -5.9784 0.0000
# 3 19.3880 38.4159 82.6100 0.0000 -18.8445 0.0000
# 4 0.0000 0.0000 0.0000 17.7558 0.0000 -5.8892
# 5 -9.9584 -5.9784 -18.8445 0.0000 28.0993 0.0000
# 6 0.0000 0.0000 0.0000 -5.8892 0.0000 39.9855
#
#
#
# Elastic Compliance Matrix: (Units=1/GPa)
#
#
# Indices 1 2 3 4 5 6 
#
# 1 0.013038 -0.002288 -0.001243 0.000000 0.003300 0.000000
# 2 -0.002288 0.007308 -0.003178 0.000000 -0.001387 0.000000
# 3 -0.001243 -0.003178 0.016080 0.000000 0.009667 0.000000
# 4 0.000000 0.000000 0.000000 0.059212 0.000000 0.008721
# 5 0.003300 -0.001387 0.009667 0.000000 0.042946 0.000000
# 6 0.000000 0.000000 0.000000 0.008721 0.000000 0.026294
#
#
# Mechanical properties :
#
#
# Convention : Reuss Voigt Hill
#
# Bulk Modulus (GPa) = 43.46320 57.30388 50.38354
# Shear Modulus (GPa) = 26.88684 33.23500 30.06092
#
# Velocity S-wave (km/s) = 3.32380 3.69541 3.51452
# Velocity P-wave (km/s) = 5.70867 6.46172 6.09683
#
# Compressibility (1/GPa) = 0.02300797
#
# Stress axis : x y z
#
# Youngs Moduli (GPa) = 76.70004 136.83204 62.18927
#
# Poissons Ratio (x) = 0.31303 0.07732
# Poissons Ratio (y) = 0.17547 0.19764
# Poissons Ratio (z) = 0.09536 0.43486
#
# Static dielectric constant tensor:
#      x y z
#    x 2.020340 0.000000 0.089620 
#    y 0.000000 1.992150 0.000000 
#    z 0.089620 0.000000 2.059900 
# 
# From -- ./inp_files/305505.got.cif
#   From: 2010.05.17/outbox.cif.g08.bks.cpg/sg15_153_cif.got.tgz:305505.got - 2010.06.03 18:47:42.
