data_PCOD9274324
_publ_section_title
;
Structure prediction by ZEFSAII (Michael W. Deem and Ramdas Pophale) SiO2 
 PCOD9274324
Probable space group: C 2/C
;
_chemical_formula_sum "Si O2"
_cell_formula_units_Z 36
_cell_length_a 22.930681
_cell_length_b 8.587189
_cell_length_c 14.203512
_cell_angle_alpha 90.000000
_cell_angle_beta 150.535084
_cell_angle_gamma 90.000000
_cell_volume 1375.726716
_symmetry_space_group_name_H-M "C 2/C"
_symmetry_group_IT_number 15
_symmetry_cell_setting 'monoclinic'
loop_
_space_group_symop_operation_xyz
x,y,z
-x,y,1/2-z
-x,-y,-z
x,-y,1/2+z
1/2+x,1/2+y,z
1/2-x,1/2+y,1/2-z
1/2-x,1/2-y,-z
1/2+x,1/2-y,1/2+z
loop_
_atom_site_type_symbol
_atom_site_label
_atom_site_fract_x
_atom_site_fract_y
_atom_site_fract_z
Si Si1 0.500000 0.596260 0.750000
Si Si2 0.764671 0.005425 0.329770
Si Si3 0.873983 0.691327 0.222234
Si Si4 0.681460 0.673803 0.274046
Si Si5 0.918871 0.350946 0.222869
O O1 0.379891 0.506456 0.558085
O O2 0.532741 0.692982 0.699552
O O3 0.676045 0.141975 0.243622
O O4 0.810753 0.040076 0.290615
O O5 0.705204 0.838371 0.256363
O O6 0.933952 0.525103 0.281149
O O7 0.750000 0.750000 0.000000
O O8 0.786869 0.639326 0.494630
O O9 0.570691 0.717649 0.183508
O O10 0.000000 0.319013 0.250000
#
# Coordination Sequence:
#
# PCOD9274324 Si02
#       5
#     4   8   8   8   8
#     4  10  20  38  62  92 126 162 214 260 322 374
#     4  10  23  40  62  93 129 166 212 263 318 376
#     4   9  19  36  63  89 123 164 207 262 314 373
#     4  10  24  41  64  95 133 166 215 265 319 374
#     4  10  21  41  66  91 129 174 209 259 325 384
#
# _framework density 26.167985999999999
#
# number of rings (size 3 to 8) (size 9 to 14) (size 15 to 20)
#    0.000    2.222    1.111    0.000    7.778    1.778 
#    0.000    6.667    0.000    0.000    0.000    0.000 
#    0.000    0.000    0.000    0.000    0.000    0.000 
#
# Total GULP energy -100477.500674 kJ/mol
# GULP energy per Si atom -5582.083371 kJ/mol
# Density = 2.610843 g / cm^3
# Si number density = 26.167986 Si / 1000 Ang^3
#
#
#
# Elastic Constant Matrix: (Units=GPa)
#
#
# Indices 1 2 3 4 5 6 
#
# 1 140.4343 20.2237 -15.2650 0.0000 22.0233 0.0000
# 2 20.2237 62.0992 -5.4364 0.0000 5.1431 0.0000
# 3 -15.2650 -5.4364 41.9943 0.0000 14.5647 0.0000
# 4 0.0000 0.0000 0.0000 -14.8673 0.0000 6.8993
# 5 22.0233 5.1431 14.5647 0.0000 33.2034 0.0000
# 6 0.0000 0.0000 0.0000 6.8993 0.0000 53.2496
#
#
#
# Elastic Compliance Matrix: (Units=1/GPa)
#
#
# Indices 1 2 3 4 5 6 
#
# 1 0.009417 -0.001804 0.006203 0.000000 -0.008688 0.000000
# 2 -0.001804 0.017113 0.002434 0.000000 -0.002522 0.000000
# 3 0.006203 0.002434 0.032954 0.000000 -0.018946 0.000000
# 4 0.000000 0.000000 0.000000 -0.063447 0.000000 0.008220
# 5 -0.008688 -0.002522 -0.018946 0.000000 0.044581 0.000000
# 6 0.000000 0.000000 0.000000 0.008220 0.000000 0.017714
#
#
# Mechanical properties :
#
#
# Convention : Reuss Voigt Hill
#
# Bulk Modulus (GPa) = 13.67086 27.06359 20.36723
# Shear Modulus (GPa) = 72.41089 30.65083 51.53086
#
# Velocity S-wave (km/s) = 5.26608 3.42615 4.44242
# Velocity P-wave (km/s) = 6.49701 5.10060 5.84068
#
# Compressibility (1/GPa) = 0.07314828
#
# Stress axis : x y z
#
# Youngs Moduli (GPa) = 106.18804 58.43572 30.34575
#
# Poissons Ratio (x) = 0.10544 -0.18823
# Poissons Ratio (y) = 0.19160 -0.07386
# Poissons Ratio (z) = -0.65865 -0.14223
#
# Static dielectric constant tensor:
#      x y z
#    x 2.202380 0.000000 0.034420 
#    y 0.000000 2.048880 0.000000 
#    z 0.034420 0.000000 2.069280 
# 
# From -- ./inp_files/151172.got.cif
#   From: 2010.05.17/outbox.cif.g08.bks.cpg/sg15_76_cif.got.tgz:151172.got - 2010.06.03 18:47:42.
