data_PCOD9274878
_publ_section_title
;
Structure prediction by ZEFSAII (Michael W. Deem and Ramdas Pophale) SiO2 
 PCOD9274878
Probable space group: C 2/C
;
_chemical_formula_sum "Si O2"
_cell_formula_units_Z 36
_cell_length_a 20.197272
_cell_length_b 8.128979
_cell_length_c 12.593047
_cell_angle_alpha 90.000000
_cell_angle_beta 128.734793
_cell_angle_gamma 90.000000
_cell_volume 1612.806652
_symmetry_space_group_name_H-M "C 2/C"
_symmetry_group_IT_number 15
_symmetry_cell_setting 'monoclinic'
loop_
_space_group_symop_operation_xyz
x,y,z
-x,y,1/2-z
-x,-y,-z
x,-y,1/2+z
1/2+x,1/2+y,z
1/2-x,1/2+y,1/2-z
1/2-x,1/2-y,-z
1/2+x,1/2-y,1/2+z
loop_
_atom_site_type_symbol
_atom_site_label
_atom_site_fract_x
_atom_site_fract_y
_atom_site_fract_z
Si Si1 0.173195 0.128171 0.459204
Si Si2 0.431512 0.136337 0.252950
Si Si3 0.500000 0.178916 0.750000
Si Si4 0.218525 0.419024 0.065931
Si Si5 0.183045 0.728847 0.180542
O O1 0.250000 0.250000 0.500000
O O2 0.082572 0.210264 0.346932
O O3 0.179815 0.122590 0.592822
O O4 0.195703 0.970400 0.411620
O O5 0.500000 0.232432 0.250000
O O6 0.399360 0.212738 0.328737
O O7 0.475757 0.956722 0.316125
O O8 0.352593 0.102139 0.094771
O O9 0.193184 0.565685 0.120544
O O10 0.240146 0.265418 0.161903
#
# Coordination Sequence:
#
# PCOD9274878 Si02
#       5
#     8   8   4   8   8
#     4  10  20  41  61  92 128 158 211 255 308 370
#     4  10  21  39  62  93 125 157 212 258 299 374
#     4  10  20  38  66  88 128 162 198 272 292 370
#     4  11  23  40  66  91 127 163 208 257 306 375
#     4  11  22  39  66  91 122 168 204 248 322 364
#
# _framework density 22.321335999999999
#
# number of rings (size 3 to 8) (size 9 to 14) (size 15 to 20)
#    0.667    0.889    4.444    2.000    3.111    3.556 
#    2.000    1.111    0.000    0.000    0.000    0.000 
#    0.000    0.000    0.000    0.000    0.000    0.000 
#
# Total GULP energy -100362.447081 kJ/mol
# GULP energy per Si atom -5575.691505 kJ/mol
# Density = 2.227053 g / cm^3
# Si number density = 22.321336 Si / 1000 Ang^3
#
#
#
# Elastic Constant Matrix: (Units=GPa)
#
#
# Indices 1 2 3 4 5 6 
#
# 1 168.2353 33.4481 65.3370 0.0000 -18.9935 0.0000
# 2 33.4481 58.5392 25.0891 0.0000 -11.8911 0.0000
# 3 65.3370 25.0891 76.0995 0.0000 -11.6037 0.0000
# 4 0.0000 0.0000 0.0000 30.1286 0.0000 -8.1395
# 5 -18.9935 -11.8911 -11.6037 0.0000 50.7346 0.0000
# 6 0.0000 0.0000 0.0000 -8.1395 0.0000 35.5021
#
#
#
# Elastic Compliance Matrix: (Units=1/GPa)
#
#
# Indices 1 2 3 4 5 6 
#
# 1 0.009237 -0.001967 -0.007072 0.000000 0.001380 0.000000
# 2 -0.001967 0.020852 -0.004718 0.000000 0.003072 0.000000
# 3 -0.007072 -0.004718 0.020926 0.000000 0.001033 0.000000
# 4 0.000000 0.000000 0.000000 0.035383 0.000000 0.008112
# 5 0.001380 0.003072 0.001033 0.000000 0.021183 0.000000
# 6 0.000000 0.000000 0.000000 0.008112 0.000000 0.030027
#
#
# Mechanical properties :
#
#
# Convention : Reuss Voigt Hill
#
# Bulk Modulus (GPa) = 42.54977 61.18026 51.86501
# Shear Modulus (GPa) = 28.90915 35.20640 32.05778
#
# Velocity S-wave (km/s) = 3.60270 3.97577 3.79383
# Velocity P-wave (km/s) = 6.03405 6.96736 6.51743
#
# Compressibility (1/GPa) = 0.02350189
#
# Stress axis : x y z
#
# Youngs Moduli (GPa) = 108.25465 47.95631 47.78844
#
# Poissons Ratio (x) = 0.09432 0.33797
# Poissons Ratio (y) = 0.21291 0.22545
# Poissons Ratio (z) = 0.76560 0.22624
#
# Static dielectric constant tensor:
#      x y z
#    x 1.843400 0.000000 0.008250 
#    y 0.000000 1.935990 0.000000 
#    z 0.008250 0.000000 1.840040 
# 
# From -- ./inp_files/109848.got.cif
#   From: 2010.05.17/outbox.cif.g08.bks.cpg/sg15_55_cif.got.tgz:109848.got - 2010.06.03 18:47:42.
