data_PCOD9274940
_publ_section_title
;
Structure prediction by ZEFSAII (Michael W. Deem and Ramdas Pophale) SiO2 
 PCOD9274940
Probable space group: C 2/C
;
_chemical_formula_sum "Si O2"
_cell_formula_units_Z 48
_cell_length_a 17.546717
_cell_length_b 8.191190
_cell_length_c 18.345199
_cell_angle_alpha 90.000000
_cell_angle_beta 132.485862
_cell_angle_gamma 90.000000
_cell_volume 1944.439149
_symmetry_space_group_name_H-M "C 2/C"
_symmetry_group_IT_number 15
_symmetry_cell_setting 'monoclinic'
loop_
_space_group_symop_operation_xyz
x,y,z
-x,y,1/2-z
-x,-y,-z
x,-y,1/2+z
1/2+x,1/2+y,z
1/2-x,1/2+y,1/2-z
1/2-x,1/2-y,-z
1/2+x,1/2-y,1/2+z
loop_
_atom_site_type_symbol
_atom_site_label
_atom_site_fract_x
_atom_site_fract_y
_atom_site_fract_z
Si Si1 0.800552 0.516305 0.526195
Si Si2 0.721743 0.703857 0.346013
Si Si3 0.500000 0.572305 0.250000
Si Si4 0.732419 0.496082 0.719946
Si Si5 0.500000 0.939705 0.750000
Si Si6 0.965457 0.822542 0.345122
Si Si7 0.830382 0.196463 0.452551
O O1 0.782977 0.669724 0.460847
O O2 0.910308 0.520454 0.641282
O O3 0.791442 0.361964 0.464626
O O4 0.717910 0.455915 0.533193
O O5 0.603778 0.660340 0.291447
O O6 0.775406 0.582833 0.321436
O O7 0.713018 0.874019 0.297078
O O8 0.524609 0.452832 0.332584
O O9 0.632051 0.592239 0.683497
O O10 0.699248 0.342960 0.648625
O O11 0.556467 0.824123 0.725721
O O12 0.046916 0.783568 0.460075
#
# Coordination Sequence:
#
# PCOD9274940 Si02
#       7
#     8   8   4   8   4   8   8
#     4  10  21  39  69  93 130 180 227 272 335 404
#     4  11  23  42  66 101 136 182 222 281 338 401
#     4   9  18  38  63  92 128 177 233 256 322 413
#     4  11  24  37  68  98 141 167 223 282 342 392
#     4   9  20  36  67  92 128 171 233 272 326 401
#     4   9  18  37  64  93 121 174 224 267 318 411
#     4  10  20  38  66  95 123 173 223 271 330 400
#
# _framework density 24.685780999999999
#
# number of rings (size 3 to 8) (size 9 to 14) (size 15 to 20)
#    0.000    2.000    1.667    1.500    9.333    0.667 
#    0.000    4.167   11.000    1.000    0.000    0.000 
#    0.000    0.000    0.000    0.000    0.000    0.000 
#
# Total GULP energy -133920.795156 kJ/mol
# GULP energy per Si atom -5580.033132 kJ/mol
# Density = 2.462959 g / cm^3
# Si number density = 24.685781 Si / 1000 Ang^3
#
#
#
# Elastic Constant Matrix: (Units=GPa)
#
#
# Indices 1 2 3 4 5 6 
#
# 1 54.7520 21.4486 49.2890 0.0000 -10.0036 0.0000
# 2 21.4486 90.3408 43.6355 0.0000 -20.5486 0.0000
# 3 49.2890 43.6355 184.0694 0.0000 -26.3360 0.0000
# 4 0.0000 0.0000 0.0000 41.2222 0.0000 -29.5310
# 5 -10.0036 -20.5486 -26.3360 0.0000 34.5597 0.0000
# 6 0.0000 0.0000 0.0000 -29.5310 0.0000 30.0178
#
#
#
# Elastic Compliance Matrix: (Units=1/GPa)
#
#
# Indices 1 2 3 4 5 6 
#
# 1 0.024807 -0.002839 -0.005818 0.000000 0.001059 0.000000
# 2 -0.002839 0.013958 -0.001660 0.000000 0.006213 0.000000
# 3 -0.005818 -0.001660 0.007859 0.000000 0.003318 0.000000
# 4 0.000000 0.000000 0.000000 0.082169 0.000000 0.080836
# 5 0.001059 0.006213 0.003318 0.000000 0.035464 0.000000
# 6 0.000000 0.000000 0.000000 0.080836 0.000000 0.112839
#
#
# Mechanical properties :
#
#
# Convention : Reuss Voigt Hill
#
# Bulk Modulus (GPa) = 38.47516 61.98982 50.23249
# Shear Modulus (GPa) = 16.31887 35.47923 25.89905
#
# Velocity S-wave (km/s) = 2.57391 3.79520 3.24257
# Velocity P-wave (km/s) = 4.94501 6.66114 5.86617
#
# Compressibility (1/GPa) = 0.02599079
#
# Stress axis : x y z
#
# Youngs Moduli (GPa) = 40.31039 71.64370 127.24388
#
# Poissons Ratio (x) = 0.20336 0.74035
# Poissons Ratio (y) = 0.11442 0.21121
# Poissons Ratio (z) = 0.23454 0.11892
#
# Static dielectric constant tensor:
#      x y z
#    x 1.916240 0.000000 0.009320 
#    y 0.000000 2.073680 0.000000 
#    z 0.009320 0.000000 1.945430 
# 
# From -- ./inp_files/214112.got.cif
#   From: 2010.05.17/outbox.cif.g08.bks.cpg/sg15_108_cif.got.tgz:214112.got - 2010.06.03 18:47:42.
