data_PCOD9274119
_publ_section_title
;
Structure prediction by ZEFSAII (Michael W. Deem and Ramdas Pophale) SiO2 
 PCOD9274119
Probable space group: C 2/C
;
_chemical_formula_sum "Si O2"
_cell_formula_units_Z 60
_cell_length_a 11.378870
_cell_length_b 12.153020
_cell_length_c 24.064218
_cell_angle_alpha 90.000000
_cell_angle_beta 134.873355
_cell_angle_gamma 90.000000
_cell_volume 2358.293954
_symmetry_space_group_name_H-M "C 2/C"
_symmetry_group_IT_number 15
_symmetry_cell_setting 'monoclinic'
loop_
_space_group_symop_operation_xyz
x,y,z
-x,y,1/2-z
-x,-y,-z
x,-y,1/2+z
1/2+x,1/2+y,z
1/2-x,1/2+y,1/2-z
1/2-x,1/2-y,-z
1/2+x,1/2-y,1/2+z
loop_
_atom_site_type_symbol
_atom_site_label
_atom_site_fract_x
_atom_site_fract_y
_atom_site_fract_z
Si Si1 0.563387 0.499659 0.831790
Si Si2 0.159352 0.081138 0.612520
Si Si3 0.500000 0.166063 0.250000
Si Si4 0.795589 0.514935 0.260715
Si Si5 0.625979 0.264496 0.846018
Si Si6 0.988560 0.383612 0.087058
Si Si7 0.757605 0.286297 0.407740
Si Si8 0.777048 0.942607 0.971157
O O1 0.500000 0.536181 0.750000
O O2 0.391984 0.443664 0.797023
O O3 0.673379 0.391812 0.866436
O O4 0.652410 0.604825 0.888412
O O5 0.201061 0.201054 0.605363
O O6 0.969623 0.046679 0.551581
O O7 0.260981 0.076803 0.703017
O O8 0.238216 0.995866 0.595677
O O9 0.425452 0.097348 0.276758
O O10 0.654455 0.236253 0.322165
O O11 0.864820 0.458907 0.338339
O O12 0.500000 0.254932 0.750000
O O13 0.556782 0.206092 0.879611
O O14 0.066028 0.325044 0.058771
O O15 0.840947 0.474481 0.033601
O O16 0.752381 0.187529 0.451009
#
# Coordination Sequence:
#
# PCOD9274119 Si02
#       8
#     8   8   4   8   8   8   8   8
#     4  11  24  37  57  98 135 167 218 281 343 407
#     4  10  21  42  65  96 130 169 228 283 343 417
#     4  12  20  36  70  98 128 168 220 284 348 392
#     4  12  20  39  66  97 131 164 224 288 341 400
#     4  10  20  38  61  91 128 168 215 284 343 401
#     4  11  21  39  69  99 124 171 233 282 339 406
#     4  12  22  42  62  99 135 174 224 277 342 411
#     4  10  23  42  67  96 133 176 224 284 347 414
#
# _framework density 25.442122000000001
#
# number of rings (size 3 to 8) (size 9 to 14) (size 15 to 20)
#    0.000    1.067    6.000    1.600    0.000    0.000 
#    4.800    3.333    0.000    0.000    0.000    0.000 
#    0.000    0.000    0.000    0.000    0.000    0.000 
#
# Total GULP energy -167484.010431 kJ/mol
# GULP energy per Si atom -5582.800348 kJ/mol
# Density = 2.538421 g / cm^3
# Si number density = 25.442122 Si / 1000 Ang^3
#
#
#
# Elastic Constant Matrix: (Units=GPa)
#
#
# Indices 1 2 3 4 5 6 
#
# 1 69.7211 24.8958 11.1014 0.0000 6.8716 0.0000
# 2 24.8958 156.6063 33.6628 0.0000 8.8815 0.0000
# 3 11.1014 33.6628 80.2346 0.0000 15.9644 0.0000
# 4 0.0000 0.0000 0.0000 47.1397 0.0000 -0.1835
# 5 6.8716 8.8815 15.9644 0.0000 31.8684 0.0000
# 6 0.0000 0.0000 0.0000 -0.1835 0.0000 28.1755
#
#
#
# Elastic Compliance Matrix: (Units=1/GPa)
#
#
# Indices 1 2 3 4 5 6 
#
# 1 0.015468 -0.002161 -0.000766 0.000000 -0.002349 0.000000
# 2 -0.002161 0.007329 -0.002735 0.000000 -0.000207 0.000000
# 3 -0.000766 -0.002735 0.015030 0.000000 -0.006602 0.000000
# 4 0.000000 0.000000 0.000000 0.021214 0.000000 0.000138
# 5 -0.002349 -0.000207 -0.006602 0.000000 0.035250 0.000000
# 6 0.000000 0.000000 0.000000 0.000138 0.000000 0.035493
#
#
# Mechanical properties :
#
#
# Convention : Reuss Voigt Hill
#
# Bulk Modulus (GPa) = 37.73092 49.54245 43.63669
# Shear Modulus (GPa) = 33.34620 37.23020 35.28820
#
# Velocity S-wave (km/s) = 3.62424 3.82950 3.72828
# Velocity P-wave (km/s) = 5.68998 6.25046 5.97679
#
# Compressibility (1/GPa) = 0.02650346
#
# Stress axis : x y z
#
# Youngs Moduli (GPa) = 64.64944 136.45347 66.53188
#
# Poissons Ratio (x) = 0.29489 0.05097
# Poissons Ratio (y) = 0.13971 0.18194
# Poissons Ratio (z) = 0.04953 0.37315
#
# Static dielectric constant tensor:
#      x y z
#    x 2.228380 0.000000 -0.056070 
#    y 0.000000 2.035260 0.000000 
#    z -0.056070 0.000000 1.994480 
# 
# From -- ./inp_files/310805.got.cif
#   From: 2010.05.17/outbox.cif.g08.bks.cpg/sg15_156_cif.got.tgz:310805.got - 2010.06.03 18:47:42.
