data_PCOD9274594
_publ_section_title
;
Structure prediction by ZEFSAII (Michael W. Deem and Ramdas Pophale) SiO2 
 PCOD9274594
Probable space group: C 2/C
;
_chemical_formula_sum "Si O2"
_cell_formula_units_Z 48
_cell_length_a 9.591721
_cell_length_b 28.115372
_cell_length_c 18.583430
_cell_angle_alpha 90.000000
_cell_angle_beta 151.338437
_cell_angle_gamma 90.000000
_cell_volume 2403.682343
_symmetry_space_group_name_H-M "C 2/C"
_symmetry_group_IT_number 15
_symmetry_cell_setting 'monoclinic'
loop_
_space_group_symop_operation_xyz
x,y,z
-x,y,1/2-z
-x,-y,-z
x,-y,1/2+z
1/2+x,1/2+y,z
1/2-x,1/2+y,1/2-z
1/2-x,1/2-y,-z
1/2+x,1/2-y,1/2+z
loop_
_atom_site_type_symbol
_atom_site_label
_atom_site_fract_x
_atom_site_fract_y
_atom_site_fract_z
Si Si1 0.706818 0.544915 0.410777
Si Si2 0.739008 0.561770 0.919814
Si Si3 0.785086 0.211076 0.333744
Si Si4 0.869279 0.870305 0.347316
Si Si5 0.828596 0.762628 0.367579
Si Si6 0.695224 0.620245 0.518464
O O1 0.500000 0.538707 0.250000
O O2 0.783821 0.491567 0.472295
O O3 0.588869 0.577930 0.419888
O O4 0.972855 0.572188 0.493861
O O5 0.500000 0.558164 0.750000
O O6 0.616853 0.601362 0.917577
O O7 0.500000 0.195994 0.250000
O O8 0.687080 0.230858 0.211466
O O9 0.959821 0.247059 0.467764
O O10 0.012456 0.168257 0.422927
O O11 0.927469 0.814560 0.384470
O O12 0.848779 0.891659 0.417921
O O13 0.543702 0.873518 0.166968
O O14 0.500000 0.766343 0.250000
#
# Coordination Sequence:
#
# PCOD9274594 Si02
#       6
#     8   8   8   8   8   8
#     4  10  22  38  59  95 124 156 200 259 311 357
#     4  10  20  38  64  88 123 161 208 250 298 375
#     4  11  24  42  63  93 129 164 211 266 315 373
#     4  10  20  39  65  88 119 167 210 248 302 375
#     4  11  22  42  65  92 125 169 212 259 315 375
#     4  10  21  40  61  88 125 162 203 255 310 365
#
# _framework density 19.969362
#
# number of rings (size 3 to 8) (size 9 to 14) (size 15 to 20)
#    0.000    1.667    5.000    1.000    0.000    4.667 
#    0.000    0.000    3.667    0.000    0.000    0.000 
#    0.000    0.000    0.000    0.000    0.000    0.000 
#
# Total GULP energy -133724.848886 kJ/mol
# GULP energy per Si atom -5571.868704 kJ/mol
# Density = 1.992391 g / cm^3
# Si number density = 19.969362 Si / 1000 Ang^3
#
#
#
# Elastic Constant Matrix: (Units=GPa)
#
#
# Indices 1 2 3 4 5 6 
#
# 1 92.7584 58.8519 12.4360 -0.0034 5.6630 -0.0006
# 2 58.8519 60.2686 -5.7771 -0.0023 -9.5043 0.0000
# 3 12.4360 -5.7771 41.4424 -0.0041 -1.8768 0.0011
# 4 -0.0034 -0.0023 -0.0041 15.5836 0.0009 -2.9906
# 5 5.6630 -9.5043 -1.8768 0.0009 39.3803 0.0004
# 6 -0.0006 0.0000 0.0011 -2.9906 0.0004 33.1235
#
#
#
# Elastic Compliance Matrix: (Units=1/GPa)
#
#
# Indices 1 2 3 4 5 6 
#
# 1 0.049128 -0.053518 -0.023158 -0.000002 -0.021085 0.000002
# 2 -0.053518 0.075833 0.027868 0.000005 0.027326 -0.000002
# 3 -0.023158 0.027868 0.035496 0.000008 0.011748 -0.000001
# 4 -0.000002 0.000005 0.000008 0.065301 0.000000 0.005896
# 5 -0.021085 0.027326 0.011748 0.000000 0.035580 -0.000001
# 6 0.000002 -0.000002 -0.000001 0.005896 -0.000001 0.030722
#
#
# Mechanical properties :
#
#
# Convention : Reuss Voigt Hill
#
# Bulk Modulus (GPa) = 15.91280 36.16566 26.03923
# Shear Modulus (GPa) = 12.17664 26.21473 19.19568
#
# Velocity S-wave (km/s) = 2.47202 3.62712 3.10378
# Velocity P-wave (km/s) = 4.01669 5.97421 5.09043
#
# Compressibility (1/GPa) = 0.06284248
#
# Stress axis : x y z
#
# Youngs Moduli (GPa) = 20.35508 13.18689 28.17225
#
# Poissons Ratio (x) = 0.70573 0.65240
# Poissons Ratio (y) = 1.08936 -0.78511
# Poissons Ratio (z) = 0.47137 -0.36750
#
# Static dielectric constant tensor:
#      x y z
#    x 1.698430 0.000000 -0.013240 
#    y 0.000000 1.723970 0.000000 
#    z -0.013240 0.000000 1.722670 
# 
# From -- ./inp_files/194334.got.cif
#   From: 2010.05.17/outbox.cif.g08.bks.cpg/sg15_98_cif.got.tgz:194334.got - 2010.06.03 18:47:42.
