data_PCOD9274164
_publ_section_title
;
Structure prediction by ZEFSAII (Michael W. Deem and Ramdas Pophale) SiO2 
 PCOD9274164
Probable space group: C 2/C
;
_chemical_formula_sum "Si O2"
_cell_formula_units_Z 32
_cell_length_a 7.052853
_cell_length_b 31.796807
_cell_length_c 7.218227
_cell_angle_alpha 90.000000
_cell_angle_beta 67.210794
_cell_angle_gamma 90.000000
_cell_volume 1492.381024
_symmetry_space_group_name_H-M "C 2/C"
_symmetry_group_IT_number 15
_symmetry_cell_setting 'monoclinic'
loop_
_space_group_symop_operation_xyz
x,y,z
-x,y,1/2-z
-x,-y,-z
x,-y,1/2+z
1/2+x,1/2+y,z
1/2-x,1/2+y,1/2-z
1/2-x,1/2-y,-z
1/2+x,1/2-y,1/2+z
loop_
_atom_site_type_symbol
_atom_site_label
_atom_site_fract_x
_atom_site_fract_y
_atom_site_fract_z
Si Si1 0.432672 0.194629 0.563329
Si Si2 0.337673 0.444191 0.590075
Si Si3 0.500000 0.737145 0.750000
Si Si4 0.264176 0.959631 0.296240
Si Si5 0.500000 0.121864 0.250000
O O1 0.500000 0.191838 0.750000
O O2 0.545598 0.231829 0.405603
O O3 0.195737 0.208473 0.639999
O O4 0.462840 0.151862 0.439524
O O5 0.283481 0.444802 0.392068
O O6 0.268112 0.489797 0.690179
O O7 0.196627 0.407220 0.718405
O O8 0.413928 0.441902 0.000088
O O9 0.500000 0.949970 0.250000
#
# Coordination Sequence:
#
# PCOD9274164 Si02
#       5
#     8   8   4   8   4
#     4  10  21  41  67  96 129 169 197 247 315 372
#     4  10  22  38  58  87 117 156 217 274 310 371
#     4   9  20  40  72 100 126 156 216 246 276 390
#     4  10  20  38  62  81 109 159 222 267 316 366
#     4  11  24  40  56  94 138 158 206 272 318 372
#
# _framework density 21.442243999999999
#
# number of rings (size 3 to 8) (size 9 to 14) (size 15 to 20)
#    0.000    2.000    1.250    1.500    0.000    3.000 
#    0.000    2.500    0.000    0.000    0.000    0.000 
#    0.000    0.000    0.000    0.000    0.000    0.000 
#
# Total GULP energy -89488.654189 kJ/mol
# GULP energy per Si atom -5593.040887 kJ/mol
# Density = 2.139344 g / cm^3
# Si number density = 21.442244 Si / 1000 Ang^3
#
#
#
# Elastic Constant Matrix: (Units=GPa)
#
#
# Indices 1 2 3 4 5 6 
#
# 1 149.7199 67.3747 47.4227 0.0000 -20.9364 0.0000
# 2 67.3747 134.6961 67.7943 0.0000 -22.8526 0.0000
# 3 47.4227 67.7943 100.4773 0.0000 -0.4412 0.0000
# 4 0.0000 0.0000 0.0000 75.6685 0.0000 -37.6149
# 5 -20.9364 -22.8526 -0.4412 0.0000 44.7818 0.0000
# 6 0.0000 0.0000 0.0000 -37.6149 0.0000 51.8373
#
#
#
# Elastic Compliance Matrix: (Units=1/GPa)
#
#
# Indices 1 2 3 4 5 6 
#
# 1 0.009113 -0.002929 -0.002313 0.000000 0.002743 0.000000
# 2 -0.002929 0.013829 -0.007924 0.000000 0.005610 0.000000
# 3 -0.002313 -0.007924 0.016369 0.000000 -0.004964 0.000000
# 4 0.000000 0.000000 0.000000 0.020672 0.000000 0.015001
# 5 0.002743 0.005610 -0.004964 0.000000 0.026427 0.000000
# 6 0.000000 0.000000 0.000000 0.015001 0.000000 0.030176
#
#
# Mechanical properties :
#
#
# Convention : Reuss Voigt Hill
#
# Bulk Modulus (GPa) = 77.04305 83.34185 80.19245
# Shear Modulus (GPa) = 33.95712 47.94428 40.95070
#
# Velocity S-wave (km/s) = 3.98383 4.73374 4.37488
# Velocity P-wave (km/s) = 7.56107 8.29639 7.93725
#
# Compressibility (1/GPa) = 0.01297976
#
# Stress axis : x y z
#
# Youngs Moduli (GPa) = 109.72845 72.31161 61.09198
#
# Poissons Ratio (x) = 0.21179 0.14131
# Poissons Ratio (y) = 0.32138 0.48408
# Poissons Ratio (z) = 0.25381 0.57298
#
# Static dielectric constant tensor:
#      x y z
#    x 1.776520 0.000000 -0.013920 
#    y 0.000000 1.740220 0.000000 
#    z -0.013920 0.000000 1.834780 
# 
# From -- ./inp_files/2405.got.cif
#   From: 2010.05.17/outbox.cif.g08.bks.cpg/sg15_2_cif.got.tgz:2405.got - 2010.06.03 18:47:42.
