data_PCOD9274468
_publ_section_title
;
Structure prediction by ZEFSAII (Michael W. Deem and Ramdas Pophale) SiO2 
 PCOD9274468
Probable space group: C 2/C
;
_chemical_formula_sum "Si O2"
_cell_formula_units_Z 56
_cell_length_a 13.946700
_cell_length_b 17.063482
_cell_length_c 17.624448
_cell_angle_alpha 90.000000
_cell_angle_beta 142.309805
_cell_angle_gamma 90.000000
_cell_volume 2564.331281
_symmetry_space_group_name_H-M "C 2/C"
_symmetry_group_IT_number 15
_symmetry_cell_setting 'monoclinic'
loop_
_space_group_symop_operation_xyz
x,y,z
-x,y,1/2-z
-x,-y,-z
x,-y,1/2+z
1/2+x,1/2+y,z
1/2-x,1/2+y,1/2-z
1/2-x,1/2-y,-z
1/2+x,1/2-y,1/2+z
loop_
_atom_site_type_symbol
_atom_site_label
_atom_site_fract_x
_atom_site_fract_y
_atom_site_fract_z
Si Si1 0.994511 0.342076 0.335269
Si Si2 0.034307 0.750000 0.534308
Si Si3 0.341344 0.407236 0.379853
Si Si4 0.323973 0.842075 0.664732
Si Si5 0.699370 0.033107 0.046153
Si Si6 0.581638 0.907236 0.620146
Si Si7 0.607067 0.533107 0.953849
O O1 0.975228 0.272128 0.382990
O O2 0.840094 0.394851 0.248727
O O3 0.000000 0.320193 0.250000
O O4 0.137383 0.395900 0.453544
O O5 0.209245 0.772129 0.617009
O O6 0.923024 0.824516 0.450979
O O7 0.978934 0.675483 0.450981
O O8 0.362864 0.467052 0.462925
O O9 0.434525 0.436770 0.364558
O O10 0.500000 0.820190 0.750000
O O11 0.342644 0.894850 0.751276
O O12 0.230299 0.895900 0.546459
O O13 0.562987 0.967052 0.962927
O O14 0.852281 0.999999 0.102281
O O15 0.705413 0.063229 0.135446
#
# Coordination Sequence:
#
# PCOD9274468 Si02
#       7
#     8   8   8   8   8   8   8
#     4  11  21  38  65  87 119 166 210 245 309 374
#     4  10  24  40  52  92 128 160 196 254 310 362
#     4  10  21  37  61  89 123 152 206 257 296 361
#     4  11  21  38  65  87 119 166 210 245 309 374
#     4  10  20  38  63  92 114 157 208 255 299 358
#     4  10  21  37  61  89 123 152 206 257 296 361
#     4  10  20  38  63  92 114 157 208 255 299 358
#
# _framework density 21.838052999999999
#
# number of rings (size 3 to 8) (size 9 to 14) (size 15 to 20)
#    0.000    1.714    2.857    1.714    0.000    1.143 
#    5.143    0.000    0.000   15.429    0.000    0.000 
#    0.000    0.000    0.000    0.000    0.000    0.000 
#
# Total GULP energy -156578.122884 kJ/mol
# GULP energy per Si atom -5592.075817 kJ/mol
# Density = 2.178835 g / cm^3
# Si number density = 21.838053 Si / 1000 Ang^3
#
#
#
# Elastic Constant Matrix: (Units=GPa)
#
#
# Indices 1 2 3 4 5 6 
#
# 1 163.9976 31.3571 27.9882 -0.0001 -1.5346 -0.0001
# 2 31.3571 82.2510 5.1510 -0.0002 -0.4885 -0.0001
# 3 27.9882 5.1510 49.6100 0.0002 -0.5966 0.0001
# 4 -0.0001 -0.0002 0.0002 15.8284 0.0001 -0.2968
# 5 -1.5346 -0.4885 -0.5966 0.0001 26.8474 0.0000
# 6 -0.0001 -0.0001 0.0001 -0.2968 0.0000 31.7417
#
#
#
# Elastic Compliance Matrix: (Units=1/GPa)
#
#
# Indices 1 2 3 4 5 6 
#
# 1 0.007233 -0.002517 -0.003816 0.000000 0.000283 0.000000
# 2 -0.002517 0.013114 0.000059 0.000000 0.000096 0.000000
# 3 -0.003816 0.000059 0.022307 0.000000 0.000279 0.000000
# 4 0.000000 0.000000 0.000000 0.063189 0.000000 0.000591
# 5 0.000283 0.000096 0.000279 0.000000 0.037272 0.000000
# 6 0.000000 0.000000 0.000000 0.000591 0.000000 0.031510
#
#
# Mechanical properties :
#
#
# Convention : Reuss Voigt Hill
#
# Bulk Modulus (GPa) = 33.21395 47.20571 40.20983
# Shear Modulus (GPa) = 25.35415 30.30764 27.83090
#
# Velocity S-wave (km/s) = 3.41105 3.72941 3.57378
# Velocity P-wave (km/s) = 5.54580 6.34097 5.95667
#
# Compressibility (1/GPa) = 0.03010783
#
# Stress axis : x y z
#
# Youngs Moduli (GPa) = 138.26082 76.25301 44.82876
#
# Poissons Ratio (x) = 0.19191 0.17105
# Poissons Ratio (y) = 0.34797 -0.00266
# Poissons Ratio (z) = 0.52757 -0.00453
#
# Static dielectric constant tensor:
#      x y z
#    x 1.785550 0.000000 0.000020 
#    y 0.000000 1.816020 0.000000 
#    z 0.000020 0.000000 1.786530 
# 
# From -- ./inp_files/199598.got.cif
#   From: 2010.05.17/outbox.cif.g08.bks.cpg/sg15_100_cif.got.tgz:199598.got - 2010.06.03 18:47:42.
