data_PCOD9274017
_publ_section_title
;
Structure prediction by ZEFSAII (Michael W. Deem and Ramdas Pophale) SiO2 
 PCOD9274017
Probable space group: C 2/C
;
_chemical_formula_sum "Si O2"
_cell_formula_units_Z 40
_cell_length_a 11.116843
_cell_length_b 11.430813
_cell_length_c 12.181152
_cell_angle_alpha 90.000000
_cell_angle_beta 75.709825
_cell_angle_gamma 90.000000
_cell_volume 1500.018994
_symmetry_space_group_name_H-M "C 2/C"
_symmetry_group_IT_number 15
_symmetry_cell_setting 'monoclinic'
loop_
_space_group_symop_operation_xyz
x,y,z
-x,y,1/2-z
-x,-y,-z
x,-y,1/2+z
1/2+x,1/2+y,z
1/2-x,1/2+y,1/2-z
1/2-x,1/2-y,-z
1/2+x,1/2-y,1/2+z
loop_
_atom_site_type_symbol
_atom_site_label
_atom_site_fract_x
_atom_site_fract_y
_atom_site_fract_z
Si Si1 0.410288 0.862586 0.364567
Si Si2 0.794731 0.770578 0.229600
Si Si3 0.286812 0.607133 0.970073
Si Si4 0.116652 0.900328 0.672024
Si Si5 0.968395 0.695465 0.449887
O O1 0.500000 0.914244 0.250000
O O2 0.272480 0.855990 0.344917
O O3 0.435710 0.721151 0.361314
O O4 0.456123 0.880453 0.477485
O O5 0.778295 0.835159 0.348813
O O6 0.718139 0.648631 0.234547
O O7 0.931922 0.738309 0.160629
O O8 0.324535 0.476564 0.935916
O O9 0.393613 0.685495 0.000032
O O10 0.152123 0.617748 0.056715
O O11 0.000000 0.967285 0.750000
#
# Coordination Sequence:
#
# PCOD9274017 Si02
#       5
#     8   8   8   8   8
#     4   9  18  38  59  79 116 147 192 232 275 335
#     4  10  20  38  61  80 118 149 191 233 279 336
#     4  11  22  37  59  88 116 149 187 236 285 337
#     4   9  19  36  59  82 113 148 194 228 281 336
#     4  11  21  35  61  84 116 152 186 233 289 332
#
# _framework density 26.666329000000001
#
# number of rings (size 3 to 8) (size 9 to 14) (size 15 to 20)
#    1.200    0.800    2.000    2.400    0.000    1.600 
#    0.000    4.000    8.800    0.000    0.000    0.000 
#    0.000    0.000    0.000    0.000    0.000    0.000 
#
# Total GULP energy -111547.700270 kJ/mol
# GULP energy per Si atom -5577.385013 kJ/mol
# Density = 2.660563 g / cm^3
# Si number density = 26.666329 Si / 1000 Ang^3
#
#
#
# Elastic Constant Matrix: (Units=GPa)
#
#
# Indices 1 2 3 4 5 6 
#
# 1 160.2878 -6.7502 70.5981 0.0000 -17.9531 0.0000
# 2 -6.7502 49.5350 9.2700 0.0000 -6.6243 0.0000
# 3 70.5981 9.2700 105.7936 0.0000 -8.2698 0.0000
# 4 0.0000 0.0000 0.0000 24.4227 0.0000 2.5967
# 5 -17.9531 -6.6243 -8.2698 0.0000 68.1007 0.0000
# 6 0.0000 0.0000 0.0000 2.5967 0.0000 14.0814
#
#
#
# Elastic Compliance Matrix: (Units=1/GPa)
#
#
# Indices 1 2 3 4 5 6 
#
# 1 0.009363 0.002724 -0.006333 0.000000 0.001964 0.000000
# 2 0.002724 0.021536 -0.003518 0.000000 0.002386 0.000000
# 3 -0.006333 -0.003518 0.013962 0.000000 -0.000316 0.000000
# 4 0.000000 0.000000 0.000000 0.041764 0.000000 -0.007701
# 5 0.001964 0.002386 -0.000316 0.000000 0.015396 0.000000
# 6 0.000000 0.000000 0.000000 -0.007701 0.000000 0.072436
#
#
# Mechanical properties :
#
#
# Convention : Reuss Voigt Hill
#
# Bulk Modulus (GPa) = 32.67315 51.31691 41.99503
# Shear Modulus (GPa) = 25.13642 37.48752 31.31197
#
# Velocity S-wave (km/s) = 3.07355 3.75347 3.43040
# Velocity P-wave (km/s) = 4.98747 6.17013 5.61005
#
# Compressibility (1/GPa) = 0.03060617
#
# Stress axis : x y z
#
# Youngs Moduli (GPa) = 106.80451 46.43310 71.62210
#
# Poissons Ratio (x) = -0.12647 0.45360
# Poissons Ratio (y) = -0.29091 0.25198
# Poissons Ratio (z) = 0.67641 0.16336
#
# Static dielectric constant tensor:
#      x y z
#    x 2.086520 0.000000 0.073900 
#    y 0.000000 2.199180 0.000000 
#    z 0.073900 0.000000 2.289460 
# 
# From -- ./inp_files/142858.got.cif
#   From: 2010.05.17/outbox.cif.g08.bks.cpg/sg15_72_cif.got.tgz:142858.got - 2010.06.03 18:47:42.
