data_PCOD9274212
_publ_section_title
;
Structure prediction by ZEFSAII (Michael W. Deem and Ramdas Pophale) SiO2 
 PCOD9274212
Probable space group: C 2/C
;
_chemical_formula_sum "Si O2"
_cell_formula_units_Z 36
_cell_length_a 6.546079
_cell_length_b 20.172319
_cell_length_c 17.174621
_cell_angle_alpha 90.000000
_cell_angle_beta 46.989469
_cell_angle_gamma 90.000000
_cell_volume 1658.354009
_symmetry_space_group_name_H-M "C 2/C"
_symmetry_group_IT_number 15
_symmetry_cell_setting 'monoclinic'
loop_
_space_group_symop_operation_xyz
x,y,z
-x,y,1/2-z
-x,-y,-z
x,-y,1/2+z
1/2+x,1/2+y,z
1/2-x,1/2+y,1/2-z
1/2-x,1/2-y,-z
1/2+x,1/2-y,1/2+z
loop_
_atom_site_type_symbol
_atom_site_label
_atom_site_fract_x
_atom_site_fract_y
_atom_site_fract_z
Si Si1 0.500000 0.460781 0.750000
Si Si2 0.750034 0.262728 0.623619
Si Si3 0.205111 0.853089 0.001515
Si Si4 0.607763 0.943230 0.414713
Si Si5 0.554139 0.375207 0.578574
O O1 0.752588 0.513590 0.688270
O O2 0.511757 0.415425 0.670077
O O3 0.500000 0.253626 0.750000
O O4 0.589393 0.297987 0.593142
O O5 0.944966 0.197895 0.568734
O O6 0.993204 0.317167 0.578515
O O7 0.178381 0.889051 0.925433
O O8 0.196776 0.897625 0.081149
O O9 0.342832 0.898942 0.464187
O O10 0.500000 0.000000 0.500000
#
# Coordination Sequence:
#
# PCOD9274212 Si02
#       5
#     4   8   8   8   8
#     4  10  20  38  62  86 130 162 206 262 308 362
#     4  10  21  40  60  94 123 156 210 264 309 377
#     4  10  22  39  64  88 126 166 204 256 326 361
#     4   9  21  39  56  87 127 157 204 263 297 367
#     4  10  20  40  61  89 123 162 209 261 304 380
#
# _framework density 21.708273999999999
#
# number of rings (size 3 to 8) (size 9 to 14) (size 15 to 20)
#    0.000    2.222    1.111    0.667    0.000    6.222 
#    0.000    6.667    0.000    0.000    0.000    0.000 
#    0.000    0.000    0.000    0.000    0.000    0.000 
#
# Total GULP energy -100233.927347 kJ/mol
# GULP energy per Si atom -5568.551519 kJ/mol
# Density = 2.165886 g / cm^3
# Si number density = 21.708274 Si / 1000 Ang^3
#
#
#
# Elastic Constant Matrix: (Units=GPa)
#
#
# Indices 1 2 3 4 5 6 
#
# 1 71.2246 24.4170 0.9911 0.0000 9.5701 0.0000
# 2 24.4170 84.5016 30.0549 0.0000 2.8903 0.0000
# 3 0.9911 30.0549 88.6509 0.0000 -14.6802 0.0000
# 4 0.0000 0.0000 0.0000 34.3372 0.0000 0.6244
# 5 9.5701 2.8903 -14.6802 0.0000 18.7862 0.0000
# 6 0.0000 0.0000 0.0000 0.6244 0.0000 4.0554
#
#
#
# Elastic Compliance Matrix: (Units=1/GPa)
#
#
# Indices 1 2 3 4 5 6 
#
# 1 0.016643 -0.004578 0.000090 0.000000 -0.007704 0.000000
# 2 -0.004578 0.015438 -0.005961 0.000000 -0.004702 0.000000
# 3 0.000090 -0.005961 0.015443 0.000000 0.012939 0.000000
# 4 0.000000 0.000000 0.000000 0.029205 0.000000 -0.004496
# 5 -0.007704 -0.004702 0.012939 0.000000 0.067989 0.000000
# 6 0.000000 0.000000 0.000000 -0.004496 0.000000 0.247277
#
#
# Mechanical properties :
#
#
# Convention : Reuss Voigt Hill
#
# Bulk Modulus (GPa) = 37.55656 39.47814 38.51735
# Shear Modulus (GPa) = 11.85486 24.03003 17.94245
#
# Velocity S-wave (km/s) = 2.33941 3.33070 2.87806
# Velocity P-wave (km/s) = 4.96339 5.74601 5.36898
#
# Compressibility (1/GPa) = 0.02662650
#
# Stress axis : x y z
#
# Youngs Moduli (GPa) = 60.08448 64.77578 64.75510
#
# Poissons Ratio (x) = 0.29652 -0.00584
# Poissons Ratio (y) = 0.27505 0.38602
# Poissons Ratio (z) = -0.00542 0.38614
#
# Static dielectric constant tensor:
#      x y z
#    x 1.896120 0.000000 0.076070 
#    y 0.000000 1.844150 0.000000 
#    z 0.076070 0.000000 1.957180 
# 
# From -- ./inp_files/72435.got.cif
#   From: 2010.05.17/outbox.cif.g08.bks.cpg/sg15_37_cif.got.tgz:72435.got - 2010.06.03 18:47:42.
