data_PCOD9274425
_publ_section_title
;
Structure prediction by ZEFSAII (Michael W. Deem and Ramdas Pophale) SiO2 
 PCOD9274425
Probable space group: C 2/C
;
_chemical_formula_sum "Si O2"
_cell_formula_units_Z 48
_cell_length_a 5.436899
_cell_length_b 30.633448
_cell_length_c 15.390490
_cell_angle_alpha 90.000000
_cell_angle_beta 52.843879
_cell_angle_gamma 90.000000
_cell_volume 2042.932143
_symmetry_space_group_name_H-M "C 2/C"
_symmetry_group_IT_number 15
_symmetry_cell_setting 'monoclinic'
loop_
_space_group_symop_operation_xyz
x,y,z
-x,y,1/2-z
-x,-y,-z
x,-y,1/2+z
1/2+x,1/2+y,z
1/2-x,1/2+y,1/2-z
1/2-x,1/2-y,-z
1/2+x,1/2-y,1/2+z
loop_
_atom_site_type_symbol
_atom_site_label
_atom_site_fract_x
_atom_site_fract_y
_atom_site_fract_z
Si Si1 0.870237 0.508587 0.431481
Si Si2 0.505313 0.079724 0.847784
Si Si3 0.123519 0.747942 0.928117
Si Si4 0.036192 0.168698 0.344706
Si Si5 0.332558 0.399407 0.561453
Si Si6 0.655157 0.846151 0.437259
O O1 0.500000 0.500000 0.500000
O O2 0.062153 0.472309 0.336528
O O3 0.896533 0.559913 0.403662
O O4 0.000000 0.500000 0.500000
O O5 0.500000 0.095096 0.750000
O O6 0.702452 0.112377 0.864726
O O7 0.173907 0.083744 0.965147
O O8 0.203368 0.790114 0.853835
O O9 0.242479 0.699923 0.875790
O O10 0.250000 0.750000 0.000000
O O11 0.750000 0.750000 0.000000
O O12 0.184943 0.123029 0.341674
O O13 0.000000 0.174678 0.250000
O O14 0.699376 0.162720 0.460086
O O15 0.296556 0.360624 0.498614
#
# Coordination Sequence:
#
# PCOD9274425 Si02
#       6
#     8   8   8   8   8   8
#     4  10  20  39  62  85 118 165 207 255 320 373
#     4  10  22  39  60  92 124 165 212 264 313 382
#     4  10  20  38  63  88 122 168 209 259 322 378
#     4  10  22  39  61  94 129 167 217 266 316 385
#     4  10  20  39  64  86 126 169 210 265 324 379
#     4  10  20  38  64  85 126 168 206 260 324 375
#
# _framework density 23.495643000000001
#
# number of rings (size 3 to 8) (size 9 to 14) (size 15 to 20)
#    0.000    2.000    3.333    0.000    0.000    2.000 
#    3.000    0.000    7.333    0.000    0.000    0.000 
#    0.000    0.000    0.000    0.000    0.000    0.000 
#
# Total GULP energy -133777.862842 kJ/mol
# GULP energy per Si atom -5574.077618 kJ/mol
# Density = 2.344217 g / cm^3
# Si number density = 23.495643 Si / 1000 Ang^3
#
#
#
# Elastic Constant Matrix: (Units=GPa)
#
#
# Indices 1 2 3 4 5 6 
#
# 1 111.8774 34.4232 33.9031 0.0000 28.2281 0.0000
# 2 34.4232 185.3247 38.7123 0.0000 32.2669 0.0000
# 3 33.9031 38.7123 88.0125 0.0000 21.1830 0.0000
# 4 0.0000 0.0000 0.0000 3.9859 0.0000 21.4912
# 5 28.2281 32.2669 21.1830 0.0000 55.6338 0.0000
# 6 0.0000 0.0000 0.0000 21.4912 0.0000 29.4539
#
#
#
# Elastic Compliance Matrix: (Units=1/GPa)
#
#
# Indices 1 2 3 4 5 6 
#
# 1 0.011091 -0.000730 -0.002971 0.000000 -0.004073 0.000000
# 2 -0.000730 0.006382 -0.001898 0.000000 -0.002608 0.000000
# 3 -0.002971 -0.001898 0.013996 0.000000 -0.002721 0.000000
# 4 0.000000 0.000000 0.000000 -0.085504 0.000000 0.062389
# 5 -0.004073 -0.002608 -0.002721 0.000000 0.022590 0.000000
# 6 0.000000 0.000000 0.000000 0.062389 0.000000 -0.011571
#
#
# Mechanical properties :
#
#
# Convention : Reuss Voigt Hill
#
# Bulk Modulus (GPa) = 49.33243 66.58796 57.96020
# Shear Modulus (GPa) = -199.51692 36.35979 -81.57857
#
# Velocity S-wave (km/s) = -9.22502 3.93811 -5.89882
# Velocity P-wave (km/s) = 9.61384 7.00574 4.65540
#
# Compressibility (1/GPa) = 0.02027064
#
# Stress axis : x y z
#
# Youngs Moduli (GPa) = 90.16360 156.68509 71.44819
#
# Poissons Ratio (x) = 0.11445 0.21226
# Poissons Ratio (y) = 0.06586 0.13562
# Poissons Ratio (z) = 0.26786 0.29740
#
# Static dielectric constant tensor:
#      x y z
#    x 1.860480 0.000000 0.056960 
#    y 0.000000 2.003250 0.000000 
#    z 0.056960 0.000000 1.816120 
# 
# From -- ./inp_files/130355.got.cif
#   From: 2010.05.17/outbox.cif.g08.bks.cpg/sg15_66_cif.got.tgz:130355.got - 2010.06.03 18:47:42.
