data_PCOD9274138
_publ_section_title
;
Structure prediction by ZEFSAII (Michael W. Deem and Ramdas Pophale) SiO2 
 PCOD9274138
Probable space group: C 2/C
;
_chemical_formula_sum "Si O2"
_cell_formula_units_Z 52
_cell_length_a 22.286851
_cell_length_b 17.682208
_cell_length_c 8.008831
_cell_angle_alpha 90.000000
_cell_angle_beta 134.331140
_cell_angle_gamma 90.000000
_cell_volume 2257.618097
_symmetry_space_group_name_H-M "C 2/C"
_symmetry_group_IT_number 15
_symmetry_cell_setting 'monoclinic'
loop_
_space_group_symop_operation_xyz
x,y,z
-x,y,1/2-z
-x,-y,-z
x,-y,1/2+z
1/2+x,1/2+y,z
1/2-x,1/2+y,1/2-z
1/2-x,1/2-y,-z
1/2+x,1/2-y,1/2+z
loop_
_atom_site_type_symbol
_atom_site_label
_atom_site_fract_x
_atom_site_fract_y
_atom_site_fract_z
Si Si1 0.959302 0.174234 0.838012
Si Si2 0.970060 0.677712 0.875584
Si Si3 0.336329 0.084237 0.743757
Si Si4 0.217204 0.117164 0.019122
Si Si5 0.385118 0.082987 0.219362
Si Si6 0.500000 0.578302 0.250000
Si Si7 0.180155 0.971842 0.107485
O O1 0.858218 0.176552 0.617095
O O2 0.000000 0.140126 0.750000
O O3 0.002605 0.255017 0.950473
O O4 0.980125 0.127624 0.046530
O O5 0.000000 0.699770 0.750000
O O6 0.874070 0.651460 0.706343
O O7 0.025860 0.605483 0.034981
O O8 0.238275 0.078875 0.599043
O O9 0.361904 0.003177 0.717978
O O10 0.379194 0.092505 0.009798
O O11 0.192310 0.064735 0.811665
O O12 0.313501 0.135820 0.167286
O O13 0.213053 0.057488 0.162188
O O14 0.583166 0.531016 0.373126
#
# Coordination Sequence:
#
# PCOD9274138 Si02
#       7
#     8   8   8   8   8   4   8
#     4  11  24  41  61  89 125 169 210 248 312 375
#     4  12  24  41  60  84 124 169 212 259 308 369
#     4  10  20  38  61  94 120 157 207 256 317 366
#     4   9  21  37  61  93 125 156 203 258 307 373
#     4  10  20  38  63  90 124 158 205 259 311 369
#     4  10  22  42  62  92 128 158 204 260 300 374
#     4   9  20  36  62  91 124 154 200 257 312 361
#
# _framework density 23.033124999999998
#
# number of rings (size 3 to 8) (size 9 to 14) (size 15 to 20)
#    0.000    1.846    0.769    2.769    3.231    3.077 
#    0.000    2.308    0.000    0.000    0.000    0.000 
#    0.000    0.000    0.000    0.000    0.000    0.000 
#
# Total GULP energy -145305.888715 kJ/mol
# GULP energy per Si atom -5588.688028 kJ/mol
# Density = 2.298070 g / cm^3
# Si number density = 23.033125 Si / 1000 Ang^3
#
#
#
# Elastic Constant Matrix: (Units=GPa)
#
#
# Indices 1 2 3 4 5 6 
#
# 1 116.8409 25.4509 37.2467 0.0000 -1.2254 0.0000
# 2 25.4509 50.8334 -1.5985 0.0000 5.9564 0.0000
# 3 37.2467 -1.5985 55.0784 0.0000 5.0783 0.0000
# 4 0.0000 0.0000 0.0000 17.3867 0.0000 7.7033
# 5 -1.2254 5.9564 5.0783 0.0000 50.0468 0.0000
# 6 0.0000 0.0000 0.0000 7.7033 0.0000 15.8765
#
#
#
# Elastic Compliance Matrix: (Units=1/GPa)
#
#
# Indices 1 2 3 4 5 6 
#
# 1 0.013067 -0.007078 -0.009235 0.000000 0.002100 0.000000
# 2 -0.007078 0.023820 0.005810 0.000000 -0.003598 0.000000
# 3 -0.009235 0.005810 0.024887 0.000000 -0.003443 0.000000
# 4 0.000000 0.000000 0.000000 0.073265 0.000000 -0.035548
# 5 0.002100 -0.003598 -0.003443 0.000000 0.020810 0.000000
# 6 0.000000 0.000000 0.000000 -0.035548 0.000000 0.080234
#
#
# Mechanical properties :
#
#
# Convention : Reuss Voigt Hill
#
# Bulk Modulus (GPa) = 24.52992 38.32786 31.42889
# Shear Modulus (GPa) = 18.47197 27.43891 22.95544
#
# Velocity S-wave (km/s) = 2.83499 3.45524 3.16037
# Velocity P-wave (km/s) = 4.62484 5.70917 5.19537
#
# Compressibility (1/GPa) = 0.04076654
#
# Stress axis : x y z
#
# Youngs Moduli (GPa) = 76.53129 41.98079 40.18116
#
# Poissons Ratio (x) = 0.29716 0.37108
# Poissons Ratio (y) = 0.54173 -0.23345
# Poissons Ratio (z) = 0.70678 -0.24390
#
# Static dielectric constant tensor:
#      x y z
#    x 1.915980 0.000000 0.005320 
#    y 0.000000 1.858420 0.000000 
#    z 0.005320 0.000000 1.908490 
# 
# From -- ./inp_files/48498.got.cif
#   From: 2010.05.17/outbox.cif.g08.bks.cpg/sg15_25_cif.got.tgz:48498.got - 2010.06.03 18:47:42.
