data_PCOD9274444
_publ_section_title
;
Structure prediction by ZEFSAII (Michael W. Deem and Ramdas Pophale) SiO2 
 PCOD9274444
Probable space group: C 2/C
;
_chemical_formula_sum "Si O2"
_cell_formula_units_Z 60
_cell_length_a 22.591228
_cell_length_b 19.383826
_cell_length_c 5.250406
_cell_angle_alpha 90.000000
_cell_angle_beta 87.849151
_cell_angle_gamma 90.000000
_cell_volume 2297.556244
_symmetry_space_group_name_H-M "C 2/C"
_symmetry_group_IT_number 15
_symmetry_cell_setting 'monoclinic'
loop_
_space_group_symop_operation_xyz
x,y,z
-x,y,1/2-z
-x,-y,-z
x,-y,1/2+z
1/2+x,1/2+y,z
1/2-x,1/2+y,1/2-z
1/2-x,1/2-y,-z
1/2+x,1/2-y,1/2+z
loop_
_atom_site_type_symbol
_atom_site_label
_atom_site_fract_x
_atom_site_fract_y
_atom_site_fract_z
Si Si1 0.316437 0.291221 0.799234
Si Si2 0.500000 0.763158 0.250000
Si Si3 0.566867 0.472333 0.060420
Si Si4 0.922374 0.814637 0.426144
Si Si5 0.249477 0.334304 0.302956
Si Si6 0.099429 0.529816 0.158181
Si Si7 0.263928 0.018210 0.480450
Si Si8 0.567242 0.823345 0.849629
O O1 0.378383 0.314484 0.675085
O O2 0.270075 0.312851 0.583484
O O3 0.306799 0.208399 0.790112
O O4 0.298384 0.318963 0.078111
O O5 0.515231 0.711158 0.472960
O O6 0.446329 0.810952 0.350317
O O7 0.594825 0.481389 0.777207
O O8 0.571381 0.393634 0.156534
O O9 0.500000 0.500000 0.000000
O O10 0.904890 0.748372 0.257333
O O11 0.239250 0.414230 0.340268
O O12 0.071092 0.484172 0.387387
O O13 0.100130 0.608507 0.255192
O O14 0.166949 0.507037 0.092990
O O15 0.237691 0.032360 0.202619
O O16 0.500000 0.832769 0.750000
#
# Coordination Sequence:
#
# PCOD9274444 Si02
#       8
#     8   4   8   8   8   8   8   8
#     4  10  23  39  67  93 126 166 209 269 328 384
#     4  10  24  40  64  92 130 166 222 274 322 380
#     4  10  23  39  63  88 121 166 210 265 327 384
#     4  11  24  42  67  94 130 172 225 274 325 405
#     4  10  21  42  61  96 128 160 211 267 328 380
#     4  10  23  40  63  93 130 171 219 260 316 390
#     4  10  20  38  63  90 122 168 208 253 313 383
#     4  10  24  40  61  94 125 173 218 271 323 375
#
# _framework density 26.114702999999999
#
# number of rings (size 3 to 8) (size 9 to 14) (size 15 to 20)
#    0.000    1.867    0.000    2.400   13.067    0.533 
#    4.800    4.000    0.000    0.000    0.000    0.000 
#    0.000    0.000    0.000    0.000    0.000    0.000 
#
# Total GULP energy -167389.101618 kJ/mol
# GULP energy per Si atom -5579.636721 kJ/mol
# Density = 2.605526 g / cm^3
# Si number density = 26.114703 Si / 1000 Ang^3
#
#
#
# Elastic Constant Matrix: (Units=GPa)
#
#
# Indices 1 2 3 4 5 6 
#
# 1 53.7003 2.7599 4.6855 0.0000 -13.5286 0.0000
# 2 2.7599 136.2334 52.5309 0.0000 -7.2739 0.0000
# 3 4.6855 52.5309 197.1286 0.0000 -1.9184 0.0000
# 4 0.0000 0.0000 0.0000 44.7017 0.0000 -1.9679
# 5 -13.5286 -7.2739 -1.9184 0.0000 25.7957 0.0000
# 6 0.0000 0.0000 0.0000 -1.9679 0.0000 8.5534
#
#
#
# Elastic Compliance Matrix: (Units=1/GPa)
#
#
# Indices 1 2 3 4 5 6 
#
# 1 0.021504 0.000362 -0.000497 0.000000 0.011343 0.000000
# 2 0.000362 0.008308 -0.002199 0.000000 0.002369 0.000000
# 3 -0.000497 -0.002199 0.005666 0.000000 -0.000459 0.000000
# 4 0.000000 0.000000 0.000000 0.022599 0.000000 0.005199
# 5 0.011343 0.002369 -0.000459 0.000000 0.045349 0.000000
# 6 0.000000 0.000000 0.000000 0.005199 0.000000 0.118108
#
#
# Mechanical properties :
#
#
# Convention : Reuss Voigt Hill
#
# Bulk Modulus (GPa) = 32.45858 56.33501 44.39679
# Shear Modulus (GPa) = 21.14400 37.61590 29.37995
#
# Velocity S-wave (km/s) = 2.84854 3.79939 3.35779
# Velocity P-wave (km/s) = 4.82443 6.39266 5.66309
#
# Compressibility (1/GPa) = 0.03080850
#
# Stress axis : x y z
#
# Youngs Moduli (GPa) = 46.50237 120.37256 176.48333
#
# Poissons Ratio (x) = -0.04354 0.08773
# Poissons Ratio (y) = -0.01682 0.38815
# Poissons Ratio (z) = 0.02312 0.26474
#
# Static dielectric constant tensor:
#      x y z
#    x 2.197040 0.000000 0.093510 
#    y 0.000000 2.174100 0.000000 
#    z 0.093510 0.000000 2.408010 
# 
# From -- ./inp_files/18430.got.cif
#   From: 2010.05.17/outbox.cif.g08.bks.cpg/sg15_10_cif.got.tgz:18430.got - 2010.06.03 18:47:42.
