data_PCOD9274876
_publ_section_title
;
Structure prediction by ZEFSAII (Michael W. Deem and Ramdas Pophale) SiO2 
 PCOD9274876
Probable space group: C 2/C
;
_chemical_formula_sum "Si O2"
_cell_formula_units_Z 64
_cell_length_a 26.882963
_cell_length_b 11.939094
_cell_length_c 13.221881
_cell_angle_alpha 90.000000
_cell_angle_beta 43.671853
_cell_angle_gamma 90.000000
_cell_volume 2930.370393
_symmetry_space_group_name_H-M "C 2/C"
_symmetry_group_IT_number 15
_symmetry_cell_setting 'monoclinic'
loop_
_space_group_symop_operation_xyz
x,y,z
-x,y,1/2-z
-x,-y,-z
x,-y,1/2+z
1/2+x,1/2+y,z
1/2-x,1/2+y,1/2-z
1/2-x,1/2-y,-z
1/2+x,1/2-y,1/2+z
loop_
_atom_site_type_symbol
_atom_site_label
_atom_site_fract_x
_atom_site_fract_y
_atom_site_fract_z
Si Si1 0.149904 0.946755 0.658117
Si Si2 0.430739 0.510019 0.906830
Si Si3 0.931371 0.867445 0.094367
Si Si4 0.293966 0.073025 0.456839
Si Si5 0.661041 0.309357 0.842595
Si Si6 0.451165 0.976250 0.227937
Si Si7 0.536434 0.829957 0.488372
Si Si8 0.788116 0.747991 0.283207
O O1 0.109580 0.927474 0.612121
O O2 0.149012 0.854474 0.746964
O O3 0.108732 0.056078 0.764065
O O4 0.232624 0.982075 0.522721
O O5 0.500000 0.561134 0.750000
O O6 0.458818 0.445877 0.964329
O O7 0.373399 0.600483 0.029594
O O8 0.866266 0.795025 0.143568
O O9 0.992246 0.785938 0.046029
O O10 0.260680 0.155040 0.591830
O O11 0.300621 0.151434 0.348034
O O12 0.369748 0.015468 0.371762
O O13 0.613793 0.197884 0.921556
O O14 0.742998 0.293851 0.754114
O O15 0.500000 0.938977 0.250000
O O16 0.452398 0.883440 0.138249
O O17 0.491282 0.084354 0.121710
#
# Coordination Sequence:
#
# PCOD9274876 Si02
#       8
#     8   8   8   8   8   8   8   8
#     4  10  22  39  61  93 123 155 204 258 302 367
#     4  11  22  37  61  91 124 161 199 249 309 367
#     4  10  22  40  62  88 122 163 200 251 307 359
#     4  10  20  40  65  87 117 157 210 254 295 359
#     4  11  23  39  61  93 124 159 203 254 309 360
#     4  11  25  42  62  89 121 163 205 254 302 359
#     4  11  24  41  60  89 125 159 206 249 301 370
#     4  10  20  38  66  88 117 160 204 254 302 352
#
# _framework density 21.840240999999999
#
# number of rings (size 3 to 8) (size 9 to 14) (size 15 to 20)
#    0.000    1.500    2.500    2.250    0.000    8.000 
#    2.250    1.250    0.000    0.000    0.000    0.000 
#    0.000    0.000    0.000    0.000    0.000    0.000 
#
# Total GULP energy -178967.442027 kJ/mol
# GULP energy per Si atom -5592.732563 kJ/mol
# Density = 2.179053 g / cm^3
# Si number density = 21.840241 Si / 1000 Ang^3
#
#
#
# Elastic Constant Matrix: (Units=GPa)
#
#
# Indices 1 2 3 4 5 6 
#
# 1 99.3091 -11.6626 7.8792 0.0000 -12.6867 0.0000
# 2 -11.6626 21.6688 -0.7400 0.0000 -5.6494 0.0000
# 3 7.8792 -0.7400 64.1759 0.0000 -12.9173 0.0000
# 4 0.0000 0.0000 0.0000 14.0112 0.0000 -14.6205
# 5 -12.6867 -5.6494 -12.9173 0.0000 36.4770 0.0000
# 6 0.0000 0.0000 0.0000 -14.6205 0.0000 24.5837
#
#
#
# Elastic Compliance Matrix: (Units=1/GPa)
#
#
# Indices 1 2 3 4 5 6 
#
# 1 0.011638 0.007586 -0.000312 0.000000 0.005112 0.000000
# 2 0.007586 0.053329 0.002021 0.000000 0.011614 0.000000
# 3 -0.000312 0.002021 0.016889 0.000000 0.006185 0.000000
# 4 0.000000 0.000000 0.000000 0.188107 0.000000 0.111871
# 5 0.005112 0.011614 0.006185 0.000000 0.033182 0.000000
# 6 0.000000 0.000000 0.000000 0.111871 0.000000 0.107210
#
#
# Mechanical properties :
#
#
# Convention : Reuss Voigt Hill
#
# Bulk Modulus (GPa) = 9.95557 19.56742 14.76149
# Shear Modulus (GPa) = 11.75788 27.65954 19.70871
#
# Velocity S-wave (km/s) = 2.32277 3.56258 3.00726
# Velocity P-wave (km/s) = 3.42957 5.08934 4.33955
#
# Compressibility (1/GPa) = 0.10044628
#
# Stress axis : x y z
#
# Youngs Moduli (GPa) = 85.92300 18.75138 59.21097
#
# Poissons Ratio (x) = -0.14225 0.01850
# Poissons Ratio (y) = -0.65183 -0.11968
# Poissons Ratio (z) = 0.02685 -0.03790
#
# Static dielectric constant tensor:
#      x y z
#    x 1.788250 0.000000 0.008650 
#    y 0.000000 1.802080 0.000000 
#    z 0.008650 0.000000 1.784980 
# 
# From -- ./inp_files/177787.got.cif
#   From: 2010.05.17/outbox.cif.g08.bks.cpg/sg15_89_cif.got.tgz:177787.got - 2010.06.03 18:47:42.
