data_PCOD9274885
_publ_section_title
;
Structure prediction by ZEFSAII (Michael W. Deem and Ramdas Pophale) SiO2 
 PCOD9274885
Probable space group: C 2/C
;
_chemical_formula_sum "Si O2"
_cell_formula_units_Z 64
_cell_length_a 18.964737
_cell_length_b 13.873976
_cell_length_c 12.212322
_cell_angle_alpha 90.000000
_cell_angle_beta 99.949033
_cell_angle_gamma 90.000000
_cell_volume 3164.939488
_symmetry_space_group_name_H-M "C 2/C"
_symmetry_group_IT_number 15
_symmetry_cell_setting 'monoclinic'
loop_
_space_group_symop_operation_xyz
x,y,z
-x,y,1/2-z
-x,-y,-z
x,-y,1/2+z
1/2+x,1/2+y,z
1/2-x,1/2+y,1/2-z
1/2-x,1/2-y,-z
1/2+x,1/2-y,1/2+z
loop_
_atom_site_type_symbol
_atom_site_label
_atom_site_fract_x
_atom_site_fract_y
_atom_site_fract_z
Si Si1 0.249768 0.366803 0.609100
Si Si2 0.477331 0.252530 0.498202
Si Si3 0.945284 0.109279 0.334150
Si Si4 0.177086 0.462240 0.385425
Si Si5 0.855186 0.764686 0.283741
Si Si6 0.313542 0.481575 0.283271
Si Si7 0.875603 0.730557 0.668601
Si Si8 0.563271 0.867462 0.855038
O O1 0.197936 0.407639 0.502592
O O2 0.202896 0.310614 0.686145
O O3 0.290055 0.457773 0.671544
O O4 0.311758 0.291122 0.592525
O O5 0.515882 0.350262 0.548103
O O6 0.416908 0.272982 0.391950
O O7 0.438934 0.216627 0.598468
O O8 0.528340 0.172963 0.456763
O O9 0.901980 0.201208 0.273159
O O10 0.000000 0.082615 0.250000
O O11 0.889335 0.024924 0.340926
O O12 0.251268 0.499245 0.355003
O O13 0.149795 0.374393 0.301827
O O14 0.116930 0.542977 0.382544
O O15 0.820954 0.869060 0.260987
O O16 0.891847 0.719985 0.186844
O O17 0.500000 0.890651 0.750000
#
# Coordination Sequence:
#
# PCOD9274885 Si02
#       8
#     8   8   8   8   8   8   8   8
#     4  11  22  41  62  95 120 156 216 256 305 371
#     4  10  21  41  62  87 127 164 203 253 302 372
#     4   9  22  41  62  96 125 159 211 254 303 364
#     4  12  22  38  65  93 120 166 212 252 309 368
#     4  11  21  43  64  85 126 165 201 255 315 365
#     4  11  24  39  66  93 125 162 202 263 309 363
#     4  10  20  38  66  89 123 160 208 260 304 354
#     4  10  25  42  60  91 131 166 203 251 317 373
#
# _framework density 20.221554999999999
#
# number of rings (size 3 to 8) (size 9 to 14) (size 15 to 20)
#    0.000    1.500    3.750    1.125    0.000    6.000 
#    0.000    1.250    0.000    0.000    0.000    0.000 
#    0.000    0.000    0.000    0.000    0.000    0.000 
#
# Total GULP energy -178727.810822 kJ/mol
# GULP energy per Si atom -5585.244088 kJ/mol
# Density = 2.017553 g / cm^3
# Si number density = 20.221555 Si / 1000 Ang^3
#
#
#
# Elastic Constant Matrix: (Units=GPa)
#
#
# Indices 1 2 3 4 5 6 
#
# 1 105.3978 49.9941 9.7129 0.0000 -12.7669 0.0000
# 2 49.9941 105.9968 24.5416 0.0000 -1.8925 0.0000
# 3 9.7129 24.5416 26.1070 0.0000 -3.8358 0.0000
# 4 0.0000 0.0000 0.0000 12.1708 0.0000 3.5570
# 5 -12.7669 -1.8925 -3.8358 0.0000 22.9904 0.0000
# 6 0.0000 0.0000 0.0000 3.5570 0.0000 42.8673
#
#
#
# Elastic Compliance Matrix: (Units=1/GPa)
#
#
# Indices 1 2 3 4 5 6 
#
# 1 0.013330 -0.006719 0.002422 0.000000 0.007253 0.000000
# 2 -0.006719 0.015464 -0.012710 0.000000 -0.004579 0.000000
# 3 0.002422 -0.012710 0.050636 0.000000 0.008747 0.000000
# 4 0.000000 0.000000 0.000000 0.084206 0.000000 -0.006987
# 5 0.007253 -0.004579 0.008747 0.000000 0.048607 0.000000
# 6 0.000000 0.000000 0.000000 -0.006987 0.000000 0.023908
#
#
# Mechanical properties :
#
#
# Convention : Reuss Voigt Hill
#
# Bulk Modulus (GPa) = 22.01810 45.11097 33.56453
# Shear Modulus (GPa) = 17.52527 25.82257 21.67392
#
# Velocity S-wave (km/s) = 2.94711 3.57737 3.27742
# Velocity P-wave (km/s) = 4.74264 6.27855 5.56385
#
# Compressibility (1/GPa) = 0.04541719
#
# Stress axis : x y z
#
# Youngs Moduli (GPa) = 75.01813 64.66592 19.74882
#
# Poissons Ratio (x) = 0.43446 -0.04783
# Poissons Ratio (y) = 0.50401 0.25101
# Poissons Ratio (z) = -0.18170 0.82191
#
# Static dielectric constant tensor:
#      x y z
#    x 1.773940 0.000000 0.010030 
#    y 0.000000 1.706000 0.000000 
#    z 0.010030 0.000000 1.721180 
# 
# From -- ./inp_files/105745.got.cif
#   From: 2010.05.17/outbox.cif.g08.bks.cpg/sg15_53_cif.got.tgz:105745.got - 2010.06.03 18:47:42.
