data_PCOD9274056
_publ_section_title
;
Structure prediction by ZEFSAII (Michael W. Deem and Ramdas Pophale) SiO2 
 PCOD9274056
Probable space group: C 2/C
;
_chemical_formula_sum "Si O2"
_cell_formula_units_Z 56
_cell_length_a 16.252479
_cell_length_b 15.509459
_cell_length_c 14.140122
_cell_angle_alpha 90.000000
_cell_angle_beta 50.936403
_cell_angle_gamma 90.000000
_cell_volume 2767.459082
_symmetry_space_group_name_H-M "C 2/C"
_symmetry_group_IT_number 15
_symmetry_cell_setting 'monoclinic'
loop_
_space_group_symop_operation_xyz
x,y,z
-x,y,1/2-z
-x,-y,-z
x,-y,1/2+z
1/2+x,1/2+y,z
1/2-x,1/2+y,1/2-z
1/2-x,1/2-y,-z
1/2+x,1/2-y,1/2+z
loop_
_atom_site_type_symbol
_atom_site_label
_atom_site_fract_x
_atom_site_fract_y
_atom_site_fract_z
Si Si1 0.000000 0.282948 0.250000
Si Si2 0.514702 0.704403 0.872869
Si Si3 0.603823 0.300990 0.847581
Si Si4 0.301011 0.468081 0.790001
Si Si5 0.752268 0.351474 0.188832
Si Si6 0.500000 0.442662 0.250000
Si Si7 0.920403 0.419666 0.456139
Si Si8 0.049277 0.389714 0.559923
O O1 0.059599 0.219139 0.276971
O O2 0.065504 0.346925 0.133338
O O3 0.636341 0.685884 0.762759
O O4 0.458046 0.625283 0.859833
O O5 0.482508 0.698887 0.006304
O O6 0.492073 0.803164 0.862004
O O7 0.661904 0.391844 0.804019
O O8 0.682369 0.221216 0.806113
O O9 0.261622 0.552246 0.760490
O O10 0.402399 0.501665 0.778191
O O11 0.200991 0.433000 0.922495
O O12 0.825424 0.371098 0.045220
O O13 0.960929 0.514043 0.392922
O O14 0.990904 0.395990 0.498495
#
# Coordination Sequence:
#
# PCOD9274056 Si02
#       8
#     4   8   8   8   8   4   8   8
#     4  12  23  39  56  98 124 156 213 254 301 382
#     4  10  20  40  63  87 124 166 203 263 305 361
#     4  11  23  40  62  91 125 163 207 255 314 368
#     4  10  22  42  61  87 124 168 203 261 311 357
#     4   9  19  38  62  89 118 160 211 249 301 373
#     4  10  23  41  60  94 126 156 217 256 293 390
#     4  10  20  38  61  86 127 162 203 261 304 363
#     4   9  18  38  61  86 121 163 205 250 307 364
#
# _framework density 20.235168000000002
#
# number of rings (size 3 to 8) (size 9 to 14) (size 15 to 20)
#    0.000    2.000    2.857    1.286    0.000    3.429 
#    5.143   19.286    0.000    0.000    0.000    0.000 
#    0.000    0.000    0.000    0.000    0.000    0.000 
#
# Total GULP energy -155905.874611 kJ/mol
# GULP energy per Si atom -5568.066950 kJ/mol
# Density = 2.018911 g / cm^3
# Si number density = 20.235168 Si / 1000 Ang^3
#
#
#
# Elastic Constant Matrix: (Units=GPa)
#
#
# Indices 1 2 3 4 5 6 
#
# 1 46.4933 3.3168 34.5070 0.0000 -14.0061 0.0000
# 2 3.3168 121.8926 31.4380 0.0000 -14.2347 0.0000
# 3 34.5070 31.4380 65.7155 0.0000 -8.6718 0.0000
# 4 0.0000 0.0000 0.0000 -2.5825 0.0000 21.4455
# 5 -14.0061 -14.2347 -8.6718 0.0000 27.6854 0.0000
# 6 0.0000 0.0000 0.0000 21.4455 0.0000 25.0560
#
#
#
# Elastic Compliance Matrix: (Units=1/GPa)
#
#
# Indices 1 2 3 4 5 6 
#
# 1 0.044897 0.007314 -0.024598 0.000000 0.018770 0.000000
# 2 0.007314 0.010898 -0.008164 0.000000 0.006747 0.000000
# 3 -0.024598 -0.008164 0.031130 0.000000 -0.006891 0.000000
# 4 0.000000 0.000000 0.000000 -0.047761 0.000000 0.040878
# 5 0.018770 0.006747 -0.006891 0.000000 0.046926 0.000000
# 6 0.000000 0.000000 0.000000 0.040878 0.000000 0.004923
#
#
# Mechanical properties :
#
#
# Convention : Reuss Voigt Hill
#
# Bulk Modulus (GPa) = 27.75445 41.40277 34.57861
# Shear Modulus (GPa) = 32.48461 21.02109 26.75285
#
# Velocity S-wave (km/s) = 4.01103 3.22660 3.64001
# Velocity P-wave (km/s) = 5.93270 5.86400 5.89845
#
# Compressibility (1/GPa) = 0.03603026
#
# Stress axis : x y z
#
# Youngs Moduli (GPa) = 22.27301 91.75582 32.12360
#
# Poissons Ratio (x) = -0.67114 0.79017
# Poissons Ratio (y) = -0.16291 0.26227
# Poissons Ratio (z) = 0.54787 0.74912
#
# Static dielectric constant tensor:
#      x y z
#    x 1.786190 0.000000 0.016880 
#    y 0.000000 1.754140 0.000000 
#    z 0.016880 0.000000 1.723130 
# 
# From -- ./inp_files/162233.got.cif
#   From: 2010.05.17/outbox.cif.g08.bks.cpg/sg15_82_cif.got.tgz:162233.got - 2010.06.03 18:47:42.
