data_PCOD9274892
_publ_section_title
;
Structure prediction by ZEFSAII (Michael W. Deem and Ramdas Pophale) SiO2 
 PCOD9274892
Probable space group: C 2/C
;
_chemical_formula_sum "Si O2"
_cell_formula_units_Z 44
_cell_length_a 12.140007
_cell_length_b 24.313458
_cell_length_c 9.299952
_cell_angle_alpha 90.000000
_cell_angle_beta 125.802385
_cell_angle_gamma 90.000000
_cell_volume 2226.323983
_symmetry_space_group_name_H-M "C 2/C"
_symmetry_group_IT_number 15
_symmetry_cell_setting 'monoclinic'
loop_
_space_group_symop_operation_xyz
x,y,z
-x,y,1/2-z
-x,-y,-z
x,-y,1/2+z
1/2+x,1/2+y,z
1/2-x,1/2+y,1/2-z
1/2-x,1/2-y,-z
1/2+x,1/2-y,1/2+z
loop_
_atom_site_type_symbol
_atom_site_label
_atom_site_fract_x
_atom_site_fract_y
_atom_site_fract_z
Si Si1 0.605726 0.306879 0.591187
Si Si2 0.588031 0.974500 0.188960
Si Si3 0.000000 0.124693 0.750000
Si Si4 0.149506 0.725762 0.045670
Si Si5 0.500000 0.866129 0.250000
Si Si6 0.000000 0.888168 0.750000
Si Si7 0.114313 0.045690 0.591990
O O1 0.588622 0.337074 0.425045
O O2 0.753521 0.282324 0.741588
O O3 0.480229 0.264216 0.517038
O O4 0.582789 0.351203 0.701057
O O5 0.500000 0.998486 0.250000
O O6 0.583138 0.908562 0.212907
O O7 0.744664 0.986213 0.291632
O O8 0.500000 0.000000 0.000000
O O9 0.086467 0.086320 0.705792
O O10 0.250000 0.750000 0.000000
O O11 0.088845 0.671503 0.923151
O O12 0.900365 0.922622 0.571096
O O13 0.000000 0.000000 0.500000
#
# Coordination Sequence:
#
# PCOD9274892 Si02
#       7
#     8   8   4   8   4   4   8
#     4  11  23  39  64  94 132 169 223 282 332 406
#     4  10  26  44  67  96 136 176 226 284 344 408
#     4  10  27  40  62 100 140 170 217 282 354 404
#     4  12  20  39  68 100 123 175 234 279 331 409
#     4  10  23  40  70  98 134 176 229 290 340 400
#     4  10  20  38  66  90 120 170 234 268 330 402
#     4  11  24  42  69  95 131 176 230 281 343 414
#
# _framework density 19.763521000000001
#
# number of rings (size 3 to 8) (size 9 to 14) (size 15 to 20)
#    0.545    0.727    3.636    1.636    7.636    2.182 
#    0.000    0.000    0.000    0.000    0.000    0.000 
#    0.000    0.000    0.000    0.000    0.000    0.000 
#
# Total GULP energy -122604.994799 kJ/mol
# GULP energy per Si atom -5572.954309 kJ/mol
# Density = 1.971854 g / cm^3
# Si number density = 19.763521 Si / 1000 Ang^3
#
#
#
# Elastic Constant Matrix: (Units=GPa)
#
#
# Indices 1 2 3 4 5 6 
#
# 1 88.3775 29.1479 83.3474 0.0000 16.6629 0.0000
# 2 29.1479 55.9669 56.4350 0.0000 4.9580 0.0000
# 3 83.3474 56.4350 191.1068 0.0000 5.7492 0.0000
# 4 0.0000 0.0000 0.0000 72.1207 0.0000 -39.9019
# 5 16.6629 4.9580 5.7492 0.0000 52.9575 0.0000
# 6 0.0000 0.0000 0.0000 -39.9019 0.0000 94.3150
#
#
#
# Elastic Compliance Matrix: (Units=1/GPa)
#
#
# Indices 1 2 3 4 5 6 
#
# 1 0.020882 -0.001955 -0.008365 0.000000 -0.005479 0.000000
# 2 -0.001955 0.025758 -0.006722 0.000000 -0.001067 0.000000
# 3 -0.008365 -0.006722 0.010803 0.000000 0.002089 0.000000
# 4 0.000000 0.000000 0.000000 0.018103 0.000000 0.007659
# 5 -0.005479 -0.001067 0.002089 0.000000 0.020480 0.000000
# 6 0.000000 0.000000 0.000000 0.007659 0.000000 0.013843
#
#
# Mechanical properties :
#
#
# Convention : Reuss Voigt Hill
#
# Bulk Modulus (GPa) = 42.80904 74.81243 58.81073
# Shear Modulus (GPa) = 32.95105 54.98004 43.96554
#
# Velocity S-wave (km/s) = 4.08765 5.28009 4.72166
# Velocity P-wave (km/s) = 6.63220 8.66651 7.71669
#
# Compressibility (1/GPa) = 0.02335955
#
# Stress axis : x y z
#
# Youngs Moduli (GPa) = 47.88834 38.82217 92.56580
#
# Poissons Ratio (x) = 0.07590 0.77432
# Poissons Ratio (y) = 0.09362 0.62222
# Poissons Ratio (z) = 0.40059 0.26096
#
# Static dielectric constant tensor:
#      x y z
#    x 1.600060 0.000000 0.040140 
#    y 0.000000 1.743790 0.000000 
#    z 0.040140 0.000000 1.688450 
# 
# From -- ./inp_files/35427.got.cif
#   From: 2010.05.17/outbox.cif.g08.bks.cpg/sg15_18_cif.got.tgz:35427.got - 2010.06.03 18:47:42.
