data_PCOD9274470
_publ_section_title
;
Structure prediction by ZEFSAII (Michael W. Deem and Ramdas Pophale) SiO2 
 PCOD9274470
Probable space group: C 2/C
;
_chemical_formula_sum "Si O2"
_cell_formula_units_Z 48
_cell_length_a 8.093541
_cell_length_b 15.684329
_cell_length_c 24.729171
_cell_angle_alpha 90.000000
_cell_angle_beta 47.532792
_cell_angle_gamma 90.000000
_cell_volume 2315.648240
_symmetry_space_group_name_H-M "C 2/C"
_symmetry_group_IT_number 15
_symmetry_cell_setting 'monoclinic'
loop_
_space_group_symop_operation_xyz
x,y,z
-x,y,1/2-z
-x,-y,-z
x,-y,1/2+z
1/2+x,1/2+y,z
1/2-x,1/2+y,1/2-z
1/2-x,1/2-y,-z
1/2+x,1/2-y,1/2+z
loop_
_atom_site_type_symbol
_atom_site_label
_atom_site_fract_x
_atom_site_fract_y
_atom_site_fract_z
Si Si1 0.343843 0.267055 0.860443
Si Si2 0.500000 0.133489 0.750000
Si Si3 0.558245 0.530903 0.832345
Si Si4 0.922680 0.172996 0.996239
Si Si5 0.181363 0.353929 0.445345
Si Si6 0.500000 0.589535 0.250000
Si Si7 0.163956 0.110069 0.043628
O O1 0.510656 0.197154 0.799052
O O2 0.343075 0.347015 0.819433
O O3 0.397857 0.305607 0.907116
O O4 0.106254 0.221053 0.918436
O O5 0.281595 0.076215 0.802530
O O6 0.366617 0.602419 0.866836
O O7 0.611763 0.472968 0.768621
O O8 0.447653 0.467674 0.900293
O O9 0.818588 0.250886 0.053865
O O10 0.061341 0.115778 0.006916
O O11 0.752179 0.128402 0.992731
O O12 0.934343 0.388745 0.486269
#
# Coordination Sequence:
#
# PCOD9274470 Si02
#       7
#     8   4   8   8   8   4   8
#     4   9  18  40  62  82 117 165 200 245 296 365
#     4  11  22  40  60  81 128 164 208 243 290 372
#     4  11  23  42  55  94 122 162 203 250 309 357
#     4  10  20  38  66  96 116 158 200 252 312 356
#     4  10  20  38  63  92 122 153 201 253 307 358
#     4   9  22  38  62  77 122 170 198 241 302 356
#     4  10  22  40  64  95 123 152 202 261 312 354
#
# _framework density 20.728536999999999
#
# number of rings (size 3 to 8) (size 9 to 14) (size 15 to 20)
#    0.000    2.000    1.667    2.500    0.000    3.333 
#   12.000    0.000    0.000    0.000    0.000    0.000 
#    0.000    0.000    0.000    0.000    0.000    0.000 
#
# Total GULP energy -133840.346889 kJ/mol
# GULP energy per Si atom -5576.681120 kJ/mol
# Density = 2.068136 g / cm^3
# Si number density = 20.728537 Si / 1000 Ang^3
#
#
#
# Elastic Constant Matrix: (Units=GPa)
#
#
# Indices 1 2 3 4 5 6 
#
# 1 110.7148 25.5427 18.7177 -0.0019 -2.2830 0.0012
# 2 25.5427 64.4958 15.5284 -0.0003 -5.5611 -0.0001
# 3 18.7177 15.5284 44.5280 -0.0040 -4.5695 -0.0003
# 4 -0.0019 -0.0003 -0.0040 16.1984 0.0024 0.4358
# 5 -2.2830 -5.5611 -4.5695 0.0024 24.5167 -0.0003
# 6 0.0012 -0.0001 -0.0003 0.4358 -0.0003 15.7227
#
#
#
# Elastic Compliance Matrix: (Units=1/GPa)
#
#
# Indices 1 2 3 4 5 6 
#
# 1 0.010342 -0.003355 -0.003218 0.000000 -0.000398 -0.000001
# 2 -0.003355 0.018204 -0.004635 -0.000002 0.002953 0.000000
# 3 -0.003218 -0.004635 0.025781 0.000005 0.003454 0.000001
# 4 0.000000 -0.000002 0.000005 0.061781 -0.000005 -0.001712
# 5 -0.000398 0.002953 0.003454 -0.000005 0.042065 0.000001
# 6 -0.000001 0.000000 0.000001 -0.001712 0.000001 0.063650
#
#
# Mechanical properties :
#
#
# Convention : Reuss Voigt Hill
#
# Bulk Modulus (GPa) = 31.33718 37.70180 34.51949
# Shear Modulus (GPa) = 19.61729 21.95087 20.78408
#
# Velocity S-wave (km/s) = 3.07968 3.25771 3.16995
# Velocity P-wave (km/s) = 5.27225 5.69017 5.48519
#
# Compressibility (1/GPa) = 0.03191098
#
# Stress axis : x y z
#
# Youngs Moduli (GPa) = 96.69144 54.93206 38.78769
#
# Poissons Ratio (x) = 0.18432 0.12482
# Poissons Ratio (y) = 0.32444 0.17978
# Poissons Ratio (z) = 0.31116 0.25461
#
# Static dielectric constant tensor:
#      x y z
#    x 1.748040 0.000000 0.030550 
#    y 0.000000 1.780990 0.000000 
#    z 0.030550 0.000000 1.768790 
# 
# From -- ./inp_files/289050.got.cif
#   From: 2010.05.17/outbox.cif.g08.bks.cpg/sg15_145_cif.got.tgz:289050.got - 2010.06.03 18:47:42.
