data_PCOD9274275
_publ_section_title
;
Structure prediction by ZEFSAII (Michael W. Deem and Ramdas Pophale) SiO2 
 PCOD9274275
Probable space group: C 2/C
;
_chemical_formula_sum "Si O2"
_cell_formula_units_Z 44
_cell_length_a 24.381811
_cell_length_b 12.822044
_cell_length_c 11.364133
_cell_angle_alpha 90.000000
_cell_angle_beta 42.018887
_cell_angle_gamma 90.000000
_cell_volume 2378.095932
_symmetry_space_group_name_H-M "C 2/C"
_symmetry_group_IT_number 15
_symmetry_cell_setting 'monoclinic'
loop_
_space_group_symop_operation_xyz
x,y,z
-x,y,1/2-z
-x,-y,-z
x,-y,1/2+z
1/2+x,1/2+y,z
1/2-x,1/2+y,1/2-z
1/2-x,1/2-y,-z
1/2+x,1/2-y,1/2+z
loop_
_atom_site_type_symbol
_atom_site_label
_atom_site_fract_x
_atom_site_fract_y
_atom_site_fract_z
Si Si1 0.563245 0.690034 0.803005
Si Si2 0.000000 0.265063 0.250000
Si Si3 0.297027 0.221265 0.804680
Si Si4 0.472835 0.880327 0.050202
Si Si5 0.356187 0.633342 0.579696
Si Si6 0.391158 0.608222 0.019189
O O1 0.618694 0.662899 0.826825
O O2 0.605947 0.667535 0.610881
O O3 0.525552 0.806141 0.878275
O O4 0.482411 0.616738 0.928326
O O5 0.993037 0.335557 0.146585
O O6 0.921360 0.192009 0.392229
O O7 0.376253 0.145282 0.688415
O O8 0.232573 0.171888 0.817113
O O9 0.331565 0.329193 0.698965
O O10 0.250000 0.250000 0.000000
O O11 0.500000 0.000000 0.000000
O O12 0.365767 0.510519 0.546289
#
# Coordination Sequence:
#
# PCOD9274275 Si02
#       6
#     8   4   8   8   8   8
#     4   9  21  40  62  92 117 158 223 254 308 392
#     4  10  20  38  62  90 118 158 224 250 310 400
#     4  11  24  42  59  94 135 161 215 269 316 389
#     4  10  22  41  64  86 124 170 208 260 322 384
#     4  11  22  37  66  89 123 168 202 266 324 378
#     4  10  22  40  63  89 127 161 204 269 320 373
#
# _framework density 18.502196999999999
#
# number of rings (size 3 to 8) (size 9 to 14) (size 15 to 20)
#    0.000    1.818    1.818    1.636    2.545    6.545 
#    3.273    0.000    0.000    0.000    0.000    0.000 
#    0.000    0.000    0.000    0.000    0.000    0.000 
#
# Total GULP energy -122824.864584 kJ/mol
# GULP energy per Si atom -5582.948390 kJ/mol
# Density = 1.846008 g / cm^3
# Si number density = 18.502197 Si / 1000 Ang^3
#
#
#
# Elastic Constant Matrix: (Units=GPa)
#
#
# Indices 1 2 3 4 5 6 
#
# 1 109.6520 44.5130 48.7283 0.0000 -2.6858 0.0000
# 2 44.5130 122.3909 65.0481 0.0000 -2.1374 0.0000
# 3 48.7283 65.0481 119.9216 0.0000 8.5941 0.0000
# 4 0.0000 0.0000 0.0000 10.7798 0.0000 0.5260
# 5 -2.6858 -2.1374 8.5941 0.0000 28.8673 0.0000
# 6 0.0000 0.0000 0.0000 0.5260 0.0000 19.3659
#
#
#
# Elastic Compliance Matrix: (Units=1/GPa)
#
#
# Indices 1 2 3 4 5 6 
#
# 1 0.011726 -0.002277 -0.003674 0.000000 0.002016 0.000000
# 2 -0.002277 0.012142 -0.005835 0.000000 0.002424 0.000000
# 3 -0.003674 -0.005835 0.013337 0.000000 -0.004744 0.000000
# 4 0.000000 0.000000 0.000000 0.092889 0.000000 -0.002523
# 5 0.002016 0.002424 -0.004744 0.000000 0.036421 0.000000
# 6 0.000000 0.000000 0.000000 -0.002523 0.000000 0.051706
#
#
# Mechanical properties :
#
#
# Convention : Reuss Voigt Hill
#
# Bulk Modulus (GPa) = 73.34957 74.28257 73.81607
# Shear Modulus (GPa) = 20.29744 24.71427 22.50585
#
# Velocity S-wave (km/s) = 3.31574 3.65875 3.49146
# Velocity P-wave (km/s) = 7.37486 7.62127 7.49908
#
# Compressibility (1/GPa) = 0.01363335
#
# Stress axis : x y z
#
# Youngs Moduli (GPa) = 85.27893 82.35944 74.98152
#
# Poissons Ratio (x) = 0.18751 0.27551
# Poissons Ratio (y) = 0.19416 0.43749
# Poissons Ratio (z) = 0.31334 0.48054
#
# Static dielectric constant tensor:
#      x y z
#    x 1.649120 0.000000 0.002520 
#    y 0.000000 1.600160 0.000000 
#    z 0.002520 0.000000 1.633630 
# 
# From -- ./inp_files/94964.got.cif
#   From: 2010.05.17/outbox.cif.g08.bks.cpg/sg15_48_cif.got.tgz:94964.got - 2010.06.03 18:47:42.
