data_PCOD9274532
_publ_section_title
;
Structure prediction by ZEFSAII (Michael W. Deem and Ramdas Pophale) SiO2 
 PCOD9274532
Probable space group: C 2/C
;
_chemical_formula_sum "Si O2"
_cell_formula_units_Z 36
_cell_length_a 5.012649
_cell_length_b 21.825820
_cell_length_c 13.769640
_cell_angle_alpha 90.000000
_cell_angle_beta 112.297260
_cell_angle_gamma 90.000000
_cell_volume 1393.827901
_symmetry_space_group_name_H-M "C 2/C"
_symmetry_group_IT_number 15
_symmetry_cell_setting 'monoclinic'
loop_
_space_group_symop_operation_xyz
x,y,z
-x,y,1/2-z
-x,-y,-z
x,-y,1/2+z
1/2+x,1/2+y,z
1/2-x,1/2+y,1/2-z
1/2-x,1/2-y,-z
1/2+x,1/2-y,1/2+z
loop_
_atom_site_type_symbol
_atom_site_label
_atom_site_fract_x
_atom_site_fract_y
_atom_site_fract_z
Si Si1 0.479653 0.172900 0.059276
Si Si2 0.500000 0.318231 0.750000
Si Si3 0.836558 0.468349 0.318922
Si Si4 0.242028 0.946492 0.529502
Si Si5 0.220629 0.781838 0.350086
O O1 0.759393 0.147569 0.153399
O O2 0.457222 0.242515 0.095528
O O3 0.216064 0.126133 0.047114
O O4 0.462859 0.181772 0.941195
O O5 0.651501 0.272433 0.695815
O O6 0.500000 0.476656 0.250000
O O7 0.847047 0.444276 0.431712
O O8 0.000000 0.436196 0.250000
O O9 0.024290 0.529216 0.362011
O O10 0.000000 0.000000 0.500000
O O11 0.000000 0.818467 0.250000
#
# Coordination Sequence:
#
# PCOD9274532 Si02
#       5
#     8   4   8   8   8
#     4  10  22  40  65  97 138 178 233 293 356 444
#     4  10  20  38  64 100 136 184 226 292 372 432
#     4  11  24  46  69  94 141 182 241 302 361 431
#     4  11  25  43  66 103 139 190 246 302 363 436
#     4   9  20  40  63  98 137 177 226 284 362 441
#
# _framework density 25.828150999999998
#
# number of rings (size 3 to 8) (size 9 to 14) (size 15 to 20)
#    0.000    1.778    2.222    0.667    1.556    7.111 
#    2.000    0.000    0.000    0.000    0.000    0.000 
#    0.000    0.000    0.000    0.000    0.000    0.000 
#
# Total GULP energy -100213.772847 kJ/mol
# GULP energy per Si atom -5567.431825 kJ/mol
# Density = 2.576937 g / cm^3
# Si number density = 25.828151 Si / 1000 Ang^3
#
#
#
# Elastic Constant Matrix: (Units=GPa)
#
#
# Indices 1 2 3 4 5 6 
#
# 1 100.4249 11.4877 64.6815 0.0000 8.0682 0.0000
# 2 11.4877 75.8985 45.9549 0.0000 12.5693 0.0000
# 3 64.6815 45.9549 220.1365 0.0000 21.4833 0.0000
# 4 0.0000 0.0000 0.0000 -26.9841 0.0000 -3.8440
# 5 8.0682 12.5693 21.4833 0.0000 54.8345 0.0000
# 6 0.0000 0.0000 0.0000 -3.8440 0.0000 11.1917
#
#
#
# Elastic Compliance Matrix: (Units=1/GPa)
#
#
# Indices 1 2 3 4 5 6 
#
# 1 0.012303 0.000432 -0.003659 0.000000 -0.000476 0.000000
# 2 0.000432 0.015384 -0.003107 0.000000 -0.002373 0.000000
# 3 -0.003659 -0.003107 0.006388 0.000000 -0.001252 0.000000
# 4 0.000000 0.000000 0.000000 -0.035330 0.000000 -0.012135
# 5 -0.000476 -0.002373 -0.001252 0.000000 0.019341 0.000000
# 6 0.000000 0.000000 0.000000 -0.012135 0.000000 0.085184
#
#
# Mechanical properties :
#
#
# Convention : Reuss Voigt Hill
#
# Bulk Modulus (GPa) = 46.71077 71.18978 58.95028
# Shear Modulus (GPa) = 40.62585 26.09746 33.36165
#
# Velocity S-wave (km/s) = 3.97032 3.18217 3.59789
# Velocity P-wave (km/s) = 6.25639 6.41282 6.33509
#
# Compressibility (1/GPa) = 0.02140834
#
# Stress axis : x y z
#
# Youngs Moduli (GPa) = 81.28129 65.00170 156.53275
#
# Poissons Ratio (x) = -0.02807 0.57270
# Poissons Ratio (y) = -0.03511 0.48633
# Poissons Ratio (z) = 0.29738 0.20195
#
# Static dielectric constant tensor:
#      x y z
#    x 2.003580 0.000000 0.087910 
#    y 0.000000 2.015780 0.000000 
#    z 0.087910 0.000000 2.087080 
# 
# From -- ./inp_files/129242.got.cif
#   From: 2010.05.17/outbox.cif.g08.bks.cpg/sg15_65_cif.got.tgz:129242.got - 2010.06.03 18:47:42.
