data_PCOD9274041
_publ_section_title
;
Structure prediction by ZEFSAII (Michael W. Deem and Ramdas Pophale) SiO2 
 PCOD9274041
Probable space group: C 2/C
;
_chemical_formula_sum "Si O2"
_cell_formula_units_Z 48
_cell_length_a 10.073092
_cell_length_b 14.542188
_cell_length_c 16.215604
_cell_angle_alpha 90.000000
_cell_angle_beta 84.034539
_cell_angle_gamma 90.000000
_cell_volume 2362.476357
_symmetry_space_group_name_H-M "C 2/C"
_symmetry_group_IT_number 15
_symmetry_cell_setting 'monoclinic'
loop_
_space_group_symop_operation_xyz
x,y,z
-x,y,1/2-z
-x,-y,-z
x,-y,1/2+z
1/2+x,1/2+y,z
1/2-x,1/2+y,1/2-z
1/2-x,1/2-y,-z
1/2+x,1/2-y,1/2+z
loop_
_atom_site_type_symbol
_atom_site_label
_atom_site_fract_x
_atom_site_fract_y
_atom_site_fract_z
Si Si1 0.612664 0.062188 0.452112
Si Si2 0.458616 0.769801 0.446954
Si Si3 0.221110 0.618949 0.674101
Si Si4 0.639741 0.726148 0.293564
Si Si5 0.614407 0.426578 0.478056
Si Si6 0.854724 0.571687 0.242963
O O1 0.558303 0.165733 0.472361
O O2 0.746393 0.038933 0.493678
O O3 0.645782 0.050358 0.354332
O O4 0.500000 0.000000 0.500000
O O5 0.365674 0.824938 0.387954
O O6 0.595754 0.753118 0.388884
O O7 0.409899 0.668875 0.473148
O O8 0.220059 0.688267 0.750123
O O9 0.358729 0.595380 0.619651
O O10 0.154666 0.523621 0.705983
O O11 0.500000 0.714086 0.250000
O O12 0.732682 0.637272 0.276908
O O13 0.500000 0.500000 0.500000
O O14 0.000000 0.614976 0.250000
#
# Coordination Sequence:
#
# PCOD9274041 Si02
#       6
#     8   8   8   8   8   8
#     4  11  22  39  61  88 121 163 203 246 299 364
#     4  10  20  39  64  87 116 162 205 239 296 372
#     4  10  20  38  61  85 119 165 202 235 297 377
#     4  10  20  38  61  86 115 158 206 252 298 359
#     4  11  22  40  65  93 119 154 202 255 300 351
#     4  12  23  38  59  89 122 158 201 249 299 357
#
# _framework density 20.317663
#
# number of rings (size 3 to 8) (size 9 to 14) (size 15 to 20)
#    0.000    1.333    0.000   10.500    0.000    0.000 
#    0.000    9.167    0.000    0.000    0.000    0.000 
#    0.000    0.000    0.000    0.000    0.000    0.000 
#
# Total GULP energy -133941.233228 kJ/mol
# GULP energy per Si atom -5580.884718 kJ/mol
# Density = 2.027142 g / cm^3
# Si number density = 20.317663 Si / 1000 Ang^3
#
#
#
# Elastic Constant Matrix: (Units=GPa)
#
#
# Indices 1 2 3 4 5 6 
#
# 1 92.0708 67.5199 32.4790 0.0000 -26.6635 0.0000
# 2 67.5199 126.5091 35.3549 0.0000 -30.2637 0.0000
# 3 32.4790 35.3549 109.8810 0.0000 -38.8395 0.0000
# 4 0.0000 0.0000 0.0000 43.9003 0.0000 -21.3787
# 5 -26.6635 -30.2637 -38.8395 0.0000 30.4982 0.0000
# 6 0.0000 0.0000 0.0000 -21.3787 0.0000 28.1076
#
#
#
# Elastic Compliance Matrix: (Units=1/GPa)
#
#
# Indices 1 2 3 4 5 6 
#
# 1 0.019499 -0.008298 0.000039 0.000000 0.008864 0.000000
# 2 -0.008298 0.013914 0.000531 0.000000 0.007229 0.000000
# 3 0.000039 0.000531 0.016580 0.000000 0.021676 0.000000
# 4 0.000000 0.000000 0.000000 0.036180 0.000000 0.027518
# 5 0.008864 0.007229 0.021676 0.000000 0.075315 0.000000
# 6 0.000000 0.000000 0.000000 0.027518 0.000000 0.056508
#
#
# Mechanical properties :
#
#
# Convention : Reuss Voigt Hill
#
# Bulk Modulus (GPa) = 28.95348 66.57427 47.76388
# Shear Modulus (GPa) = 20.41109 33.37503 26.89306
#
# Velocity S-wave (km/s) = 3.17298 4.05737 3.64212
# Velocity P-wave (km/s) = 5.26356 7.40186 6.42233
#
# Compressibility (1/GPa) = 0.03453816
#
# Stress axis : x y z
#
# Youngs Moduli (GPa) = 51.28380 71.86958 60.31334
#
# Poissons Ratio (x) = 0.59635 -0.00236
# Poissons Ratio (y) = 0.42554 -0.03202
# Poissons Ratio (z) = -0.00201 -0.03815
#
# Static dielectric constant tensor:
#      x y z
#    x 1.751010 0.000000 -0.021950 
#    y 0.000000 1.719650 0.000000 
#    z -0.021950 0.000000 1.849740 
# 
# From -- ./inp_files/196530.got.cif
#   From: 2010.05.17/outbox.cif.g08.bks.cpg/sg15_99_cif.got.tgz:196530.got - 2010.06.03 18:47:42.
