data_PCOD9274153
_publ_section_title
;
Structure prediction by ZEFSAII (Michael W. Deem and Ramdas Pophale) SiO2 
 PCOD9274153
Probable space group: C 2/C
;
_chemical_formula_sum "Si O2"
_cell_formula_units_Z 32
_cell_length_a 13.466857
_cell_length_b 11.508286
_cell_length_c 8.608629
_cell_angle_alpha 90.000000
_cell_angle_beta 116.042099
_cell_angle_gamma 90.000000
_cell_volume 1198.713208
_symmetry_space_group_name_H-M "C 2/C"
_symmetry_group_IT_number 15
_symmetry_cell_setting 'monoclinic'
loop_
_space_group_symop_operation_xyz
x,y,z
-x,y,1/2-z
-x,-y,-z
x,-y,1/2+z
1/2+x,1/2+y,z
1/2-x,1/2+y,1/2-z
1/2-x,1/2-y,-z
1/2+x,1/2-y,1/2+z
loop_
_atom_site_type_symbol
_atom_site_label
_atom_site_fract_x
_atom_site_fract_y
_atom_site_fract_z
Si Si1 0.854161 0.704222 0.886170
Si Si2 0.703044 0.586311 0.576622
Si Si3 0.000000 0.296516 0.750000
Si Si4 0.162994 0.434979 0.637770
Si Si5 0.500000 0.345045 0.750000
O O1 0.731523 0.685732 0.725016
O O2 0.878723 0.566440 0.919752
O O3 0.924536 0.763269 0.801917
O O4 0.902833 0.760256 0.076917
O O5 0.732112 0.463641 0.677870
O O6 0.790645 0.605077 0.496229
O O7 0.582742 0.587135 0.420429
O O8 0.073653 0.367161 0.675609
#
# Coordination Sequence:
#
# PCOD9274153 Si02
#       5
#     8   8   4   8   4
#     4  10  21  37  61  91 118 157 203 244 299 358
#     4  10  23  39  64  88 125 155 210 244 298 362
#     4  12  19  36  68  89 118 156 208 258 289 340
#     4  10  20  38  61  96 114 156 208 252 284 359
#     4  12  23  42  60  87 130 170 180 250 323 354
#
# _framework density 26.695294000000001
#
# number of rings (size 3 to 8) (size 9 to 14) (size 15 to 20)
#    1.500    0.000    2.500    3.750    0.000    1.000 
#    0.000    7.500    0.000    0.000    0.000    0.000 
#    0.000    0.000    0.000    0.000    0.000    0.000 
#
# Total GULP energy -89266.340051 kJ/mol
# GULP energy per Si atom -5579.146253 kJ/mol
# Density = 2.663453 g / cm^3
# Si number density = 26.695294 Si / 1000 Ang^3
#
#
#
# Elastic Constant Matrix: (Units=GPa)
#
#
# Indices 1 2 3 4 5 6 
#
# 1 110.7352 48.5249 59.7909 0.0000 -11.6047 0.0000
# 2 48.5249 32.7871 32.2698 0.0000 -0.4714 0.0000
# 3 59.7909 32.2698 248.3144 0.0000 43.8309 0.0000
# 4 0.0000 0.0000 0.0000 71.8023 0.0000 -4.1074
# 5 -11.6047 -0.4714 43.8309 0.0000 66.4419 0.0000
# 6 0.0000 0.0000 0.0000 -4.1074 0.0000 -4.9988
#
#
#
# Elastic Compliance Matrix: (Units=1/GPa)
#
#
# Indices 1 2 3 4 5 6 
#
# 1 0.028461 -0.039136 -0.002938 0.000000 0.006631 0.000000
# 2 -0.039136 0.089598 -0.001274 0.000000 -0.005359 0.000000
# 3 -0.002938 -0.001274 0.005650 0.000000 -0.004250 0.000000
# 4 0.000000 0.000000 0.000000 0.013302 0.000000 -0.010930
# 5 0.006631 -0.005359 -0.004250 0.000000 0.018974 0.000000
# 6 0.000000 0.000000 0.000000 -0.010930 0.000000 -0.191068
#
#
# Mechanical properties :
#
#
# Convention : Reuss Voigt Hill
#
# Bulk Modulus (GPa) = 27.01707 74.77864 50.89786
# Shear Modulus (GPa) = 78.18283 43.39918 60.79100
#
# Velocity S-wave (km/s) = 5.41763 4.03640 4.77720
# Velocity P-wave (km/s) = 7.01974 7.05664 7.03821
#
# Compressibility (1/GPa) = 0.03701364
#
# Stress axis : x y z
#
# Youngs Moduli (GPa) = 35.13534 11.16091 176.98420
#
# Poissons Ratio (x) = 0.43679 0.51993
# Poissons Ratio (y) = 1.37506 0.22555
# Poissons Ratio (z) = 0.10322 0.01422
#
# Static dielectric constant tensor:
#      x y z
#    x 2.067080 0.000000 0.129720 
#    y 0.000000 2.216040 0.000000 
#    z 0.129720 0.000000 2.259740 
# 
# From -- ./inp_files/27943.got.cif
#   From: 2010.05.17/outbox.cif.g08.bks.cpg/sg15_14_cif.got.tgz:27943.got - 2010.06.03 18:47:42.
