data_PCOD9274554
_publ_section_title
;
Structure prediction by ZEFSAII (Michael W. Deem and Ramdas Pophale) SiO2 
 PCOD9274554
Probable space group: C 2/C
;
_chemical_formula_sum "Si O2"
_cell_formula_units_Z 44
_cell_length_a 9.233796
_cell_length_b 10.998742
_cell_length_c 20.314993
_cell_angle_alpha 90.000000
_cell_angle_beta 119.628261
_cell_angle_gamma 90.000000
_cell_volume 1793.433428
_symmetry_space_group_name_H-M "C 2/C"
_symmetry_group_IT_number 15
_symmetry_cell_setting 'monoclinic'
loop_
_space_group_symop_operation_xyz
x,y,z
-x,y,1/2-z
-x,-y,-z
x,-y,1/2+z
1/2+x,1/2+y,z
1/2-x,1/2+y,1/2-z
1/2-x,1/2-y,-z
1/2+x,1/2-y,1/2+z
loop_
_atom_site_type_symbol
_atom_site_label
_atom_site_fract_x
_atom_site_fract_y
_atom_site_fract_z
Si Si1 0.408782 0.377627 0.952012
Si Si2 0.250000 0.750000 0.000000
Si Si3 0.344717 0.834237 0.174262
Si Si4 0.239639 0.076972 0.363267
Si Si5 0.112260 0.506418 0.434790
Si Si6 0.376928 0.514714 0.307722
O O1 0.548746 0.276649 0.977690
O O2 0.236220 0.378600 0.954816
O O3 0.351333 0.397801 0.863865
O O4 0.500000 0.500000 0.000000
O O5 0.288119 0.899055 0.007289
O O6 0.500000 0.789801 0.250000
O O7 0.288657 0.718289 0.118750
O O8 0.403802 0.942315 0.140878
O O9 0.203741 0.886688 0.189623
O O10 0.426263 0.033330 0.415774
O O11 0.208974 0.069870 0.276455
O O12 0.076645 0.002242 0.347633
#
# Coordination Sequence:
#
# PCOD9274554 Si02
#       6
#     8   4   8   8   8   8
#     4   9  20  38  59  87 117 160 209 244 298 364
#     4  10  20  38  64  82 120 162 200 254 298 350
#     4  11  20  37  59  83 123 161 188 243 306 353
#     4  11  22  37  60  95 125 154 202 253 306 367
#     4  10  22  39  62  89 118 161 206 247 302 370
#     4  10  21  36  59  90 125 156 200 250 303 369
#
# _framework density 24.533947000000001
#
# number of rings (size 3 to 8) (size 9 to 14) (size 15 to 20)
#    0.000    1.818    3.636    1.091    0.000    1.455 
#    0.000   13.636    0.000   16.364    0.000    0.000 
#    0.000    0.000    0.000    0.000    0.000    0.000 
#
# Total GULP energy -122501.148263 kJ/mol
# GULP energy per Si atom -5568.234012 kJ/mol
# Density = 2.447811 g / cm^3
# Si number density = 24.533947 Si / 1000 Ang^3
#
#
#
# Elastic Constant Matrix: (Units=GPa)
#
#
# Indices 1 2 3 4 5 6 
#
# 1 160.6522 70.2312 31.5862 0.0000 57.0025 0.0000
# 2 70.2312 85.3683 16.1332 0.0000 30.5038 0.0000
# 3 31.5862 16.1332 93.9834 0.0000 34.5709 0.0000
# 4 0.0000 0.0000 0.0000 38.5711 0.0000 6.7395
# 5 57.0025 30.5038 34.5709 0.0000 49.8974 0.0000
# 6 0.0000 0.0000 0.0000 6.7395 0.0000 52.7753
#
#
#
# Elastic Compliance Matrix: (Units=1/GPa)
#
#
# Indices 1 2 3 4 5 6 
#
# 1 0.013094 -0.006870 0.000988 0.000000 -0.011443 0.000000
# 2 -0.006870 0.018673 0.000558 0.000000 -0.003954 0.000000
# 3 0.000988 0.000558 0.014431 0.000000 -0.011468 0.000000
# 4 0.000000 0.000000 0.000000 0.026518 0.000000 -0.003386
# 5 -0.011443 -0.003954 -0.011468 0.000000 0.043476 0.000000
# 6 0.000000 0.000000 0.000000 -0.003386 0.000000 0.019381
#
#
# Mechanical properties :
#
#
# Convention : Reuss Voigt Hill
#
# Bulk Modulus (GPa) = 28.13030 63.98945 46.05987
# Shear Modulus (GPa) = 31.63146 43.05230 37.34188
#
# Velocity S-wave (km/s) = 3.59457 4.19358 3.90558
# Velocity P-wave (km/s) = 5.35898 7.04179 6.25722
#
# Compressibility (1/GPa) = 0.03554886
#
# Stress axis : x y z
#
# Youngs Moduli (GPa) = 76.37133 53.55289 69.29675
#
# Poissons Ratio (x) = 0.36791 -0.06845
# Poissons Ratio (y) = 0.52467 -0.03865
# Poissons Ratio (z) = -0.07544 -0.02987
#
# Static dielectric constant tensor:
#      x y z
#    x 2.197320 0.000000 -0.414250 
#    y 0.000000 1.917090 0.000000 
#    z -0.414250 0.000000 2.502130 
# 
# From -- ./inp_files/230132.got.cif
#   From: 2010.05.17/outbox.cif.g08.bks.cpg/sg15_116_cif.got.tgz:230132.got - 2010.06.03 18:47:42.
