data_PCOD9274561
_publ_section_title
;
Structure prediction by ZEFSAII (Michael W. Deem and Ramdas Pophale) SiO2 
 PCOD9274561
Probable space group: C 2/C
;
_chemical_formula_sum "Si O2"
_cell_formula_units_Z 60
_cell_length_a 12.575965
_cell_length_b 14.366405
_cell_length_c 16.946357
_cell_angle_alpha 90.000000
_cell_angle_beta 66.446400
_cell_angle_gamma 90.000000
_cell_volume 2806.639808
_symmetry_space_group_name_H-M "C 2/C"
_symmetry_group_IT_number 15
_symmetry_cell_setting 'monoclinic'
loop_
_space_group_symop_operation_xyz
x,y,z
-x,y,1/2-z
-x,-y,-z
x,-y,1/2+z
1/2+x,1/2+y,z
1/2-x,1/2+y,1/2-z
1/2-x,1/2-y,-z
1/2+x,1/2-y,1/2+z
loop_
_atom_site_type_symbol
_atom_site_label
_atom_site_fract_x
_atom_site_fract_y
_atom_site_fract_z
Si Si1 0.351742 0.687472 0.005132
Si Si2 0.633979 0.024720 0.549231
Si Si3 0.873656 0.149961 0.822189
Si Si4 0.000000 0.423395 0.250000
Si Si5 0.635991 0.502593 0.939781
Si Si6 0.006673 0.651539 0.463099
Si Si7 0.270653 0.048166 0.752863
Si Si8 0.883094 0.655835 0.236530
O O1 0.390395 0.643052 0.910559
O O2 0.445956 0.756512 0.012974
O O3 0.250000 0.750000 0.000000
O O4 0.325262 0.605888 0.073152
O O5 0.565998 0.035830 0.652461
O O6 0.586575 0.098993 0.501289
O O7 0.770382 0.039090 0.524133
O O8 0.593642 0.923057 0.531015
O O9 0.780587 0.078237 0.815298
O O10 0.838492 0.252906 0.797508
O O11 0.000000 0.131779 0.750000
O O12 0.881763 0.387773 0.242267
O O13 0.670458 0.553483 0.848762
O O14 0.500000 0.500000 0.000000
O O15 0.075043 0.681270 0.363970
O O16 0.314918 0.941121 0.744173
O O17 0.000000 0.632046 0.250000
#
# Coordination Sequence:
#
# PCOD9274561 Si02
#       8
#     8   8   8   4   8   8   8   8
#     4  12  23  37  64  98 126 156 214 275 322 376
#     4  10  22  38  63  99 124 170 215 265 327 374
#     4  11  24  39  64  95 127 166 213 260 324 390
#     4  10  20  38  64  84 122 168 214 256 320 374
#     4  11  24  41  61  88 131 176 212 255 321 392
#     4  11  21  37  65  99 127 155 217 278 317 376
#     4  11  22  40  64  90 125 171 212 262 320 379
#     4  11  19  39  65  94 124 164 211 266 325 383
#
# _framework density 21.377876000000001
#
# number of rings (size 3 to 8) (size 9 to 14) (size 15 to 20)
#    0.000    1.067    6.000    2.400    3.733    0.000 
#    0.000    0.667    1.467    0.000    0.000    0.000 
#    0.000    0.000    0.000    0.000    0.000    0.000 
#
# Total GULP energy -167214.183827 kJ/mol
# GULP energy per Si atom -5573.806128 kJ/mol
# Density = 2.132922 g / cm^3
# Si number density = 21.377876 Si / 1000 Ang^3
#
#
#
# Elastic Constant Matrix: (Units=GPa)
#
#
# Indices 1 2 3 4 5 6 
#
# 1 122.8360 23.1908 20.6118 0.0000 -5.3234 0.0000
# 2 23.1908 64.3482 6.3124 0.0000 16.8528 0.0000
# 3 20.6118 6.3124 52.7951 0.0000 -1.8440 0.0000
# 4 0.0000 0.0000 0.0000 23.9226 0.0000 0.9408
# 5 -5.3234 16.8528 -1.8440 0.0000 31.8644 0.0000
# 6 0.0000 0.0000 0.0000 0.9408 0.0000 37.1824
#
#
#
# Elastic Compliance Matrix: (Units=1/GPa)
#
#
# Indices 1 2 3 4 5 6 
#
# 1 0.009594 -0.004089 -0.003131 0.000000 0.003584 0.000000
# 2 -0.004089 0.020116 -0.001207 0.000000 -0.011392 0.000000
# 3 -0.003131 -0.001207 0.020353 0.000000 0.001293 0.000000
# 4 0.000000 0.000000 0.000000 0.041843 0.000000 -0.001059
# 5 0.003584 -0.011392 0.001293 0.000000 0.038082 0.000000
# 6 0.000000 0.000000 0.000000 -0.001059 0.000000 0.026921
#
#
# Mechanical properties :
#
#
# Convention : Reuss Voigt Hill
#
# Bulk Modulus (GPa) = 30.11254 37.80102 33.95678
# Shear Modulus (GPa) = 27.05147 31.25150 29.15149
#
# Velocity S-wave (km/s) = 3.56110 3.82758 3.69674
# Velocity P-wave (km/s) = 5.57001 6.10365 5.84292
#
# Compressibility (1/GPa) = 0.03320875
#
# Stress axis : x y z
#
# Youngs Moduli (GPa) = 104.23503 49.71145 49.13249
#
# Poissons Ratio (x) = 0.20327 0.15385
# Poissons Ratio (y) = 0.42622 0.05928
# Poissons Ratio (z) = 0.32640 0.05998
#
# Static dielectric constant tensor:
#      x y z
#    x 1.802930 0.000000 -0.043460 
#    y 0.000000 1.839250 0.000000 
#    z -0.043460 0.000000 1.832810 
# 
# From -- ./inp_files/198299.got.cif
#   From: 2010.05.17/outbox.cif.g08.bks.cpg/sg15_100_cif.got.tgz:198299.got - 2010.06.03 18:47:42.
