data_PCOD9274629
_publ_section_title
;
Structure prediction by ZEFSAII (Michael W. Deem and Ramdas Pophale) SiO2 
 PCOD9274629
Probable space group: C 2/C
;
_chemical_formula_sum "Si O2"
_cell_formula_units_Z 56
_cell_length_a 7.396179
_cell_length_b 12.266975
_cell_length_c 28.987222
_cell_angle_alpha 90.000000
_cell_angle_beta 100.527708
_cell_angle_gamma 90.000000
_cell_volume 2585.702973
_symmetry_space_group_name_H-M "C 2/C"
_symmetry_group_IT_number 15
_symmetry_cell_setting 'monoclinic'
loop_
_space_group_symop_operation_xyz
x,y,z
-x,y,1/2-z
-x,-y,-z
x,-y,1/2+z
1/2+x,1/2+y,z
1/2-x,1/2+y,1/2-z
1/2-x,1/2-y,-z
1/2+x,1/2-y,1/2+z
loop_
_atom_site_type_symbol
_atom_site_label
_atom_site_fract_x
_atom_site_fract_y
_atom_site_fract_z
Si Si1 0.989237 0.299365 0.894048
Si Si2 0.276077 0.756712 0.200114
Si Si3 0.925293 0.504385 0.548956
Si Si4 0.000000 0.927110 0.750000
Si Si5 0.720507 0.002050 0.811116
Si Si6 0.639367 0.608183 0.090091
Si Si7 0.000000 0.329979 0.750000
Si Si8 0.309312 0.761386 0.055202
O O1 0.881306 0.266618 0.843975
O O2 0.883304 0.230126 0.927195
O O3 0.963664 0.423589 0.911840
O O4 0.208194 0.294242 0.899190
O O5 0.414567 0.656275 0.208457
O O6 0.171187 0.744078 0.243895
O O7 0.354503 0.874970 0.192492
O O8 0.717884 0.456792 0.548707
O O9 0.922660 0.627673 0.565480
O O10 0.000000 0.500000 0.500000
O O11 0.145434 0.994593 0.727196
O O12 0.823215 0.967143 0.863099
O O13 0.564954 0.912911 0.793054
O O14 0.439516 0.661020 0.076572
O O15 0.250000 0.750000 0.000000
#
# Coordination Sequence:
#
# PCOD9274629 Si02
#       8
#     8   8   8   4   8   8   4   8
#     4  10  23  43  62  97 130 167 218 270 315 396
#     4  11  21  40  63  90 129 166 204 261 322 368
#     4  10  22  44  63  96 127 165 224 266 325 389
#     4  10  24  38  64 100 124 162 224 254 306 408
#     4  11  21  41  62  94 127 166 210 258 325 378
#     4  10  24  43  63  98 128 167 219 267 321 397
#     4  10  20  38  64  90 126 158 208 258 306 390
#     4  12  23  43  68  90 129 170 213 275 329 376
#
# _framework density 21.657553
#
# number of rings (size 3 to 8) (size 9 to 14) (size 15 to 20)
#    0.857    0.571    2.857    2.571    0.000    2.857 
#    7.714    1.429    0.000    0.000    0.000    0.000 
#    0.000    0.000    0.000    0.000    0.000    0.000 
#
# Total GULP energy -155948.265927 kJ/mol
# GULP energy per Si atom -5569.580926 kJ/mol
# Density = 2.160826 g / cm^3
# Si number density = 21.657553 Si / 1000 Ang^3
#
#
#
# Elastic Constant Matrix: (Units=GPa)
#
#
# Indices 1 2 3 4 5 6 
#
# 1 42.7773 -4.3350 -1.0914 0.0000 -1.9147 0.0000
# 2 -4.3350 82.7358 6.9927 0.0000 -3.6825 0.0000
# 3 -1.0914 6.9927 49.0201 0.0000 0.7343 0.0000
# 4 0.0000 0.0000 0.0000 23.5044 0.0000 -3.1363
# 5 -1.9147 -3.6825 0.7343 0.0000 31.2640 0.0000
# 6 0.0000 0.0000 0.0000 -3.1363 0.0000 15.1157
#
#
#
# Elastic Compliance Matrix: (Units=1/GPa)
#
#
# Indices 1 2 3 4 5 6 
#
# 1 0.023586 0.001280 0.000319 0.000000 0.001588 0.000000
# 2 0.001280 0.012373 -0.001760 0.000000 0.001577 0.000000
# 3 0.000319 -0.001760 0.020668 0.000000 -0.000673 0.000000
# 4 0.000000 0.000000 0.000000 0.043757 0.000000 0.009079
# 5 0.001588 0.001577 -0.000673 0.000000 0.032284 0.000000
# 6 0.000000 0.000000 0.000000 0.009079 0.000000 0.068040
#
#
# Mechanical properties :
#
#
# Convention : Reuss Voigt Hill
#
# Bulk Modulus (GPa) = 17.76107 19.74064 18.75085
# Shear Modulus (GPa) = 22.74805 25.50795 24.12800
#
# Velocity S-wave (km/s) = 3.24443 3.43561 3.34139
# Velocity P-wave (km/s) = 4.71739 4.98724 4.85419
#
# Compressibility (1/GPa) = 0.05630293
#
# Stress axis : x y z
#
# Youngs Moduli (GPa) = 42.39852 80.82340 48.38390
#
# Poissons Ratio (x) = -0.10341 -0.01543
# Poissons Ratio (y) = -0.05425 0.08516
# Poissons Ratio (z) = -0.01352 0.14226
#
# Static dielectric constant tensor:
#      x y z
#    x 1.930940 0.000000 -0.138620 
#    y 0.000000 1.797770 0.000000 
#    z -0.138620 0.000000 1.939080 
# 
# From -- ./inp_files/288092.got.cif
#   From: 2010.05.17/outbox.cif.g08.bks.cpg/sg15_145_cif.got.tgz:288092.got - 2010.06.03 18:47:42.
