data_PCOD9274092
_publ_section_title
;
Structure prediction by ZEFSAII (Michael W. Deem and Ramdas Pophale) SiO2 
 PCOD9274092
Probable space group: C 2/C
;
_chemical_formula_sum "Si O2"
_cell_formula_units_Z 40
_cell_length_a 11.532203
_cell_length_b 11.706329
_cell_length_c 19.553455
_cell_angle_alpha 90.000000
_cell_angle_beta 33.322701
_cell_angle_gamma 90.000000
_cell_volume 1450.136034
_symmetry_space_group_name_H-M "C 2/C"
_symmetry_group_IT_number 15
_symmetry_cell_setting 'monoclinic'
loop_
_space_group_symop_operation_xyz
x,y,z
-x,y,1/2-z
-x,-y,-z
x,-y,1/2+z
1/2+x,1/2+y,z
1/2-x,1/2+y,1/2-z
1/2-x,1/2-y,-z
1/2+x,1/2-y,1/2+z
loop_
_atom_site_type_symbol
_atom_site_label
_atom_site_fract_x
_atom_site_fract_y
_atom_site_fract_z
Si Si1 0.834813 0.880898 0.386159
Si Si2 0.839156 0.591606 0.951795
Si Si3 0.989427 0.781614 0.064527
Si Si4 0.262076 0.949647 0.860496
Si Si5 0.895310 0.197751 0.187118
O O1 0.961922 0.805655 0.379637
O O2 0.666192 0.792710 0.440371
O O3 0.000000 0.927207 0.250000
O O4 0.683488 0.971411 0.498438
O O5 0.815112 0.561505 0.882784
O O6 0.044224 0.669358 0.861973
O O7 0.630746 0.653761 0.082379
O O8 0.768178 0.719482 0.171341
O O9 0.053804 0.903124 0.003268
O O10 0.500000 0.895335 0.750000
O O11 0.204159 0.902026 0.812620
#
# Coordination Sequence:
#
# PCOD9274092 Si02
#       5
#     8   8   8   8   8
#     4  10  20  38  61  89 124 164 214 272 332 396
#     4  10  25  41  62  96 130 173 226 275 338 409
#     4  10  21  38  63  92 124 171 223 270 332 404
#     4  11  23  43  68  95 131 179 225 279 346 406
#     4  11  23  43  64  92 134 173 221 283 335 402
#
# _framework density 27.58362
#
# number of rings (size 3 to 8) (size 9 to 14) (size 15 to 20)
#    0.000    1.600    0.000    6.000    0.000    9.600 
#    0.000    7.000    0.000    0.000    0.000    0.000 
#    0.000    0.000    0.000    0.000    0.000    0.000 
#
# Total GULP energy -111365.392609 kJ/mol
# GULP energy per Si atom -5568.269630 kJ/mol
# Density = 2.752084 g / cm^3
# Si number density = 27.583620 Si / 1000 Ang^3
#
#
#
# Elastic Constant Matrix: (Units=GPa)
#
#
# Indices 1 2 3 4 5 6 
#
# 1 100.3163 27.6193 32.9408 -0.0001 -0.7157 0.0000
# 2 27.6193 113.2489 18.7081 -0.0003 5.9341 0.0001
# 3 32.9408 18.7081 178.5396 -0.0011 -5.5908 0.0002
# 4 -0.0001 -0.0003 -0.0011 10.4031 0.0003 11.7420
# 5 -0.7157 5.9341 -5.5908 0.0003 25.6558 0.0000
# 6 0.0000 0.0001 0.0002 11.7420 0.0000 19.8453
#
#
#
# Elastic Compliance Matrix: (Units=1/GPa)
#
#
# Indices 1 2 3 4 5 6 
#
# 1 0.011243 -0.002470 -0.001800 -0.000001 0.000493 0.000000
# 2 -0.002470 0.009665 -0.000633 0.000001 -0.002443 -0.000001
# 3 -0.001800 -0.000633 0.006044 0.000002 0.001413 -0.000001
# 4 -0.000001 0.000001 0.000002 0.289388 -0.000003 -0.171224
# 5 0.000493 -0.002443 0.001413 -0.000003 0.039864 0.000002
# 6 0.000000 -0.000001 -0.000001 -0.171224 0.000002 0.151699
#
#
# Mechanical properties :
#
#
# Convention : Reuss Voigt Hill
#
# Bulk Modulus (GPa) = 58.32871 61.18235 59.75553
# Shear Modulus (GPa) = 9.55244 32.03661 20.79453
#
# Velocity S-wave (km/s) = 1.86296 3.41168 2.74865
# Velocity P-wave (km/s) = 5.08129 6.14396 5.63772
#
# Compressibility (1/GPa) = 0.01714422
#
# Stress axis : x y z
#
# Youngs Moduli (GPa) = 88.94219 103.46358 165.46019
#
# Poissons Ratio (x) = 0.25560 0.29784
# Poissons Ratio (y) = 0.21973 0.10481
# Poissons Ratio (z) = 0.16010 0.06554
#
# Static dielectric constant tensor:
#      x y z
#    x 2.287550 0.000000 -0.000650 
#    y 0.000000 2.467610 0.000000 
#    z -0.000650 0.000000 2.028470 
# 
# From -- ./inp_files/173082.got.cif
#   From: 2010.05.17/outbox.cif.g08.bks.cpg/sg15_87_cif.got.tgz:173082.got - 2010.06.03 18:47:42.
