data_PCOD9274098
_publ_section_title
;
Structure prediction by ZEFSAII (Michael W. Deem and Ramdas Pophale) SiO2 
 PCOD9274098
Probable space group: C 2/C
;
_chemical_formula_sum "Si O2"
_cell_formula_units_Z 52
_cell_length_a 13.936887
_cell_length_b 28.598669
_cell_length_c 9.145075
_cell_angle_alpha 90.000000
_cell_angle_beta 50.408347
_cell_angle_gamma 90.000000
_cell_volume 2808.867881
_symmetry_space_group_name_H-M "C 2/C"
_symmetry_group_IT_number 15
_symmetry_cell_setting 'monoclinic'
loop_
_space_group_symop_operation_xyz
x,y,z
-x,y,1/2-z
-x,-y,-z
x,-y,1/2+z
1/2+x,1/2+y,z
1/2-x,1/2+y,1/2-z
1/2-x,1/2-y,-z
1/2+x,1/2-y,1/2+z
loop_
_atom_site_type_symbol
_atom_site_label
_atom_site_fract_x
_atom_site_fract_y
_atom_site_fract_z
Si Si1 0.856760 0.905304 0.869249
Si Si2 0.322687 0.731446 0.072781
Si Si3 0.000000 0.843033 0.250000
Si Si4 0.096755 0.009204 0.774733
Si Si5 0.098997 0.674783 0.861856
Si Si6 0.820017 0.672155 0.052443
Si Si7 0.790785 0.897772 0.270067
O O1 0.777070 0.870617 0.847876
O O2 0.000000 0.890632 0.750000
O O3 0.853144 0.958390 0.817308
O O4 0.807515 0.903025 0.080752
O O5 0.397891 0.775383 0.062536
O O6 0.233415 0.712343 0.289448
O O7 0.250000 0.750000 0.000000
O O8 0.414186 0.690226 0.933390
O O9 0.093327 0.872826 0.261556
O O10 0.203225 0.048166 0.685943
O O11 0.000000 0.027628 0.750000
O O12 0.000000 0.000000 0.000000
O O13 0.162139 0.682530 0.639129
O O14 0.173528 0.637227 0.888676
O O15 0.957788 0.659103 0.972625
#
# Coordination Sequence:
#
# PCOD9274098 Si02
#       7
#     8   8   4   8   8   8   8
#     4  10  20  38  61  90 114 156 200 253 307 362
#     4  12  23  40  61  88 124 159 204 255 307 356
#     4  12  24  36  60  92 124 160 202 260 314 352
#     4  11  20  34  60  91 123 150 199 259 312 358
#     4  10  23  43  60  89 122 170 203 250 301 367
#     4  10  23  42  65  84 124 165 210 245 305 371
#     4  11  21  37  58  89 125 154 201 254 304 364
#
# _framework density 18.512796999999999
#
# number of rings (size 3 to 8) (size 9 to 14) (size 15 to 20)
#    0.000    1.231    5.385    2.308    0.000    0.000 
#    5.538    0.769    0.000    0.000    0.000    0.000 
#    0.000    0.000    0.000    0.000    0.000    0.000 
#
# Total GULP energy -144897.482108 kJ/mol
# GULP energy per Si atom -5572.980081 kJ/mol
# Density = 1.847066 g / cm^3
# Si number density = 18.512797 Si / 1000 Ang^3
#
#
#
# Elastic Constant Matrix: (Units=GPa)
#
#
# Indices 1 2 3 4 5 6 
#
# 1 119.8897 70.4772 21.3191 0.0000 2.0335 0.0000
# 2 70.4772 123.8054 32.6545 0.0000 -3.6179 0.0000
# 3 21.3191 32.6545 44.6831 0.0000 -1.4622 0.0000
# 4 0.0000 0.0000 0.0000 28.9325 0.0000 8.9186
# 5 2.0335 -3.6179 -1.4622 0.0000 23.3277 0.0000
# 6 0.0000 0.0000 0.0000 8.9186 0.0000 29.6851
#
#
#
# Elastic Compliance Matrix: (Units=1/GPa)
#
#
# Indices 1 2 3 4 5 6 
#
# 1 0.012686 -0.007026 -0.000992 0.000000 -0.002258 0.000000
# 2 -0.007026 0.013925 -0.006747 0.000000 0.002349 0.000000
# 3 -0.000992 -0.006747 0.027810 0.000000 0.000783 0.000000
# 4 0.000000 0.000000 0.000000 0.038091 0.000000 -0.011444
# 5 -0.002258 0.002349 0.000783 0.000000 0.043478 0.000000
# 6 0.000000 0.000000 0.000000 -0.011444 0.000000 0.037125
#
#
# Mechanical properties :
#
#
# Convention : Reuss Voigt Hill
#
# Bulk Modulus (GPa) = 40.17661 59.69777 49.93719
# Shear Modulus (GPa) = 23.70324 27.31755 25.51039
#
# Velocity S-wave (km/s) = 3.58211 3.84553 3.71615
# Velocity P-wave (km/s) = 6.23361 7.21347 6.74137
#
# Compressibility (1/GPa) = 0.02489010
#
# Stress axis : x y z
#
# Youngs Moduli (GPa) = 78.82804 71.81313 35.95857
#
# Poissons Ratio (x) = 0.50455 0.03567
# Poissons Ratio (y) = 0.55383 0.24263
# Poissons Ratio (z) = 0.07820 0.48455
#
# Static dielectric constant tensor:
#      x y z
#    x 1.634210 0.000000 0.011790 
#    y 0.000000 1.683200 0.000000 
#    z 0.011790 0.000000 1.650480 
# 
# From -- ./inp_files/34103.got.cif
#   From: 2010.05.17/outbox.cif.g08.bks.cpg/sg15_18_cif.got.tgz:34103.got - 2010.06.03 18:47:42.
