data_PCOD9274580
_publ_section_title
;
Structure prediction by ZEFSAII (Michael W. Deem and Ramdas Pophale) SiO2 
 PCOD9274580
Probable space group: C 2/C
;
_chemical_formula_sum "Si O2"
_cell_formula_units_Z 48
_cell_length_a 16.319725
_cell_length_b 16.734401
_cell_length_c 19.410533
_cell_angle_alpha 90.000000
_cell_angle_beta 23.812542
_cell_angle_gamma 90.000000
_cell_volume 2140.268402
_symmetry_space_group_name_H-M "C 2/C"
_symmetry_group_IT_number 15
_symmetry_cell_setting 'monoclinic'
loop_
_space_group_symop_operation_xyz
x,y,z
-x,y,1/2-z
-x,-y,-z
x,-y,1/2+z
1/2+x,1/2+y,z
1/2-x,1/2+y,1/2-z
1/2-x,1/2-y,-z
1/2+x,1/2-y,1/2+z
loop_
_atom_site_type_symbol
_atom_site_label
_atom_site_fract_x
_atom_site_fract_y
_atom_site_fract_z
Si Si1 0.000000 0.777488 0.250000
Si Si2 0.832733 0.879291 0.829675
Si Si3 0.000000 0.495512 0.750000
Si Si4 0.983562 0.716413 0.680129
Si Si5 0.909276 0.638678 0.427809
Si Si6 0.237318 0.445919 0.766607
Si Si7 0.797331 0.085785 0.625012
O O1 0.022327 0.716587 0.168631
O O2 0.811101 0.834409 0.379002
O O3 0.959712 0.811036 0.690410
O O4 0.736056 0.938380 0.849510
O O5 0.000000 0.918509 0.750000
O O6 0.665888 0.829989 0.002049
O O7 0.099933 0.436683 0.617102
O O8 0.172126 0.546352 0.657167
O O9 0.779359 0.675496 0.811006
O O10 0.000000 0.705528 0.750000
O O11 0.070081 0.611614 0.361425
O O12 0.221841 0.534750 0.748426
O O13 0.463154 0.421290 0.567468
#
# Coordination Sequence:
#
# PCOD9274580 Si02
#       7
#     4   8   4   8   8   8   8
#     4   9  18  36  62  88 120 159 196 254 314 383
#     4  11  23  38  60  90 127 161 210 260 315 375
#     4   9  18  36  60  82 118 169 204 248 310 379
#     4  11  21  38  62  85 116 163 210 255 314 376
#     4   9  19  36  59  89 120 156 206 251 313 375
#     4  10  22  39  59  94 125 162 211 261 310 373
#     4  10  20  38  64  86 125 166 209 256 315 378
#
# _framework density 22.427092999999999
#
# number of rings (size 3 to 8) (size 9 to 14) (size 15 to 20)
#    0.000    2.000    0.833    4.000    0.000    3.333 
#    0.000   11.667    0.000    0.000    0.000    0.000 
#    0.000    0.000    0.000    0.000    0.000    0.000 
#
# Total GULP energy -134132.192429 kJ/mol
# GULP energy per Si atom -5588.841351 kJ/mol
# Density = 2.237605 g / cm^3
# Si number density = 22.427093 Si / 1000 Ang^3
#
#
#
# Elastic Constant Matrix: (Units=GPa)
#
#
# Indices 1 2 3 4 5 6 
#
# 1 129.8943 39.9539 26.0878 0.0012 -9.1402 0.0077
# 2 39.9539 58.2832 5.7639 -0.1054 -12.1551 -0.0027
# 3 26.0878 5.7639 100.8974 -0.1371 -16.6015 -0.0115
# 4 0.0012 -0.1054 -0.1371 -8.3943 0.0197 -22.5361
# 5 -9.1402 -12.1551 -16.6015 0.0197 35.0905 0.0012
# 6 0.0077 -0.0027 -0.0115 -22.5361 0.0012 20.4686
#
#
#
# Elastic Compliance Matrix: (Units=1/GPa)
#
#
# Indices 1 2 3 4 5 6 
#
# 1 0.010267 -0.006984 -0.002400 0.000036 -0.000881 0.000034
# 2 -0.006984 0.023245 0.001630 -0.000081 0.007004 -0.000083
# 3 -0.002400 0.001630 0.011309 -0.000054 0.005290 -0.000052
# 4 0.000036 -0.000081 -0.000054 -0.030114 -0.000026 -0.033156
# 5 -0.000881 0.007004 0.005290 -0.000026 0.033197 -0.000026
# 6 0.000034 -0.000083 -0.000052 -0.033156 -0.000026 0.012351
#
#
# Mechanical properties :
#
#
# Convention : Reuss Voigt Hill
#
# Bulk Modulus (GPa) = 34.11635 48.07625 41.09630
# Shear Modulus (GPa) = 58.45615 23.91757 41.18686
#
# Velocity S-wave (km/s) = 5.11093 3.26921 4.29006
# Velocity P-wave (km/s) = 7.07629 5.97775 6.55009
#
# Compressibility (1/GPa) = 0.02931146
#
# Stress axis : x y z
#
# Youngs Moduli (GPa) = 97.39927 43.02035 88.42608
#
# Poissons Ratio (x) = 0.30047 0.21227
# Poissons Ratio (y) = 0.68028 -0.14416
# Poissons Ratio (z) = 0.23381 -0.07013
#
# Static dielectric constant tensor:
#      x y z
#    x 1.827910 0.000000 0.024560 
#    y 0.000000 1.828230 0.000030 
#    z 0.024560 0.000030 1.891080 
# 
# From -- ./inp_files/249728.got.cif
#   From: 2010.05.17/outbox.cif.g08.bks.cpg/sg15_125_cif.got.tgz:249728.got - 2010.06.03 18:47:42.
