data_PCOD9274210
_publ_section_title
;
Structure prediction by ZEFSAII (Michael W. Deem and Ramdas Pophale) SiO2 
 PCOD9274210
Probable space group: C 2/C
;
_chemical_formula_sum "Si O2"
_cell_formula_units_Z 64
_cell_length_a 14.743894
_cell_length_b 16.235806
_cell_length_c 13.258136
_cell_angle_alpha 90.000000
_cell_angle_beta 85.624007
_cell_angle_gamma 90.000000
_cell_volume 3164.467378
_symmetry_space_group_name_H-M "C 2/C"
_symmetry_group_IT_number 15
_symmetry_cell_setting 'monoclinic'
loop_
_space_group_symop_operation_xyz
x,y,z
-x,y,1/2-z
-x,-y,-z
x,-y,1/2+z
1/2+x,1/2+y,z
1/2-x,1/2+y,1/2-z
1/2-x,1/2-y,-z
1/2+x,1/2-y,1/2+z
loop_
_atom_site_type_symbol
_atom_site_label
_atom_site_fract_x
_atom_site_fract_y
_atom_site_fract_z
Si Si1 0.673143 0.402128 0.091852
Si Si2 0.185712 0.525089 0.314661
Si Si3 0.669788 0.404204 0.849707
Si Si4 0.408024 0.106167 0.788869
Si Si5 0.653996 0.310691 0.421307
Si Si6 0.242089 0.270668 0.281347
Si Si7 0.975941 0.964955 0.112337
Si Si8 0.346509 0.856285 0.502541
O O1 0.747337 0.466447 0.126528
O O2 0.703570 0.312897 0.131258
O O3 0.573453 0.430088 0.141496
O O4 0.674636 0.404295 0.970619
O O5 0.246171 0.552421 0.213960
O O6 0.101694 0.476165 0.275097
O O7 0.153840 0.595038 0.393552
O O8 0.684215 0.310160 0.812447
O O9 0.580057 0.459360 0.832112
O O10 0.500000 0.149559 0.750000
O O11 0.325935 0.161745 0.757405
O O12 0.396976 0.096186 0.908798
O O13 0.688176 0.264102 0.317667
O O14 0.590880 0.386900 0.396978
O O15 0.613196 0.236216 0.490860
O O16 0.741429 0.344533 0.475375
O O17 0.000000 0.000000 0.000000
#
# Coordination Sequence:
#
# PCOD9274210 Si02
#       8
#     8   8   8   8   8   8   8   8
#     4  10  22  38  60  87 129 160 192 263 322 366
#     4  11  21  39  63  84 115 160 206 243 311 371
#     4  11  21  38  60  91 119 158 214 243 309 384
#     4  10  23  40  58  87 119 150 200 257 303 359
#     4  10  20  38  62  86 123 160 205 248 305 375
#     4  10  21  40  61  86 119 167 201 247 310 383
#     4  10  21  37  59  94 128 155 202 262 315 367
#     4  10  20  38  63  85 114 162 201 248 304 367
#
# _framework density 20.224571999999998
#
# number of rings (size 3 to 8) (size 9 to 14) (size 15 to 20)
#    0.000    1.750    1.250    4.875    0.000    4.500 
#    2.250    1.250    0.000    0.000    0.000    0.000 
#    0.000    0.000    0.000    0.000    0.000    0.000 
#
# Total GULP energy -178408.746153 kJ/mol
# GULP energy per Si atom -5575.273317 kJ/mol
# Density = 2.017854 g / cm^3
# Si number density = 20.224572 Si / 1000 Ang^3
#
#
#
# Elastic Constant Matrix: (Units=GPa)
#
#
# Indices 1 2 3 4 5 6 
#
# 1 55.1697 26.0256 19.7020 0.0000 -6.5504 0.0000
# 2 26.0256 110.3826 37.7385 0.0000 -3.3172 0.0000
# 3 19.7020 37.7385 100.4236 0.0000 -5.1080 0.0000
# 4 0.0000 0.0000 0.0000 25.6799 0.0000 -6.9531
# 5 -6.5504 -3.3172 -5.1080 0.0000 16.0236 0.0000
# 6 0.0000 0.0000 0.0000 -6.9531 0.0000 9.8531
#
#
#
# Elastic Compliance Matrix: (Units=1/GPa)
#
#
# Indices 1 2 3 4 5 6 
#
# 1 0.021772 -0.004108 -0.002356 0.000000 0.007299 0.000000
# 2 -0.004108 0.011184 -0.003420 0.000000 -0.000454 0.000000
# 3 -0.002356 -0.003420 0.011812 0.000000 0.002094 0.000000
# 4 0.000000 0.000000 0.000000 0.048139 0.000000 0.033970
# 5 0.007299 -0.000454 0.002094 0.000000 0.065965 0.000000
# 6 0.000000 0.000000 0.000000 0.033970 0.000000 0.125463
#
#
# Mechanical properties :
#
#
# Convention : Reuss Voigt Hill
#
# Bulk Modulus (GPa) = 40.00258 48.10091 44.05175
# Shear Modulus (GPa) = 16.00327 22.47864 19.24095
#
# Velocity S-wave (km/s) = 2.81602 3.33746 3.08777
# Velocity P-wave (km/s) = 5.51320 6.21985 5.87716
#
# Compressibility (1/GPa) = 0.02499839
#
# Stress axis : x y z
#
# Youngs Moduli (GPa) = 45.93050 89.41664 84.66143
#
# Poissons Ratio (x) = 0.36736 0.19949
# Poissons Ratio (y) = 0.18870 0.28953
# Poissons Ratio (z) = 0.10822 0.30579
#
# Static dielectric constant tensor:
#      x y z
#    x 1.692560 0.000000 -0.003840 
#    y 0.000000 1.778720 0.000000 
#    z -0.003840 0.000000 1.761740 
# 
# From -- ./inp_files/98787.got.cif
#   From: 2010.05.17/outbox.cif.g08.bks.cpg/sg15_50_cif.got.tgz:98787.got - 2010.06.03 18:47:42.
