data_PCOD9274398
_publ_section_title
;
Structure prediction by ZEFSAII (Michael W. Deem and Ramdas Pophale) SiO2 
 PCOD9274398
Probable space group: C 2/C
;
_chemical_formula_sum "Si O2"
_cell_formula_units_Z 60
_cell_length_a 18.244771
_cell_length_b 9.523244
_cell_length_c 14.370285
_cell_angle_alpha 90.000000
_cell_angle_beta 88.095036
_cell_angle_gamma 90.000000
_cell_volume 2495.448584
_symmetry_space_group_name_H-M "C 2/C"
_symmetry_group_IT_number 15
_symmetry_cell_setting 'monoclinic'
loop_
_space_group_symop_operation_xyz
x,y,z
-x,y,1/2-z
-x,-y,-z
x,-y,1/2+z
1/2+x,1/2+y,z
1/2-x,1/2+y,1/2-z
1/2-x,1/2-y,-z
1/2+x,1/2-y,1/2+z
loop_
_atom_site_type_symbol
_atom_site_label
_atom_site_fract_x
_atom_site_fract_y
_atom_site_fract_z
Si Si1 0.198089 0.371997 0.035735
Si Si2 0.672126 0.669299 0.295103
Si Si3 0.921008 0.778274 0.181797
Si Si4 0.435498 0.240138 0.862637
Si Si5 0.728851 0.388060 0.279397
Si Si6 0.199866 0.113709 0.501646
Si Si7 0.000000 0.507338 0.250000
Si Si8 0.447144 0.436240 0.374841
O O1 0.116776 0.309228 0.049798
O O2 0.212192 0.416290 0.142678
O O3 0.236109 0.500048 0.981568
O O4 0.250000 0.250000 0.000000
O O5 0.607041 0.727066 0.234172
O O6 0.704674 0.535655 0.239753
O O7 0.733913 0.787666 0.295627
O O8 0.663189 0.610321 0.398936
O O9 0.836150 0.802663 0.166126
O O10 0.929341 0.882070 0.271060
O O11 0.939780 0.620332 0.214580
O O12 0.981217 0.839478 0.107627
O O13 0.480848 0.100487 0.834207
O O14 0.465807 0.397683 0.881128
O O15 0.250000 0.250000 0.500000
O O16 0.127526 0.098406 0.567385
#
# Coordination Sequence:
#
# PCOD9274398 Si02
#       8
#     8   8   8   8   8   8   4   8
#     4  10  22  39  58  91 119 158 194 255 306 356
#     4  10  23  37  63  93 118 159 201 252 302 360
#     4  10  22  39  63  88 121 157 209 241 308 357
#     4  11  21  40  62  87 125 157 211 244 308 361
#     4  10  21  38  62  88 121 154 203 250 294 364
#     4  11  23  37  62  91 126 154 205 250 311 357
#     4  10  24  36  64  88 116 162 206 254 282 374
#     4  10  20  38  63  86 117 166 195 248 301 369
#
# _framework density 24.043773000000002
#
# number of rings (size 3 to 8) (size 9 to 14) (size 15 to 20)
#    0.000    1.867    2.667    1.600    9.333    0.000 
#    0.000    4.000    0.000    4.000    0.000    0.000 
#    0.000    0.000    0.000    0.000    0.000    0.000 
#
# Total GULP energy -167115.804041 kJ/mol
# GULP energy per Si atom -5570.526801 kJ/mol
# Density = 2.398905 g / cm^3
# Si number density = 24.043773 Si / 1000 Ang^3
#
#
#
# Elastic Constant Matrix: (Units=GPa)
#
#
# Indices 1 2 3 4 5 6 
#
# 1 32.7705 6.6525 14.9141 0.0000 -0.0211 0.0000
# 2 6.6525 168.5528 16.6038 0.0000 -20.4222 0.0000
# 3 14.9141 16.6038 93.0354 0.0000 -29.2674 0.0000
# 4 0.0000 0.0000 0.0000 24.5926 0.0000 -12.6590
# 5 -0.0211 -20.4222 -29.2674 0.0000 41.4500 0.0000
# 6 0.0000 0.0000 0.0000 -12.6590 0.0000 28.2572
#
#
#
# Elastic Compliance Matrix: (Units=1/GPa)
#
#
# Indices 1 2 3 4 5 6 
#
# 1 0.033943 -0.001327 -0.006948 0.000000 -0.005542 0.000000
# 2 -0.001327 0.006364 0.000081 0.000000 0.003192 0.000000
# 3 -0.006948 0.000081 0.015246 0.000000 0.010801 0.000000
# 4 0.000000 0.000000 0.000000 0.052850 0.000000 0.023676
# 5 -0.005542 0.003192 0.010801 0.000000 0.033322 0.000000
# 6 0.000000 0.000000 0.000000 0.023676 0.000000 0.045996
#
#
# Mechanical properties :
#
#
# Convention : Reuss Voigt Hill
#
# Bulk Modulus (GPa) = 25.53263 41.18884 33.36074
# Shear Modulus (GPa) = 23.02411 35.93918 29.48165
#
# Velocity S-wave (km/s) = 3.09785 3.87038 3.50546
# Velocity P-wave (km/s) = 4.84127 6.09435 5.50359
#
# Compressibility (1/GPa) = 0.03916557
#
# Stress axis : x y z
#
# Youngs Moduli (GPa) = 29.46110 157.13405 65.59158
#
# Poissons Ratio (x) = 0.20848 0.45573
# Poissons Ratio (y) = 0.03909 -0.00532
# Poissons Ratio (z) = 0.20470 -0.01274
#
# Static dielectric constant tensor:
#      x y z
#    x 2.154170 0.000000 0.028160 
#    y 0.000000 1.908800 0.000000 
#    z 0.028160 0.000000 2.000820 
# 
# From -- ./inp_files/213855.got.cif
#   From: 2010.05.17/outbox.cif.g08.bks.cpg/sg15_107_cif.got.tgz:213855.got - 2010.06.03 18:47:42.
