data_PCOD9274505
_publ_section_title
;
Structure prediction by ZEFSAII (Michael W. Deem and Ramdas Pophale) SiO2 
 PCOD9274505
Probable space group: C 2/C
;
_chemical_formula_sum "Si O2"
_cell_formula_units_Z 52
_cell_length_a 22.781810
_cell_length_b 15.904065
_cell_length_c 16.319707
_cell_angle_alpha 90.000000
_cell_angle_beta 22.041113
_cell_angle_gamma 90.000000
_cell_volume 2218.986501
_symmetry_space_group_name_H-M "C 2/C"
_symmetry_group_IT_number 15
_symmetry_cell_setting 'monoclinic'
loop_
_space_group_symop_operation_xyz
x,y,z
-x,y,1/2-z
-x,-y,-z
x,-y,1/2+z
1/2+x,1/2+y,z
1/2-x,1/2+y,1/2-z
1/2-x,1/2-y,-z
1/2+x,1/2-y,1/2+z
loop_
_atom_site_type_symbol
_atom_site_label
_atom_site_fract_x
_atom_site_fract_y
_atom_site_fract_z
Si Si1 0.252931 0.296267 0.407427
Si Si2 0.500000 0.920170 0.250000
Si Si3 0.019079 0.061853 0.051984
Si Si4 0.736399 0.670764 0.191452
Si Si5 0.285373 0.532193 0.951528
Si Si6 0.157253 0.650073 0.864287
Si Si7 0.668204 0.122605 0.261405
O O1 0.250000 0.250000 0.500000
O O2 0.308299 0.388013 0.361230
O O3 0.123652 0.319731 0.503261
O O4 0.344402 0.223611 0.241041
O O5 0.395336 0.859478 0.442286
O O6 0.371363 0.980281 0.371653
O O7 0.911391 0.141658 0.169354
O O8 0.196544 0.088554 0.826515
O O9 0.936503 0.023599 0.238663
O O10 0.000000 0.000000 0.000000
O O11 0.712106 0.767953 0.243581
O O12 0.743412 0.619698 0.267884
O O13 0.259986 0.572726 0.072939
O O14 0.013124 0.601111 0.010869
#
# Coordination Sequence:
#
# PCOD9274505 Si02
#       7
#     8   4   8   8   8   8   8
#     4   9  18  34  59  95 130 168 214 269 330 406
#     4  10  22  40  66  92 128 184 228 270 322 416
#     4  11  23  42  69  94 137 183 215 274 348 410
#     4  10  23  43  68  95 134 178 228 271 337 410
#     4  10  20  38  63  95 132 172 222 267 342 402
#     4  11  21  40  67  99 132 180 222 282 343 396
#     4  10  22  39  68  99 131 168 226 285 337 406
#
# _framework density 23.434121000000001
#
# number of rings (size 3 to 8) (size 9 to 14) (size 15 to 20)
#    0.000    1.846    1.538    2.769    2.154    2.462 
#    0.000    9.231    3.385    0.000    0.000    0.000 
#    0.000    0.000    0.000    0.000    0.000    0.000 
#
# Total GULP energy -145110.896335 kJ/mol
# GULP energy per Si atom -5581.188321 kJ/mol
# Density = 2.338078 g / cm^3
# Si number density = 23.434121 Si / 1000 Ang^3
#
#
#
# Elastic Constant Matrix: (Units=GPa)
#
#
# Indices 1 2 3 4 5 6 
#
# 1 67.0015 20.9789 25.1348 0.0000 -10.8562 0.0001
# 2 20.9789 95.9236 27.4978 -0.0002 5.8401 0.0002
# 3 25.1348 27.4978 86.1796 -0.0003 0.6048 0.0003
# 4 0.0000 -0.0002 -0.0003 20.2734 -0.0002 -1.4747
# 5 -10.8562 5.8401 0.6048 -0.0002 38.1967 0.0000
# 6 0.0001 0.0002 0.0003 -1.4747 0.0000 26.2636
#
#
#
# Elastic Compliance Matrix: (Units=1/GPa)
#
#
# Indices 1 2 3 4 5 6 
#
# 1 0.018512 -0.003129 -0.004442 0.000000 0.005810 0.000000
# 2 -0.003129 0.012114 -0.002934 0.000000 -0.002695 0.000000
# 3 -0.004442 -0.002934 0.013842 0.000000 -0.001033 0.000000
# 4 0.000000 0.000000 0.000000 0.049528 0.000000 0.002781
# 5 0.005810 -0.002695 -0.001033 0.000000 0.028260 0.000000
# 6 0.000000 0.000000 0.000000 0.002781 0.000000 0.038232
#
#
# Mechanical properties :
#
#
# Convention : Reuss Voigt Hill
#
# Bulk Modulus (GPa) = 42.62572 44.03642 43.33107
# Shear Modulus (GPa) = 26.41053 28.64631 27.52842
#
# Velocity S-wave (km/s) = 3.36074 3.50010 3.43113
# Velocity P-wave (km/s) = 5.76962 5.93015 5.85044
#
# Compressibility (1/GPa) = 0.02346001
#
# Stress axis : x y z
#
# Youngs Moduli (GPa) = 54.01761 82.54590 72.24154
#
# Poissons Ratio (x) = 0.25831 0.32087
# Poissons Ratio (y) = 0.16904 0.21195
# Poissons Ratio (z) = 0.23992 0.24218
#
# Static dielectric constant tensor:
#      x y z
#    x 1.947030 0.000000 -0.004930 
#    y 0.000000 1.875240 0.000000 
#    z -0.004930 0.000000 1.899410 
# 
# From -- ./inp_files/173994.got.cif
#   From: 2010.05.17/outbox.cif.g08.bks.cpg/sg15_87_cif.got.tgz:173994.got - 2010.06.03 18:47:42.
