data_PCOD9274429
_publ_section_title
;
Structure prediction by ZEFSAII (Michael W. Deem and Ramdas Pophale) SiO2 
 PCOD9274429
Probable space group: C 2/C
;
_chemical_formula_sum "Si O2"
_cell_formula_units_Z 48
_cell_length_a 5.819659
_cell_length_b 30.325110
_cell_length_c 14.116416
_cell_angle_alpha 90.000000
_cell_angle_beta 125.232316
_cell_angle_gamma 90.000000
_cell_volume 2034.935028
_symmetry_space_group_name_H-M "C 2/C"
_symmetry_group_IT_number 15
_symmetry_cell_setting 'monoclinic'
loop_
_space_group_symop_operation_xyz
x,y,z
-x,y,1/2-z
-x,-y,-z
x,-y,1/2+z
1/2+x,1/2+y,z
1/2-x,1/2+y,1/2-z
1/2-x,1/2-y,-z
1/2+x,1/2-y,1/2+z
loop_
_atom_site_type_symbol
_atom_site_label
_atom_site_fract_x
_atom_site_fract_y
_atom_site_fract_z
Si Si1 0.626679 0.782188 0.052650
Si Si2 0.569310 0.934103 0.550886
Si Si3 0.694582 0.918001 0.376635
Si Si4 0.952118 0.988143 0.129366
Si Si5 0.240963 0.139943 0.039665
Si Si6 0.971175 0.205272 0.353504
O O1 0.663039 0.753625 0.156762
O O2 0.750000 0.750000 0.000000
O O3 0.753980 0.828520 0.051413
O O4 0.292796 0.791425 0.965564
O O5 0.534378 0.917020 0.436374
O O6 0.312040 0.968640 0.492963
O O7 0.509714 0.892967 0.604818
O O8 0.863198 0.960638 0.620010
O O9 0.500000 0.898194 0.250000
O O10 0.785998 0.967301 0.364429
O O11 0.975250 0.891090 0.461322
O O12 0.000000 0.972947 0.250000
O O13 0.192946 0.169722 0.121319
O O14 0.000000 0.195367 0.250000
#
# Coordination Sequence:
#
# PCOD9274429 Si02
#       6
#     8   8   8   8   8   8
#     4   9  20  41  63  91 126 166 212 257 318 389
#     4  10  21  38  60  91 130 167 217 272 325 384
#     4  11  21  38  63  91 128 175 216 271 330 383
#     4  10  20  38  63  89 120 174 223 265 323 391
#     4  10  22  39  61  94 133 165 212 278 324 384
#     4  10  21  42  69  92 126 174 214 258 328 395
#
# _framework density 23.587978
#
# number of rings (size 3 to 8) (size 9 to 14) (size 15 to 20)
#    0.000    2.000    1.667    1.500    0.000    2.667 
#    0.000   25.000    0.000    2.000    0.000    0.000 
#    0.000    0.000    0.000    0.000    0.000    0.000 
#
# Total GULP energy -133787.131908 kJ/mol
# GULP energy per Si atom -5574.463830 kJ/mol
# Density = 2.353429 g / cm^3
# Si number density = 23.587978 Si / 1000 Ang^3
#
#
#
# Elastic Constant Matrix: (Units=GPa)
#
#
# Indices 1 2 3 4 5 6 
#
# 1 85.0567 55.2753 20.1405 0.0000 -27.9655 0.0000
# 2 55.2753 136.8944 32.5595 0.0000 -18.4795 0.0000
# 3 20.1405 32.5595 63.3043 0.0000 -23.6966 0.0000
# 4 0.0000 0.0000 0.0000 9.4805 0.0000 -3.2745
# 5 -27.9655 -18.4795 -23.6966 0.0000 38.9143 0.0000
# 6 0.0000 0.0000 0.0000 -3.2745 0.0000 55.7978
#
#
#
# Elastic Compliance Matrix: (Units=1/GPa)
#
#
# Indices 1 2 3 4 5 6 
#
# 1 0.019661 -0.006724 0.001680 0.000000 0.011959 0.000000
# 2 -0.006724 0.010715 -0.004243 0.000000 -0.002328 0.000000
# 3 0.001680 -0.004243 0.022203 0.000000 0.012713 0.000000
# 4 0.000000 0.000000 0.000000 0.107662 0.000000 0.006318
# 5 0.011959 -0.002328 0.012713 0.000000 0.040928 0.000000
# 6 0.000000 0.000000 0.000000 0.006318 0.000000 0.018293
#
#
# Mechanical properties :
#
#
# Convention : Reuss Voigt Hill
#
# Bulk Modulus (GPa) = 29.40780 55.68955 42.54868
# Shear Modulus (GPa) = 20.05054 32.65719 26.35387
#
# Velocity S-wave (km/s) = 2.91869 3.72490 3.34617
# Velocity P-wave (km/s) = 4.88392 6.49311 5.74513
#
# Compressibility (1/GPa) = 0.03400458
#
# Stress axis : x y z
#
# Youngs Moduli (GPa) = 50.86337 93.32892 45.03812
#
# Poissons Ratio (x) = 0.62752 -0.07565
# Poissons Ratio (y) = 0.34199 0.19110
# Poissons Ratio (z) = -0.08543 0.39600
#
# Static dielectric constant tensor:
#      x y z
#    x 1.944800 0.000000 0.017090 
#    y 0.000000 1.969620 0.000000 
#    z 0.017090 0.000000 1.901690 
# 
# From -- ./inp_files/130921.got.cif
#   From: 2010.05.17/outbox.cif.g08.bks.cpg/sg15_66_cif.got.tgz:130921.got - 2010.06.03 18:47:42.
