data_PCOD9274712
_publ_section_title
;
Structure prediction by ZEFSAII (Michael W. Deem and Ramdas Pophale) SiO2 
 PCOD9274712
Probable space group: C 2/C
;
_chemical_formula_sum "Si O2"
_cell_formula_units_Z 48
_cell_length_a 12.534656
_cell_length_b 15.434454
_cell_length_c 24.754793
_cell_angle_alpha 90.000000
_cell_angle_beta 24.845892
_cell_angle_gamma 90.000000
_cell_volume 2012.321566
_symmetry_space_group_name_H-M "C 2/C"
_symmetry_group_IT_number 15
_symmetry_cell_setting 'monoclinic'
loop_
_space_group_symop_operation_xyz
x,y,z
-x,y,1/2-z
-x,-y,-z
x,-y,1/2+z
1/2+x,1/2+y,z
1/2-x,1/2+y,1/2-z
1/2-x,1/2-y,-z
1/2+x,1/2-y,1/2+z
loop_
_atom_site_type_symbol
_atom_site_label
_atom_site_fract_x
_atom_site_fract_y
_atom_site_fract_z
Si Si1 0.317777 0.402251 0.745961
Si Si2 0.902389 0.265025 0.374730
Si Si3 0.500000 0.696905 0.750000
Si Si4 0.765960 0.923686 0.222204
Si Si5 0.000000 0.472965 0.750000
Si Si6 0.096660 0.842566 0.915880
Si Si7 0.747514 0.653748 0.524666
O O1 0.500001 0.329338 0.689503
O O2 0.296671 0.507008 0.757478
O O3 0.393285 0.384449 0.648512
O O4 0.034676 0.375452 0.890824
O O5 0.750000 0.250000 0.500000
O O6 0.688109 0.314257 0.436978
O O7 0.128415 0.330117 0.287686
O O8 0.272018 0.757801 0.833818
O O9 0.624846 0.651385 0.640883
O O10 0.595823 0.970633 0.255568
O O11 0.057442 0.903011 0.076126
O O12 0.237634 0.410947 0.626368
O O13 0.750000 0.750000 0.500000
#
# Coordination Sequence:
#
# PCOD9274712 Si02
#       7
#     8   8   4   8   4   8   8
#     4  10  22  41  66 101 135 186 237 285 356 422
#     4  10  20  38  64  95 136 183 227 278 356 422
#     4  11  22  42  68 101 132 186 240 295 338 425
#     4  11  24  41  66 100 142 180 231 300 354 421
#     4   9  22  38  60 107 138 174 224 287 382 425
#     4   9  19  39  64  97 140 170 224 290 364 422
#     4  12  23  44  71  98 139 190 244 288 358 424
#
# _framework density 23.853045000000002
#
# number of rings (size 3 to 8) (size 9 to 14) (size 15 to 20)
#    0.000    1.667    3.333    1.000    7.000    2.000 
#    0.000    0.833    0.000    0.000    0.000    0.000 
#    0.000    0.000    0.000    0.000    0.000    0.000 
#
# Total GULP energy -133795.766180 kJ/mol
# GULP energy per Si atom -5574.823591 kJ/mol
# Density = 2.379875 g / cm^3
# Si number density = 23.853045 Si / 1000 Ang^3
#
#
#
# Elastic Constant Matrix: (Units=GPa)
#
#
# Indices 1 2 3 4 5 6 
#
# 1 64.9958 23.9827 22.2423 0.0058 -0.7696 -0.0024
# 2 23.9827 83.3344 23.1581 0.0013 -3.3467 -0.0213
# 3 22.2423 23.1581 113.9598 0.0466 -12.0424 -0.0435
# 4 0.0058 0.0013 0.0466 38.4211 -0.0238 -29.0911
# 5 -0.7696 -3.3467 -12.0424 -0.0238 39.6596 0.0024
# 6 -0.0024 -0.0213 -0.0435 -29.0911 0.0024 12.8612
#
#
#
# Elastic Compliance Matrix: (Units=1/GPa)
#
#
# Indices 1 2 3 4 5 6 
#
# 1 0.017936 -0.004449 -0.002686 0.000014 -0.000843 0.000018
# 2 -0.004449 0.013825 -0.001887 -0.000021 0.000507 -0.000031
# 3 -0.002686 -0.001887 0.009981 -0.000018 0.002819 -0.000010
# 4 0.000014 -0.000021 -0.000018 -0.036522 -0.000024 -0.082610
# 5 -0.000843 0.000507 0.002819 -0.000024 0.026097 -0.000048
# 6 0.000018 -0.000031 -0.000010 -0.082610 -0.000048 -0.109104
#
#
# Mechanical properties :
#
#
# Convention : Reuss Voigt Hill
#
# Bulk Modulus (GPa) = 42.19892 44.56178 43.38035
# Shear Modulus (GPa) = -96.44719 31.04884 -32.69917
#
# Velocity S-wave (km/s) = -6.36566 3.61178 -3.70653
# Velocity P-wave (km/s) = 6.02489 6.00963 0.30302
#
# Compressibility (1/GPa) = 0.02369729
#
# Stress axis : x y z
#
# Youngs Moduli (GPa) = 55.75227 72.33165 100.19364
#
# Poissons Ratio (x) = 0.32183 0.26909
# Poissons Ratio (y) = 0.24807 0.18911
# Poissons Ratio (z) = 0.14973 0.13652
#
# Static dielectric constant tensor:
#      x y z
#    x 2.098890 0.000020 0.009400 
#    y 0.000020 2.044260 0.000000 
#    z 0.009400 0.000000 1.888040 
# 
# From -- ./inp_files/155109.got.cif
#   From: 2010.05.17/outbox.cif.g08.bks.cpg/sg15_78_cif.got.tgz:155109.got - 2010.06.03 18:47:42.
