data_PCOD9274055
_publ_section_title
;
Structure prediction by ZEFSAII (Michael W. Deem and Ramdas Pophale) SiO2 
 PCOD9274055
Probable space group: C 2/C
;
_chemical_formula_sum "Si O2"
_cell_formula_units_Z 44
_cell_length_a 30.190952
_cell_length_b 12.332832
_cell_length_c 15.500934
_cell_angle_alpha 90.000000
_cell_angle_beta 19.975666
_cell_angle_gamma 90.000000
_cell_volume 1971.705608
_symmetry_space_group_name_H-M "C 2/C"
_symmetry_group_IT_number 15
_symmetry_cell_setting 'monoclinic'
loop_
_space_group_symop_operation_xyz
x,y,z
-x,y,1/2-z
-x,-y,-z
x,-y,1/2+z
1/2+x,1/2+y,z
1/2-x,1/2+y,1/2-z
1/2-x,1/2-y,-z
1/2+x,1/2-y,1/2+z
loop_
_atom_site_type_symbol
_atom_site_label
_atom_site_fract_x
_atom_site_fract_y
_atom_site_fract_z
Si Si1 0.230512 0.043915 0.384327
Si Si2 0.500000 0.255761 0.750000
Si Si3 0.016946 0.901031 0.401846
Si Si4 0.925806 0.254887 0.565081
Si Si5 0.266135 0.092740 0.130159
Si Si6 0.622208 0.928253 0.249788
O O1 0.322573 0.149193 0.236316
O O2 0.243993 0.025229 0.258113
O O3 0.091106 0.070181 0.678587
O O4 0.279942 0.943046 0.350909
O O5 0.546209 0.309080 0.575761
O O6 0.621616 0.178783 0.552542
O O7 0.873635 0.860208 0.639518
O O8 0.103007 0.817614 0.299900
O O9 0.000000 0.000000 0.500000
O O10 0.062307 0.311731 0.340561
O O11 0.316354 0.031779 0.952681
O O12 0.500000 0.000000 0.500000
#
# Coordination Sequence:
#
# PCOD9274055 Si02
#       6
#     8   4   8   8   8   8
#     4  10  20  40  62  85 121 163 195 245 300 355
#     4   8  18  38  62  88 106 156 204 256 288 350
#     4  12  23  38  56  89 124 161 191 247 308 355
#     4   9  20  38  63  85 119 155 203 241 297 359
#     4  10  20  38  61  86 124 154 202 247 303 349
#     4   9  18  36  63  89 111 153 202 248 289 350
#
# _framework density 22.315704
#
# number of rings (size 3 to 8) (size 9 to 14) (size 15 to 20)
#    0.000    2.182    1.818    2.182    0.000    2.909 
#    3.273    1.818    8.000    0.000    0.000    0.000 
#    0.000    0.000    0.000    0.000    0.000    0.000 
#
# Total GULP energy -122643.424028 kJ/mol
# GULP energy per Si atom -5574.701092 kJ/mol
# Density = 2.226491 g / cm^3
# Si number density = 22.315704 Si / 1000 Ang^3
#
#
#
# Elastic Constant Matrix: (Units=GPa)
#
#
# Indices 1 2 3 4 5 6 
#
# 1 123.6640 18.1716 45.8355 0.0000 33.5930 0.0000
# 2 18.1716 24.5957 2.5303 0.0000 -0.3761 0.0000
# 3 45.8355 2.5303 129.1650 0.0000 16.0848 0.0000
# 4 0.0000 0.0000 0.0000 11.0917 0.0000 -6.3333
# 5 33.5930 -0.3761 16.0848 0.0000 62.9526 0.0000
# 6 0.0000 0.0000 0.0000 -6.3333 0.0000 20.7334
#
#
#
# Elastic Compliance Matrix: (Units=1/GPa)
#
#
# Indices 1 2 3 4 5 6 
#
# 1 0.012190 -0.008738 -0.003448 0.000000 -0.005676 0.000000
# 2 -0.008738 0.047017 0.001616 0.000000 0.004531 0.000000
# 3 -0.003448 0.001616 0.008990 0.000000 -0.000447 0.000000
# 4 0.000000 0.000000 0.000000 0.109205 0.000000 0.033358
# 5 -0.005676 0.004531 -0.000447 0.000000 0.019055 0.000000
# 6 0.000000 0.000000 0.000000 0.033358 0.000000 0.058421
#
#
# Mechanical properties :
#
#
# Convention : Reuss Voigt Hill
#
# Bulk Modulus (GPa) = 21.25160 45.61105 33.43132
# Shear Modulus (GPa) = 17.14066 33.01471 25.07768
#
# Velocity S-wave (km/s) = 2.77447 3.85052 3.35590
# Velocity P-wave (km/s) = 4.45055 6.34445 5.47994
#
# Compressibility (1/GPa) = 0.04705528
#
# Stress axis : x y z
#
# Youngs Moduli (GPa) = 82.03206 21.26907 111.23976
#
# Poissons Ratio (x) = 0.18586 0.38353
# Poissons Ratio (y) = 0.71683 -0.17972
# Poissons Ratio (z) = 0.28283 -0.03436
#
# Static dielectric constant tensor:
#      x y z
#    x 1.883530 0.000000 0.002490 
#    y 0.000000 1.858040 0.000000 
#    z 0.002490 0.000000 1.826400 
# 
# From -- ./inp_files/182230.got.cif
#   From: 2010.05.17/outbox.cif.g08.bks.cpg/sg15_92_cif.got.tgz:182230.got - 2010.06.03 18:47:42.
