data_PCOD9274180
_publ_section_title
;
Structure prediction by ZEFSAII (Michael W. Deem and Ramdas Pophale) SiO2 
 PCOD9274180
Probable space group: C 2/C
;
_chemical_formula_sum "Si O2"
_cell_formula_units_Z 60
_cell_length_a 26.419645
_cell_length_b 8.080859
_cell_length_c 25.883910
_cell_angle_alpha 90.000000
_cell_angle_beta 149.933973
_cell_angle_gamma 90.000000
_cell_volume 2768.535457
_symmetry_space_group_name_H-M "C 2/C"
_symmetry_group_IT_number 15
_symmetry_cell_setting 'monoclinic'
loop_
_space_group_symop_operation_xyz
x,y,z
-x,y,1/2-z
-x,-y,-z
x,-y,1/2+z
1/2+x,1/2+y,z
1/2-x,1/2+y,1/2-z
1/2-x,1/2-y,-z
1/2+x,1/2-y,1/2+z
loop_
_atom_site_type_symbol
_atom_site_label
_atom_site_fract_x
_atom_site_fract_y
_atom_site_fract_z
Si Si1 0.644053 0.075200 0.447433
Si Si2 0.049075 0.080371 0.228212
Si Si3 0.000000 0.371541 0.250000
Si Si4 0.655878 0.500410 0.626850
Si Si5 0.144820 0.942917 0.405259
Si Si6 0.486614 0.634105 0.413828
Si Si7 0.861146 0.366944 0.841378
Si Si8 0.068889 0.503797 0.491157
O O1 0.743461 0.998996 0.508806
O O2 0.645561 0.267495 0.433773
O O3 0.552523 0.984983 0.338598
O O4 0.636022 0.053650 0.501728
O O5 0.072802 0.079877 0.189655
O O6 0.071341 0.248691 0.279101
O O7 0.927633 0.061091 0.125811
O O8 0.094951 0.935675 0.303757
O O9 0.587349 0.527728 0.515520
O O10 0.588317 0.385102 0.604261
O O11 0.768785 0.430133 0.724724
O O12 0.658462 0.681728 0.655853
O O13 0.522225 0.822083 0.439064
O O14 0.971205 0.379116 0.912213
O O15 0.871973 0.481913 0.902474
#
# Coordination Sequence:
#
# PCOD9274180 Si02
#       8
#     8   8   4   8   8   8   8   8
#     4  11  21  42  60  93 117 173 196 263 303 375
#     4  10  21  41  60  90 119 164 196 268 296 369
#     4  10  20  38  62  84 122 150 212 244 308 348
#     4  10  22  40  66  90 128 157 205 256 308 378
#     4   9  23  39  61  86 131 152 213 249 311 360
#     4  10  21  41  63  92 121 166 205 254 311 367
#     4  10  22  42  60  97 122 161 203 260 305 381
#     4  10  22  40  65  87 128 159 212 250 312 368
#
# _framework density 21.672108999999999
#
# number of rings (size 3 to 8) (size 9 to 14) (size 15 to 20)
#    0.000    2.133    1.333    1.600    3.733    3.200 
#    2.400    0.000    0.000    0.000    0.000    0.000 
#    0.000    0.000    0.000    0.000    0.000    0.000 
#
# Total GULP energy -167442.309181 kJ/mol
# GULP energy per Si atom -5581.410306 kJ/mol
# Density = 2.162278 g / cm^3
# Si number density = 21.672109 Si / 1000 Ang^3
#
#
#
# Elastic Constant Matrix: (Units=GPa)
#
#
# Indices 1 2 3 4 5 6 
#
# 1 49.2204 14.3595 -6.5905 0.0000 -10.6151 0.0000
# 2 14.3595 43.8066 -0.5187 0.0000 3.2219 0.0000
# 3 -6.5905 -0.5187 36.4678 0.0000 0.3741 0.0000
# 4 0.0000 0.0000 0.0000 18.3017 0.0000 1.9655
# 5 -10.6151 3.2219 0.3741 0.0000 32.0777 0.0000
# 6 0.0000 0.0000 0.0000 1.9655 0.0000 22.2755
#
#
#
# Elastic Compliance Matrix: (Units=1/GPa)
#
#
# Indices 1 2 3 4 5 6 
#
# 1 0.025538 -0.009003 0.004392 0.000000 0.009304 0.000000
# 2 -0.009003 0.026176 -0.001197 0.000000 -0.005595 0.000000
# 3 0.004392 -0.001197 0.028185 0.000000 0.001245 0.000000
# 4 0.000000 0.000000 0.000000 0.055162 0.000000 -0.004867
# 5 0.009304 -0.005595 0.001245 0.000000 0.034801 0.000000
# 6 0.000000 0.000000 0.000000 -0.004867 0.000000 0.045322
#
#
# Mechanical properties :
#
#
# Convention : Reuss Voigt Hill
#
# Bulk Modulus (GPa) = 14.64530 15.99948 15.32239
# Shear Modulus (GPa) = 20.03500 22.68060 21.35780
#
# Velocity S-wave (km/s) = 3.04379 3.23853 3.14267
# Velocity P-wave (km/s) = 4.37324 4.62414 4.50044
#
# Compressibility (1/GPa) = 0.06828131
#
# Stress axis : x y z
#
# Youngs Moduli (GPa) = 39.15725 38.20266 35.47942
#
# Poissons Ratio (x) = 0.34396 -0.15582
# Poissons Ratio (y) = 0.35255 0.04248
# Poissons Ratio (z) = -0.17197 0.04575
#
# Static dielectric constant tensor:
#      x y z
#    x 1.777770 0.000000 0.018090 
#    y 0.000000 1.802620 0.000000 
#    z 0.018090 0.000000 1.825650 
# 
# From -- ./inp_files/303122.got.cif
#   From: 2010.05.17/outbox.cif.g08.bks.cpg/sg15_152_cif.got.tgz:303122.got - 2010.06.03 18:47:42.
