data_PCOD9274896
_publ_section_title
;
Structure prediction by ZEFSAII (Michael W. Deem and Ramdas Pophale) SiO2 
 PCOD9274896
Probable space group: C 2/C
;
_chemical_formula_sum "Si O2"
_cell_formula_units_Z 44
_cell_length_a 5.250785
_cell_length_b 32.785995
_cell_length_c 12.110985
_cell_angle_alpha 90.000000
_cell_angle_beta 98.263237
_cell_angle_gamma 90.000000
_cell_volume 2063.287506
_symmetry_space_group_name_H-M "C 2/C"
_symmetry_group_IT_number 15
_symmetry_cell_setting 'monoclinic'
loop_
_space_group_symop_operation_xyz
x,y,z
-x,y,1/2-z
-x,-y,-z
x,-y,1/2+z
1/2+x,1/2+y,z
1/2-x,1/2+y,1/2-z
1/2-x,1/2-y,-z
1/2+x,1/2-y,1/2+z
loop_
_atom_site_type_symbol
_atom_site_label
_atom_site_fract_x
_atom_site_fract_y
_atom_site_fract_z
Si Si1 0.829101 0.317647 0.968903
Si Si2 0.085148 0.747583 0.601733
Si Si3 0.275590 0.531094 0.823463
Si Si4 0.500000 0.208433 0.250000
Si Si5 0.638263 0.943874 0.876798
Si Si6 0.163424 0.909017 0.983391
O O1 0.621380 0.283046 0.928058
O O2 0.980282 0.318534 0.860182
O O3 0.712672 0.361027 0.988634
O O4 0.975777 0.297988 0.082944
O O5 0.250000 0.750000 0.500000
O O6 0.263064 0.760846 0.713664
O O7 0.500000 0.520621 0.750000
O O8 0.224126 0.490983 0.894645
O O9 0.000000 0.540017 0.750000
O O10 0.368321 0.569150 0.900987
O O11 0.500000 0.940677 0.750000
O O12 0.420394 0.929321 0.947901
O O13 0.901155 0.918348 0.900966
#
# Coordination Sequence:
#
# PCOD9274896 Si02
#       6
#     8   8   8   4   8   8
#     4  10  23  39  63  95 133 165 218 274 329 394
#     4   9  20  40  62  87 124 172 208 264 324 398
#     4  11  23  46  68  93 135 185 231 271 330 405
#     4  10  20  38  66  90 126 170 218 266 332 392
#     4  11  24  41  66 102 134 177 221 275 336 409
#     4  12  25  41  70 100 140 172 224 287 339 386
#
# _framework density 21.325192000000001
#
# number of rings (size 3 to 8) (size 9 to 14) (size 15 to 20)
#    0.000    1.455    0.000    5.455    6.364    1.455 
#    0.000    5.455    8.000    0.000    0.000    0.000 
#    0.000    0.000    0.000    0.000    0.000    0.000 
#
# Total GULP energy -122841.506557 kJ/mol
# GULP energy per Si atom -5583.704843 kJ/mol
# Density = 2.127666 g / cm^3
# Si number density = 21.325192 Si / 1000 Ang^3
#
#
#
# Elastic Constant Matrix: (Units=GPa)
#
#
# Indices 1 2 3 4 5 6 
#
# 1 102.5726 34.9321 13.7671 0.0000 9.3809 0.0000
# 2 34.9321 142.6329 39.6180 0.0000 15.3867 0.0000
# 3 13.7671 39.6180 29.2807 0.0000 9.8448 0.0000
# 4 0.0000 0.0000 0.0000 10.5330 0.0000 1.3180
# 5 9.3809 15.3867 9.8448 0.0000 44.3446 0.0000
# 6 0.0000 0.0000 0.0000 1.3180 0.0000 29.2114
#
#
#
# Elastic Compliance Matrix: (Units=1/GPa)
#
#
# Indices 1 2 3 4 5 6 
#
# 1 0.010794 -0.001950 -0.002049 0.000000 -0.001152 0.000000
# 2 -0.001950 0.011598 -0.014655 0.000000 -0.000358 0.000000
# 3 -0.002049 -0.014655 0.057372 0.000000 -0.007218 0.000000
# 4 0.000000 0.000000 0.000000 0.095479 0.000000 -0.004308
# 5 -0.001152 -0.000358 -0.007218 0.000000 0.024521 0.000000
# 6 0.000000 0.000000 0.000000 -0.004308 0.000000 0.034428
#
#
# Mechanical properties :
#
#
# Convention : Reuss Voigt Hill
#
# Bulk Modulus (GPa) = 23.55461 50.12453 36.83957
# Shear Modulus (GPa) = 17.50387 29.22906 23.36646
#
# Velocity S-wave (km/s) = 2.86808 3.70623 3.31376
# Velocity P-wave (km/s) = 4.69439 6.47076 5.65278
#
# Compressibility (1/GPa) = 0.04245453
#
# Stress axis : x y z
#
# Youngs Moduli (GPa) = 92.64686 86.22273 17.43017
#
# Poissons Ratio (x) = 0.16814 0.03572
# Poissons Ratio (y) = 0.18066 0.25544
# Poissons Ratio (z) = 0.18985 1.26361
#
# Static dielectric constant tensor:
#      x y z
#    x 1.852270 0.000000 -0.014940 
#    y 0.000000 1.739970 0.000000 
#    z -0.014940 0.000000 1.810830 
# 
# From -- ./inp_files/73969.got.cif
#   From: 2010.05.17/outbox.cif.g08.bks.cpg/sg15_37_cif.got.tgz:73969.got - 2010.06.03 18:47:42.
