data_PCOD9274002
_publ_section_title
;
Structure prediction by ZEFSAII (Michael W. Deem and Ramdas Pophale) SiO2 
 PCOD9274002
Probable space group: C 2/C
;
_chemical_formula_sum "Si O2"
_cell_formula_units_Z 64
_cell_length_a 11.214302
_cell_length_b 13.462232
_cell_length_c 21.122072
_cell_angle_alpha 90.000000
_cell_angle_beta 52.559819
_cell_angle_gamma 90.000000
_cell_volume 2531.862037
_symmetry_space_group_name_H-M "C 2/C"
_symmetry_group_IT_number 15
_symmetry_cell_setting 'monoclinic'
loop_
_space_group_symop_operation_xyz
x,y,z
-x,y,1/2-z
-x,-y,-z
x,-y,1/2+z
1/2+x,1/2+y,z
1/2-x,1/2+y,1/2-z
1/2-x,1/2-y,-z
1/2+x,1/2-y,1/2+z
loop_
_atom_site_type_symbol
_atom_site_label
_atom_site_fract_x
_atom_site_fract_y
_atom_site_fract_z
Si Si1 0.266984 0.359016 0.961653
Si Si2 0.026041 0.950113 0.080144
Si Si3 0.510026 0.080713 0.882592
Si Si4 0.942242 0.790357 0.668053
Si Si5 0.327463 0.308370 0.564424
Si Si6 0.458355 0.291962 0.336434
Si Si7 0.308343 0.989243 0.844140
Si Si8 0.654027 0.106558 0.303614
O O1 0.355251 0.459329 0.957517
O O2 0.388415 0.322691 0.869546
O O3 0.250000 0.250000 0.000000
O O4 0.092200 0.391230 0.023481
O O5 0.998026 0.902941 0.157588
O O6 0.865069 0.980757 0.105819
O O7 0.078888 0.854524 0.022204
O O8 0.597399 0.173817 0.823307
O O9 0.391130 0.064258 0.863291
O O10 0.604996 0.981828 0.865673
O O11 0.919323 0.811509 0.599846
O O12 0.823220 0.854771 0.744108
O O13 0.223151 0.212335 0.592785
O O14 0.193583 0.387487 0.616549
O O15 0.500000 0.275460 0.250000
O O16 0.557836 0.207678 0.339811
O O17 0.365399 0.954630 0.757009
#
# Coordination Sequence:
#
# PCOD9274002 Si02
#       8
#     8   8   8   8   8   8   8   8
#     4  10  20  38  60  96 127 169 215 271 336 383
#     4  12  23  37  69 103 126 170 229 281 319 396
#     4  11  21  36  65  94 129 168 218 274 334 382
#     4  10  22  35  64  93 130 169 219 269 340 387
#     4  11  20  40  63  97 125 169 225 273 317 390
#     4  12  23  40  62  97 134 175 216 270 339 399
#     4  11  20  36  66  95 128 159 231 266 320 375
#     4  11  21  38  60  95 125 172 223 276 319 398
#
# _framework density 25.277840000000001
#
# number of rings (size 3 to 8) (size 9 to 14) (size 15 to 20)
#    0.000    1.000    7.500    1.875    1.750    0.000 
#    0.000    0.000    0.000   21.750    0.000    0.000 
#    0.000    0.000    0.000    0.000    0.000    0.000 
#
# Total GULP energy -178214.781862 kJ/mol
# GULP energy per Si atom -5569.211933 kJ/mol
# Density = 2.522031 g / cm^3
# Si number density = 25.277840 Si / 1000 Ang^3
#
#
#
# Elastic Constant Matrix: (Units=GPa)
#
#
# Indices 1 2 3 4 5 6 
#
# 1 13.2246 8.1741 11.7545 0.0000 1.8021 0.0000
# 2 8.1741 126.5965 42.6940 0.0000 -7.4174 0.0000
# 3 11.7545 42.6940 93.9906 0.0000 -31.4931 0.0000
# 4 0.0000 0.0000 0.0000 23.7003 0.0000 -5.4065
# 5 1.8021 -7.4174 -31.4931 0.0000 37.3077 0.0000
# 6 0.0000 0.0000 0.0000 -5.4065 0.0000 19.2700
#
#
#
# Elastic Compliance Matrix: (Units=1/GPa)
#
#
# Indices 1 2 3 4 5 6 
#
# 1 0.095189 -0.001225 -0.018085 0.000000 -0.020108 0.000000
# 2 -0.001225 0.009501 -0.004894 0.000000 -0.002183 0.000000
# 3 -0.018085 -0.004894 0.021043 0.000000 0.017664 0.000000
# 4 0.000000 0.000000 0.000000 0.045079 0.000000 0.012647
# 5 -0.020108 -0.002183 0.017664 0.000000 0.042252 0.000000
# 6 0.000000 0.000000 0.000000 0.012647 0.000000 0.055443
#
#
# Mechanical properties :
#
#
# Convention : Reuss Voigt Hill
#
# Bulk Modulus (GPa) = 12.93270 39.89519 26.41394
# Shear Modulus (GPa) = 14.59051 27.46821 21.02936
#
# Velocity S-wave (km/s) = 2.40512 3.30002 2.88745
# Velocity P-wave (km/s) = 3.58331 5.50791 4.64635
#
# Compressibility (1/GPa) = 0.07732339
#
# Stress axis : x y z
#
# Youngs Moduli (GPa) = 10.50543 105.25513 47.52282
#
# Poissons Ratio (x) = 0.12895 0.85947
# Poissons Ratio (y) = 0.01287 0.23257
# Poissons Ratio (z) = 0.19000 0.51510
#
# Static dielectric constant tensor:
#      x y z
#    x 2.101450 0.000000 -0.018160 
#    y 0.000000 2.094070 0.000000 
#    z -0.018160 0.000000 2.106690 
# 
# From -- ./inp_files/313585.got.cif
#   From: 2010.05.17/outbox.cif.g08.bks.cpg/sg15_157_cif.got.tgz:313585.got - 2010.06.03 18:47:42.
