data_PCOD9274785
_publ_section_title
;
Structure prediction by ZEFSAII (Michael W. Deem and Ramdas Pophale) SiO2 
 PCOD9274785
Probable space group: C 2/C
;
_chemical_formula_sum "Si O2"
_cell_formula_units_Z 64
_cell_length_a 12.751541
_cell_length_b 12.410393
_cell_length_c 23.589467
_cell_angle_alpha 90.000000
_cell_angle_beta 51.165692
_cell_angle_gamma 90.000000
_cell_volume 2907.923342
_symmetry_space_group_name_H-M "C 2/C"
_symmetry_group_IT_number 15
_symmetry_cell_setting 'monoclinic'
loop_
_space_group_symop_operation_xyz
x,y,z
-x,y,1/2-z
-x,-y,-z
x,-y,1/2+z
1/2+x,1/2+y,z
1/2-x,1/2+y,1/2-z
1/2-x,1/2-y,-z
1/2+x,1/2-y,1/2+z
loop_
_atom_site_type_symbol
_atom_site_label
_atom_site_fract_x
_atom_site_fract_y
_atom_site_fract_z
Si Si1 0.790708 0.851318 0.946950
Si Si2 0.958966 0.166342 0.989819
Si Si3 0.208918 0.025825 0.948866
Si Si4 0.950101 0.395133 0.549370
Si Si5 0.631998 0.115879 0.293738
Si Si6 0.362045 0.911087 0.287307
Si Si7 0.585384 0.651551 0.824236
Si Si8 0.948292 0.911812 0.704737
O O1 0.696503 0.858171 0.924068
O O2 0.945326 0.859198 0.875213
O O3 0.750000 0.750000 0.000000
O O4 0.753867 0.952728 0.999264
O O5 0.828226 0.097889 0.048440
O O6 0.077974 0.102715 0.982576
O O7 0.957541 0.293208 0.999239
O O8 0.994355 0.152575 0.911570
O O9 0.311812 0.062727 0.867120
O O10 0.933714 0.409237 0.622361
O O11 0.000000 0.500000 0.500000
O O12 0.577368 0.234067 0.295903
O O13 0.794366 0.121480 0.245883
O O14 0.606989 0.019748 0.258448
O O15 0.500000 0.847791 0.250000
O O16 0.238527 0.857126 0.296302
O O17 0.551617 0.541851 0.803796
O O18 0.000000 0.890469 0.750000
#
# Coordination Sequence:
#
# PCOD9274785 Si02
#       8
#     8   8   8   8   8   8   8   8
#     4  12  24  41  67 100 125 167 221 274 327 394
#     4   9  18  39  63  87 119 162 207 259 310 377
#     4  10  20  38  65  91 121 160 217 256 317 383
#     4  11  24  42  62  93 135 171 210 268 329 386
#     4  10  23  43  61  93 130 170 215 265 325 385
#     4  10  23  39  60  91 124 160 206 267 317 375
#     4   9  20  40  64  86 123 167 207 260 318 383
#     4  11  22  42  65  93 130 167 216 269 327 395
#
# _framework density 22.008834
#
# number of rings (size 3 to 8) (size 9 to 14) (size 15 to 20)
#    0.000    1.750    3.750    0.000    3.500    2.000 
#    6.750    1.875    0.000    0.000    0.000    0.000 
#    0.000    0.000    0.000    0.000    0.000    0.000 
#
# Total GULP energy -178788.261985 kJ/mol
# GULP energy per Si atom -5587.133187 kJ/mol
# Density = 2.195874 g / cm^3
# Si number density = 22.008834 Si / 1000 Ang^3
#
#
#
# Elastic Constant Matrix: (Units=GPa)
#
#
# Indices 1 2 3 4 5 6 
#
# 1 45.5793 -3.6092 16.2329 0.0000 4.4715 0.0000
# 2 -3.6092 127.0263 40.4821 0.0000 -0.6337 0.0000
# 3 16.2329 40.4821 82.5785 0.0000 3.0053 0.0000
# 4 0.0000 0.0000 0.0000 29.8285 0.0000 2.6614
# 5 4.4715 -0.6337 3.0053 0.0000 28.3747 0.0000
# 6 0.0000 0.0000 0.0000 2.6614 0.0000 7.9539
#
#
#
# Elastic Compliance Matrix: (Units=1/GPa)
#
#
# Indices 1 2 3 4 5 6 
#
# 1 0.024590 0.002591 -0.005988 0.000000 -0.003183 0.000000
# 2 0.002591 0.009617 -0.005237 0.000000 0.000361 0.000000
# 3 -0.005988 -0.005237 0.015885 0.000000 -0.000856 0.000000
# 4 0.000000 0.000000 0.000000 0.034557 0.000000 -0.011563
# 5 -0.003183 0.000361 -0.000856 0.000000 0.035843 0.000000
# 6 0.000000 0.000000 0.000000 -0.011563 0.000000 0.129593
#
#
# Mechanical properties :
#
#
# Convention : Reuss Voigt Hill
#
# Bulk Modulus (GPa) = 30.46545 40.15509 35.31027
# Shear Modulus (GPa) = 17.96663 26.70332 22.33498
#
# Velocity S-wave (km/s) = 2.86026 3.48702 3.18908
# Velocity P-wave (km/s) = 4.97801 5.87342 5.44415
#
# Compressibility (1/GPa) = 0.03282406
#
# Stress axis : x y z
#
# Youngs Moduli (GPa) = 40.66708 103.98516 62.95162
#
# Poissons Ratio (x) = -0.26944 0.37697
# Poissons Ratio (y) = -0.10538 0.32967
# Poissons Ratio (z) = 0.24352 0.54456
#
# Static dielectric constant tensor:
#      x y z
#    x 1.873560 0.000000 -0.030000 
#    y 0.000000 1.839170 0.000000 
#    z -0.030000 0.000000 1.769910 
# 
# From -- ./inp_files/296119.got.cif
#   From: 2010.05.17/outbox.cif.g08.bks.cpg/sg15_149_cif.got.tgz:296119.got - 2010.06.03 18:47:42.
