data_PCOD9274074
_publ_section_title
;
Structure prediction by ZEFSAII (Michael W. Deem and Ramdas Pophale) SiO2 
 PCOD9274074
Probable space group: C 2/C
;
_chemical_formula_sum "Si O2"
_cell_formula_units_Z 52
_cell_length_a 26.222871
_cell_length_b 9.235611
_cell_length_c 8.513742
_cell_angle_alpha 90.000000
_cell_angle_beta 70.914413
_cell_angle_gamma 90.000000
_cell_volume 1948.554247
_symmetry_space_group_name_H-M "C 2/C"
_symmetry_group_IT_number 15
_symmetry_cell_setting 'monoclinic'
loop_
_space_group_symop_operation_xyz
x,y,z
-x,y,1/2-z
-x,-y,-z
x,-y,1/2+z
1/2+x,1/2+y,z
1/2-x,1/2+y,1/2-z
1/2-x,1/2-y,-z
1/2+x,1/2-y,1/2+z
loop_
_atom_site_type_symbol
_atom_site_label
_atom_site_fract_x
_atom_site_fract_y
_atom_site_fract_z
Si Si1 0.562219 0.852131 0.983324
Si Si2 0.838677 0.308016 0.428112
Si Si3 0.250000 0.250000 0.500000
Si Si4 0.740588 0.571307 0.844192
Si Si5 0.500000 0.616946 0.250000
Si Si6 0.500000 0.087120 0.250000
Si Si7 0.841561 0.868697 0.422435
Si Si8 0.599735 0.589321 0.336235
O O1 0.624689 0.863566 0.966744
O O2 0.536715 0.714906 0.098856
O O3 0.534634 0.988844 0.096389
O O4 0.542972 0.837923 0.823049
O O5 0.796152 0.404149 0.379162
O O6 0.803502 0.173595 0.527493
O O7 0.880669 0.239105 0.261225
O O8 0.252926 0.370079 0.337667
O O9 0.183661 0.281804 0.594188
O O10 0.715377 0.410681 0.915334
O O11 0.542315 0.545284 0.325660
O O12 0.890750 0.887767 0.490896
O O13 0.858396 0.966855 0.260923
#
# Coordination Sequence:
#
# PCOD9274074 Si02
#       8
#     8   8   4   8   4   4   8   8
#     4   9  18  36  59  88 125 169 213 266 319 382
#     4   9  17  35  60  84 123 164 204 247 320 371
#     4   8  18  38  56  90 120 160 200 262 292 388
#     4   8  17  36  57  87 121 161 202 254 305 379
#     4   9  20  38  60  83 118 167 218 257 328 361
#     4   9  18  36  54  87 132 165 220 267 318 385
#     4   9  20  37  60  87 125 155 210 250 316 374
#     4  10  20  38  61  88 120 166 206 265 311 382
#
# _framework density 26.686451000000002
#
# number of rings (size 3 to 8) (size 9 to 14) (size 15 to 20)
#    0.923    2.154    0.000    0.000    0.000    1.846 
#   11.077    6.154    0.000    0.000    0.000    0.000 
#    0.000    0.000    0.000    0.000    0.000    0.000 
#
# Total GULP energy -144957.752063 kJ/mol
# GULP energy per Si atom -5575.298156 kJ/mol
# Density = 2.662571 g / cm^3
# Si number density = 26.686451 Si / 1000 Ang^3
#
#
#
# Elastic Constant Matrix: (Units=GPa)
#
#
# Indices 1 2 3 4 5 6 
#
# 1 203.6771 30.2786 40.0017 0.0000 38.2977 0.0000
# 2 30.2786 64.2556 33.8213 0.0000 8.0021 0.0000
# 3 40.0017 33.8213 137.2038 0.0000 31.8561 0.0000
# 4 0.0000 0.0000 0.0000 38.5339 0.0000 -4.4145
# 5 38.2977 8.0021 31.8561 0.0000 43.6180 0.0000
# 6 0.0000 0.0000 0.0000 -4.4145 0.0000 34.4644
#
#
#
# Elastic Compliance Matrix: (Units=1/GPa)
#
#
# Indices 1 2 3 4 5 6 
#
# 1 0.006195 -0.002249 -0.000102 0.000000 -0.004953 0.000000
# 2 -0.002249 0.018700 -0.004354 0.000000 0.001724 0.000000
# 3 -0.000102 -0.004354 0.009857 0.000000 -0.006310 0.000000
# 4 0.000000 0.000000 0.000000 0.026338 0.000000 0.003374
# 5 -0.004953 0.001724 -0.006310 0.000000 0.031567 0.000000
# 6 0.000000 0.000000 0.000000 0.003374 0.000000 0.029448
#
#
# Mechanical properties :
#
#
# Convention : Reuss Voigt Hill
#
# Bulk Modulus (GPa) = 46.85696 68.14884 57.50290
# Shear Modulus (GPa) = 35.05621 43.39226 39.22423
#
# Velocity S-wave (km/s) = 3.62834 4.03675 3.83798
# Velocity P-wave (km/s) = 5.92871 6.87891 6.42141
#
# Compressibility (1/GPa) = 0.02134155
#
# Stress axis : x y z
#
# Youngs Moduli (GPa) = 161.41196 53.47669 101.45465
#
# Poissons Ratio (x) = 0.12026 0.01035
# Poissons Ratio (y) = 0.36300 0.44175
# Poissons Ratio (z) = 0.01646 0.23285
#
# Static dielectric constant tensor:
#      x y z
#    x 2.518030 0.000000 0.216120 
#    y 0.000000 2.724260 0.000000 
#    z 0.216120 0.000000 2.024060 
# 
# From -- ./inp_files/65097.got.cif
#   From: 2010.05.17/outbox.cif.g08.bks.cpg/sg15_33_cif.got.tgz:65097.got - 2010.06.03 18:47:42.
