data_PCOD9274860
_publ_section_title
;
Structure prediction by ZEFSAII (Michael W. Deem and Ramdas Pophale) SiO2 
 PCOD9274860
Probable space group: C 2/C
;
_chemical_formula_sum "Si O2"
_cell_formula_units_Z 52
_cell_length_a 6.404431
_cell_length_b 30.336807
_cell_length_c 15.123009
_cell_angle_alpha 90.000000
_cell_angle_beta 117.353231
_cell_angle_gamma 90.000000
_cell_volume 2609.725747
_symmetry_space_group_name_H-M "C 2/C"
_symmetry_group_IT_number 15
_symmetry_cell_setting 'monoclinic'
loop_
_space_group_symop_operation_xyz
x,y,z
-x,y,1/2-z
-x,-y,-z
x,-y,1/2+z
1/2+x,1/2+y,z
1/2-x,1/2+y,1/2-z
1/2-x,1/2-y,-z
1/2+x,1/2-y,1/2+z
loop_
_atom_site_type_symbol
_atom_site_label
_atom_site_fract_x
_atom_site_fract_y
_atom_site_fract_z
Si Si1 0.459143 0.159204 0.142984
Si Si2 0.500000 0.987691 0.750000
Si Si3 0.514769 0.541094 0.149773
Si Si4 0.577278 0.314171 0.995612
Si Si5 0.658879 0.971155 0.097924
Si Si6 0.867741 0.606935 0.491681
Si Si7 0.729024 0.259638 0.851417
O O1 0.500000 0.142429 0.250000
O O2 0.567756 0.127009 0.090917
O O3 0.603075 0.205205 0.164095
O O4 0.186654 0.167812 0.066502
O O5 0.407136 0.015275 0.815129
O O6 0.282632 0.958984 0.673178
O O7 0.500000 0.554767 0.250000
O O8 0.415632 0.490878 0.127538
O O9 0.346381 0.572633 0.062346
O O10 0.767139 0.353591 0.031134
O O11 0.632133 0.284991 0.919314
O O12 0.622221 0.282295 0.087155
O O13 0.590106 0.920776 0.069397
O O14 0.500000 0.000000 0.000000
O O15 0.500000 0.247790 0.750000
#
# Coordination Sequence:
#
# PCOD9274860 Si02
#       7
#     8   4   8   8   8   8   8
#     4  11  22  37  61  91 119 161 193 247 316 359
#     4  10  20  38  66  82 110 170 204 234 316 350
#     4   9  20  36  59  88 114 154 206 246 290 367
#     4  10  22  37  60  89 118 157 198 246 311 359
#     4   9  20  40  56  84 118 155 202 248 289 362
#     4  10  23  37  56  87 128 145 196 260 296 354
#     4  10  20  40  62  84 118 153 204 249 289 372
#
# _framework density 19.925466
#
# number of rings (size 3 to 8) (size 9 to 14) (size 15 to 20)
#    0.000    2.154    1.538    0.462    2.154    7.385 
#    6.923    0.000    0.000    0.000    0.000    0.000 
#    0.000    0.000    0.000    0.000    0.000    0.000 
#
# Total GULP energy -145135.659471 kJ/mol
# GULP energy per Si atom -5582.140749 kJ/mol
# Density = 1.988011 g / cm^3
# Si number density = 19.925466 Si / 1000 Ang^3
#
#
#
# Elastic Constant Matrix: (Units=GPa)
#
#
# Indices 1 2 3 4 5 6 
#
# 1 92.5268 35.9972 12.1948 0.0000 16.4380 0.0000
# 2 35.9972 89.7856 28.1097 0.0000 7.4283 0.0000
# 3 12.1948 28.1097 51.0604 0.0000 4.0524 0.0000
# 4 0.0000 0.0000 0.0000 20.4643 0.0000 5.9786
# 5 16.4380 7.4283 4.0524 0.0000 26.3477 0.0000
# 6 0.0000 0.0000 0.0000 5.9786 0.0000 10.7850
#
#
#
# Elastic Compliance Matrix: (Units=1/GPa)
#
#
# Indices 1 2 3 4 5 6 
#
# 1 0.014074 -0.005031 -0.000007 0.000000 -0.007361 0.000000
# 2 -0.005031 0.015446 -0.007294 0.000000 -0.000094 0.000000
# 3 -0.000007 -0.007294 0.023728 0.000000 -0.001588 0.000000
# 4 0.000000 0.000000 0.000000 0.058309 0.000000 -0.032323
# 5 -0.007361 -0.000094 -0.001588 0.000000 0.042817 0.000000
# 6 0.000000 0.000000 0.000000 -0.032323 0.000000 0.110640
#
#
# Mechanical properties :
#
#
# Convention : Reuss Voigt Hill
#
# Bulk Modulus (GPa) = 34.98656 42.88621 38.93639
# Shear Modulus (GPa) = 16.71082 21.99080 19.35081
#
# Velocity S-wave (km/s) = 2.89912 3.32573 3.11972
# Velocity P-wave (km/s) = 5.36687 6.02639 5.70617
#
# Compressibility (1/GPa) = 0.02858240
#
# Stress axis : x y z
#
# Youngs Moduli (GPa) = 71.05447 64.74067 42.14404
#
# Poissons Ratio (x) = 0.32572 0.00031
# Poissons Ratio (y) = 0.35749 0.30741
# Poissons Ratio (z) = 0.00052 0.47224
#
# Static dielectric constant tensor:
#      x y z
#    x 1.715300 0.000000 0.018020 
#    y 0.000000 1.720260 0.000000 
#    z 0.018020 0.000000 1.697080 
# 
# From -- ./inp_files/130876.got.cif
#   From: 2010.05.17/outbox.cif.g08.bks.cpg/sg15_66_cif.got.tgz:130876.got - 2010.06.03 18:47:42.
