data_PCOD9274391
_publ_section_title
;
Structure prediction by ZEFSAII (Michael W. Deem and Ramdas Pophale) SiO2 
 PCOD9274391
Probable space group: C 2/C
;
_chemical_formula_sum "Si O2"
_cell_formula_units_Z 56
_cell_length_a 26.549606
_cell_length_b 25.733355
_cell_length_c 11.910367
_cell_angle_alpha 90.000000
_cell_angle_beta 20.530131
_cell_angle_gamma 90.000000
_cell_volume 2853.745870
_symmetry_space_group_name_H-M "C 2/C"
_symmetry_group_IT_number 15
_symmetry_cell_setting 'monoclinic'
loop_
_space_group_symop_operation_xyz
x,y,z
-x,y,1/2-z
-x,-y,-z
x,-y,1/2+z
1/2+x,1/2+y,z
1/2-x,1/2+y,1/2-z
1/2-x,1/2-y,-z
1/2+x,1/2-y,1/2+z
loop_
_atom_site_type_symbol
_atom_site_label
_atom_site_fract_x
_atom_site_fract_y
_atom_site_fract_z
Si Si1 0.833631 0.411398 0.969724
Si Si2 0.001314 0.776873 0.121828
Si Si3 0.665225 0.930015 0.269237
Si Si4 0.097995 0.685254 0.308366
Si Si5 0.346181 0.528979 0.831958
Si Si6 0.790591 0.868911 0.590561
Si Si7 0.767932 0.342916 0.534810
O O1 0.832473 0.351723 0.931879
O O2 0.994687 0.429569 0.597534
O O3 0.822247 0.416969 0.125951
O O4 0.710781 0.443954 0.163334
O O5 0.908579 0.743512 0.227211
O O6 0.927546 0.832430 0.291014
O O7 0.000000 0.751595 0.250000
O O8 0.160838 0.793849 0.753410
O O9 0.752348 0.887118 0.016395
O O10 0.732260 0.985270 0.103281
O O11 0.172122 0.663037 0.265746
O O12 0.929632 0.674956 0.676385
O O13 0.500000 0.500000 0.500000
O O14 0.330465 0.575314 0.955982
O O15 0.746428 0.868885 0.812504
#
# Coordination Sequence:
#
# PCOD9274391 Si02
#       7
#     8   8   8   8   8   8   8
#     4   9  22  40  58  90 114 157 208 246 299 358
#     4  10  21  36  61  87 120 158 196 241 306 357
#     4  10  21  39  62  86 120 157 204 250 297 360
#     4  10  20  38  63  84 120 154 199 250 294 354
#     4  11  23  39  62  86 121 161 198 250 306 362
#     4  10  22  40  57  89 122 156 198 245 299 364
#     4  10  21  37  60  91 118 152 201 249 298 357
#
# _framework density 19.623331
#
# number of rings (size 3 to 8) (size 9 to 14) (size 15 to 20)
#    0.000    2.000    0.000    2.571    6.000    0.571 
#    5.143    0.000    3.143    0.000    0.000    0.000 
#    0.000    0.000    0.000    0.000    0.000    0.000 
#
# Total GULP energy -156107.446401 kJ/mol
# GULP energy per Si atom -5575.265943 kJ/mol
# Density = 1.957867 g / cm^3
# Si number density = 19.623331 Si / 1000 Ang^3
#
#
#
# Elastic Constant Matrix: (Units=GPa)
#
#
# Indices 1 2 3 4 5 6 
#
# 1 69.3928 48.8875 18.5816 0.0101 2.2893 -0.0036
# 2 48.8875 101.0006 44.4492 0.0009 8.9757 -0.0005
# 3 18.5816 44.4492 41.1027 0.0099 2.0180 -0.0042
# 4 0.0101 0.0009 0.0099 8.7590 -0.0061 -6.4851
# 5 2.2893 8.9757 2.0180 -0.0061 30.1579 0.0028
# 6 -0.0036 -0.0005 -0.0042 -6.4851 0.0028 23.0130
#
#
#
# Elastic Compliance Matrix: (Units=1/GPa)
#
#
# Indices 1 2 3 4 5 6 
#
# 1 0.022150 -0.012275 0.003174 -0.000030 0.001759 -0.000005
# 2 -0.012275 0.026258 -0.022583 0.000038 -0.005372 0.000006
# 3 0.003174 -0.022583 0.047153 -0.000059 0.003325 -0.000008
# 4 -0.000030 0.000038 -0.000059 0.144269 0.000020 0.040655
# 5 0.001759 -0.005372 0.003325 0.000020 0.034402 0.000002
# 6 -0.000005 0.000006 -0.000008 0.040655 0.000002 0.054911
#
#
# Mechanical properties :
#
#
# Convention : Reuss Voigt Hill
#
# Bulk Modulus (GPa) = 31.06191 48.37032 39.71612
# Shear Modulus (GPa) = 12.39949 19.02450 15.71200
#
# Velocity S-wave (km/s) = 2.51644 3.11703 2.83270
# Velocity P-wave (km/s) = 4.93019 6.13656 5.56615
#
# Compressibility (1/GPa) = 0.03219377
#
# Stress axis : x y z
#
# Youngs Moduli (GPa) = 45.14618 38.08314 21.20744
#
# Poissons Ratio (x) = 0.46746 -0.06731
# Poissons Ratio (y) = 0.55415 0.47894
# Poissons Ratio (z) = -0.14329 0.86005
#
# Static dielectric constant tensor:
#      x y z
#    x 1.741710 0.000000 -0.030190 
#    y 0.000000 1.701580 0.000000 
#    z -0.030190 0.000000 1.688410 
# 
# From -- ./inp_files/124530.got.cif
#   From: 2010.05.17/outbox.cif.g08.bks.cpg/sg15_63_cif.got.tgz:124530.got - 2010.06.03 18:47:42.
