data_PCOD9274169
_publ_section_title
;
Structure prediction by ZEFSAII (Michael W. Deem and Ramdas Pophale) SiO2 
 PCOD9274169
Probable space group: C 2/C
;
_chemical_formula_sum "Si O2"
_cell_formula_units_Z 40
_cell_length_a 10.437435
_cell_length_b 20.806712
_cell_length_c 10.981427
_cell_angle_alpha 90.000000
_cell_angle_beta 58.782056
_cell_angle_gamma 90.000000
_cell_volume 2039.504731
_symmetry_space_group_name_H-M "C 2/C"
_symmetry_group_IT_number 15
_symmetry_cell_setting 'monoclinic'
loop_
_space_group_symop_operation_xyz
x,y,z
-x,y,1/2-z
-x,-y,-z
x,-y,1/2+z
1/2+x,1/2+y,z
1/2-x,1/2+y,1/2-z
1/2-x,1/2-y,-z
1/2+x,1/2-y,1/2+z
loop_
_atom_site_type_symbol
_atom_site_label
_atom_site_fract_x
_atom_site_fract_y
_atom_site_fract_z
Si Si1 0.692706 0.458390 0.825974
Si Si2 0.377045 0.712029 0.513484
Si Si3 0.086706 0.281259 0.586443
Si Si4 0.500000 0.618920 0.250000
Si Si5 0.500000 0.906044 0.750000
Si Si6 0.551954 0.404257 0.364528
O O1 0.633583 0.425733 0.731044
O O2 0.866627 0.446081 0.758711
O O3 0.653316 0.533080 0.837746
O O4 0.594980 0.422567 0.980271
O O5 0.250000 0.750000 0.500000
O O6 0.491323 0.762637 0.515899
O O7 0.452813 0.665925 0.379099
O O8 0.359276 0.659332 0.632029
O O9 0.250000 0.250000 0.500000
O O10 0.000000 0.256150 0.750000
O O11 0.078601 0.357382 0.614703
O O12 0.500000 0.399004 0.250000
#
# Coordination Sequence:
#
# PCOD9274169 Si02
#       6
#     8   8   8   4   4   8
#     4  10  20  40  65  91 120 171 219 273 330 387
#     4  11  23  37  62  93 128 166 215 275 329 397
#     4  10  22  40  66  96 131 177 220 266 338 406
#     4  10  20  38  62  82 124 166 214 260 338 386
#     4  10  22  38  64  94 134 162 216 284 340 362
#     4  10  21  40  68  90 123 174 228 260 324 415
#
# _framework density 19.612606
#
# number of rings (size 3 to 8) (size 9 to 14) (size 15 to 20)
#    0.600    1.200    1.000    4.200    2.800    0.000 
#    0.000    2.000    0.000    0.000    0.000    0.000 
#    0.000    0.000    0.000    0.000    0.000    0.000 
#
# Total GULP energy -111403.088506 kJ/mol
# GULP energy per Si atom -5570.154425 kJ/mol
# Density = 1.956797 g / cm^3
# Si number density = 19.612606 Si / 1000 Ang^3
#
#
#
# Elastic Constant Matrix: (Units=GPa)
#
#
# Indices 1 2 3 4 5 6 
#
# 1 206.5747 67.7740 37.9949 0.0000 8.3767 0.0000
# 2 67.7740 100.6292 10.3119 0.0000 4.5934 0.0000
# 3 37.9949 10.3119 54.6340 0.0000 11.6709 0.0000
# 4 0.0000 0.0000 0.0000 272.5707 0.0000 39.2878
# 5 8.3767 4.5934 11.6709 0.0000 34.4860 0.0000
# 6 0.0000 0.0000 0.0000 39.2878 0.0000 39.7202
#
#
#
# Elastic Compliance Matrix: (Units=1/GPa)
#
#
# Indices 1 2 3 4 5 6 
#
# 1 0.006998 -0.004304 -0.004111 0.000000 0.000265 0.000000
# 2 -0.004304 0.012799 0.000774 0.000000 -0.000921 0.000000
# 3 -0.004111 0.000774 0.022448 0.000000 -0.006702 0.000000
# 4 0.000000 0.000000 0.000000 0.004279 0.000000 -0.004232
# 5 0.000265 -0.000921 -0.006702 0.000000 0.031324 0.000000
# 6 0.000000 0.000000 0.000000 -0.004232 0.000000 0.029362
#
#
# Mechanical properties :
#
#
# Convention : Reuss Voigt Hill
#
# Bulk Modulus (GPa) = 37.08699 65.99996 51.54347
# Shear Modulus (GPa) = 38.02852 85.73918 61.88385
#
# Velocity S-wave (km/s) = 4.40817 6.61901 5.62331
# Velocity P-wave (km/s) = 6.69777 9.59895 8.27647
#
# Compressibility (1/GPa) = 0.02696364
#
# Stress axis : x y z
#
# Youngs Moduli (GPa) = 142.88872 78.13041 44.54721
#
# Poissons Ratio (x) = 0.33629 0.18314
# Poissons Ratio (y) = 0.61503 -0.03450
# Poissons Ratio (z) = 0.58744 -0.06051
#
# Static dielectric constant tensor:
#      x y z
#    x 1.664050 0.000000 0.038320 
#    y 0.000000 1.741830 0.000000 
#    z 0.038320 0.000000 1.743980 
# 
# From -- ./inp_files/77687.got.cif
#   From: 2010.05.17/outbox.cif.g08.bks.cpg/sg15_39_cif.got.tgz:77687.got - 2010.06.03 18:47:42.
