data_PCOD9274905
_publ_section_title
;
Structure prediction by ZEFSAII (Michael W. Deem and Ramdas Pophale) SiO2 
 PCOD9274905
Probable space group: C 2/C
;
_chemical_formula_sum "Si O2"
_cell_formula_units_Z 44
_cell_length_a 22.797687
_cell_length_b 8.952793
_cell_length_c 18.170234
_cell_angle_alpha 90.000000
_cell_angle_beta 146.790675
_cell_angle_gamma 90.000000
_cell_volume 2031.197327
_symmetry_space_group_name_H-M "C 2/C"
_symmetry_group_IT_number 15
_symmetry_cell_setting 'monoclinic'
loop_
_space_group_symop_operation_xyz
x,y,z
-x,y,1/2-z
-x,-y,-z
x,-y,1/2+z
1/2+x,1/2+y,z
1/2-x,1/2+y,1/2-z
1/2-x,1/2-y,-z
1/2+x,1/2-y,1/2+z
loop_
_atom_site_type_symbol
_atom_site_label
_atom_site_fract_x
_atom_site_fract_y
_atom_site_fract_z
Si Si1 0.000000 0.962999 0.250000
Si Si2 0.803366 0.863863 0.472688
Si Si3 0.364704 0.285532 0.211634
Si Si4 0.076691 0.420003 0.472186
Si Si5 0.356243 0.986098 0.800203
Si Si6 0.321435 0.032527 0.046712
O O1 0.968417 0.864510 0.287428
O O2 0.099071 0.059531 0.381713
O O3 0.854819 0.719715 0.486864
O O4 0.751996 0.957860 0.351214
O O5 0.709971 0.886348 0.437858
O O6 0.375520 0.187467 0.296321
O O7 0.333860 0.160072 0.119632
O O8 0.272736 0.411669 0.107573
O O9 0.137652 0.490168 0.605784
O O10 0.076908 0.519050 0.398914
O O11 0.954373 0.412427 0.371678
#
# Coordination Sequence:
#
# PCOD9274905 Si02
#       6
#     4   8   8   8   8   8
#     4  10  20  38  66  92 122 158 206 256 298 350
#     4  10  23  41  61  94 120 158 210 252 304 362
#     4   9  18  36  60  91 116 154 210 244 294 363
#     4  11  23  40  60  87 130 162 200 251 307 374
#     4  10  24  40  59  91 122 168 202 242 318 362
#     4   9  19  36  65  88 117 161 201 256 297 350
#
# _framework density 21.662099999999999
#
# number of rings (size 3 to 8) (size 9 to 14) (size 15 to 20)
#    0.000    2.182    0.000    2.727    2.545    8.000 
#    3.273    0.909    0.000    0.000    0.000    0.000 
#    0.000    0.000    0.000    0.000    0.000    0.000 
#
# Total GULP energy -122491.353721 kJ/mol
# GULP energy per Si atom -5567.788805 kJ/mol
# Density = 2.161280 g / cm^3
# Si number density = 21.662100 Si / 1000 Ang^3
#
#
#
# Elastic Constant Matrix: (Units=GPa)
#
#
# Indices 1 2 3 4 5 6 
#
# 1 111.4576 40.3656 26.1478 0.0000 -14.0067 0.0000
# 2 40.3656 55.6072 9.2966 0.0000 -9.5247 0.0000
# 3 26.1478 9.2966 102.4581 0.0000 -14.9678 0.0000
# 4 0.0000 0.0000 0.0000 27.6014 0.0000 0.8067
# 5 -14.0067 -9.5247 -14.9678 0.0000 23.0934 0.0000
# 6 0.0000 0.0000 0.0000 0.8067 0.0000 13.6355
#
#
#
# Elastic Compliance Matrix: (Units=1/GPa)
#
#
# Indices 1 2 3 4 5 6 
#
# 1 0.012922 -0.008522 -0.002091 0.000000 0.002967 0.000000
# 2 -0.008522 0.025010 0.000726 0.000000 0.005617 0.000000
# 3 -0.002091 0.000726 0.011141 0.000000 0.006252 0.000000
# 4 0.000000 0.000000 0.000000 0.036293 0.000000 -0.002147
# 5 0.002967 0.005617 0.006252 0.000000 0.051471 0.000000
# 6 0.000000 0.000000 0.000000 -0.002147 0.000000 0.073465
#
#
# Mechanical properties :
#
#
# Convention : Reuss Voigt Hill
#
# Bulk Modulus (GPa) = 34.13047 46.79362 40.46204
# Shear Modulus (GPa) = 20.84699 25.78026 23.31363
#
# Velocity S-wave (km/s) = 3.10558 3.45354 3.28417
# Velocity P-wave (km/s) = 5.35253 6.12789 5.75329
#
# Compressibility (1/GPa) = 0.02929934
#
# Stress axis : x y z
#
# Youngs Moduli (GPa) = 77.38814 39.98345 89.75683
#
# Poissons Ratio (x) = 0.34075 0.18768
# Poissons Ratio (y) = 0.65952 -0.06518
# Poissons Ratio (z) = 0.16182 -0.02903
#
# Static dielectric constant tensor:
#      x y z
#    x 1.806000 0.000000 0.017730 
#    y 0.000000 1.919680 0.000000 
#    z 0.017730 0.000000 1.772010 
# 
# From -- ./inp_files/218717.got.cif
#   From: 2010.05.17/outbox.cif.g08.bks.cpg/sg15_110_cif.got.tgz:218717.got - 2010.06.03 18:47:42.
