data_PCOD9274853
_publ_section_title
;
Structure prediction by ZEFSAII (Michael W. Deem and Ramdas Pophale) SiO2 
 PCOD9274853
Probable space group: C 2/C
;
_chemical_formula_sum "Si O2"
_cell_formula_units_Z 56
_cell_length_a 16.111119
_cell_length_b 20.953013
_cell_length_c 7.248085
_cell_angle_alpha 90.000000
_cell_angle_beta 93.973208
_cell_angle_gamma 90.000000
_cell_volume 2440.902367
_symmetry_space_group_name_H-M "C 2/C"
_symmetry_group_IT_number 15
_symmetry_cell_setting 'monoclinic'
loop_
_space_group_symop_operation_xyz
x,y,z
-x,y,1/2-z
-x,-y,-z
x,-y,1/2+z
1/2+x,1/2+y,z
1/2-x,1/2+y,1/2-z
1/2-x,1/2-y,-z
1/2+x,1/2-y,1/2+z
loop_
_atom_site_type_symbol
_atom_site_label
_atom_site_fract_x
_atom_site_fract_y
_atom_site_fract_z
Si Si1 0.224840 0.904220 0.419732
Si Si2 0.500000 0.128665 0.750000
Si Si3 0.117358 0.322229 0.947024
Si Si4 0.867678 0.625530 0.437957
Si Si5 0.079714 0.179511 0.999649
Si Si6 0.276868 0.453239 0.482958
Si Si7 0.605365 0.345683 0.938298
Si Si8 0.750000 0.250000 0.000000
O O1 0.291117 0.851400 0.497681
O O2 0.133435 0.874776 0.412532
O O3 0.247663 0.925318 0.218765
O O4 0.221130 0.971189 0.524954
O O5 0.557656 0.165679 0.612242
O O6 0.433202 0.098734 0.598035
O O7 0.092773 0.356061 0.752506
O O8 0.113344 0.246357 0.928043
O O9 0.795610 0.573659 0.397743
O O10 0.822260 0.691067 0.496417
O O11 0.099471 0.175022 0.222355
O O12 0.981165 0.169142 0.975734
O O13 0.363575 0.418850 0.549308
O O14 0.679304 0.303079 0.028164
#
# Coordination Sequence:
#
# PCOD9274853 Si02
#       8
#     8   4   8   8   8   8   8   4
#     4  12  25  45  73 101 142 191 251 296 371 442
#     4  12  24  46  68 110 140 196 234 304 362 434
#     4  12  25  43  73 108 149 192 240 304 368 441
#     4  11  24  43  72 102 148 185 244 296 364 431
#     4  11  24  42  68 109 145 190 239 301 365 431
#     4  11  25  47  72 101 141 194 243 304 364 450
#     4  10  23  42  69 104 149 184 240 297 358 434
#     4  10  20  38  66 102 142 188 224 286 350 424
#
# _framework density 22.942333999999999
#
# number of rings (size 3 to 8) (size 9 to 14) (size 15 to 20)
#    0.000    0.857    1.429    6.857    6.000    1.143 
#    0.000    0.714    0.000    0.000    0.000    0.000 
#    0.000    0.000    0.000    0.000    0.000    0.000 
#
# Total GULP energy -156024.421630 kJ/mol
# GULP energy per Si atom -5572.300772 kJ/mol
# Density = 2.289012 g / cm^3
# Si number density = 22.942334 Si / 1000 Ang^3
#
#
#
# Elastic Constant Matrix: (Units=GPa)
#
#
# Indices 1 2 3 4 5 6 
#
# 1 146.2426 68.7620 37.9854 0.0000 -6.1582 0.0000
# 2 68.7620 116.2867 21.5337 0.0000 -0.2604 0.0000
# 3 37.9854 21.5337 107.0671 0.0000 -2.2133 0.0000
# 4 0.0000 0.0000 0.0000 21.3469 0.0000 3.9678
# 5 -6.1582 -0.2604 -2.2133 0.0000 25.9269 0.0000
# 6 0.0000 0.0000 0.0000 3.9678 0.0000 1.3952
#
#
#
# Elastic Compliance Matrix: (Units=1/GPa)
#
#
# Indices 1 2 3 4 5 6 
#
# 1 0.010179 -0.005561 -0.002448 0.000000 0.002153 0.000000
# 2 -0.005561 0.011970 -0.000460 0.000000 -0.001240 0.000000
# 3 -0.002448 -0.000460 0.010307 0.000000 0.000294 0.000000
# 4 0.000000 0.000000 0.000000 0.099373 0.000000 -0.282600
# 5 0.002153 -0.001240 0.000294 0.000000 0.039094 0.000000
# 6 0.000000 0.000000 0.000000 -0.282600 0.000000 1.520395
#
#
# Mechanical properties :
#
#
# Convention : Reuss Voigt Hill
#
# Bulk Modulus (GPa) = 64.44356 69.57316 67.00836
# Shear Modulus (GPa) = 2.91812 25.82151 14.36981
#
# Velocity S-wave (km/s) = 1.12903 3.35848 2.50540
# Velocity P-wave (km/s) = 5.46351 6.74020 6.13515
#
# Compressibility (1/GPa) = 0.01551745
#
# Stress axis : x y z
#
# Youngs Moduli (GPa) = 98.23868 83.54128 97.01921
#
# Poissons Ratio (x) = 0.46457 0.23755
# Poissons Ratio (y) = 0.54630 0.04465
# Poissons Ratio (z) = 0.24054 0.03844
#
# Static dielectric constant tensor:
#      x y z
#    x 1.833020 0.000000 0.047740 
#    y 0.000000 1.837590 0.000000 
#    z 0.047740 0.000000 1.986020 
# 
# From -- ./inp_files/41290.got.cif
#   From: 2010.05.17/outbox.cif.g08.bks.cpg/sg15_21_cif.got.tgz:41290.got - 2010.06.03 18:47:42.
