data_PCOD9274900
_publ_section_title
;
Structure prediction by ZEFSAII (Michael W. Deem and Ramdas Pophale) SiO2 
 PCOD9274900
Probable space group: C 2/C
;
_chemical_formula_sum "Si O2"
_cell_formula_units_Z 56
_cell_length_a 16.625646
_cell_length_b 11.235768
_cell_length_c 18.944025
_cell_angle_alpha 90.000000
_cell_angle_beta 54.218269
_cell_angle_gamma 90.000000
_cell_volume 2870.836225
_symmetry_space_group_name_H-M "C 2/C"
_symmetry_group_IT_number 15
_symmetry_cell_setting 'monoclinic'
loop_
_space_group_symop_operation_xyz
x,y,z
-x,y,1/2-z
-x,-y,-z
x,-y,1/2+z
1/2+x,1/2+y,z
1/2-x,1/2+y,1/2-z
1/2-x,1/2-y,-z
1/2+x,1/2-y,1/2+z
loop_
_atom_site_type_symbol
_atom_site_label
_atom_site_fract_x
_atom_site_fract_y
_atom_site_fract_z
Si Si1 0.145275 0.029039 0.373069
Si Si2 0.263179 0.468349 0.318869
Si Si3 0.062203 0.392693 0.934390
Si Si4 0.761090 0.717526 0.381277
Si Si5 0.580089 0.478411 0.647435
Si Si6 0.417523 0.263588 0.413823
Si Si7 0.440631 0.662935 0.477046
O O1 0.164882 0.992047 0.283350
O O2 0.241981 0.093790 0.353229
O O3 0.055815 0.124071 0.423205
O O4 0.116259 0.920733 0.438144
O O5 0.165359 0.547206 0.359159
O O6 0.247772 0.327015 0.334419
O O7 0.316821 0.500960 0.364948
O O8 0.002459 0.320026 0.903691
O O9 0.076250 0.295905 0.989092
O O10 0.000000 0.500000 0.000000
O O11 0.672998 0.732835 0.483875
O O12 0.866137 0.721065 0.367496
O O13 0.500000 0.458091 0.750000
O O14 0.553099 0.599346 0.617699
O O15 0.588562 0.373147 0.586922
#
# Coordination Sequence:
#
# PCOD9274900 Si02
#       7
#     8   8   8   8   8   8   8
#     4  11  21  39  63  98 123 164 224 272 319 384
#     4  11  25  37  65  97 131 170 215 272 327 394
#     4  12  24  42  63  95 136 176 212 261 341 399
#     4  10  20  39  64  93 129 163 215 270 325 381
#     4  11  22  41  66  99 123 164 227 280 316 381
#     4  10  20  38  66  91 124 171 210 266 323 384
#     4  11  22  39  66  90 127 171 213 271 329 382
#
# _framework density 19.506511
#
# number of rings (size 3 to 8) (size 9 to 14) (size 15 to 20)
#    0.000    1.143    5.714    0.857    2.000    1.714 
#    0.000    0.000    0.000    0.857    0.000    0.000 
#    0.000    0.000    0.000    0.000    0.000    0.000 
#
# Total GULP energy -156393.681163 kJ/mol
# GULP energy per Si atom -5585.488613 kJ/mol
# Density = 1.946211 g / cm^3
# Si number density = 19.506511 Si / 1000 Ang^3
#
#
#
# Elastic Constant Matrix: (Units=GPa)
#
#
# Indices 1 2 3 4 5 6 
#
# 1 93.5284 42.6046 29.6598 0.0000 2.3658 0.0000
# 2 42.6046 98.6523 51.1482 0.0000 8.3565 0.0000
# 3 29.6598 51.1482 69.7540 0.0000 -3.2481 0.0000
# 4 0.0000 0.0000 0.0000 12.9040 0.0000 1.9948
# 5 2.3658 8.3565 -3.2481 0.0000 23.7530 0.0000
# 6 0.0000 0.0000 0.0000 1.9948 0.0000 38.1904
#
#
#
# Elastic Compliance Matrix: (Units=1/GPa)
#
#
# Indices 1 2 3 4 5 6 
#
# 1 0.013550 -0.004612 -0.002382 0.000000 -0.000053 0.000000
# 2 -0.004612 0.019344 -0.012599 0.000000 -0.008069 0.000000
# 3 -0.002382 -0.012599 0.024964 0.000000 0.008083 0.000000
# 4 0.000000 0.000000 0.000000 0.078126 0.000000 -0.004081
# 5 -0.000053 -0.008069 0.008083 0.000000 0.046049 0.000000
# 6 0.000000 0.000000 0.000000 -0.004081 0.000000 0.026398
#
#
# Mechanical properties :
#
#
# Convention : Reuss Voigt Hill
#
# Bulk Modulus (GPa) = 53.55807 56.52887 55.04347
# Shear Modulus (GPa) = 19.69740 24.20428 21.95084
#
# Velocity S-wave (km/s) = 3.18116 3.52636 3.35820
# Velocity P-wave (km/s) = 6.40384 6.75446 6.58148
#
# Compressibility (1/GPa) = 0.01867132
#
# Stress axis : x y z
#
# Youngs Moduli (GPa) = 73.80290 51.69515 40.05824
#
# Poissons Ratio (x) = 0.23843 0.09541
# Poissons Ratio (y) = 0.34040 0.50469
# Poissons Ratio (z) = 0.17578 0.65131
#
# Static dielectric constant tensor:
#      x y z
#    x 1.745750 0.000000 0.005890 
#    y 0.000000 1.663610 0.000000 
#    z 0.005890 0.000000 1.702050 
# 
# From -- ./inp_files/210555.got.cif
#   From: 2010.05.17/outbox.cif.g08.bks.cpg/sg15_106_cif.got.tgz:210555.got - 2010.06.03 18:47:42.
