data_PCOD9274170
_publ_section_title
;
Structure prediction by ZEFSAII (Michael W. Deem and Ramdas Pophale) SiO2 
 PCOD9274170
Probable space group: C 2/C
;
_chemical_formula_sum "Si O2"
_cell_formula_units_Z 60
_cell_length_a 30.131159
_cell_length_b 12.827516
_cell_length_c 21.169222
_cell_angle_alpha 90.000000
_cell_angle_beta 158.509029
_cell_angle_gamma 90.000000
_cell_volume 2997.539747
_symmetry_space_group_name_H-M "C 2/C"
_symmetry_group_IT_number 15
_symmetry_cell_setting 'monoclinic'
loop_
_space_group_symop_operation_xyz
x,y,z
-x,y,1/2-z
-x,-y,-z
x,-y,1/2+z
1/2+x,1/2+y,z
1/2-x,1/2+y,1/2-z
1/2-x,1/2-y,-z
1/2+x,1/2-y,1/2+z
loop_
_atom_site_type_symbol
_atom_site_label
_atom_site_fract_x
_atom_site_fract_y
_atom_site_fract_z
Si Si1 0.500000 0.667970 0.250000
Si Si2 0.675810 0.883176 0.757861
Si Si3 0.625846 0.775309 0.951329
Si Si4 0.614199 0.828296 0.303964
Si Si5 0.852120 0.512605 0.550926
Si Si6 0.909335 0.345677 0.455290
Si Si7 0.751081 0.878547 0.370259
Si Si8 0.859628 0.417292 0.928203
O O1 0.573372 0.740292 0.298416
O O2 0.605101 0.610363 0.428848
O O3 0.539754 0.844465 0.593464
O O4 0.700618 0.875320 0.715207
O O5 0.691977 0.005576 0.795879
O O6 0.772001 0.811775 0.921465
O O7 0.500000 0.752246 0.750000
O O8 0.672041 0.889407 0.987934
O O9 0.595943 0.783524 0.986453
O O10 0.697263 0.806858 0.354360
O O11 0.679387 0.923104 0.428315
O O12 0.486400 0.861167 0.105351
O O13 0.804227 0.572792 0.425132
O O14 0.000000 0.519413 0.750000
O O15 0.797968 0.328438 0.259602
O O16 0.892200 0.464122 0.455021
#
# Coordination Sequence:
#
# PCOD9274170 Si02
#       8
#     4   8   8   8   8   8   8   8
#     4  12  26  36  58  92 122 148 184 254 300 338
#     4  11  21  37  61  82 121 158 189 241 281 350
#     4  10  23  36  55  91 117 147 195 238 297 336
#     4  11  18  37  61  83 113 150 193 239 285 341
#     4   8  16  32  57  82 111 144 194 238 268 334
#     4  10  20  38  62  83 110 157 201 237 269 351
#     4  11  24  39  59  89 118 153 196 235 300 344
#     4   9  15  33  58  82 104 147 199 229 272 326
#
# _framework density 20.016416
#
# number of rings (size 3 to 8) (size 9 to 14) (size 15 to 20)
#    0.000    1.867    4.667    2.000    2.800    0.533 
#    0.000    0.000    0.000    0.000    0.000    7.467 
#    0.000    0.000    0.000    0.000    0.000    0.000 
#
# Total GULP energy -167149.408264 kJ/mol
# GULP energy per Si atom -5571.646942 kJ/mol
# Density = 1.997086 g / cm^3
# Si number density = 20.016416 Si / 1000 Ang^3
#
#
#
# Elastic Constant Matrix: (Units=GPa)
#
#
# Indices 1 2 3 4 5 6 
#
# 1 21.1760 13.6846 17.0992 0.0000 -26.3377 0.0000
# 2 13.6846 30.0163 18.3622 0.0000 -2.1553 0.0000
# 3 17.0992 18.3622 112.6391 0.0000 -20.9382 0.0000
# 4 0.0000 0.0000 0.0000 36.2609 0.0000 -26.9249
# 5 -26.3377 -2.1553 -20.9382 0.0000 19.5773 0.0000
# 6 0.0000 0.0000 0.0000 -26.9249 0.0000 68.3756
#
#
#
# Elastic Compliance Matrix: (Units=1/GPa)
#
#
# Indices 1 2 3 4 5 6 
#
# 1 -0.046174 0.021876 -0.009556 0.000000 -0.069931 0.000000
# 2 0.021876 0.026780 -0.002082 0.000000 0.030152 0.000000
# 3 -0.009556 -0.002082 0.010279 0.000000 -0.002091 0.000000
# 4 0.000000 0.000000 0.000000 0.038974 0.000000 0.015347
# 5 -0.069931 0.030152 -0.002091 0.000000 -0.041917 0.000000
# 6 0.000000 0.000000 0.000000 0.015347 0.000000 0.020668
#
#
# Mechanical properties :
#
#
# Convention : Reuss Voigt Hill
#
# Bulk Modulus (GPa) = 88.01744 29.12482 58.57113
# Shear Modulus (GPa) = -618.91692 32.48846 -293.21423
#
# Velocity S-wave (km/s) = -17.60329 4.03313 -12.11631
# Velocity P-wave (km/s) = 19.21197 6.02248 12.90019
#
# Compressibility (1/GPa) = 0.01136138
#
# Stress axis : x y z
#
# Youngs Moduli (GPa) = -21.65714 37.34065 97.28411
#
# Poissons Ratio (x) = -0.81685 0.92965
# Poissons Ratio (y) = 0.47376 0.20252
# Poissons Ratio (z) = -0.20696 0.07773
#
# Static dielectric constant tensor:
#      x y z
#    x 1.756550 0.000000 -0.031220 
#    y 0.000000 1.724200 0.000000 
#    z -0.031220 0.000000 1.735830 
# 
# From -- ./inp_files/259406.got.cif
#   From: 2010.05.17/outbox.cif.g08.bks.cpg/sg15_130_cif.got.tgz:259406.got - 2010.06.03 18:47:42.
