data_PCOD9274569
_publ_section_title
;
Structure prediction by ZEFSAII (Michael W. Deem and Ramdas Pophale) SiO2 
 PCOD9274569
Probable space group: C 2/C
;
_chemical_formula_sum "Si O2"
_cell_formula_units_Z 56
_cell_length_a 8.853069
_cell_length_b 29.911574
_cell_length_c 11.077351
_cell_angle_alpha 90.000000
_cell_angle_beta 75.620673
_cell_angle_gamma 90.000000
_cell_volume 2841.490124
_symmetry_space_group_name_H-M "C 2/C"
_symmetry_group_IT_number 15
_symmetry_cell_setting 'monoclinic'
loop_
_space_group_symop_operation_xyz
x,y,z
-x,y,1/2-z
-x,-y,-z
x,-y,1/2+z
1/2+x,1/2+y,z
1/2-x,1/2+y,1/2-z
1/2-x,1/2-y,-z
1/2+x,1/2-y,1/2+z
loop_
_atom_site_type_symbol
_atom_site_label
_atom_site_fract_x
_atom_site_fract_y
_atom_site_fract_z
Si Si1 0.000000 0.259037 0.250000
Si Si2 0.570157 0.902432 0.105580
Si Si3 0.421156 0.685044 0.074581
Si Si4 0.000000 0.891964 0.750000
Si Si5 0.266685 0.856425 0.071732
Si Si6 0.688289 0.458408 0.553829
Si Si7 0.781520 0.174951 0.651342
Si Si8 0.430544 0.444427 0.396072
O O1 0.931404 0.227616 0.158923
O O2 0.859084 0.289345 0.327638
O O3 0.500000 0.914851 0.250000
O O4 0.440720 0.873393 0.062363
O O5 0.715227 0.869829 0.102812
O O6 0.640182 0.944054 0.021174
O O7 0.445380 0.641661 0.155389
O O8 0.264171 0.678403 0.028877
O O9 0.562526 0.687662 0.949816
O O10 0.868798 0.925406 0.828407
O O11 0.202454 0.836417 0.210349
O O12 0.169537 0.900670 0.057558
O O13 0.566392 0.450831 0.467494
O O14 0.670867 0.510345 0.588679
O O15 0.500000 0.437986 0.250000
#
# Coordination Sequence:
#
# PCOD9274569 Si02
#       8
#     4   8   8   4   8   8   8   8
#     4  11  24  40  64  92 118 156 206 254 322 379
#     4  10  20  38  64  85 124 165 203 250 313 359
#     4  11  23  38  66  87 120 161 205 249 311 382
#     4  11  20  40  60  86 128 162 202 246 318 357
#     4  11  21  38  63  91 122 158 210 257 301 366
#     4  11  22  38  61  90 128 167 206 255 302 359
#     4  11  20  42  62  89 118 159 203 255 313 372
#     4  11  21  35  63  96 120 163 223 256 283 359
#
# _framework density 19.707968000000001
#
# number of rings (size 3 to 8) (size 9 to 14) (size 15 to 20)
#    0.000    1.143    5.714    3.429    0.000    1.143 
#    0.000    0.714    0.000    0.000    0.000    0.000 
#    0.000    0.000    0.000    0.000    0.000    0.000 
#
# Total GULP energy -156422.644961 kJ/mol
# GULP energy per Si atom -5586.523034 kJ/mol
# Density = 1.966311 g / cm^3
# Si number density = 19.707968 Si / 1000 Ang^3
#
#
#
# Elastic Constant Matrix: (Units=GPa)
#
#
# Indices 1 2 3 4 5 6 
#
# 1 52.4359 6.4465 26.2846 0.0000 3.5555 0.0000
# 2 6.4465 85.9147 21.7397 0.0000 0.0527 0.0000
# 3 26.2846 21.7397 46.8948 0.0000 1.6376 0.0000
# 4 0.0000 0.0000 0.0000 29.0008 0.0000 1.7989
# 5 3.5555 0.0527 1.6376 0.0000 34.7436 0.0000
# 6 0.0000 0.0000 0.0000 1.7989 0.0000 5.1263
#
#
#
# Elastic Compliance Matrix: (Units=1/GPa)
#
#
# Indices 1 2 3 4 5 6 
#
# 1 0.026971 0.002022 -0.015985 0.000000 -0.002010 0.000000
# 2 0.002022 0.013340 -0.007322 0.000000 0.000118 0.000000
# 3 -0.015985 -0.007322 0.033676 0.000000 0.000060 0.000000
# 4 0.000000 0.000000 0.000000 0.035249 0.000000 -0.012370
# 5 -0.002010 0.000118 0.000060 0.000000 0.028985 0.000000
# 6 0.000000 0.000000 0.000000 -0.012370 0.000000 0.199414
#
#
# Mechanical properties :
#
#
# Convention : Reuss Voigt Hill
#
# Bulk Modulus (GPa) = 31.82811 32.68744 32.25777
# Shear Modulus (GPa) = 12.79828 22.49244 17.64536
#
# Velocity S-wave (km/s) = 2.55109 3.38196 2.99547
# Velocity P-wave (km/s) = 4.98622 5.64554 5.32609
#
# Compressibility (1/GPa) = 0.03141877
#
# Stress axis : x y z
#
# Youngs Moduli (GPa) = 37.07656 74.96037 29.69478
#
# Poissons Ratio (x) = -0.15158 0.47466
# Poissons Ratio (y) = -0.07498 0.21742
# Poissons Ratio (z) = 0.59266 0.54886
#
# Static dielectric constant tensor:
#      x y z
#    x 1.697720 0.000000 0.020340 
#    y 0.000000 1.689590 0.000000 
#    z 0.020340 0.000000 1.687600 
# 
# From -- ./inp_files/82176.got.cif
#   From: 2010.05.17/outbox.cif.g08.bks.cpg/sg15_42_cif.got.tgz:82176.got - 2010.06.03 18:47:42.
