data_PCOD9274889
_publ_section_title
;
Structure prediction by ZEFSAII (Michael W. Deem and Ramdas Pophale) SiO2 
 PCOD9274889
Probable space group: C 2/C
;
_chemical_formula_sum "Si O2"
_cell_formula_units_Z 64
_cell_length_a 18.303700
_cell_length_b 11.909582
_cell_length_c 20.075085
_cell_angle_alpha 90.000000
_cell_angle_beta 131.345685
_cell_angle_gamma 90.000000
_cell_volume 3285.345070
_symmetry_space_group_name_H-M "C 2/C"
_symmetry_group_IT_number 15
_symmetry_cell_setting 'monoclinic'
loop_
_space_group_symop_operation_xyz
x,y,z
-x,y,1/2-z
-x,-y,-z
x,-y,1/2+z
1/2+x,1/2+y,z
1/2-x,1/2+y,1/2-z
1/2-x,1/2-y,-z
1/2+x,1/2-y,1/2+z
loop_
_atom_site_type_symbol
_atom_site_label
_atom_site_fract_x
_atom_site_fract_y
_atom_site_fract_z
Si Si1 0.359371 0.192684 0.262933
Si Si2 0.246637 0.605436 0.624213
Si Si3 0.423677 0.825829 0.566330
Si Si4 0.328012 0.238491 0.606056
Si Si5 0.491982 0.586498 0.169729
Si Si6 0.152516 0.476585 0.861544
Si Si7 0.287381 0.623589 0.212848
Si Si8 0.656035 0.416198 0.456740
O O1 0.319286 0.298200 0.195496
O O2 0.461947 0.203040 0.363965
O O3 0.375598 0.088451 0.222288
O O4 0.274128 0.172267 0.264247
O O5 0.137535 0.643848 0.537340
O O6 0.246834 0.500534 0.673442
O O7 0.293345 0.559792 0.583570
O O8 0.403157 0.921515 0.609128
O O9 0.370513 0.713391 0.559141
O O10 0.250000 0.250000 0.500000
O O11 0.423743 0.305503 0.639600
O O12 0.284095 0.300095 0.644487
O O13 0.354504 0.110596 0.640031
O O14 0.500000 0.537780 0.250000
O O15 0.597322 0.613468 0.205068
O O16 0.436690 0.494965 0.093099
O O17 0.265545 0.445193 0.940668
#
# Coordination Sequence:
#
# PCOD9274889 Si02
#       8
#     8   8   8   8   8   8   8   8
#     4  12  26  41  60  96 134 164 208 259 319 380
#     4  11  21  44  65  89 126 162 213 260 310 378
#     4  11  23  39  68  94 122 171 210 258 317 367
#     4  11  21  42  67  93 121 163 218 266 313 374
#     4  10  20  38  66  90 117 165 211 257 315 368
#     4  11  22  39  65  96 128 158 208 269 310 373
#     4  11  26  42  61  91 129 171 207 256 317 379
#     4  11  18  40  69  94 114 156 219 264 305 358
#
# _framework density 19.480449
#
# number of rings (size 3 to 8) (size 9 to 14) (size 15 to 20)
#    0.000    1.000    6.250    2.625    1.750    3.500 
#    2.250    0.625    0.000    0.000    0.000    0.000 
#    0.000    0.000    0.000    0.000    0.000    0.000 
#
# Total GULP energy -178633.922928 kJ/mol
# GULP energy per Si atom -5582.310091 kJ/mol
# Density = 1.943611 g / cm^3
# Si number density = 19.480449 Si / 1000 Ang^3
#
#
#
# Elastic Constant Matrix: (Units=GPa)
#
#
# Indices 1 2 3 4 5 6 
#
# 1 56.7890 1.7279 25.2945 0.0000 15.6413 0.0000
# 2 1.7279 107.5193 24.3877 0.0000 -5.7441 0.0000
# 3 25.2945 24.3877 104.3737 0.0000 34.1436 0.0000
# 4 0.0000 0.0000 0.0000 24.8539 0.0000 10.4908
# 5 15.6413 -5.7441 34.1436 0.0000 23.0179 0.0000
# 6 0.0000 0.0000 0.0000 10.4908 0.0000 6.8601
#
#
#
# Elastic Compliance Matrix: (Units=1/GPa)
#
#
# Indices 1 2 3 4 5 6 
#
# 1 0.021806 -0.001104 -0.000173 0.000000 -0.014836 0.000000
# 2 -0.001104 0.011693 -0.007119 0.000000 0.014228 0.000000
# 3 -0.000173 -0.007119 0.022980 0.000000 -0.035746 0.000000
# 4 0.000000 0.000000 0.000000 0.113497 0.000000 -0.173565
# 5 -0.014836 0.014228 -0.035746 0.000000 0.110100 0.000000
# 6 0.000000 0.000000 0.000000 -0.173565 0.000000 0.411195
#
#
# Mechanical properties :
#
#
# Convention : Reuss Voigt Hill
#
# Bulk Modulus (GPa) = 25.19736 41.27802 33.23769
# Shear Modulus (GPa) = 6.93199 25.43118 16.18158
#
# Velocity S-wave (km/s) = 1.88843 3.61705 2.88524
# Velocity P-wave (km/s) = 4.20923 6.21929 5.31023
#
# Compressibility (1/GPa) = 0.03968669
#
# Stress axis : x y z
#
# Youngs Moduli (GPa) = 45.85861 85.51885 43.51611
#
# Poissons Ratio (x) = 0.09439 0.00755
# Poissons Ratio (y) = 0.05061 0.30980
# Poissons Ratio (z) = 0.00795 0.60883
#
# Static dielectric constant tensor:
#      x y z
#    x 1.640990 0.000000 0.029340 
#    y 0.000000 1.691100 0.000000 
#    z 0.029340 0.000000 1.739770 
# 
# From -- ./inp_files/248650.got.cif
#   From: 2010.05.17/outbox.cif.g08.bks.cpg/sg15_125_cif.got.tgz:248650.got - 2010.06.03 18:47:42.
