data_PCOD9274454
_publ_section_title
;
Structure prediction by ZEFSAII (Michael W. Deem and Ramdas Pophale) SiO2 
 PCOD9274454
Probable space group: C 2/C
;
_chemical_formula_sum "Si O2"
_cell_formula_units_Z 60
_cell_length_a 11.171937
_cell_length_b 17.962270
_cell_length_c 16.703651
_cell_angle_alpha 90.000000
_cell_angle_beta 114.405092
_cell_angle_gamma 90.000000
_cell_volume 3052.468142
_symmetry_space_group_name_H-M "C 2/C"
_symmetry_group_IT_number 15
_symmetry_cell_setting 'monoclinic'
loop_
_space_group_symop_operation_xyz
x,y,z
-x,y,1/2-z
-x,-y,-z
x,-y,1/2+z
1/2+x,1/2+y,z
1/2-x,1/2+y,1/2-z
1/2-x,1/2-y,-z
1/2+x,1/2-y,1/2+z
loop_
_atom_site_type_symbol
_atom_site_label
_atom_site_fract_x
_atom_site_fract_y
_atom_site_fract_z
Si Si1 0.448421 0.395466 0.653409
Si Si2 0.150243 0.217936 0.136249
Si Si3 0.146157 0.995868 0.005361
Si Si4 0.000000 0.494014 0.750000
Si Si5 0.659754 0.117267 0.393019
Si Si6 0.469720 0.818585 0.972271
Si Si7 0.789239 0.248846 0.166360
Si Si8 0.881878 0.395165 0.104453
O O1 0.500000 0.428328 0.750000
O O2 0.563485 0.355956 0.633319
O O3 0.373050 0.458437 0.585513
O O4 0.359347 0.325870 0.654473
O O5 0.280296 0.191240 0.127562
O O6 0.188234 0.252888 0.232383
O O7 0.068578 0.270777 0.054927
O O8 0.244135 0.938588 0.077009
O O9 0.224829 0.072967 0.029078
O O10 0.000000 0.000000 0.000000
O O11 0.113521 0.436201 0.807311
O O12 0.005601 0.551850 0.826315
O O13 0.543424 0.137470 0.421852
O O14 0.360072 0.763506 0.904254
O O15 0.406834 0.875932 0.018858
O O16 0.861514 0.317724 0.144566
#
# Coordination Sequence:
#
# PCOD9274454 Si02
#       8
#     8   8   8   4   8   8   8   8
#     4  10  20  38  63  91 118 155 209 262 314 369
#     4  11  22  40  66  93 126 162 215 265 318 379
#     4  11  22  40  61  87 123 165 205 249 313 383
#     4  10  24  42  60  90 132 164 214 252 316 384
#     4  11  25  42  61  91 132 176 204 255 326 387
#     4  12  23  40  67  94 130 165 217 267 321 384
#     4  11  22  39  69  96 121 156 215 280 317 360
#     4  11  22  40  65  97 121 163 214 268 312 367
#
# _framework density 19.656224999999999
#
# number of rings (size 3 to 8) (size 9 to 14) (size 15 to 20)
#    0.000    1.067    4.000    3.200    0.933    2.133 
#    4.800    1.333    0.000    0.000    0.000    0.000 
#    0.000    0.000    0.000    0.000    0.000    0.000 
#
# Total GULP energy -167343.558185 kJ/mol
# GULP energy per Si atom -5578.118606 kJ/mol
# Density = 1.961149 g / cm^3
# Si number density = 19.656225 Si / 1000 Ang^3
#
#
#
# Elastic Constant Matrix: (Units=GPa)
#
#
# Indices 1 2 3 4 5 6 
#
# 1 83.2256 32.3587 40.0919 0.0000 1.2080 0.0000
# 2 32.3587 47.8031 37.4107 0.0000 0.2257 0.0000
# 3 40.0919 37.4107 113.2021 0.0000 13.2938 0.0000
# 4 0.0000 0.0000 0.0000 29.5002 0.0000 13.3981
# 5 1.2080 0.2257 13.2938 0.0000 22.9535 0.0000
# 6 0.0000 0.0000 0.0000 13.3981 0.0000 27.7406
#
#
#
# Elastic Compliance Matrix: (Units=1/GPa)
#
#
# Indices 1 2 3 4 5 6 
#
# 1 0.017051 -0.009074 -0.003160 0.000000 0.001022 0.000000
# 2 -0.009074 0.033707 -0.008523 0.000000 0.005082 0.000000
# 3 -0.003160 -0.008523 0.013670 0.000000 -0.007667 0.000000
# 4 0.000000 0.000000 0.000000 0.043423 0.000000 -0.020972
# 5 0.001022 0.005082 -0.007667 0.000000 0.047903 0.000000
# 6 0.000000 0.000000 0.000000 -0.020972 0.000000 0.046177
#
#
# Mechanical properties :
#
#
# Convention : Reuss Voigt Hill
#
# Bulk Modulus (GPa) = 43.63989 51.55035 47.59512
# Shear Modulus (GPa) = 19.91377 24.99685 22.45531
#
# Velocity S-wave (km/s) = 3.18638 3.56996 3.38361
# Velocity P-wave (km/s) = 5.98223 6.57843 6.28740
#
# Compressibility (1/GPa) = 0.02291481
#
# Stress axis : x y z
#
# Youngs Moduli (GPa) = 58.64771 29.66732 73.15361
#
# Poissons Ratio (x) = 0.26919 0.23118
# Poissons Ratio (y) = 0.53215 0.62346
# Poissons Ratio (z) = 0.18534 0.25284
#
# Static dielectric constant tensor:
#      x y z
#    x 1.751960 0.000000 -0.000070 
#    y 0.000000 1.680860 0.000000 
#    z -0.000070 0.000000 1.735090 
# 
# From -- ./inp_files/146138.got.cif
#   From: 2010.05.17/outbox.cif.g08.bks.cpg/sg15_74_cif.got.tgz:146138.got - 2010.06.03 18:47:42.
