data_PCOD9274618
_publ_section_title
;
Structure prediction by ZEFSAII (Michael W. Deem and Ramdas Pophale) SiO2 
 PCOD9274618
Probable space group: C 2/C
;
_chemical_formula_sum "Si O2"
_cell_formula_units_Z 52
_cell_length_a 19.900263
_cell_length_b 18.032515
_cell_length_c 12.004841
_cell_angle_alpha 90.000000
_cell_angle_beta 39.515488
_cell_angle_gamma 90.000000
_cell_volume 2741.097166
_symmetry_space_group_name_H-M "C 2/C"
_symmetry_group_IT_number 15
_symmetry_cell_setting 'monoclinic'
loop_
_space_group_symop_operation_xyz
x,y,z
-x,y,1/2-z
-x,-y,-z
x,-y,1/2+z
1/2+x,1/2+y,z
1/2-x,1/2+y,1/2-z
1/2-x,1/2-y,-z
1/2+x,1/2-y,1/2+z
loop_
_atom_site_type_symbol
_atom_site_label
_atom_site_fract_x
_atom_site_fract_y
_atom_site_fract_z
Si Si1 0.110203 0.982443 0.416517
Si Si2 0.853168 0.707013 0.615715
Si Si3 0.826654 0.210737 0.487487
Si Si4 0.212389 0.868352 0.875159
Si Si5 0.000000 0.107204 0.250000
Si Si6 0.416873 0.785696 0.583995
Si Si7 0.201909 0.146801 0.651166
O O1 0.171697 0.927570 0.255484
O O2 0.070081 0.939734 0.576984
O O3 0.172046 0.056433 0.371493
O O4 0.000000 0.000000 0.500000
O O5 0.759898 0.676849 0.816040
O O6 0.838109 0.795561 0.618587
O O7 0.819805 0.671626 0.539539
O O8 0.966496 0.695181 0.524666
O O9 0.750000 0.250000 0.500000
O O10 0.898669 0.260229 0.478978
O O11 0.908460 0.159314 0.316313
O O12 0.337165 0.853702 0.703989
O O13 0.188338 0.865118 0.037532
O O14 0.372425 0.715248 0.712550
#
# Coordination Sequence:
#
# PCOD9274618 Si02
#       7
#     8   8   8   8   4   8   8
#     4  12  24  37  59  88 125 158 196 245 306 370
#     4  10  20  39  64  90 119 151 211 256 297 355
#     4  10  21  34  61  87 122 154 199 245 299 358
#     4  10  23  38  59  92 122 158 202 252 299 361
#     4  12  22  40  60  90 120 160 190 248 314 350
#     4  10  20  38  64  90 117 157 206 256 297 350
#     4  10  21  40  57  90 122 153 204 249 299 361
#
# _framework density 18.970506
#
# number of rings (size 3 to 8) (size 9 to 14) (size 15 to 20)
#    0.000    1.846    3.077    4.615    4.308    3.692 
#    0.000    0.769    0.000    0.000    0.000    0.000 
#    0.000    0.000    0.000    0.000    0.000    0.000 
#
# Total GULP energy -144912.063288 kJ/mol
# GULP energy per Si atom -5573.540896 kJ/mol
# Density = 1.892733 g / cm^3
# Si number density = 18.970506 Si / 1000 Ang^3
#
#
#
# Elastic Constant Matrix: (Units=GPa)
#
#
# Indices 1 2 3 4 5 6 
#
# 1 113.3616 42.9425 33.8884 0.0000 -33.1793 0.0000
# 2 42.9425 100.1640 43.3138 0.0000 -19.7737 0.0000
# 3 33.8884 43.3138 66.1281 0.0000 -12.8338 0.0000
# 4 0.0000 0.0000 0.0000 26.6060 0.0000 -2.9255
# 5 -33.1793 -19.7737 -12.8338 0.0000 40.8674 0.0000
# 6 0.0000 0.0000 0.0000 -2.9255 0.0000 25.9948
#
#
#
# Elastic Compliance Matrix: (Units=1/GPa)
#
#
# Indices 1 2 3 4 5 6 
#
# 1 0.013309 -0.002502 -0.003535 0.000000 0.008485 0.000000
# 2 -0.002502 0.015085 -0.008068 0.000000 0.002734 0.000000
# 3 -0.003535 -0.008068 0.022260 0.000000 0.000217 0.000000
# 4 0.000000 0.000000 0.000000 0.038056 0.000000 0.004283
# 5 0.008485 0.002734 0.000217 0.000000 0.032749 0.000000
# 6 0.000000 0.000000 0.000000 0.004283 0.000000 0.038951
#
#
# Mechanical properties :
#
#
# Convention : Reuss Voigt Hill
#
# Bulk Modulus (GPa) = 44.55444 57.77144 51.16294
# Shear Modulus (GPa) = 25.49700 29.32760 27.41230
#
# Velocity S-wave (km/s) = 3.67008 3.93613 3.80543
# Velocity P-wave (km/s) = 6.44178 7.15380 6.80711
#
# Compressibility (1/GPa) = 0.02244445
#
# Stress axis : x y z
#
# Youngs Moduli (GPa) = 75.13529 66.29200 44.92363
#
# Poissons Ratio (x) = 0.16589 0.15880
# Poissons Ratio (y) = 0.18802 0.36242
# Poissons Ratio (z) = 0.26559 0.53481
#
# Static dielectric constant tensor:
#      x y z
#    x 1.679910 0.000000 0.026430 
#    y 0.000000 1.753120 0.000000 
#    z 0.026430 0.000000 1.701050 
# 
# From -- ./inp_files/113617.got.cif
#   From: 2010.05.17/outbox.cif.g08.bks.cpg/sg15_57_cif.got.tgz:113617.got - 2010.06.03 18:47:42.
