data_PCOD9274101
_publ_section_title
;
Structure prediction by ZEFSAII (Michael W. Deem and Ramdas Pophale) SiO2 
 PCOD9274101
Probable space group: C 2/C
;
_chemical_formula_sum "Si O2"
_cell_formula_units_Z 44
_cell_length_a 11.771124
_cell_length_b 15.278352
_cell_length_c 11.813801
_cell_angle_alpha 90.000000
_cell_angle_beta 103.590436
_cell_angle_gamma 90.000000
_cell_volume 2065.144611
_symmetry_space_group_name_H-M "C 2/C"
_symmetry_group_IT_number 15
_symmetry_cell_setting 'monoclinic'
loop_
_space_group_symop_operation_xyz
x,y,z
-x,y,1/2-z
-x,-y,-z
x,-y,1/2+z
1/2+x,1/2+y,z
1/2-x,1/2+y,1/2-z
1/2-x,1/2-y,-z
1/2+x,1/2-y,1/2+z
loop_
_atom_site_type_symbol
_atom_site_label
_atom_site_fract_x
_atom_site_fract_y
_atom_site_fract_z
Si Si1 0.882340 0.031082 0.535403
Si Si2 0.364798 0.996302 0.610945
Si Si3 0.502519 0.135442 0.976374
Si Si4 0.878111 0.658966 0.273234
Si Si5 0.636515 0.691385 0.109574
Si Si6 0.500000 0.564914 0.250000
O O1 0.768793 0.986798 0.453775
O O2 0.861727 0.133756 0.505451
O O3 0.000000 0.000000 0.500000
O O4 0.905357 0.997291 0.666687
O O5 0.418839 0.928737 0.530369
O O6 0.369607 0.942564 0.728847
O O7 0.440336 0.082686 0.612888
O O8 0.430027 0.219025 0.923333
O O9 0.605397 0.161543 0.088851
O O10 0.765451 0.702805 0.191569
O O11 0.000000 0.693616 0.250000
O O12 0.566823 0.628642 0.179565
#
# Coordination Sequence:
#
# PCOD9274101 Si02
#       6
#     8   8   8   8   8   4
#     4   9  19  37  61  83 118 160 198 241 302 361
#     4   9  19  37  58  84 121 159 200 248 298 355
#     4  10  20  38  61  90 121 155 202 252 297 356
#     4   9  19  36  61  85 119 157 195 248 300 354
#     4  10  21  39  61  92 118 153 205 252 292 365
#     4  10  20  40  60  82 124 158 186 248 306 364
#
# _framework density 21.306014000000001
#
# number of rings (size 3 to 8) (size 9 to 14) (size 15 to 20)
#    0.000    2.545    0.000    1.091    0.000    6.545 
#   16.364    8.182    8.000    0.000    0.000    0.000 
#    0.000    0.000    0.000    0.000    0.000    0.000 
#
# Total GULP energy -122819.147735 kJ/mol
# GULP energy per Si atom -5582.688533 kJ/mol
# Density = 2.125752 g / cm^3
# Si number density = 21.306014 Si / 1000 Ang^3
#
#
#
# Elastic Constant Matrix: (Units=GPa)
#
#
# Indices 1 2 3 4 5 6 
#
# 1 97.8447 54.9950 43.6840 0.0000 38.5979 0.0000
# 2 54.9950 122.0305 64.1894 0.0000 23.8822 0.0000
# 3 43.6840 64.1894 113.0928 0.0000 35.6514 0.0000
# 4 0.0000 0.0000 0.0000 12.8540 0.0000 -2.1223
# 5 38.5979 23.8822 35.6514 0.0000 40.0494 0.0000
# 6 0.0000 0.0000 0.0000 -2.1223 0.0000 28.3631
#
#
#
# Elastic Compliance Matrix: (Units=1/GPa)
#
#
# Indices 1 2 3 4 5 6 
#
# 1 0.019617 -0.006234 0.001041 0.000000 -0.016115 0.000000
# 2 -0.006234 0.013727 -0.006529 0.000000 0.003635 0.000000
# 3 0.001041 -0.006529 0.015617 0.000000 -0.011013 0.000000
# 4 0.000000 0.000000 0.000000 0.078770 0.000000 0.005894
# 5 -0.016115 0.003635 -0.011013 0.000000 0.048136 0.000000
# 6 0.000000 0.000000 0.000000 0.005894 0.000000 0.035698
#
#
# Mechanical properties :
#
#
# Convention : Reuss Voigt Hill
#
# Bulk Modulus (GPa) = 39.18937 73.18941 56.18939
# Shear Modulus (GPa) = 20.53263 27.59328 24.06296
#
# Velocity S-wave (km/s) = 3.10772 3.60264 3.36430
# Velocity P-wave (km/s) = 5.59560 7.19246 6.44369
#
# Compressibility (1/GPa) = 0.02551712
#
# Stress axis : x y z
#
# Youngs Moduli (GPa) = 50.97745 72.84732 64.03116
#
# Poissons Ratio (x) = 0.45417 -0.06668
# Poissons Ratio (y) = 0.31782 0.41806
# Poissons Ratio (z) = -0.05309 0.47562
#
# Static dielectric constant tensor:
#      x y z
#    x 1.790750 0.000000 -0.017840 
#    y 0.000000 1.763050 0.000000 
#    z -0.017840 0.000000 1.804890 
# 
# From -- ./inp_files/87548.got.cif
#   From: 2010.05.17/outbox.cif.g08.bks.cpg/sg15_44_cif.got.tgz:87548.got - 2010.06.03 18:47:42.
