data_PCOD9274515
_publ_section_title
;
Structure prediction by ZEFSAII (Michael W. Deem and Ramdas Pophale) SiO2 
 PCOD9274515
Probable space group: C 2/C
;
_chemical_formula_sum "Si O2"
_cell_formula_units_Z 40
_cell_length_a 10.120725
_cell_length_b 10.203366
_cell_length_c 24.988247
_cell_angle_alpha 90.000000
_cell_angle_beta 135.186079
_cell_angle_gamma 90.000000
_cell_volume 1818.699037
_symmetry_space_group_name_H-M "C 2/C"
_symmetry_group_IT_number 15
_symmetry_cell_setting 'monoclinic'
loop_
_space_group_symop_operation_xyz
x,y,z
-x,y,1/2-z
-x,-y,-z
x,-y,1/2+z
1/2+x,1/2+y,z
1/2-x,1/2+y,1/2-z
1/2-x,1/2-y,-z
1/2+x,1/2-y,1/2+z
loop_
_atom_site_type_symbol
_atom_site_label
_atom_site_fract_x
_atom_site_fract_y
_atom_site_fract_z
Si Si1 0.315926 0.680724 0.593870
Si Si2 0.551188 0.941848 0.092985
Si Si3 0.296879 0.400883 0.260725
Si Si4 0.709432 0.652020 0.291761
Si Si5 0.178414 0.947708 0.518781
O O1 0.483864 0.633717 0.680253
O O2 0.285791 0.835848 0.583666
O O3 0.369067 0.625123 0.550681
O O4 0.121152 0.618016 0.557795
O O5 0.668137 0.865800 0.172736
O O6 0.640706 0.088095 0.124832
O O7 0.334411 0.945749 0.046223
O O8 0.268766 0.557928 0.254526
O O9 0.233453 0.304563 0.289189
O O10 0.500000 0.626231 0.250000
O O11 0.000000 0.000000 0.500000
#
# Coordination Sequence:
#
# PCOD9274515 Si02
#       5
#     8   8   8   8   8
#     4  11  21  44  66  89 135 177 210 277 332 390
#     4  10  21  43  67  95 129 171 221 269 332 386
#     4  10  20  39  68  97 125 168 221 276 327 391
#     4  10  20  38  63  97 129 163 216 271 332 385
#     4  11  26  42  62  97 134 174 226 263 328 398
#
# _framework density 21.993742999999998
#
# number of rings (size 3 to 8) (size 9 to 14) (size 15 to 20)
#    1.200    0.400    4.000    1.200    0.000    4.000 
#    0.000    3.000    0.000    0.000    0.000    0.000 
#    0.000    0.000    0.000    0.000    0.000    0.000 
#
# Total GULP energy -111378.279374 kJ/mol
# GULP energy per Si atom -5568.913969 kJ/mol
# Density = 2.194368 g / cm^3
# Si number density = 21.993743 Si / 1000 Ang^3
#
#
#
# Elastic Constant Matrix: (Units=GPa)
#
#
# Indices 1 2 3 4 5 6 
#
# 1 137.1182 31.2577 19.6173 0.0000 28.3757 0.0000
# 2 31.2577 58.9550 12.1508 0.0000 7.7094 0.0000
# 3 19.6173 12.1508 66.5989 0.0000 13.1699 0.0000
# 4 0.0000 0.0000 0.0000 17.6019 0.0000 5.7871
# 5 28.3757 7.7094 13.1699 0.0000 28.9658 0.0000
# 6 0.0000 0.0000 0.0000 5.7871 0.0000 35.1663
#
#
#
# Elastic Compliance Matrix: (Units=1/GPa)
#
#
# Indices 1 2 3 4 5 6 
#
# 1 0.010072 -0.004116 -0.000529 0.000000 -0.008531 0.000000
# 2 -0.004116 0.019645 -0.002346 0.000000 -0.000130 0.000000
# 3 -0.000529 -0.002346 0.016892 0.000000 -0.006538 0.000000
# 4 0.000000 0.000000 0.000000 0.060062 0.000000 -0.009884
# 5 -0.008531 -0.000130 -0.006538 0.000000 0.045888 0.000000
# 6 0.000000 0.000000 0.000000 -0.009884 0.000000 0.030063
#
#
# Mechanical properties :
#
#
# Convention : Reuss Voigt Hill
#
# Bulk Modulus (GPa) = 30.64898 43.19153 36.92026
# Shear Modulus (GPa) = 24.09884 29.65657 26.87770
#
# Velocity S-wave (km/s) = 3.31375 3.67605 3.49959
# Velocity P-wave (km/s) = 5.34853 6.13991 5.75784
#
# Compressibility (1/GPa) = 0.03262751
#
# Stress axis : x y z
#
# Youngs Moduli (GPa) = 99.28167 50.90419 59.19988
#
# Poissons Ratio (x) = 0.20951 0.03131
# Poissons Ratio (y) = 0.40861 0.13889
# Poissons Ratio (z) = 0.05251 0.11943
#
# Static dielectric constant tensor:
#      x y z
#    x 1.856060 0.000000 -0.009390 
#    y 0.000000 1.828330 0.000000 
#    z -0.009390 0.000000 1.858950 
# 
# From -- ./inp_files/287797.got.cif
#   From: 2010.05.17/outbox.cif.g08.bks.cpg/sg15_144_cif.got.tgz:287797.got - 2010.06.03 18:47:42.
