data_PCOD9274571
_publ_section_title
;
Structure prediction by ZEFSAII (Michael W. Deem and Ramdas Pophale) SiO2 
 PCOD9274571
Probable space group: C 2/C
;
_chemical_formula_sum "Si O2"
_cell_formula_units_Z 64
_cell_length_a 11.925147
_cell_length_b 7.323087
_cell_length_c 29.961216
_cell_angle_alpha 90.000000
_cell_angle_beta 87.620484
_cell_angle_gamma 90.000000
_cell_volume 2614.223613
_symmetry_space_group_name_H-M "C 2/C"
_symmetry_group_IT_number 15
_symmetry_cell_setting 'monoclinic'
loop_
_space_group_symop_operation_xyz
x,y,z
-x,y,1/2-z
-x,-y,-z
x,-y,1/2+z
1/2+x,1/2+y,z
1/2-x,1/2+y,1/2-z
1/2-x,1/2-y,-z
1/2+x,1/2-y,1/2+z
loop_
_atom_site_type_symbol
_atom_site_label
_atom_site_fract_x
_atom_site_fract_y
_atom_site_fract_z
Si Si1 0.858489 0.059655 0.838003
Si Si2 0.409447 0.016849 0.311651
Si Si3 0.790017 0.583196 0.900465
Si Si4 0.732392 0.168213 0.925848
Si Si5 0.539042 0.661285 0.549412
Si Si6 0.435149 0.329521 0.138794
Si Si7 0.511936 0.765489 0.043051
Si Si8 0.848517 0.439221 0.710478
O O1 0.890065 0.268398 0.823842
O O2 0.778341 0.054769 0.882608
O O3 0.985770 0.997974 0.847586
O O4 0.777975 0.982621 0.801390
O O5 0.348793 0.908666 0.351171
O O6 0.540489 0.958696 0.310971
O O7 0.362892 0.017371 0.262331
O O8 0.753103 0.378800 0.913144
O O9 0.671004 0.671249 0.892187
O O10 0.876122 0.663366 0.934963
O O11 0.827174 0.136948 0.961882
O O12 0.602886 0.141105 0.938447
O O13 0.519943 0.750597 0.598416
O O14 0.484483 0.773904 0.510640
O O15 0.497618 0.452513 0.551769
O O16 0.381858 0.252801 0.186098
#
# Coordination Sequence:
#
# PCOD9274571 Si02
#       8
#     8   8   8   8   8   8   8   8
#     4   9  20  38  62  87 123 164 203 256 320 368
#     4   9  21  39  59  92 121 153 213 259 308 386
#     4  11  23  39  63  91 127 165 211 260 316 375
#     4  10  21  41  60  88 126 164 208 265 304 370
#     4  10  23  43  62  93 129 164 218 257 316 378
#     4  10  22  38  59  91 124 161 208 254 308 377
#     4  11  23  42  64  92 128 169 210 269 310 371
#     4  10  20  38  64  86 119 166 202 259 319 372
#
# _framework density 24.481456000000001
#
# number of rings (size 3 to 8) (size 9 to 14) (size 15 to 20)
#    0.000    2.000    1.250    1.875    5.250    1.000 
#    0.000    0.000    0.000    0.000    0.000    0.000 
#    0.000    0.000    0.000    0.000    0.000    0.000 
#
# Total GULP energy -178148.991035 kJ/mol
# GULP energy per Si atom -5567.155970 kJ/mol
# Density = 2.442574 g / cm^3
# Si number density = 24.481456 Si / 1000 Ang^3
#
#
#
# Elastic Constant Matrix: (Units=GPa)
#
#
# Indices 1 2 3 4 5 6 
#
# 1 166.8092 16.4459 47.2053 0.0000 28.3068 0.0000
# 2 16.4459 34.9251 3.2701 0.0000 -1.7697 0.0000
# 3 47.2053 3.2701 92.9723 0.0000 13.9198 0.0000
# 4 0.0000 0.0000 0.0000 21.7446 0.0000 5.3451
# 5 28.3068 -1.7697 13.9198 0.0000 33.7749 0.0000
# 6 0.0000 0.0000 0.0000 5.3451 0.0000 30.5676
#
#
#
# Elastic Compliance Matrix: (Units=1/GPa)
#
#
# Indices 1 2 3 4 5 6 
#
# 1 0.008269 -0.003890 -0.003190 0.000000 -0.005819 0.000000
# 2 -0.003890 0.030691 0.000178 0.000000 0.004795 0.000000
# 3 -0.003190 0.000178 0.012755 0.000000 -0.002574 0.000000
# 4 0.000000 0.000000 0.000000 0.048054 0.000000 -0.008403
# 5 -0.005819 0.004795 -0.002574 0.000000 0.035797 0.000000
# 6 0.000000 0.000000 0.000000 -0.008403 0.000000 0.034184
#
#
# Mechanical properties :
#
#
# Convention : Reuss Voigt Hill
#
# Bulk Modulus (GPa) = 26.37881 47.61659 36.99770
# Shear Modulus (GPa) = 25.48555 32.40310 28.94433
#
# Velocity S-wave (km/s) = 3.22998 3.64205 3.44218
# Velocity P-wave (km/s) = 4.97079 6.09740 5.56269
#
# Compressibility (1/GPa) = 0.03790922
#
# Stress axis : x y z
#
# Youngs Moduli (GPa) = 120.93905 32.58321 78.40210
#
# Poissons Ratio (x) = 0.12674 0.25012
# Poissons Ratio (y) = 0.47042 -0.01392
# Poissons Ratio (z) = 0.38582 -0.00579
#
# Static dielectric constant tensor:
#      x y z
#    x 2.171230 0.000000 0.145290 
#    y 0.000000 2.072870 0.000000 
#    z 0.145290 0.000000 2.019530 
# 
# From -- ./inp_files/310316.got.cif
#   From: 2010.05.17/outbox.cif.g08.bks.cpg/sg15_156_cif.got.tgz:310316.got - 2010.06.03 18:47:42.
