data_PCOD9274192
_publ_section_title
;
Structure prediction by ZEFSAII (Michael W. Deem and Ramdas Pophale) SiO2 
 PCOD9274192
Probable space group: C 2/C
;
_chemical_formula_sum "Si O2"
_cell_formula_units_Z 40
_cell_length_a 24.144875
_cell_length_b 7.539906
_cell_length_c 9.633096
_cell_angle_alpha 90.000000
_cell_angle_beta 83.296278
_cell_angle_gamma 90.000000
_cell_volume 1741.716006
_symmetry_space_group_name_H-M "C 2/C"
_symmetry_group_IT_number 15
_symmetry_cell_setting 'monoclinic'
loop_
_space_group_symop_operation_xyz
x,y,z
-x,y,1/2-z
-x,-y,-z
x,-y,1/2+z
1/2+x,1/2+y,z
1/2-x,1/2+y,1/2-z
1/2-x,1/2-y,-z
1/2+x,1/2-y,1/2+z
loop_
_atom_site_type_symbol
_atom_site_label
_atom_site_fract_x
_atom_site_fract_y
_atom_site_fract_z
Si Si1 0.904358 0.946554 0.567518
Si Si2 0.871899 0.537800 0.247092
Si Si3 0.445017 0.104895 0.480087
Si Si4 0.857673 0.157080 0.360258
Si Si5 0.804035 0.175800 0.911315
O O1 0.953625 0.814048 0.512223
O O2 0.896541 0.939345 0.733240
O O3 0.852139 0.838032 0.514345
O O4 0.892653 0.130196 0.492646
O O5 0.924742 0.585478 0.328772
O O6 0.847131 0.356877 0.321060
O O7 0.827561 0.695801 0.283757
O O8 0.896943 0.480488 0.092973
O O9 0.500000 0.000000 0.500000
O O10 0.802713 0.032418 0.371646
O O11 0.750000 0.250000 0.000000
#
# Coordination Sequence:
#
# PCOD9274192 Si02
#       5
#     8   8   8   8   8
#     4   8  19  37  56  84 116 144 191 236 281 342
#     4  10  21  36  61  82 117 151 187 241 290 342
#     4  10  20  38  62  86 111 151 195 235 296 348
#     4   9  19  37  56  81 118 144 187 235 282 337
#     4   9  20  38  56  84 116 153 193 234 284 345
#
# _framework density 22.965858000000001
#
# number of rings (size 3 to 8) (size 9 to 14) (size 15 to 20)
#    1.200    1.600    0.000    0.600    2.800    0.800 
#   10.800    1.000    8.800    0.000    0.000    0.000 
#    0.000    0.000    0.000    0.000    0.000    0.000 
#
# Total GULP energy -111342.565942 kJ/mol
# GULP energy per Si atom -5567.128297 kJ/mol
# Density = 2.291359 g / cm^3
# Si number density = 22.965858 Si / 1000 Ang^3
#
#
#
# Elastic Constant Matrix: (Units=GPa)
#
#
# Indices 1 2 3 4 5 6 
#
# 1 23.7503 12.7506 -21.9158 0.0000 -9.3452 0.0000
# 2 12.7506 119.5642 -18.2093 0.0000 -17.9941 0.0000
# 3 -21.9158 -18.2093 53.7866 0.0000 4.3562 0.0000
# 4 0.0000 0.0000 0.0000 35.6574 0.0000 -5.5901
# 5 -9.3452 -17.9941 4.3562 0.0000 16.3643 0.0000
# 6 0.0000 0.0000 0.0000 -5.5901 0.0000 18.9288
#
#
#
# Elastic Compliance Matrix: (Units=1/GPa)
#
#
# Indices 1 2 3 4 5 6 
#
# 1 0.089466 0.002302 0.033615 0.000000 0.044674 0.000000
# 2 0.002302 0.010437 0.003511 0.000000 0.011857 0.000000
# 3 0.033615 0.003511 0.032306 0.000000 0.014457 0.000000
# 4 0.000000 0.000000 0.000000 0.029406 0.000000 0.008684
# 5 0.044674 0.011857 0.014457 0.000000 0.095810 0.000000
# 6 0.000000 0.000000 0.000000 0.008684 0.000000 0.055394
#
#
# Mechanical properties :
#
#
# Convention : Reuss Voigt Hill
#
# Bulk Modulus (GPa) = 4.73787 15.81689 10.27738
# Shear Modulus (GPa) = 16.43014 29.15516 22.79265
#
# Velocity S-wave (km/s) = 2.67763 3.56687 3.15375
# Velocity P-wave (km/s) = 3.40985 4.88523 4.21263
#
# Compressibility (1/GPa) = 0.21106534
#
# Stress axis : x y z
#
# Youngs Moduli (GPa) = 11.17748 95.80937 30.95356
#
# Poissons Ratio (x) = -0.22055 -1.04050
# Poissons Ratio (y) = -0.02573 -0.10869
# Poissons Ratio (z) = -0.37573 -0.33641
#
# Static dielectric constant tensor:
#      x y z
#    x 1.856980 0.000000 -0.015200 
#    y 0.000000 1.522730 0.000000 
#    z -0.015200 0.000000 1.900910 
# 
# From -- ./inp_files/120977.got.cif
#   From: 2010.05.17/outbox.cif.g08.bks.cpg/sg15_61_cif.got.tgz:120977.got - 2010.06.03 18:47:42.
