data_PCOD9274774
_publ_section_title
;
Structure prediction by ZEFSAII (Michael W. Deem and Ramdas Pophale) SiO2 
 PCOD9274774
Probable space group: C 2/C
;
_chemical_formula_sum "Si O2"
_cell_formula_units_Z 56
_cell_length_a 9.447778
_cell_length_b 16.878785
_cell_length_c 21.074969
_cell_angle_alpha 90.000000
_cell_angle_beta 136.301710
_cell_angle_gamma 90.000000
_cell_volume 2321.819091
_symmetry_space_group_name_H-M "C 2/C"
_symmetry_group_IT_number 15
_symmetry_cell_setting 'monoclinic'
loop_
_space_group_symop_operation_xyz
x,y,z
-x,y,1/2-z
-x,-y,-z
x,-y,1/2+z
1/2+x,1/2+y,z
1/2-x,1/2+y,1/2-z
1/2-x,1/2-y,-z
1/2+x,1/2-y,1/2+z
loop_
_atom_site_type_symbol
_atom_site_label
_atom_site_fract_x
_atom_site_fract_y
_atom_site_fract_z
Si Si1 0.212444 0.781650 0.858263
Si Si2 0.572354 0.709187 0.124615
Si Si3 0.235545 0.816582 0.549420
Si Si4 0.916094 0.783050 0.308128
Si Si5 0.791905 0.459668 0.723136
Si Si6 0.604166 0.562865 0.909700
Si Si7 0.243908 0.956605 0.847781
O O1 0.330800 0.719299 0.852928
O O2 0.000000 0.788148 0.750000
O O3 0.133891 0.774206 0.903985
O O4 0.316383 0.867528 0.886087
O O5 0.565392 0.702438 0.046931
O O6 0.730819 0.776102 0.199630
O O7 0.674279 0.625552 0.180574
O O8 0.250000 0.750000 0.500000
O O9 0.445696 0.796039 0.654264
O O10 0.204679 0.899650 0.505131
O O11 0.044796 0.862441 0.345890
O O12 0.609521 0.519333 0.643259
O O13 0.842491 0.480819 0.812943
O O14 0.000000 0.462569 0.750000
O O15 0.747760 0.507661 0.913075
O O16 0.000000 0.956538 0.750000
#
# Coordination Sequence:
#
# PCOD9274774 Si02
#       7
#     8   8   8   8   8   8   8
#     4   9  16  34  60  88 111 145 203 256 295 347
#     4  11  20  37  65  88 117 162 208 256 304 361
#     4  10  23  39  55  87 128 163 203 250 312 383
#     4  10  20  38  65  90 112 158 222 251 296 374
#     4  11  21  35  61  93 119 154 214 262 297 365
#     4  10  22  39  56  86 131 163 189 259 325 362
#     4   9  16  36  58  81 119 153 194 251 301 357
#
# _framework density 24.119021
#
# number of rings (size 3 to 8) (size 9 to 14) (size 15 to 20)
#    0.000    2.000    5.714    1.286    0.000    9.143 
#    0.000    5.000    0.000    0.000    0.000    0.000 
#    0.000    0.000    0.000    0.000    0.000    0.000 
#
# Total GULP energy -156360.230296 kJ/mol
# GULP energy per Si atom -5584.293939 kJ/mol
# Density = 2.406413 g / cm^3
# Si number density = 24.119021 Si / 1000 Ang^3
#
#
#
# Elastic Constant Matrix: (Units=GPa)
#
#
# Indices 1 2 3 4 5 6 
#
# 1 175.0856 7.8800 34.6819 0.0000 -32.3167 0.0000
# 2 7.8800 57.1671 1.7946 0.0000 5.1396 0.0000
# 3 34.6819 1.7946 59.3457 0.0000 -20.6721 0.0000
# 4 0.0000 0.0000 0.0000 32.6859 0.0000 -5.0029
# 5 -32.3167 5.1396 -20.6721 0.0000 51.6482 0.0000
# 6 0.0000 0.0000 0.0000 -5.0029 0.0000 26.8227
#
#
#
# Elastic Compliance Matrix: (Units=1/GPa)
#
#
# Indices 1 2 3 4 5 6 
#
# 1 0.006944 -0.001165 -0.002869 0.000000 0.003312 0.000000
# 2 -0.001165 0.017937 -0.000857 0.000000 -0.002857 0.000000
# 3 -0.002869 -0.000857 0.020867 0.000000 0.006642 0.000000
# 4 0.000000 0.000000 0.000000 0.031493 0.000000 0.005874
# 5 0.003312 -0.002857 0.006642 0.000000 0.024377 0.000000
# 6 0.000000 0.000000 0.000000 0.005874 0.000000 0.038377
#
#
# Mechanical properties :
#
#
# Convention : Reuss Voigt Hill
#
# Bulk Modulus (GPa) = 27.80397 42.25684 35.03041
# Shear Modulus (GPa) = 30.90918 38.71416 34.81167
#
# Velocity S-wave (km/s) = 3.58373 4.01075 3.80324
# Velocity P-wave (km/s) = 5.35509 6.24551 5.81736
#
# Compressibility (1/GPa) = 0.03596608
#
# Stress axis : x y z
#
# Youngs Moduli (GPa) = 144.01823 55.75112 47.92368
#
# Poissons Ratio (x) = 0.06494 0.13749
# Poissons Ratio (y) = 0.16776 0.04106
# Poissons Ratio (z) = 0.41317 0.04776
#
# Static dielectric constant tensor:
#      x y z
#    x 1.999430 0.000000 0.015030 
#    y 0.000000 1.919140 0.000000 
#    z 0.015030 0.000000 2.037630 
# 
# From -- ./inp_files/232799.got.cif
#   From: 2010.05.17/outbox.cif.g08.bks.cpg/sg15_117_cif.got.tgz:232799.got - 2010.06.03 18:47:42.
