data_PCOD9274655
_publ_section_title
;
Structure prediction by ZEFSAII (Michael W. Deem and Ramdas Pophale) SiO2 
 PCOD9274655
Probable space group: C 2/C
;
_chemical_formula_sum "Si O2"
_cell_formula_units_Z 44
_cell_length_a 23.605913
_cell_length_b 15.213290
_cell_length_c 5.337038
_cell_angle_alpha 90.000000
_cell_angle_beta 108.792254
_cell_angle_gamma 90.000000
_cell_volume 1814.484758
_symmetry_space_group_name_H-M "C 2/C"
_symmetry_group_IT_number 15
_symmetry_cell_setting 'monoclinic'
loop_
_space_group_symop_operation_xyz
x,y,z
-x,y,1/2-z
-x,-y,-z
x,-y,1/2+z
1/2+x,1/2+y,z
1/2-x,1/2+y,1/2-z
1/2-x,1/2-y,-z
1/2+x,1/2-y,1/2+z
loop_
_atom_site_type_symbol
_atom_site_label
_atom_site_fract_x
_atom_site_fract_y
_atom_site_fract_z
Si Si1 0.687846 0.359221 0.987930
Si Si2 0.927928 0.554713 0.668830
Si Si3 0.082393 0.049935 0.132239
Si Si4 0.000000 0.195739 0.250000
Si Si5 0.205074 0.299145 0.129635
Si Si6 0.607886 0.224239 0.119308
O O1 0.652768 0.431320 0.779609
O O2 0.694049 0.274582 0.820434
O O3 0.753056 0.375835 0.196132
O O4 0.641940 0.317716 0.126119
O O5 0.914597 0.493913 0.408866
O O6 0.892091 0.646055 0.586167
O O7 0.000000 0.570428 0.750000
O O8 0.045535 0.135922 0.156484
O O9 0.068271 0.980615 0.333195
O O10 0.038606 0.249751 0.506905
O O11 0.250000 0.250000 0.000000
O O12 0.143150 0.316801 0.901996
#
# Coordination Sequence:
#
# PCOD9274655 Si02
#       6
#     8   8   8   4   8   8
#     4   9  21  39  65  92 119 168 219 267 320 376
#     4  10  22  40  58  86 128 163 195 248 318 370
#     4  11  25  43  64  95 140 175 213 268 330 386
#     4  10  22  42  62  98 128 178 226 256 318 390
#     4   9  19  38  66  87 120 153 219 270 316 362
#     4  10  20  38  64  92 123 168 217 264 307 389
#
# _framework density 24.249307999999999
#
# number of rings (size 3 to 8) (size 9 to 14) (size 15 to 20)
#    0.000    2.182    0.909    0.545   10.182    0.000 
#    3.273    1.818    0.000    0.000    0.000    0.000 
#    0.000    0.000    0.000    0.000    0.000    0.000 
#
# Total GULP energy -122736.918053 kJ/mol
# GULP energy per Si atom -5578.950821 kJ/mol
# Density = 2.419412 g / cm^3
# Si number density = 24.249308 Si / 1000 Ang^3
#
#
#
# Elastic Constant Matrix: (Units=GPa)
#
#
# Indices 1 2 3 4 5 6 
#
# 1 58.8524 13.4044 47.0277 0.0000 25.7653 0.0000
# 2 13.4044 45.1449 20.9505 0.0000 8.8375 0.0000
# 3 47.0277 20.9505 99.5652 0.0000 31.3798 0.0000
# 4 0.0000 0.0000 0.0000 22.8285 0.0000 8.8722
# 5 25.7653 8.8375 31.3798 0.0000 50.6984 0.0000
# 6 0.0000 0.0000 0.0000 8.8722 0.0000 33.2421
#
#
#
# Elastic Compliance Matrix: (Units=1/GPa)
#
#
# Indices 1 2 3 4 5 6 
#
# 1 0.029854 -0.002139 -0.011165 0.000000 -0.007889 0.000000
# 2 -0.002139 0.024775 -0.003956 0.000000 -0.000783 0.000000
# 3 -0.011165 -0.003956 0.017572 0.000000 -0.004512 0.000000
# 4 0.000000 0.000000 0.000000 0.048874 0.000000 -0.013044
# 5 -0.007889 -0.000783 -0.004512 0.000000 0.026663 0.000000
# 6 0.000000 0.000000 0.000000 -0.013044 0.000000 0.033564
#
#
# Mechanical properties :
#
#
# Convention : Reuss Voigt Hill
#
# Bulk Modulus (GPa) = 26.53806 40.70308 33.62057
# Shear Modulus (GPa) = 21.89321 29.49915 25.69618
#
# Velocity S-wave (km/s) = 3.00799 3.49161 3.25878
# Velocity P-wave (km/s) = 4.79912 5.75125 5.29662
#
# Compressibility (1/GPa) = 0.03768173
#
# Stress axis : x y z
#
# Youngs Moduli (GPa) = 33.49662 40.36303 56.90982
#
# Poissons Ratio (x) = 0.08632 0.63537
# Poissons Ratio (y) = 0.07164 0.22515
# Poissons Ratio (z) = 0.37397 0.15968
#
# Static dielectric constant tensor:
#      x y z
#    x 2.222270 0.000000 -0.029550 
#    y 0.000000 1.914990 0.000000 
#    z -0.029550 0.000000 1.981920 
# 
# From -- ./inp_files/15116.got.cif
#   From: 2010.05.17/outbox.cif.g08.bks.cpg/sg15_8_cif.got.tgz:15116.got - 2010.06.03 18:47:42.
