data_PCOD9274574
_publ_section_title
;
Structure prediction by ZEFSAII (Michael W. Deem and Ramdas Pophale) SiO2 
 PCOD9274574
Probable space group: C 2/C
;
_chemical_formula_sum "Si O2"
_cell_formula_units_Z 48
_cell_length_a 5.434470
_cell_length_b 30.758978
_cell_length_c 16.622870
_cell_angle_alpha 90.000000
_cell_angle_beta 133.254978
_cell_angle_gamma 90.000000
_cell_volume 2023.728442
_symmetry_space_group_name_H-M "C 2/C"
_symmetry_group_IT_number 15
_symmetry_cell_setting 'monoclinic'
loop_
_space_group_symop_operation_xyz
x,y,z
-x,y,1/2-z
-x,-y,-z
x,-y,1/2+z
1/2+x,1/2+y,z
1/2-x,1/2+y,1/2-z
1/2-x,1/2-y,-z
1/2+x,1/2-y,1/2+z
loop_
_atom_site_type_symbol
_atom_site_label
_atom_site_fract_x
_atom_site_fract_y
_atom_site_fract_z
Si Si1 0.430773 0.031164 0.061317
Si Si2 0.548043 0.785079 0.668892
Si Si3 0.132303 0.550481 0.864638
Si Si4 0.811273 0.632932 0.529687
Si Si5 0.518535 0.872608 0.895619
Si Si6 0.685372 0.720681 0.563166
O O1 0.035509 0.043574 0.961414
O O2 0.600656 0.077181 0.121531
O O3 0.500000 0.000000 0.000000
O O4 0.507800 0.997311 0.149506
O O5 0.500000 0.769721 0.750000
O O6 0.664599 0.835448 0.698579
O O7 0.719916 0.750112 0.649021
O O8 0.202378 0.790955 0.541206
O O9 0.031517 0.587704 0.905308
O O10 0.000000 0.566176 0.750000
O O11 0.404215 0.625351 0.446771
O O12 0.882377 0.675214 0.601051
O O13 0.953560 0.642778 0.473379
O O14 0.750000 0.750000 0.500000
#
# Coordination Sequence:
#
# PCOD9274574 Si02
#       6
#     8   8   8   8   8   8
#     4  10  20  38  65  87 128 173 212 266 329 385
#     4  10  22  39  61  93 125 164 214 269 321 390
#     4  10  22  39  60  93 129 170 218 271 321 393
#     4  10  20  39  61  87 119 168 211 258 323 382
#     4  10  20  38  64  86 121 166 209 261 328 377
#     4  10  20  39  63  84 126 170 206 264 327 382
#
# _framework density 23.718594
#
# number of rings (size 3 to 8) (size 9 to 14) (size 15 to 20)
#    0.000    2.000    3.333    0.000    0.000    2.000 
#    3.000    0.000    7.333    0.000    0.000    0.000 
#    0.000    0.000    0.000    0.000    0.000    0.000 
#
# Total GULP energy -133648.849009 kJ/mol
# GULP energy per Si atom -5568.702042 kJ/mol
# Density = 2.366461 g / cm^3
# Si number density = 23.718594 Si / 1000 Ang^3
#
#
#
# Elastic Constant Matrix: (Units=GPa)
#
#
# Indices 1 2 3 4 5 6 
#
# 1 85.9981 33.6730 28.2151 0.0000 -35.8332 0.0000
# 2 33.6730 185.5259 23.0304 0.0000 -22.8514 0.0000
# 3 28.2151 23.0304 75.9484 0.0000 -29.2260 0.0000
# 4 0.0000 0.0000 0.0000 -10.9376 0.0000 -33.9330
# 5 -35.8332 -22.8514 -29.2260 0.0000 44.9436 0.0000
# 6 0.0000 0.0000 0.0000 -33.9330 0.0000 36.3686
#
#
#
# Elastic Compliance Matrix: (Units=1/GPa)
#
#
# Indices 1 2 3 4 5 6 
#
# 1 0.017939 -0.001532 -0.001328 0.000000 0.012660 0.000000
# 2 -0.001532 0.005920 -0.000717 0.000000 0.001322 0.000000
# 3 -0.001328 -0.000717 0.017779 0.000000 0.010138 0.000000
# 4 0.000000 0.000000 0.000000 -0.023475 0.000000 -0.021903
# 5 0.012660 0.001322 0.010138 0.000000 0.039609 0.000000
# 6 0.000000 0.000000 0.000000 -0.021903 0.000000 0.007060
#
#
# Mechanical properties :
#
#
# Convention : Reuss Voigt Hill
#
# Bulk Modulus (GPa) = 28.99940 57.47882 43.23911
# Shear Modulus (GPa) = 59.89499 31.57852 45.73675
#
# Velocity S-wave (km/s) = 5.03062 3.65277 4.39601
# Velocity P-wave (km/s) = 6.78202 6.48665 6.63598
#
# Compressibility (1/GPa) = 0.03448347
#
# Stress axis : x y z
#
# Youngs Moduli (GPa) = 55.74537 168.91890 56.24668
#
# Poissons Ratio (x) = 0.25873 0.07470
# Poissons Ratio (y) = 0.08538 0.04034
# Poissons Ratio (z) = 0.07403 0.12116
#
# Static dielectric constant tensor:
#      x y z
#    x 2.051000 0.000000 0.071390 
#    y 0.000000 2.033870 0.000000 
#    z 0.071390 0.000000 1.938360 
# 
# From -- ./inp_files/130925.got.cif
#   From: 2010.05.17/outbox.cif.g08.bks.cpg/sg15_66_cif.got.tgz:130925.got - 2010.06.03 18:47:42.
