data_PCOD9274702
_publ_section_title
;
Structure prediction by ZEFSAII (Michael W. Deem and Ramdas Pophale) SiO2 
 PCOD9274702
Probable space group: C 2/C
;
_chemical_formula_sum "Si O2"
_cell_formula_units_Z 52
_cell_length_a 22.169299
_cell_length_b 11.356923
_cell_length_c 18.621385
_cell_angle_alpha 90.000000
_cell_angle_beta 31.156592
_cell_angle_gamma 90.000000
_cell_volume 2425.678688
_symmetry_space_group_name_H-M "C 2/C"
_symmetry_group_IT_number 15
_symmetry_cell_setting 'monoclinic'
loop_
_space_group_symop_operation_xyz
x,y,z
-x,y,1/2-z
-x,-y,-z
x,-y,1/2+z
1/2+x,1/2+y,z
1/2-x,1/2+y,1/2-z
1/2-x,1/2-y,-z
1/2+x,1/2-y,1/2+z
loop_
_atom_site_type_symbol
_atom_site_label
_atom_site_fract_x
_atom_site_fract_y
_atom_site_fract_z
Si Si1 0.092514 0.525099 0.250000
Si Si2 0.500000 0.208642 0.250000
Si Si3 0.236808 0.947754 0.207006
Si Si4 0.029521 0.313963 0.508691
Si Si5 0.492471 0.393679 0.133269
Si Si6 0.906139 0.354570 0.487358
Si Si7 0.171466 0.091560 0.939489
O O1 0.209849 0.453778 0.144541
O O2 0.097788 0.618186 0.179319
O O3 0.060981 0.609511 0.350760
O O4 0.981705 0.436256 0.356801
O O5 0.524152 0.296489 0.160318
O O6 0.344261 0.857796 0.097139
O O7 0.186325 0.932131 0.338674
O O8 0.142818 0.920749 0.241417
O O9 0.296788 0.072597 0.129836
O O10 0.024576 0.175611 0.527732
O O11 0.997068 0.338939 0.460336
O O12 0.565573 0.509351 0.071683
O O13 0.860201 0.226740 0.512361
#
# Coordination Sequence:
#
# PCOD9274702 Si02
#       7
#     8   4   8   8   8   8   8
#     4  10  22  45  64  93 126 182 221 255 329 385
#     4  10  26  52  68  84 134 174 230 276 298 402
#     4  11  22  38  63  98 140 170 207 274 336 389
#     4  10  20  38  64  94 136 171 213 265 335 388
#     4  11  26  40  65 103 125 174 230 267 323 377
#     4  11  22  39  63  98 136 171 212 265 339 396
#     4  12  24  36  68  99 135 167 213 280 331 386
#
# _framework density 21.4373
#
# number of rings (size 3 to 8) (size 9 to 14) (size 15 to 20)
#    0.000    1.231    4.615    1.385    8.615    0.615 
#    5.538    1.538    0.000    0.000    0.000    0.000 
#    0.000    0.000    0.000    0.000    0.000    0.000 
#
# Total GULP energy -145159.421564 kJ/mol
# GULP energy per Si atom -5583.054676 kJ/mol
# Density = 2.138851 g / cm^3
# Si number density = 21.437300 Si / 1000 Ang^3
#
#
#
# Elastic Constant Matrix: (Units=GPa)
#
#
# Indices 1 2 3 4 5 6 
#
# 1 64.0480 11.7347 26.5171 0.0000 -10.0350 0.0000
# 2 11.7347 111.0060 21.1186 0.0000 -12.0474 0.0000
# 3 26.5171 21.1186 54.0609 0.0000 -24.7424 0.0000
# 4 0.0000 0.0000 0.0000 12.4452 0.0000 -5.3188
# 5 -10.0350 -12.0474 -24.7424 0.0000 18.4339 0.0000
# 6 0.0000 0.0000 0.0000 -5.3188 0.0000 22.7141
#
#
#
# Elastic Compliance Matrix: (Units=1/GPa)
#
#
# Indices 1 2 3 4 5 6 
#
# 1 0.019850 -0.000405 -0.012325 0.000000 -0.006002 0.000000
# 2 -0.000405 0.009816 -0.002076 0.000000 0.003408 0.000000
# 3 -0.012325 -0.002076 0.056165 0.000000 0.067319 0.000000
# 4 0.000000 0.000000 0.000000 0.089288 0.000000 0.020908
# 5 -0.006002 0.003408 0.067319 0.000000 0.143566 0.000000
# 6 0.000000 0.000000 0.000000 0.020908 0.000000 0.048921
#
#
# Mechanical properties :
#
#
# Convention : Reuss Voigt Hill
#
# Bulk Modulus (GPa) = 17.78778 38.65060 28.21919
# Shear Modulus (GPa) = 12.02044 22.03496 17.02770
#
# Velocity S-wave (km/s) = 2.37053 3.20953 2.82139
# Velocity P-wave (km/s) = 3.97595 5.63946 4.87913
#
# Compressibility (1/GPa) = 0.05621836
#
# Stress axis : x y z
#
# Youngs Moduli (GPa) = 50.37790 101.87233 17.80472
#
# Poissons Ratio (x) = 0.04125 0.21945
# Poissons Ratio (y) = 0.02040 0.03696
# Poissons Ratio (z) = 0.62092 0.21150
#
# Static dielectric constant tensor:
#      x y z
#    x 1.832730 0.000000 0.038700 
#    y 0.000000 1.778650 0.000000 
#    z 0.038700 0.000000 1.792260 
# 
# From -- ./inp_files/252716.got.cif
#   From: 2010.05.17/outbox.cif.g08.bks.cpg/sg15_127_cif.got.tgz:252716.got - 2010.06.03 18:47:42.
