data_PCOD9274544
_publ_section_title
;
Structure prediction by ZEFSAII (Michael W. Deem and Ramdas Pophale) SiO2 
 PCOD9274544
Probable space group: C 2/C
;
_chemical_formula_sum "Si O2"
_cell_formula_units_Z 32
_cell_length_a 6.210892
_cell_length_b 21.452941
_cell_length_c 10.550484
_cell_angle_alpha 90.000000
_cell_angle_beta 111.987474
_cell_angle_gamma 90.000000
_cell_volume 1303.519126
_symmetry_space_group_name_H-M "C 2/C"
_symmetry_group_IT_number 15
_symmetry_cell_setting 'monoclinic'
loop_
_space_group_symop_operation_xyz
x,y,z
-x,y,1/2-z
-x,-y,-z
x,-y,1/2+z
1/2+x,1/2+y,z
1/2-x,1/2+y,1/2-z
1/2-x,1/2-y,-z
1/2+x,1/2-y,1/2+z
loop_
_atom_site_type_symbol
_atom_site_label
_atom_site_fract_x
_atom_site_fract_y
_atom_site_fract_z
Si Si1 0.085842 0.626098 0.396695
Si Si2 0.829900 0.654629 0.574500
Si Si3 0.484740 0.446344 0.391938
Si Si4 0.923832 0.774006 0.873965
O O1 0.292269 0.594475 0.519415
O O2 0.192810 0.692376 0.371585
O O3 0.000000 0.592668 0.250000
O O4 0.871099 0.628096 0.443671
O O5 0.742216 0.597933 0.640456
O O6 0.616222 0.703027 0.517569
O O7 0.058277 0.699098 0.636557
O O8 0.500000 0.467415 0.250000
O O9 0.500000 0.500000 0.500000
O O10 0.000000 0.795932 0.750000
#
# Coordination Sequence:
#
# PCOD9274544 Si02
#       4
#     8   8   8   8
#     4  11  23  43  73 106 141 192 236 290 369 435
#     4  10  23  42  66 101 144 185 237 289 358 432
#     4  11  29  50  73 102 142 191 250 310 357 423
#     4  10  20  38  64 103 148 185 224 287 355 442
#
# _framework density 24.548929000000001
#
# number of rings (size 3 to 8) (size 9 to 14) (size 15 to 20)
#    0.000    1.500    2.500    0.750    7.000    1.000 
#    0.000    0.000    0.000    0.000    0.000    0.000 
#    0.000    0.000    0.000    0.000    0.000    0.000 
#
# Total GULP energy -89260.435084 kJ/mol
# GULP energy per Si atom -5578.777193 kJ/mol
# Density = 2.449305 g / cm^3
# Si number density = 24.548929 Si / 1000 Ang^3
#
#
#
# Elastic Constant Matrix: (Units=GPa)
#
#
# Indices 1 2 3 4 5 6 
#
# 1 83.0774 37.7482 36.6746 0.0000 -15.4047 0.0000
# 2 37.7482 111.9386 42.5045 0.0000 -12.6029 0.0000
# 3 36.6746 42.5045 137.9324 0.0000 -18.3682 0.0000
# 4 0.0000 0.0000 0.0000 29.8196 0.0000 -5.1932
# 5 -15.4047 -12.6029 -18.3682 0.0000 58.5240 0.0000
# 6 0.0000 0.0000 0.0000 -5.1932 0.0000 15.9345
#
#
#
# Elastic Compliance Matrix: (Units=1/GPa)
#
#
# Indices 1 2 3 4 5 6 
#
# 1 0.015408 -0.003954 -0.002559 0.000000 0.002401 0.000000
# 2 -0.003954 0.011221 -0.002320 0.000000 0.000647 0.000000
# 3 -0.002559 -0.002320 0.008859 0.000000 0.001607 0.000000
# 4 0.000000 0.000000 0.000000 0.035553 0.000000 0.011587
# 5 0.002401 0.000647 0.001607 0.000000 0.018363 0.000000
# 6 0.000000 0.000000 0.000000 0.011587 0.000000 0.066533
#
#
# Mechanical properties :
#
#
# Convention : Reuss Voigt Hill
#
# Bulk Modulus (GPa) = 56.10882 62.97811 59.54347
# Shear Modulus (GPa) = 27.84832 35.25703 31.55268
#
# Velocity S-wave (km/s) = 3.37174 3.79383 3.58899
# Velocity P-wave (km/s) = 6.16958 6.70079 6.44067
#
# Compressibility (1/GPa) = 0.01782251
#
# Stress axis : x y z
#
# Youngs Moduli (GPa) = 64.89960 89.12035 112.87605
#
# Poissons Ratio (x) = 0.35240 0.28881
# Poissons Ratio (y) = 0.25662 0.26189
# Poissons Ratio (z) = 0.16606 0.20677
#
# Static dielectric constant tensor:
#      x y z
#    x 1.970570 0.000000 0.001440 
#    y 0.000000 1.989480 0.000000 
#    z 0.001440 0.000000 2.072640 
# 
# From -- ./inp_files/72745.got.cif
#   From: 2010.05.17/outbox.cif.g08.bks.cpg/sg15_37_cif.got.tgz:72745.got - 2010.06.03 18:47:42.
