data_PCOD9274602
_publ_section_title
;
Structure prediction by ZEFSAII (Michael W. Deem and Ramdas Pophale) SiO2 
 PCOD9274602
Probable space group: C 2/C
;
_chemical_formula_sum "Si O2"
_cell_formula_units_Z 52
_cell_length_a 7.584428
_cell_length_b 27.760141
_cell_length_c 10.650647
_cell_angle_alpha 90.000000
_cell_angle_beta 106.135228
_cell_angle_gamma 90.000000
_cell_volume 2154.105164
_symmetry_space_group_name_H-M "C 2/C"
_symmetry_group_IT_number 15
_symmetry_cell_setting 'monoclinic'
loop_
_space_group_symop_operation_xyz
x,y,z
-x,y,1/2-z
-x,-y,-z
x,-y,1/2+z
1/2+x,1/2+y,z
1/2-x,1/2+y,1/2-z
1/2-x,1/2-y,-z
1/2+x,1/2-y,1/2+z
loop_
_atom_site_type_symbol
_atom_site_label
_atom_site_fract_x
_atom_site_fract_y
_atom_site_fract_z
Si Si1 0.192121 0.946398 0.623370
Si Si2 0.345375 0.173766 0.397873
Si Si3 0.703821 0.047519 0.846305
Si Si4 0.546837 0.268335 0.480869
Si Si5 0.943998 0.424522 0.913352
Si Si6 0.500000 0.295161 0.750000
Si Si7 0.414041 0.630036 0.941378
O O1 0.300656 0.932362 0.772130
O O2 0.360843 0.949805 0.557965
O O3 0.041178 0.908334 0.545152
O O4 0.154637 0.003152 0.638101
O O5 0.417603 0.227327 0.398229
O O6 0.492231 0.132252 0.412428
O O7 0.241527 0.157454 0.504906
O O8 0.177408 0.171637 0.268359
O O9 0.500000 0.038229 0.750000
O O10 0.804966 0.096517 0.821187
O O11 0.657592 0.059735 0.981595
O O12 0.750000 0.250000 0.500000
O O13 0.494543 0.266796 0.619197
O O14 0.526151 0.322515 0.424468
#
# Coordination Sequence:
#
# PCOD9274602 Si02
#       7
#     8   8   8   8   8   4   8
#     4  11  21  38  68  93 120 165 220 281 316 385
#     4  10  21  40  62  96 124 167 208 263 325 381
#     4  11  23  41  62  89 133 173 208 267 336 397
#     4  11  23  42  67  95 130 173 219 270 325 390
#     4  10  21  38  65  93 124 164 220 263 328 388
#     4  10  20  38  64  88 132 166 212 264 316 380
#     4  10  22  41  64  96 129 165 222 267 333 394
#
# _framework density 24.139953999999999
#
# number of rings (size 3 to 8) (size 9 to 14) (size 15 to 20)
#    0.000    1.538    1.538    5.538    0.000    3.692 
#   12.462    0.769    6.769    0.000    0.000    0.000 
#    0.000    0.000    0.000    0.000    0.000    0.000 
#
# Total GULP energy -144912.729579 kJ/mol
# GULP energy per Si atom -5573.566522 kJ/mol
# Density = 2.408501 g / cm^3
# Si number density = 24.139954 Si / 1000 Ang^3
#
#
#
# Elastic Constant Matrix: (Units=GPa)
#
#
# Indices 1 2 3 4 5 6 
#
# 1 84.8344 39.6209 5.7621 0.0000 13.5293 0.0000
# 2 39.6209 208.2099 12.8573 0.0000 25.8718 0.0000
# 3 5.7621 12.8573 19.3921 0.0000 4.8947 0.0000
# 4 0.0000 0.0000 0.0000 15.5362 0.0000 -2.2673
# 5 13.5293 25.8718 4.8947 0.0000 31.3699 0.0000
# 6 0.0000 0.0000 0.0000 -2.2673 0.0000 16.1505
#
#
#
# Elastic Compliance Matrix: (Units=1/GPa)
#
#
# Indices 1 2 3 4 5 6 
#
# 1 0.013446 -0.001968 -0.001704 0.000000 -0.003910 0.000000
# 2 -0.001968 0.005761 -0.002342 0.000000 -0.003538 0.000000
# 3 -0.001704 -0.002342 0.055125 0.000000 -0.005934 0.000000
# 4 0.000000 0.000000 0.000000 0.065712 0.000000 0.009225
# 5 -0.003910 -0.003538 -0.005934 0.000000 0.037408 0.000000
# 6 0.000000 0.000000 0.000000 0.009225 0.000000 0.063213
#
#
# Mechanical properties :
#
#
# Convention : Reuss Voigt Hill
#
# Bulk Modulus (GPa) = 16.05021 47.65744 31.85382
# Shear Modulus (GPa) = 18.28421 29.55773 23.92097
#
# Velocity S-wave (km/s) = 2.75512 3.50298 3.15132
# Velocity P-wave (km/s) = 4.09685 6.01217 5.14443
#
# Compressibility (1/GPa) = 0.06230450
#
# Stress axis : x y z
#
# Youngs Moduli (GPa) = 74.37184 173.56643 18.14075
#
# Poissons Ratio (x) = 0.34150 0.03091
# Poissons Ratio (y) = 0.14633 0.04249
# Poissons Ratio (z) = 0.12671 0.40656
#
# Static dielectric constant tensor:
#      x y z
#    x 1.990430 0.000000 -0.005490 
#    y 0.000000 2.080800 0.000000 
#    z -0.005490 0.000000 1.960350 
# 
# From -- ./inp_files/80857.got.cif
#   From: 2010.05.17/outbox.cif.g08.bks.cpg/sg15_41_cif.got.tgz:80857.got - 2010.06.03 18:47:42.
