data_PCOD9274538
_publ_section_title
;
Structure prediction by ZEFSAII (Michael W. Deem and Ramdas Pophale) SiO2 
 PCOD9274538
Probable space group: C 2/C
;
_chemical_formula_sum "Si O2"
_cell_formula_units_Z 60
_cell_length_a 23.911854
_cell_length_b 13.185103
_cell_length_c 19.711768
_cell_angle_alpha 90.000000
_cell_angle_beta 157.393975
_cell_angle_gamma 90.000000
_cell_volume 2388.895490
_symmetry_space_group_name_H-M "C 2/C"
_symmetry_group_IT_number 15
_symmetry_cell_setting 'monoclinic'
loop_
_space_group_symop_operation_xyz
x,y,z
-x,y,1/2-z
-x,-y,-z
x,-y,1/2+z
1/2+x,1/2+y,z
1/2-x,1/2+y,1/2-z
1/2-x,1/2-y,-z
1/2+x,1/2-y,1/2+z
loop_
_atom_site_type_symbol
_atom_site_label
_atom_site_fract_x
_atom_site_fract_y
_atom_site_fract_z
Si Si1 0.000000 0.480170 0.750000
Si Si2 0.812255 0.521479 0.282064
Si Si3 0.594798 0.725962 0.424110
Si Si4 0.070505 0.811990 0.395905
Si Si5 0.130938 0.724759 0.222492
Si Si6 0.503274 0.515422 0.386764
Si Si7 0.285544 0.934670 0.390124
Si Si8 0.391223 0.120457 0.743088
O O1 0.103461 0.549192 0.817586
O O2 0.893801 0.426980 0.575729
O O3 0.867140 0.635479 0.329757
O O4 0.861742 0.473080 0.407717
O O5 0.145358 0.550882 0.733352
O O6 0.635164 0.518866 0.083789
O O7 0.500000 0.737223 0.250000
O O8 0.542028 0.623866 0.401316
O O9 0.545948 0.821621 0.414523
O O10 0.763861 0.705280 0.598294
O O11 0.014407 0.750719 0.399326
O O12 0.000000 0.769026 0.250000
O O13 0.243715 0.813266 0.585167
O O14 0.011301 0.925607 0.340172
O O15 0.195549 0.832526 0.272138
O O16 0.341481 0.513407 0.233463
#
# Coordination Sequence:
#
# PCOD9274538 Si02
#       8
#     4   8   8   8   8   8   8   8
#     4  12  28  46  70 110 154 194 248 310 372 434
#     4  10  24  49  71 105 149 190 246 313 368 441
#     4  11  21  40  68 105 148 193 248 303 373 442
#     4  10  20  38  64 101 139 185 237 301 358 431
#     4  10  24  42  67 103 140 191 243 291 374 436
#     4   9  21  41  72 103 138 190 254 308 369 428
#     4  11  25  46  75 108 148 196 246 308 371 445
#     4  11  26  43  70 108 146 197 245 307 374 441
#
# _framework density 25.116209999999999
#
# number of rings (size 3 to 8) (size 9 to 14) (size 15 to 20)
#    0.000    1.600    0.667    2.400    4.667    6.933 
#    2.400    1.333    0.000    0.000    0.000    0.000 
#    0.000    0.000    0.000    0.000    0.000    0.000 
#
# Total GULP energy -167896.440473 kJ/mol
# GULP energy per Si atom -5596.548016 kJ/mol
# Density = 2.505904 g / cm^3
# Si number density = 25.116210 Si / 1000 Ang^3
#
#
#
# Elastic Constant Matrix: (Units=GPa)
#
#
# Indices 1 2 3 4 5 6 
#
# 1 85.0927 50.3345 47.2451 0.0000 -16.0485 0.0000
# 2 50.3345 119.6217 10.6498 0.0000 -7.9713 0.0000
# 3 47.2451 10.6498 107.0544 0.0000 11.2123 0.0000
# 4 0.0000 0.0000 0.0000 34.8139 0.0000 11.0959
# 5 -16.0485 -7.9713 11.2123 0.0000 43.2959 0.0000
# 6 0.0000 0.0000 0.0000 11.0959 0.0000 34.6829
#
#
#
# Elastic Compliance Matrix: (Units=1/GPa)
#
#
# Indices 1 2 3 4 5 6 
#
# 1 0.025455 -0.008973 -0.011467 0.000000 0.010753 0.000000
# 2 -0.008973 0.011740 0.002995 0.000000 -0.001941 0.000000
# 3 -0.011467 0.002995 0.014895 0.000000 -0.007556 0.000000
# 4 0.000000 0.000000 0.000000 0.031986 0.000000 -0.010233
# 5 0.010753 -0.001941 -0.007556 0.000000 0.028682 0.000000
# 6 0.000000 0.000000 0.000000 -0.010233 0.000000 0.032106
#
#
# Mechanical properties :
#
#
# Convention : Reuss Voigt Hill
#
# Bulk Modulus (GPa) = 58.14194 58.69196 58.41695
# Shear Modulus (GPa) = 26.95612 36.12782 31.54197
#
# Velocity S-wave (km/s) = 3.27961 3.79677 3.54763
# Velocity P-wave (km/s) = 6.12704 6.52990 6.33167
#
# Compressibility (1/GPa) = 0.01719929
#
# Stress axis : x y z
#
# Youngs Moduli (GPa) = 39.28562 85.18246 67.13609
#
# Poissons Ratio (x) = 0.76437 0.76986
# Poissons Ratio (y) = 0.35252 -0.20111
# Poissons Ratio (z) = 0.45049 -0.25516
#
# Static dielectric constant tensor:
#      x y z
#    x 1.975860 0.000000 -0.006910 
#    y 0.000000 2.034080 0.000000 
#    z -0.006910 0.000000 2.006310 
# 
# From -- ./inp_files/257891.got.cif
#   From: 2010.05.17/outbox.cif.g08.bks.cpg/sg15_129_cif.got.tgz:257891.got - 2010.06.03 18:47:42.
