data_PCOD9274698
_publ_section_title
;
Structure prediction by ZEFSAII (Michael W. Deem and Ramdas Pophale) SiO2 
 PCOD9274698
Probable space group: C 2/C
;
_chemical_formula_sum "Si O2"
_cell_formula_units_Z 48
_cell_length_a 20.053668
_cell_length_b 11.559725
_cell_length_c 9.571338
_cell_angle_alpha 90.000000
_cell_angle_beta 108.867304
_cell_angle_gamma 90.000000
_cell_volume 2099.563773
_symmetry_space_group_name_H-M "C 2/C"
_symmetry_group_IT_number 15
_symmetry_cell_setting 'monoclinic'
loop_
_space_group_symop_operation_xyz
x,y,z
-x,y,1/2-z
-x,-y,-z
x,-y,1/2+z
1/2+x,1/2+y,z
1/2-x,1/2+y,1/2-z
1/2-x,1/2-y,-z
1/2+x,1/2-y,1/2+z
loop_
_atom_site_type_symbol
_atom_site_label
_atom_site_fract_x
_atom_site_fract_y
_atom_site_fract_z
Si Si1 0.856146 0.260200 0.014065
Si Si2 0.817904 0.098733 0.464286
Si Si3 0.447025 0.532616 0.088499
Si Si4 0.498651 0.116426 0.582777
Si Si5 0.762439 0.535052 0.351599
Si Si6 0.349126 0.817443 0.334903
O O1 0.885446 0.129034 0.019432
O O2 0.925532 0.323366 0.006478
O O3 0.842163 0.278803 0.169208
O O4 0.794286 0.336724 0.900901
O O5 0.896016 0.076916 0.577325
O O6 0.764380 0.032411 0.529709
O O7 0.678974 0.948123 0.171185
O O8 0.801923 0.045063 0.300205
O O9 0.500000 0.567379 0.250000
O O10 0.500000 0.500000 0.000000
O O11 0.500000 0.096243 0.750000
O O12 0.500000 0.000000 0.500000
O O13 0.567091 0.187899 0.585668
O O14 0.688184 0.734382 0.077977
#
# Coordination Sequence:
#
# PCOD9274698 Si02
#       6
#     8   8   8   8   8   8
#     4  11  23  44  74 101 145 191 238 298 366 432
#     4  12  27  45  72 105 147 189 243 302 366 448
#     4  12  26  51  77 105 140 192 252 303 366 431
#     4  10  20  38  64  94 130 179 229 290 345 409
#     4  12  25  44  70 109 149 191 240 293 372 447
#     4  11  23  45  69 103 145 192 242 296 363 431
#
# _framework density 22.861892999999998
#
# number of rings (size 3 to 8) (size 9 to 14) (size 15 to 20)
#    0.000    0.667    3.333    6.000    2.333    1.333 
#    3.000    1.667    0.000    0.000    0.000    0.000 
#    0.000    0.000    0.000    0.000    0.000    0.000 
#
# Total GULP energy -133893.804828 kJ/mol
# GULP energy per Si atom -5578.908534 kJ/mol
# Density = 2.280986 g / cm^3
# Si number density = 22.861893 Si / 1000 Ang^3
#
#
#
# Elastic Constant Matrix: (Units=GPa)
#
#
# Indices 1 2 3 4 5 6 
#
# 1 110.5072 30.4349 29.2631 0.0000 5.0215 0.0000
# 2 30.4349 103.8565 35.6443 0.0000 2.9705 0.0000
# 3 29.2631 35.6443 74.1221 0.0000 15.5380 0.0000
# 4 0.0000 0.0000 0.0000 18.5452 0.0000 6.0537
# 5 5.0215 2.9705 15.5380 0.0000 38.6393 0.0000
# 6 0.0000 0.0000 0.0000 6.0537 0.0000 58.5766
#
#
#
# Elastic Compliance Matrix: (Units=1/GPa)
#
#
# Indices 1 2 3 4 5 6 
#
# 1 0.010431 -0.001964 -0.003190 0.000000 0.000078 0.000000
# 2 -0.001964 0.011978 -0.005291 0.000000 0.001462 0.000000
# 3 -0.003190 -0.005291 0.018699 0.000000 -0.006698 0.000000
# 4 0.000000 0.000000 0.000000 0.055805 0.000000 -0.005767
# 5 0.000078 0.001462 -0.006698 0.000000 0.028451 0.000000
# 6 0.000000 0.000000 0.000000 -0.005767 0.000000 0.017668
#
#
# Mechanical properties :
#
#
# Convention : Reuss Voigt Hill
#
# Bulk Modulus (GPa) = 49.46119 53.24119 51.35119
# Shear Modulus (GPa) = 29.29737 36.02844 32.66290
#
# Velocity S-wave (km/s) = 3.58368 3.97409 3.78392
# Velocity P-wave (km/s) = 6.22940 6.66308 6.44988
#
# Compressibility (1/GPa) = 0.02021787
#
# Stress axis : x y z
#
# Youngs Moduli (GPa) = 95.86474 83.48295 53.47781
#
# Poissons Ratio (x) = 0.16398 0.17060
# Poissons Ratio (y) = 0.18830 0.28297
# Poissons Ratio (z) = 0.30581 0.44174
#
# Static dielectric constant tensor:
#      x y z
#    x 1.856520 0.000000 0.028770 
#    y 0.000000 2.015150 0.000000 
#    z 0.028770 0.000000 1.829230 
# 
# From -- ./inp_files/111786.got.cif
#   From: 2010.05.17/outbox.cif.g08.bks.cpg/sg15_56_cif.got.tgz:111786.got - 2010.06.03 18:47:42.
