data_PCOD9274711
_publ_section_title
;
Structure prediction by ZEFSAII (Michael W. Deem and Ramdas Pophale) SiO2 
 PCOD9274711
Probable space group: C 2/C
;
_chemical_formula_sum "Si O2"
_cell_formula_units_Z 44
_cell_length_a 7.458057
_cell_length_b 24.087275
_cell_length_c 11.668561
_cell_angle_alpha 90.000000
_cell_angle_beta 68.125102
_cell_angle_gamma 90.000000
_cell_volume 1945.263543
_symmetry_space_group_name_H-M "C 2/C"
_symmetry_group_IT_number 15
_symmetry_cell_setting 'monoclinic'
loop_
_space_group_symop_operation_xyz
x,y,z
-x,y,1/2-z
-x,-y,-z
x,-y,1/2+z
1/2+x,1/2+y,z
1/2-x,1/2+y,1/2-z
1/2-x,1/2-y,-z
1/2+x,1/2-y,1/2+z
loop_
_atom_site_type_symbol
_atom_site_label
_atom_site_fract_x
_atom_site_fract_y
_atom_site_fract_z
Si Si1 0.716111 0.096673 0.216853
Si Si2 0.769363 0.208300 0.339798
Si Si3 0.000000 0.992762 0.750000
Si Si4 0.242852 0.944511 0.024111
Si Si5 0.094392 0.440202 0.107166
Si Si6 0.804814 0.324408 0.376638
O O1 0.500000 0.077465 0.250000
O O2 0.704847 0.156260 0.279249
O O3 0.802414 0.096861 0.068566
O O4 0.828803 0.050167 0.261673
O O5 0.697872 0.272134 0.341217
O O6 0.705432 0.194051 0.486045
O O7 0.000000 0.210168 0.250000
O O8 0.059226 0.035008 0.637395
O O9 0.312924 0.003788 0.958931
O O10 0.419670 0.923288 0.061751
O O11 0.239278 0.389243 0.095403
O O12 0.000000 0.452826 0.250000
O O13 0.000000 0.328020 0.250000
#
# Coordination Sequence:
#
# PCOD9274711 Si02
#       6
#     8   8   4   8   8   8
#     4  12  24  40  66  98 136 179 230 286 342 411
#     4  10  20  39  65  97 127 174 234 280 337 412
#     4  12  24  40  60  98 140 182 222 280 350 422
#     4  11  22  37  60  98 138 173 224 281 338 411
#     4  10  20  38  64  95 133 180 222 273 348 419
#     4   9  19  36  65  95 125 174 230 271 339 413
#
# _framework density 22.619042
#
# number of rings (size 3 to 8) (size 9 to 14) (size 15 to 20)
#    0.000    1.455    0.909    6.545    0.000    0.000 
#    3.273    0.000    0.000   39.273    2.364    0.000 
#    0.000    0.000    0.000    0.000    0.000    0.000 
#
# Total GULP energy -122517.706370 kJ/mol
# GULP energy per Si atom -5568.986653 kJ/mol
# Density = 2.256756 g / cm^3
# Si number density = 22.619042 Si / 1000 Ang^3
#
#
#
# Elastic Constant Matrix: (Units=GPa)
#
#
# Indices 1 2 3 4 5 6 
#
# 1 72.9548 46.0127 12.4845 0.0000 2.2109 0.0000
# 2 46.0127 158.2121 56.4703 0.0000 12.7062 0.0000
# 3 12.4845 56.4703 135.8615 0.0000 8.5569 0.0000
# 4 0.0000 0.0000 0.0000 -44.9903 0.0000 -24.9803
# 5 2.2109 12.7062 8.5569 0.0000 25.5417 0.0000
# 6 0.0000 0.0000 0.0000 -24.9803 0.0000 -7.0849
#
#
#
# Elastic Compliance Matrix: (Units=1/GPa)
#
#
# Indices 1 2 3 4 5 6 
#
# 1 0.016845 -0.005167 0.000541 0.000000 0.000931 0.000000
# 2 -0.005167 0.009196 -0.003154 0.000000 -0.003071 0.000000
# 3 0.000541 -0.003154 0.008710 0.000000 -0.001396 0.000000
# 4 0.000000 0.000000 0.000000 0.023209 0.000000 -0.081832
# 5 0.000931 -0.003071 -0.001396 0.000000 0.041066 0.000000
# 6 0.000000 0.000000 0.000000 -0.081832 0.000000 0.147381
#
#
# Mechanical properties :
#
#
# Convention : Reuss Voigt Hill
#
# Bulk Modulus (GPa) = 52.10867 66.32930 59.21898
# Shear Modulus (GPa) = 18.63146 11.49737 15.06441
#
# Velocity S-wave (km/s) = 2.87314 2.25701 2.58351
# Velocity P-wave (km/s) = 5.83902 6.01501 5.92767
#
# Compressibility (1/GPa) = 0.01919066
#
# Stress axis : x y z
#
# Youngs Moduli (GPa) = 59.36440 108.74680 114.81654
#
# Poissons Ratio (x) = 0.56189 -0.06212
# Poissons Ratio (y) = 0.30673 0.36213
# Poissons Ratio (z) = -0.03212 0.34298
#
# Static dielectric constant tensor:
#      x y z
#    x 1.697550 0.000000 0.308120 
#    y 0.000000 1.869410 0.000000 
#    z 0.308120 0.000000 1.469230 
# 
# From -- ./inp_files/79061.got.cif
#   From: 2010.05.17/outbox.cif.g08.bks.cpg/sg15_40_cif.got.tgz:79061.got - 2010.06.03 18:47:42.
