data_PCOD9274184
_publ_section_title
;
Structure prediction by ZEFSAII (Michael W. Deem and Ramdas Pophale) SiO2 
 PCOD9274184
Probable space group: C 2/C
;
_chemical_formula_sum "Si O2"
_cell_formula_units_Z 48
_cell_length_a 17.462041
_cell_length_b 11.494398
_cell_length_c 12.251161
_cell_angle_alpha 90.000000
_cell_angle_beta 67.507465
_cell_angle_gamma 90.000000
_cell_volume 2271.942109
_symmetry_space_group_name_H-M "C 2/C"
_symmetry_group_IT_number 15
_symmetry_cell_setting 'monoclinic'
loop_
_space_group_symop_operation_xyz
x,y,z
-x,y,1/2-z
-x,-y,-z
x,-y,1/2+z
1/2+x,1/2+y,z
1/2-x,1/2+y,1/2-z
1/2-x,1/2-y,-z
1/2+x,1/2-y,1/2+z
loop_
_atom_site_type_symbol
_atom_site_label
_atom_site_fract_x
_atom_site_fract_y
_atom_site_fract_z
Si Si1 0.741825 0.286727 0.849642
Si Si2 0.500000 0.424539 0.750000
Si Si3 0.717578 0.108718 0.403791
Si Si4 0.131110 0.843758 0.521852
Si Si5 0.500000 0.811741 0.750000
Si Si6 0.115121 0.117816 0.789437
Si Si7 0.144265 0.378021 0.522238
O O1 0.747440 0.358784 0.735014
O O2 0.797347 0.168971 0.800147
O O3 0.785761 0.358035 0.922241
O O4 0.654670 0.236481 0.940086
O O5 0.545466 0.349806 0.633449
O O6 0.571857 0.509822 0.755226
O O7 0.794415 0.106621 0.445365
O O8 0.659327 0.214883 0.473036
O O9 0.664337 0.992434 0.443215
O O10 0.122334 0.910109 0.412636
O O11 0.555583 0.727398 0.795240
O O12 0.559595 0.881492 0.636398
#
# Coordination Sequence:
#
# PCOD9274184 Si02
#       7
#     8   4   8   8   4   8   8
#     4   9  20  38  60  84 111 154 204 234 275 350
#     4  11  20  33  60  82 108 155 196 245 296 336
#     4  10  22  38  56  84 121 151 187 242 295 346
#     4  10  22  36  52  83 117 147 189 240 297 353
#     4   9  20  37  60  86 112 151 196 233 282 352
#     4   9  19  38  55  79 114 147 196 246 283 336
#     4  10  20  38  62  85 115 156 196 238 284 343
#
# _framework density 21.127299000000001
#
# number of rings (size 3 to 8) (size 9 to 14) (size 15 to 20)
#    0.000    2.333    0.000    1.500    0.000    8.667 
#    0.000    7.500    0.000    0.000    0.000    0.000 
#    0.000    0.000    0.000    0.000    0.000    0.000 
#
# Total GULP energy -134004.716216 kJ/mol
# GULP energy per Si atom -5583.529842 kJ/mol
# Density = 2.107921 g / cm^3
# Si number density = 21.127299 Si / 1000 Ang^3
#
#
#
# Elastic Constant Matrix: (Units=GPa)
#
#
# Indices 1 2 3 4 5 6 
#
# 1 41.9333 16.7105 31.1526 0.0000 0.2287 0.0000
# 2 16.7105 64.5547 49.9934 0.0000 -14.8524 0.0000
# 3 31.1526 49.9934 150.4627 0.0000 -4.2949 0.0000
# 4 0.0000 0.0000 0.0000 23.0792 0.0000 -4.5583
# 5 0.2287 -14.8524 -4.2949 0.0000 39.7526 0.0000
# 6 0.0000 0.0000 0.0000 -4.5583 0.0000 -0.7322
#
#
#
# Elastic Compliance Matrix: (Units=1/GPa)
#
#
# Indices 1 2 3 4 5 6 
#
# 1 0.029065 -0.004513 -0.004585 0.000000 -0.002349 0.000000
# 2 -0.004513 0.023745 -0.006722 0.000000 0.008171 0.000000
# 3 -0.004585 -0.006722 0.009788 0.000000 -0.001428 0.000000
# 4 0.000000 0.000000 0.000000 0.019434 0.000000 -0.120987
# 5 -0.002349 0.008171 -0.001428 0.000000 0.028068 0.000000
# 6 0.000000 0.000000 0.000000 -0.120987 0.000000 -0.612576
#
#
# Mechanical properties :
#
#
# Convention : Reuss Voigt Hill
#
# Bulk Modulus (GPa) = 32.30239 50.29595 41.29917
# Shear Modulus (GPa) = -10.85737 23.02621 6.08442
#
# Velocity S-wave (km/s) = -2.26940 3.30491 1.69886
# Velocity P-wave (km/s) = 2.90787 6.19848 4.84132
#
# Compressibility (1/GPa) = 0.03095746
#
# Stress axis : x y z
#
# Youngs Moduli (GPa) = 34.40547 42.11484 102.16383
#
# Poissons Ratio (x) = 0.19007 0.46845
# Poissons Ratio (y) = 0.15528 0.68673
# Poissons Ratio (z) = 0.15776 0.28309
#
# Static dielectric constant tensor:
#      x y z
#    x 1.784990 0.000000 -0.015140 
#    y 0.000000 1.764080 0.000000 
#    z -0.015140 0.000000 1.770350 
# 
# From -- ./inp_files/104203.got.cif
#   From: 2010.05.17/outbox.cif.g08.bks.cpg/sg15_53_cif.got.tgz:104203.got - 2010.06.03 18:47:42.
