data_PCOD9274020
_publ_section_title
;
Structure prediction by ZEFSAII (Michael W. Deem and Ramdas Pophale) SiO2 
 PCOD9274020
Probable space group: C 2/C
;
_chemical_formula_sum "Si O2"
_cell_formula_units_Z 40
_cell_length_a 23.177058
_cell_length_b 5.244116
_cell_length_c 21.386771
_cell_angle_alpha 90.000000
_cell_angle_beta 140.146643
_cell_angle_gamma 90.000000
_cell_volume 1665.770582
_symmetry_space_group_name_H-M "C 2/C"
_symmetry_group_IT_number 15
_symmetry_cell_setting 'monoclinic'
loop_
_space_group_symop_operation_xyz
x,y,z
-x,y,1/2-z
-x,-y,-z
x,-y,1/2+z
1/2+x,1/2+y,z
1/2-x,1/2+y,1/2-z
1/2-x,1/2-y,-z
1/2+x,1/2-y,1/2+z
loop_
_atom_site_type_symbol
_atom_site_label
_atom_site_fract_x
_atom_site_fract_y
_atom_site_fract_z
Si Si1 0.497523 0.770138 0.138807
Si Si2 0.933539 0.231854 0.525864
Si Si3 0.145278 0.679946 0.868135
Si Si4 0.257770 0.324784 0.086065
Si Si5 0.724073 0.275536 0.693961
O O1 0.416063 0.775506 0.122118
O O2 0.583466 0.785862 0.254844
O O3 0.488624 0.515259 0.090909
O O4 0.487467 0.012057 0.084941
O O5 0.846664 0.246692 0.499838
O O6 0.880354 0.219538 0.415724
O O7 0.183967 0.395641 0.896457
O O8 0.219962 0.898478 0.921563
O O9 0.277428 0.317323 0.176708
O O10 0.755812 0.557705 0.738810
#
# Coordination Sequence:
#
# PCOD9274020 Si02
#       5
#     8   8   8   8   8
#     4  11  22  37  56  83 123 156 177 218 283 339
#     4  10  22  36  59  88 104 153 191 236 266 329
#     4  11  22  37  56  83 123 156 177 218 283 339
#     4  10  22  36  59  88 104 153 191 236 266 329
#     4  10  20  38  61  82 107 142 188 240 294 318
#
# _framework density 24.012909000000001
#
# number of rings (size 3 to 8) (size 9 to 14) (size 15 to 20)
#    1.200    0.400    0.000    6.000    0.000    8.000 
#    0.000    0.000    0.000   24.000    0.000    0.000 
#    0.000    0.000    0.000    0.000    0.000    0.000 
#
# Total GULP energy -111886.673144 kJ/mol
# GULP energy per Si atom -5594.333657 kJ/mol
# Density = 2.395825 g / cm^3
# Si number density = 24.012909 Si / 1000 Ang^3
#
#
#
# Elastic Constant Matrix: (Units=GPa)
#
#
# Indices 1 2 3 4 5 6 
#
# 1 59.3350 1.9815 -12.0792 -0.0025 0.6934 -0.0042
# 2 1.9815 168.6408 45.2176 -0.0034 1.6603 -0.0121
# 3 -12.0792 45.2176 126.9295 0.0003 -9.5166 0.0003
# 4 -0.0025 -0.0034 0.0003 35.9288 0.0015 -11.3797
# 5 0.6934 1.6603 -9.5166 0.0015 22.3307 -0.0001
# 6 -0.0042 -0.0121 0.0003 -11.3797 -0.0001 18.2638
#
#
#
# Elastic Compliance Matrix: (Units=1/GPa)
#
#
# Indices 1 2 3 4 5 6 
#
# 1 0.017266 -0.000723 0.001926 0.000003 0.000338 0.000005
# 2 -0.000723 0.006637 -0.002550 0.000003 -0.001558 0.000006
# 3 0.001926 -0.002550 0.009276 -0.000001 0.004083 -0.000002
# 4 0.000003 0.000003 -0.000001 0.034676 -0.000003 0.021606
# 5 0.000338 -0.001558 0.004083 -0.000003 0.046627 -0.000003
# 6 0.000005 0.000006 -0.000002 0.021606 -0.000003 0.068215
#
#
# Mechanical properties :
#
#
# Convention : Reuss Voigt Hill
#
# Bulk Modulus (GPa) = 32.80226 47.23835 40.02030
# Shear Modulus (GPa) = 25.56857 36.62368 31.09613
#
# Velocity S-wave (km/s) = 3.26664 3.90957 3.60248
# Velocity P-wave (km/s) = 5.28374 6.33202 5.83148
#
# Compressibility (1/GPa) = 0.03048570
#
# Stress axis : x y z
#
# Youngs Moduli (GPa) = 57.91832 150.66284 107.80249
#
# Poissons Ratio (x) = 0.10887 -0.20761
# Poissons Ratio (y) = 0.04185 0.27490
# Poissons Ratio (z) = -0.11154 0.38420
#
# Static dielectric constant tensor:
#      x y z
#    x 1.944030 0.000000 -0.041480 
#    y 0.000000 1.811020 0.000000 
#    z -0.041480 0.000000 1.965550 
# 
# From -- ./inp_files/10533.got.cif
#   From: 2010.05.17/outbox.cif.g08.bks.cpg/sg15_6_cif.got.tgz:10533.got - 2010.06.03 18:47:42.
