data_PCOD9274717
_publ_section_title
;
Structure prediction by ZEFSAII (Michael W. Deem and Ramdas Pophale) SiO2 
 PCOD9274717
Probable space group: C 2/C
;
_chemical_formula_sum "Si O2"
_cell_formula_units_Z 52
_cell_length_a 28.244521
_cell_length_b 9.734544
_cell_length_c 13.077909
_cell_angle_alpha 90.000000
_cell_angle_beta 145.502498
_cell_angle_gamma 90.000000
_cell_volume 2036.519689
_symmetry_space_group_name_H-M "C 2/C"
_symmetry_group_IT_number 15
_symmetry_cell_setting 'monoclinic'
loop_
_space_group_symop_operation_xyz
x,y,z
-x,y,1/2-z
-x,-y,-z
x,-y,1/2+z
1/2+x,1/2+y,z
1/2-x,1/2+y,1/2-z
1/2-x,1/2-y,-z
1/2+x,1/2-y,1/2+z
loop_
_atom_site_type_symbol
_atom_site_label
_atom_site_fract_x
_atom_site_fract_y
_atom_site_fract_z
Si Si1 0.110033 0.264264 0.663086
Si Si2 0.637402 0.035281 0.368756
Si Si3 0.342786 0.330929 0.860084
Si Si4 0.053500 0.266277 0.245673
Si Si5 0.000000 0.695574 0.250000
Si Si6 0.273513 0.391558 0.278173
Si Si7 0.408607 0.511305 0.285733
O O1 0.146813 0.403784 0.772521
O O2 0.012884 0.284700 0.464519
O O3 0.152042 0.200788 0.636747
O O4 0.121472 0.145224 0.769556
O O5 0.552072 0.100870 0.263911
O O6 0.710516 0.087320 0.570719
O O7 0.626735 0.873395 0.358629
O O8 0.302962 0.454806 0.856458
O O9 0.281179 0.201216 0.743985
O O10 0.356432 0.401352 0.774885
O O11 0.431060 0.284409 0.066152
O O12 0.000000 0.298377 0.250000
O O13 0.082740 0.108307 0.296338
O O14 0.500000 0.500000 0.500000
#
# Coordination Sequence:
#
# PCOD9274717 Si02
#       7
#     8   8   8   8   4   8   8
#     4  10  22  43  64  93 133 179 216 263 331 401
#     4  11  22  41  67  94 133 170 221 273 326 390
#     4  10  22  42  66  94 132 174 214 279 318 405
#     4  11  23  40  67 101 131 165 225 282 319 379
#     4  10  20  38  64  96 124 174 228 262 334 384
#     4  10  24  42  64  95 138 167 221 262 340 393
#     4   9  20  43  61  92 134 165 221 262 327 387
#
# _framework density 25.533759
#
# number of rings (size 3 to 8) (size 9 to 14) (size 15 to 20)
#    0.000    1.846    0.769    2.769    2.154    1.231 
#   30.462    3.077    0.000    0.000    0.000    0.000 
#    0.000    0.000    0.000    0.000    0.000    0.000 
#
# Total GULP energy -145591.530291 kJ/mol
# GULP energy per Si atom -5599.674242 kJ/mol
# Density = 2.547564 g / cm^3
# Si number density = 25.533759 Si / 1000 Ang^3
#
#
#
# Elastic Constant Matrix: (Units=GPa)
#
#
# Indices 1 2 3 4 5 6 
#
# 1 54.5783 25.4892 -0.9103 0.0000 7.8214 0.0000
# 2 25.4892 102.2453 15.4155 0.0000 -0.1875 0.0000
# 3 -0.9103 15.4155 66.3446 0.0000 10.4070 0.0000
# 4 0.0000 0.0000 0.0000 36.7053 0.0000 17.2664
# 5 7.8214 -0.1875 10.4070 0.0000 34.8804 0.0000
# 6 0.0000 0.0000 0.0000 17.2664 0.0000 46.6410
#
#
#
# Elastic Compliance Matrix: (Units=1/GPa)
#
#
# Indices 1 2 3 4 5 6 
#
# 1 0.021920 -0.005861 0.002558 0.000000 -0.005710 0.000000
# 2 -0.005861 0.011723 -0.003169 0.000000 0.002323 0.000000
# 3 0.002558 -0.003169 0.016719 0.000000 -0.005579 0.000000
# 4 0.000000 0.000000 0.000000 0.032989 0.000000 -0.012212
# 5 -0.005710 0.002323 -0.005579 0.000000 0.031627 0.000000
# 6 0.000000 0.000000 0.000000 -0.012212 0.000000 0.025961
#
#
# Mechanical properties :
#
#
# Convention : Reuss Voigt Hill
#
# Bulk Modulus (GPa) = 26.72327 33.68413 30.20370
# Shear Modulus (GPa) = 30.05593 35.85693 32.95643
#
# Velocity S-wave (km/s) = 3.43462 3.75146 3.59653
# Velocity P-wave (km/s) = 5.12029 5.65555 5.39456
#
# Compressibility (1/GPa) = 0.03742056
#
# Stress axis : x y z
#
# Youngs Moduli (GPa) = 45.61962 85.29890 59.81093
#
# Poissons Ratio (x) = 0.49992 -0.15301
# Poissons Ratio (y) = 0.26737 0.18953
# Poissons Ratio (z) = -0.11671 0.27029
#
# Static dielectric constant tensor:
#      x y z
#    x 2.055230 0.000000 -0.007510 
#    y 0.000000 1.993700 0.000000 
#    z -0.007510 0.000000 1.981030 
# 
# From -- ./inp_files/181252.got.cif
#   From: 2010.05.17/outbox.cif.g08.bks.cpg/sg15_91_cif.got.tgz:181252.got - 2010.06.03 18:47:42.
