data_PCOD9274093
_publ_section_title
;
Structure prediction by ZEFSAII (Michael W. Deem and Ramdas Pophale) SiO2 
 PCOD9274093
Probable space group: C 2/C
;
_chemical_formula_sum "Si O2"
_cell_formula_units_Z 64
_cell_length_a 25.330936
_cell_length_b 15.358787
_cell_length_c 14.573482
_cell_angle_alpha 90.000000
_cell_angle_beta 26.027942
_cell_angle_gamma 90.000000
_cell_volume 2487.983092
_symmetry_space_group_name_H-M "C 2/C"
_symmetry_group_IT_number 15
_symmetry_cell_setting 'monoclinic'
loop_
_space_group_symop_operation_xyz
x,y,z
-x,y,1/2-z
-x,-y,-z
x,-y,1/2+z
1/2+x,1/2+y,z
1/2-x,1/2+y,1/2-z
1/2-x,1/2-y,-z
1/2+x,1/2-y,1/2+z
loop_
_atom_site_type_symbol
_atom_site_label
_atom_site_fract_x
_atom_site_fract_y
_atom_site_fract_z
Si Si1 0.116845 0.765556 0.029105
Si Si2 0.283721 0.827748 0.515642
Si Si3 0.032590 0.042182 0.851931
Si Si4 0.623010 0.081583 0.104425
Si Si5 0.467357 0.286415 0.527250
Si Si6 0.210097 0.485743 0.121172
Si Si7 0.134607 0.256635 0.924961
Si Si8 0.201215 0.050415 0.827624
O O1 0.131248 0.683914 0.072552
O O2 0.080123 0.730914 0.984514
O O3 0.000000 0.816320 0.250000
O O4 0.249942 0.801212 0.805763
O O5 0.250000 0.750000 0.500000
O O6 0.328979 0.904887 0.381536
O O7 0.365189 0.798202 0.474087
O O8 0.150145 0.843814 0.764645
O O9 0.056077 0.142725 0.843318
O O10 0.149649 0.003275 0.621521
O O11 0.000000 0.000000 0.000000
O O12 0.911617 0.014668 0.986749
O O13 0.500000 0.050708 0.250000
O O14 0.730663 0.040158 0.875701
O O15 0.635834 0.063088 0.191366
O O16 0.524013 0.241252 0.527004
O O17 0.206721 0.467364 0.233391
O O18 0.158377 0.151925 0.900425
#
# Coordination Sequence:
#
# PCOD9274093 Si02
#       8
#     8   8   8   8   8   8   8   8
#     4   9  21  40  62  86 122 164 214 260 308 373
#     4  11  22  39  60  93 131 162 207 262 315 389
#     4  12  20  38  67  96 130 161 206 270 334 386
#     4  10  22  44  63  85 124 174 218 261 307 380
#     4  11  22  39  65  92 128 167 207 267 322 378
#     4  12  23  40  66  96 130 169 210 270 326 381
#     4  10  20  38  61  89 124 166 204 254 323 382
#     4  11  21  38  65  95 124 164 212 261 328 389
#
# _framework density 25.723648000000001
#
# number of rings (size 3 to 8) (size 9 to 14) (size 15 to 20)
#    0.000    1.250    5.000    1.125    0.000    2.500 
#    2.250    7.500    0.000    0.000    0.000    0.000 
#    0.000    0.000    0.000    0.000    0.000    0.000 
#
# Total GULP energy -178869.260167 kJ/mol
# GULP energy per Si atom -5589.664380 kJ/mol
# Density = 2.566510 g / cm^3
# Si number density = 25.723648 Si / 1000 Ang^3
#
#
#
# Elastic Constant Matrix: (Units=GPa)
#
#
# Indices 1 2 3 4 5 6 
#
# 1 160.9263 11.6013 -2.1862 0.0000 -8.0935 0.0000
# 2 11.6013 58.0463 -0.1849 0.0000 0.9454 0.0000
# 3 -2.1862 -0.1849 74.0562 0.0000 -21.8484 0.0000
# 4 0.0000 0.0000 0.0000 22.3637 0.0000 -6.6257
# 5 -8.0935 0.9454 -21.8484 0.0000 34.2547 0.0000
# 6 0.0000 0.0000 0.0000 -6.6257 0.0000 40.6982
#
#
#
# Elastic Compliance Matrix: (Units=1/GPa)
#
#
# Indices 1 2 3 4 5 6 
#
# 1 0.006423 -0.001315 0.000794 0.000000 0.002061 0.000000
# 2 -0.001315 0.017505 -0.000282 0.000000 -0.000974 0.000000
# 3 0.000794 -0.000282 0.016732 0.000000 0.010868 0.000000
# 4 0.000000 0.000000 0.000000 0.046981 0.000000 0.007649
# 5 0.002061 -0.000974 0.010868 0.000000 0.036638 0.000000
# 6 0.000000 0.000000 0.000000 0.007649 0.000000 0.025816
#
#
# Mechanical properties :
#
#
# Convention : Reuss Voigt Hill
#
# Bulk Modulus (GPa) = 25.60504 34.60991 30.10747
# Shear Modulus (GPa) = 30.35435 38.38324 34.36879
#
# Velocity S-wave (km/s) = 3.43886 3.86701 3.65921
# Velocity P-wave (km/s) = 5.07378 5.78118 5.43899
#
# Compressibility (1/GPa) = 0.03905482
#
# Stress axis : x y z
#
# Youngs Moduli (GPa) = 155.68491 57.12534 59.76498
#
# Poissons Ratio (x) = 0.07511 -0.04747
# Poissons Ratio (y) = 0.20469 0.01688
# Poissons Ratio (z) = -0.12365 0.01613
#
# Static dielectric constant tensor:
#      x y z
#    x 2.051090 0.000000 0.025500 
#    y 0.000000 2.092790 0.000000 
#    z 0.025500 0.000000 2.194300 
# 
# From -- ./inp_files/174221.got.cif
#   From: 2010.05.17/outbox.cif.g08.bks.cpg/sg15_88_cif.got.tgz:174221.got - 2010.06.03 18:47:42.
