data_PCOD9274686
_publ_section_title
;
Structure prediction by ZEFSAII (Michael W. Deem and Ramdas Pophale) SiO2 
 PCOD9274686
Probable space group: C 2/C
;
_chemical_formula_sum "Si O2"
_cell_formula_units_Z 64
_cell_length_a 26.283277
_cell_length_b 14.907262
_cell_length_c 11.951881
_cell_angle_alpha 90.000000
_cell_angle_beta 137.933040
_cell_angle_gamma 90.000000
_cell_volume 3137.527777
_symmetry_space_group_name_H-M "C 2/C"
_symmetry_group_IT_number 15
_symmetry_cell_setting 'monoclinic'
loop_
_space_group_symop_operation_xyz
x,y,z
-x,y,1/2-z
-x,-y,-z
x,-y,1/2+z
1/2+x,1/2+y,z
1/2-x,1/2+y,1/2-z
1/2-x,1/2-y,-z
1/2+x,1/2-y,1/2+z
loop_
_atom_site_type_symbol
_atom_site_label
_atom_site_fract_x
_atom_site_fract_y
_atom_site_fract_z
Si Si1 0.314070 0.165282 0.299290
Si Si2 0.896084 0.178879 0.820869
Si Si3 0.587799 0.119358 0.641436
Si Si4 0.840447 0.920228 0.012618
Si Si5 0.680164 0.775578 0.461726
Si Si6 0.590064 0.613391 0.404807
Si Si7 0.549497 0.049166 0.938949
Si Si8 0.451747 0.288561 0.061216
O O1 0.350741 0.226799 0.262427
O O2 0.247766 0.099109 0.154801
O O3 0.283374 0.220022 0.354630
O O4 0.384797 0.119250 0.477584
O O5 0.856716 0.121270 0.660712
O O6 0.983354 0.184486 0.922247
O O7 0.893505 0.136854 0.939306
O O8 0.644342 0.140035 0.835677
O O9 0.506755 0.100757 0.568427
O O10 0.589142 0.204795 0.562404
O O11 0.592270 0.031792 0.571093
O O12 0.894482 0.865538 0.012282
O O13 0.864834 0.023377 0.051430
O O14 0.750000 0.750000 0.500000
O O15 0.616601 0.697410 0.371910
O O16 0.500000 0.598512 0.250000
O O17 0.500000 0.021993 0.750000
O O18 0.500000 0.260162 0.250000
#
# Coordination Sequence:
#
# PCOD9274686 Si02
#       8
#     8   8   8   8   8   8   8   8
#     4  11  23  43  65  92 134 175 219 277 337 406
#     4  10  22  42  68  92 129 180 222 268 337 404
#     4  11  22  39  66  94 128 169 219 278 329 396
#     4  11  25  42  63 101 137 174 226 282 337 398
#     4  11  25  42  68  99 133 174 220 280 346 394
#     4  11  25  43  71 100 132 179 229 275 332 408
#     4  11  23  41  66  97 127 172 231 272 331 403
#     4  10  20  38  64  93 132 170 219 273 329 399
#
# _framework density 20.398226000000001
#
# number of rings (size 3 to 8) (size 9 to 14) (size 15 to 20)
#    0.000    1.250    2.500    3.375    3.500    4.000 
#    0.000    0.000    0.000    0.000    0.000    0.000 
#    0.000    0.000    0.000    0.000    0.000    0.000 
#
# Total GULP energy -178428.045697 kJ/mol
# GULP energy per Si atom -5575.876428 kJ/mol
# Density = 2.035180 g / cm^3
# Si number density = 20.398226 Si / 1000 Ang^3
#
#
#
# Elastic Constant Matrix: (Units=GPa)
#
#
# Indices 1 2 3 4 5 6 
#
# 1 81.1882 16.3239 15.7670 0.0000 -13.6526 0.0000
# 2 16.3239 55.3329 28.0943 0.0000 -4.4325 0.0000
# 3 15.7670 28.0943 55.4146 0.0000 1.0413 0.0000
# 4 0.0000 0.0000 0.0000 31.6287 0.0000 -6.2244
# 5 -13.6526 -4.4325 1.0413 0.0000 29.2069 0.0000
# 6 0.0000 0.0000 0.0000 -6.2244 0.0000 25.4299
#
#
#
# Elastic Compliance Matrix: (Units=1/GPa)
#
#
# Indices 1 2 3 4 5 6 
#
# 1 0.014461 -0.002141 -0.003152 0.000000 0.006547 0.000000
# 2 -0.002141 0.025164 -0.012210 0.000000 0.003253 0.000000
# 3 -0.003152 -0.012210 0.025212 0.000000 -0.004225 0.000000
# 4 0.000000 0.000000 0.000000 0.033217 0.000000 0.008130
# 5 0.006547 0.003253 -0.004225 0.000000 0.037943 0.000000
# 6 0.000000 0.000000 0.000000 0.008130 0.000000 0.041314
#
#
# Mechanical properties :
#
#
# Convention : Reuss Voigt Hill
#
# Bulk Modulus (GPa) = 33.52207 34.70068 34.11138
# Shear Modulus (GPa) = 22.49618 26.03645 24.26632
#
# Velocity S-wave (km/s) = 3.32452 3.57656 3.45284
# Velocity P-wave (km/s) = 5.58624 5.83989 5.71447
#
# Compressibility (1/GPa) = 0.02983110
#
# Stress axis : x y z
#
# Youngs Moduli (GPa) = 69.15325 39.73933 39.66357
#
# Poissons Ratio (x) = 0.08510 0.12501
# Poissons Ratio (y) = 0.14808 0.48428
# Poissons Ratio (z) = 0.21796 0.48520
#
# Static dielectric constant tensor:
#      x y z
#    x 1.779600 0.000000 -0.011660 
#    y 0.000000 1.767900 0.000000 
#    z -0.011660 0.000000 1.739130 
# 
# From -- ./inp_files/123535.got.cif
#   From: 2010.05.17/outbox.cif.g08.bks.cpg/sg15_62_cif.got.tgz:123535.got - 2010.06.03 18:47:42.
