data_PCOD9274419
_publ_section_title
;
Structure prediction by ZEFSAII (Michael W. Deem and Ramdas Pophale) SiO2 
 PCOD9274419
Probable space group: C 2/C
;
_chemical_formula_sum "Si O2"
_cell_formula_units_Z 48
_cell_length_a 13.619899
_cell_length_b 13.444795
_cell_length_c 14.795749
_cell_angle_alpha 90.000000
_cell_angle_beta 103.292262
_cell_angle_gamma 90.000000
_cell_volume 2636.765816
_symmetry_space_group_name_H-M "C 2/C"
_symmetry_group_IT_number 15
_symmetry_cell_setting 'monoclinic'
loop_
_space_group_symop_operation_xyz
x,y,z
-x,y,1/2-z
-x,-y,-z
x,-y,1/2+z
1/2+x,1/2+y,z
1/2-x,1/2+y,1/2-z
1/2-x,1/2-y,-z
1/2+x,1/2-y,1/2+z
loop_
_atom_site_type_symbol
_atom_site_label
_atom_site_fract_x
_atom_site_fract_y
_atom_site_fract_z
Si Si1 0.000000 0.521464 0.250000
Si Si2 0.742776 0.653141 0.436733
Si Si3 0.243257 0.651386 0.441754
Si Si4 0.000000 0.860393 0.250000
Si Si5 0.412182 0.989995 0.052612
Si Si6 0.839088 0.311121 0.764494
Si Si7 0.917064 0.013192 0.560814
O O1 0.952887 0.458108 0.159162
O O2 0.915491 0.594499 0.275073
O O3 0.750000 0.750000 0.500000
O O4 0.827746 0.580149 0.494381
O O5 0.777283 0.684011 0.343778
O O6 0.638572 0.589926 0.421523
O O7 0.250000 0.750000 0.500000
O O8 0.137996 0.596912 0.440544
O O9 0.237944 0.676666 0.335137
O O10 0.331502 0.580118 0.494443
O O11 0.090915 0.786788 0.236083
O O12 0.038746 0.928244 0.342148
O O13 0.500000 0.000000 0.000000
O O14 0.000000 0.000000 0.500000
#
# Coordination Sequence:
#
# PCOD9274419 Si02
#       7
#     4   8   8   4   8   8   8
#     4   9  18  36  63  90 114 158 197 246 305 362
#     4  11  24  42  60  90 127 165 202 260 312 362
#     4  10  21  40  60  94 121 162 209 252 303 370
#     4  11  22  40  67  92 118 170 207 256 321 374
#     4  10  20  38  63  88 121 155 204 257 302 363
#     4  10  20  38  66  87 122 160 205 251 310 371
#     4  11  25  41  63  92 130 168 210 258 309 376
#
# _framework density 18.204118999999999
#
# number of rings (size 3 to 8) (size 9 to 14) (size 15 to 20)
#    0.000    1.667    3.333    1.000    2.333    1.333 
#    6.000    0.833    0.000    0.000    0.000    0.000 
#    0.000    0.000    0.000    0.000    0.000    0.000 
#
# Total GULP energy -133876.464419 kJ/mol
# GULP energy per Si atom -5578.186017 kJ/mol
# Density = 1.816269 g / cm^3
# Si number density = 18.204119 Si / 1000 Ang^3
#
#
#
# Elastic Constant Matrix: (Units=GPa)
#
#
# Indices 1 2 3 4 5 6 
#
# 1 100.9070 39.0556 69.3980 0.0000 -20.4089 0.0000
# 2 39.0556 86.0166 60.9596 0.0000 -14.0689 0.0000
# 3 69.3980 60.9596 192.9294 0.0000 -12.4297 0.0000
# 4 0.0000 0.0000 0.0000 33.0728 0.0000 2.1233
# 5 -20.4089 -14.0689 -12.4297 0.0000 40.8098 0.0000
# 6 0.0000 0.0000 0.0000 2.1233 0.0000 13.4662
#
#
#
# Elastic Compliance Matrix: (Units=1/GPa)
#
#
# Indices 1 2 3 4 5 6 
#
# 1 0.014942 -0.003047 -0.004078 0.000000 0.005180 0.000000
# 2 -0.003047 0.016201 -0.003837 0.000000 0.002893 0.000000
# 3 -0.004078 -0.003837 0.007799 0.000000 -0.000987 0.000000
# 4 0.000000 0.000000 0.000000 0.030546 0.000000 -0.004816
# 5 0.005180 0.002893 -0.000987 0.000000 0.027791 0.000000
# 6 0.000000 0.000000 0.000000 -0.004816 0.000000 0.075019
#
#
# Mechanical properties :
#
#
# Convention : Reuss Voigt Hill
#
# Bulk Modulus (GPa) = 58.75989 79.85326 69.30658
# Shear Modulus (GPa) = 25.01317 31.49909 28.25613
#
# Velocity S-wave (km/s) = 3.71082 4.16423 3.94405
# Velocity P-wave (km/s) = 7.12101 8.19035 7.67433
#
# Compressibility (1/GPa) = 0.01701841
#
# Stress axis : x y z
#
# Youngs Moduli (GPa) = 66.92632 61.72324 128.22263
#
# Poissons Ratio (x) = 0.18806 0.52292
# Poissons Ratio (y) = 0.20391 0.49196
# Poissons Ratio (z) = 0.27294 0.23682
#
# Static dielectric constant tensor:
#      x y z
#    x 1.667870 0.000000 0.035930 
#    y 0.000000 1.609800 0.000000 
#    z 0.035930 0.000000 1.637290 
# 
# From -- ./inp_files/96496.got.cif
#   From: 2010.05.17/outbox.cif.g08.bks.cpg/sg15_49_cif.got.tgz:96496.got - 2010.06.03 18:47:42.
