data_PCOD9274613
_publ_section_title
;
Structure prediction by ZEFSAII (Michael W. Deem and Ramdas Pophale) SiO2 
 PCOD9274613
Probable space group: C 2/C
;
_chemical_formula_sum "Si O2"
_cell_formula_units_Z 48
_cell_length_a 9.591327
_cell_length_b 15.174441
_cell_length_c 22.277708
_cell_angle_alpha 90.000000
_cell_angle_beta 39.214952
_cell_angle_gamma 90.000000
_cell_volume 2049.925343
_symmetry_space_group_name_H-M "C 2/C"
_symmetry_group_IT_number 15
_symmetry_cell_setting 'monoclinic'
loop_
_space_group_symop_operation_xyz
x,y,z
-x,y,1/2-z
-x,-y,-z
x,-y,1/2+z
1/2+x,1/2+y,z
1/2-x,1/2+y,1/2-z
1/2-x,1/2-y,-z
1/2+x,1/2-y,1/2+z
loop_
_atom_site_type_symbol
_atom_site_label
_atom_site_fract_x
_atom_site_fract_y
_atom_site_fract_z
Si Si1 0.242913 0.335232 0.831954
Si Si2 0.926372 0.757381 0.994429
Si Si3 0.113317 0.005690 0.369034
Si Si4 0.781066 0.442351 0.430832
Si Si5 0.270059 0.544760 0.795880
Si Si6 0.221161 0.691382 0.207923
O O1 0.500000 0.309984 0.750000
O O2 0.118087 0.304352 0.933696
O O3 0.236221 0.441734 0.827172
O O4 0.169751 0.287768 0.794277
O O5 0.869691 0.857151 0.034331
O O6 0.750000 0.750000 0.000000
O O7 0.156171 0.748324 0.882169
O O8 0.172730 0.946773 0.293417
O O9 0.124562 0.105294 0.340287
O O10 0.866076 0.997737 0.476143
O O11 0.283650 0.992702 0.366713
O O12 0.016527 0.421065 0.381288
O O13 0.500000 0.575771 0.750000
O O14 0.000000 0.664507 0.250000
#
# Coordination Sequence:
#
# PCOD9274613 Si02
#       6
#     8   8   8   8   8   8
#     4  10  20  38  64  89 124 175 211 245 322 395
#     4  11  23  41  63  90 126 174 212 249 316 390
#     4   9  19  38  61  92 118 158 211 253 319 374
#     4  10  21  38  66  88 120 163 209 266 305 380
#     4  10  21  37  61  94 124 160 208 268 317 365
#     4  10  20  38  65  91 124 160 212 265 314 375
#
# _framework density 23.415486000000001
#
# number of rings (size 3 to 8) (size 9 to 14) (size 15 to 20)
#    0.000    2.000    1.667    2.500    2.333    2.667 
#    0.000    0.833    0.000    0.000    0.000    0.000 
#    0.000    0.000    0.000    0.000    0.000    0.000 
#
# Total GULP energy -133764.804581 kJ/mol
# GULP energy per Si atom -5573.533524 kJ/mol
# Density = 2.336219 g / cm^3
# Si number density = 23.415486 Si / 1000 Ang^3
#
#
#
# Elastic Constant Matrix: (Units=GPa)
#
#
# Indices 1 2 3 4 5 6 
#
# 1 106.1936 7.6657 54.9344 -0.0016 3.5516 0.0002
# 2 7.6657 49.0936 6.4415 0.0005 5.3202 0.0005
# 3 54.9344 6.4415 88.1489 0.0001 12.6738 0.0018
# 4 -0.0016 0.0005 0.0001 18.4948 0.0003 7.4906
# 5 3.5516 5.3202 12.6738 0.0003 48.2662 -0.0003
# 6 0.0002 0.0005 0.0018 7.4906 -0.0003 14.7520
#
#
#
# Elastic Compliance Matrix: (Units=1/GPa)
#
#
# Indices 1 2 3 4 5 6 
#
# 1 0.014043 -0.001183 -0.008870 0.000001 0.001426 0.000000
# 2 -0.001183 0.020844 -0.000486 -0.000001 -0.002083 0.000000
# 3 -0.008870 -0.000486 0.017466 0.000000 -0.003880 -0.000002
# 4 0.000001 -0.000001 0.000000 0.068067 -0.000001 -0.034562
# 5 0.001426 -0.002083 -0.003880 -0.000001 0.021862 0.000001
# 6 0.000000 0.000000 -0.000002 -0.034562 0.000001 0.085337
#
#
# Mechanical properties :
#
#
# Convention : Reuss Voigt Hill
#
# Bulk Modulus (GPa) = 31.97683 42.39104 37.18394
# Shear Modulus (GPa) = 19.29587 27.92891 23.61239
#
# Velocity S-wave (km/s) = 2.87377 3.45737 3.17899
# Velocity P-wave (km/s) = 4.96964 5.83790 5.42118
#
# Compressibility (1/GPa) = 0.03127265
#
# Stress axis : x y z
#
# Youngs Moduli (GPa) = 71.20932 47.97647 57.25495
#
# Poissons Ratio (x) = 0.05678 0.50787
# Poissons Ratio (y) = 0.08427 0.02784
# Poissons Ratio (z) = 0.63164 0.02333
#
# Static dielectric constant tensor:
#      x y z
#    x 1.714100 0.000000 0.035800 
#    y 0.000000 2.047740 0.000000 
#    z 0.035800 0.000000 1.932610 
# 
# From -- ./inp_files/233710.got.cif
#   From: 2010.05.17/outbox.cif.g08.bks.cpg/sg15_117_cif.got.tgz:233710.got - 2010.06.03 18:47:42.
