data_PCOD9274129
_publ_section_title
;
Structure prediction by ZEFSAII (Michael W. Deem and Ramdas Pophale) SiO2 
 PCOD9274129
Probable space group: C 2/C
;
_chemical_formula_sum "Si O2"
_cell_formula_units_Z 40
_cell_length_a 22.326043
_cell_length_b 8.585647
_cell_length_c 25.579955
_cell_angle_alpha 90.000000
_cell_angle_beta 21.004484
_cell_angle_gamma 90.000000
_cell_volume 1757.528009
_symmetry_space_group_name_H-M "C 2/C"
_symmetry_group_IT_number 15
_symmetry_cell_setting 'monoclinic'
loop_
_space_group_symop_operation_xyz
x,y,z
-x,y,1/2-z
-x,-y,-z
x,-y,1/2+z
1/2+x,1/2+y,z
1/2-x,1/2+y,1/2-z
1/2-x,1/2-y,-z
1/2+x,1/2-y,1/2+z
loop_
_atom_site_type_symbol
_atom_site_label
_atom_site_fract_x
_atom_site_fract_y
_atom_site_fract_z
Si Si1 0.145736 0.446225 0.171542
Si Si2 0.690628 0.716976 0.394868
Si Si3 0.501921 0.993439 0.435653
Si Si4 0.354487 0.559493 0.677148
Si Si5 0.516437 0.293100 0.614328
O O1 0.201018 0.599834 0.158676
O O2 0.000000 0.484366 0.250000
O O3 0.072648 0.309424 0.268649
O O4 0.315439 0.382801 0.006297
O O5 0.609711 0.863509 0.492912
O O6 0.521420 0.627896 0.515383
O O7 0.786756 0.802550 0.269884
O O8 0.500000 0.000000 0.500000
O O9 0.701998 0.982716 0.263175
O O10 0.430726 0.834412 0.471781
O O11 0.401220 0.416952 0.677374
#
# Coordination Sequence:
#
# PCOD9274129 Si02
#       5
#     8   8   8   8   8
#     4  11  24  43  64  90 123 168 217 268 313 356
#     4  10  21  38  60  89 124 159 207 251 302 371
#     4  10  20  38  61  92 126 160 194 245 311 376
#     4  10  21  38  62  95 129 163 197 250 315 379
#     4  11  23  41  66  94 127 164 213 258 309 382
#
# _framework density 22.759238
#
# number of rings (size 3 to 8) (size 9 to 14) (size 15 to 20)
#    0.000    1.600    0.000    5.400    0.000    3.200 
#    0.000   25.000    0.000    0.000    0.000    0.000 
#    0.000    0.000    0.000    0.000    0.000    0.000 
#
# Total GULP energy -111831.378823 kJ/mol
# GULP energy per Si atom -5591.568941 kJ/mol
# Density = 2.270744 g / cm^3
# Si number density = 22.759238 Si / 1000 Ang^3
#
#
#
# Elastic Constant Matrix: (Units=GPa)
#
#
# Indices 1 2 3 4 5 6 
#
# 1 73.4115 51.8700 51.5577 -0.0004 -28.5859 0.0008
# 2 51.8700 176.9194 53.1756 -0.0024 -22.1411 0.0005
# 3 51.5577 53.1756 133.2955 -0.0078 -20.5224 -0.0016
# 4 -0.0004 -0.0024 -0.0078 45.8476 -0.0004 3.8033
# 5 -28.5859 -22.1411 -20.5224 -0.0004 44.7934 0.0005
# 6 0.0008 0.0005 -0.0016 3.8033 0.0005 29.0146
#
#
#
# Elastic Compliance Matrix: (Units=1/GPa)
#
#
# Indices 1 2 3 4 5 6 
#
# 1 0.025450 -0.004109 -0.006474 -0.000001 0.011245 -0.000001
# 2 -0.004109 0.007285 -0.001255 0.000000 0.000404 0.000000
# 3 -0.006474 -0.001255 0.010517 0.000002 0.000067 0.000001
# 4 -0.000001 0.000000 0.000002 0.022051 0.000000 -0.002891
# 5 0.011245 0.000404 0.000067 0.000000 0.029731 -0.000001
# 6 -0.000001 0.000000 0.000001 -0.002891 -0.000001 0.034844
#
#
# Mechanical properties :
#
#
# Convention : Reuss Voigt Hill
#
# Bulk Modulus (GPa) = 51.07849 77.42589 64.25219
# Shear Modulus (GPa) = 31.23497 39.06602 35.15050
#
# Velocity S-wave (km/s) = 3.70862 4.14755 3.93421
# Velocity P-wave (km/s) = 6.38985 7.55180 6.99499
#
# Compressibility (1/GPa) = 0.01957771
#
# Stress axis : x y z
#
# Youngs Moduli (GPa) = 39.29308 137.27774 95.08521
#
# Poissons Ratio (x) = 0.56401 0.61554
# Poissons Ratio (y) = 0.16144 0.11930
# Poissons Ratio (z) = 0.25436 0.17224
#
# Static dielectric constant tensor:
#      x y z
#    x 1.796110 0.000000 0.070280 
#    y 0.000000 1.905200 0.000000 
#    z 0.070280 0.000000 1.967420 
# 
# From -- ./inp_files/255109.got.cif
#   From: 2010.05.17/outbox.cif.g08.bks.cpg/sg15_128_cif.got.tgz:255109.got - 2010.06.03 18:47:42.
