data_PCOD9274001
_publ_section_title
;
Structure prediction by ZEFSAII (Michael W. Deem and Ramdas Pophale) SiO2 
 PCOD9274001
Probable space group: C 2/C
;
_chemical_formula_sum "Si O2"
_cell_formula_units_Z 44
_cell_length_a 5.309104
_cell_length_b 17.781280
_cell_length_c 20.578437
_cell_angle_alpha 90.000000
_cell_angle_beta 108.633149
_cell_angle_gamma 90.000000
_cell_volume 1840.832306
_symmetry_space_group_name_H-M "C 2/C"
_symmetry_group_IT_number 15
_symmetry_cell_setting 'monoclinic'
loop_
_space_group_symop_operation_xyz
x,y,z
-x,y,1/2-z
-x,-y,-z
x,-y,1/2+z
1/2+x,1/2+y,z
1/2-x,1/2+y,1/2-z
1/2-x,1/2-y,-z
1/2+x,1/2-y,1/2+z
loop_
_atom_site_type_symbol
_atom_site_label
_atom_site_fract_x
_atom_site_fract_y
_atom_site_fract_z
Si Si1 0.000000 0.767997 0.250000
Si Si2 0.097396 0.446930 0.066368
Si Si3 0.858567 0.153512 0.494982
Si Si4 0.354795 0.520388 0.398619
Si Si5 0.440972 0.646994 0.314233
Si Si6 0.432616 0.750966 0.888686
O O1 0.744261 0.717090 0.216433
O O2 0.947155 0.794369 0.320910
O O3 0.150515 0.368058 0.035469
O O4 0.389305 0.477770 0.107473
O O5 0.884035 0.464418 0.104098
O O6 0.000000 0.500000 0.000000
O O7 0.706120 0.205668 0.430882
O O8 0.094230 0.194995 0.552334
O O9 0.932873 0.074860 0.466702
O O10 0.285160 0.585216 0.342120
O O11 0.500000 0.610361 0.250000
O O12 0.708834 0.683578 0.366435
#
# Coordination Sequence:
#
# PCOD9274001 Si02
#       6
#     4   8   8   8   8   8
#     4  10  20  40  56  86 118 170 206 264 314 378
#     4  10  21  36  59  89 127 161 199 255 323 377
#     4  10  20  38  60  96 127 160 206 268 316 388
#     4  11  21  39  60  92 126 163 208 260 319 375
#     4  10  21  36  62  88 124 167 218 266 320 382
#     4  10  21  38  60  92 126 164 211 261 323 383
#
# _framework density 23.902229999999999
#
# number of rings (size 3 to 8) (size 9 to 14) (size 15 to 20)
#    0.000    1.818    1.818    4.364    2.545    0.727 
#    9.818    0.000    2.000    0.000    0.000    0.000 
#    0.000    0.000    0.000    0.000    0.000    0.000 
#
# Total GULP energy -122650.846481 kJ/mol
# GULP energy per Si atom -5575.038476 kJ/mol
# Density = 2.384783 g / cm^3
# Si number density = 23.902230 Si / 1000 Ang^3
#
#
#
# Elastic Constant Matrix: (Units=GPa)
#
#
# Indices 1 2 3 4 5 6 
#
# 1 107.5968 17.0885 24.6839 0.0000 -0.7114 0.0000
# 2 17.0885 72.5341 26.0481 0.0000 -1.9369 0.0000
# 3 24.6839 26.0481 106.3007 0.0000 2.3560 0.0000
# 4 0.0000 0.0000 0.0000 -10.2660 0.0000 -5.5091
# 5 -0.7114 -1.9369 2.3560 0.0000 25.8007 0.0000
# 6 0.0000 0.0000 0.0000 -5.5091 0.0000 22.8092
#
#
#
# Elastic Compliance Matrix: (Units=1/GPa)
#
#
# Indices 1 2 3 4 5 6 
#
# 1 0.010000 -0.001657 -0.001924 0.000000 0.000327 0.000000
# 2 -0.001657 0.015448 -0.003432 0.000000 0.001427 0.000000
# 3 -0.001924 -0.003432 0.010724 0.000000 -0.001290 0.000000
# 4 0.000000 0.000000 0.000000 -0.086232 0.000000 -0.020828
# 5 0.000327 0.001427 -0.001290 0.000000 0.038993 0.000000
# 6 0.000000 0.000000 0.000000 -0.020828 0.000000 0.038811
#
#
# Mechanical properties :
#
#
# Convention : Reuss Voigt Hill
#
# Bulk Modulus (GPa) = 45.15291 46.89695 46.02493
# Shear Modulus (GPa) = 101.72806 22.24285 61.98546
#
# Velocity S-wave (km/s) = 6.53089 3.05384 5.09796
# Velocity P-wave (km/s) = 8.70641 5.66547 7.34504
#
# Compressibility (1/GPa) = 0.02214697
#
# Stress axis : x y z
#
# Youngs Moduli (GPa) = 99.99514 64.73500 93.25250
#
# Poissons Ratio (x) = 0.10724 0.17937
# Poissons Ratio (y) = 0.16565 0.32007
# Poissons Ratio (z) = 0.19234 0.22219
#
# Static dielectric constant tensor:
#      x y z
#    x 3.138210 0.000000 0.240000 
#    y 0.000000 1.960700 0.000000 
#    z 0.240000 0.000000 2.117030 
# 
# From -- ./inp_files/227416.got.cif
#   From: 2010.05.17/outbox.cif.g08.bks.cpg/sg15_114_cif.got.tgz:227416.got - 2010.06.03 18:47:42.
