data_PCOD9274810
_publ_section_title
;
Structure prediction by ZEFSAII (Michael W. Deem and Ramdas Pophale) SiO2 
 PCOD9274810
Probable space group: C 2/C
;
_chemical_formula_sum "Si O2"
_cell_formula_units_Z 52
_cell_length_a 12.090972
_cell_length_b 17.418633
_cell_length_c 21.525987
_cell_angle_alpha 90.000000
_cell_angle_beta 144.945685
_cell_angle_gamma 90.000000
_cell_volume 2603.856439
_symmetry_space_group_name_H-M "C 2/C"
_symmetry_group_IT_number 15
_symmetry_cell_setting 'monoclinic'
loop_
_space_group_symop_operation_xyz
x,y,z
-x,y,1/2-z
-x,-y,-z
x,-y,1/2+z
1/2+x,1/2+y,z
1/2-x,1/2+y,1/2-z
1/2-x,1/2-y,-z
1/2+x,1/2-y,1/2+z
loop_
_atom_site_type_symbol
_atom_site_label
_atom_site_fract_x
_atom_site_fract_y
_atom_site_fract_z
Si Si1 0.641138 0.887266 0.694673
Si Si2 0.013950 0.965521 0.896245
Si Si3 0.156644 0.084988 0.584694
Si Si4 0.000000 0.467327 0.750000
Si Si5 0.667696 0.305151 0.371847
Si Si6 0.538285 0.727549 0.596111
Si Si7 0.164010 0.459657 0.035678
O O1 0.589871 0.910674 0.740990
O O2 0.651374 0.799600 0.677749
O O3 0.456825 0.917771 0.573286
O O4 0.835273 0.935355 0.773698
O O5 0.186670 0.984633 0.929522
O O6 0.059832 0.905524 0.972698
O O7 0.961715 0.038812 0.916110
O O8 0.176585 0.168208 0.624599
O O9 0.334492 0.027507 0.653487
O O10 0.500000 0.274392 0.250000
O O11 0.572857 0.309930 0.396585
O O12 0.727206 0.391013 0.378579
O O13 0.863755 0.256077 0.470594
O O14 0.000000 0.500000 0.000000
#
# Coordination Sequence:
#
# PCOD9274810 Si02
#       7
#     8   8   8   4   8   8   8
#     4  10  23  38  63  95 126 167 215 266 327 377
#     4  10  21  38  64  94 121 168 212 265 320 382
#     4  10  20  38  65  93 128 157 217 267 324 379
#     4  10  20  38  68  92 130 170 216 278 314 392
#     4  10  23  37  59  87 128 171 207 257 325 378
#     4  10  22  39  60  95 129 161 217 269 320 387
#     4  11  23  40  60  93 128 162 215 257 315 393
#
# _framework density 19.970379000000001
#
# number of rings (size 3 to 8) (size 9 to 14) (size 15 to 20)
#    0.000    1.846    3.077    0.000    5.385    0.000 
#    0.000    3.077    0.000    4.615    0.000    0.000 
#    0.000    0.000    0.000    0.000    0.000    0.000 
#
# Total GULP energy -144866.922972 kJ/mol
# GULP energy per Si atom -5571.804730 kJ/mol
# Density = 1.992493 g / cm^3
# Si number density = 19.970379 Si / 1000 Ang^3
#
#
#
# Elastic Constant Matrix: (Units=GPa)
#
#
# Indices 1 2 3 4 5 6 
#
# 1 69.0594 34.7690 1.6385 0.0001 23.5658 0.0000
# 2 34.7690 93.6412 20.1065 0.0002 5.0209 0.0000
# 3 1.6385 20.1065 73.5724 0.0006 11.6180 0.0001
# 4 0.0001 0.0002 0.0006 16.4387 0.0001 -3.1380
# 5 23.5658 5.0209 11.6180 0.0001 17.4120 0.0000
# 6 0.0000 0.0000 0.0001 -3.1380 0.0000 25.9154
#
#
#
# Elastic Compliance Matrix: (Units=1/GPa)
#
#
# Indices 1 2 3 4 5 6 
#
# 1 0.043815 -0.015726 0.013380 0.000000 -0.063694 0.000000
# 2 -0.015726 0.017018 -0.007698 0.000000 0.021514 0.000000
# 3 0.013380 -0.007698 0.020016 -0.000001 -0.029245 0.000000
# 4 0.000000 0.000000 -0.000001 0.062271 0.000000 0.007540
# 5 -0.063694 0.021514 -0.029245 0.000000 0.156946 0.000000
# 6 0.000000 0.000000 0.000000 0.007540 0.000000 0.039500
#
#
# Mechanical properties :
#
#
# Convention : Reuss Voigt Hill
#
# Bulk Modulus (GPa) = 16.45802 38.81123 27.63462
# Shear Modulus (GPa) = 13.16109 23.93716 18.54912
#
# Velocity S-wave (km/s) = 2.56994 3.46588 3.05098
# Velocity P-wave (km/s) = 4.13101 5.95761 5.12632
#
# Compressibility (1/GPa) = 0.06076065
#
# Stress axis : x y z
#
# Youngs Moduli (GPa) = 22.82306 58.76270 49.96038
#
# Poissons Ratio (x) = 0.92413 -0.66847
# Poissons Ratio (y) = 0.35892 0.38458
# Poissons Ratio (z) = -0.30537 0.45234
#
# Static dielectric constant tensor:
#      x y z
#    x 1.971840 0.000000 -0.377770 
#    y 0.000000 1.743880 0.000000 
#    z -0.377770 0.000000 2.253380 
# 
# From -- ./inp_files/239863.got.cif
#   From: 2010.05.17/outbox.cif.g08.bks.cpg/sg15_120_cif.got.tgz:239863.got - 2010.06.03 18:47:42.
