data_PCOD9274086
_publ_section_title
;
Structure prediction by ZEFSAII (Michael W. Deem and Ramdas Pophale) SiO2 
 PCOD9274086
Probable space group: C 2/C
;
_chemical_formula_sum "Si O2"
_cell_formula_units_Z 56
_cell_length_a 20.098954
_cell_length_b 12.455744
_cell_length_c 9.784694
_cell_angle_alpha 90.000000
_cell_angle_beta 84.903539
_cell_angle_gamma 90.000000
_cell_volume 2439.888700
_symmetry_space_group_name_H-M "C 2/C"
_symmetry_group_IT_number 15
_symmetry_cell_setting 'monoclinic'
loop_
_space_group_symop_operation_xyz
x,y,z
-x,y,1/2-z
-x,-y,-z
x,-y,1/2+z
1/2+x,1/2+y,z
1/2-x,1/2+y,1/2-z
1/2-x,1/2-y,-z
1/2+x,1/2-y,1/2+z
loop_
_atom_site_type_symbol
_atom_site_label
_atom_site_fract_x
_atom_site_fract_y
_atom_site_fract_z
Si Si1 0.783111 0.854448 0.832907
Si Si2 0.913215 0.024378 0.352566
Si Si3 0.571758 0.857130 0.459502
Si Si4 0.061831 0.405798 0.887890
Si Si5 0.961646 0.122826 0.069143
Si Si6 0.668218 0.867456 0.084175
Si Si7 0.674396 0.896446 0.657805
O O1 0.835644 0.947215 0.860182
O O2 0.821944 0.742953 0.840195
O O3 0.745698 0.855543 0.694589
O O4 0.723873 0.863806 0.954254
O O5 0.935746 0.041449 0.191618
O O6 0.958439 0.109445 0.431330
O O7 0.932261 0.915416 0.428857
O O8 0.513110 0.863973 0.586072
O O9 0.561038 0.742476 0.393930
O O10 0.644350 0.867920 0.516008
O O11 0.559741 0.964668 0.374499
O O12 0.115286 0.360697 0.771446
O O13 0.096387 0.381407 0.027534
O O14 0.680560 0.974781 0.166629
#
# Coordination Sequence:
#
# PCOD9274086 Si02
#       7
#     8   8   8   8   8   8   8
#     4  10  21  37  59  84 118 172 201 252 315 369
#     4  10  23  43  64  92 125 163 217 263 316 373
#     4  10  20  38  61  89 122 158 206 257 325 370
#     4   9  19  37  58  89 120 155 200 260 310 377
#     4  10  23  44  64  95 121 167 212 270 313 379
#     4   9  20  37  55  83 121 157 207 248 304 376
#     4  10  21  36  56  92 121 155 207 258 305 379
#
# _framework density 22.951865000000002
#
# number of rings (size 3 to 8) (size 9 to 14) (size 15 to 20)
#    0.000    2.286    0.000    1.286    4.000    1.143 
#   20.571    0.714    0.000    0.000    0.000    0.000 
#    0.000    0.000    0.000    0.000    0.000    0.000 
#
# Total GULP energy -156272.592180 kJ/mol
# GULP energy per Si atom -5581.164006 kJ/mol
# Density = 2.289963 g / cm^3
# Si number density = 22.951865 Si / 1000 Ang^3
#
#
#
# Elastic Constant Matrix: (Units=GPa)
#
#
# Indices 1 2 3 4 5 6 
#
# 1 124.6865 28.7941 19.3112 0.0000 33.3227 0.0000
# 2 28.7941 55.6334 13.9396 0.0000 8.5149 0.0000
# 3 19.3112 13.9396 48.4781 0.0000 8.4672 0.0000
# 4 0.0000 0.0000 0.0000 11.4294 0.0000 1.7453
# 5 33.3227 8.5149 8.4672 0.0000 34.6838 0.0000
# 6 0.0000 0.0000 0.0000 1.7453 0.0000 22.3255
#
#
#
# Elastic Compliance Matrix: (Units=1/GPa)
#
#
# Indices 1 2 3 4 5 6 
#
# 1 0.011942 -0.004198 -0.001803 0.000000 -0.010003 0.000000
# 2 -0.004198 0.021273 -0.004426 0.000000 -0.000109 0.000000
# 3 -0.001803 -0.004426 0.023112 0.000000 -0.002824 0.000000
# 4 0.000000 0.000000 0.000000 0.088551 0.000000 -0.006922
# 5 -0.010003 -0.000109 -0.002824 0.000000 0.039158 0.000000
# 6 0.000000 0.000000 0.000000 -0.006922 0.000000 0.045333
#
#
# Mechanical properties :
#
#
# Convention : Reuss Voigt Hill
#
# Bulk Modulus (GPa) = 28.18998 39.20976 33.69987
# Shear Modulus (GPa) = 19.08058 24.80461 21.94259
#
# Velocity S-wave (km/s) = 2.88641 3.29100 3.09532
# Velocity P-wave (km/s) = 4.83915 5.61796 5.24303
#
# Compressibility (1/GPa) = 0.03547360
#
# Stress axis : x y z
#
# Youngs Moduli (GPa) = 83.73772 47.00749 43.26800
#
# Poissons Ratio (x) = 0.19734 0.07801
# Poissons Ratio (y) = 0.35154 0.19149
# Poissons Ratio (z) = 0.15097 0.20804
#
# Static dielectric constant tensor:
#      x y z
#    x 1.886950 0.000000 -0.021110 
#    y 0.000000 1.830280 0.000000 
#    z -0.021110 0.000000 1.968110 
# 
# From -- ./inp_files/111055.got.cif
#   From: 2010.05.17/outbox.cif.g08.bks.cpg/sg15_56_cif.got.tgz:111055.got - 2010.06.03 18:47:42.
