data_PCOD9274779
_publ_section_title
;
Structure prediction by ZEFSAII (Michael W. Deem and Ramdas Pophale) SiO2 
 PCOD9274779
Probable space group: C 2/C
;
_chemical_formula_sum "Si O2"
_cell_formula_units_Z 40
_cell_length_a 9.159200
_cell_length_b 15.340006
_cell_length_c 11.602266
_cell_angle_alpha 90.000000
_cell_angle_beta 73.518061
_cell_angle_gamma 90.000000
_cell_volume 1563.159817
_symmetry_space_group_name_H-M "C 2/C"
_symmetry_group_IT_number 15
_symmetry_cell_setting 'monoclinic'
loop_
_space_group_symop_operation_xyz
x,y,z
-x,y,1/2-z
-x,-y,-z
x,-y,1/2+z
1/2+x,1/2+y,z
1/2-x,1/2+y,1/2-z
1/2-x,1/2-y,-z
1/2+x,1/2-y,1/2+z
loop_
_atom_site_type_symbol
_atom_site_label
_atom_site_fract_x
_atom_site_fract_y
_atom_site_fract_z
Si Si1 0.174804 0.359524 0.333421
Si Si2 0.389604 0.222868 0.165867
Si Si3 0.113053 0.422062 0.009578
Si Si4 0.159033 0.990846 0.354866
Si Si5 0.901280 0.866036 0.481402
O O1 0.253253 0.283203 0.242624
O O2 0.239072 0.451274 0.268797
O O3 0.247726 0.349917 0.444768
O O4 0.994777 0.364473 0.382679
O O5 0.500000 0.203332 0.250000
O O6 0.489733 0.283396 0.056867
O O7 0.343075 0.137497 0.107582
O O8 0.252197 0.458219 0.050620
O O9 0.000000 0.500000 0.000000
O O10 0.999497 0.940033 0.391621
O O11 0.132949 0.092749 0.386176
#
# Coordination Sequence:
#
# PCOD9274779 Si02
#       5
#     8   8   8   8   8
#     4  10  21  42  64  92 130 173 217 268 325 393
#     4   9  22  42  67  91 132 177 219 264 332 403
#     4  12  24  41  61 102 132 165 221 281 325 385
#     4  10  20  38  65  90 134 168 210 274 327 381
#     4   9  19  40  64  93 123 176 218 260 321 404
#
# _framework density 25.589193000000002
#
# number of rings (size 3 to 8) (size 9 to 14) (size 15 to 20)
#    0.000    2.000    2.000    2.400    0.000    8.000 
#    3.600    0.000    0.000    2.400    0.000    0.000 
#    0.000    0.000    0.000    0.000    0.000    0.000 
#
# Total GULP energy -112002.628736 kJ/mol
# GULP energy per Si atom -5600.131437 kJ/mol
# Density = 2.553095 g / cm^3
# Si number density = 25.589193 Si / 1000 Ang^3
#
#
#
# Elastic Constant Matrix: (Units=GPa)
#
#
# Indices 1 2 3 4 5 6 
#
# 1 101.2056 13.1519 11.0881 0.0000 -6.3157 0.0000
# 2 13.1519 105.8505 45.3772 0.0000 7.3269 0.0000
# 3 11.0881 45.3772 82.6339 0.0000 -15.7448 0.0000
# 4 0.0000 0.0000 0.0000 59.1121 0.0000 -1.0519
# 5 -6.3157 7.3269 -15.7448 0.0000 38.2978 0.0000
# 6 0.0000 0.0000 0.0000 -1.0519 0.0000 24.7452
#
#
#
# Elastic Compliance Matrix: (Units=1/GPa)
#
#
# Indices 1 2 3 4 5 6 
#
# 1 0.010191 -0.001240 -0.000349 0.000000 0.001774 0.000000
# 2 -0.001240 0.013719 -0.008578 0.000000 -0.006356 0.000000
# 3 -0.000349 -0.008578 0.018619 0.000000 0.009238 0.000000
# 4 0.000000 0.000000 0.000000 0.016930 0.000000 0.000720
# 5 0.001774 -0.006356 0.009238 0.000000 0.031418 0.000000
# 6 0.000000 0.000000 0.000000 0.000720 0.000000 0.040442
#
#
# Mechanical properties :
#
#
# Convention : Reuss Voigt Hill
#
# Bulk Modulus (GPa) = 45.05306 47.65827 46.35567
# Shear Modulus (GPa) = 31.43677 39.10254 35.26966
#
# Velocity S-wave (km/s) = 3.50882 3.91332 3.71658
# Velocity P-wave (km/s) = 5.83612 6.25168 6.04747
#
# Compressibility (1/GPa) = 0.02219605
#
# Stress axis : x y z
#
# Youngs Moduli (GPa) = 98.12688 72.89415 53.70846
#
# Poissons Ratio (x) = 0.09036 0.01873
# Poissons Ratio (y) = 0.12163 0.46071
# Poissons Ratio (z) = 0.03421 0.62528
#
# Static dielectric constant tensor:
#      x y z
#    x 1.919160 0.000000 -0.015050 
#    y 0.000000 2.061920 0.000000 
#    z -0.015050 0.000000 2.054210 
# 
# From -- ./inp_files/85975.got.cif
#   From: 2010.05.17/outbox.cif.g08.bks.cpg/sg15_43_cif.got.tgz:85975.got - 2010.06.03 18:47:42.
