data_PCOD9274400
_publ_section_title
;
Structure prediction by ZEFSAII (Michael W. Deem and Ramdas Pophale) SiO2 
 PCOD9274400
Probable space group: C 2/C
;
_chemical_formula_sum "Si O2"
_cell_formula_units_Z 48
_cell_length_a 19.065364
_cell_length_b 8.222798
_cell_length_c 13.995798
_cell_angle_alpha 90.000000
_cell_angle_beta 91.571306
_cell_angle_gamma 90.000000
_cell_volume 2193.305115
_symmetry_space_group_name_H-M "C 2/C"
_symmetry_group_IT_number 15
_symmetry_cell_setting 'monoclinic'
loop_
_space_group_symop_operation_xyz
x,y,z
-x,y,1/2-z
-x,-y,-z
x,-y,1/2+z
1/2+x,1/2+y,z
1/2-x,1/2+y,1/2-z
1/2-x,1/2-y,-z
1/2+x,1/2-y,1/2+z
loop_
_atom_site_type_symbol
_atom_site_label
_atom_site_fract_x
_atom_site_fract_y
_atom_site_fract_z
Si Si1 0.924706 0.420452 0.264398
Si Si2 0.457624 0.832206 0.476067
Si Si3 0.402660 0.279083 0.567704
Si Si4 0.704479 0.851827 0.772396
Si Si5 0.202787 0.983174 0.365628
Si Si6 0.817516 0.464285 0.527645
O O1 0.930057 0.332495 0.366089
O O2 0.915822 0.300226 0.173784
O O3 0.862799 0.549348 0.266455
O O4 0.000000 0.504402 0.250000
O O5 0.522611 0.708276 0.482799
O O6 0.500000 0.000000 0.500000
O O7 0.385945 0.845437 0.533177
O O8 0.362673 0.446811 0.579583
O O9 0.350730 0.144886 0.518478
O O10 0.688537 0.666653 0.795859
O O11 0.766035 0.872566 0.698746
O O12 0.721365 0.939941 0.873641
O O13 0.264090 0.931666 0.440811
#
# Coordination Sequence:
#
# PCOD9274400 Si02
#       6
#     8   8   8   8   8   8
#     4   9  17  36  60  82 114 157 205 244 298 369
#     4   9  17  34  60  86 112 155 204 245 295 366
#     4   9  20  35  60  89 115 156 207 249 303 361
#     4  11  23  38  60  89 123 161 204 254 310 365
#     4  12  23  39  60  91 127 160 204 256 309 367
#     4  10  20  38  63  86 119 164 207 249 305 368
#
# _framework density 21.884779000000002
#
# number of rings (size 3 to 8) (size 9 to 14) (size 15 to 20)
#    0.000    2.000    1.667    4.000    0.000    0.000 
#    0.000    3.333    0.000    0.000    0.000    0.000 
#    0.000    0.000    0.000    0.000    0.000    0.000 
#
# Total GULP energy -133971.401557 kJ/mol
# GULP energy per Si atom -5582.141732 kJ/mol
# Density = 2.183497 g / cm^3
# Si number density = 21.884779 Si / 1000 Ang^3
#
#
#
# Elastic Constant Matrix: (Units=GPa)
#
#
# Indices 1 2 3 4 5 6 
#
# 1 90.2183 20.6332 15.7032 0.0000 -2.5716 0.0000
# 2 20.6332 69.2815 -19.6798 0.0000 -0.7299 0.0000
# 3 15.7032 -19.6798 34.6946 0.0000 -6.6225 0.0000
# 4 0.0000 0.0000 0.0000 15.3247 0.0000 -13.1471
# 5 -2.5716 -0.7299 -6.6225 0.0000 25.4382 0.0000
# 6 0.0000 0.0000 0.0000 -13.1471 0.0000 21.8609
#
#
#
# Elastic Compliance Matrix: (Units=1/GPa)
#
#
# Indices 1 2 3 4 5 6 
#
# 1 0.014752 -0.007627 -0.011323 0.000000 -0.001675 0.000000
# 2 -0.007627 0.021400 0.016375 0.000000 0.004106 0.000000
# 3 -0.011323 0.016375 0.045361 0.000000 0.011134 0.000000
# 4 0.000000 0.000000 0.000000 0.134807 0.000000 0.081073
# 5 -0.001675 0.004106 0.011134 0.000000 0.042158 0.000000
# 6 0.000000 0.000000 0.000000 0.081073 0.000000 0.094501
#
#
# Mechanical properties :
#
#
# Convention : Reuss Voigt Hill
#
# Bulk Modulus (GPa) = 13.09560 25.27863 19.18711
# Shear Modulus (GPa) = 13.03495 24.36061 18.69778
#
# Velocity S-wave (km/s) = 2.44317 3.33998 2.92614
# Velocity P-wave (km/s) = 3.73573 5.14294 4.49475
#
# Compressibility (1/GPa) = 0.07636153
#
# Stress axis : x y z
#
# Youngs Moduli (GPa) = 67.78866 46.72899 22.04522
#
# Poissons Ratio (x) = 0.35642 0.24962
# Poissons Ratio (y) = 0.51705 -0.36098
# Poissons Ratio (z) = 0.76757 -0.76517
#
# Static dielectric constant tensor:
#      x y z
#    x 1.822870 0.000000 -0.024680 
#    y 0.000000 1.807670 0.000000 
#    z -0.024680 0.000000 1.799470 
# 
# From -- ./inp_files/159694.got.cif
#   From: 2010.05.17/outbox.cif.g08.bks.cpg/sg15_80_cif.got.tgz:159694.got - 2010.06.03 18:47:42.
