data_PCOD9274956
_publ_section_title
;
Structure prediction by ZEFSAII (Michael W. Deem and Ramdas Pophale) SiO2 
 PCOD9274956
Probable space group: C 2/C
;
_chemical_formula_sum "Si O2"
_cell_formula_units_Z 44
_cell_length_a 12.178960
_cell_length_b 19.960885
_cell_length_c 9.150648
_cell_angle_alpha 90.000000
_cell_angle_beta 67.913619
_cell_angle_gamma 90.000000
_cell_volume 2061.306598
_symmetry_space_group_name_H-M "C 2/C"
_symmetry_group_IT_number 15
_symmetry_cell_setting 'monoclinic'
loop_
_space_group_symop_operation_xyz
x,y,z
-x,y,1/2-z
-x,-y,-z
x,-y,1/2+z
1/2+x,1/2+y,z
1/2-x,1/2+y,1/2-z
1/2-x,1/2-y,-z
1/2+x,1/2-y,1/2+z
loop_
_atom_site_type_symbol
_atom_site_label
_atom_site_fract_x
_atom_site_fract_y
_atom_site_fract_z
Si Si1 0.000000 0.111422 0.250000
Si Si2 0.438713 0.273765 0.988354
Si Si3 0.316867 0.170966 0.824305
Si Si4 0.359776 0.799568 0.972198
Si Si5 0.748367 0.046805 0.448551
Si Si6 0.636611 0.936263 0.689815
O O1 0.010196 0.164235 0.379285
O O2 0.884184 0.067528 0.344253
O O3 0.394754 0.221065 0.885826
O O4 0.519122 0.241415 0.071361
O O5 0.315983 0.300437 0.112057
O O6 0.354854 0.167771 0.637800
O O7 0.306843 0.100840 0.911978
O O8 0.250000 0.750000 0.000000
O O9 0.359410 0.858498 0.855630
O O10 0.680706 0.052258 0.330547
O O11 0.722825 0.976107 0.536676
O O12 0.500000 0.959302 0.750000
#
# Coordination Sequence:
#
# PCOD9274956 Si02
#       6
#     4   8   8   8   8   8
#     4  10  20  42  72  98 132 174 226 280 332 404
#     4  10  20  38  66  96 130 177 216 269 334 390
#     4  10  22  40  68  93 133 172 222 268 329 398
#     4  12  25  39  65 100 137 170 221 274 334 397
#     4  11  25  46  69  98 133 182 231 273 343 397
#     4  12  27  44  68  98 138 179 227 281 333 408
#
# _framework density 21.345683999999999
#
# number of rings (size 3 to 8) (size 9 to 14) (size 15 to 20)
#    0.000    1.091    1.818    3.818    7.636    2.182 
#    0.000    1.818    0.000    0.000    0.000    0.000 
#    0.000    0.000    0.000    0.000    0.000    0.000 
#
# Total GULP energy -123030.675951 kJ/mol
# GULP energy per Si atom -5592.303452 kJ/mol
# Density = 2.129710 g / cm^3
# Si number density = 21.345684 Si / 1000 Ang^3
#
#
#
# Elastic Constant Matrix: (Units=GPa)
#
#
# Indices 1 2 3 4 5 6 
#
# 1 106.7682 57.7039 28.0030 0.0000 13.3916 0.0000
# 2 57.7039 93.0083 19.7899 0.0000 -6.2089 0.0000
# 3 28.0030 19.7899 79.6923 0.0000 13.8452 0.0000
# 4 0.0000 0.0000 0.0000 22.2932 0.0000 -48.6868
# 5 13.3916 -6.2089 13.8452 0.0000 37.9995 0.0000
# 6 0.0000 0.0000 0.0000 -48.6868 0.0000 -165.5562
#
#
#
# Elastic Compliance Matrix: (Units=1/GPa)
#
#
# Indices 1 2 3 4 5 6 
#
# 1 0.016142 -0.010020 -0.002040 0.000000 -0.006583 0.000000
# 2 -0.010020 0.017919 -0.002189 0.000000 0.007257 0.000000
# 3 -0.002040 -0.002189 0.014675 0.000000 -0.004986 0.000000
# 4 0.000000 0.000000 0.000000 0.027314 0.000000 -0.008033
# 5 -0.006583 0.007257 -0.004986 0.000000 0.031638 0.000000
# 6 0.000000 0.000000 0.000000 -0.008033 0.000000 -0.003678
#
#
# Mechanical properties :
#
#
# Convention : Reuss Voigt Hill
#
# Bulk Modulus (GPa) = 49.41664 54.49581 51.95623
# Shear Modulus (GPa) = 35.90497 -9.45457 13.22520
#
# Velocity S-wave (km/s) = 4.10576 -2.10687 2.49182
# Velocity P-wave (km/s) = 6.75849 4.43475 5.71595
#
# Compressibility (1/GPa) = 0.02023610
#
# Stress axis : x y z
#
# Youngs Moduli (GPa) = 61.94841 55.80716 68.14268
#
# Poissons Ratio (x) = 0.55921 0.13903
# Poissons Ratio (y) = 0.62075 0.14920
# Poissons Ratio (z) = 0.12639 0.12219
#
# Static dielectric constant tensor:
#      x y z
#    x 1.743510 0.000000 -0.034550 
#    y 0.000000 1.781720 0.000000 
#    z -0.034550 0.000000 1.779880 
# 
# From -- ./inp_files/30698.got.cif
#   From: 2010.05.17/outbox.cif.g08.bks.cpg/sg15_16_cif.got.tgz:30698.got - 2010.06.03 18:47:42.
