data_PCOD9274142
_publ_section_title
;
Structure prediction by ZEFSAII (Michael W. Deem and Ramdas Pophale) SiO2 
 PCOD9274142
Probable space group: C 2/C
;
_chemical_formula_sum "Si O2"
_cell_formula_units_Z 64
_cell_length_a 20.022699
_cell_length_b 26.016165
_cell_length_c 10.743461
_cell_angle_alpha 90.000000
_cell_angle_beta 148.741404
_cell_angle_gamma 90.000000
_cell_volume 2903.989529
_symmetry_space_group_name_H-M "C 2/C"
_symmetry_group_IT_number 15
_symmetry_cell_setting 'monoclinic'
loop_
_space_group_symop_operation_xyz
x,y,z
-x,y,1/2-z
-x,-y,-z
x,-y,1/2+z
1/2+x,1/2+y,z
1/2-x,1/2+y,1/2-z
1/2-x,1/2-y,-z
1/2+x,1/2-y,1/2+z
loop_
_atom_site_type_symbol
_atom_site_label
_atom_site_fract_x
_atom_site_fract_y
_atom_site_fract_z
Si Si1 0.641864 0.057250 0.689607
Si Si2 0.146613 0.561859 0.211540
Si Si3 0.099824 0.223965 0.523055
Si Si4 0.602301 0.399848 0.020788
Si Si5 0.020121 0.797150 0.147904
Si Si6 0.744779 0.708323 0.382403
Si Si7 0.590606 0.411078 0.277307
Si Si8 0.352569 0.101458 0.543797
O O1 0.493302 0.078674 0.456633
O O2 0.754129 0.080269 0.782739
O O3 0.689825 0.067347 0.907984
O O4 0.629165 0.997035 0.642128
O O5 0.267128 0.565196 0.494146
O O6 0.201948 0.592804 0.180159
O O7 0.114379 0.162534 0.543159
O O8 0.070512 0.238757 0.618312
O O9 0.220684 0.257574 0.680291
O O10 0.000000 0.235956 0.250000
O O11 0.547322 0.419430 0.065525
O O12 0.500000 0.412891 0.750000
O O13 0.100197 0.848774 0.302797
O O14 0.000000 0.772383 0.250000
O O15 0.891269 0.816011 0.869893
O O16 0.750000 0.750000 0.500000
O O17 0.836721 0.660721 0.556097
O O18 0.500000 0.427719 0.250000
O O19 0.500000 0.088512 0.750000
#
# Coordination Sequence:
#
# PCOD9274142 Si02
#       8
#     8   8   8   8   8   8   8   8
#     4  10  23  41  66  98 134 174 227 285 347 402
#     4  10  23  43  66  95 135 180 227 282 343 420
#     4  10  20  38  61  94 125 166 222 268 331 401
#     4  10  23  40  66  97 135 175 221 288 341 402
#     4  10  22  39  61  91 128 175 210 272 337 398
#     4  12  22  36  68  93 129 176 219 282 332 405
#     4  10  22  41  68  92 130 182 223 268 344 410
#     4  10  22  38  63  98 128 171 226 282 333 408
#
# _framework density 22.038647999999998
#
# number of rings (size 3 to 8) (size 9 to 14) (size 15 to 20)
#    0.000    1.750    1.250    2.625    7.000    1.500 
#    0.000    1.250    0.000    0.000    0.000    0.000 
#    0.000    0.000    0.000    0.000    0.000    0.000 
#
# Total GULP energy -178236.956327 kJ/mol
# GULP energy per Si atom -5569.904885 kJ/mol
# Density = 2.198849 g / cm^3
# Si number density = 22.038648 Si / 1000 Ang^3
#
#
#
# Elastic Constant Matrix: (Units=GPa)
#
#
# Indices 1 2 3 4 5 6 
#
# 1 162.0344 27.8150 27.2175 0.0000 -2.2561 0.0000
# 2 27.8150 48.5838 9.2545 0.0000 2.7017 0.0000
# 3 27.2175 9.2545 72.9275 0.0000 5.7234 0.0000
# 4 0.0000 0.0000 0.0000 11.2110 0.0000 -9.4776
# 5 -2.2561 2.7017 5.7234 0.0000 34.9524 0.0000
# 6 0.0000 0.0000 0.0000 -9.4776 0.0000 -23.0499
#
#
#
# Elastic Compliance Matrix: (Units=1/GPa)
#
#
# Indices 1 2 3 4 5 6 
#
# 1 0.007220 -0.003757 -0.002307 0.000000 0.001134 0.000000
# 2 -0.003757 0.023098 -0.001388 0.000000 -0.001801 0.000000
# 3 -0.002307 -0.001388 0.014945 0.000000 -0.002489 0.000000
# 4 0.000000 0.000000 0.000000 0.066190 0.000000 -0.027216
# 5 0.001134 -0.001801 -0.002489 0.000000 0.029230 0.000000
# 6 0.000000 0.000000 0.000000 -0.027216 0.000000 -0.032194
#
#
# Mechanical properties :
#
#
# Convention : Reuss Voigt Hill
#
# Bulk Modulus (GPa) = 32.93834 45.79108 39.36471
# Shear Modulus (GPa) = 37.44962 19.23994 28.34478
#
# Velocity S-wave (km/s) = 4.12669 2.95788 3.59017
# Velocity P-wave (km/s) = 6.13875 5.69984 5.92336
#
# Compressibility (1/GPa) = 0.03035976
#
# Stress axis : x y z
#
# Youngs Moduli (GPa) = 138.50923 43.29296 66.91392
#
# Poissons Ratio (x) = 0.16266 0.15435
# Poissons Ratio (y) = 0.52039 0.09285
# Poissons Ratio (z) = 0.31950 0.06008
#
# Static dielectric constant tensor:
#      x y z
#    x 1.947710 0.000000 0.050250 
#    y 0.000000 1.802000 0.000000 
#    z 0.050250 0.000000 2.089130 
# 
# From -- ./inp_files/115018.got.cif
#   From: 2010.05.17/outbox.cif.g08.bks.cpg/sg15_58_cif.got.tgz:115018.got - 2010.06.03 18:47:42.
