data_PCOD9274242
_publ_section_title
;
Structure prediction by ZEFSAII (Michael W. Deem and Ramdas Pophale) SiO2 
 PCOD9274242
Probable space group: C 2/C
;
_chemical_formula_sum "Si O2"
_cell_formula_units_Z 56
_cell_length_a 21.416858
_cell_length_b 8.961143
_cell_length_c 12.282822
_cell_angle_alpha 90.000000
_cell_angle_beta 81.752947
_cell_angle_gamma 90.000000
_cell_volume 2332.935861
_symmetry_space_group_name_H-M "C 2/C"
_symmetry_group_IT_number 15
_symmetry_cell_setting 'monoclinic'
loop_
_space_group_symop_operation_xyz
x,y,z
-x,y,1/2-z
-x,-y,-z
x,-y,1/2+z
1/2+x,1/2+y,z
1/2-x,1/2+y,1/2-z
1/2-x,1/2-y,-z
1/2+x,1/2-y,1/2+z
loop_
_atom_site_type_symbol
_atom_site_label
_atom_site_fract_x
_atom_site_fract_y
_atom_site_fract_z
Si Si1 0.000000 0.265411 0.250000
Si Si2 0.174913 0.291035 0.692177
Si Si3 0.032449 0.319257 0.011419
Si Si4 0.370313 0.368338 0.099415
Si Si5 0.605371 0.886558 0.491030
Si Si6 0.750000 0.250000 0.500000
Si Si7 0.244837 0.973253 0.662746
Si Si8 0.366850 0.680280 0.206806
O O1 0.984643 0.358352 0.360186
O O2 0.936080 0.177924 0.241314
O O3 0.123361 0.225383 0.789854
O O4 0.145447 0.347415 0.587465
O O5 0.212447 0.422674 0.745865
O O6 0.218730 0.141238 0.668413
O O7 0.083180 0.445584 0.970282
O O8 0.069650 0.166119 0.989431
O O9 0.964363 0.312318 0.973392
O O10 0.306082 0.318919 0.059876
O O11 0.362748 0.539168 0.130037
O O12 0.636701 0.820722 0.373027
O O13 0.729270 0.078903 0.459145
O O14 0.186987 0.847470 0.689210
#
# Coordination Sequence:
#
# PCOD9274242 Si02
#       8
#     4   8   8   8   8   4   8   8
#     4  10  22  38  62  92 126 160 198 254 306 358
#     4  10  23  40  62  91 124 162 206 254 308 365
#     4  10  23  41  62  89 121 159 202 247 304 364
#     4  10  22  38  62  90 120 160 202 251 304 362
#     4  10  23  40  61  89 122 161 203 249 301 365
#     4  10  20  38  62  88 122 158 202 250 304 360
#     4  10  22  39  61  92 124 162 208 256 307 365
#     4  10  22  39  60  90 123 158 203 250 301 359
#
# _framework density 24.004087999999999
#
# number of rings (size 3 to 8) (size 9 to 14) (size 15 to 20)
#    0.000    2.000    0.000    1.714    0.000   17.143 
#    0.000    0.000    0.000    0.857    0.000    0.000 
#    0.000    0.000    0.000    0.000    0.000    0.000 
#
# Total GULP energy -155912.998831 kJ/mol
# GULP energy per Si atom -5568.321387 kJ/mol
# Density = 2.394945 g / cm^3
# Si number density = 24.004088 Si / 1000 Ang^3
#
#
#
# Elastic Constant Matrix: (Units=GPa)
#
#
# Indices 1 2 3 4 5 6 
#
# 1 101.4231 19.0555 28.7199 0.0000 28.8258 0.0000
# 2 19.0555 86.1116 26.5262 0.0000 10.4023 0.0000
# 3 28.7199 26.5262 76.2384 0.0000 24.6749 0.0000
# 4 0.0000 0.0000 0.0000 29.3597 0.0000 -11.3296
# 5 28.8258 10.4023 24.6749 0.0000 41.8405 0.0000
# 6 0.0000 0.0000 0.0000 -11.3296 0.0000 26.4190
#
#
#
# Elastic Compliance Matrix: (Units=1/GPa)
#
#
# Indices 1 2 3 4 5 6 
#
# 1 0.012739 -0.001330 -0.001981 0.000000 -0.007278 0.000000
# 2 -0.001330 0.013162 -0.004098 0.000000 0.000061 0.000000
# 3 -0.001981 -0.004098 0.017942 0.000000 -0.008198 0.000000
# 4 0.000000 0.000000 0.000000 0.040815 0.000000 0.017503
# 5 -0.007278 0.000061 -0.008198 0.000000 0.033733 0.000000
# 6 0.000000 0.000000 0.000000 0.017503 0.000000 0.045358
#
#
# Mechanical properties :
#
#
# Convention : Reuss Voigt Hill
#
# Bulk Modulus (GPa) = 34.45250 45.81962 40.13606
# Shear Modulus (GPa) = 26.56162 32.15526 29.35844
#
# Velocity S-wave (km/s) = 3.33009 3.66399 3.50102
# Velocity P-wave (km/s) = 5.40092 6.08518 5.75323
#
# Compressibility (1/GPa) = 0.02902547
#
# Stress axis : x y z
#
# Youngs Moduli (GPa) = 78.50033 75.97500 55.73494
#
# Poissons Ratio (x) = 0.10102 0.11040
# Poissons Ratio (y) = 0.10438 0.22842
# Poissons Ratio (z) = 0.15549 0.31137
#
# Static dielectric constant tensor:
#      x y z
#    x 1.806900 0.000000 0.318310 
#    y 0.000000 1.940910 0.000000 
#    z 0.318310 0.000000 1.264370 
# 
# From -- ./inp_files/166712.got.cif
#   From: 2010.05.17/outbox.cif.g08.bks.cpg/sg15_84_cif.got.tgz:166712.got - 2010.06.03 18:47:42.
