data_PCOD9274393
_publ_section_title
;
Structure prediction by ZEFSAII (Michael W. Deem and Ramdas Pophale) SiO2 
 PCOD9274393
Probable space group: C 2/C
;
_chemical_formula_sum "Si O2"
_cell_formula_units_Z 64
_cell_length_a 33.936307
_cell_length_b 17.286173
_cell_length_c 16.563168
_cell_angle_alpha 90.000000
_cell_angle_beta 162.054208
_cell_angle_gamma 90.000000
_cell_volume 2993.798585
_symmetry_space_group_name_H-M "C 2/C"
_symmetry_group_IT_number 15
_symmetry_cell_setting 'monoclinic'
loop_
_space_group_symop_operation_xyz
x,y,z
-x,y,1/2-z
-x,-y,-z
x,-y,1/2+z
1/2+x,1/2+y,z
1/2-x,1/2+y,1/2-z
1/2-x,1/2-y,-z
1/2+x,1/2-y,1/2+z
loop_
_atom_site_type_symbol
_atom_site_label
_atom_site_fract_x
_atom_site_fract_y
_atom_site_fract_z
Si Si1 0.540619 0.096030 0.244551
Si Si2 0.633873 0.469744 0.727035
Si Si3 0.195584 0.498422 0.283686
Si Si4 0.698152 0.709531 0.319868
Si Si5 0.575750 0.764513 0.713487
Si Si6 0.648500 0.176094 0.028789
Si Si7 0.316787 0.819953 0.733717
Si Si8 0.236960 0.990776 0.758725
O O1 0.500000 0.135568 0.250000
O O2 0.616235 0.156646 0.337037
O O3 0.630698 0.028085 0.452911
O O4 0.425302 0.057729 0.968420
O O5 0.500000 0.500000 0.500000
O O6 0.654683 0.377955 0.755269
O O7 0.648420 0.503857 0.664159
O O8 0.738124 0.488802 0.000218
O O9 0.155134 0.588948 0.202548
O O10 0.284280 0.483976 0.376055
O O11 0.750000 0.750000 0.500000
O O12 0.809429 0.717024 0.470474
O O13 0.567070 0.749234 0.036173
O O14 0.585142 0.782149 0.637126
O O15 0.674410 0.695728 0.923086
O O16 0.500000 0.155572 0.750000
O O17 0.679811 0.219384 0.172353
O O18 0.737269 0.100323 0.198781
#
# Coordination Sequence:
#
# PCOD9274393 Si02
#       8
#     8   8   8   8   8   8   8   8
#     4  10  21  36  62  92 120 147 200 268 307 351
#     4  11  23  39  61  86 123 164 203 250 303 366
#     4  10  20  39  64  89 116 157 208 256 309 354
#     4  11  24  39  60  87 123 162 207 251 305 381
#     4  11  23  38  57  89 126 159 199 253 312 376
#     4  10  20  38  63  85 114 156 204 252 298 368
#     4  10  22  38  61  86 118 162 202 247 309 374
#     4   9  20  38  61  92 115 149 204 258 301 361
#
# _framework density 21.377521999999999
#
# number of rings (size 3 to 8) (size 9 to 14) (size 15 to 20)
#    0.000    1.750    0.000    4.875    1.750    5.500 
#    0.000    3.750    2.750    0.000    0.000    0.000 
#    0.000    0.000    0.000    0.000    0.000    0.000 
#
# Total GULP energy -178375.355238 kJ/mol
# GULP energy per Si atom -5574.229851 kJ/mol
# Density = 2.132887 g / cm^3
# Si number density = 21.377522 Si / 1000 Ang^3
#
#
#
# Elastic Constant Matrix: (Units=GPa)
#
#
# Indices 1 2 3 4 5 6 
#
# 1 131.6258 15.6873 -6.3328 0.0000 8.9535 0.0000
# 2 15.6873 40.9224 3.9622 0.0000 -5.7826 0.0000
# 3 -6.3328 3.9622 27.5581 0.0000 4.8396 0.0000
# 4 0.0000 0.0000 0.0000 17.6135 0.0000 10.0649
# 5 8.9535 -5.7826 4.8396 0.0000 35.4349 0.0000
# 6 0.0000 0.0000 0.0000 10.0649 0.0000 -36.6873
#
#
#
# Elastic Compliance Matrix: (Units=1/GPa)
#
#
# Indices 1 2 3 4 5 6 
#
# 1 0.008438 -0.003985 0.003074 0.000000 -0.003202 0.000000
# 2 -0.003985 0.027432 -0.005966 0.000000 0.006298 0.000000
# 3 0.003074 -0.005966 0.039096 0.000000 -0.007090 0.000000
# 4 0.000000 0.000000 0.000000 0.049081 0.000000 0.013465
# 5 -0.003202 0.006298 -0.007090 0.000000 0.031026 0.000000
# 6 0.000000 0.000000 0.000000 0.013465 0.000000 -0.023563
#
#
# Mechanical properties :
#
#
# Convention : Reuss Voigt Hill
#
# Bulk Modulus (GPa) = 16.33632 25.19331 20.76481
# Shear Modulus (GPa) = 30.18120 15.72485 22.95303
#
# Velocity S-wave (km/s) = 3.76150 2.71510 3.28029
# Velocity P-wave (km/s) = 5.15010 4.65183 4.90729
#
# Compressibility (1/GPa) = 0.06121330
#
# Stress axis : x y z
#
# Youngs Moduli (GPa) = 118.51237 36.45427 25.57786
#
# Poissons Ratio (x) = 0.14526 -0.07863
# Poissons Ratio (y) = 0.47225 0.15259
# Poissons Ratio (z) = -0.36434 0.21748
#
# Static dielectric constant tensor:
#      x y z
#    x 1.831700 0.000000 -0.014070 
#    y 0.000000 1.788680 0.000000 
#    z -0.014070 0.000000 1.783490 
# 
# From -- ./inp_files/183153.got.cif
#   From: 2010.05.17/outbox.cif.g08.bks.cpg/sg15_92_cif.got.tgz:183153.got - 2010.06.03 18:47:42.
