data_PCOD9274626
_publ_section_title
;
Structure prediction by ZEFSAII (Michael W. Deem and Ramdas Pophale) SiO2 
 PCOD9274626
Probable space group: C 2/C
;
_chemical_formula_sum "Si O2"
_cell_formula_units_Z 64
_cell_length_a 19.264566
_cell_length_b 9.375239
_cell_length_c 17.840775
_cell_angle_alpha 90.000000
_cell_angle_beta 87.654943
_cell_angle_gamma 90.000000
_cell_volume 3219.522252
_symmetry_space_group_name_H-M "C 2/C"
_symmetry_group_IT_number 15
_symmetry_cell_setting 'monoclinic'
loop_
_space_group_symop_operation_xyz
x,y,z
-x,y,1/2-z
-x,-y,-z
x,-y,1/2+z
1/2+x,1/2+y,z
1/2-x,1/2+y,1/2-z
1/2-x,1/2-y,-z
1/2+x,1/2-y,1/2+z
loop_
_atom_site_type_symbol
_atom_site_label
_atom_site_fract_x
_atom_site_fract_y
_atom_site_fract_z
Si Si1 0.953451 0.174786 0.359517
Si Si2 0.390389 0.714975 0.204042
Si Si3 0.986607 0.149066 0.874205
Si Si4 0.203005 0.702593 0.431348
Si Si5 0.398470 0.271803 0.247854
Si Si6 0.320303 0.986595 0.698525
Si Si7 0.451774 0.856225 0.505418
Si Si8 0.704744 0.455516 0.313763
O O1 0.899588 0.192378 0.293373
O O2 0.940400 0.287966 0.424618
O O3 0.031244 0.207926 0.328158
O O4 0.957406 0.010136 0.386937
O O5 0.352904 0.860385 0.183689
O O6 0.343963 0.589920 0.172657
O O7 0.050892 0.143806 0.811932
O O8 0.931147 0.236296 0.827553
O O9 0.009019 0.237387 0.945374
O O10 0.250000 0.750000 0.500000
O O11 0.224259 0.583832 0.367355
O O12 0.127252 0.640849 0.458945
O O13 0.200853 0.848867 0.383479
O O14 0.327684 0.359747 0.251773
O O15 0.383748 0.121108 0.211437
O O16 0.277581 0.994222 0.777924
O O17 0.500000 0.000000 0.500000
#
# Coordination Sequence:
#
# PCOD9274626 Si02
#       8
#     8   8   8   8   8   8   8   8
#     4  11  23  37  67  92 129 177 215 283 340 416
#     4  11  21  40  63  98 128 158 235 282 329 391
#     4  11  20  41  63  88 129 169 216 275 338 408
#     4  11  26  47  67  95 146 185 221 283 361 419
#     4  10  20  38  64  90 123 166 215 271 341 384
#     4  11  24  38  65  99 130 176 226 281 331 410
#     4  12  26  41  64  99 139 177 227 282 362 409
#     4  11  21  42  65  94 128 177 223 272 332 420
#
# _framework density 19.878726
#
# number of rings (size 3 to 8) (size 9 to 14) (size 15 to 20)
#    0.000    1.000    5.000    3.375    5.250    1.000 
#    0.000    0.625    0.000    0.000    0.000    0.000 
#    0.000    0.000    0.000    0.000    0.000    0.000 
#
# Total GULP energy -178408.190591 kJ/mol
# GULP energy per Si atom -5575.255956 kJ/mol
# Density = 1.983348 g / cm^3
# Si number density = 19.878726 Si / 1000 Ang^3
#
#
#
# Elastic Constant Matrix: (Units=GPa)
#
#
# Indices 1 2 3 4 5 6 
#
# 1 55.6241 29.2169 23.3661 0.0000 5.0373 0.0000
# 2 29.2169 131.7152 32.9292 0.0000 5.7406 0.0000
# 3 23.3661 32.9292 76.2712 0.0000 5.9015 0.0000
# 4 0.0000 0.0000 0.0000 26.1888 0.0000 -7.2448
# 5 5.0373 5.7406 5.9015 0.0000 32.3381 0.0000
# 6 0.0000 0.0000 0.0000 -7.2448 0.0000 21.5639
#
#
#
# Elastic Compliance Matrix: (Units=1/GPa)
#
#
# Indices 1 2 3 4 5 6 
#
# 1 0.022163 -0.003557 -0.005108 0.000000 -0.001889 0.000000
# 2 -0.003557 0.009105 -0.002799 0.000000 -0.000552 0.000000
# 3 -0.005108 -0.002799 0.016010 0.000000 -0.001629 0.000000
# 4 0.000000 0.000000 0.000000 0.042097 0.000000 0.014143
# 5 -0.001889 -0.000552 -0.001629 0.000000 0.031613 0.000000
# 6 0.000000 0.000000 0.000000 0.014143 0.000000 0.051125
#
#
# Mechanical properties :
#
#
# Convention : Reuss Voigt Hill
#
# Bulk Modulus (GPa) = 41.06573 48.29280 44.67926
# Shear Modulus (GPa) = 24.61154 27.89136 26.25145
#
# Velocity S-wave (km/s) = 3.52246 3.74983 3.63792
# Velocity P-wave (km/s) = 6.10300 6.56466 6.33803
#
# Compressibility (1/GPa) = 0.02435121
#
# Stress axis : x y z
#
# Youngs Moduli (GPa) = 45.12066 109.83221 62.45989
#
# Poissons Ratio (x) = 0.39065 0.31904
# Poissons Ratio (y) = 0.16049 0.17480
# Poissons Ratio (z) = 0.23047 0.30737
#
# Static dielectric constant tensor:
#      x y z
#    x 1.755890 0.000000 -0.016160 
#    y 0.000000 1.713100 0.000000 
#    z -0.016160 0.000000 1.726540 
# 
# From -- ./inp_files/213903.got.cif
#   From: 2010.05.17/outbox.cif.g08.bks.cpg/sg15_107_cif.got.tgz:213903.got - 2010.06.03 18:47:42.
