data_PCOD9274826
_publ_section_title
;
Structure prediction by ZEFSAII (Michael W. Deem and Ramdas Pophale) SiO2 
 PCOD9274826
Probable space group: C 2/C
;
_chemical_formula_sum "Si O2"
_cell_formula_units_Z 56
_cell_length_a 22.702466
_cell_length_b 17.010700
_cell_length_c 8.866354
_cell_angle_alpha 90.000000
_cell_angle_beta 127.723524
_cell_angle_gamma 90.000000
_cell_volume 2708.330191
_symmetry_space_group_name_H-M "C 2/C"
_symmetry_group_IT_number 15
_symmetry_cell_setting 'monoclinic'
loop_
_space_group_symop_operation_xyz
x,y,z
-x,y,1/2-z
-x,-y,-z
x,-y,1/2+z
1/2+x,1/2+y,z
1/2-x,1/2+y,1/2-z
1/2-x,1/2-y,-z
1/2+x,1/2-y,1/2+z
loop_
_atom_site_type_symbol
_atom_site_label
_atom_site_fract_x
_atom_site_fract_y
_atom_site_fract_z
Si Si1 0.925305 0.787780 0.714296
Si Si2 0.210973 0.107822 0.386460
Si Si3 0.433171 0.197890 0.041316
Si Si4 0.056563 0.491957 0.956791
Si Si5 0.775913 0.509709 0.771805
Si Si6 0.711824 0.837699 0.029938
Si Si7 0.306833 0.217114 0.332446
O O1 0.866298 0.855567 0.673763
O O2 0.886903 0.730924 0.530018
O O3 0.000000 0.818018 0.750000
O O4 0.938024 0.736064 0.884962
O O5 0.250820 0.059392 0.585378
O O6 0.258901 0.180711 0.394481
O O7 0.215053 0.049403 0.247263
O O8 0.500000 0.226980 0.250000
O O9 0.435217 0.102680 0.046372
O O10 0.355097 0.213139 0.002210
O O11 0.000000 0.530529 0.750000
O O12 0.139616 0.525058 0.109439
O O13 0.000000 0.500000 0.000000
O O14 0.789440 0.572800 0.925516
O O15 0.781931 0.801640 0.227501
O O16 0.706286 0.830921 0.842243
#
# Coordination Sequence:
#
# PCOD9274826 Si02
#       7
#     8   8   8   8   8   8   8
#     4  12  25  42  64  95 128 170 223 279 329 381
#     4  12  24  43  65  97 127 173 221 275 328 394
#     4  10  21  39  61  92 132 162 207 266 321 391
#     4  10  21  36  57  90 129 164 198 245 313 389
#     4  11  23  40  64  90 132 170 219 265 324 392
#     4  10  20  38  65  96 121 166 206 259 325 387
#     4  11  21  39  68  93 126 160 211 267 322 390
#
# _framework density 20.676946000000001
#
# number of rings (size 3 to 8) (size 9 to 14) (size 15 to 20)
#    0.000    1.143    2.857    4.714    0.000    4.000 
#    0.000    0.714    0.000    0.000    0.000    0.000 
#    0.000    0.000    0.000    0.000    0.000    0.000 
#
# Total GULP energy -155900.332678 kJ/mol
# GULP energy per Si atom -5567.869024 kJ/mol
# Density = 2.062988 g / cm^3
# Si number density = 20.676946 Si / 1000 Ang^3
#
#
#
# Elastic Constant Matrix: (Units=GPa)
#
#
# Indices 1 2 3 4 5 6 
#
# 1 117.2178 17.1068 24.4553 0.0000 -3.1355 0.0000
# 2 17.1068 46.6007 5.9340 0.0000 2.4639 0.0000
# 3 24.4553 5.9340 104.5826 0.0000 -6.5839 0.0000
# 4 0.0000 0.0000 0.0000 17.0749 0.0000 -15.8212
# 5 -3.1355 2.4639 -6.5839 0.0000 32.1292 0.0000
# 6 0.0000 0.0000 0.0000 -15.8212 0.0000 28.1281
#
#
#
# Elastic Compliance Matrix: (Units=1/GPa)
#
#
# Indices 1 2 3 4 5 6 
#
# 1 0.009438 -0.003254 -0.001974 0.000000 0.000766 0.000000
# 2 -0.003254 0.022856 -0.000675 0.000000 -0.002209 0.000000
# 3 -0.001974 -0.000675 0.010184 0.000000 0.001946 0.000000
# 4 0.000000 0.000000 0.000000 0.122310 0.000000 0.068796
# 5 0.000766 -0.002209 0.001946 0.000000 0.031767 0.000000
# 6 0.000000 0.000000 0.000000 0.068796 0.000000 0.074247
#
#
# Mechanical properties :
#
#
# Convention : Reuss Voigt Hill
#
# Bulk Modulus (GPa) = 32.60239 40.37702 36.48971
# Shear Modulus (GPa) = 17.07455 30.19342 23.63399
#
# Velocity S-wave (km/s) = 2.87675 3.82546 3.38451
# Velocity P-wave (km/s) = 5.18035 6.25157 5.74100
#
# Compressibility (1/GPa) = 0.03067259
#
# Stress axis : x y z
#
# Youngs Moduli (GPa) = 105.95049 43.75197 98.19059
#
# Poissons Ratio (x) = 0.14236 0.19385
# Poissons Ratio (y) = 0.34475 0.06628
# Poissons Ratio (z) = 0.20917 0.02953
#
# Static dielectric constant tensor:
#      x y z
#    x 1.730660 0.000000 0.028110 
#    y 0.000000 1.326630 0.000000 
#    z 0.028110 0.000000 1.743570 
# 
# From -- ./inp_files/62793.got.cif
#   From: 2010.05.17/outbox.cif.g08.bks.cpg/sg15_32_cif.got.tgz:62793.got - 2010.06.03 18:47:42.
