data_PCOD9274975
_publ_section_title
;
Structure prediction by ZEFSAII (Michael W. Deem and Ramdas Pophale) SiO2 
 PCOD9274975
Probable space group: C 2/C
;
_chemical_formula_sum "Si O2"
_cell_formula_units_Z 52
_cell_length_a 15.257636
_cell_length_b 10.929626
_cell_length_c 16.940699
_cell_angle_alpha 90.000000
_cell_angle_beta 63.714886
_cell_angle_gamma 90.000000
_cell_volume 2532.930917
_symmetry_space_group_name_H-M "C 2/C"
_symmetry_group_IT_number 15
_symmetry_cell_setting 'monoclinic'
loop_
_space_group_symop_operation_xyz
x,y,z
-x,y,1/2-z
-x,-y,-z
x,-y,1/2+z
1/2+x,1/2+y,z
1/2-x,1/2+y,1/2-z
1/2-x,1/2-y,-z
1/2+x,1/2-y,1/2+z
loop_
_atom_site_type_symbol
_atom_site_label
_atom_site_fract_x
_atom_site_fract_y
_atom_site_fract_z
Si Si1 0.114048 0.498088 0.469002
Si Si2 0.808178 0.344106 0.920296
Si Si3 0.906476 0.849177 0.739433
Si Si4 0.721708 0.243884 0.419443
Si Si5 0.609090 0.087450 0.809287
Si Si6 0.000000 0.387476 0.750000
Si Si7 0.807104 0.010369 0.646732
O O1 0.152970 0.448615 0.535533
O O2 0.147448 0.634078 0.440316
O O3 0.147433 0.415008 0.383240
O O4 0.000000 0.500000 0.500000
O O5 0.726301 0.401199 0.896572
O O6 0.905903 0.316330 0.826623
O O7 0.750000 0.250000 0.000000
O O8 0.816344 0.804611 0.831476
O O9 0.937285 0.719599 0.687558
O O10 0.872091 0.949972 0.689395
O O11 0.000000 0.895333 0.750000
O O12 0.750000 0.250000 0.500000
O O13 0.666741 0.368258 0.413510
O O14 0.540285 0.978677 0.802999
O O15 0.706861 0.061646 0.722605
#
# Coordination Sequence:
#
# PCOD9274975 Si02
#       7
#     8   8   8   8   8   4   8
#     4  12  23  40  71 103 128 180 241 282 346 423
#     4  11  23  41  68 105 143 182 231 299 356 417
#     4  11  23  41  72  99 134 181 232 284 354 423
#     4  11  24  45  70  97 141 186 227 288 354 420
#     4  10  20  38  67 100 131 175 232 285 341 420
#     4  10  20  40  64 102 138 182 236 286 348 430
#     4  10  22  43  67  97 139 184 228 288 355 418
#
# _framework density 20.529578000000001
#
# number of rings (size 3 to 8) (size 9 to 14) (size 15 to 20)
#    0.000    1.231    5.385    0.923    2.154    0.000 
#    0.000    2.308    3.385    0.000    0.000    0.000 
#    0.000    0.000    0.000    0.000    0.000    0.000 
#
# Total GULP energy -144760.011526 kJ/mol
# GULP energy per Si atom -5567.692751 kJ/mol
# Density = 2.048285 g / cm^3
# Si number density = 20.529578 Si / 1000 Ang^3
#
#
#
# Elastic Constant Matrix: (Units=GPa)
#
#
# Indices 1 2 3 4 5 6 
#
# 1 136.9037 66.2275 30.9519 0.0000 19.0545 0.0000
# 2 66.2275 90.9898 48.0004 0.0000 -5.3105 0.0000
# 3 30.9519 48.0004 80.9827 0.0000 9.5148 0.0000
# 4 0.0000 0.0000 0.0000 31.4001 0.0000 11.0493
# 5 19.0545 -5.3105 9.5148 0.0000 39.8870 0.0000
# 6 0.0000 0.0000 0.0000 11.0493 0.0000 26.3052
#
#
#
# Elastic Compliance Matrix: (Units=1/GPa)
#
#
# Indices 1 2 3 4 5 6 
#
# 1 0.013691 -0.012030 0.002937 0.000000 -0.008843 0.000000
# 2 -0.012030 0.027393 -0.013110 0.000000 0.012522 0.000000
# 3 0.002937 -0.013110 0.019925 0.000000 -0.007901 0.000000
# 4 0.000000 0.000000 0.000000 0.037371 0.000000 -0.015697
# 5 -0.008843 0.012522 -0.007901 0.000000 0.032847 0.000000
# 6 0.000000 0.000000 0.000000 -0.015697 0.000000 0.044609
#
#
# Mechanical properties :
#
#
# Convention : Reuss Voigt Hill
#
# Bulk Modulus (GPa) = 60.23248 66.58175 63.40712
# Shear Modulus (GPa) = 22.14580 30.43154 26.28867
#
# Velocity S-wave (km/s) = 3.28796 3.85428 3.58233
# Velocity P-wave (km/s) = 6.61946 7.23255 6.93279
#
# Compressibility (1/GPa) = 0.01660234
#
# Stress axis : x y z
#
# Youngs Moduli (GPa) = 73.04124 36.50510 50.18898
#
# Poissons Ratio (x) = 0.43917 -0.14740
# Poissons Ratio (y) = 0.87872 0.65797
# Poissons Ratio (z) = -0.21452 0.47858
#
# Static dielectric constant tensor:
#      x y z
#    x 1.666550 0.000000 -0.165590 
#    y 0.000000 1.812520 0.000000 
#    z -0.165590 0.000000 2.416310 
# 
# From -- ./inp_files/203885.got.cif
#   From: 2010.05.17/outbox.cif.g08.bks.cpg/sg15_102_cif.got.tgz:203885.got - 2010.06.03 18:47:42.
