data_PCOD9274859
_publ_section_title
;
Structure prediction by ZEFSAII (Michael W. Deem and Ramdas Pophale) SiO2 
 PCOD9274859
Probable space group: C 2/C
;
_chemical_formula_sum "Si O2"
_cell_formula_units_Z 64
_cell_length_a 15.404161
_cell_length_b 8.786575
_cell_length_c 19.738903
_cell_angle_alpha 90.000000
_cell_angle_beta 74.708426
_cell_angle_gamma 90.000000
_cell_volume 2577.070118
_symmetry_space_group_name_H-M "C 2/C"
_symmetry_group_IT_number 15
_symmetry_cell_setting 'monoclinic'
loop_
_space_group_symop_operation_xyz
x,y,z
-x,y,1/2-z
-x,-y,-z
x,-y,1/2+z
1/2+x,1/2+y,z
1/2-x,1/2+y,1/2-z
1/2-x,1/2-y,-z
1/2+x,1/2-y,1/2+z
loop_
_atom_site_type_symbol
_atom_site_label
_atom_site_fract_x
_atom_site_fract_y
_atom_site_fract_z
Si Si1 0.578717 0.564998 0.034575
Si Si2 0.840393 0.126622 0.777176
Si Si3 0.081262 0.226698 0.611511
Si Si4 0.923772 0.340204 0.546543
Si Si5 0.260243 0.308666 0.155761
Si Si6 0.262486 0.589993 0.068191
Si Si7 0.349358 0.137503 0.616561
Si Si8 0.596984 0.299491 0.757169
O O1 0.565144 0.746477 0.026470
O O2 0.682231 0.516943 0.994424
O O3 0.500000 0.500000 0.000000
O O4 0.568985 0.456057 0.101165
O O5 0.752706 0.085395 0.841726
O O6 0.884300 0.977777 0.735260
O O7 0.905847 0.226489 0.810280
O O8 0.800850 0.216714 0.722013
O O9 0.172013 0.317822 0.568556
O O10 0.999659 0.298024 0.586384
O O11 0.830527 0.267820 0.592064
O O12 0.905260 0.518191 0.560383
O O13 0.247243 0.483128 0.136436
O O14 0.162606 0.240786 0.181693
O O15 0.335174 0.713939 0.074910
O O16 0.388839 0.194514 0.679871
O O17 0.500000 0.274601 0.750000
#
# Coordination Sequence:
#
# PCOD9274859 Si02
#       8
#     8   8   8   8   8   8   8   8
#     4   9  20  40  63  87 115 160 202 246 301 360
#     4  10  21  38  57  86 120 158 199 237 302 363
#     4  10  22  36  63  91 115 155 205 250 291 359
#     4  10  21  39  63  85 122 154 206 240 300 358
#     4  10  21  39  56  83 117 167 186 240 302 357
#     4  10  20  38  66  81 123 153 201 244 304 352
#     4  10  21  39  57  89 118 157 193 243 305 347
#     4  11  23  34  56  84 124 150 197 244 290 356
#
# _framework density 24.834405
#
# number of rings (size 3 to 8) (size 9 to 14) (size 15 to 20)
#    0.000    2.000    2.500    0.375    3.500    1.000 
#    0.000    5.000    2.750    0.000    0.000    0.000 
#    0.000    0.000    0.000    0.000    0.000    0.000 
#
# Total GULP energy -178619.896148 kJ/mol
# GULP energy per Si atom -5581.871755 kJ/mol
# Density = 2.477788 g / cm^3
# Si number density = 24.834405 Si / 1000 Ang^3
#
#
#
# Elastic Constant Matrix: (Units=GPa)
#
#
# Indices 1 2 3 4 5 6 
#
# 1 139.8318 35.8670 17.6524 0.0000 5.4192 0.0000
# 2 35.8670 97.7768 -10.2278 0.0000 -2.2631 0.0000
# 3 17.6524 -10.2278 20.6886 0.0000 -4.0949 0.0000
# 4 0.0000 0.0000 0.0000 10.2266 0.0000 17.5715
# 5 5.4192 -2.2631 -4.0949 0.0000 22.0853 0.0000
# 6 0.0000 0.0000 0.0000 17.5715 0.0000 12.9051
#
#
#
# Elastic Compliance Matrix: (Units=1/GPa)
#
#
# Indices 1 2 3 4 5 6 
#
# 1 0.010245 -0.005174 -0.012355 0.000000 -0.005335 0.000000
# 2 -0.005174 0.013500 0.012056 0.000000 0.004888 0.000000
# 3 -0.012355 0.012056 0.068185 0.000000 0.016910 0.000000
# 4 0.000000 0.000000 0.000000 -0.073000 0.000000 0.099396
# 5 -0.005335 0.004888 0.016910 0.000000 0.050224 0.000000
# 6 0.000000 0.000000 0.000000 0.099396 0.000000 -0.057848
#
#
# Mechanical properties :
#
#
# Convention : Reuss Voigt Hill
#
# Bulk Modulus (GPa) = 12.34828 38.32005 25.33416
# Shear Modulus (GPa) = 101.52911 23.37709 62.45310
#
# Velocity S-wave (km/s) = 6.40087 3.07142 5.02020
# Velocity P-wave (km/s) = 7.72084 5.29546 6.62017
#
# Compressibility (1/GPa) = 0.08098292
#
# Stress axis : x y z
#
# Youngs Moduli (GPa) = 97.60751 74.07621 14.66598
#
# Poissons Ratio (x) = 0.38328 0.18120
# Poissons Ratio (y) = 0.50503 -0.17681
# Poissons Ratio (z) = 1.20598 -0.89307
#
# Static dielectric constant tensor:
#      x y z
#    x 1.995240 0.000000 -0.049820 
#    y 0.000000 2.065890 0.000000 
#    z -0.049820 0.000000 2.057490 
# 
# From -- ./inp_files/273151.got.cif
#   From: 2010.05.17/outbox.cif.g08.bks.cpg/sg15_137_cif.got.tgz:273151.got - 2010.06.03 18:47:42.
