data_PCOD9274363
_publ_section_title
;
Structure prediction by ZEFSAII (Michael W. Deem and Ramdas Pophale) SiO2 
 PCOD9274363
Probable space group: C 2/C
;
_chemical_formula_sum "Si O2"
_cell_formula_units_Z 44
_cell_length_a 10.027013
_cell_length_b 12.257720
_cell_length_c 12.394724
_cell_angle_alpha 90.000000
_cell_angle_beta 86.219736
_cell_angle_gamma 90.000000
_cell_volume 1520.100088
_symmetry_space_group_name_H-M "C 2/C"
_symmetry_group_IT_number 15
_symmetry_cell_setting 'monoclinic'
loop_
_space_group_symop_operation_xyz
x,y,z
-x,y,1/2-z
-x,-y,-z
x,-y,1/2+z
1/2+x,1/2+y,z
1/2-x,1/2+y,1/2-z
1/2-x,1/2-y,-z
1/2+x,1/2-y,1/2+z
loop_
_atom_site_type_symbol
_atom_site_label
_atom_site_fract_x
_atom_site_fract_y
_atom_site_fract_z
Si Si1 0.639226 0.673549 0.055473
Si Si2 0.160060 0.998076 0.393264
Si Si3 0.604654 0.755833 0.663718
Si Si4 0.323506 0.968505 0.701352
Si Si5 0.000000 0.164700 0.250000
Si Si6 0.146914 0.632294 0.955999
O O1 0.712617 0.584496 0.129126
O O2 0.561921 0.738788 0.152917
O O3 0.750000 0.750000 0.000000
O O4 0.584839 0.596857 0.961810
O O5 0.257753 0.954584 0.295011
O O6 0.251875 0.067250 0.469586
O O7 0.071548 0.082551 0.330684
O O8 0.500000 0.693877 0.750000
O O9 0.630506 0.862515 0.735940
O O10 0.746989 0.702067 0.622017
O O11 0.557655 0.798820 0.546266
O O12 0.415916 0.040298 0.618362
#
# Coordination Sequence:
#
# PCOD9274363 Si02
#       6
#     8   8   8   8   4   8
#     4  10  21  36  60  88 126 161 199 253 307 365
#     4   9  19  38  60  89 125 159 199 252 316 359
#     4  10  21  38  65  94 115 165 219 248 305 375
#     4   9  20  38  60  86 127 164 200 252 321 359
#     4  10  20  38  62  96 118 158 210 250 304 370
#     4   9  20  40  60  87 133 160 198 265 309 361
#
# _framework density 28.945461999999999
#
# number of rings (size 3 to 8) (size 9 to 14) (size 15 to 20)
#    0.000    2.545    0.000    0.545    2.545    2.182 
#   14.727    0.000   18.000    0.000    0.000    0.000 
#    0.000    0.000    0.000    0.000    0.000    0.000 
#
# Total GULP energy -122828.605147 kJ/mol
# GULP energy per Si atom -5583.118416 kJ/mol
# Density = 2.887958 g / cm^3
# Si number density = 28.945462 Si / 1000 Ang^3
#
#
#
# Elastic Constant Matrix: (Units=GPa)
#
#
# Indices 1 2 3 4 5 6 
#
# 1 45.6946 7.4913 36.3129 0.0000 -15.4892 0.0000
# 2 7.4913 85.9329 65.4253 0.0000 -1.0651 0.0000
# 3 36.3129 65.4253 255.4336 0.0000 -33.5479 0.0000
# 4 0.0000 0.0000 0.0000 62.9511 0.0000 -1.0635
# 5 -15.4892 -1.0651 -33.5479 0.0000 44.3260 0.0000
# 6 0.0000 0.0000 0.0000 -1.0635 0.0000 41.9487
#
#
#
# Elastic Compliance Matrix: (Units=1/GPa)
#
#
# Indices 1 2 3 4 5 6 
#
# 1 0.026558 -0.000083 -0.002816 0.000000 0.007148 0.000000
# 2 -0.000083 0.014759 -0.004137 0.000000 -0.002805 0.000000
# 3 -0.002816 -0.004137 0.005810 0.000000 0.003314 0.000000
# 4 0.000000 0.000000 0.000000 0.015892 0.000000 0.000403
# 5 0.007148 -0.002805 0.003314 0.000000 0.027499 0.000000
# 6 0.000000 0.000000 0.000000 0.000403 0.000000 0.023849
#
#
# Mechanical properties :
#
#
# Convention : Reuss Voigt Hill
#
# Bulk Modulus (GPa) = 30.25131 67.28001 48.76566
# Shear Modulus (GPa) = 35.85331 48.36724 42.11028
#
# Velocity S-wave (km/s) = 3.52326 4.09220 3.81834
# Velocity P-wave (km/s) = 5.19856 6.75442 6.02691
#
# Compressibility (1/GPa) = 0.03305642
#
# Stress axis : x y z
#
# Youngs Moduli (GPa) = 37.65294 67.75455 172.11536
#
# Poissons Ratio (x) = 0.00562 0.48460
# Poissons Ratio (y) = 0.00313 0.71204
# Poissons Ratio (z) = 0.10601 0.28030
#
# Static dielectric constant tensor:
#      x y z
#    x 2.789650 0.000000 -0.257670 
#    y 0.000000 2.355270 0.000000 
#    z -0.257670 0.000000 2.349200 
# 
# From -- ./inp_files/86120.got.cif
#   From: 2010.05.17/outbox.cif.g08.bks.cpg/sg15_44_cif.got.tgz:86120.got - 2010.06.03 18:47:42.
