data_PCOD9274627
_publ_section_title
;
Structure prediction by ZEFSAII (Michael W. Deem and Ramdas Pophale) SiO2 
 PCOD9274627
Probable space group: C 2/C
;
_chemical_formula_sum "Si O2"
_cell_formula_units_Z 44
_cell_length_a 25.445561
_cell_length_b 8.125271
_cell_length_c 9.463327
_cell_angle_alpha 90.000000
_cell_angle_beta 106.482480
_cell_angle_gamma 90.000000
_cell_volume 1876.160600
_symmetry_space_group_name_H-M "C 2/C"
_symmetry_group_IT_number 15
_symmetry_cell_setting 'monoclinic'
loop_
_space_group_symop_operation_xyz
x,y,z
-x,y,1/2-z
-x,-y,-z
x,-y,1/2+z
1/2+x,1/2+y,z
1/2-x,1/2+y,1/2-z
1/2-x,1/2-y,-z
1/2+x,1/2-y,1/2+z
loop_
_atom_site_type_symbol
_atom_site_label
_atom_site_fract_x
_atom_site_fract_y
_atom_site_fract_z
Si Si1 0.419746 0.065244 0.969702
Si Si2 0.588018 0.799091 0.328763
Si Si3 0.839198 0.128477 0.436322
Si Si4 0.945598 0.992459 0.364093
Si Si5 0.500000 0.781956 0.750000
Si Si6 0.704148 0.360316 0.890092
O O1 0.471854 0.134208 0.093954
O O2 0.417644 0.881410 0.025699
O O3 0.424819 0.071126 0.805350
O O4 0.367989 0.189031 0.968945
O O5 0.556022 0.640981 0.249949
O O6 0.650309 0.749024 0.365488
O O7 0.891046 0.979969 0.916291
O O8 0.793129 0.123543 0.277511
O O9 0.811973 0.035014 0.548466
O O10 0.951342 0.831101 0.275681
O O11 0.000000 0.000000 0.500000
O O12 0.750000 0.250000 0.000000
#
# Coordination Sequence:
#
# PCOD9274627 Si02
#       6
#     8   8   8   8   4   8
#     4  10  22  39  56  90 130 166 206 268 322 389
#     4  10  23  40  60  92 132 161 219 277 324 390
#     4  10  22  43  66  96 130 170 224 277 331 405
#     4  10  20  38  64  90 123 176 221 260 321 399
#     4  12  20  38  60  86 128 176 226 248 328 400
#     4  10  23  44  69  96 123 170 225 276 336 399
#
# _framework density 23.452148000000001
#
# number of rings (size 3 to 8) (size 9 to 14) (size 15 to 20)
#    0.000    2.182    3.636    2.182    0.000    7.273 
#    0.000    1.818    0.000    0.000    0.000    0.000 
#    0.000    0.000    0.000    0.000    0.000    0.000 
#
# Total GULP energy -122837.577350 kJ/mol
# GULP energy per Si atom -5583.526243 kJ/mol
# Density = 2.339877 g / cm^3
# Si number density = 23.452148 Si / 1000 Ang^3
#
#
#
# Elastic Constant Matrix: (Units=GPa)
#
#
# Indices 1 2 3 4 5 6 
#
# 1 38.0703 11.4401 29.3410 0.0000 20.1995 0.0000
# 2 11.4401 61.3786 28.8368 0.0000 0.3813 0.0000
# 3 29.3410 28.8368 140.4692 0.0000 23.0609 0.0000
# 4 0.0000 0.0000 0.0000 54.6346 0.0000 -3.0658
# 5 20.1995 0.3813 23.0609 0.0000 43.4375 0.0000
# 6 0.0000 0.0000 0.0000 -3.0658 0.0000 36.5542
#
#
#
# Elastic Compliance Matrix: (Units=1/GPa)
#
#
# Indices 1 2 3 4 5 6 
#
# 1 0.039911 -0.005158 -0.004643 0.000000 -0.016049 0.000000
# 2 -0.005158 0.018855 -0.003462 0.000000 0.004071 0.000000
# 3 -0.004643 -0.003462 0.009246 0.000000 -0.002719 0.000000
# 4 0.000000 0.000000 0.000000 0.018390 0.000000 0.001542
# 5 -0.016049 0.004071 -0.002719 0.000000 0.031893 0.000000
# 6 0.000000 0.000000 0.000000 0.001542 0.000000 0.027486
#
#
# Mechanical properties :
#
#
# Convention : Reuss Voigt Hill
#
# Bulk Modulus (GPa) = 24.10397 42.12817 33.11607
# Shear Modulus (GPa) = 26.86239 38.27860 32.57049
#
# Velocity S-wave (km/s) = 3.38807 4.04443 3.73071
# Velocity P-wave (km/s) = 5.06020 6.30970 5.71918
#
# Compressibility (1/GPa) = 0.04148694
#
# Stress axis : x y z
#
# Youngs Moduli (GPa) = 25.05577 53.03715 108.15686
#
# Poissons Ratio (x) = 0.27356 0.50216
# Poissons Ratio (y) = 0.12923 0.37440
# Poissons Ratio (z) = 0.11633 0.18359
#
# Static dielectric constant tensor:
#      x y z
#    x 1.871480 0.000000 -0.081600 
#    y 0.000000 2.015210 0.000000 
#    z -0.081600 0.000000 1.879890 
# 
# From -- ./inp_files/68663.got.cif
#   From: 2010.05.17/outbox.cif.g08.bks.cpg/sg15_35_cif.got.tgz:68663.got - 2010.06.03 18:47:42.
