data_PCOD9274189
_publ_section_title
;
Structure prediction by ZEFSAII (Michael W. Deem and Ramdas Pophale) SiO2 
 PCOD9274189
Probable space group: C 2/C
;
_chemical_formula_sum "Si O2"
_cell_formula_units_Z 48
_cell_length_a 19.519775
_cell_length_b 8.246694
_cell_length_c 21.729007
_cell_angle_alpha 90.000000
_cell_angle_beta 36.502798
_cell_angle_gamma 90.000000
_cell_volume 2080.706504
_symmetry_space_group_name_H-M "C 2/C"
_symmetry_group_IT_number 15
_symmetry_cell_setting 'monoclinic'
loop_
_space_group_symop_operation_xyz
x,y,z
-x,y,1/2-z
-x,-y,-z
x,-y,1/2+z
1/2+x,1/2+y,z
1/2-x,1/2+y,1/2-z
1/2-x,1/2-y,-z
1/2+x,1/2-y,1/2+z
loop_
_atom_site_type_symbol
_atom_site_label
_atom_site_fract_x
_atom_site_fract_y
_atom_site_fract_z
Si Si1 0.892109 0.542751 0.792043
Si Si2 0.176827 0.118783 0.515842
Si Si3 0.307331 0.354994 0.904546
Si Si4 0.935827 0.832037 0.528847
Si Si5 0.269647 0.986480 0.269587
Si Si6 0.345117 0.851713 0.599326
O O1 0.887053 0.735441 0.807521
O O2 0.886519 0.501221 0.724847
O O3 0.000000 0.472956 0.750000
O O4 0.773545 0.476316 0.906185
O O5 0.250000 0.250000 0.500000
O O6 0.087466 0.175866 0.528034
O O7 0.132185 0.999766 0.602062
O O8 0.203142 0.396198 0.933045
O O9 0.250000 0.250000 0.000000
O O10 0.020010 0.691175 0.492069
O O11 0.814673 0.865471 0.649979
O O12 0.000000 0.000000 0.500000
O O13 0.212907 0.817987 0.333824
O O14 0.298996 0.010411 0.177935
#
# Coordination Sequence:
#
# PCOD9274189 Si02
#       6
#     8   8   8   8   8   8
#     4   9  19  37  58  79 117 157 193 241 299 353
#     4  10  21  37  60  89 119 148 198 251 297 354
#     4   9  19  40  59  80 117 158 199 238 295 371
#     4   9  19  39  61  80 117 166 189 236 307 357
#     4   9  20  37  56  85 118 149 200 247 292 360
#     4  10  20  38  62  85 119 157 201 249 301 358
#
# _framework density 23.069087
#
# number of rings (size 3 to 8) (size 9 to 14) (size 15 to 20)
#    0.000    2.667    0.000    3.000    2.333    2.667 
#   24.000    2.500    0.000    0.000    0.000    0.000 
#    0.000    0.000    0.000    0.000    0.000    0.000 
#
# Total GULP energy -133799.643700 kJ/mol
# GULP energy per Si atom -5574.985154 kJ/mol
# Density = 2.301658 g / cm^3
# Si number density = 23.069087 Si / 1000 Ang^3
#
#
#
# Elastic Constant Matrix: (Units=GPa)
#
#
# Indices 1 2 3 4 5 6 
#
# 1 177.9597 -3.0697 40.7171 0.0000 19.9621 0.0000
# 2 -3.0697 49.6696 6.1867 0.0002 6.5487 -0.0004
# 3 40.7171 6.1867 39.7963 0.0000 14.4655 0.0001
# 4 0.0000 0.0002 0.0000 28.8603 0.0000 3.5789
# 5 19.9621 6.5487 14.4655 0.0000 40.7830 0.0001
# 6 0.0000 -0.0004 0.0001 3.5789 0.0001 20.4574
#
#
#
# Elastic Compliance Matrix: (Units=1/GPa)
#
#
# Indices 1 2 3 4 5 6 
#
# 1 0.007493 0.001559 -0.007444 0.000000 -0.001277 0.000000
# 2 0.001559 0.021077 -0.003862 0.000000 -0.002778 0.000001
# 3 -0.007444 -0.003862 0.036501 0.000000 -0.008683 0.000000
# 4 0.000000 0.000000 0.000000 0.035418 0.000000 -0.006196
# 5 -0.001277 -0.002778 -0.008683 0.000000 0.028671 0.000000
# 6 0.000000 0.000001 0.000000 -0.006196 0.000000 0.049966
#
#
# Mechanical properties :
#
#
# Convention : Reuss Voigt Hill
#
# Bulk Modulus (GPa) = 21.94147 39.45488 30.69818
# Shear Modulus (GPa) = 23.38516 32.92624 28.15570
#
# Velocity S-wave (km/s) = 3.18732 3.78205 3.49735
# Velocity P-wave (km/s) = 4.80387 6.01763 5.44468
#
# Compressibility (1/GPa) = 0.04557580
#
# Stress axis : x y z
#
# Youngs Moduli (GPa) = 133.46500 47.44597 27.39683
#
# Poissons Ratio (x) = -0.07395 0.20394
# Poissons Ratio (y) = -0.20803 0.10580
# Poissons Ratio (z) = 0.99351 0.18322
#
# Static dielectric constant tensor:
#      x y z
#    x 1.928600 0.000010 0.052450 
#    y 0.000010 3.267330 0.000000 
#    z 0.052450 0.000000 1.902630 
# 
# From -- ./inp_files/247253.got.cif
#   From: 2010.05.17/outbox.cif.g08.bks.cpg/sg15_124_cif.got.tgz:247253.got - 2010.06.03 18:47:42.
