data_PCOD9274424
_publ_section_title
;
Structure prediction by ZEFSAII (Michael W. Deem and Ramdas Pophale) SiO2 
 PCOD9274424
Probable space group: C 2/C
;
_chemical_formula_sum "Si O2"
_cell_formula_units_Z 56
_cell_length_a 11.678778
_cell_length_b 13.473230
_cell_length_c 15.349713
_cell_angle_alpha 90.000000
_cell_angle_beta 79.247182
_cell_angle_gamma 90.000000
_cell_volume 2372.881024
_symmetry_space_group_name_H-M "C 2/C"
_symmetry_group_IT_number 15
_symmetry_cell_setting 'monoclinic'
loop_
_space_group_symop_operation_xyz
x,y,z
-x,y,1/2-z
-x,-y,-z
x,-y,1/2+z
1/2+x,1/2+y,z
1/2-x,1/2+y,1/2-z
1/2-x,1/2-y,-z
1/2+x,1/2-y,1/2+z
loop_
_atom_site_type_symbol
_atom_site_label
_atom_site_fract_x
_atom_site_fract_y
_atom_site_fract_z
Si Si1 0.227023 0.899833 0.681420
Si Si2 0.167350 0.118180 0.679912
Si Si3 0.926250 0.335854 0.531475
Si Si4 0.150555 0.085482 0.378564
Si Si5 0.462375 0.244594 0.850351
Si Si6 0.574969 0.360750 0.371596
Si Si7 0.307858 0.143926 0.506252
O O1 0.339110 0.899003 0.603194
O O2 0.239677 0.896675 0.784638
O O3 0.147491 0.812282 0.657694
O O4 0.151993 0.000124 0.684372
O O5 0.159689 0.160084 0.777583
O O6 0.286834 0.130341 0.611933
O O7 0.056664 0.158269 0.642914
O O8 0.925060 0.336621 0.426964
O O9 0.901866 0.219786 0.558226
O O10 0.058548 0.362683 0.536901
O O11 0.224310 0.080166 0.456796
O O12 0.058682 0.177025 0.378086
O O13 0.088782 0.977724 0.386500
O O14 0.500000 0.204891 0.750000
O O15 0.250000 0.250000 0.500000
#
# Coordination Sequence:
#
# PCOD9274424 Si02
#       7
#     8   8   8   8   8   8   8
#     4  10  23  40  62  91 127 165 208 261 311 369
#     4  10  21  39  63  90 128 162 211 258 312 367
#     4  12  25  38  64  98 125 165 208 258 317 372
#     4  10  21  40  64  92 125 162 207 264 315 361
#     4  10  20  38  63  88 122 160 210 261 309 358
#     4  10  21  38  67  95 116 163 218 263 299 366
#     4  12  24  38  61  95 130 168 201 259 319 370
#
# _framework density 23.600004999999999
#
# number of rings (size 3 to 8) (size 9 to 14) (size 15 to 20)
#    0.000    1.429    4.286    0.429    4.000    2.286 
#    0.000    0.000    0.000    0.000    0.000    0.000 
#    0.000    0.000    0.000    0.000    0.000    0.000 
#
# Total GULP energy -156352.888950 kJ/mol
# GULP energy per Si atom -5584.031748 kJ/mol
# Density = 2.354629 g / cm^3
# Si number density = 23.600005 Si / 1000 Ang^3
#
#
#
# Elastic Constant Matrix: (Units=GPa)
#
#
# Indices 1 2 3 4 5 6 
#
# 1 80.7623 -4.1520 43.1255 0.0000 -25.9276 0.0000
# 2 -4.1520 31.2467 5.1125 0.0000 -2.7830 0.0000
# 3 43.1255 5.1125 130.0882 0.0000 -30.4768 0.0000
# 4 0.0000 0.0000 0.0000 24.3854 0.0000 -3.0530
# 5 -25.9276 -2.7830 -30.4768 0.0000 35.1328 0.0000
# 6 0.0000 0.0000 0.0000 -3.0530 0.0000 15.1395
#
#
#
# Elastic Compliance Matrix: (Units=1/GPa)
#
#
# Indices 1 2 3 4 5 6 
#
# 1 0.017841 0.003886 -0.003653 0.000000 0.010305 0.000000
# 2 0.003886 0.033150 -0.001637 0.000000 0.004074 0.000000
# 3 -0.003653 -0.001637 0.010418 0.000000 0.006212 0.000000
# 4 0.000000 0.000000 0.000000 0.042070 0.000000 0.008484
# 5 0.010305 0.004074 0.006212 0.000000 0.041780 0.000000
# 6 0.000000 0.000000 0.000000 0.008484 0.000000 0.067763
#
#
# Mechanical properties :
#
#
# Convention : Reuss Voigt Hill
#
# Bulk Modulus (GPa) = 17.06419 36.69657 26.88038
# Shear Modulus (GPa) = 21.24382 28.13228 24.68805
#
# Velocity S-wave (km/s) = 3.00352 3.45635 3.23786
# Velocity P-wave (km/s) = 4.39027 5.61352 5.03915
#
# Compressibility (1/GPa) = 0.05860225
#
# Stress axis : x y z
#
# Youngs Moduli (GPa) = 56.05155 30.16551 95.99149
#
# Poissons Ratio (x) = -0.11723 0.35064
# Poissons Ratio (y) = -0.21782 0.15710
# Poissons Ratio (z) = 0.20474 0.04937
#
# Static dielectric constant tensor:
#      x y z
#    x 1.880270 0.000000 0.025570 
#    y 0.000000 1.925120 0.000000 
#    z 0.025570 0.000000 2.161290 
# 
# From -- ./inp_files/144265.got.cif
#   From: 2010.05.17/outbox.cif.g08.bks.cpg/sg15_73_cif.got.tgz:144265.got - 2010.06.03 18:47:42.
