data_PCOD9274769
_publ_section_title
;
Structure prediction by ZEFSAII (Michael W. Deem and Ramdas Pophale) SiO2 
 PCOD9274769
Probable space group: C 2/C
;
_chemical_formula_sum "Si O2"
_cell_formula_units_Z 40
_cell_length_a 10.010828
_cell_length_b 15.234263
_cell_length_c 14.004201
_cell_angle_alpha 90.000000
_cell_angle_beta 102.064083
_cell_angle_gamma 90.000000
_cell_volume 2088.577748
_symmetry_space_group_name_H-M "C 2/C"
_symmetry_group_IT_number 15
_symmetry_cell_setting 'monoclinic'
loop_
_space_group_symop_operation_xyz
x,y,z
-x,y,1/2-z
-x,-y,-z
x,-y,1/2+z
1/2+x,1/2+y,z
1/2-x,1/2+y,1/2-z
1/2-x,1/2-y,-z
1/2+x,1/2-y,1/2+z
loop_
_atom_site_type_symbol
_atom_site_label
_atom_site_fract_x
_atom_site_fract_y
_atom_site_fract_z
Si Si1 0.925009 0.897486 0.831778
Si Si2 0.149098 0.830537 0.992467
Si Si3 0.134360 0.352250 0.831948
Si Si4 0.713428 0.525574 0.015089
Si Si5 0.946887 0.158528 0.636179
O O1 0.894748 0.966475 0.912109
O O2 0.000000 0.931857 0.750000
O O3 0.027884 0.828420 0.895864
O O4 0.224505 0.924347 0.990595
O O5 0.274075 0.640468 0.290972
O O6 0.073617 0.831399 0.083002
O O7 0.250000 0.750000 0.000000
O O8 0.157673 0.424116 0.918872
O O9 0.124747 0.254061 0.871078
O O10 0.000000 0.368847 0.750000
O O11 0.654224 0.585630 0.921903
O O12 0.000000 0.139338 0.750000
#
# Coordination Sequence:
#
# PCOD9274769 Si02
#       5
#     8   8   8   8   8
#     4   9  20  37  67  88 124 161 204 253 309 369
#     4  11  24  38  60  92 131 157 209 261 312 359
#     4   9  20  37  67  88 125 158 205 249 308 368
#     4   9  21  39  61  91 121 163 208 250 301 371
#     4  10  20  38  65  89 119 166 207 244 308 383
#
# _framework density 19.151788
#
# number of rings (size 3 to 8) (size 9 to 14) (size 15 to 20)
#    1.200    1.200    0.000    3.000    5.600    3.200 
#    0.000    2.000    0.000    0.000    0.000    0.000 
#    0.000    0.000    0.000    0.000    0.000    0.000 
#
# Total GULP energy -111438.786565 kJ/mol
# GULP energy per Si atom -5571.939328 kJ/mol
# Density = 1.910820 g / cm^3
# Si number density = 19.151788 Si / 1000 Ang^3
#
#
#
# Elastic Constant Matrix: (Units=GPa)
#
#
# Indices 1 2 3 4 5 6 
#
# 1 77.7951 67.5119 41.7961 0.0000 28.4968 0.0000
# 2 67.5119 155.4168 40.1327 0.0000 26.7805 0.0000
# 3 41.7961 40.1327 104.9816 0.0000 17.7058 0.0000
# 4 0.0000 0.0000 0.0000 4.8029 0.0000 11.7443
# 5 28.4968 26.7805 17.7058 0.0000 33.4280 0.0000
# 6 0.0000 0.0000 0.0000 11.7443 0.0000 25.3567
#
#
#
# Elastic Compliance Matrix: (Units=1/GPa)
#
#
# Indices 1 2 3 4 5 6 
#
# 1 0.028569 -0.008426 -0.005692 0.000000 -0.014589 0.000000
# 2 -0.008426 0.010364 -0.000460 0.000000 -0.000877 0.000000
# 3 -0.005692 -0.000460 0.012174 0.000000 -0.001228 0.000000
# 4 0.000000 0.000000 0.000000 -1.570905 0.000000 0.727582
# 5 -0.014589 -0.000877 -0.001228 0.000000 0.043704 0.000000
# 6 0.000000 0.000000 0.000000 0.727582 0.000000 -0.297551
#
#
# Mechanical properties :
#
#
# Convention : Reuss Voigt Hill
#
# Bulk Modulus (GPa) = 45.55507 70.78607 58.17057
# Shear Modulus (GPa) = -2.87825 25.30104 11.21140
#
# Velocity S-wave (km/s) = -1.22724 3.63861 2.42212
# Velocity P-wave (km/s) = 4.67224 7.39550 6.18560
#
# Compressibility (1/GPa) = 0.02195145
#
# Stress axis : x y z
#
# Youngs Moduli (GPa) = 35.00273 96.48424 82.13897
#
# Poissons Ratio (x) = 0.81302 0.46757
# Poissons Ratio (y) = 0.29495 0.03774
# Poissons Ratio (z) = 0.19925 0.04433
#
# Static dielectric constant tensor:
#      x y z
#    x 1.679940 0.000000 0.001220 
#    y 0.000000 1.679180 0.000000 
#    z 0.001220 0.000000 1.697750 
# 
# From -- ./inp_files/86908.got.cif
#   From: 2010.05.17/outbox.cif.g08.bks.cpg/sg15_44_cif.got.tgz:86908.got - 2010.06.03 18:47:42.
