data_PCOD9274748
_publ_section_title
;
Structure prediction by ZEFSAII (Michael W. Deem and Ramdas Pophale) SiO2 
 PCOD9274748
Probable space group: C 2/C
;
_chemical_formula_sum "Si O2"
_cell_formula_units_Z 56
_cell_length_a 9.193585
_cell_length_b 28.122087
_cell_length_c 21.581384
_cell_angle_alpha 90.000000
_cell_angle_beta 149.968693
_cell_angle_gamma 90.000000
_cell_volume 2792.495625
_symmetry_space_group_name_H-M "C 2/C"
_symmetry_group_IT_number 15
_symmetry_cell_setting 'monoclinic'
loop_
_space_group_symop_operation_xyz
x,y,z
-x,y,1/2-z
-x,-y,-z
x,-y,1/2+z
1/2+x,1/2+y,z
1/2-x,1/2+y,1/2-z
1/2-x,1/2-y,-z
1/2+x,1/2-y,1/2+z
loop_
_atom_site_type_symbol
_atom_site_label
_atom_site_fract_x
_atom_site_fract_y
_atom_site_fract_z
Si Si1 0.628563 0.979279 0.483893
Si Si2 0.837113 0.682026 0.006008
Si Si3 0.664309 0.144667 0.244717
Si Si4 0.729607 0.693850 0.503746
Si Si5 0.333162 0.277498 0.387050
Si Si6 0.186582 0.958404 0.753907
Si Si7 0.837824 0.621899 0.889247
O O1 0.521326 0.924882 0.441076
O O2 0.972733 0.980565 0.622888
O O3 0.500000 0.000000 0.500000
O O4 0.469939 0.009869 0.372662
O O5 0.977068 0.672451 0.124494
O O6 0.002065 0.727920 0.039723
O O7 0.505173 0.697331 0.894835
O O8 0.867106 0.637372 0.971861
O O9 0.500000 0.141820 0.250000
O O10 0.726414 0.093190 0.238489
O O11 0.969512 0.171311 0.368140
O O12 0.750000 0.750000 0.500000
O O13 0.656040 0.689273 0.548960
O O14 0.023251 0.665938 0.596360
O O15 0.000000 0.267417 0.250000
O O16 0.000000 0.954893 0.750000
O O17 0.500000 0.614090 0.750000
#
# Coordination Sequence:
#
# PCOD9274748 Si02
#       7
#     8   8   8   8   8   8   8
#     4  10  20  38  65 100 130 161 218 280 340 390
#     4  11  24  40  63  93 126 178 225 262 331 389
#     4  12  25  43  66  95 134 176 228 271 324 407
#     4  12  24  41  64  95 137 175 219 271 327 392
#     4  11  23  42  59  88 132 177 218 273 323 388
#     4  10  21  40  70  97 130 169 219 282 343 400
#     4  12  24  40  67 102 132 169 222 278 335 401
#
# _framework density 20.053746
#
# number of rings (size 3 to 8) (size 9 to 14) (size 15 to 20)
#    0.000    0.857    4.286    4.714    0.000    1.714 
#    0.000    0.714    0.000    0.000    0.000    0.000 
#    0.000    0.000    0.000    0.000    0.000    0.000 
#
# Total GULP energy -156470.663211 kJ/mol
# GULP energy per Si atom -5588.237972 kJ/mol
# Density = 2.000810 g / cm^3
# Si number density = 20.053746 Si / 1000 Ang^3
#
#
#
# Elastic Constant Matrix: (Units=GPa)
#
#
# Indices 1 2 3 4 5 6 
#
# 1 60.5613 10.2895 28.8689 -0.0001 -5.7520 -0.0011
# 2 10.2895 96.4170 30.2519 -0.0012 -6.9837 -0.0008
# 3 28.8689 30.2519 124.6778 0.0004 2.6842 -0.0020
# 4 -0.0001 -0.0012 0.0004 36.8472 0.0003 -5.4304
# 5 -5.7520 -6.9837 2.6842 0.0003 26.9362 -0.0017
# 6 -0.0011 -0.0008 -0.0020 -5.4304 -0.0017 24.3091
#
#
#
# Elastic Compliance Matrix: (Units=1/GPa)
#
#
# Indices 1 2 3 4 5 6 
#
# 1 0.019106 -0.000324 -0.004441 0.000000 0.004438 0.000001
# 2 -0.000324 0.011512 -0.002787 0.000000 0.003193 0.000000
# 3 -0.004441 -0.002787 0.009782 0.000000 -0.002646 0.000000
# 4 0.000000 0.000000 0.000000 0.028063 0.000000 0.006269
# 5 0.004438 0.003193 -0.002646 0.000000 0.039164 0.000003
# 6 0.000001 0.000000 0.000000 0.006269 0.000003 0.042537
#
#
# Mechanical properties :
#
#
# Convention : Reuss Voigt Hill
#
# Bulk Modulus (GPa) = 39.53192 46.71962 43.12577
# Shear Modulus (GPa) = 28.78530 31.76823 30.27676
#
# Velocity S-wave (km/s) = 3.79279 3.98446 3.88981
# Velocity P-wave (km/s) = 6.23988 6.67201 6.45956
#
# Compressibility (1/GPa) = 0.02529601
#
# Stress axis : x y z
#
# Youngs Moduli (GPa) = 52.34044 86.86644 102.22738
#
# Poissons Ratio (x) = 0.02815 0.45397
# Poissons Ratio (y) = 0.01696 0.28490
# Poissons Ratio (z) = 0.23243 0.24209
#
# Static dielectric constant tensor:
#      x y z
#    x 1.714070 0.000000 -0.013470 
#    y 0.000000 1.661970 -0.000010 
#    z -0.013470 -0.000010 1.741390 
# 
# From -- ./inp_files/234971.got.cif
#   From: 2010.05.17/outbox.cif.g08.bks.cpg/sg15_118_cif.got.tgz:234971.got - 2010.06.03 18:47:42.
