data_PCOD9274423
_publ_section_title
;
Structure prediction by ZEFSAII (Michael W. Deem and Ramdas Pophale) SiO2 
 PCOD9274423
Probable space group: C 2/C
;
_chemical_formula_sum "Si O2"
_cell_formula_units_Z 56
_cell_length_a 17.073603
_cell_length_b 8.554654
_cell_length_c 21.445478
_cell_angle_alpha 90.000000
_cell_angle_beta 120.811187
_cell_angle_gamma 90.000000
_cell_volume 2690.206927
_symmetry_space_group_name_H-M "C 2/C"
_symmetry_group_IT_number 15
_symmetry_cell_setting 'monoclinic'
loop_
_space_group_symop_operation_xyz
x,y,z
-x,y,1/2-z
-x,-y,-z
x,-y,1/2+z
1/2+x,1/2+y,z
1/2-x,1/2+y,1/2-z
1/2-x,1/2-y,-z
1/2+x,1/2-y,1/2+z
loop_
_atom_site_type_symbol
_atom_site_label
_atom_site_fract_x
_atom_site_fract_y
_atom_site_fract_z
Si Si1 0.497674 0.068723 0.091237
Si Si2 0.846993 0.501537 0.757564
Si Si3 0.311506 0.737601 0.345513
Si Si4 0.852373 0.524950 0.128061
Si Si5 0.682896 0.385227 0.997435
Si Si6 0.492101 0.744183 0.472150
Si Si7 0.707687 0.336966 0.421520
O O1 0.575676 0.093124 0.174043
O O2 0.409460 0.997177 0.089481
O O3 0.525334 0.918625 0.061864
O O4 0.485383 0.221178 0.043307
O O5 0.762070 0.391083 0.705582
O O6 0.822705 0.646692 0.791502
O O7 0.883846 0.552122 0.704615
O O8 0.405730 0.657276 0.406878
O O9 0.278547 0.839485 0.392885
O O10 0.747905 0.475629 0.073226
O O11 0.863468 0.713037 0.135417
O O12 0.750000 0.250000 0.000000
O O13 0.588764 0.325208 0.989303
O O14 0.669914 0.502691 0.933527
O O15 0.750000 0.250000 0.500000
#
# Coordination Sequence:
#
# PCOD9274423 Si02
#       7
#     8   8   8   8   8   8   8
#     4  10  20  38  63  88 122 160 209 253 314 373
#     4  10  23  38  63  85 124 166 206 252 318 384
#     4  10  22  42  62  89 126 166 211 262 323 376
#     4  10  20  39  58  88 124 163 203 246 320 381
#     4  11  21  34  62  93 120 155 212 257 308 371
#     4  10  21  36  61  95 118 156 207 267 309 361
#     4   9  20  38  58  85 124 165 196 259 318 369
#
# _framework density 20.816243
#
# number of rings (size 3 to 8) (size 9 to 14) (size 15 to 20)
#    0.000    2.000    1.429    2.143    6.000    0.000 
#    2.571    7.143    0.000    0.000    0.000    0.000 
#    0.000    0.000    0.000    0.000    0.000    0.000 
#
# Total GULP energy -155873.212807 kJ/mol
# GULP energy per Si atom -5566.900457 kJ/mol
# Density = 2.076886 g / cm^3
# Si number density = 20.816243 Si / 1000 Ang^3
#
#
#
# Elastic Constant Matrix: (Units=GPa)
#
#
# Indices 1 2 3 4 5 6 
#
# 1 102.8452 15.2739 59.2975 0.0000 5.0172 0.0000
# 2 15.2739 50.6050 25.8675 0.0000 -0.4256 0.0000
# 3 59.2975 25.8675 108.0415 0.0000 6.4468 0.0000
# 4 0.0000 0.0000 0.0000 24.4331 0.0000 -3.8646
# 5 5.0172 -0.4256 6.4468 0.0000 48.2228 0.0000
# 6 0.0000 0.0000 0.0000 -3.8646 0.0000 33.6703
#
#
#
# Elastic Compliance Matrix: (Units=1/GPa)
#
#
# Indices 1 2 3 4 5 6 
#
# 1 0.014240 -0.000365 -0.007701 0.000000 -0.000455 0.000000
# 2 -0.000365 0.022567 -0.005259 0.000000 0.000940 0.000000
# 3 -0.007701 -0.005259 0.014814 0.000000 -0.001226 0.000000
# 4 0.000000 0.000000 0.000000 0.041685 0.000000 0.004784
# 5 -0.000455 0.000940 -0.001226 0.000000 0.020957 0.000000
# 6 0.000000 0.000000 0.000000 0.004784 0.000000 0.030249
#
#
# Mechanical properties :
#
#
# Convention : Reuss Voigt Hill
#
# Bulk Modulus (GPa) = 40.04525 51.37438 45.70982
# Shear Modulus (GPa) = 27.85746 32.00208 29.92977
#
# Velocity S-wave (km/s) = 3.66219 3.92517 3.79596
# Velocity P-wave (km/s) = 6.09602 6.72876 6.42019
#
# Compressibility (1/GPa) = 0.02497175
#
# Stress axis : x y z
#
# Youngs Moduli (GPa) = 70.22545 44.31229 67.50224
#
# Poissons Ratio (x) = 0.01619 0.51982
# Poissons Ratio (y) = 0.02566 0.35497
# Poissons Ratio (z) = 0.54079 0.23302
#
# Static dielectric constant tensor:
#      x y z
#    x 1.880040 0.000000 -0.032450 
#    y 0.000000 1.793210 0.000000 
#    z -0.032450 0.000000 1.798610 
# 
# From -- ./inp_files/247588.got.cif
#   From: 2010.05.17/outbox.cif.g08.bks.cpg/sg15_124_cif.got.tgz:247588.got - 2010.06.03 18:47:42.
