data_PCOD9274734
_publ_section_title
;
Structure prediction by ZEFSAII (Michael W. Deem and Ramdas Pophale) SiO2 
 PCOD9274734
Probable space group: C 2/C
;
_chemical_formula_sum "Si O2"
_cell_formula_units_Z 60
_cell_length_a 19.659280
_cell_length_b 15.360083
_cell_length_c 13.355825
_cell_angle_alpha 90.000000
_cell_angle_beta 43.934851
_cell_angle_gamma 90.000000
_cell_volume 2798.280300
_symmetry_space_group_name_H-M "C 2/C"
_symmetry_group_IT_number 15
_symmetry_cell_setting 'monoclinic'
loop_
_space_group_symop_operation_xyz
x,y,z
-x,y,1/2-z
-x,-y,-z
x,-y,1/2+z
1/2+x,1/2+y,z
1/2-x,1/2+y,1/2-z
1/2-x,1/2-y,-z
1/2+x,1/2-y,1/2+z
loop_
_atom_site_type_symbol
_atom_site_label
_atom_site_fract_x
_atom_site_fract_y
_atom_site_fract_z
Si Si1 0.876608 0.387978 0.235780
Si Si2 0.910188 0.002260 0.924031
Si Si3 0.500000 0.216727 0.750000
Si Si4 0.652227 0.757920 0.784961
Si Si5 0.172018 0.656021 0.939780
Si Si6 0.961825 0.816949 0.404484
Si Si7 0.831747 0.818317 0.026249
Si Si8 0.308526 0.067998 0.381354
O O1 0.969983 0.342712 0.187129
O O2 0.863156 0.375952 0.131039
O O3 0.777984 0.344199 0.387831
O O4 0.868885 0.488866 0.270645
O O5 0.000000 0.988386 0.750000
O O6 0.941402 0.084431 0.959226
O O7 0.881859 0.910646 0.004712
O O8 0.805679 0.037279 0.989825
O O9 0.593268 0.277474 0.630875
O O10 0.712391 0.675638 0.677548
O O11 0.540170 0.733732 0.887424
O O12 0.677507 0.751364 0.874692
O O13 0.678912 0.847016 0.701654
O O14 0.129376 0.752460 0.000966
O O15 0.148759 0.593381 0.055748
O O16 0.000000 0.822568 0.250000
#
# Coordination Sequence:
#
# PCOD9274734 Si02
#       8
#     8   8   4   8   8   8   8   8
#     4  10  26  41  67  97 124 171 223 262 322 392
#     4  10  20  38  64  98 124 169 223 270 323 377
#     4  12  22  48  66  88 134 174 212 268 328 386
#     4  11  22  38  62  96 130 173 213 263 326 388
#     4  11  21  42  63  93 129 166 214 264 323 387
#     4  11  20  33  63  93 124 169 213 260 329 376
#     4  10  23  42  66  93 131 172 218 264 325 390
#     4  11  22  42  65  94 136 171 209 276 324 376
#
# _framework density 21.441739999999999
#
# number of rings (size 3 to 8) (size 9 to 14) (size 15 to 20)
#    0.000    1.333    3.333    3.200    0.000    2.667 
#    0.000    4.667    0.000    0.000    0.000    0.000 
#    0.000    0.000    0.000    0.000    0.000    0.000 
#
# Total GULP energy -167385.212051 kJ/mol
# GULP energy per Si atom -5579.507068 kJ/mol
# Density = 2.139294 g / cm^3
# Si number density = 21.441740 Si / 1000 Ang^3
#
#
#
# Elastic Constant Matrix: (Units=GPa)
#
#
# Indices 1 2 3 4 5 6 
#
# 1 58.5607 53.6936 10.9511 0.0000 -1.8475 0.0000
# 2 53.6936 128.6875 40.6763 0.0000 17.1017 0.0000
# 3 10.9511 40.6763 44.0495 0.0000 6.4525 0.0000
# 4 0.0000 0.0000 0.0000 12.8391 0.0000 -8.0371
# 5 -1.8475 17.1017 6.4525 0.0000 28.1935 0.0000
# 6 0.0000 0.0000 0.0000 -8.0371 0.0000 5.6458
#
#
#
# Elastic Compliance Matrix: (Units=1/GPa)
#
#
# Indices 1 2 3 4 5 6 
#
# 1 0.031234 -0.016233 0.005673 0.000000 0.010595 0.000000
# 2 -0.016233 0.019988 -0.012923 0.000000 -0.010231 0.000000
# 3 0.005673 -0.012923 0.033133 0.000000 0.000628 0.000000
# 4 0.000000 0.000000 0.000000 0.715414 0.000000 1.018434
# 5 0.010595 -0.010231 0.000628 0.000000 0.042225 0.000000
# 6 0.000000 0.000000 0.000000 1.018434 0.000000 1.626922
#
#
# Mechanical properties :
#
#
# Convention : Reuss Voigt Hill
#
# Bulk Modulus (GPa) = 26.74637 49.10439 37.92538
# Shear Modulus (GPa) = 1.97758 17.73413 9.85585
#
# Velocity S-wave (km/s) = 0.96141 2.87903 2.14629
# Velocity P-wave (km/s) = 3.70587 5.83119 4.88550
#
# Compressibility (1/GPa) = 0.03738826
#
# Stress axis : x y z
#
# Youngs Moduli (GPa) = 32.01682 50.02917 30.18126
#
# Poissons Ratio (x) = 0.81213 -0.17122
# Poissons Ratio (y) = 0.51973 0.39004
# Poissons Ratio (z) = -0.18163 0.64655
#
# Static dielectric constant tensor:
#      x y z
#    x 1.775010 0.000000 -0.014600 
#    y 0.000000 1.755600 0.000000 
#    z -0.014600 0.000000 1.848880 
# 
# From -- ./inp_files/168610.got.cif
#   From: 2010.05.17/outbox.cif.g08.bks.cpg/sg15_85_cif.got.tgz:168610.got - 2010.06.03 18:47:42.
