data_PCOD9274175
_publ_section_title
;
Structure prediction by ZEFSAII (Michael W. Deem and Ramdas Pophale) SiO2 
 PCOD9274175
Probable space group: C 2/C
;
_chemical_formula_sum "Si O2"
_cell_formula_units_Z 48
_cell_length_a 7.124273
_cell_length_b 12.279351
_cell_length_c 24.748614
_cell_angle_alpha 90.000000
_cell_angle_beta 113.458936
_cell_angle_gamma 90.000000
_cell_volume 1986.094195
_symmetry_space_group_name_H-M "C 2/C"
_symmetry_group_IT_number 15
_symmetry_cell_setting 'monoclinic'
loop_
_space_group_symop_operation_xyz
x,y,z
-x,y,1/2-z
-x,-y,-z
x,-y,1/2+z
1/2+x,1/2+y,z
1/2-x,1/2+y,1/2-z
1/2-x,1/2-y,-z
1/2+x,1/2-y,1/2+z
loop_
_atom_site_type_symbol
_atom_site_label
_atom_site_fract_x
_atom_site_fract_y
_atom_site_fract_z
Si Si1 0.025559 0.793800 0.087771
Si Si2 0.307739 0.327988 0.768733
Si Si3 0.531631 0.527781 0.374748
Si Si4 0.021431 0.204463 0.464815
Si Si5 0.440525 0.084418 0.354210
Si Si6 0.500667 0.161747 0.636732
O O1 0.943698 0.678099 0.099624
O O2 0.275854 0.784668 0.119460
O O3 0.982677 0.900322 0.117518
O O4 0.952525 0.812420 0.018219
O O5 0.500000 0.329782 0.750000
O O6 0.350985 0.420804 0.817932
O O7 0.119050 0.358728 0.709196
O O8 0.335200 0.213182 0.802912
O O9 0.528102 0.594254 0.430549
O O10 0.737616 0.553948 0.365406
O O11 0.250000 0.250000 0.500000
O O12 0.932662 0.298543 0.415297
O O13 0.537115 0.965748 0.360319
#
# Coordination Sequence:
#
# PCOD9274175 Si02
#       6
#     8   8   8   8   8   8
#     4  11  21  39  61  87 118 152 195 234 292 343
#     4   9  18  38  60  78 115 157 187 235 292 337
#     4  10  20  38  62  84 117 153 191 241 289 334
#     4   9  17  39  62  82 115 162 186 233 293 344
#     4  11  22  38  60  86 115 157 191 239 294 337
#     4  10  21  38  63  82 118 154 195 234 291 347
#
# _framework density 24.168037000000002
#
# number of rings (size 3 to 8) (size 9 to 14) (size 15 to 20)
#    0.000    2.000    6.667    0.500    2.333    0.667 
#    6.000    0.833    0.000    0.000    0.000    0.000 
#    0.000    0.000    0.000    0.000    0.000    0.000 
#
# Total GULP energy -134176.210320 kJ/mol
# GULP energy per Si atom -5590.675430 kJ/mol
# Density = 2.411303 g / cm^3
# Si number density = 24.168037 Si / 1000 Ang^3
#
#
#
# Elastic Constant Matrix: (Units=GPa)
#
#
# Indices 1 2 3 4 5 6 
#
# 1 49.3412 5.2105 6.2099 0.0000 3.5602 0.0000
# 2 5.2105 164.5419 52.3641 0.0000 -12.4713 0.0000
# 3 6.2099 52.3641 133.1444 0.0000 -14.8147 0.0000
# 4 0.0000 0.0000 0.0000 20.6892 0.0000 -8.2048
# 5 3.5602 -12.4713 -14.8147 0.0000 22.8031 0.0000
# 6 0.0000 0.0000 0.0000 -8.2048 0.0000 37.4965
#
#
#
# Elastic Compliance Matrix: (Units=1/GPa)
#
#
# Indices 1 2 3 4 5 6 
#
# 1 0.020799 -0.000602 -0.001220 0.000000 -0.004369 0.000000
# 2 -0.000602 0.007067 -0.002491 0.000000 0.002341 0.000000
# 3 -0.001220 -0.002491 0.009073 0.000000 0.004722 0.000000
# 4 0.000000 0.000000 0.000000 0.052927 0.000000 0.011581
# 5 -0.004369 0.002341 0.004722 0.000000 0.048884 0.000000
# 6 0.000000 0.000000 0.000000 0.011581 0.000000 0.029203
#
#
# Mechanical properties :
#
#
# Convention : Reuss Voigt Hill
#
# Bulk Modulus (GPa) = 35.31750 52.73293 44.02522
# Shear Modulus (GPa) = 26.87954 35.08062 30.98008
#
# Velocity S-wave (km/s) = 3.33858 3.81403 3.58419
# Velocity P-wave (km/s) = 5.43199 6.42358 5.94848
#
# Compressibility (1/GPa) = 0.02831457
#
# Stress axis : x y z
#
# Youngs Moduli (GPa) = 48.07860 141.51117 110.22262
#
# Poissons Ratio (x) = 0.08514 0.13442
# Poissons Ratio (y) = 0.02893 0.27453
# Poissons Ratio (z) = 0.05863 0.35246
#
# Static dielectric constant tensor:
#      x y z
#    x 2.035580 0.000000 -0.014010 
#    y 0.000000 1.854360 0.000000 
#    z -0.014010 0.000000 1.920660 
# 
# From -- ./inp_files/263067.got.cif
#   From: 2010.05.17/outbox.cif.g08.bks.cpg/sg15_132_cif.got.tgz:263067.got - 2010.06.03 18:47:42.
