data_PCOD9274918
_publ_section_title
;
Structure prediction by ZEFSAII (Michael W. Deem and Ramdas Pophale) SiO2 
 PCOD9274918
Probable space group: C 2/C
;
_chemical_formula_sum "Si O2"
_cell_formula_units_Z 56
_cell_length_a 11.002333
_cell_length_b 28.615819
_cell_length_c 11.564311
_cell_angle_alpha 90.000000
_cell_angle_beta 54.068419
_cell_angle_gamma 90.000000
_cell_volume 2948.116829
_symmetry_space_group_name_H-M "C 2/C"
_symmetry_group_IT_number 15
_symmetry_cell_setting 'monoclinic'
loop_
_space_group_symop_operation_xyz
x,y,z
-x,y,1/2-z
-x,-y,-z
x,-y,1/2+z
1/2+x,1/2+y,z
1/2-x,1/2+y,1/2-z
1/2-x,1/2-y,-z
1/2+x,1/2-y,1/2+z
loop_
_atom_site_type_symbol
_atom_site_label
_atom_site_fract_x
_atom_site_fract_y
_atom_site_fract_z
Si Si1 0.064979 0.889460 0.586507
Si Si2 0.000000 0.628212 0.250000
Si Si3 0.714810 0.803829 0.056791
Si Si4 0.086354 0.008870 0.076386
Si Si5 0.000000 0.842870 0.250000
Si Si6 0.678132 0.590469 0.474027
Si Si7 0.757890 0.276588 0.209698
Si Si8 0.456452 0.199325 0.072233
O O1 0.151947 0.841829 0.509770
O O2 0.155794 0.938876 0.530683
O O3 0.000000 0.883220 0.750000
O O4 0.928303 0.900664 0.577059
O O5 0.845406 0.601011 0.341227
O O6 0.002542 0.659866 0.134653
O O7 0.666636 0.797281 0.215992
O O8 0.750000 0.750000 0.000000
O O9 0.611252 0.820359 0.009234
O O10 0.000000 0.009224 0.250000
O O11 0.181052 0.961602 0.024737
O O12 0.000000 0.000000 0.000000
O O13 0.900049 0.875444 0.389093
O O14 0.875379 0.810485 0.257757
O O15 0.672591 0.229503 0.293322
O O16 0.893892 0.271232 0.043542
#
# Coordination Sequence:
#
# PCOD9274918 Si02
#       8
#     8   4   8   8   4   8   8   8
#     4  10  20  38  66  93 121 161 214 256 308 371
#     4  12  25  38  60  92 130 162 199 256 320 376
#     4  10  22  38  60  88 119 161 207 256 304 365
#     4   9  19  36  64  97 122 158 211 264 310 379
#     4  12  21  38  66  88 120 164 209 248 314 374
#     4  11  22  39  65  93 128 161 206 256 317 381
#     4  11  24  40  60  87 121 163 207 263 306 374
#     4  11  25  40  59  87 124 163 211 253 316 371
#
# _framework density 18.995176000000001
#
# number of rings (size 3 to 8) (size 9 to 14) (size 15 to 20)
#    0.000    1.429    3.571    1.714    2.000    5.714 
#    0.000    0.000    3.143    8.571    0.000    0.000 
#    0.000    0.000    0.000    0.000    0.000    0.000 
#
# Total GULP energy -155888.940094 kJ/mol
# GULP energy per Si atom -5567.462146 kJ/mol
# Density = 1.895194 g / cm^3
# Si number density = 18.995176 Si / 1000 Ang^3
#
#
#
# Elastic Constant Matrix: (Units=GPa)
#
#
# Indices 1 2 3 4 5 6 
#
# 1 76.2562 23.1180 19.2500 0.0000 0.1044 0.0000
# 2 23.1180 82.4040 18.4844 0.0000 -6.1211 0.0000
# 3 19.2500 18.4844 79.3061 0.0000 -7.0973 0.0000
# 4 0.0000 0.0000 0.0000 18.8959 0.0000 5.8897
# 5 0.1044 -6.1211 -7.0973 0.0000 36.8801 0.0000
# 6 0.0000 0.0000 0.0000 5.8897 0.0000 15.5286
#
#
#
# Elastic Compliance Matrix: (Units=1/GPa)
#
#
# Indices 1 2 3 4 5 6 
#
# 1 0.014946 -0.003634 -0.002888 0.000000 -0.001201 0.000000
# 2 -0.003634 0.013779 -0.002161 0.000000 0.001881 0.000000
# 3 -0.002888 -0.002161 0.014024 0.000000 0.002348 0.000000
# 4 0.000000 0.000000 0.000000 0.060017 0.000000 -0.022763
# 5 -0.001201 0.001881 0.002348 0.000000 0.027882 0.000000
# 6 0.000000 0.000000 0.000000 -0.022763 0.000000 0.073031
#
#
# Mechanical properties :
#
#
# Convention : Reuss Voigt Hill
#
# Bulk Modulus (GPa) = 39.39752 39.96347 39.68049
# Shear Modulus (GPa) = 21.78568 26.06851 23.92710
#
# Velocity S-wave (km/s) = 3.39027 3.70858 3.55299
# Velocity P-wave (km/s) = 6.00925 6.27873 6.14547
#
# Compressibility (1/GPa) = 0.02538231
#
# Stress axis : x y z
#
# Youngs Moduli (GPa) = 66.90626 72.57162 71.30473
#
# Poissons Ratio (x) = 0.26376 0.20595
# Poissons Ratio (y) = 0.24317 0.15410
# Poissons Ratio (z) = 0.19325 0.15684
#
# Static dielectric constant tensor:
#      x y z
#    x 1.688690 0.000000 0.006720 
#    y 0.000000 1.687080 0.000000 
#    z 0.006720 0.000000 1.682370 
# 
# From -- ./inp_files/92034.got.cif
#   From: 2010.05.17/outbox.cif.g08.bks.cpg/sg15_47_cif.got.tgz:92034.got - 2010.06.03 18:47:42.
