data_PCOD9274446
_publ_section_title
;
Structure prediction by ZEFSAII (Michael W. Deem and Ramdas Pophale) SiO2 
 PCOD9274446
Probable space group: C 2/C
;
_chemical_formula_sum "Si O2"
_cell_formula_units_Z 44
_cell_length_a 27.299463
_cell_length_b 9.300347
_cell_length_c 10.689674
_cell_angle_alpha 90.000000
_cell_angle_beta 129.662791
_cell_angle_gamma 90.000000
_cell_volume 2089.313678
_symmetry_space_group_name_H-M "C 2/C"
_symmetry_group_IT_number 15
_symmetry_cell_setting 'monoclinic'
loop_
_space_group_symop_operation_xyz
x,y,z
-x,y,1/2-z
-x,-y,-z
x,-y,1/2+z
1/2+x,1/2+y,z
1/2-x,1/2+y,1/2-z
1/2-x,1/2-y,-z
1/2+x,1/2-y,1/2+z
loop_
_atom_site_type_symbol
_atom_site_label
_atom_site_fract_x
_atom_site_fract_y
_atom_site_fract_z
Si Si1 0.244965 0.418852 0.336211
Si Si2 0.378708 0.420175 0.412142
Si Si3 0.882467 0.410796 0.886245
Si Si4 0.676265 0.335209 0.814507
Si Si5 0.417607 0.116466 0.723566
Si Si6 0.500000 0.340741 0.750000
O O1 0.308772 0.431934 0.360369
O O2 0.190555 0.535348 0.227835
O O3 0.270879 0.419394 0.520842
O O4 0.209935 0.263823 0.265124
O O5 0.383370 0.259848 0.364588
O O6 0.376975 0.554615 0.317149
O O7 0.438978 0.427675 0.603303
O O8 0.916385 0.499612 0.830793
O O9 0.910936 0.441340 0.071153
O O10 0.643499 0.218266 0.851672
O O11 0.475393 0.229758 0.816585
#
# Coordination Sequence:
#
# PCOD9274446 Si02
#       6
#     8   8   8   8   8   4
#     4  10  20  38  63  90 124 162 197 263 308 377
#     4  11  22  38  61  93 119 172 200 259 305 376
#     4  10  22  40  65  92 127 157 213 250 321 360
#     4  10  21  39  63  87 129 160 205 254 326 356
#     4  10  22  44  61  93 122 172 199 262 306 375
#     4  10  22  42  66  84 132 158 218 252 316 360
#
# _framework density 21.059546999999998
#
# number of rings (size 3 to 8) (size 9 to 14) (size 15 to 20)
#    0.000    1.818    3.636    1.091    5.091    4.364 
#    6.545    0.000    0.000   18.545    0.000    0.000 
#    0.000    0.000    0.000    0.000    0.000    0.000 
#
# Total GULP energy -122682.022798 kJ/mol
# GULP energy per Si atom -5576.455582 kJ/mol
# Density = 2.101161 g / cm^3
# Si number density = 21.059547 Si / 1000 Ang^3
#
#
#
# Elastic Constant Matrix: (Units=GPa)
#
#
# Indices 1 2 3 4 5 6 
#
# 1 69.3275 7.3316 22.4807 0.0000 2.7565 0.0000
# 2 7.3316 79.8956 56.1692 0.0000 -10.8739 0.0000
# 3 22.4807 56.1692 100.3570 0.0000 5.5174 0.0000
# 4 0.0000 0.0000 0.0000 37.8232 0.0000 -0.5896
# 5 2.7565 -10.8739 5.5174 0.0000 32.8417 0.0000
# 6 0.0000 0.0000 0.0000 -0.5896 0.0000 16.7776
#
#
#
# Elastic Compliance Matrix: (Units=1/GPa)
#
#
# Indices 1 2 3 4 5 6 
#
# 1 0.015693 0.001699 -0.004466 0.000000 -0.000004 0.000000
# 2 0.001699 0.023732 -0.014219 0.000000 0.010104 0.000000
# 3 -0.004466 -0.014219 0.019340 0.000000 -0.007582 0.000000
# 4 0.000000 0.000000 0.000000 0.026453 0.000000 0.000930
# 5 -0.000004 0.010104 -0.007582 0.000000 0.035069 0.000000
# 6 0.000000 0.000000 0.000000 0.000930 0.000000 0.059636
#
#
# Mechanical properties :
#
#
# Convention : Reuss Voigt Hill
#
# Bulk Modulus (GPa) = 40.33333 46.83811 43.58572
# Shear Modulus (GPa) = 22.50654 28.39507 25.45081
#
# Velocity S-wave (km/s) = 3.27266 3.67594 3.48014
# Velocity P-wave (km/s) = 5.78567 6.34868 6.07370
#
# Compressibility (1/GPa) = 0.02479339
#
# Stress axis : x y z
#
# Youngs Moduli (GPa) = 63.72267 42.13781 51.70691
#
# Poissons Ratio (x) = -0.07160 0.23093
# Poissons Ratio (y) = -0.10828 0.73520
# Poissons Ratio (z) = 0.28459 0.59914
#
# Static dielectric constant tensor:
#      x y z
#    x 1.863140 0.000000 -0.010170 
#    y 0.000000 1.773760 0.000000 
#    z -0.010170 0.000000 1.773620 
# 
# From -- ./inp_files/122121.got.cif
#   From: 2010.05.17/outbox.cif.g08.bks.cpg/sg15_62_cif.got.tgz:122121.got - 2010.06.03 18:47:42.
