data_PCOD9274087
_publ_section_title
;
Structure prediction by ZEFSAII (Michael W. Deem and Ramdas Pophale) SiO2 
 PCOD9274087
Probable space group: C 2/C
;
_chemical_formula_sum "Si O2"
_cell_formula_units_Z 64
_cell_length_a 8.433001
_cell_length_b 20.720970
_cell_length_c 21.220495
_cell_angle_alpha 90.000000
_cell_angle_beta 122.857235
_cell_angle_gamma 90.000000
_cell_volume 3114.870398
_symmetry_space_group_name_H-M "C 2/C"
_symmetry_group_IT_number 15
_symmetry_cell_setting 'monoclinic'
loop_
_space_group_symop_operation_xyz
x,y,z
-x,y,1/2-z
-x,-y,-z
x,-y,1/2+z
1/2+x,1/2+y,z
1/2-x,1/2+y,1/2-z
1/2-x,1/2-y,-z
1/2+x,1/2-y,1/2+z
loop_
_atom_site_type_symbol
_atom_site_label
_atom_site_fract_x
_atom_site_fract_y
_atom_site_fract_z
Si Si1 0.982266 0.725076 0.952680
Si Si2 0.703042 0.466398 0.051388
Si Si3 0.065212 0.815628 0.861506
Si Si4 0.434228 0.682991 0.670486
Si Si5 0.161942 0.591361 0.039600
Si Si6 0.588388 0.916735 0.893510
Si Si7 0.318099 0.809986 0.790862
Si Si8 0.462538 0.350170 0.034075
O O1 0.779242 0.708607 0.878497
O O2 0.091635 0.761159 0.919966
O O3 0.062090 0.657129 0.993771
O O4 0.969405 0.777726 0.006617
O O5 0.814713 0.460030 0.009868
O O6 0.833038 0.516355 0.118269
O O7 0.646316 0.393650 0.057985
O O8 0.500000 0.500000 0.000000
O O9 0.205084 0.804857 0.832904
O O10 0.849267 0.818479 0.794636
O O11 0.125865 0.884913 0.900597
O O12 0.500000 0.649221 0.750000
O O13 0.571572 0.744355 0.696205
O O14 0.450665 0.647239 0.607083
O O15 0.054941 0.570960 0.079220
O O16 0.469300 0.867636 0.825175
O O17 0.773169 0.880506 0.962071
#
# Coordination Sequence:
#
# PCOD9274087 Si02
#       8
#     8   8   8   8   8   8   8   8
#     4  12  21  36  62  97 125 159 202 257 314 373
#     4  10  23  38  61  87 116 162 208 258 298 350
#     4  10  21  35  56  96 125 162 193 252 317 363
#     4  12  23  37  59  92 126 167 194 252 319 377
#     4  11  21  36  61  92 124 154 208 258 306 363
#     4  10  20  38  61  89 122 160 211 251 291 360
#     4  10  21  36  58  91 131 159 200 251 311 371
#     4  11  21  38  60  94 125 156 209 252 310 368
#
# _framework density 20.546603000000001
#
# number of rings (size 3 to 8) (size 9 to 14) (size 15 to 20)
#    0.000    1.250    5.000    2.625    1.750    0.000 
#    0.000    0.000    0.000    4.500    0.000    0.000 
#    0.000    0.000    0.000    0.000    0.000    0.000 
#
# Total GULP energy -178544.407859 kJ/mol
# GULP energy per Si atom -5579.512746 kJ/mol
# Density = 2.049984 g / cm^3
# Si number density = 20.546603 Si / 1000 Ang^3
#
#
#
# Elastic Constant Matrix: (Units=GPa)
#
#
# Indices 1 2 3 4 5 6 
#
# 1 49.4590 7.2268 12.8337 0.0000 6.2136 0.0000
# 2 7.2268 34.6875 12.2711 0.0000 7.7732 0.0000
# 3 12.8337 12.2711 102.5184 0.0000 11.2235 0.0000
# 4 0.0000 0.0000 0.0000 9.3583 0.0000 15.0973
# 5 6.2136 7.7732 11.2235 0.0000 38.6696 0.0000
# 6 0.0000 0.0000 0.0000 15.0973 0.0000 25.7669
#
#
#
# Elastic Compliance Matrix: (Units=1/GPa)
#
#
# Indices 1 2 3 4 5 6 
#
# 1 0.021506 -0.003258 -0.002061 0.000000 -0.002203 0.000000
# 2 -0.003258 0.031632 -0.002830 0.000000 -0.005014 0.000000
# 3 -0.002061 -0.002830 0.010589 0.000000 -0.002173 0.000000
# 4 0.000000 0.000000 0.000000 1.951107 0.000000 -1.143191
# 5 -0.002203 -0.005014 -0.002173 0.000000 0.027853 0.000000
# 6 0.000000 0.000000 0.000000 -1.143191 0.000000 0.708627
#
#
# Mechanical properties :
#
#
# Convention : Reuss Voigt Hill
#
# Bulk Modulus (GPa) = 21.08357 27.92535 24.50446
# Shear Modulus (GPa) = 1.79635 25.04785 13.42210
#
# Velocity S-wave (km/s) = 0.93604 3.49531 2.55865
# Velocity P-wave (km/s) = 3.38406 5.46904 4.54765
#
# Compressibility (1/GPa) = 0.04743031
#
# Stress axis : x y z
#
# Youngs Moduli (GPa) = 46.49790 31.61339 94.43773
#
# Poissons Ratio (x) = 0.10299 0.19465
# Poissons Ratio (y) = 0.15149 0.26721
# Poissons Ratio (z) = 0.09584 0.08945
#
# Static dielectric constant tensor:
#      x y z
#    x 1.796100 0.000000 -0.037530 
#    y 0.000000 1.753110 0.000000 
#    z -0.037530 0.000000 1.785510 
# 
# From -- ./inp_files/266145.got.cif
#   From: 2010.05.17/outbox.cif.g08.bks.cpg/sg15_134_cif.got.tgz:266145.got - 2010.06.03 18:47:42.
