data_PCOD9274979
_publ_section_title
;
Structure prediction by ZEFSAII (Michael W. Deem and Ramdas Pophale) SiO2 
 PCOD9274979
Probable space group: C 2/C
;
_chemical_formula_sum "Si O2"
_cell_formula_units_Z 60
_cell_length_a 5.718556
_cell_length_b 26.333513
_cell_length_c 21.724540
_cell_angle_alpha 90.000000
_cell_angle_beta 118.884730
_cell_angle_gamma 90.000000
_cell_volume 2864.495836
_symmetry_space_group_name_H-M "C 2/C"
_symmetry_group_IT_number 15
_symmetry_cell_setting 'monoclinic'
loop_
_space_group_symop_operation_xyz
x,y,z
-x,y,1/2-z
-x,-y,-z
x,-y,1/2+z
1/2+x,1/2+y,z
1/2-x,1/2+y,1/2-z
1/2-x,1/2-y,-z
1/2+x,1/2-y,1/2+z
loop_
_atom_site_type_symbol
_atom_site_label
_atom_site_fract_x
_atom_site_fract_y
_atom_site_fract_z
Si Si1 0.389752 0.969150 0.544628
Si Si2 0.478192 0.768300 0.352283
Si Si3 0.384388 0.346828 0.365114
Si Si4 0.254709 0.118761 0.428284
Si Si5 0.500000 0.659411 0.750000
Si Si6 0.103497 0.705726 0.519609
Si Si7 0.298162 0.569342 0.944527
Si Si8 0.323355 0.655734 0.290048
O O1 0.574030 0.922532 0.587527
O O2 0.108872 0.945645 0.487969
O O3 0.500000 0.000000 0.500000
O O4 0.345565 0.015729 0.585500
O O5 0.731047 0.792992 0.349798
O O6 0.235442 0.805166 0.304530
O O7 0.513268 0.772395 0.430873
O O8 0.392617 0.713684 0.317490
O O9 0.403877 0.367922 0.298941
O O10 0.671405 0.335131 0.431531
O O11 0.236888 0.387958 0.387423
O O12 0.393497 0.174026 0.451968
O O13 0.257397 0.095862 0.497105
O O14 0.964421 0.123424 0.361964
O O15 0.250000 0.750000 0.500000
O O16 0.500000 0.645859 0.250000
O O17 0.000000 0.649473 0.250000
#
# Coordination Sequence:
#
# PCOD9274979 Si02
#       8
#     8   8   8   8   4   8   8   8
#     4   9  20  38  65 103 126 164 206 285 352 412
#     4  11  23  41  59  90 135 186 228 273 333 406
#     4  11  21  36  61  93 132 174 222 271 342 414
#     4  11  23  41  66  97 137 172 226 289 350 401
#     4  10  22  36  56  84 130 184 220 264 324 410
#     4  11  24  35  61  99 137 170 219 289 342 401
#     4  10  20  38  67 104 128 161 220 280 354 414
#     4  12  29  45  66  98 137 195 243 272 330 422
#
# _framework density 20.946095
#
# number of rings (size 3 to 8) (size 9 to 14) (size 15 to 20)
#    0.000    1.333    3.333    2.000    7.467    1.067 
#    0.000    0.000    0.000    0.000   41.600    0.000 
#    0.000    0.000    0.000    0.000    0.000    0.000 
#
# Total GULP energy -167463.240083 kJ/mol
# GULP energy per Si atom -5582.108003 kJ/mol
# Density = 2.089842 g / cm^3
# Si number density = 20.946095 Si / 1000 Ang^3
#
#
#
# Elastic Constant Matrix: (Units=GPa)
#
#
# Indices 1 2 3 4 5 6 
#
# 1 88.3770 30.0892 37.4519 0.0000 6.7664 0.0000
# 2 30.0892 90.9442 35.4222 0.0000 -1.0311 0.0000
# 3 37.4519 35.4222 97.2901 0.0000 1.6217 0.0000
# 4 0.0000 0.0000 0.0000 10.7822 0.0000 1.7118
# 5 6.7664 -1.0311 1.6217 0.0000 43.1696 0.0000
# 6 0.0000 0.0000 0.0000 1.7118 0.0000 28.0141
#
#
#
# Elastic Compliance Matrix: (Units=1/GPa)
#
#
# Indices 1 2 3 4 5 6 
#
# 1 0.014385 -0.003078 -0.004381 0.000000 -0.002164 0.000000
# 2 -0.003078 0.013481 -0.003739 0.000000 0.000945 0.000000
# 3 -0.004381 -0.003739 0.013325 0.000000 0.000097 0.000000
# 4 0.000000 0.000000 0.000000 0.093654 0.000000 -0.005723
# 5 -0.002164 0.000945 0.000097 0.000000 0.023523 0.000000
# 6 0.000000 0.000000 0.000000 -0.005723 0.000000 0.036046
#
#
# Mechanical properties :
#
#
# Convention : Reuss Voigt Hill
#
# Bulk Modulus (GPa) = 53.20477 53.61533 53.41005
# Shear Modulus (GPa) = 22.41401 27.96971 25.19186
#
# Velocity S-wave (km/s) = 3.27476 3.65817 3.47176
# Velocity P-wave (km/s) = 6.30513 6.59510 6.45174
#
# Compressibility (1/GPa) = 0.01879531
#
# Stress axis : x y z
#
# Youngs Moduli (GPa) = 69.51601 74.17766 75.04764
#
# Poissons Ratio (x) = 0.22828 0.32879
# Poissons Ratio (y) = 0.21394 0.28063
# Poissons Ratio (z) = 0.30455 0.27738
#
# Static dielectric constant tensor:
#      x y z
#    x 1.862860 0.000000 -0.018820 
#    y 0.000000 1.775080 0.000000 
#    z -0.018820 0.000000 1.754990 
# 
# From -- ./inp_files/228622.got.cif
#   From: 2010.05.17/outbox.cif.g08.bks.cpg/sg15_115_cif.got.tgz:228622.got - 2010.06.03 18:47:42.
