data_PCOD9274610
_publ_section_title
;
Structure prediction by ZEFSAII (Michael W. Deem and Ramdas Pophale) SiO2 
 PCOD9274610
Probable space group: C 2/C
;
_chemical_formula_sum "Si O2"
_cell_formula_units_Z 32
_cell_length_a 12.165873
_cell_length_b 7.416313
_cell_length_c 15.812338
_cell_angle_alpha 90.000000
_cell_angle_beta 86.803072
_cell_angle_gamma 90.000000
_cell_volume 1424.462509
_symmetry_space_group_name_H-M "C 2/C"
_symmetry_group_IT_number 15
_symmetry_cell_setting 'monoclinic'
loop_
_space_group_symop_operation_xyz
x,y,z
-x,y,1/2-z
-x,-y,-z
x,-y,1/2+z
1/2+x,1/2+y,z
1/2-x,1/2+y,1/2-z
1/2-x,1/2-y,-z
1/2+x,1/2-y,1/2+z
loop_
_atom_site_type_symbol
_atom_site_label
_atom_site_fract_x
_atom_site_fract_y
_atom_site_fract_z
Si Si1 0.387079 0.976467 0.227895
Si Si2 0.408371 0.132025 0.043098
Si Si3 0.221341 0.736765 0.140543
Si Si4 0.834102 0.010759 0.998021
O O1 0.500000 0.880409 0.250000
O O2 0.287865 0.847322 0.207363
O O3 0.406022 0.100846 0.144155
O O4 0.351131 0.091445 0.309553
O O5 0.289419 0.064746 0.014842
O O6 0.411945 0.341060 0.013924
O O7 0.500000 0.000000 0.000000
O O8 0.147144 0.866037 0.085061
O O9 0.313990 0.642830 0.077844
#
# Coordination Sequence:
#
# PCOD9274610 Si02
#       4
#     8   8   8   8
#     4  11  23  39  60  90 127 162 204 258 317 374
#     4  10  20  38  64  89 120 164 210 260 315 378
#     4  10  21  41  64  90 126 166 209 263 318 379
#     4   9  20  40  63  87 121 164 210 260 314 374
#
# _framework density 22.464614000000001
#
# number of rings (size 3 to 8) (size 9 to 14) (size 15 to 20)
#    0.000    2.000    0.000    3.000    0.000    4.000 
#    0.000   32.500    0.000    0.000    0.000    0.000 
#    0.000    0.000    0.000    0.000    0.000    0.000 
#
# Total GULP energy -89477.877648 kJ/mol
# GULP energy per Si atom -5592.367353 kJ/mol
# Density = 2.241348 g / cm^3
# Si number density = 22.464614 Si / 1000 Ang^3
#
#
#
# Elastic Constant Matrix: (Units=GPa)
#
#
# Indices 1 2 3 4 5 6 
#
# 1 90.8791 12.3070 -0.2812 0.0000 8.7918 0.0000
# 2 12.3070 68.1931 -13.4995 0.0000 1.3313 0.0000
# 3 -0.2812 -13.4995 22.8448 0.0000 -8.5143 0.0000
# 4 0.0000 0.0000 0.0000 21.1267 0.0000 2.4880
# 5 8.7918 1.3313 -8.5143 0.0000 18.7025 0.0000
# 6 0.0000 0.0000 0.0000 2.4880 0.0000 32.9059
#
#
#
# Elastic Compliance Matrix: (Units=1/GPa)
#
#
# Indices 1 2 3 4 5 6 
#
# 1 0.012105 -0.002899 -0.004345 0.000000 -0.007462 0.000000
# 2 -0.002899 0.017548 0.012496 0.000000 0.005803 0.000000
# 3 -0.004345 0.012496 0.062065 0.000000 0.029408 0.000000
# 4 0.000000 0.000000 0.000000 0.047759 0.000000 -0.003611
# 5 -0.007462 0.005803 0.029408 0.000000 0.069952 0.000000
# 6 0.000000 0.000000 0.000000 -0.003611 0.000000 0.030663
#
#
# Mechanical properties :
#
#
# Convention : Reuss Voigt Hill
#
# Bulk Modulus (GPa) = 9.78261 19.88550 14.83406
# Shear Modulus (GPa) = 18.96377 26.77307 22.86842
#
# Velocity S-wave (km/s) = 2.90860 3.45597 3.19403
# Velocity P-wave (km/s) = 3.95526 4.97957 4.49668
#
# Compressibility (1/GPa) = 0.10222220
#
# Stress axis : x y z
#
# Youngs Moduli (GPa) = 82.61276 56.98668 16.11209
#
# Poissons Ratio (x) = 0.16521 0.07001
# Poissons Ratio (y) = 0.23950 -0.20134
# Poissons Ratio (z) = 0.35897 -0.71213
#
# Static dielectric constant tensor:
#      x y z
#    x 1.911840 0.000000 -0.002090 
#    y 0.000000 1.856720 0.000000 
#    z -0.002090 0.000000 1.793510 
# 
# From -- ./inp_files/140712.got.cif
#   From: 2010.05.17/outbox.cif.g08.bks.cpg/sg15_71_cif.got.tgz:140712.got - 2010.06.03 18:47:42.
