data_PCOD9274365
_publ_section_title
;
Structure prediction by ZEFSAII (Michael W. Deem and Ramdas Pophale) SiO2 
 PCOD9274365
Probable space group: C 2/C
;
_chemical_formula_sum "Si O2"
_cell_formula_units_Z 60
_cell_length_a 12.310394
_cell_length_b 19.974470
_cell_length_c 13.951534
_cell_angle_alpha 90.000000
_cell_angle_beta 57.401764
_cell_angle_gamma 90.000000
_cell_volume 2890.168082
_symmetry_space_group_name_H-M "C 2/C"
_symmetry_group_IT_number 15
_symmetry_cell_setting 'monoclinic'
loop_
_space_group_symop_operation_xyz
x,y,z
-x,y,1/2-z
-x,-y,-z
x,-y,1/2+z
1/2+x,1/2+y,z
1/2-x,1/2+y,1/2-z
1/2-x,1/2-y,-z
1/2+x,1/2-y,1/2+z
loop_
_atom_site_type_symbol
_atom_site_label
_atom_site_fract_x
_atom_site_fract_y
_atom_site_fract_z
Si Si1 0.942438 0.694638 0.676914
Si Si2 0.000000 0.657593 0.250000
Si Si3 0.374858 0.053205 0.677086
Si Si4 0.614561 0.954617 0.557623
Si Si5 0.855657 0.044923 0.197354
Si Si6 0.351528 0.454907 0.933101
Si Si7 0.784478 0.320725 0.528703
Si Si8 0.256439 0.310509 0.725378
O O1 0.868613 0.625353 0.729663
O O2 0.856834 0.750015 0.665084
O O3 0.000000 0.721874 0.750000
O O4 0.064358 0.669932 0.558734
O O5 0.933074 0.609517 0.361026
O O6 0.881717 0.697937 0.259291
O O7 0.375815 0.061130 0.560633
O O8 0.505107 0.010585 0.630983
O O9 0.253761 0.009760 0.769579
O O10 0.751798 0.988626 0.514137
O O11 0.853505 0.046685 0.315399
O O12 0.813662 0.116431 0.174063
O O13 0.003907 0.032533 0.101108
O O14 0.296415 0.380785 0.979901
O O15 0.750000 0.250000 0.500000
O O16 0.762004 0.315685 0.651899
#
# Coordination Sequence:
#
# PCOD9274365 Si02
#       8
#     8   4   8   8   8   8   8   8
#     4  12  24  38  64  97 126 156 213 277 326 366
#     4  12  24  42  64  84 128 186 220 248 304 416
#     4  10  20  38  62  96 124 160 210 270 314 375
#     4  10  20  38  63  89 120 168 219 254 314 378
#     4   9  18  36  62  89 125 163 206 249 320 383
#     4   9  18  33  62  92 121 156 201 267 317 370
#     4  11  20  38  62  90 127 161 205 265 325 376
#     4  11  24  41  60  93 125 175 215 251 320 392
#
# _framework density 20.760038999999999
#
# number of rings (size 3 to 8) (size 9 to 14) (size 15 to 20)
#    0.000    1.600    4.000    1.600    2.800    0.000 
#    0.000    7.333    0.000    0.000    0.000    0.000 
#    0.000    0.000    0.000    0.000    0.000    0.000 
#
# Total GULP energy -167591.766016 kJ/mol
# GULP energy per Si atom -5586.392201 kJ/mol
# Density = 2.071279 g / cm^3
# Si number density = 20.760039 Si / 1000 Ang^3
#
#
#
# Elastic Constant Matrix: (Units=GPa)
#
#
# Indices 1 2 3 4 5 6 
#
# 1 127.8669 57.3885 36.2641 0.0000 -38.0414 0.0000
# 2 57.3885 100.9843 11.3809 0.0000 -22.9767 0.0000
# 3 36.2641 11.3809 64.8742 0.0000 -12.4915 0.0000
# 4 0.0000 0.0000 0.0000 15.1419 0.0000 -4.0046
# 5 -38.0414 -22.9767 -12.4915 0.0000 46.9731 0.0000
# 6 0.0000 0.0000 0.0000 -4.0046 0.0000 38.6862
#
#
#
# Elastic Compliance Matrix: (Units=1/GPa)
#
#
# Indices 1 2 3 4 5 6 
#
# 1 0.014085 -0.005764 -0.005490 0.000000 0.007128 0.000000
# 2 -0.005764 0.013558 0.001288 0.000000 0.002306 0.000000
# 3 -0.005490 0.001288 0.018468 0.000000 0.001095 0.000000
# 4 0.000000 0.000000 0.000000 0.067901 0.000000 0.007029
# 5 0.007128 0.002306 0.001095 0.000000 0.028480 0.000000
# 6 0.000000 0.000000 0.000000 0.007029 0.000000 0.026577
#
#
# Mechanical properties :
#
#
# Convention : Reuss Voigt Hill
#
# Bulk Modulus (GPa) = 38.19922 55.97692 47.08807
# Shear Modulus (GPa) = 25.28734 32.73970 29.01352
#
# Velocity S-wave (km/s) = 3.49388 3.97552 3.74246
# Velocity P-wave (km/s) = 5.89208 6.93508 6.43475
#
# Compressibility (1/GPa) = 0.02617855
#
# Stress axis : x y z
#
# Youngs Moduli (GPa) = 70.99714 73.75851 54.14719
#
# Poissons Ratio (x) = 0.42514 0.29726
# Poissons Ratio (y) = 0.40923 -0.06972
# Poissons Ratio (z) = 0.38976 -0.09497
#
# Static dielectric constant tensor:
#      x y z
#    x 1.772270 0.000000 0.006150 
#    y 0.000000 1.756600 0.000000 
#    z 0.006150 0.000000 1.801890 
# 
# From -- ./inp_files/147087.got.cif
#   From: 2010.05.17/outbox.cif.g08.bks.cpg/sg15_74_cif.got.tgz:147087.got - 2010.06.03 18:47:42.
