data_PCOD9274154
_publ_section_title
;
Structure prediction by ZEFSAII (Michael W. Deem and Ramdas Pophale) SiO2 
 PCOD9274154
Probable space group: C 2/C
;
_chemical_formula_sum "Si O2"
_cell_formula_units_Z 64
_cell_length_a 29.973440
_cell_length_b 18.839715
_cell_length_c 8.232899
_cell_angle_alpha 90.000000
_cell_angle_beta 141.267520
_cell_angle_gamma 90.000000
_cell_volume 2908.837276
_symmetry_space_group_name_H-M "C 2/C"
_symmetry_group_IT_number 15
_symmetry_cell_setting 'monoclinic'
loop_
_space_group_symop_operation_xyz
x,y,z
-x,y,1/2-z
-x,-y,-z
x,-y,1/2+z
1/2+x,1/2+y,z
1/2-x,1/2+y,1/2-z
1/2-x,1/2-y,-z
1/2+x,1/2-y,1/2+z
loop_
_atom_site_type_symbol
_atom_site_label
_atom_site_fract_x
_atom_site_fract_y
_atom_site_fract_z
Si Si1 0.574408 0.800994 0.870440
Si Si2 0.346350 0.105932 0.133273
Si Si3 0.950764 0.860785 0.267214
Si Si4 0.198559 0.533741 0.178535
Si Si5 0.217991 0.803761 0.149644
Si Si6 0.288743 0.159972 0.525038
Si Si7 0.635795 0.471081 0.300373
Si Si8 0.085920 0.893676 0.837838
O O1 0.500000 0.812848 0.750000
O O2 0.578443 0.718550 0.832861
O O3 0.587537 0.850257 0.750754
O O4 0.638332 0.818518 0.176144
O O5 0.278948 0.159601 0.930405
O O6 0.329928 0.041779 0.961693
O O7 0.348530 0.071533 0.316914
O O8 0.889252 0.917486 0.127691
O O9 0.000000 0.874611 0.250000
O O10 0.007495 0.866707 0.575407
O O11 0.279154 0.526685 0.473745
O O12 0.204008 0.584641 0.037937
O O13 0.230414 0.833420 0.001466
O O14 0.225920 0.719699 0.152635
O O15 0.141254 0.828907 0.990230
O O16 0.607049 0.548445 0.261322
O O17 0.600617 0.437935 0.041459
#
# Coordination Sequence:
#
# PCOD9274154 Si02
#       8
#     8   8   8   8   8   8   8   8
#     4  10  23  47  69  94 127 178 217 277 333 396
#     4  11  23  42  67  97 133 169 224 270 331 389
#     4  11  25  42  66  90 133 180 228 264 321 395
#     4  12  24  43  66 104 135 174 215 281 326 394
#     4  10  20  38  61  96 125 178 211 274 316 389
#     4  10  24  37  68  93 135 162 231 261 338 382
#     4  12  25  40  65  99 140 185 214 265 329 389
#     4  12  24  41  63  95 138 178 227 262 324 389
#
# _framework density 22.001918
#
# number of rings (size 3 to 8) (size 9 to 14) (size 15 to 20)
#    0.000    1.000    2.500    4.500    8.750    1.500 
#    0.000    5.625    0.000    0.000    0.000    0.000 
#    0.000    0.000    0.000    0.000    0.000    0.000 
#
# Total GULP energy -179129.242222 kJ/mol
# GULP energy per Si atom -5597.788819 kJ/mol
# Density = 2.195184 g / cm^3
# Si number density = 22.001918 Si / 1000 Ang^3
#
#
#
# Elastic Constant Matrix: (Units=GPa)
#
#
# Indices 1 2 3 4 5 6 
#
# 1 62.9098 12.5834 2.0742 0.0000 4.7913 0.0000
# 2 12.5834 78.7547 4.2887 0.0000 8.9888 0.0000
# 3 2.0742 4.2887 50.8272 0.0000 -4.0725 0.0000
# 4 0.0000 0.0000 0.0000 24.0499 0.0000 4.8355
# 5 4.7913 8.9888 -4.0725 0.0000 33.3479 0.0000
# 6 0.0000 0.0000 0.0000 4.8355 0.0000 32.0026
#
#
#
# Elastic Compliance Matrix: (Units=1/GPa)
#
#
# Indices 1 2 3 4 5 6 
#
# 1 0.016534 -0.002402 -0.000616 0.000000 -0.001803 0.000000
# 2 -0.002402 0.013549 -0.001323 0.000000 -0.003469 0.000000
# 3 -0.000616 -0.001323 0.020043 0.000000 0.002893 0.000000
# 4 0.000000 0.000000 0.000000 0.042883 0.000000 -0.006480
# 5 -0.001803 -0.003469 0.002893 0.000000 0.031534 0.000000
# 6 0.000000 0.000000 0.000000 -0.006480 0.000000 0.032226
#
#
# Mechanical properties :
#
#
# Convention : Reuss Voigt Hill
#
# Bulk Modulus (GPa) = 24.12987 25.59826 24.86406
# Shear Modulus (GPa) = 27.89110 29.44976 28.67043
#
# Velocity S-wave (km/s) = 3.56429 3.66253 3.61375
# Velocity P-wave (km/s) = 5.28487 5.43556 5.36075
#
# Compressibility (1/GPa) = 0.04144242
#
# Stress axis : x y z
#
# Youngs Moduli (GPa) = 60.48149 73.80366 49.89242
#
# Poissons Ratio (x) = 0.17731 0.03076
# Poissons Ratio (y) = 0.14530 0.06602
# Poissons Ratio (z) = 0.03729 0.09766
#
# Static dielectric constant tensor:
#      x y z
#    x 1.859560 0.000000 -0.046320 
#    y 0.000000 1.779570 0.000000 
#    z -0.046320 0.000000 1.796610 
# 
# From -- ./inp_files/70642.got.cif
#   From: 2010.05.17/outbox.cif.g08.bks.cpg/sg15_36_cif.got.tgz:70642.got - 2010.06.03 18:47:42.
