data_PCOD9274688
_publ_section_title
;
Structure prediction by ZEFSAII (Michael W. Deem and Ramdas Pophale) SiO2 
 PCOD9274688
Probable space group: C 2/C
;
_chemical_formula_sum "Si O2"
_cell_formula_units_Z 44
_cell_length_a 11.550882
_cell_length_b 25.588216
_cell_length_c 9.504185
_cell_angle_alpha 90.000000
_cell_angle_beta 126.623881
_cell_angle_gamma 90.000000
_cell_volume 2254.511018
_symmetry_space_group_name_H-M "C 2/C"
_symmetry_group_IT_number 15
_symmetry_cell_setting 'monoclinic'
loop_
_space_group_symop_operation_xyz
x,y,z
-x,y,1/2-z
-x,-y,-z
x,-y,1/2+z
1/2+x,1/2+y,z
1/2-x,1/2+y,1/2-z
1/2-x,1/2-y,-z
1/2+x,1/2-y,1/2+z
loop_
_atom_site_type_symbol
_atom_site_label
_atom_site_fract_x
_atom_site_fract_y
_atom_site_fract_z
Si Si1 0.573956 0.307815 0.556490
Si Si2 0.559709 0.962489 0.154997
Si Si3 0.000000 0.129092 0.750000
Si Si4 0.239543 0.720729 0.843537
Si Si5 0.500000 0.862940 0.250000
Si Si6 0.000000 0.883134 0.750000
Si Si7 0.103850 0.050878 0.579445
O O1 0.602498 0.334589 0.424858
O O2 0.402725 0.294562 0.423764
O O3 0.665522 0.257471 0.671504
O O4 0.585898 0.346986 0.700206
O O5 0.500000 0.988945 0.250000
O O6 0.490076 0.904389 0.114162
O O7 0.730380 0.961888 0.278383
O O8 0.500000 0.000000 0.000000
O O9 0.935364 0.090549 0.822140
O O10 0.134912 0.672485 0.805219
O O11 0.250000 0.750000 0.000000
O O12 0.909168 0.919547 0.579656
O O13 0.000000 0.000000 0.500000
#
# Coordination Sequence:
#
# PCOD9274688 Si02
#       7
#     8   8   4   8   4   4   8
#     4  11  23  38  65  93 133 166 223 280 329 409
#     4  10  26  44  67  96 136 176 221 285 344 408
#     4  10  25  42  62  98 132 172 219 282 348 396
#     4  12  20  39  67  99 123 174 230 273 331 406
#     4  10  21  38  70  90 132 172 223 278 330 396
#     4  10  20  38  64  94 118 170 228 270 328 396
#     4  11  24  41  70  93 131 173 232 280 341 412
#
# _framework density 19.516428000000001
#
# number of rings (size 3 to 8) (size 9 to 14) (size 15 to 20)
#    0.545    0.727    3.636    2.727    5.091    0.727 
#    0.000    0.000    2.000    0.000    0.000    0.000 
#    0.000    0.000    0.000    0.000    0.000    0.000 
#
# Total GULP energy -122506.450510 kJ/mol
# GULP energy per Si atom -5568.475023 kJ/mol
# Density = 1.947201 g / cm^3
# Si number density = 19.516428 Si / 1000 Ang^3
#
#
#
# Elastic Constant Matrix: (Units=GPa)
#
#
# Indices 1 2 3 4 5 6 
#
# 1 72.6282 43.1839 63.2364 0.0000 7.0704 0.0000
# 2 43.1839 131.6501 86.3125 0.0000 -0.8997 0.0000
# 3 63.2364 86.3125 150.2607 0.0000 -13.5898 0.0000
# 4 0.0000 0.0000 0.0000 56.6760 0.0000 -13.0581
# 5 7.0704 -0.8997 -13.5898 0.0000 40.5793 0.0000
# 6 0.0000 0.0000 0.0000 -13.0581 0.0000 30.6690
#
#
#
# Elastic Compliance Matrix: (Units=1/GPa)
#
#
# Indices 1 2 3 4 5 6 
#
# 1 0.024041 -0.001372 -0.010014 0.000000 -0.007573 0.000000
# 2 -0.001372 0.012446 -0.006729 0.000000 -0.001738 0.000000
# 3 -0.010014 -0.006729 0.015344 0.000000 0.006734 0.000000
# 4 0.000000 0.000000 0.000000 0.019563 0.000000 0.008330
# 5 -0.007573 -0.001738 0.006734 0.000000 0.028179 0.000000
# 6 0.000000 0.000000 0.000000 0.008330 0.000000 0.036153
#
#
# Mechanical properties :
#
#
# Convention : Reuss Voigt Hill
#
# Bulk Modulus (GPa) = 64.10217 82.22272 73.16245
# Shear Modulus (GPa) = 28.22364 36.37192 32.29778
#
# Velocity S-wave (km/s) = 3.80695 4.32169 4.07246
# Velocity P-wave (km/s) = 7.22775 8.19293 7.72543
#
# Compressibility (1/GPa) = 0.01560010
#
# Stress axis : x y z
#
# Youngs Moduli (GPa) = 41.59522 80.34963 65.17314
#
# Poissons Ratio (x) = 0.11025 0.65267
# Poissons Ratio (y) = 0.05708 0.43853
# Poissons Ratio (z) = 0.41655 0.54065
#
# Static dielectric constant tensor:
#      x y z
#    x 1.724280 0.000000 0.037670 
#    y 0.000000 1.778190 0.000000 
#    z 0.037670 0.000000 1.711880 
# 
# From -- ./inp_files/35428.got.cif
#   From: 2010.05.17/outbox.cif.g08.bks.cpg/sg15_18_cif.got.tgz:35428.got - 2010.06.03 18:47:42.
