data_PCOD9274952
_publ_section_title
;
Structure prediction by ZEFSAII (Michael W. Deem and Ramdas Pophale) SiO2 
 PCOD9274952
Probable space group: C 2/C
;
_chemical_formula_sum "Si O2"
_cell_formula_units_Z 52
_cell_length_a 17.141129
_cell_length_b 27.956176
_cell_length_c 9.145993
_cell_angle_alpha 90.000000
_cell_angle_beta 39.013460
_cell_angle_gamma 90.000000
_cell_volume 2758.962629
_symmetry_space_group_name_H-M "C 2/C"
_symmetry_group_IT_number 15
_symmetry_cell_setting 'monoclinic'
loop_
_space_group_symop_operation_xyz
x,y,z
-x,y,1/2-z
-x,-y,-z
x,-y,1/2+z
1/2+x,1/2+y,z
1/2-x,1/2+y,1/2-z
1/2-x,1/2-y,-z
1/2+x,1/2-y,1/2+z
loop_
_atom_site_type_symbol
_atom_site_label
_atom_site_fract_x
_atom_site_fract_y
_atom_site_fract_z
Si Si1 0.745261 0.139106 0.026626
Si Si2 0.881971 0.857557 0.632804
Si Si3 0.897677 0.788261 0.134683
Si Si4 0.000000 0.994598 0.750000
Si Si5 0.593329 0.435239 0.362707
Si Si6 0.748830 0.303601 0.434700
Si Si7 0.987223 0.691074 0.100710
O O1 0.820205 0.132525 0.067374
O O2 0.599934 0.144514 0.266303
O O3 0.791917 0.189513 0.891204
O O4 0.791882 0.098734 0.846209
O O5 0.975193 0.812191 0.495220
O O6 0.971631 0.901273 0.542627
O O7 0.781057 0.842559 0.898833
O O8 0.859934 0.804142 0.027500
O O9 0.914545 0.731860 0.117277
O O10 0.092453 0.962520 0.517640
O O11 0.071954 0.027362 0.762198
O O12 0.750000 0.250000 0.500000
O O13 0.878567 0.313956 0.166201
O O14 0.000000 0.707806 0.250000
#
# Coordination Sequence:
#
# PCOD9274952 Si02
#       7
#     8   8   8   4   8   8   8
#     4  11  22  39  58  83 123 155 194 243 304 357
#     4  11  22  37  59  87 125 155 195 249 304 344
#     4  11  22  37  57  78 118 163 206 252 288 334
#     4  10  20  38  66  96 126 142 186 252 324 370
#     4  10  21  38  63  98 122 148 188 246 315 368
#     4  12  25  38  54  85 119 165 218 248 283 340
#     4  12  24  38  57  81 117 170 214 244 289 344
#
# _framework density 18.847663000000001
#
# number of rings (size 3 to 8) (size 9 to 14) (size 15 to 20)
#    0.000    0.923    4.615    4.154    4.308    1.846 
#    0.000    0.000    0.000    0.000    0.000   11.846 
#    0.000    0.000    0.000    0.000    0.000    0.000 
#
# Total GULP energy -145262.060875 kJ/mol
# GULP energy per Si atom -5587.002341 kJ/mol
# Density = 1.880477 g / cm^3
# Si number density = 18.847663 Si / 1000 Ang^3
#
#
#
# Elastic Constant Matrix: (Units=GPa)
#
#
# Indices 1 2 3 4 5 6 
#
# 1 39.1900 14.7703 21.7049 0.0000 8.8336 0.0000
# 2 14.7703 76.9990 47.8569 0.0000 5.6795 0.0000
# 3 21.7049 47.8569 150.3650 0.0000 0.6506 0.0000
# 4 0.0000 0.0000 0.0000 25.7637 0.0000 13.3992
# 5 8.8336 5.6795 0.6506 0.0000 28.0311 0.0000
# 6 0.0000 0.0000 0.0000 13.3992 0.0000 20.3273
#
#
#
# Elastic Compliance Matrix: (Units=1/GPa)
#
#
# Indices 1 2 3 4 5 6 
#
# 1 0.030574 -0.003101 -0.003388 0.000000 -0.008928 0.000000
# 2 -0.003101 0.016789 -0.004886 0.000000 -0.002311 0.000000
# 3 -0.003388 -0.004886 0.008687 0.000000 0.001856 0.000000
# 4 0.000000 0.000000 0.000000 0.059062 0.000000 -0.038932
# 5 -0.008928 -0.002311 0.001856 0.000000 0.038913 0.000000
# 6 0.000000 0.000000 0.000000 -0.038932 0.000000 0.074858
#
#
# Mechanical properties :
#
#
# Convention : Reuss Voigt Hill
#
# Bulk Modulus (GPa) = 30.02923 48.35757 39.19340
# Shear Modulus (GPa) = 19.03073 26.97254 23.00164
#
# Velocity S-wave (km/s) = 3.18105 3.78707 3.49721
# Velocity P-wave (km/s) = 5.42764 6.69591 6.09486
#
# Compressibility (1/GPa) = 0.03330088
#
# Stress axis : x y z
#
# Youngs Moduli (GPa) = 32.70747 59.56215 115.12072
#
# Poissons Ratio (x) = 0.18468 0.39001
# Poissons Ratio (y) = 0.10142 0.56247
# Poissons Ratio (z) = 0.11081 0.29102
#
# Static dielectric constant tensor:
#      x y z
#    x 1.668370 0.000000 0.011070 
#    y 0.000000 1.667000 0.000000 
#    z 0.011070 0.000000 1.693320 
# 
# From -- ./inp_files/44771.got.cif
#   From: 2010.05.17/outbox.cif.g08.bks.cpg/sg15_23_cif.got.tgz:44771.got - 2010.06.03 18:47:42.
