data_PCOD9274039
_publ_section_title
;
Structure prediction by ZEFSAII (Michael W. Deem and Ramdas Pophale) SiO2 
 PCOD9274039
Probable space group: C 2/C
;
_chemical_formula_sum "Si O2"
_cell_formula_units_Z 48
_cell_length_a 12.145179
_cell_length_b 8.164633
_cell_length_c 25.186365
_cell_angle_alpha 90.000000
_cell_angle_beta 71.309868
_cell_angle_gamma 90.000000
_cell_volume 2365.798724
_symmetry_space_group_name_H-M "C 2/C"
_symmetry_group_IT_number 15
_symmetry_cell_setting 'monoclinic'
loop_
_space_group_symop_operation_xyz
x,y,z
-x,y,1/2-z
-x,-y,-z
x,-y,1/2+z
1/2+x,1/2+y,z
1/2-x,1/2+y,1/2-z
1/2-x,1/2-y,-z
1/2+x,1/2-y,1/2+z
loop_
_atom_site_type_symbol
_atom_site_label
_atom_site_fract_x
_atom_site_fract_y
_atom_site_fract_z
Si Si1 0.358020 0.872882 0.481920
Si Si2 0.180148 0.395231 0.611482
Si Si3 0.712331 0.416464 0.306380
Si Si4 0.616416 0.856835 0.431181
Si Si5 0.275015 0.029320 0.181203
Si Si6 0.464449 0.381114 0.315281
O O1 0.250000 0.750000 0.500000
O O2 0.486235 0.793387 0.461142
O O3 0.350693 0.981767 0.430228
O O4 0.357538 0.996064 0.531892
O O5 0.221695 0.490405 0.657476
O O6 0.288190 0.283125 0.576703
O O7 0.076592 0.272961 0.643851
O O8 0.708118 0.222638 0.317376
O O9 0.771170 0.454329 0.240753
O O10 0.577005 0.468517 0.322179
O O11 0.634486 0.934544 0.369993
O O12 0.148566 0.993792 0.174685
O O13 0.500000 0.327163 0.250000
#
# Coordination Sequence:
#
# PCOD9274039 Si02
#       6
#     8   8   8   8   8   8
#     4  11  24  41  61  85 113 152 198 242 289 338
#     4  11  23  38  62  88 116 154 191 236 291 341
#     4  11  21  37  60  89 121 152 187 233 286 343
#     4  10  23  42  60  84 117 151 194 242 284 339
#     4  10  20  38  61  85 118 153 189 233 285 344
#     4   9  20  38  58  86 119 151 188 232 285 347
#
# _framework density 20.289131000000001
#
# number of rings (size 3 to 8) (size 9 to 14) (size 15 to 20)
#    0.000    1.667    0.000    5.500    0.000    6.000 
#    0.000   10.833    0.000    0.000    0.000    0.000 
#    0.000    0.000    0.000    0.000    0.000    0.000 
#
# Total GULP energy -134169.879006 kJ/mol
# GULP energy per Si atom -5590.411625 kJ/mol
# Density = 2.024295 g / cm^3
# Si number density = 20.289131 Si / 1000 Ang^3
#
#
#
# Elastic Constant Matrix: (Units=GPa)
#
#
# Indices 1 2 3 4 5 6 
#
# 1 98.4125 -15.7081 56.7681 0.0000 47.8265 0.0000
# 2 -15.7081 66.8116 -25.3245 0.0000 -102.0685 0.0000
# 3 56.7681 -25.3245 78.0356 0.0000 34.0670 0.0000
# 4 0.0000 0.0000 0.0000 30.7743 0.0000 -2.7348
# 5 47.8265 -102.0685 34.0670 0.0000 214.6825 0.0000
# 6 0.0000 0.0000 0.0000 -2.7348 0.0000 19.1869
#
#
#
# Elastic Compliance Matrix: (Units=1/GPa)
#
#
# Indices 1 2 3 4 5 6 
#
# 1 0.022587 -0.017412 -0.017482 0.000000 -0.010536 0.000000
# 2 -0.017412 0.071777 0.020811 0.000000 0.034702 0.000000
# 3 -0.017482 0.020811 0.028221 0.000000 0.009311 0.000000
# 4 0.000000 0.000000 0.000000 0.032912 0.000000 0.004691
# 5 -0.010536 0.034702 0.009311 0.000000 0.022027 0.000000
# 6 0.000000 0.000000 0.000000 0.004691 0.000000 0.052788
#
#
# Mechanical properties :
#
#
# Convention : Reuss Voigt Hill
#
# Bulk Modulus (GPa) = 10.59131 30.52563 20.55847
# Shear Modulus (GPa) = 17.24431 68.09702 42.67066
#
# Velocity S-wave (km/s) = 2.91852 5.79967 4.59096
# Velocity P-wave (km/s) = 4.07290 7.74120 6.18525
#
# Compressibility (1/GPa) = 0.09441701
#
# Stress axis : x y z
#
# Youngs Moduli (GPa) = 44.27348 13.93213 35.43406
#
# Poissons Ratio (x) = 0.24259 0.61947
# Poissons Ratio (y) = 0.77091 -0.73741
# Poissons Ratio (z) = 0.77400 -0.28994
#
# Static dielectric constant tensor:
#      x y z
#    x 1.724550 0.000000 -0.009920 
#    y 0.000000 1.678100 0.000000 
#    z -0.009920 0.000000 1.707890 
# 
# From -- ./inp_files/267784.got.cif
#   From: 2010.05.17/outbox.cif.g08.bks.cpg/sg15_134_cif.got.tgz:267784.got - 2010.06.03 18:47:42.
