data_PCOD9274124
_publ_section_title
;
Structure prediction by ZEFSAII (Michael W. Deem and Ramdas Pophale) SiO2 
 PCOD9274124
Probable space group: C 2/C
;
_chemical_formula_sum "Si O2"
_cell_formula_units_Z 56
_cell_length_a 12.172747
_cell_length_b 16.477284
_cell_length_c 13.008275
_cell_angle_alpha 90.000000
_cell_angle_beta 101.228141
_cell_angle_gamma 90.000000
_cell_volume 2559.179783
_symmetry_space_group_name_H-M "C 2/C"
_symmetry_group_IT_number 15
_symmetry_cell_setting 'monoclinic'
loop_
_space_group_symop_operation_xyz
x,y,z
-x,y,1/2-z
-x,-y,-z
x,-y,1/2+z
1/2+x,1/2+y,z
1/2-x,1/2+y,1/2-z
1/2-x,1/2-y,-z
1/2+x,1/2-y,1/2+z
loop_
_atom_site_type_symbol
_atom_site_label
_atom_site_fract_x
_atom_site_fract_y
_atom_site_fract_z
Si Si1 0.914107 0.118187 0.601482
Si Si2 0.645858 0.135247 0.880547
Si Si3 0.148042 0.709508 0.417931
Si Si4 0.000000 0.775218 0.750000
Si Si5 0.033959 0.586250 0.053644
Si Si6 0.840816 0.933992 0.297505
Si Si7 0.669550 0.616504 0.147242
Si Si8 0.500000 0.006005 0.250000
O O1 0.929293 0.214405 0.621928
O O2 0.829782 0.090574 0.676059
O O3 0.871116 0.103550 0.478602
O O4 0.030613 0.074572 0.644175
O O5 0.580858 0.214934 0.829600
O O6 0.768938 0.125179 0.857086
O O7 0.585231 0.056184 0.819599
O O8 0.629636 0.124863 0.999763
O O9 0.250000 0.750000 0.500000
O O10 0.214330 0.665597 0.339263
O O11 0.073948 0.645333 0.466519
O O12 0.076949 0.831361 0.691173
O O13 0.055741 0.563210 0.175015
O O14 0.000000 0.500000 0.000000
O O15 0.812354 0.028104 0.303597
#
# Coordination Sequence:
#
# PCOD9274124 Si02
#       8
#     8   8   8   4   8   8   8   4
#     4  10  23  41  60  87 125 163 201 247 302 372
#     4  10  21  38  61  90 122 155 196 255 305 347
#     4  10  21  40  65  87 117 166 205 239 303 375
#     4  11  22  40  64  93 118 150 204 255 298 352
#     4  10  20  38  61  92 124 154 201 257 299 354
#     4  11  23  40  62  89 122 162 201 247 306 361
#     4  11  22  40  65  89 116 160 209 249 296 364
#     4   9  20  34  58  91 124 158 198 243 302 366
#
# _framework density 21.882010000000001
#
# number of rings (size 3 to 8) (size 9 to 14) (size 15 to 20)
#    0.000    1.714    0.000    5.571    0.000    8.000 
#    0.000    5.714    0.000    0.000    0.000    0.000 
#    0.000    0.000    0.000    0.000    0.000    0.000 
#
# Total GULP energy -156399.467416 kJ/mol
# GULP energy per Si atom -5585.695265 kJ/mol
# Density = 2.183221 g / cm^3
# Si number density = 21.882010 Si / 1000 Ang^3
#
#
#
# Elastic Constant Matrix: (Units=GPa)
#
#
# Indices 1 2 3 4 5 6 
#
# 1 66.0423 24.0726 18.3355 0.0000 -34.6549 0.0000
# 2 24.0726 134.2877 31.2342 0.0000 -20.5472 0.0000
# 3 18.3355 31.2342 124.4121 0.0000 -35.0007 0.0000
# 4 0.0000 0.0000 0.0000 29.9037 0.0000 -21.0308
# 5 -34.6549 -20.5472 -35.0007 0.0000 43.8647 0.0000
# 6 0.0000 0.0000 0.0000 -21.0308 0.0000 33.9930
#
#
#
# Elastic Compliance Matrix: (Units=1/GPa)
#
#
# Indices 1 2 3 4 5 6 
#
# 1 0.026982 -0.002044 0.002920 0.000000 0.022689 0.000000
# 2 -0.002044 0.008326 -0.001478 0.000000 0.001106 0.000000
# 3 0.002920 -0.001478 0.010874 0.000000 0.010291 0.000000
# 4 0.000000 0.000000 0.000000 0.059199 0.000000 0.036625
# 5 0.022689 0.001106 0.010291 0.000000 0.049452 0.000000
# 6 0.000000 0.000000 0.000000 0.036625 0.000000 0.052077
#
#
# Mechanical properties :
#
#
# Convention : Reuss Voigt Hill
#
# Bulk Modulus (GPa) = 22.23352 52.44742 37.34047
# Shear Modulus (GPa) = 22.41077 38.29224 30.35151
#
# Velocity S-wave (km/s) = 3.20373 4.18777 3.72836
# Velocity P-wave (km/s) = 4.88547 6.88502 5.96956
#
# Compressibility (1/GPa) = 0.04497713
#
# Stress axis : x y z
#
# Youngs Moduli (GPa) = 37.06137 120.10405 91.96546
#
# Poissons Ratio (x) = 0.24553 -0.26852
# Poissons Ratio (y) = 0.07577 0.13592
# Poissons Ratio (z) = -0.10821 0.17751
#
# Static dielectric constant tensor:
#      x y z
#    x 1.775330 0.000000 -0.032590 
#    y 0.000000 1.781030 0.000000 
#    z -0.032590 0.000000 1.823510 
# 
# From -- ./inp_files/144286.got.cif
#   From: 2010.05.17/outbox.cif.g08.bks.cpg/sg15_73_cif.got.tgz:144286.got - 2010.06.03 18:47:42.
