data_PCOD9274548
_publ_section_title
;
Structure prediction by ZEFSAII (Michael W. Deem and Ramdas Pophale) SiO2 
 PCOD9274548
Probable space group: C 2/C
;
_chemical_formula_sum "Si O2"
_cell_formula_units_Z 36
_cell_length_a 5.037986
_cell_length_b 22.160513
_cell_length_c 12.846884
_cell_angle_alpha 90.000000
_cell_angle_beta 80.275515
_cell_angle_gamma 90.000000
_cell_volume 1413.673409
_symmetry_space_group_name_H-M "C 2/C"
_symmetry_group_IT_number 15
_symmetry_cell_setting 'monoclinic'
loop_
_space_group_symop_operation_xyz
x,y,z
-x,y,1/2-z
-x,-y,-z
x,-y,1/2+z
1/2+x,1/2+y,z
1/2-x,1/2+y,1/2-z
1/2-x,1/2-y,-z
1/2+x,1/2-y,1/2+z
loop_
_atom_site_type_symbol
_atom_site_label
_atom_site_fract_x
_atom_site_fract_y
_atom_site_fract_z
Si Si1 0.271570 0.620701 0.350799
Si Si2 0.319820 0.756280 0.345909
Si Si3 0.000000 0.526325 0.250000
Si Si4 0.500000 0.558584 0.750000
Si Si5 0.250000 0.250000 0.500000
Si Si6 0.436060 0.640902 0.954242
O O1 0.500000 0.601967 0.250000
O O2 0.225722 0.690321 0.318758
O O3 0.040397 0.571686 0.344563
O O4 0.391492 0.617174 0.460297
O O5 0.500000 0.790914 0.250000
O O6 0.537521 0.742684 0.418315
O O7 0.061728 0.794424 0.398446
O O8 0.253501 0.482213 0.229345
O O9 0.417662 0.598340 0.856338
O O10 0.169333 0.325948 0.510258
#
# Coordination Sequence:
#
# PCOD9274548 Si02
#       6
#     8   8   4   4   4   8
#     4  10  23  46  73 106 149 196 252 305 369 449
#     4  10  22  40  70 112 147 186 235 307 385 454
#     4  12  28  55  70 107 146 210 262 302 360 438
#     4  12  30  51  76 107 152 196 264 304 366 432
#     4  10  20  38  64 106 144 176 232 280 390 436
#     4  11  25  44  75 115 147 192 235 323 375 457
#
# _framework density 25.465571000000001
#
# number of rings (size 3 to 8) (size 9 to 14) (size 15 to 20)
#    0.000    1.333    1.111    4.000    4.667   13.333 
#    0.000    0.000    0.000    0.000    0.000    0.000 
#    0.000    0.000    0.000    0.000    0.000    0.000 
#
# Total GULP energy -100257.214335 kJ/mol
# GULP energy per Si atom -5569.845241 kJ/mol
# Density = 2.540761 g / cm^3
# Si number density = 25.465571 Si / 1000 Ang^3
#
#
#
# Elastic Constant Matrix: (Units=GPa)
#
#
# Indices 1 2 3 4 5 6 
#
# 1 94.1316 35.1887 43.1696 0.0000 17.0659 0.0000
# 2 35.1887 157.3633 59.5427 0.0000 28.6268 0.0000
# 3 43.1696 59.5427 66.9128 0.0000 27.9664 0.0000
# 4 0.0000 0.0000 0.0000 -1.8446 0.0000 10.9477
# 5 17.0659 28.6268 27.9664 0.0000 48.0626 0.0000
# 6 0.0000 0.0000 0.0000 10.9477 0.0000 25.6108
#
#
#
# Elastic Compliance Matrix: (Units=1/GPa)
#
#
# Indices 1 2 3 4 5 6 
#
# 1 0.015115 0.000454 -0.010306 0.000000 0.000359 0.000000
# 2 0.000454 0.009630 -0.008453 0.000000 -0.000978 0.000000
# 3 -0.010306 -0.008453 0.033671 0.000000 -0.010898 0.000000
# 4 0.000000 0.000000 0.000000 -0.153273 0.000000 0.065519
# 5 0.000359 -0.000978 -0.010898 0.000000 0.027602 0.000000
# 6 0.000000 0.000000 0.000000 0.065519 0.000000 0.011039
#
#
# Mechanical properties :
#
#
# Convention : Reuss Voigt Hill
#
# Bulk Modulus (GPa) = 45.86004 66.02329 55.94167
# Shear Modulus (GPa) = -405.24662 26.39955 -189.42353
#
# Velocity S-wave (km/s) = -12.62856 3.22324 -8.63398
# Velocity P-wave (km/s) = 13.94966 6.31151 8.79653
#
# Compressibility (1/GPa) = 0.02180547
#
# Stress axis : x y z
#
# Youngs Moduli (GPa) = 66.15992 103.84680 29.69937
#
# Poissons Ratio (x) = -0.04718 0.30608
# Poissons Ratio (y) = -0.03006 0.25105
# Poissons Ratio (z) = 0.68184 0.87784
#
# Static dielectric constant tensor:
#      x y z
#    x 1.851310 0.000000 0.201760 
#    y 0.000000 0.911300 0.000000 
#    z 0.201760 0.000000 1.777890 
# 
# From -- ./inp_files/128761.got.cif
#   From: 2010.05.17/outbox.cif.g08.bks.cpg/sg15_65_cif.got.tgz:128761.got - 2010.06.03 18:47:42.
