data_PCOD9274299
_publ_section_title
;
Structure prediction by ZEFSAII (Michael W. Deem and Ramdas Pophale) SiO2 
 PCOD9274299
Probable space group: C 2/C
;
_chemical_formula_sum "Si O2"
_cell_formula_units_Z 40
_cell_length_a 9.246799
_cell_length_b 11.232289
_cell_length_c 15.714478
_cell_angle_alpha 90.000000
_cell_angle_beta 69.979291
_cell_angle_gamma 90.000000
_cell_volume 1533.515949
_symmetry_space_group_name_H-M "C 2/C"
_symmetry_group_IT_number 15
_symmetry_cell_setting 'monoclinic'
loop_
_space_group_symop_operation_xyz
x,y,z
-x,y,1/2-z
-x,-y,-z
x,-y,1/2+z
1/2+x,1/2+y,z
1/2-x,1/2+y,1/2-z
1/2-x,1/2-y,-z
1/2+x,1/2-y,1/2+z
loop_
_atom_site_type_symbol
_atom_site_label
_atom_site_fract_x
_atom_site_fract_y
_atom_site_fract_z
Si Si1 0.639346 0.557194 0.545575
Si Si2 0.313275 0.044468 0.844770
Si Si3 0.922822 0.618339 0.597155
Si Si4 0.626352 0.744410 0.945916
Si Si5 0.912221 0.877283 0.679563
O O1 0.731354 0.514369 0.444674
O O2 0.759411 0.579077 0.596033
O O3 0.527195 0.667197 0.547392
O O4 0.531593 0.451054 0.597778
O O5 0.487393 0.055200 0.843087
O O6 0.241232 0.179203 0.854004
O O7 0.243474 0.956109 0.787993
O O8 0.894212 0.750407 0.640119
O O9 0.036789 0.633907 0.491418
O O10 0.750000 0.750000 0.000000
O O11 0.000000 0.867052 0.750000
#
# Coordination Sequence:
#
# PCOD9274299 Si02
#       5
#     8   8   8   8   8
#     4  11  20  38  63  91 119 153 202 256 303 349
#     4  10  20  38  62  91 119 149 202 254 302 354
#     4  11  21  36  64  92 117 150 198 255 310 354
#     4   9  17  32  58  89 117 146 184 243 297 349
#     4  11  24  41  57  80 125 167 196 243 301 359
#
# _framework density 26.083850000000002
#
# number of rings (size 3 to 8) (size 9 to 14) (size 15 to 20)
#    0.000    1.600    4.000    2.400    0.000    1.600 
#    0.000    0.000    0.000    0.000    0.000    0.000 
#    0.000    0.000    0.000    0.000    0.000    0.000 
#
# Total GULP energy -111514.167480 kJ/mol
# GULP energy per Si atom -5575.708374 kJ/mol
# Density = 2.602448 g / cm^3
# Si number density = 26.083850 Si / 1000 Ang^3
#
#
#
# Elastic Constant Matrix: (Units=GPa)
#
#
# Indices 1 2 3 4 5 6 
#
# 1 248.2839 84.8939 32.6103 0.0000 39.7456 0.0000
# 2 84.8939 89.8316 20.0773 0.0000 22.2410 0.0000
# 3 32.6103 20.0773 55.4760 0.0000 35.2041 0.0000
# 4 0.0000 0.0000 0.0000 21.0031 0.0000 21.5903
# 5 39.7456 22.2410 35.2041 0.0000 44.6432 0.0000
# 6 0.0000 0.0000 0.0000 21.5903 0.0000 53.7122
#
#
#
# Elastic Compliance Matrix: (Units=1/GPa)
#
#
# Indices 1 2 3 4 5 6 
#
# 1 0.006287 -0.005202 0.000189 0.000000 -0.003154 0.000000
# 2 -0.005202 0.017041 -0.001323 0.000000 -0.002815 0.000000
# 3 0.000189 -0.001323 0.036194 0.000000 -0.028050 0.000000
# 4 0.000000 0.000000 0.000000 0.081138 0.000000 -0.032615
# 5 -0.003154 -0.002815 -0.028050 0.000000 0.048730 0.000000
# 6 0.000000 0.000000 0.000000 -0.032615 0.000000 0.031728
#
#
# Mechanical properties :
#
#
# Convention : Reuss Voigt Hill
#
# Bulk Modulus (GPa) = 21.34537 74.30605 47.82571
# Shear Modulus (GPa) = 20.04762 40.93902 30.49332
#
# Velocity S-wave (km/s) = 2.77534 3.96601 3.42285
# Velocity P-wave (km/s) = 4.29781 7.03715 5.83064
#
# Compressibility (1/GPa) = 0.04684858
#
# Stress axis : x y z
#
# Youngs Moduli (GPa) = 159.07025 58.68238 27.62896
#
# Poissons Ratio (x) = 0.30528 -0.00522
# Poissons Ratio (y) = 0.82753 0.03655
# Poissons Ratio (z) = -0.03005 0.07763
#
# Static dielectric constant tensor:
#      x y z
#    x 2.060960 0.000000 -0.084380 
#    y 0.000000 2.145090 0.000000 
#    z -0.084380 0.000000 2.187920 
# 
# From -- ./inp_files/187918.got.cif
#   From: 2010.05.17/outbox.cif.g08.bks.cpg/sg15_94_cif.got.tgz:187918.got - 2010.06.03 18:47:42.
