data_PCOD9274621
_publ_section_title
;
Structure prediction by ZEFSAII (Michael W. Deem and Ramdas Pophale) SiO2 
 PCOD9274621
Probable space group: C 2/C
;
_chemical_formula_sum "Si O2"
_cell_formula_units_Z 52
_cell_length_a 12.961713
_cell_length_b 7.993365
_cell_length_c 21.287777
_cell_angle_alpha 90.000000
_cell_angle_beta 86.101453
_cell_angle_gamma 90.000000
_cell_volume 2200.473978
_symmetry_space_group_name_H-M "C 2/C"
_symmetry_group_IT_number 15
_symmetry_cell_setting 'monoclinic'
loop_
_space_group_symop_operation_xyz
x,y,z
-x,y,1/2-z
-x,-y,-z
x,-y,1/2+z
1/2+x,1/2+y,z
1/2-x,1/2+y,1/2-z
1/2-x,1/2-y,-z
1/2+x,1/2-y,1/2+z
loop_
_atom_site_type_symbol
_atom_site_label
_atom_site_fract_x
_atom_site_fract_y
_atom_site_fract_z
Si Si1 0.457947 0.854853 0.958260
Si Si2 0.706485 0.192734 0.683643
Si Si3 0.175488 0.782784 0.933019
Si Si4 0.002827 0.612008 0.854356
Si Si5 0.703488 0.205807 0.188293
Si Si6 0.677488 0.682299 0.945131
Si Si7 0.500000 0.870629 0.750000
O O1 0.555588 0.729485 0.952604
O O2 0.446144 0.963396 0.896090
O O3 0.355394 0.790158 0.997285
O O4 0.500000 0.000000 0.000000
O O5 0.587469 0.224676 0.670782
O O6 0.732638 0.247308 0.752449
O O7 0.777106 0.254777 0.622548
O O8 0.719622 0.992765 0.682908
O O9 0.263763 0.720661 0.880459
O O10 0.076620 0.722394 0.894407
O O11 0.182230 0.981551 0.942279
O O12 0.052970 0.499300 0.797246
O O13 0.585570 0.238863 0.212612
O O14 0.750000 0.750000 0.000000
#
# Coordination Sequence:
#
# PCOD9274621 Si02
#       7
#     8   8   8   8   8   8   4
#     4  10  21  38  61  88 122 163 208 254 311 375
#     4  10  22  41  63  90 122 157 208 258 312 370
#     4  10  21  38  63  94 125 162 210 259 312 371
#     4  10  20  40  65  90 121 164 209 263 316 373
#     4  10  21  39  63  91 122 161 205 255 312 376
#     4  11  22  39  61  90 129 167 206 257 307 368
#     4  10  20  38  64  90 122 162 206 258 318 374
#
# _framework density 23.631271999999999
#
# number of rings (size 3 to 8) (size 9 to 14) (size 15 to 20)
#    0.000    1.846    0.000    5.077    0.000    1.231 
#    0.000   28.462    0.000    2.769    0.000    0.000 
#    0.000    0.000    0.000    0.000    0.000    0.000 
#
# Total GULP energy -145043.752728 kJ/mol
# GULP energy per Si atom -5578.605874 kJ/mol
# Density = 2.357749 g / cm^3
# Si number density = 23.631272 Si / 1000 Ang^3
#
#
#
# Elastic Constant Matrix: (Units=GPa)
#
#
# Indices 1 2 3 4 5 6 
#
# 1 116.4611 24.9360 58.7033 0.0000 -25.6297 0.0000
# 2 24.9360 62.3479 28.7812 0.0000 -1.0048 0.0000
# 3 58.7033 28.7812 185.2359 0.0000 -7.1702 0.0000
# 4 0.0000 0.0000 0.0000 37.0295 0.0000 6.0551
# 5 -25.6297 -1.0048 -7.1702 0.0000 57.5993 0.0000
# 6 0.0000 0.0000 0.0000 6.0551 0.0000 38.6322
#
#
#
# Elastic Compliance Matrix: (Units=1/GPa)
#
#
# Indices 1 2 3 4 5 6 
#
# 1 0.011906 -0.003262 -0.003078 0.000000 0.004858 0.000000
# 2 -0.003262 0.018172 -0.001842 0.000000 -0.001364 0.000000
# 3 -0.003078 -0.001842 0.006638 0.000000 -0.000575 0.000000
# 4 0.000000 0.000000 0.000000 0.027716 0.000000 -0.004344
# 5 0.004858 -0.001364 -0.000575 0.000000 0.019427 0.000000
# 6 0.000000 0.000000 0.000000 -0.004344 0.000000 0.026566
#
#
# Mechanical properties :
#
#
# Convention : Reuss Voigt Hill
#
# Bulk Modulus (GPa) = 49.13997 65.43178 57.28587
# Shear Modulus (GPa) = 37.43229 43.42716 40.42972
#
# Velocity S-wave (km/s) = 3.98429 4.29149 4.14074
# Velocity P-wave (km/s) = 6.48118 7.23219 6.86696
#
# Compressibility (1/GPa) = 0.02035003
#
# Stress axis : x y z
#
# Youngs Moduli (GPa) = 83.99378 55.02861 150.64772
#
# Poissons Ratio (x) = 0.17953 0.46371
# Poissons Ratio (y) = 0.27403 0.27756
# Poissons Ratio (z) = 0.25854 0.10139
#
# Static dielectric constant tensor:
#      x y z
#    x 1.908470 0.000000 -0.075570 
#    y 0.000000 1.831010 0.000000 
#    z -0.075570 0.000000 2.041600 
# 
# From -- ./inp_files/242418.got.cif
#   From: 2010.05.17/outbox.cif.g08.bks.cpg/sg15_122_cif.got.tgz:242418.got - 2010.06.03 18:47:42.
