data_PCOD9274392
_publ_section_title
;
Structure prediction by ZEFSAII (Michael W. Deem and Ramdas Pophale) SiO2 
 PCOD9274392
Probable space group: C 2/C
;
_chemical_formula_sum "Si O2"
_cell_formula_units_Z 48
_cell_length_a 12.851838
_cell_length_b 12.379013
_cell_length_c 21.232635
_cell_angle_alpha 90.000000
_cell_angle_beta 138.112779
_cell_angle_gamma 90.000000
_cell_volume 2255.354226
_symmetry_space_group_name_H-M "C 2/C"
_symmetry_group_IT_number 15
_symmetry_cell_setting 'monoclinic'
loop_
_space_group_symop_operation_xyz
x,y,z
-x,y,1/2-z
-x,-y,-z
x,-y,1/2+z
1/2+x,1/2+y,z
1/2-x,1/2+y,1/2-z
1/2-x,1/2-y,-z
1/2+x,1/2-y,1/2+z
loop_
_atom_site_type_symbol
_atom_site_label
_atom_site_fract_x
_atom_site_fract_y
_atom_site_fract_z
Si Si1 0.427736 0.404733 0.353675
Si Si2 0.581425 0.178242 0.722016
Si Si3 0.161581 0.650893 0.990538
Si Si4 0.502481 0.799769 0.550258
Si Si5 0.292867 0.409776 0.730910
Si Si6 0.700708 0.555168 0.891788
O O1 0.257220 0.354048 0.286095
O O2 0.519725 0.326658 0.443744
O O3 0.371891 0.529855 0.325982
O O4 0.538654 0.394442 0.342202
O O5 0.500000 0.141637 0.750000
O O6 0.482955 0.132271 0.620139
O O7 0.594941 0.308255 0.731422
O O8 0.250000 0.750000 0.000000
O O9 0.263266 0.544251 0.044653
O O10 0.102947 0.687329 0.032304
O O11 0.615069 0.862887 0.651763
O O12 0.341593 0.861243 0.464798
O O13 0.294755 0.497146 0.674432
#
# Coordination Sequence:
#
# PCOD9274392 Si02
#       6
#     8   8   8   8   8   8
#     4  11  21  35  60  87 114 147 193 243 286 339
#     4  11  22  39  60  86 114 149 197 246 288 339
#     4  11  21  38  62  86 114 153 197 243 286 343
#     4  10  22  38  59  88 118 153 194 241 292 342
#     4  10  20  38  63  85 109 153 202 237 279 346
#     4  11  21  38  61  86 117 155 194 234 290 357
#
# _framework density 21.282686999999999
#
# number of rings (size 3 to 8) (size 9 to 14) (size 15 to 20)
#    0.000    1.333    0.000   10.000    0.000    0.000 
#    0.000    7.500    0.000   20.000    0.000    0.000 
#    0.000    0.000    0.000    0.000    0.000    0.000 
#
# Total GULP energy -133627.584295 kJ/mol
# GULP energy per Si atom -5567.816012 kJ/mol
# Density = 2.123425 g / cm^3
# Si number density = 21.282687 Si / 1000 Ang^3
#
#
#
# Elastic Constant Matrix: (Units=GPa)
#
#
# Indices 1 2 3 4 5 6 
#
# 1 89.1430 38.8445 6.2960 0.0000 18.1202 0.0000
# 2 38.8445 57.3656 25.3857 0.0000 -1.6982 0.0000
# 3 6.2960 25.3857 56.2578 0.0000 5.4345 0.0000
# 4 0.0000 0.0000 0.0000 44.8609 0.0000 -15.1576
# 5 18.1202 -1.6982 5.4345 0.0000 27.1668 0.0000
# 6 0.0000 0.0000 0.0000 -15.1576 0.0000 47.4926
#
#
#
# Elastic Compliance Matrix: (Units=1/GPa)
#
#
# Indices 1 2 3 4 5 6 
#
# 1 0.022839 -0.019543 0.008007 0.000000 -0.018057 0.000000
# 2 -0.019543 0.038815 -0.017153 0.000000 0.018892 0.000000
# 3 0.008007 -0.017153 0.025736 0.000000 -0.011561 0.000000
# 4 0.000000 0.000000 0.000000 0.024985 0.000000 0.007974
# 5 -0.018057 0.018892 -0.011561 0.000000 0.052347 0.000000
# 6 0.000000 0.000000 0.000000 0.007974 0.000000 0.023601
#
#
# Mechanical properties :
#
#
# Convention : Reuss Voigt Hill
#
# Bulk Modulus (GPa) = 33.31968 38.20206 35.76087
# Shear Modulus (GPa) = 19.55384 32.72006 26.13695
#
# Velocity S-wave (km/s) = 3.03441 3.92523 3.50821
# Velocity P-wave (km/s) = 5.28834 6.20741 5.76622
#
# Compressibility (1/GPa) = 0.03001229
#
# Stress axis : x y z
#
# Youngs Moduli (GPa) = 43.78553 25.76330 38.85602
#
# Poissons Ratio (x) = 0.50348 -0.31111
# Poissons Ratio (y) = 0.85568 0.66649
# Poissons Ratio (z) = -0.35058 0.44191
#
# Static dielectric constant tensor:
#      x y z
#    x 1.653750 0.000000 -0.081180 
#    y 0.000000 1.799470 0.000000 
#    z -0.081180 0.000000 1.778670 
# 
# From -- ./inp_files/195988.got.cif
#   From: 2010.05.17/outbox.cif.g08.bks.cpg/sg15_98_cif.got.tgz:195988.got - 2010.06.03 18:47:42.
