data_PCOD9274036
_publ_section_title
;
Structure prediction by ZEFSAII (Michael W. Deem and Ramdas Pophale) SiO2 
 PCOD9274036
Probable space group: C 2/C
;
_chemical_formula_sum "Si O2"
_cell_formula_units_Z 56
_cell_length_a 13.619427
_cell_length_b 11.948711
_cell_length_c 15.018127
_cell_angle_alpha 90.000000
_cell_angle_beta 90.363925
_cell_angle_gamma 90.000000
_cell_volume 2443.919549
_symmetry_space_group_name_H-M "C 2/C"
_symmetry_group_IT_number 15
_symmetry_cell_setting 'monoclinic'
loop_
_space_group_symop_operation_xyz
x,y,z
-x,y,1/2-z
-x,-y,-z
x,-y,1/2+z
1/2+x,1/2+y,z
1/2-x,1/2+y,1/2-z
1/2-x,1/2-y,-z
1/2+x,1/2-y,1/2+z
loop_
_atom_site_type_symbol
_atom_site_label
_atom_site_fract_x
_atom_site_fract_y
_atom_site_fract_z
Si Si1 0.136708 0.496134 0.476905
Si Si2 0.888115 0.957970 0.777822
Si Si3 0.339486 0.239653 0.718827
Si Si4 0.043266 0.729521 0.957276
Si Si5 0.348221 0.759657 0.557534
Si Si6 0.740583 0.926130 0.156772
Si Si7 0.684868 0.650694 0.597498
O O1 0.049562 0.405077 0.471660
O O2 0.132642 0.610146 0.418860
O O3 0.174372 0.535610 0.574069
O O4 0.225923 0.419446 0.442574
O O5 0.856730 0.830452 0.796241
O O6 0.000000 0.960518 0.750000
O O7 0.812179 0.981144 0.696802
O O8 0.873960 0.056063 0.848797
O O9 0.424224 0.250015 0.644440
O O10 0.331980 0.120809 0.768043
O O11 0.236454 0.239709 0.663917
O O12 0.122488 0.788798 0.021924
O O13 0.939902 0.772093 0.995021
O O14 0.250000 0.750000 0.500000
O O15 0.320178 0.672272 0.633998
#
# Coordination Sequence:
#
# PCOD9274036 Si02
#       7
#     8   8   8   8   8   8   8
#     4  10  20  38  61  85 114 152 195 241 291 349
#     4  11  22  36  56  86 119 155 196 240 290 345
#     4  10  22  38  60  89 120 151 193 247 293 340
#     4  11  21  39  64  88 114 155 202 240 284 351
#     4  10  22  38  58  87 121 156 193 240 293 350
#     4  10  21  39  59  83 121 155 189 243 297 342
#     4  10  21  38  62  86 115 156 198 239 289 347
#
# _framework density 22.914010999999999
#
# number of rings (size 3 to 8) (size 9 to 14) (size 15 to 20)
#    0.000    1.714    0.000    5.571    0.000    4.571 
#    0.000    5.000    0.000    5.143    0.000    0.000 
#    0.000    0.000    0.000    0.000    0.000    0.000 
#
# Total GULP energy -156310.644300 kJ/mol
# GULP energy per Si atom -5582.523011 kJ/mol
# Density = 2.286186 g / cm^3
# Si number density = 22.914011 Si / 1000 Ang^3
#
#
#
# Elastic Constant Matrix: (Units=GPa)
#
#
# Indices 1 2 3 4 5 6 
#
# 1 72.5110 9.6834 13.8822 0.0000 -24.7729 0.0000
# 2 9.6834 81.7178 22.0459 0.0000 0.4487 0.0000
# 3 13.8822 22.0459 80.2220 0.0000 -7.8798 0.0000
# 4 0.0000 0.0000 0.0000 21.4854 0.0000 -2.2512
# 5 -24.7729 0.4487 -7.8798 0.0000 25.0100 0.0000
# 6 0.0000 0.0000 0.0000 -2.2512 0.0000 32.9500
#
#
#
# Elastic Compliance Matrix: (Units=1/GPa)
#
#
# Indices 1 2 3 4 5 6 
#
# 1 0.021476 -0.002391 -0.000996 0.000000 0.021001 0.000000
# 2 -0.002391 0.013533 -0.003675 0.000000 -0.003770 0.000000
# 3 -0.000996 -0.003675 0.013990 0.000000 0.003487 0.000000
# 4 0.000000 0.000000 0.000000 0.046879 0.000000 0.003203
# 5 0.021001 -0.003770 0.003487 0.000000 0.061953 0.000000
# 6 0.000000 0.000000 0.000000 0.003203 0.000000 0.030568
#
#
# Mechanical properties :
#
#
# Convention : Reuss Voigt Hill
#
# Bulk Modulus (GPa) = 28.67544 36.18598 32.43071
# Shear Modulus (GPa) = 23.34818 28.47835 25.91327
#
# Velocity S-wave (km/s) = 3.19556 3.52921 3.36652
# Velocity P-wave (km/s) = 5.11439 5.69504 5.41251
#
# Compressibility (1/GPa) = 0.03487305
#
# Stress axis : x y z
#
# Youngs Moduli (GPa) = 46.56338 73.89418 71.47766
#
# Poissons Ratio (x) = 0.17671 0.07122
# Poissons Ratio (y) = 0.11135 0.26271
# Poissons Ratio (z) = 0.04639 0.27159
#
# Static dielectric constant tensor:
#      x y z
#    x 1.893520 0.000000 -0.022430 
#    y 0.000000 1.951920 0.000000 
#    z -0.022430 0.000000 1.897890 
# 
# From -- ./inp_files/152599.got.cif
#   From: 2010.05.17/outbox.cif.g08.bks.cpg/sg15_77_cif.got.tgz:152599.got - 2010.06.03 18:47:42.
