data_PCOD9274821
_publ_section_title
;
Structure prediction by ZEFSAII (Michael W. Deem and Ramdas Pophale) SiO2 
 PCOD9274821
Probable space group: C 2/C
;
_chemical_formula_sum "Si O2"
_cell_formula_units_Z 44
_cell_length_a 10.528758
_cell_length_b 24.780678
_cell_length_c 10.710796
_cell_angle_alpha 90.000000
_cell_angle_beta 43.188465
_cell_angle_gamma 90.000000
_cell_volume 1912.591795
_symmetry_space_group_name_H-M "C 2/C"
_symmetry_group_IT_number 15
_symmetry_cell_setting 'monoclinic'
loop_
_space_group_symop_operation_xyz
x,y,z
-x,y,1/2-z
-x,-y,-z
x,-y,1/2+z
1/2+x,1/2+y,z
1/2-x,1/2+y,1/2-z
1/2-x,1/2-y,-z
1/2+x,1/2-y,1/2+z
loop_
_atom_site_type_symbol
_atom_site_label
_atom_site_fract_x
_atom_site_fract_y
_atom_site_fract_z
Si Si1 0.000000 0.206084 0.750000
Si Si2 0.365966 0.209861 0.140913
Si Si3 0.155430 0.038006 0.528032
Si Si4 0.429637 0.422521 0.946230
Si Si5 0.869875 0.364487 0.960040
Si Si6 0.453941 0.694177 0.427208
O O1 0.044336 0.246931 0.829034
O O2 0.178483 0.168326 0.603583
O O3 0.499231 0.158659 0.024357
O O4 0.164443 0.192225 0.330599
O O5 0.358400 0.250320 0.030927
O O6 0.316564 0.073874 0.473710
O O7 0.000000 0.037870 0.750000
O O8 0.076826 0.063896 0.453889
O O9 0.198320 0.975770 0.464651
O O10 0.500000 0.419388 0.750000
O O11 0.356860 0.362565 0.030332
O O12 0.000000 0.349565 0.750000
O O13 0.500000 0.693112 0.250000
#
# Coordination Sequence:
#
# PCOD9274821 Si02
#       6
#     4   8   8   8   8   8
#     4  12  22  38  58 102 140 168 206 284 350 394
#     4  12  22  38  61  96 136 169 225 279 339 407
#     4  10  20  38  65  95 126 173 234 286 339 393
#     4   9  20  38  62  88 126 181 231 268 340 416
#     4  12  23  37  64 102 141 169 216 292 347 402
#     4  11  24  41  63  91 137 186 223 268 348 430
#
# _framework density 23.005431000000002
#
# number of rings (size 3 to 8) (size 9 to 14) (size 15 to 20)
#    0.000    1.091    3.636    4.364    0.000    0.000 
#    0.000    0.000    0.000   46.909    0.000    0.000 
#    0.000    0.000    0.000    0.000    0.000    0.000 
#
# Total GULP energy -122587.447698 kJ/mol
# GULP energy per Si atom -5572.156714 kJ/mol
# Density = 2.295307 g / cm^3
# Si number density = 23.005431 Si / 1000 Ang^3
#
#
#
# Elastic Constant Matrix: (Units=GPa)
#
#
# Indices 1 2 3 4 5 6 
#
# 1 80.9365 32.1177 12.9049 0.0000 12.7728 0.0000
# 2 32.1177 190.3447 25.7191 0.0000 -13.2568 0.0000
# 3 12.9049 25.7191 63.4586 0.0000 -10.4719 0.0000
# 4 0.0000 0.0000 0.0000 11.6433 0.0000 4.3056
# 5 12.7728 -13.2568 -10.4719 0.0000 40.6709 0.0000
# 6 0.0000 0.0000 0.0000 4.3056 0.0000 17.1635
#
#
#
# Elastic Compliance Matrix: (Units=1/GPa)
#
#
# Indices 1 2 3 4 5 6 
#
# 1 0.014829 -0.002530 -0.003023 0.000000 -0.006260 0.000000
# 2 -0.002530 0.006055 -0.001548 0.000000 0.002369 0.000000
# 3 -0.003023 -0.001548 0.017832 0.000000 0.005036 0.000000
# 4 0.000000 0.000000 0.000000 0.094668 0.000000 -0.023748
# 5 -0.006260 0.002369 0.005036 0.000000 0.028623 0.000000
# 6 0.000000 0.000000 0.000000 -0.023748 0.000000 0.064220
#
#
# Mechanical properties :
#
#
# Convention : Reuss Voigt Hill
#
# Bulk Modulus (GPa) = 40.79557 52.91369 46.85463
# Shear Modulus (GPa) = 20.11257 31.49542 25.80400
#
# Velocity S-wave (km/s) = 2.95998 3.70407 3.35273
# Velocity P-wave (km/s) = 5.42711 6.42993 5.94969
#
# Compressibility (1/GPa) = 0.02451246
#
# Stress axis : x y z
#
# Youngs Moduli (GPa) = 67.43443 165.16063 56.07954
#
# Poissons Ratio (x) = 0.41780 0.16956
# Poissons Ratio (y) = 0.17059 0.08684
# Poissons Ratio (z) = 0.20389 0.25575
#
# Static dielectric constant tensor:
#      x y z
#    x 2.104700 0.000000 0.100900 
#    y 0.000000 1.925520 0.000000 
#    z 0.100900 0.000000 1.866490 
# 
# From -- ./inp_files/91943.got.cif
#   From: 2010.05.17/outbox.cif.g08.bks.cpg/sg15_46_cif.got.tgz:91943.got - 2010.06.03 18:47:42.
