data_PCOD9274910
_publ_section_title
;
Structure prediction by ZEFSAII (Michael W. Deem and Ramdas Pophale) SiO2 
 PCOD9274910
Probable space group: C 2/C
;
_chemical_formula_sum "Si O2"
_cell_formula_units_Z 36
_cell_length_a 14.843197
_cell_length_b 20.466597
_cell_length_c 5.757480
_cell_angle_alpha 90.000000
_cell_angle_beta 126.613284
_cell_angle_gamma 90.000000
_cell_volume 1403.936765
_symmetry_space_group_name_H-M "C 2/C"
_symmetry_group_IT_number 15
_symmetry_cell_setting 'monoclinic'
loop_
_space_group_symop_operation_xyz
x,y,z
-x,y,1/2-z
-x,-y,-z
x,-y,1/2+z
1/2+x,1/2+y,z
1/2-x,1/2+y,1/2-z
1/2-x,1/2-y,-z
1/2+x,1/2-y,1/2+z
loop_
_atom_site_type_symbol
_atom_site_label
_atom_site_fract_x
_atom_site_fract_y
_atom_site_fract_z
Si Si1 0.600099 0.963403 0.806191
Si Si2 0.000000 0.807241 0.250000
Si Si3 0.337768 0.501224 0.141593
Si Si4 0.845140 0.747005 0.345226
Si Si5 0.209795 0.146124 0.348681
O O1 0.500000 0.915589 0.750000
O O2 0.588488 0.988756 0.520248
O O3 0.734213 0.949596 0.001784
O O4 0.960959 0.761855 0.400281
O O5 0.105536 0.848415 0.505898
O O6 0.395943 0.499732 0.481187
O O7 0.280451 0.572673 0.057418
O O8 0.822078 0.804927 0.491358
O O9 0.823881 0.676868 0.425204
O O10 0.750000 0.750000 0.000000
#
# Coordination Sequence:
#
# PCOD9274910 Si02
#       5
#     8   4   8   8   8
#     4   8  14  28  48  70 102 146 197 243 290 347
#     4  10  20  38  66  92 126 160 214 274 332 386
#     4  10  22  37  60  89 130 176 215 257 315 385
#     4   9  20  38  64  90 120 159 209 274 333 376
#     4  10  21  39  64  92 128 166 214 267 329 386
#
# _framework density 25.64218
#
# number of rings (size 3 to 8) (size 9 to 14) (size 15 to 20)
#    0.000    2.667    0.000    0.667    6.222    0.000 
#    0.000    7.778    9.778    0.000    0.000    0.000 
#    0.000    0.000    0.000    0.000    0.000    0.000 
#
# Total GULP energy -100208.391180 kJ/mol
# GULP energy per Si atom -5567.132843 kJ/mol
# Density = 2.558382 g / cm^3
# Si number density = 25.642180 Si / 1000 Ang^3
#
#
#
# Elastic Constant Matrix: (Units=GPa)
#
#
# Indices 1 2 3 4 5 6 
#
# 1 141.1115 11.4899 36.8349 0.0000 -30.1487 0.0000
# 2 11.4899 84.9606 -13.2347 0.0000 -10.5857 0.0000
# 3 36.8349 -13.2347 176.7617 0.0000 -23.0842 0.0000
# 4 0.0000 0.0000 0.0000 13.0800 0.0000 -10.7621
# 5 -30.1487 -10.5857 -23.0842 0.0000 51.3636 0.0000
# 6 0.0000 0.0000 0.0000 -10.7621 0.0000 -3.4198
#
#
#
# Elastic Compliance Matrix: (Units=1/GPa)
#
#
# Indices 1 2 3 4 5 6 
#
# 1 0.008375 -0.000808 -0.001259 0.000000 0.004183 0.000000
# 2 -0.000808 0.012449 0.001459 0.000000 0.002747 0.000000
# 3 -0.001259 0.001459 0.006344 0.000000 0.002413 0.000000
# 4 0.000000 0.000000 0.000000 0.021300 0.000000 -0.067031
# 5 0.004183 0.002747 0.002413 0.000000 0.023575 0.000000
# 6 0.000000 0.000000 0.000000 -0.067031 0.000000 -0.081468
#
#
# Mechanical properties :
#
#
# Convention : Reuss Voigt Hill
#
# Bulk Modulus (GPa) = 38.53190 52.55711 45.54451
# Shear Modulus (GPa) = 11323.18738 36.72101 5679.95420
#
# Velocity S-wave (km/s) = 66.52391 3.78836 47.11572
# Velocity P-wave (km/s) = 76.91316 6.29892 54.56789
#
# Compressibility (1/GPa) = 0.02595252
#
# Stress axis : x y z
#
# Youngs Moduli (GPa) = 119.40496 80.32776 157.62638
#
# Poissons Ratio (x) = 0.06487 0.19851
# Poissons Ratio (y) = 0.09643 -0.23001
# Poissons Ratio (z) = 0.15037 -0.11721
#
# Static dielectric constant tensor:
#      x y z
#    x 2.158640 0.000000 0.084200 
#    y 0.000000 2.058480 0.000000 
#    z 0.084200 0.000000 2.137620 
# 
# From -- ./inp_files/6851.got.cif
#   From: 2010.05.17/outbox.cif.g08.bks.cpg/sg15_4_cif.got.tgz:6851.got - 2010.06.03 18:47:42.
