data_PCOD9274792
_publ_section_title
;
Structure prediction by ZEFSAII (Michael W. Deem and Ramdas Pophale) SiO2 
 PCOD9274792
Probable space group: C 2/C
;
_chemical_formula_sum "Si O2"
_cell_formula_units_Z 64
_cell_length_a 9.188624
_cell_length_b 15.318058
_cell_length_c 31.647815
_cell_angle_alpha 90.000000
_cell_angle_beta 47.708898
_cell_angle_gamma 90.000000
_cell_volume 3295.144344
_symmetry_space_group_name_H-M "C 2/C"
_symmetry_group_IT_number 15
_symmetry_cell_setting 'monoclinic'
loop_
_space_group_symop_operation_xyz
x,y,z
-x,y,1/2-z
-x,-y,-z
x,-y,1/2+z
1/2+x,1/2+y,z
1/2-x,1/2+y,1/2-z
1/2-x,1/2-y,-z
1/2+x,1/2-y,1/2+z
loop_
_atom_site_type_symbol
_atom_site_label
_atom_site_fract_x
_atom_site_fract_y
_atom_site_fract_z
Si Si1 0.585062 0.974450 0.938181
Si Si2 0.937108 0.792899 0.214176
Si Si3 0.136948 0.659954 0.903454
Si Si4 0.143431 0.284684 0.114493
Si Si5 0.082204 0.101279 0.166869
Si Si6 0.810515 0.400699 0.710387
Si Si7 0.938934 0.708836 0.484151
Si Si8 0.448291 0.919586 0.210917
O O1 0.817395 0.953096 0.890181
O O2 0.486459 0.880958 0.949479
O O3 0.564464 0.059519 0.913608
O O4 0.500000 0.000000 0.000000
O O5 0.878811 0.699193 0.204801
O O6 0.758309 0.863602 0.251294
O O7 0.000000 0.774469 0.250000
O O8 0.133192 0.830179 0.153144
O O9 0.000824 0.712068 0.897519
O O10 0.101316 0.688129 0.958781
O O11 0.082721 0.201283 0.153758
O O12 0.368321 0.269219 0.057296
O O13 0.102962 0.366013 0.152519
O O14 0.218397 0.091137 0.181705
O O15 0.864817 0.078089 0.222530
O O16 0.950211 0.482211 0.692117
O O17 0.750000 0.750000 0.500000
O O18 0.500000 0.921180 0.250000
#
# Coordination Sequence:
#
# PCOD9274792 Si02
#       8
#     8   8   8   8   8   8   8   8
#     4   9  20  39  62  90 123 164 218 262 312 393
#     4  12  24  41  64  97 133 169 221 262 327 396
#     4  11  22  41  68  93 127 171 221 268 319 391
#     4  11  22  42  64  94 129 168 218 266 327 387
#     4  10  20  38  65  91 126 172 213 261 335 390
#     4  11  23  38  63  93 133 169 215 266 326 397
#     4  10  24  42  68  94 125 171 219 272 330 384
#     4  12  25  39  62  94 133 171 212 274 329 389
#
# _framework density 19.422519000000001
#
# number of rings (size 3 to 8) (size 9 to 14) (size 15 to 20)
#    0.000    1.250    2.500    3.000    7.000    0.000 
#    0.000    0.625    2.750    0.000    0.000    0.000 
#    0.000    0.000    0.000    0.000    0.000    0.000 
#
# Total GULP energy -178503.138074 kJ/mol
# GULP energy per Si atom -5578.223065 kJ/mol
# Density = 1.937831 g / cm^3
# Si number density = 19.422519 Si / 1000 Ang^3
#
#
#
# Elastic Constant Matrix: (Units=GPa)
#
#
# Indices 1 2 3 4 5 6 
#
# 1 60.9233 26.7843 3.9100 -0.0001 -4.2508 0.0001
# 2 26.7843 95.1399 32.1886 -0.0002 -4.4265 0.0002
# 3 3.9100 32.1886 107.7223 -0.0002 -15.1636 0.0002
# 4 -0.0001 -0.0002 -0.0002 32.0872 0.0002 6.6687
# 5 -4.2508 -4.4265 -15.1636 0.0002 27.8714 -0.0004
# 6 0.0001 0.0002 0.0002 6.6687 -0.0004 24.7146
#
#
#
# Elastic Compliance Matrix: (Units=1/GPa)
#
#
# Indices 1 2 3 4 5 6 
#
# 1 0.019023 -0.005701 0.001401 0.000000 0.002758 0.000000
# 2 -0.005701 0.013402 -0.003921 0.000000 -0.000874 0.000000
# 3 0.001401 -0.003921 0.011204 0.000000 0.005687 0.000000
# 4 0.000000 0.000000 0.000000 0.033017 0.000000 -0.008909
# 5 0.002758 -0.000874 0.005687 0.000000 0.039255 0.000001
# 6 0.000000 0.000000 0.000000 -0.008909 0.000001 0.042866
#
#
# Mechanical properties :
#
#
# Convention : Reuss Voigt Hill
#
# Bulk Modulus (GPa) = 36.78099 43.28347 40.03223
# Shear Modulus (GPa) = 27.13408 30.32815 28.73111
#
# Velocity S-wave (km/s) = 3.74176 3.95586 3.85030
# Velocity P-wave (km/s) = 6.13564 6.57257 6.35786
#
# Compressibility (1/GPa) = 0.02718796
#
# Stress axis : x y z
#
# Youngs Moduli (GPa) = 52.56771 74.61747 89.25138
#
# Poissons Ratio (x) = 0.42541 -0.12508
# Poissons Ratio (y) = 0.29970 0.34993
# Poissons Ratio (z) = -0.07367 0.29255
#
# Static dielectric constant tensor:
#      x y z
#    x 1.647410 0.000000 -0.010200 
#    y 0.000000 1.710960 0.000000 
#    z -0.010200 0.000000 1.715280 
# 
# From -- ./inp_files/308266.got.cif
#   From: 2010.05.17/outbox.cif.g08.bks.cpg/sg15_155_cif.got.tgz:308266.got - 2010.06.03 18:47:42.
