data_PCOD9274037
_publ_section_title
;
Structure prediction by ZEFSAII (Michael W. Deem and Ramdas Pophale) SiO2 
 PCOD9274037
Probable space group: C 2/C
;
_chemical_formula_sum "Si O2"
_cell_formula_units_Z 40
_cell_length_a 11.251798
_cell_length_b 18.041825
_cell_length_c 16.869066
_cell_angle_alpha 90.000000
_cell_angle_beta 145.195704
_cell_angle_gamma 90.000000
_cell_volume 1954.602617
_symmetry_space_group_name_H-M "C 2/C"
_symmetry_group_IT_number 15
_symmetry_cell_setting 'monoclinic'
loop_
_space_group_symop_operation_xyz
x,y,z
-x,y,1/2-z
-x,-y,-z
x,-y,1/2+z
1/2+x,1/2+y,z
1/2-x,1/2+y,1/2-z
1/2-x,1/2-y,-z
1/2+x,1/2-y,1/2+z
loop_
_atom_site_type_symbol
_atom_site_label
_atom_site_fract_x
_atom_site_fract_y
_atom_site_fract_z
Si Si1 0.068046 0.960677 0.116985
Si Si2 0.239899 0.659117 0.877255
Si Si3 0.068823 0.717996 0.120652
Si Si4 0.045345 0.112565 0.181603
Si Si5 0.633245 0.348419 0.393376
O O1 0.243172 0.903248 0.183088
O O2 0.882389 0.907786 0.045414
O O3 0.112321 0.027362 0.201306
O O4 0.000000 0.000000 0.000000
O O5 0.372924 0.728907 0.920232
O O6 0.000000 0.680591 0.750000
O O7 0.344693 0.630140 0.015953
O O8 0.268388 0.666767 0.244660
O O9 0.990093 0.773946 0.146827
O O10 0.864849 0.669299 0.994126
O O11 0.000000 0.123109 0.250000
O O12 0.500000 0.382084 0.250000
#
# Coordination Sequence:
#
# PCOD9274037 Si02
#       5
#     8   8   8   8   8
#     4   9  21  40  58  84 119 154 195 239 292 349
#     4  10  22  41  61  85 121 159 192 239 299 349
#     4  10  22  37  60  88 117 152 194 242 290 346
#     4  11  23  38  60  90 119 153 199 244 288 348
#     4  10  20  38  61  85 115 154 195 238 288 346
#
# _framework density 20.464517000000001
#
# number of rings (size 3 to 8) (size 9 to 14) (size 15 to 20)
#    0.000    2.000    0.000    2.400    0.000   11.200 
#    0.000    3.000    0.000    0.000    0.000    0.000 
#    0.000    0.000    0.000    0.000    0.000    0.000 
#
# Total GULP energy -111529.671990 kJ/mol
# GULP energy per Si atom -5576.483599 kJ/mol
# Density = 2.041794 g / cm^3
# Si number density = 20.464517 Si / 1000 Ang^3
#
#
#
# Elastic Constant Matrix: (Units=GPa)
#
#
# Indices 1 2 3 4 5 6 
#
# 1 105.5806 40.0466 60.7373 0.0000 17.2513 -0.0002
# 2 40.0466 101.3939 30.4007 0.0003 7.9399 0.0000
# 3 60.7373 30.4007 92.9656 0.0008 8.1086 -0.0006
# 4 0.0000 0.0003 0.0008 10.8024 0.0005 -8.8582
# 5 17.2513 7.9399 8.1086 0.0005 23.7143 -0.0002
# 6 -0.0002 0.0000 -0.0006 -8.8582 -0.0002 15.4464
#
#
#
# Elastic Compliance Matrix: (Units=1/GPa)
#
#
# Indices 1 2 3 4 5 6 
#
# 1 0.017756 -0.003431 -0.009743 0.000002 -0.008437 0.000001
# 2 -0.003431 0.011745 -0.001519 0.000000 -0.000917 0.000000
# 3 -0.009743 -0.001519 0.017477 -0.000002 0.001620 0.000000
# 4 0.000002 0.000000 -0.000002 0.174751 -0.000004 0.100216
# 5 -0.008437 -0.000917 0.001620 -0.000004 0.048059 -0.000002
# 6 0.000001 0.000000 0.000000 0.100216 -0.000002 0.122212
#
#
# Mechanical properties :
#
#
# Convention : Reuss Voigt Hill
#
# Bulk Modulus (GPa) = 56.84237 62.47881 59.66059
# Shear Modulus (GPa) = 11.70276 21.24298 16.47287
#
# Velocity S-wave (km/s) = 2.39395 3.22536 2.84024
# Velocity P-wave (km/s) = 5.95631 6.66837 6.32237
#
# Compressibility (1/GPa) = 0.01759251
#
# Stress axis : x y z
#
# Youngs Moduli (GPa) = 56.31890 85.14292 57.21708
#
# Poissons Ratio (x) = 0.29214 0.55745
# Poissons Ratio (y) = 0.19324 0.08692
# Poissons Ratio (z) = 0.54870 0.12934
#
# Static dielectric constant tensor:
#      x y z
#    x 1.756290 0.000000 -0.035570 
#    y 0.000000 1.789070 0.000000 
#    z -0.035570 0.000000 1.698500 
# 
# From -- ./inp_files/199755.got.cif
#   From: 2010.05.17/outbox.cif.g08.bks.cpg/sg15_100_cif.got.tgz:199755.got - 2010.06.03 18:47:42.
