data_PCOD9274248
_publ_section_title
;
Structure prediction by ZEFSAII (Michael W. Deem and Ramdas Pophale) SiO2 
 PCOD9274248
Probable space group: C 2/C
;
_chemical_formula_sum "Si O2"
_cell_formula_units_Z 52
_cell_length_a 9.971933
_cell_length_b 13.526112
_cell_length_c 21.516822
_cell_angle_alpha 90.000000
_cell_angle_beta 70.820064
_cell_angle_gamma 90.000000
_cell_volume 2741.122856
_symmetry_space_group_name_H-M "C 2/C"
_symmetry_group_IT_number 15
_symmetry_cell_setting 'monoclinic'
loop_
_space_group_symop_operation_xyz
x,y,z
-x,y,1/2-z
-x,-y,-z
x,-y,1/2+z
1/2+x,1/2+y,z
1/2-x,1/2+y,1/2-z
1/2-x,1/2-y,-z
1/2+x,1/2-y,1/2+z
loop_
_atom_site_type_symbol
_atom_site_label
_atom_site_fract_x
_atom_site_fract_y
_atom_site_fract_z
Si Si1 0.205263 0.288909 0.937363
Si Si2 0.629417 0.829304 0.530352
Si Si3 0.648489 0.157624 0.694691
Si Si4 0.845430 0.132525 0.784523
Si Si5 0.949311 0.460952 0.858370
Si Si6 0.811910 0.515039 0.585023
Si Si7 0.500000 0.176299 0.250000
O O1 0.283344 0.228507 0.869170
O O2 0.241775 0.405869 0.925253
O O3 0.250000 0.250000 0.000000
O O4 0.032351 0.287021 0.953032
O O5 0.750000 0.750000 0.500000
O O6 0.650411 0.880808 0.594024
O O7 0.656209 0.916212 0.477462
O O8 0.500000 0.192530 0.750000
O O9 0.753428 0.135295 0.736059
O O10 0.617175 0.052507 0.666821
O O11 0.781361 0.075809 0.851941
O O12 0.000000 0.086669 0.750000
O O13 0.880265 0.248179 0.791300
O O14 0.042661 0.500738 0.899892
O O15 0.047247 0.396511 0.797274
#
# Coordination Sequence:
#
# PCOD9274248 Si02
#       7
#     8   8   8   8   8   8   4
#     4  11  25  44  66  97 134 173 221 275 328 394
#     4  11  24  42  68  92 127 173 220 264 326 391
#     4  12  23  41  68  96 131 172 223 264 334 394
#     4  10  23  38  64  95 130 161 216 279 324 379
#     4  11  20  41  65  91 120 176 214 254 323 404
#     4  11  21  41  66  91 128 172 218 259 331 394
#     4  10  20  38  62  88 126 162 210 258 322 384
#
# _framework density 18.970329
#
# number of rings (size 3 to 8) (size 9 to 14) (size 15 to 20)
#    0.462    0.615    2.308    6.462    2.154    0.615 
#    2.769    1.538    0.000    0.000    0.000    0.000 
#    0.000    0.000    0.000    0.000    0.000    0.000 
#
# Total GULP energy -144832.382249 kJ/mol
# GULP energy per Si atom -5570.476240 kJ/mol
# Density = 1.892715 g / cm^3
# Si number density = 18.970329 Si / 1000 Ang^3
#
#
#
# Elastic Constant Matrix: (Units=GPa)
#
#
# Indices 1 2 3 4 5 6 
#
# 1 83.9956 52.6537 57.1849 0.0000 -8.8356 0.0000
# 2 52.6537 148.1340 86.1776 0.0000 -8.7420 0.0000
# 3 57.1849 86.1776 162.1864 0.0000 -15.2903 0.0000
# 4 0.0000 0.0000 0.0000 45.0697 0.0000 21.5832
# 5 -8.8356 -8.7420 -15.2903 0.0000 36.5455 0.0000
# 6 0.0000 0.0000 0.0000 21.5832 0.0000 3.9004
#
#
#
# Elastic Compliance Matrix: (Units=1/GPa)
#
#
# Indices 1 2 3 4 5 6 
#
# 1 0.017043 -0.003699 -0.003892 0.000000 0.001607 0.000000
# 2 -0.003699 0.010575 -0.004331 0.000000 -0.000177 0.000000
# 3 -0.003892 -0.004331 0.010050 0.000000 0.002228 0.000000
# 4 0.000000 0.000000 0.000000 -0.013447 0.000000 0.074413
# 5 0.001607 -0.000177 0.002228 0.000000 0.028641 0.000000
# 6 0.000000 0.000000 0.000000 0.074413 0.000000 -0.155387
#
#
# Mechanical properties :
#
#
# Convention : Reuss Voigt Hill
#
# Bulk Modulus (GPa) = 72.34604 87.37204 79.85904
# Shear Modulus (GPa) = -67.50094 30.32309 -18.58893
#
# Velocity S-wave (km/s) = -5.97157 4.00240 -3.13372
# Velocity P-wave (km/s) = 3.05401 8.21682 5.39394
#
# Compressibility (1/GPa) = 0.01382246
#
# Stress axis : x y z
#
# Youngs Moduli (GPa) = 58.67544 94.56535 99.50600
#
# Poissons Ratio (x) = 0.34976 0.38731
# Poissons Ratio (y) = 0.21702 0.43101
# Poissons Ratio (z) = 0.22838 0.40960
#
# Static dielectric constant tensor:
#      x y z
#    x 1.676520 0.000000 -0.027410 
#    y 0.000000 1.700450 0.000000 
#    z -0.027410 0.000000 2.448740 
# 
# From -- ./inp_files/236903.got.cif
#   From: 2010.05.17/outbox.cif.g08.bks.cpg/sg15_119_cif.got.tgz:236903.got - 2010.06.03 18:47:42.
