data_PCOD9274019
_publ_section_title
;
Structure prediction by ZEFSAII (Michael W. Deem and Ramdas Pophale) SiO2 
 PCOD9274019
Probable space group: C 2/C
;
_chemical_formula_sum "Si O2"
_cell_formula_units_Z 44
_cell_length_a 7.426034
_cell_length_b 11.793930
_cell_length_c 23.167599
_cell_angle_alpha 90.000000
_cell_angle_beta 58.528133
_cell_angle_gamma 90.000000
_cell_volume 1730.584851
_symmetry_space_group_name_H-M "C 2/C"
_symmetry_group_IT_number 15
_symmetry_cell_setting 'monoclinic'
loop_
_space_group_symop_operation_xyz
x,y,z
-x,y,1/2-z
-x,-y,-z
x,-y,1/2+z
1/2+x,1/2+y,z
1/2-x,1/2+y,1/2-z
1/2-x,1/2-y,-z
1/2+x,1/2-y,1/2+z
loop_
_atom_site_type_symbol
_atom_site_label
_atom_site_fract_x
_atom_site_fract_y
_atom_site_fract_z
Si Si1 0.832021 0.132207 0.225037
Si Si2 0.487184 0.717259 0.930113
Si Si3 0.063856 0.349860 0.176670
Si Si4 0.750000 0.750000 0.000000
Si Si5 0.511201 0.066322 0.371719
Si Si6 0.867574 0.024563 0.408649
O O1 0.614758 0.105409 0.293300
O O2 0.000000 0.122287 0.250000
O O3 0.880913 0.258279 0.192129
O O4 0.911352 0.048077 0.162094
O O5 0.713657 0.713075 0.858387
O O6 0.383473 0.829032 0.919466
O O7 0.376353 0.599144 0.935011
O O8 0.564190 0.739409 0.981575
O O9 0.000000 0.391881 0.250000
O O10 0.094135 0.446316 0.124416
O O11 0.677438 0.626152 0.040184
O O12 0.688705 0.033559 0.389212
#
# Coordination Sequence:
#
# PCOD9274019 Si02
#       6
#     8   8   8   4   8   8
#     4   9  16  34  57  81 114 152 179 229 291 342
#     4  11  21  39  58  86 115 151 197 245 290 347
#     4  11  19  38  61  84 122 154 184 235 294 351
#     4  10  20  38  64  82 108 162 202 240 298 336
#     4  10  21  37  58  87 118 150 187 235 294 352
#     4  10  20  38  61  81 117 152 197 243 289 342
#
# _framework density 25.42493
#
# number of rings (size 3 to 8) (size 9 to 14) (size 15 to 20)
#    0.000    1.818    7.273    1.636    0.000    0.000 
#    6.545    3.636    0.000    6.545    0.000    0.000 
#    0.000    0.000    0.000    0.000    0.000    0.000 
#
# Total GULP energy -122527.417465 kJ/mol
# GULP energy per Si atom -5569.428067 kJ/mol
# Density = 2.536706 g / cm^3
# Si number density = 25.424930 Si / 1000 Ang^3
#
#
#
# Elastic Constant Matrix: (Units=GPa)
#
#
# Indices 1 2 3 4 5 6 
#
# 1 35.7615 33.1421 40.3758 0.0000 -1.7793 0.0001
# 2 33.1421 138.1180 52.4875 0.0000 2.7389 0.0001
# 3 40.3758 52.4875 103.1099 0.0000 -0.0570 0.0000
# 4 0.0000 0.0000 0.0000 30.4939 0.0000 5.1000
# 5 -1.7793 2.7389 -0.0570 0.0000 27.4722 0.0000
# 6 0.0001 0.0001 0.0000 5.1000 0.0000 43.9418
#
#
#
# Elastic Compliance Matrix: (Units=1/GPa)
#
#
# Indices 1 2 3 4 5 6 
#
# 1 0.054430 -0.006253 -0.018128 0.000000 0.004111 0.000000
# 2 -0.006253 0.009718 -0.002499 0.000000 -0.001379 0.000000
# 3 -0.018128 -0.002499 0.018069 0.000000 -0.000888 0.000000
# 4 0.000000 0.000000 0.000000 0.033443 0.000000 -0.003881
# 5 0.004111 -0.001379 -0.000888 0.000000 0.036802 0.000000
# 6 0.000000 0.000000 0.000000 -0.003881 0.000000 0.023208
#
#
# Mechanical properties :
#
#
# Convention : Reuss Voigt Hill
#
# Bulk Modulus (GPa) = 35.14244 58.77780 46.96012
# Shear Modulus (GPa) = 20.92797 30.44721 25.68759
#
# Velocity S-wave (km/s) = 2.87213 3.46429 3.18202
# Velocity P-wave (km/s) = 4.98507 6.25861 5.65778
#
# Compressibility (1/GPa) = 0.02845562
#
# Stress axis : x y z
#
# Youngs Moduli (GPa) = 18.37221 102.90585 55.34470
#
# Poissons Ratio (x) = 0.64349 1.00330
# Poissons Ratio (y) = 0.11488 0.13830
# Poissons Ratio (z) = 0.33306 0.25714
#
# Static dielectric constant tensor:
#      x y z
#    x 1.996960 0.000000 -0.028530 
#    y 0.000000 2.036110 0.000000 
#    z -0.028530 0.000000 2.000750 
# 
# From -- ./inp_files/262805.got.cif
#   From: 2010.05.17/outbox.cif.g08.bks.cpg/sg15_132_cif.got.tgz:262805.got - 2010.06.03 18:47:42.
