data_PCOD9274385
_publ_section_title
;
Structure prediction by ZEFSAII (Michael W. Deem and Ramdas Pophale) SiO2 
 PCOD9274385
Probable space group: C 2/C
;
_chemical_formula_sum "Si O2"
_cell_formula_units_Z 40
_cell_length_a 29.030815
_cell_length_b 8.583298
_cell_length_c 16.973381
_cell_angle_alpha 90.000000
_cell_angle_beta 25.458109
_cell_angle_gamma 90.000000
_cell_volume 1818.024747
_symmetry_space_group_name_H-M "C 2/C"
_symmetry_group_IT_number 15
_symmetry_cell_setting 'monoclinic'
loop_
_space_group_symop_operation_xyz
x,y,z
-x,y,1/2-z
-x,-y,-z
x,-y,1/2+z
1/2+x,1/2+y,z
1/2-x,1/2+y,1/2-z
1/2-x,1/2-y,-z
1/2+x,1/2-y,1/2+z
loop_
_atom_site_type_symbol
_atom_site_label
_atom_site_fract_x
_atom_site_fract_y
_atom_site_fract_z
Si Si1 0.310472 0.344366 0.474328
Si Si2 0.754427 0.823520 0.856895
Si Si3 0.753548 0.350244 0.212381
Si Si4 0.000018 0.373148 0.659731
Si Si5 0.655796 0.101530 0.673833
O O1 0.250000 0.250000 0.500000
O O2 0.264893 0.278053 0.626498
O O3 0.433314 0.289134 0.273218
O O4 0.266097 0.516436 0.531364
O O5 0.699441 0.719677 0.873438
O O6 0.853920 0.740815 0.749026
O O7 0.782651 0.987933 0.771051
O O8 0.677326 0.852566 0.050172
O O9 0.876317 0.366598 0.051428
O O10 0.938825 0.477939 0.690269
O O11 0.000000 0.438105 0.750000
#
# Coordination Sequence:
#
# PCOD9274385 Si02
#       5
#     8   8   8   8   8
#     4   9  16  35  63  80 110 154 190 230 290 349
#     4  11  22  35  59  87 117 154 195 236 296 341
#     4  11  21  37  61  86 118 153 200 240 285 350
#     4   9  17  35  63  83 108 157 197 230 287 352
#     4  10  20  38  63  83 114 157 196 234 294 357
#
# _framework density 22.001899000000002
#
# number of rings (size 3 to 8) (size 9 to 14) (size 15 to 20)
#    0.000    2.000    6.000    1.200    0.000    0.800 
#    0.000    1.000   39.600    0.000    0.000    0.000 
#    0.000    0.000    0.000    0.000    0.000    0.000 
#
# Total GULP energy -111351.459012 kJ/mol
# GULP energy per Si atom -5567.572951 kJ/mol
# Density = 2.195182 g / cm^3
# Si number density = 22.001899 Si / 1000 Ang^3
#
#
#
# Elastic Constant Matrix: (Units=GPa)
#
#
# Indices 1 2 3 4 5 6 
#
# 1 99.8981 54.1859 36.7795 0.0000 17.9507 0.0000
# 2 54.1859 103.5495 18.9067 -0.0002 7.0682 0.0001
# 3 36.7795 18.9067 22.5861 -0.0001 3.2763 0.0000
# 4 0.0000 -0.0002 -0.0001 8.2937 0.0000 3.3170
# 5 17.9507 7.0682 3.2763 0.0000 46.3273 0.0000
# 6 0.0000 0.0001 0.0000 3.3170 0.0000 64.8095
#
#
#
# Elastic Compliance Matrix: (Units=1/GPa)
#
#
# Indices 1 2 3 4 5 6 
#
# 1 0.032377 -0.008235 -0.044650 0.000000 -0.008131 0.000000
# 2 -0.008235 0.013547 0.001926 0.000000 0.000988 0.000000
# 3 -0.044650 0.001926 0.114074 0.000001 0.008940 0.000000
# 4 0.000000 0.000000 0.000001 0.123092 0.000000 -0.006300
# 5 -0.008131 0.000988 0.008940 0.000000 0.023953 0.000000
# 6 0.000000 0.000000 0.000000 -0.006300 0.000000 0.015752
#
#
# Mechanical properties :
#
#
# Convention : Reuss Voigt Hill
#
# Bulk Modulus (GPa) = 17.21729 49.53087 33.37408
# Shear Modulus (GPa) = 11.25940 31.63021 21.44481
#
# Velocity S-wave (km/s) = 2.26464 3.79570 3.12537
# Velocity P-wave (km/s) = 3.83151 6.46303 5.31278
#
# Compressibility (1/GPa) = 0.05808115
#
# Stress axis : x y z
#
# Youngs Moduli (GPa) = 30.88654 73.81563 8.76622
#
# Poissons Ratio (x) = 0.60785 0.39141
# Poissons Ratio (y) = 0.25434 -0.01688
# Poissons Ratio (z) = 1.37907 -0.14217
#
# Static dielectric constant tensor:
#      x y z
#    x 1.818830 0.000000 0.022190 
#    y 0.000000 2.036510 0.000000 
#    z 0.022190 0.000000 1.861090 
# 
# From -- ./inp_files/224192.got.cif
#   From: 2010.05.17/outbox.cif.g08.bks.cpg/sg15_113_cif.got.tgz:224192.got - 2010.06.03 18:47:42.
