data_PCOD9274418
_publ_section_title
;
Structure prediction by ZEFSAII (Michael W. Deem and Ramdas Pophale) SiO2 
 PCOD9274418
Probable space group: C 2/C
;
_chemical_formula_sum "Si O2"
_cell_formula_units_Z 56
_cell_length_a 22.875061
_cell_length_b 14.776259
_cell_length_c 8.555910
_cell_angle_alpha 90.000000
_cell_angle_beta 65.119340
_cell_angle_gamma 90.000000
_cell_volume 2623.549978
_symmetry_space_group_name_H-M "C 2/C"
_symmetry_group_IT_number 15
_symmetry_cell_setting 'monoclinic'
loop_
_space_group_symop_operation_xyz
x,y,z
-x,y,1/2-z
-x,-y,-z
x,-y,1/2+z
1/2+x,1/2+y,z
1/2-x,1/2+y,1/2-z
1/2-x,1/2-y,-z
1/2+x,1/2-y,1/2+z
loop_
_atom_site_type_symbol
_atom_site_label
_atom_site_fract_x
_atom_site_fract_y
_atom_site_fract_z
Si Si1 0.739289 0.171500 0.882302
Si Si2 0.562991 0.065042 0.948144
Si Si3 0.141738 0.259504 0.891363
Si Si4 0.440298 0.398838 0.033338
Si Si5 0.917555 0.923613 0.690363
Si Si6 0.872712 0.728113 0.727397
Si Si7 0.356186 0.932091 0.835655
O O1 0.803072 0.184981 0.708036
O O2 0.681186 0.195417 0.831692
O O3 0.750000 0.250000 0.000000
O O4 0.712901 0.080866 0.998779
O O5 0.563358 0.167404 0.879754
O O6 0.622809 0.018477 0.787611
O O7 0.586895 0.072522 0.099401
O O8 0.500000 0.000000 0.000000
O O9 0.144112 0.348174 0.783481
O O10 0.078379 0.203942 0.917915
O O11 0.143299 0.284059 0.071912
O O12 0.429307 0.416243 0.861831
O O13 0.515730 0.410450 0.978816
O O14 0.399312 0.473943 0.171491
O O15 0.877125 0.835694 0.694233
#
# Coordination Sequence:
#
# PCOD9274418 Si02
#       7
#     8   8   8   8   8   8   8
#     4   9  20  39  60  84 117 157 207 255 304 372
#     4  11  23  39  58  89 125 164 211 253 309 382
#     4  10  20  38  63  88 119 161 205 257 312 365
#     4   9  19  35  57  86 118 150 194 240 302 365
#     4   9  19  36  56  85 119 152 188 243 301 367
#     4  10  21  38  62  88 123 161 207 254 317 368
#     4  10  22  39  58  84 122 160 204 257 307 367
#
# _framework density 21.345124999999999
#
# number of rings (size 3 to 8) (size 9 to 14) (size 15 to 20)
#    0.000    2.286    0.000    1.714    2.000    3.429 
#    2.571   12.857    0.000    0.000    0.000    0.000 
#    0.000    0.000    0.000    0.000    0.000    0.000 
#
# Total GULP energy -155896.749921 kJ/mol
# GULP energy per Si atom -5567.741069 kJ/mol
# Density = 2.129654 g / cm^3
# Si number density = 21.345125 Si / 1000 Ang^3
#
#
#
# Elastic Constant Matrix: (Units=GPa)
#
#
# Indices 1 2 3 4 5 6 
#
# 1 56.9195 11.6340 13.1341 0.0000 4.5334 0.0000
# 2 11.6340 52.6363 20.3239 0.0000 8.8438 0.0000
# 3 13.1341 20.3239 64.7780 0.0000 5.5812 0.0000
# 4 0.0000 0.0000 0.0000 38.0151 0.0000 -8.6878
# 5 4.5334 8.8438 5.5812 0.0000 17.0708 0.0000
# 6 0.0000 0.0000 0.0000 -8.6878 0.0000 28.7320
#
#
#
# Elastic Compliance Matrix: (Units=1/GPa)
#
#
# Indices 1 2 3 4 5 6 
#
# 1 0.018972 -0.002659 -0.002775 0.000000 -0.002753 0.000000
# 2 -0.002659 0.023506 -0.006017 0.000000 -0.009504 0.000000
# 3 -0.002775 -0.006017 0.018065 0.000000 -0.002052 0.000000
# 4 0.000000 0.000000 0.000000 0.028258 0.000000 0.008544
# 5 -0.002753 -0.009504 -0.002052 0.000000 0.064906 0.000000
# 6 0.000000 0.000000 0.000000 0.008544 0.000000 0.037388
#
#
# Mechanical properties :
#
#
# Convention : Reuss Voigt Hill
#
# Bulk Modulus (GPa) = 26.56731 29.39084 27.97907
# Shear Modulus (GPa) = 22.07082 25.37970 23.72526
#
# Velocity S-wave (km/s) = 3.21907 3.45195 3.33754
# Velocity P-wave (km/s) = 5.12739 5.44860 5.29043
#
# Compressibility (1/GPa) = 0.03764025
#
# Stress axis : x y z
#
# Youngs Moduli (GPa) = 52.70972 42.54201 55.35687
#
# Poissons Ratio (x) = 0.11312 0.15362
# Poissons Ratio (y) = 0.14016 0.33308
# Poissons Ratio (z) = 0.14628 0.25597
#
# Static dielectric constant tensor:
#      x y z
#    x 1.825120 0.000000 -0.065220 
#    y 0.000000 1.852250 0.000000 
#    z -0.065220 0.000000 1.816700 
# 
# From -- ./inp_files/61467.got.cif
#   From: 2010.05.17/outbox.cif.g08.bks.cpg/sg15_31_cif.got.tgz:61467.got - 2010.06.03 18:47:42.
