data_PCOD9274114
_publ_section_title
;
Structure prediction by ZEFSAII (Michael W. Deem and Ramdas Pophale) SiO2 
 PCOD9274114
Probable space group: C 2/C
;
_chemical_formula_sum "Si O2"
_cell_formula_units_Z 44
_cell_length_a 12.099337
_cell_length_b 14.009708
_cell_length_c 19.987124
_cell_angle_alpha 90.000000
_cell_angle_beta 141.334964
_cell_angle_gamma 90.000000
_cell_volume 2116.696316
_symmetry_space_group_name_H-M "C 2/C"
_symmetry_group_IT_number 15
_symmetry_cell_setting 'monoclinic'
loop_
_space_group_symop_operation_xyz
x,y,z
-x,y,1/2-z
-x,-y,-z
x,-y,1/2+z
1/2+x,1/2+y,z
1/2-x,1/2+y,1/2-z
1/2-x,1/2-y,-z
1/2+x,1/2-y,1/2+z
loop_
_atom_site_type_symbol
_atom_site_label
_atom_site_fract_x
_atom_site_fract_y
_atom_site_fract_z
Si Si1 0.415918 0.413569 0.502493
Si Si2 0.358107 0.770792 0.365715
Si Si3 0.500000 0.659132 0.750000
Si Si4 0.083539 0.386010 0.581248
Si Si5 0.827664 0.285315 0.208058
Si Si6 0.743394 0.482084 0.445072
O O1 0.500000 0.500000 0.500000
O O2 0.560899 0.334871 0.592641
O O3 0.278193 0.358161 0.388928
O O4 0.326645 0.453786 0.527677
O O5 0.155122 0.778768 0.291170
O O6 0.469982 0.831350 0.471471
O O7 0.384249 0.822460 0.306961
O O8 0.405140 0.593610 0.648589
O O9 0.205862 0.304923 0.669576
O O10 0.205140 0.460225 0.598207
O O11 0.931420 0.433807 0.553965
O O12 0.000000 0.251728 0.250000
#
# Coordination Sequence:
#
# PCOD9274114 Si02
#       6
#     8   8   4   8   8   8
#     4  11  24  41  61  92 130 161 206 262 306 360
#     4  10  22  41  60  88 128 163 208 250 312 375
#     4  10  22  38  64  90 122 174 206 246 308 378
#     4   9  21  38  61  90 121 162 200 260 307 359
#     4  11  22  39  64  91 122 167 205 249 319 367
#     4  10  20  38  61  91 124 155 212 253 302 365
#
# _framework density 20.787109999999998
#
# number of rings (size 3 to 8) (size 9 to 14) (size 15 to 20)
#    0.000    1.818    0.000    3.273    3.818    4.364 
#    8.182    5.455    0.000    0.000    0.000    0.000 
#    0.000    0.000    0.000    0.000    0.000    0.000 
#
# Total GULP energy -122871.585016 kJ/mol
# GULP energy per Si atom -5585.072046 kJ/mol
# Density = 2.073980 g / cm^3
# Si number density = 20.787110 Si / 1000 Ang^3
#
#
#
# Elastic Constant Matrix: (Units=GPa)
#
#
# Indices 1 2 3 4 5 6 
#
# 1 114.7698 55.2135 47.0875 0.0000 13.1340 0.0000
# 2 55.2135 106.6205 42.4154 0.0000 17.0877 0.0000
# 3 47.0875 42.4154 79.2570 0.0000 11.8155 0.0000
# 4 0.0000 0.0000 0.0000 8.5688 0.0000 6.8892
# 5 13.1340 17.0877 11.8155 0.0000 28.3174 0.0000
# 6 0.0000 0.0000 0.0000 6.8892 0.0000 42.9115
#
#
#
# Elastic Compliance Matrix: (Units=1/GPa)
#
#
# Indices 1 2 3 4 5 6 
#
# 1 0.013183 -0.004563 -0.005214 0.000000 -0.001186 0.000000
# 2 -0.004563 0.014149 -0.004163 0.000000 -0.004685 0.000000
# 3 -0.005214 -0.004163 0.018349 0.000000 -0.002726 0.000000
# 4 0.000000 0.000000 0.000000 0.133998 0.000000 -0.021512
# 5 -0.001186 -0.004685 -0.002726 0.000000 0.039828 0.000000
# 6 0.000000 0.000000 0.000000 -0.021512 0.000000 0.026757
#
#
# Mechanical properties :
#
#
# Convention : Reuss Voigt Hill
#
# Bulk Modulus (GPa) = 56.17235 65.56447 60.86841
# Shear Modulus (GPa) = 17.85235 26.35495 22.10365
#
# Velocity S-wave (km/s) = 2.93374 3.56455 3.26442
# Velocity P-wave (km/s) = 6.20944 6.96784 6.59954
#
# Compressibility (1/GPa) = 0.01780235
#
# Stress axis : x y z
#
# Youngs Moduli (GPa) = 75.85654 70.67830 54.49980
#
# Poissons Ratio (x) = 0.32248 0.28414
# Poissons Ratio (y) = 0.34611 0.22687
# Poissons Ratio (z) = 0.39548 0.29421
#
# Static dielectric constant tensor:
#      x y z
#    x 1.770060 0.000000 0.012450 
#    y 0.000000 1.790550 0.000000 
#    z 0.012450 0.000000 1.778070 
# 
# From -- ./inp_files/86051.got.cif
#   From: 2010.05.17/outbox.cif.g08.bks.cpg/sg15_44_cif.got.tgz:86051.got - 2010.06.03 18:47:42.
