data_PCOD9274937
_publ_section_title
;
Structure prediction by ZEFSAII (Michael W. Deem and Ramdas Pophale) SiO2 
 PCOD9274937
Probable space group: C 2/C
;
_chemical_formula_sum "Si O2"
_cell_formula_units_Z 32
_cell_length_a 13.812968
_cell_length_b 4.702633
_cell_length_c 17.502440
_cell_angle_alpha 90.000000
_cell_angle_beta 110.413086
_cell_angle_gamma 90.000000
_cell_volume 1065.516209
_symmetry_space_group_name_H-M "C 2/C"
_symmetry_group_IT_number 15
_symmetry_cell_setting 'monoclinic'
loop_
_space_group_symop_operation_xyz
x,y,z
-x,y,1/2-z
-x,-y,-z
x,-y,1/2+z
1/2+x,1/2+y,z
1/2-x,1/2+y,1/2-z
1/2-x,1/2-y,-z
1/2+x,1/2-y,1/2+z
loop_
_atom_site_type_symbol
_atom_site_label
_atom_site_fract_x
_atom_site_fract_y
_atom_site_fract_z
Si Si1 0.189435 0.887719 0.079801
Si Si2 0.500000 0.673954 0.250000
Si Si3 0.780019 0.921797 0.212420
Si Si4 0.000000 0.000000 0.500000
Si Si5 0.910087 0.521256 0.579038
O O1 0.225239 0.602321 0.131070
O O2 0.290571 0.028586 0.071442
O O3 0.105907 0.772481 0.989355
O O4 0.100891 0.092987 0.085030
O O5 0.400104 0.480552 0.236208
O O6 0.530701 0.866450 0.330753
O O7 0.738815 0.090201 0.276930
O O8 0.964880 0.262090 0.554910
#
# Coordination Sequence:
#
# PCOD9274937 Si02
#       5
#     8   4   8   4   8
#     4   8  16  31  55  86 125 159 215 256 323 374
#     4  10  20  38  66  94 134 172 220 270 334 374
#     4  11  24  42  66  97 133 172 220 271 324 392
#     4   8  12  26  52  82 114 160 198 252 308 370
#     4   8  15  28  54  87 123 165 209 265 313 387
#
# _framework density 30.032391000000001
#
# number of rings (size 3 to 8) (size 9 to 14) (size 15 to 20)
#    1.500    1.500    0.000    1.500    0.000    1.000 
#    0.000    1.250    0.000   15.000    0.000    0.000 
#    0.000    0.000    0.000    0.000    0.000    0.000 
#
# Total GULP energy -89619.051268 kJ/mol
# GULP energy per Si atom -5601.190704 kJ/mol
# Density = 2.996404 g / cm^3
# Si number density = 30.032391 Si / 1000 Ang^3
#
#
#
# Elastic Constant Matrix: (Units=GPa)
#
#
# Indices 1 2 3 4 5 6 
#
# 1 242.0406 49.3083 24.1717 -0.0001 25.9882 0.0001
# 2 49.3083 167.1346 6.3268 -0.0002 -2.5620 0.0002
# 3 24.1717 6.3268 129.9832 -0.0001 21.9252 0.0001
# 4 -0.0001 -0.0002 -0.0001 32.5922 0.0000 -10.0208
# 5 25.9882 -2.5620 21.9252 0.0000 67.0196 0.0000
# 6 0.0001 0.0002 0.0001 -10.0208 0.0000 55.2468
#
#
#
# Elastic Compliance Matrix: (Units=1/GPa)
#
#
# Indices 1 2 3 4 5 6 
#
# 1 0.004644 -0.001377 -0.000512 0.000000 -0.001686 0.000000
# 2 -0.001377 0.006410 -0.000198 0.000000 0.000844 0.000000
# 3 -0.000512 -0.000198 0.008220 0.000000 -0.002498 0.000000
# 4 0.000000 0.000000 0.000000 0.032494 0.000000 0.005894
# 5 -0.001686 0.000844 -0.002498 0.000000 0.016424 0.000000
# 6 0.000000 0.000000 0.000000 0.005894 0.000000 0.019170
#
#
# Mechanical properties :
#
#
# Convention : Reuss Voigt Hill
#
# Bulk Modulus (GPa) = 66.22872 77.64133 71.93502
# Shear Modulus (GPa) = 51.77646 61.59515 56.68581
#
# Velocity S-wave (km/s) = 4.15664 4.53366 4.34924
# Velocity P-wave (km/s) = 6.71842 7.30165 7.01610
#
# Compressibility (1/GPa) = 0.01509919
#
# Stress axis : x y z
#
# Youngs Moduli (GPa) = 215.32481 156.01201 121.66100
#
# Poissons Ratio (x) = 0.21476 0.06232
# Poissons Ratio (y) = 0.29641 0.02413
# Poissons Ratio (z) = 0.11030 0.03094
#
# Static dielectric constant tensor:
#      x y z
#    x 2.293140 0.000000 -0.066760 
#    y 0.000000 2.210920 0.000000 
#    z -0.066760 0.000000 2.901680 
# 
# From -- ./inp_files/241573.got.cif
#   From: 2010.05.17/outbox.cif.g08.bks.cpg/sg15_121_cif.got.tgz:241573.got - 2010.06.03 18:47:42.
