data_PCOD9274977
_publ_section_title
;
Structure prediction by ZEFSAII (Michael W. Deem and Ramdas Pophale) SiO2 
 PCOD9274977
Probable space group: C 2/C
;
_chemical_formula_sum "Si O2"
_cell_formula_units_Z 44
_cell_length_a 11.984683
_cell_length_b 9.064240
_cell_length_c 28.712670
_cell_angle_alpha 90.000000
_cell_angle_beta 38.630505
_cell_angle_gamma 90.000000
_cell_volume 1947.250396
_symmetry_space_group_name_H-M "C 2/C"
_symmetry_group_IT_number 15
_symmetry_cell_setting 'monoclinic'
loop_
_space_group_symop_operation_xyz
x,y,z
-x,y,1/2-z
-x,-y,-z
x,-y,1/2+z
1/2+x,1/2+y,z
1/2-x,1/2+y,1/2-z
1/2-x,1/2-y,-z
1/2+x,1/2-y,1/2+z
loop_
_atom_site_type_symbol
_atom_site_label
_atom_site_fract_x
_atom_site_fract_y
_atom_site_fract_z
Si Si1 0.194007 0.814574 0.916913
Si Si2 0.962350 0.370290 0.908739
Si Si3 0.500000 0.701488 0.750000
Si Si4 0.000000 0.706668 0.750000
Si Si5 0.831139 0.049662 0.242135
Si Si6 0.500000 0.000000 0.000000
Si Si7 0.873269 0.054554 0.625053
O O1 0.288699 0.868457 0.933222
O O2 0.355206 0.787989 0.827244
O O3 0.074706 0.938951 0.931275
O O4 0.094189 0.660115 0.956660
O O5 0.127088 0.423396 0.822570
O O6 0.010165 0.201175 0.906543
O O7 0.964509 0.464810 0.955149
O O8 0.601788 0.595402 0.753046
O O9 0.942916 0.813696 0.726391
O O10 0.826637 0.614703 0.820002
O O11 0.864835 0.027435 0.177191
#
# Coordination Sequence:
#
# PCOD9274977 Si02
#       7
#     8   8   4   4   8   4   8
#     4  12  25  44  70 100 134 181 230 282 344 408
#     4  11  24  45  67  95 139 180 231 277 340 412
#     4  11  19  40  72  98 134 172 218 284 346 400
#     4   9  21  34  56 102 136 158 208 272 342 398
#     4  10  20  38  67 102 134 168 215 285 347 397
#     4  12  28  48  68  94 142 194 228 280 344 404
#     4  11  23  39  69 103 133 170 226 284 337 405
#
# _framework density 22.595963999999999
#
# number of rings (size 3 to 8) (size 9 to 14) (size 15 to 20)
#    0.000    1.091    3.636    3.273    2.545    2.182 
#    0.000    1.818    0.000    0.000    0.000    0.000 
#    0.000    0.000    0.000    0.000    0.000    0.000 
#
# Total GULP energy -122665.792144 kJ/mol
# GULP energy per Si atom -5575.717825 kJ/mol
# Density = 2.254453 g / cm^3
# Si number density = 22.595964 Si / 1000 Ang^3
#
#
#
# Elastic Constant Matrix: (Units=GPa)
#
#
# Indices 1 2 3 4 5 6 
#
# 1 145.8074 75.2681 52.7342 0.0000 43.4797 0.0000
# 2 75.2681 103.9444 36.1399 0.0000 25.8279 0.0000
# 3 52.7342 36.1399 92.6976 0.0001 34.1626 -0.0001
# 4 0.0000 0.0000 0.0001 22.9682 0.0000 -4.4370
# 5 43.4797 25.8279 34.1626 0.0000 30.1661 0.0000
# 6 0.0000 0.0000 -0.0001 -4.4370 0.0000 8.6904
#
#
#
# Elastic Compliance Matrix: (Units=1/GPa)
#
#
# Indices 1 2 3 4 5 6 
#
# 1 0.015278 -0.007096 -0.000083 0.000000 -0.015852 0.000000
# 2 -0.007096 0.015648 -0.001537 0.000000 -0.001430 0.000000
# 3 -0.000083 -0.001537 0.018717 0.000000 -0.019760 0.000000
# 4 0.000000 0.000000 0.000000 0.048303 0.000000 0.024662
# 5 -0.015852 -0.001430 -0.019760 0.000000 0.079600 0.000000
# 6 0.000000 0.000000 0.000000 0.024662 0.000000 0.127661
#
#
# Mechanical properties :
#
#
# Convention : Reuss Voigt Hill
#
# Bulk Modulus (GPa) = 31.04483 74.52596 52.78540
# Shear Modulus (GPa) = 14.99803 24.25208 19.62505
#
# Velocity S-wave (km/s) = 2.57913 3.27967 2.95026
# Velocity P-wave (km/s) = 4.75795 6.88442 5.91749
#
# Compressibility (1/GPa) = 0.03221148
#
# Stress axis : x y z
#
# Youngs Moduli (GPa) = 65.45214 63.90459 53.42765
#
# Poissons Ratio (x) = 0.45344 0.00445
# Poissons Ratio (y) = 0.46442 0.08213
# Poissons Ratio (z) = 0.00545 0.09824
#
# Static dielectric constant tensor:
#      x y z
#    x 1.854260 0.000000 -0.028190 
#    y 0.000000 1.812200 0.000000 
#    z -0.028190 0.000000 1.772510 
# 
# From -- ./inp_files/236094.got.cif
#   From: 2010.05.17/outbox.cif.g08.bks.cpg/sg15_119_cif.got.tgz:236094.got - 2010.06.03 18:47:42.
