data_PCOD9274648
_publ_section_title
;
Structure prediction by ZEFSAII (Michael W. Deem and Ramdas Pophale) SiO2 
 PCOD9274648
Probable space group: C 2/C
;
_chemical_formula_sum "Si O2"
_cell_formula_units_Z 48
_cell_length_a 8.394969
_cell_length_b 18.929125
_cell_length_c 17.496478
_cell_angle_alpha 90.000000
_cell_angle_beta 118.796938
_cell_angle_gamma 90.000000
_cell_volume 2436.515351
_symmetry_space_group_name_H-M "C 2/C"
_symmetry_group_IT_number 15
_symmetry_cell_setting 'monoclinic'
loop_
_space_group_symop_operation_xyz
x,y,z
-x,y,1/2-z
-x,-y,-z
x,-y,1/2+z
1/2+x,1/2+y,z
1/2-x,1/2+y,1/2-z
1/2-x,1/2-y,-z
1/2+x,1/2-y,1/2+z
loop_
_atom_site_type_symbol
_atom_site_label
_atom_site_fract_x
_atom_site_fract_y
_atom_site_fract_z
Si Si1 0.956205 0.447409 0.886183
Si Si2 0.135743 0.399125 0.074214
Si Si3 0.540203 0.605125 0.672687
Si Si4 0.846957 0.869915 0.779477
Si Si5 0.154351 0.018283 0.096470
Si Si6 0.351467 0.205085 0.782350
O O1 0.866968 0.521520 0.891516
O O2 0.834114 0.404760 0.798261
O O3 0.150979 0.468057 0.895993
O O4 0.995795 0.401819 0.971733
O O5 0.340405 0.384842 0.091596
O O6 0.098200 0.342565 0.132239
O O7 0.500000 0.580379 0.750000
O O8 0.656384 0.547720 0.654701
O O9 0.659518 0.674945 0.708240
O O10 0.899284 0.914133 0.865958
O O11 0.830063 0.787555 0.794972
O O12 0.000000 0.877335 0.750000
O O13 0.000000 0.000000 0.000000
O O14 0.500000 0.196678 0.750000
#
# Coordination Sequence:
#
# PCOD9274648 Si02
#       6
#     8   8   8   8   8   8
#     4  11  23  40  66  95 128 162 212 262 315 370
#     4  10  21  39  64  95 125 163 210 261 312 374
#     4  10  20  38  64  91 124 167 208 256 310 371
#     4  11  25  44  64  92 130 169 210 260 318 376
#     4  12  23  39  65  99 125 162 213 263 309 374
#     4  10  22  43  64  90 127 174 210 256 318 377
#
# _framework density 19.700265999999999
#
# number of rings (size 3 to 8) (size 9 to 14) (size 15 to 20)
#    0.000    1.333    1.667    5.000    2.333    4.000 
#    3.000    3.333    0.000    0.000    0.000    0.000 
#    0.000    0.000    0.000    0.000    0.000    0.000 
#
# Total GULP energy -134130.539653 kJ/mol
# GULP energy per Si atom -5588.772486 kJ/mol
# Density = 1.965543 g / cm^3
# Si number density = 19.700266 Si / 1000 Ang^3
#
#
#
# Elastic Constant Matrix: (Units=GPa)
#
#
# Indices 1 2 3 4 5 6 
#
# 1 84.9799 50.5877 37.1195 0.0000 8.6715 0.0000
# 2 50.5877 137.9679 75.7748 0.0000 -2.2296 0.0000
# 3 37.1195 75.7748 115.4417 0.0000 8.7814 0.0000
# 4 0.0000 0.0000 0.0000 10.1238 0.0000 -8.7273
# 5 8.6715 -2.2296 8.7814 0.0000 23.0390 0.0000
# 6 0.0000 0.0000 0.0000 -8.7273 0.0000 32.3237
#
#
#
# Elastic Compliance Matrix: (Units=1/GPa)
#
#
# Indices 1 2 3 4 5 6 
#
# 1 0.016096 -0.005338 -0.001207 0.000000 -0.006115 0.000000
# 2 -0.005338 0.013483 -0.007607 0.000000 0.006213 0.000000
# 3 -0.001207 -0.007607 0.014485 0.000000 -0.005803 0.000000
# 4 0.000000 0.000000 0.000000 0.128743 0.000000 0.034760
# 5 -0.006115 0.006213 -0.005803 0.000000 0.048519 0.000000
# 6 0.000000 0.000000 0.000000 0.034760 0.000000 0.040322
#
#
# Mechanical properties :
#
#
# Convention : Reuss Voigt Hill
#
# Bulk Modulus (GPa) = 63.44465 73.92816 68.68641
# Shear Modulus (GPa) = 16.93738 24.75779 20.84759
#
# Velocity S-wave (km/s) = 2.93534 3.54888 3.25659
# Velocity P-wave (km/s) = 6.61537 7.37568 7.00585
#
# Compressibility (1/GPa) = 0.01576177
#
# Stress axis : x y z
#
# Youngs Moduli (GPa) = 62.12657 74.16532 69.03834
#
# Poissons Ratio (x) = 0.39589 0.08331
# Poissons Ratio (y) = 0.33163 0.52515
# Poissons Ratio (z) = 0.07497 0.56415
#
# Static dielectric constant tensor:
#      x y z
#    x 1.707190 0.000000 0.006530 
#    y 0.000000 1.666010 0.000000 
#    z 0.006530 0.000000 1.721740 
# 
# From -- ./inp_files/232308.got.cif
#   From: 2010.05.17/outbox.cif.g08.bks.cpg/sg15_117_cif.got.tgz:232308.got - 2010.06.03 18:47:42.
