data_PCOD9274432
_publ_section_title
;
Structure prediction by ZEFSAII (Michael W. Deem and Ramdas Pophale) SiO2 
 PCOD9274432
Probable space group: C 2/C
;
_chemical_formula_sum "Si O2"
_cell_formula_units_Z 64
_cell_length_a 27.622494
_cell_length_b 20.174123
_cell_length_c 12.428466
_cell_angle_alpha 90.000000
_cell_angle_beta 148.943773
_cell_angle_gamma 90.000000
_cell_volume 3572.917054
_symmetry_space_group_name_H-M "C 2/C"
_symmetry_group_IT_number 15
_symmetry_cell_setting 'monoclinic'
loop_
_space_group_symop_operation_xyz
x,y,z
-x,y,1/2-z
-x,-y,-z
x,-y,1/2+z
1/2+x,1/2+y,z
1/2-x,1/2+y,1/2-z
1/2-x,1/2-y,-z
1/2+x,1/2-y,1/2+z
loop_
_atom_site_type_symbol
_atom_site_label
_atom_site_fract_x
_atom_site_fract_y
_atom_site_fract_z
Si Si1 0.887568 0.112657 0.528872
Si Si2 0.178899 0.691641 0.832838
Si Si3 0.092953 0.547299 0.968189
Si Si4 0.388245 0.767946 0.530167
Si Si5 0.753278 0.449004 0.575030
Si Si6 0.989184 0.311232 0.110041
Si Si7 0.173370 0.693397 0.360815
Si Si8 0.748052 0.567726 0.410509
O O1 0.859304 0.190362 0.487106
O O2 0.835664 0.068164 0.519612
O O3 0.842071 0.089707 0.329889
O O4 0.000000 0.107504 0.750000
O O5 0.148070 0.703112 0.651355
O O6 0.087051 0.692835 0.734148
O O7 0.250000 0.750000 0.000000
O O8 0.228706 0.622489 0.955466
O O9 0.162474 0.519769 0.191733
O O10 0.163372 0.564001 0.003806
O O11 0.047498 0.613966 0.933801
O O12 0.000000 0.508845 0.750000
O O13 0.500000 0.767718 0.750000
O O14 0.355652 0.809248 0.570487
O O15 0.789215 0.377811 0.603543
O O16 0.733398 0.497847 0.439837
O O17 0.000000 0.280128 0.250000
O O18 0.910788 0.284926 0.879064
O O19 0.250000 0.750000 0.500000
#
# Coordination Sequence:
#
# PCOD9274432 Si02
#       8
#     8   8   8   8   8   8   8   8
#     4  10  22  42  65  84 117 169 206 260 326 373
#     4  12  23  37  63  93 123 166 205 260 307 360
#     4   9  18  37  61  82 124 165 195 233 309 377
#     4  11  22  38  61  94 126 156 215 257 307 366
#     4  10  23  38  62  92 119 162 209 254 310 375
#     4  10  20  38  63  89 122 165 211 239 302 385
#     4  11  22  39  64  90 125 167 206 259 313 364
#     4  11  22  40  61  92 123 159 213 254 306 384
#
# _framework density 17.912534000000001
#
# number of rings (size 3 to 8) (size 9 to 14) (size 15 to 20)
#    0.000    1.500    6.250    0.000    1.750    3.000 
#    0.000    1.250    0.000    0.000    0.000    0.000 
#    0.000    0.000    0.000    0.000    0.000    0.000 
#
# Total GULP energy -178398.052035 kJ/mol
# GULP energy per Si atom -5574.939126 kJ/mol
# Density = 1.787176 g / cm^3
# Si number density = 17.912534 Si / 1000 Ang^3
#
#
#
# Elastic Constant Matrix: (Units=GPa)
#
#
# Indices 1 2 3 4 5 6 
#
# 1 98.0180 22.8695 55.6937 0.0000 -10.6365 0.0000
# 2 22.8695 59.2819 40.3951 0.0000 1.2604 0.0000
# 3 55.6937 40.3951 142.9175 0.0000 -15.1140 0.0000
# 4 0.0000 0.0000 0.0000 23.9537 0.0000 -7.9203
# 5 -10.6365 1.2604 -15.1140 0.0000 31.3977 0.0000
# 6 0.0000 0.0000 0.0000 -7.9203 0.0000 21.8673
#
#
#
# Elastic Compliance Matrix: (Units=1/GPa)
#
#
# Indices 1 2 3 4 5 6 
#
# 1 0.013479 -0.002305 -0.004329 0.000000 0.002575 0.000000
# 2 -0.002305 0.021745 -0.005714 0.000000 -0.004404 0.000000
# 3 -0.004329 -0.005714 0.010713 0.000000 0.003920 0.000000
# 4 0.000000 0.000000 0.000000 0.047427 0.000000 0.017178
# 5 0.002575 -0.004404 0.003920 0.000000 0.034786 0.000000
# 6 0.000000 0.000000 0.000000 0.017178 0.000000 0.051952
#
#
# Mechanical properties :
#
#
# Convention : Reuss Voigt Hill
#
# Bulk Modulus (GPa) = 47.07563 59.79265 53.43414
# Shear Modulus (GPa) = 23.59851 27.52767 25.56309
#
# Velocity S-wave (km/s) = 3.63358 3.92443 3.78180
# Velocity P-wave (km/s) = 6.62886 7.34763 6.99748
#
# Compressibility (1/GPa) = 0.02124241
#
# Stress axis : x y z
#
# Youngs Moduli (GPa) = 74.18896 45.98836 93.34058
#
# Poissons Ratio (x) = 0.10600 0.40406
# Poissons Ratio (y) = 0.17100 0.53331
# Poissons Ratio (z) = 0.32116 0.26276
#
# Static dielectric constant tensor:
#      x y z
#    x 1.583320 0.000000 -0.012400 
#    y 0.000000 1.602840 0.000000 
#    z -0.012400 0.000000 1.638780 
# 
# From -- ./inp_files/124276.got.cif
#   From: 2010.05.17/outbox.cif.g08.bks.cpg/sg15_63_cif.got.tgz:124276.got - 2010.06.03 18:47:42.
