data_PCOD9274830
_publ_section_title
;
Structure prediction by ZEFSAII (Michael W. Deem and Ramdas Pophale) SiO2 
 PCOD9274830
Probable space group: C 2/C
;
_chemical_formula_sum "Si O2"
_cell_formula_units_Z 64
_cell_length_a 14.753007
_cell_length_b 12.015397
_cell_length_c 28.360659
_cell_angle_alpha 90.000000
_cell_angle_beta 39.668924
_cell_angle_gamma 90.000000
_cell_volume 3209.180454
_symmetry_space_group_name_H-M "C 2/C"
_symmetry_group_IT_number 15
_symmetry_cell_setting 'monoclinic'
loop_
_space_group_symop_operation_xyz
x,y,z
-x,y,1/2-z
-x,-y,-z
x,-y,1/2+z
1/2+x,1/2+y,z
1/2-x,1/2+y,1/2-z
1/2-x,1/2-y,-z
1/2+x,1/2-y,1/2+z
loop_
_atom_site_type_symbol
_atom_site_label
_atom_site_fract_x
_atom_site_fract_y
_atom_site_fract_z
Si Si1 0.782885 0.660110 0.446658
Si Si2 0.413758 0.483237 0.174455
Si Si3 0.815966 0.582303 0.660989
Si Si4 0.969015 0.101745 0.547433
Si Si5 0.478847 0.277069 0.885896
Si Si6 0.194780 0.743822 0.455442
Si Si7 0.395794 0.008241 0.479356
Si Si8 0.668811 0.358975 0.126536
O O1 0.750000 0.750000 0.500000
O O2 0.628588 0.641676 0.488680
O O3 0.847040 0.551212 0.446566
O O4 0.864443 0.731227 0.374332
O O5 0.270124 0.462323 0.260211
O O6 0.415301 0.435176 0.120663
O O7 0.440712 0.613913 0.161610
O O8 0.545836 0.430262 0.150700
O O9 0.699918 0.620535 0.668822
O O10 0.913073 0.683604 0.640285
O O11 0.933361 0.498582 0.591418
O O12 0.871325 0.198093 0.563794
O O13 0.000000 0.000000 0.500000
O O14 0.363400 0.240925 0.893202
O O15 0.381408 0.305949 0.970309
O O16 0.158924 0.613202 0.480635
O O17 0.318242 0.096864 0.544073
#
# Coordination Sequence:
#
# PCOD9274830 Si02
#       8
#     8   8   8   8   8   8   8   8
#     4  10  20  38  65  96 129 157 214 276 315 379
#     4  12  24  46  61  95 137 171 214 275 336 398
#     4  11  26  40  66  94 132 168 217 269 339 394
#     4  12  23  38  68  98 126 175 222 268 329 389
#     4  10  21  43  65  93 127 169 217 273 323 393
#     4  10  20  38  72  95 126 167 231 272 314 389
#     4  10  20  41  67  98 125 168 218 273 317 381
#     4  11  22  44  66  93 127 173 220 266 330 395
#
# _framework density 19.942786000000002
#
# number of rings (size 3 to 8) (size 9 to 14) (size 15 to 20)
#    0.000    1.250    5.000    2.250    3.500    2.000 
#    2.250    0.625    0.000    0.000    0.000    0.000 
#    0.000    0.000    0.000    0.000    0.000    0.000 
#
# Total GULP energy -178393.845247 kJ/mol
# GULP energy per Si atom -5574.807664 kJ/mol
# Density = 1.989740 g / cm^3
# Si number density = 19.942786 Si / 1000 Ang^3
#
#
#
# Elastic Constant Matrix: (Units=GPa)
#
#
# Indices 1 2 3 4 5 6 
#
# 1 124.9797 56.5633 12.5265 0.0000 -2.9664 0.0000
# 2 56.5633 92.1364 28.9205 0.0000 3.3192 0.0000
# 3 12.5265 28.9205 70.1072 0.0000 2.4262 0.0000
# 4 0.0000 0.0000 0.0000 17.5654 0.0000 -1.1582
# 5 -2.9664 3.3192 2.4262 0.0000 16.6502 0.0000
# 6 0.0000 0.0000 0.0000 -1.1582 0.0000 40.0718
#
#
#
# Elastic Compliance Matrix: (Units=1/GPa)
#
#
# Indices 1 2 3 4 5 6 
#
# 1 0.011317 -0.007349 0.000893 0.000000 0.003351 0.000000
# 2 -0.007349 0.017291 -0.005684 0.000000 -0.003928 0.000000
# 3 0.000893 -0.005684 0.016487 0.000000 -0.001110 0.000000
# 4 0.000000 0.000000 0.000000 0.057039 0.000000 0.001649
# 5 0.003351 -0.003928 -0.001110 0.000000 0.061601 0.000000
# 6 0.000000 0.000000 0.000000 0.001649 0.000000 0.025003
#
#
# Mechanical properties :
#
#
# Convention : Reuss Voigt Hill
#
# Bulk Modulus (GPa) = 48.03801 53.69378 50.86590
# Shear Modulus (GPa) = 22.73191 27.47169 25.10180
#
# Velocity S-wave (km/s) = 3.37984 3.71553 3.55165
# Velocity P-wave (km/s) = 6.27465 6.73715 6.51001
#
# Compressibility (1/GPa) = 0.02081685
#
# Stress axis : x y z
#
# Youngs Moduli (GPa) = 88.36058 57.83495 60.65290
#
# Poissons Ratio (x) = 0.42503 -0.05419
# Poissons Ratio (y) = 0.64936 0.34473
# Poissons Ratio (z) = -0.07895 0.32871
#
# Static dielectric constant tensor:
#      x y z
#    x 1.784600 0.000000 0.041260 
#    y 0.000000 1.419890 0.000000 
#    z 0.041260 0.000000 1.705220 
# 
# From -- ./inp_files/313589.got.cif
#   From: 2010.05.17/outbox.cif.g08.bks.cpg/sg15_157_cif.got.tgz:313589.got - 2010.06.03 18:47:42.
