data_PCOD9274361
_publ_section_title
;
Structure prediction by ZEFSAII (Michael W. Deem and Ramdas Pophale) SiO2 
 PCOD9274361
Probable space group: C 2/C
;
_chemical_formula_sum "Si O2"
_cell_formula_units_Z 44
_cell_length_a 28.206130
_cell_length_b 5.043887
_cell_length_c 17.838801
_cell_angle_alpha 90.000000
_cell_angle_beta 136.251400
_cell_angle_gamma 90.000000
_cell_volume 1754.946215
_symmetry_space_group_name_H-M "C 2/C"
_symmetry_group_IT_number 15
_symmetry_cell_setting 'monoclinic'
loop_
_space_group_symop_operation_xyz
x,y,z
-x,y,1/2-z
-x,-y,-z
x,-y,1/2+z
1/2+x,1/2+y,z
1/2-x,1/2+y,1/2-z
1/2-x,1/2-y,-z
1/2+x,1/2-y,1/2+z
loop_
_atom_site_type_symbol
_atom_site_label
_atom_site_fract_x
_atom_site_fract_y
_atom_site_fract_z
Si Si1 0.267118 0.756401 0.608625
Si Si2 0.877676 0.647853 0.690931
Si Si3 0.567414 0.918229 0.970043
Si Si4 0.688817 0.250199 0.039424
Si Si5 0.549675 0.706466 0.096094
Si Si6 0.500000 0.156888 0.250000
O O1 0.250000 0.750000 0.500000
O O2 0.250023 0.464209 0.618558
O O3 0.338312 0.916987 0.691377
O O4 0.213146 0.956772 0.586379
O O5 0.830400 0.758171 0.571024
O O6 0.905225 0.865383 0.780419
O O7 0.940953 0.520217 0.718984
O O8 0.500007 0.068195 0.925362
O O9 0.540496 0.730758 0.870007
O O10 0.622555 0.128824 0.003828
O O11 0.595777 0.788841 0.078102
O O12 0.500000 0.500000 0.000000
#
# Coordination Sequence:
#
# PCOD9274361 Si02
#       6
#     8   8   8   8   8   4
#     4  10  20  38  62  95 125 162 212 267 321 377
#     4   9  18  37  59  90 123 160 208 258 325 381
#     4   9  20  39  57  88 122 160 217 263 324 386
#     4  10  21  39  66  92 124 164 218 271 313 382
#     4  10  21  39  59  88 130 170 210 264 335 396
#     4   8  16  36  60  82 116 152 208 260 318 370
#
# _framework density 25.071992000000002
#
# number of rings (size 3 to 8) (size 9 to 14) (size 15 to 20)
#    0.000    2.545    0.000    2.182    2.545    0.000 
#   32.727    2.727    0.000    0.000    0.000    0.000 
#    0.000    0.000    0.000    0.000    0.000    0.000 
#
# Total GULP energy -122714.039356 kJ/mol
# GULP energy per Si atom -5577.910880 kJ/mol
# Density = 2.501493 g / cm^3
# Si number density = 25.071992 Si / 1000 Ang^3
#
#
#
# Elastic Constant Matrix: (Units=GPa)
#
#
# Indices 1 2 3 4 5 6 
#
# 1 125.2878 12.6687 42.1161 -0.0006 -2.4683 -0.0006
# 2 12.6687 78.7083 19.8942 -0.0084 -6.8435 -0.0066
# 3 42.1161 19.8942 70.5672 -0.0004 -5.6498 -0.0002
# 4 -0.0006 -0.0084 -0.0004 43.5236 -0.0008 25.5278
# 5 -2.4683 -6.8435 -5.6498 -0.0008 37.0848 -0.0007
# 6 -0.0006 -0.0066 -0.0002 25.5278 -0.0007 45.6704
#
#
#
# Elastic Compliance Matrix: (Units=1/GPa)
#
#
# Indices 1 2 3 4 5 6 
#
# 1 0.009988 -0.000128 -0.005946 0.000000 -0.000265 0.000000
# 2 -0.000128 0.013824 -0.003662 0.000002 0.001985 0.000001
# 3 -0.005946 -0.003662 0.018897 0.000000 0.001807 0.000000
# 4 0.000000 0.000002 0.000000 0.034183 0.000001 -0.019107
# 5 -0.000265 0.001985 0.001807 0.000001 0.027589 0.000000
# 6 0.000000 0.000001 0.000000 -0.019107 0.000000 0.032576
#
#
# Mechanical properties :
#
#
# Convention : Reuss Voigt Hill
#
# Bulk Modulus (GPa) = 43.03542 47.10235 45.06889
# Shear Modulus (GPa) = 30.43682 38.58137 34.50910
#
# Velocity S-wave (km/s) = 3.48800 3.92704 3.71401
# Velocity P-wave (km/s) = 5.78131 6.27613 6.03379
#
# Compressibility (1/GPa) = 0.02323667
#
# Stress axis : x y z
#
# Youngs Moduli (GPa) = 100.11786 72.33861 52.91857
#
# Poissons Ratio (x) = 0.00924 0.31467
# Poissons Ratio (y) = 0.01278 0.19379
# Poissons Ratio (z) = 0.59534 0.26491
#
# Static dielectric constant tensor:
#      x y z
#    x 1.979900 0.000000 0.017050 
#    y 0.000000 2.073780 0.000000 
#    z 0.017050 0.000000 2.074390 
# 
# From -- ./inp_files/221388.got.cif
#   From: 2010.05.17/outbox.cif.g08.bks.cpg/sg15_111_cif.got.tgz:221388.got - 2010.06.03 18:47:42.
