data_PCOD9274442
_publ_section_title
;
Structure prediction by ZEFSAII (Michael W. Deem and Ramdas Pophale) SiO2 
 PCOD9274442
Probable space group: C 2/C
;
_chemical_formula_sum "Si O2"
_cell_formula_units_Z 48
_cell_length_a 11.216477
_cell_length_b 15.677299
_cell_length_c 15.557830
_cell_angle_alpha 90.000000
_cell_angle_beta 69.334328
_cell_angle_gamma 90.000000
_cell_volume 2559.721841
_symmetry_space_group_name_H-M "C 2/C"
_symmetry_group_IT_number 15
_symmetry_cell_setting 'monoclinic'
loop_
_space_group_symop_operation_xyz
x,y,z
-x,y,1/2-z
-x,-y,-z
x,-y,1/2+z
1/2+x,1/2+y,z
1/2-x,1/2+y,1/2-z
1/2-x,1/2-y,-z
1/2+x,1/2-y,1/2+z
loop_
_atom_site_type_symbol
_atom_site_label
_atom_site_fract_x
_atom_site_fract_y
_atom_site_fract_z
Si Si1 0.539886 0.450003 0.859300
Si Si2 0.959851 0.768662 0.913196
Si Si3 0.137460 0.111090 0.745438
Si Si4 0.793313 0.020976 0.015004
Si Si5 0.311238 0.822486 0.046489
Si Si6 0.747909 0.343405 0.401359
O O1 0.515350 0.350727 0.849379
O O2 0.614958 0.509852 0.772831
O O3 0.623734 0.448180 0.924924
O O4 0.404843 0.496058 0.917733
O O5 0.875794 0.710897 0.871868
O O6 0.062850 0.716069 0.942037
O O7 0.859910 0.804177 0.009308
O O8 0.229416 0.144448 0.648333
O O9 0.187107 0.146876 0.823305
O O10 0.000000 0.143336 0.750000
O O11 0.725465 0.935533 0.063871
O O12 0.693800 0.091767 0.009813
O O13 0.250000 0.750000 0.000000
#
# Coordination Sequence:
#
# PCOD9274442 Si02
#       6
#     8   8   8   8   8   8
#     4   9  17  36  59  83 112 155 206 246 290 363
#     4  10  20  38  63  90 122 159 203 252 311 375
#     4  11  21  37  59  84 117 160 206 259 301 357
#     4   9  17  34  60  83 115 156 197 245 308 355
#     4  12  22  35  59  96 124 163 206 259 309 365
#     4   9  21  40  60  87 123 161 201 253 310 373
#
# _framework density 18.752037000000001
#
# number of rings (size 3 to 8) (size 9 to 14) (size 15 to 20)
#    0.000    2.000    3.333    2.000    0.000    1.333 
#    3.000    0.000    0.000    2.000    0.000    0.000 
#    0.000    0.000    0.000    0.000    0.000    0.000 
#
# Total GULP energy -133716.507082 kJ/mol
# GULP energy per Si atom -5571.521128 kJ/mol
# Density = 1.870936 g / cm^3
# Si number density = 18.752037 Si / 1000 Ang^3
#
#
#
# Elastic Constant Matrix: (Units=GPa)
#
#
# Indices 1 2 3 4 5 6 
#
# 1 104.9200 78.7088 27.7564 0.0000 29.4676 0.0000
# 2 78.7088 149.7959 45.3657 0.0000 12.8153 0.0000
# 3 27.7564 45.3657 93.7900 0.0000 21.0010 0.0000
# 4 0.0000 0.0000 0.0000 18.1143 0.0000 -0.8028
# 5 29.4676 12.8153 21.0010 0.0000 26.5689 0.0000
# 6 0.0000 0.0000 0.0000 -0.8028 0.0000 33.4845
#
#
#
# Elastic Compliance Matrix: (Units=1/GPa)
#
#
# Indices 1 2 3 4 5 6 
#
# 1 0.024160 -0.011832 0.004004 0.000000 -0.024254 0.000000
# 2 -0.011832 0.013636 -0.005540 0.000000 0.010925 0.000000
# 3 0.004004 -0.005540 0.015253 0.000000 -0.013825 0.000000
# 4 0.000000 0.000000 0.000000 0.055264 0.000000 0.001325
# 5 -0.024254 0.010925 -0.013825 0.000000 0.070195 0.000000
# 6 0.000000 0.000000 0.000000 0.001325 0.000000 0.029896
#
#
# Mechanical properties :
#
#
# Convention : Reuss Voigt Hill
#
# Bulk Modulus (GPa) = 38.00647 72.46308 55.23477
# Shear Modulus (GPa) = 20.49920 28.74520 24.62220
#
# Velocity S-wave (km/s) = 3.30990 3.91949 3.62752
# Velocity P-wave (km/s) = 5.90925 7.69479 6.86036
#
# Compressibility (1/GPa) = 0.02631131
#
# Stress axis : x y z
#
# Youngs Moduli (GPa) = 41.39078 73.33443 65.56277
#
# Poissons Ratio (x) = 0.86772 -0.26251
# Poissons Ratio (y) = 0.48975 0.36324
# Poissons Ratio (z) = -0.16573 0.40630
#
# Static dielectric constant tensor:
#      x y z
#    x 1.709190 0.000000 -0.054140 
#    y 0.000000 1.688290 0.000000 
#    z -0.054140 0.000000 1.727920 
# 
# From -- ./inp_files/143566.got.cif
#   From: 2010.05.17/outbox.cif.g08.bks.cpg/sg15_72_cif.got.tgz:143566.got - 2010.06.03 18:47:42.
