data_PCOD9274715
_publ_section_title
;
Structure prediction by ZEFSAII (Michael W. Deem and Ramdas Pophale) SiO2 
 PCOD9274715
Probable space group: C 2/C
;
_chemical_formula_sum "Si O2"
_cell_formula_units_Z 60
_cell_length_a 7.801545
_cell_length_b 22.222800
_cell_length_c 21.506475
_cell_angle_alpha 90.000000
_cell_angle_beta 136.321122
_cell_angle_gamma 90.000000
_cell_volume 2575.047037
_symmetry_space_group_name_H-M "C 2/C"
_symmetry_group_IT_number 15
_symmetry_cell_setting 'monoclinic'
loop_
_space_group_symop_operation_xyz
x,y,z
-x,y,1/2-z
-x,-y,-z
x,-y,1/2+z
1/2+x,1/2+y,z
1/2-x,1/2+y,1/2-z
1/2-x,1/2-y,-z
1/2+x,1/2-y,1/2+z
loop_
_atom_site_type_symbol
_atom_site_label
_atom_site_fract_x
_atom_site_fract_y
_atom_site_fract_z
Si Si1 0.115065 0.171978 0.419231
Si Si2 0.805694 0.346224 0.460372
Si Si3 0.538327 0.884799 0.866557
Si Si4 0.000000 0.149247 0.250000
Si Si5 0.849562 0.048685 0.001532
Si Si6 0.613412 0.528909 0.869278
Si Si7 0.674481 0.759382 0.850128
Si Si8 0.403977 0.012143 0.819845
O O1 0.410200 0.164306 0.487073
O O2 0.047249 0.111279 0.441987
O O3 0.017611 0.178751 0.322518
O O4 0.963992 0.226448 0.411196
O O5 0.803607 0.369066 0.530773
O O6 0.685196 0.401527 0.392751
O O7 0.665731 0.284558 0.407027
O O8 0.253073 0.886317 0.812883
O O9 0.566294 0.825633 0.833284
O O10 0.555355 0.951237 0.843328
O O11 0.787521 0.009948 0.046973
O O12 0.611708 0.060863 0.894537
O O13 0.000000 0.000000 0.000000
O O14 0.749326 0.505975 0.843417
O O15 0.313868 0.524036 0.786398
O O16 0.500000 0.732715 0.750000
#
# Coordination Sequence:
#
# PCOD9274715 Si02
#       8
#     8   8   8   4   8   8   8   8
#     4  11  23  43  68  96 134 175 232 277 345 407
#     4  11  24  43  70  93 137 178 230 271 345 413
#     4  11  21  42  65  96 131 174 229 269 333 409
#     4  10  20  38  64  96 120 172 218 286 312 402
#     4  12  24  40  64  99 138 173 219 285 347 402
#     4  11  23  42  69 101 130 175 227 278 338 407
#     4  12  26  42  66 100 135 174 229 289 338 393
#     4  11  22  40  69  96 130 173 227 278 336 404
#
# _framework density 23.300546000000001
#
# number of rings (size 3 to 8) (size 9 to 14) (size 15 to 20)
#    0.000    0.800    4.000    5.200    1.867    0.533 
#    0.000    0.000    0.000    0.000    0.000    0.000 
#    0.000    0.000    0.000    0.000    0.000    0.000 
#
# Total GULP energy -167234.367777 kJ/mol
# GULP energy per Si atom -5574.478926 kJ/mol
# Density = 2.324751 g / cm^3
# Si number density = 23.300546 Si / 1000 Ang^3
#
#
#
# Elastic Constant Matrix: (Units=GPa)
#
#
# Indices 1 2 3 4 5 6 
#
# 1 39.4195 5.5443 15.7791 0.0000 -10.2656 0.0000
# 2 5.5443 97.6670 49.7012 0.0000 -15.3811 0.0000
# 3 15.7791 49.7012 123.2374 0.0000 6.0458 0.0000
# 4 0.0000 0.0000 0.0000 4.5165 0.0000 0.0681
# 5 -10.2656 -15.3811 6.0458 0.0000 36.8882 0.0000
# 6 0.0000 0.0000 0.0000 0.0681 0.0000 11.8820
#
#
#
# Elastic Compliance Matrix: (Units=1/GPa)
#
#
# Indices 1 2 3 4 5 6 
#
# 1 0.029840 0.002681 -0.005408 0.000000 0.010309 0.000000
# 2 0.002681 0.014745 -0.006682 0.000000 0.007990 0.000000
# 3 -0.005408 -0.006682 0.011807 0.000000 -0.006226 0.000000
# 4 0.000000 0.000000 0.000000 0.221431 0.000000 -0.001270
# 5 0.010309 0.007990 -0.006226 0.000000 0.034330 0.000000
# 6 0.000000 0.000000 0.000000 -0.001270 0.000000 0.084168
#
#
# Mechanical properties :
#
#
# Convention : Reuss Voigt Hill
#
# Bulk Modulus (GPa) = 26.61279 44.70812 35.66046
# Shear Modulus (GPa) = 11.69144 23.27730 17.48437
#
# Velocity S-wave (km/s) = 2.24245 3.16413 2.74229
# Velocity P-wave (km/s) = 4.26041 5.70773 5.03633
#
# Compressibility (1/GPa) = 0.03757592
#
# Stress axis : x y z
#
# Youngs Moduli (GPa) = 33.51173 67.81836 84.69476
#
# Poissons Ratio (x) = -0.18185 0.45802
# Poissons Ratio (y) = -0.08986 0.56593
# Poissons Ratio (z) = 0.18123 0.45316
#
# Static dielectric constant tensor:
#      x y z
#    x 1.890320 0.000000 0.085370 
#    y 0.000000 1.860380 0.000000 
#    z 0.085370 0.000000 1.955400 
# 
# From -- ./inp_files/266273.got.cif
#   From: 2010.05.17/outbox.cif.g08.bks.cpg/sg15_134_cif.got.tgz:266273.got - 2010.06.03 18:47:42.
