data_PCOD9274319
_publ_section_title
;
Structure prediction by ZEFSAII (Michael W. Deem and Ramdas Pophale) SiO2 
 PCOD9274319
Probable space group: C 2/C
;
_chemical_formula_sum "Si O2"
_cell_formula_units_Z 44
_cell_length_a 15.465298
_cell_length_b 21.330038
_cell_length_c 7.887984
_cell_angle_alpha 90.000000
_cell_angle_beta 121.035759
_cell_angle_gamma 90.000000
_cell_volume 2229.556901
_symmetry_space_group_name_H-M "C 2/C"
_symmetry_group_IT_number 15
_symmetry_cell_setting 'monoclinic'
loop_
_space_group_symop_operation_xyz
x,y,z
-x,y,1/2-z
-x,-y,-z
x,-y,1/2+z
1/2+x,1/2+y,z
1/2-x,1/2+y,1/2-z
1/2-x,1/2-y,-z
1/2+x,1/2-y,1/2+z
loop_
_atom_site_type_symbol
_atom_site_label
_atom_site_fract_x
_atom_site_fract_y
_atom_site_fract_z
Si Si1 0.182826 0.030391 0.328289
Si Si2 0.950889 0.885067 0.022108
Si Si3 0.663573 0.599932 0.662968
Si Si4 0.378472 0.926711 0.822810
Si Si5 0.000000 0.527683 0.750000
Si Si6 0.748639 0.323962 0.523323
O O1 0.187352 0.064895 0.512667
O O2 0.280354 0.048611 0.319947
O O3 0.171342 0.956144 0.310939
O O4 0.089092 0.058247 0.129970
O O5 0.000000 0.902878 0.250000
O O6 0.055195 0.865264 0.034911
O O7 0.854135 0.842114 0.973180
O O8 0.738992 0.648849 0.822692
O O9 0.412698 0.978967 0.720763
O O10 0.342868 0.860628 0.706064
O O11 0.465244 0.930525 0.055108
O O12 0.750000 0.250000 0.500000
#
# Coordination Sequence:
#
# PCOD9274319 Si02
#       6
#     8   8   8   8   4   8
#     4  11  20  34  61  91 125 146 189 242 320 353
#     4   9  19  35  56  84 117 150 190 241 285 354
#     4  11  20  33  59  91 119 154 186 246 293 366
#     4  10  21  37  61  90 120 159 193 261 303 367
#     4  10  20  38  62  92 124 144 210 258 316 350
#     4  10  22  41  59  78 117 164 206 237 294 359
#
# _framework density 19.734864000000002
#
# number of rings (size 3 to 8) (size 9 to 14) (size 15 to 20)
#    0.000    1.818    0.000    6.545    0.000    2.909 
#    4.909    3.636    8.000    0.000    0.000    0.000 
#    0.000    0.000    0.000    0.000    0.000    0.000 
#
# Total GULP energy -122476.653654 kJ/mol
# GULP energy per Si atom -5567.120621 kJ/mol
# Density = 1.968995 g / cm^3
# Si number density = 19.734864 Si / 1000 Ang^3
#
#
#
# Elastic Constant Matrix: (Units=GPa)
#
#
# Indices 1 2 3 4 5 6 
#
# 1 82.1495 20.5964 16.6823 0.0000 -12.9589 0.0000
# 2 20.5964 137.6804 81.4214 0.0000 -5.7642 0.0000
# 3 16.6823 81.4214 106.0645 0.0000 6.3661 0.0000
# 4 0.0000 0.0000 0.0000 16.1311 0.0000 -3.2319
# 5 -12.9589 -5.7642 6.3661 0.0000 16.0678 0.0000
# 6 0.0000 0.0000 0.0000 -3.2319 0.0000 14.6044
#
#
#
# Elastic Compliance Matrix: (Units=1/GPa)
#
#
# Indices 1 2 3 4 5 6 
#
# 1 0.014912 0.000371 -0.003442 0.000000 0.013524 0.000000
# 2 0.000371 0.014727 -0.011984 0.000000 0.010330 0.000000
# 3 -0.003442 -0.011984 0.020071 0.000000 -0.015027 0.000000
# 4 0.000000 0.000000 0.000000 0.064868 0.000000 0.014355
# 5 0.013524 0.010330 -0.015027 0.000000 0.082803 0.000000
# 6 0.000000 0.000000 0.000000 0.014355 0.000000 0.071649
#
#
# Mechanical properties :
#
#
# Convention : Reuss Voigt Hill
#
# Bulk Modulus (GPa) = 51.01845 62.58828 56.80336
# Shear Modulus (GPa) = 16.35733 23.17363 19.76548
#
# Velocity S-wave (km/s) = 2.88211 3.43045 3.16816
# Velocity P-wave (km/s) = 6.08140 6.89014 6.49837
#
# Compressibility (1/GPa) = 0.01960075
#
# Stress axis : x y z
#
# Youngs Moduli (GPa) = 67.05917 67.90152 49.82318
#
# Poissons Ratio (x) = -0.02518 0.17148
# Poissons Ratio (y) = -0.02486 0.59707
# Poissons Ratio (z) = 0.23080 0.81372
#
# Static dielectric constant tensor:
#      x y z
#    x 1.813820 0.000000 0.003450 
#    y 0.000000 1.645630 0.000000 
#    z 0.003450 0.000000 1.779260 
# 
# From -- ./inp_files/39535.got.cif
#   From: 2010.05.17/outbox.cif.g08.bks.cpg/sg15_20_cif.got.tgz:39535.got - 2010.06.03 18:47:42.
