data_PCOD9274974
_publ_section_title
;
Structure prediction by ZEFSAII (Michael W. Deem and Ramdas Pophale) SiO2 
 PCOD9274974
Probable space group: C 2/C
;
_chemical_formula_sum "Si O2"
_cell_formula_units_Z 56
_cell_length_a 9.197960
_cell_length_b 16.783483
_cell_length_c 16.819888
_cell_angle_alpha 90.000000
_cell_angle_beta 118.211460
_cell_angle_gamma 90.000000
_cell_volume 2288.103116
_symmetry_space_group_name_H-M "C 2/C"
_symmetry_group_IT_number 15
_symmetry_cell_setting 'monoclinic'
loop_
_space_group_symop_operation_xyz
x,y,z
-x,y,1/2-z
-x,-y,-z
x,-y,1/2+z
1/2+x,1/2+y,z
1/2-x,1/2+y,1/2-z
1/2-x,1/2-y,-z
1/2+x,1/2-y,1/2+z
loop_
_atom_site_type_symbol
_atom_site_label
_atom_site_fract_x
_atom_site_fract_y
_atom_site_fract_z
Si Si1 0.530112 0.704553 0.900158
Si Si2 0.616218 0.133370 0.345528
Si Si3 0.032306 0.793853 0.590092
Si Si4 0.814098 0.421703 0.469019
Si Si5 0.229633 0.927117 0.182502
Si Si6 0.956622 0.949981 0.646237
Si Si7 0.486482 0.886550 0.122316
O O1 0.523615 0.789868 0.858319
O O2 0.706631 0.660749 0.932103
O O3 0.395343 0.644824 0.831117
O O4 0.504743 0.711661 0.988278
O O5 0.500000 0.094839 0.250000
O O6 0.782098 0.171885 0.353093
O O7 0.650411 0.076443 0.428516
O O8 0.004077 0.709418 0.624046
O O9 0.924373 0.864138 0.600121
O O10 0.694665 0.491070 0.408673
O O11 0.975453 0.415226 0.456763
O O12 0.318805 0.908656 0.122717
O O13 0.367036 0.923877 0.286218
O O14 0.116627 0.005407 0.149887
O O15 0.000000 0.942442 0.750000
#
# Coordination Sequence:
#
# PCOD9274974 Si02
#       7
#     8   8   8   8   8   8   8
#     4  10  20  38  66  98 133 181 230 284 347 414
#     4  11  21  39  67 107 141 178 238 297 349 410
#     4  11  23  41  69 103 135 173 241 303 333 414
#     4  10  20  40  70  95 138 194 230 281 347 434
#     4  10  24  37  67  96 138 186 224 283 351 422
#     4  11  24  44  70  99 141 190 235 280 361 429
#     4  11  20  42  66 102 136 175 240 288 344 410
#
# _framework density 24.474421
#
# number of rings (size 3 to 8) (size 9 to 14) (size 15 to 20)
#    0.000    1.429    4.286    1.714    2.000    5.714 
#    2.571    0.000    0.000    5.143    0.000    0.000 
#    0.000    0.000    0.000    0.000    0.000    0.000 
#
# Total GULP energy -157039.967155 kJ/mol
# GULP energy per Si atom -5608.570256 kJ/mol
# Density = 2.441872 g / cm^3
# Si number density = 24.474421 Si / 1000 Ang^3
#
#
#
# Elastic Constant Matrix: (Units=GPa)
#
#
# Indices 1 2 3 4 5 6 
#
# 1 95.6011 23.9733 9.0015 0.0000 -27.5553 0.0000
# 2 23.9733 153.1594 18.6264 0.0000 -18.5562 0.0000
# 3 9.0015 18.6264 75.6250 0.0000 -8.6289 0.0000
# 4 0.0000 0.0000 0.0000 22.5400 0.0000 -8.8999
# 5 -27.5553 -18.5562 -8.6289 0.0000 34.5434 0.0000
# 6 0.0000 0.0000 0.0000 -8.8999 0.0000 28.9360
#
#
#
# Elastic Compliance Matrix: (Units=1/GPa)
#
#
# Indices 1 2 3 4 5 6 
#
# 1 0.013696 -0.000855 -0.000232 0.000000 0.010409 0.000000
# 2 -0.000855 0.007169 -0.001341 0.000000 0.002835 0.000000
# 3 -0.000232 -0.001341 0.013873 0.000000 0.002560 0.000000
# 4 0.000000 0.000000 0.000000 0.050498 0.000000 0.015532
# 5 0.010409 0.002835 0.002560 0.000000 0.039414 0.000000
# 6 0.000000 0.000000 0.000000 0.015532 0.000000 0.039336
#
#
# Mechanical properties :
#
#
# Convention : Reuss Voigt Hill
#
# Bulk Modulus (GPa) = 33.46257 47.50978 40.48618
# Shear Modulus (GPa) = 27.96367 35.38950 31.67659
#
# Velocity S-wave (km/s) = 3.38385 3.80673 3.60150
# Velocity P-wave (km/s) = 5.38233 6.22702 5.82002
#
# Compressibility (1/GPa) = 0.02988413
#
# Stress axis : x y z
#
# Youngs Moduli (GPa) = 73.01214 139.48190 72.08195
#
# Poissons Ratio (x) = 0.11919 0.01673
# Poissons Ratio (y) = 0.06239 0.09664
# Poissons Ratio (z) = 0.01695 0.18700
#
# Static dielectric constant tensor:
#      x y z
#    x 1.944270 0.000000 -0.001120 
#    y 0.000000 1.942870 0.000000 
#    z -0.001120 0.000000 1.909150 
# 
# From -- ./inp_files/191050.got.cif
#   From: 2010.05.17/outbox.cif.g08.bks.cpg/sg15_96_cif.got.tgz:191050.got - 2010.06.03 18:47:42.
