data_PCOD9274762
_publ_section_title
;
Structure prediction by ZEFSAII (Michael W. Deem and Ramdas Pophale) SiO2 
 PCOD9274762
Probable space group: C 2/C
;
_chemical_formula_sum "Si O2"
_cell_formula_units_Z 40
_cell_length_a 7.611997
_cell_length_b 15.034857
_cell_length_c 15.284532
_cell_angle_alpha 90.000000
_cell_angle_beta 61.416172
_cell_angle_gamma 90.000000
_cell_volume 1536.041544
_symmetry_space_group_name_H-M "C 2/C"
_symmetry_group_IT_number 15
_symmetry_cell_setting 'monoclinic'
loop_
_space_group_symop_operation_xyz
x,y,z
-x,y,1/2-z
-x,-y,-z
x,-y,1/2+z
1/2+x,1/2+y,z
1/2-x,1/2+y,1/2-z
1/2-x,1/2-y,-z
1/2+x,1/2-y,1/2+z
loop_
_atom_site_type_symbol
_atom_site_label
_atom_site_fract_x
_atom_site_fract_y
_atom_site_fract_z
Si Si1 0.779745 0.987485 0.911036
Si Si2 0.684176 0.337319 0.464046
Si Si3 0.233003 0.072596 0.273769
Si Si4 0.119030 0.762276 0.306239
Si Si5 0.213918 0.370313 0.559317
O O1 0.695762 0.966479 0.835864
O O2 0.017431 0.972755 0.841427
O O3 0.727740 0.917803 0.000390
O O4 0.719034 0.081001 0.965637
O O5 0.750000 0.250000 0.500000
O O6 0.724353 0.326710 0.350500
O O7 0.444393 0.347597 0.523905
O O8 0.235091 0.180676 0.256080
O O9 0.336426 0.068931 0.343599
O O10 0.000000 0.800254 0.250000
O O11 0.940618 0.709987 0.399397
#
# Coordination Sequence:
#
# PCOD9274762 Si02
#       5
#     8   8   8   8   8
#     4  10  20  38  65  86 118 159 203 246 297 360
#     4  11  20  37  60  87 115 156 201 245 302 361
#     4   9  18  36  61  84 116 160 198 234 307 356
#     4  10  21  39  61  88 122 161 200 247 304 362
#     4  10  22  39  63  87 123 159 204 248 301 361
#
# _framework density 26.040962
#
# number of rings (size 3 to 8) (size 9 to 14) (size 15 to 20)
#    0.000    2.000    2.000    3.000    0.000    0.800 
#    7.200    0.000    0.000    0.000    0.000    0.000 
#    0.000    0.000    0.000    0.000    0.000    0.000 
#
# Total GULP energy -111775.360831 kJ/mol
# GULP energy per Si atom -5588.768042 kJ/mol
# Density = 2.598169 g / cm^3
# Si number density = 26.040962 Si / 1000 Ang^3
#
#
#
# Elastic Constant Matrix: (Units=GPa)
#
#
# Indices 1 2 3 4 5 6 
#
# 1 119.3034 23.0619 46.7995 0.0000 27.9031 0.0000
# 2 23.0619 50.4034 47.4660 0.0000 15.7892 0.0000
# 3 46.7995 47.4660 186.6928 0.0000 50.8809 0.0000
# 4 0.0000 0.0000 0.0000 46.6444 0.0000 0.6030
# 5 27.9031 15.7892 50.8809 0.0000 56.0489 0.0000
# 6 0.0000 0.0000 0.0000 0.6030 0.0000 17.3362
#
#
#
# Elastic Compliance Matrix: (Units=1/GPa)
#
#
# Indices 1 2 3 4 5 6 
#
# 1 0.010057 -0.002673 -0.000906 0.000000 -0.003431 0.000000
# 2 -0.002673 0.026928 -0.005942 0.000000 -0.000861 0.000000
# 3 -0.000906 -0.005942 0.008657 0.000000 -0.005734 0.000000
# 4 0.000000 0.000000 0.000000 0.021448 0.000000 -0.000746
# 5 -0.003431 -0.000861 -0.005734 0.000000 0.024997 0.000000
# 6 0.000000 0.000000 0.000000 -0.000746 0.000000 0.057709
#
#
# Mechanical properties :
#
#
# Convention : Reuss Voigt Hill
#
# Bulk Modulus (GPa) = 37.59465 65.67271 51.63368
# Shear Modulus (GPa) = 28.13660 39.94406 34.04033
#
# Velocity S-wave (km/s) = 3.29062 3.92074 3.61942
# Velocity P-wave (km/s) = 5.37640 6.76536 6.11047
#
# Compressibility (1/GPa) = 0.02659953
#
# Stress axis : x y z
#
# Youngs Moduli (GPa) = 99.43669 37.13584 115.51536
#
# Poissons Ratio (x) = 0.09927 0.10469
# Poissons Ratio (y) = 0.26581 0.68634
# Poissons Ratio (z) = 0.09012 0.22065
#
# Static dielectric constant tensor:
#      x y z
#    x 2.110570 0.000000 -0.072780 
#    y 0.000000 2.073620 0.000000 
#    z -0.072780 0.000000 2.132700 
# 
# From -- ./inp_files/133051.got.cif
#   From: 2010.05.17/outbox.cif.g08.bks.cpg/sg15_67_cif.got.tgz:133051.got - 2010.06.03 18:47:42.
