data_PCOD9274070
_publ_section_title
;
Structure prediction by ZEFSAII (Michael W. Deem and Ramdas Pophale) SiO2 
 PCOD9274070
Probable space group: C 2/C
;
_chemical_formula_sum "Si O2"
_cell_formula_units_Z 64
_cell_length_a 26.113641
_cell_length_b 11.532127
_cell_length_c 18.704047
_cell_angle_alpha 90.000000
_cell_angle_beta 33.139165
_cell_angle_gamma 90.000000
_cell_volume 3079.223538
_symmetry_space_group_name_H-M "C 2/C"
_symmetry_group_IT_number 15
_symmetry_cell_setting 'monoclinic'
loop_
_space_group_symop_operation_xyz
x,y,z
-x,y,1/2-z
-x,-y,-z
x,-y,1/2+z
1/2+x,1/2+y,z
1/2-x,1/2+y,1/2-z
1/2-x,1/2-y,-z
1/2+x,1/2-y,1/2+z
loop_
_atom_site_type_symbol
_atom_site_label
_atom_site_fract_x
_atom_site_fract_y
_atom_site_fract_z
Si Si1 0.221922 0.517594 0.910736
Si Si2 0.644624 0.623691 0.867617
Si Si3 0.531328 0.745877 0.792723
Si Si4 0.478263 0.044704 0.419992
Si Si5 0.718527 0.713329 0.225824
Si Si6 0.358597 0.604165 0.046887
Si Si7 0.979581 0.312173 0.062510
Si Si8 0.295191 0.623285 0.959531
O O1 0.298707 0.584605 0.770193
O O2 0.232364 0.383601 0.878514
O O3 0.240052 0.537495 0.972780
O O4 0.118247 0.558409 0.010632
O O5 0.721512 0.672225 0.833329
O O6 0.605580 0.510635 0.954161
O O7 0.566242 0.723515 0.949087
O O8 0.500000 0.776005 0.750000
O O9 0.557894 0.869244 0.795845
O O10 0.444878 0.691456 0.936276
O O11 0.604872 0.644139 0.695323
O O12 0.460809 0.103390 0.517164
O O13 0.500763 0.908817 0.399837
O O14 0.712024 0.660570 0.313768
O O15 0.615060 0.739330 0.318044
O O16 0.312618 0.591993 0.021955
O O17 0.250000 0.750000 0.000000
#
# Coordination Sequence:
#
# PCOD9274070 Si02
#       8
#     8   8   8   8   8   8   8   8
#     4  11  22  37  65  89 128 158 210 258 310 363
#     4  11  22  39  63  94 127 164 204 261 309 373
#     4  10  20  38  61  87 124 157 204 256 302 368
#     4  11  21  39  61  93 121 160 206 260 305 371
#     4  11  22  40  61  96 125 161 206 259 305 375
#     4  10  23  39  62  89 127 158 210 251 312 367
#     4  11  23  36  63  87 126 159 204 248 324 353
#     4  11  23  39  62  92 120 166 205 259 315 363
#
# _framework density 20.784458999999998
#
# number of rings (size 3 to 8) (size 9 to 14) (size 15 to 20)
#    0.000    1.250    3.750    3.000    1.750    2.000 
#    0.000    0.625    2.750    0.000    0.000    0.000 
#    0.000    0.000    0.000    0.000    0.000    0.000 
#
# Total GULP energy -178560.134177 kJ/mol
# GULP energy per Si atom -5580.004193 kJ/mol
# Density = 2.073715 g / cm^3
# Si number density = 20.784459 Si / 1000 Ang^3
#
#
#
# Elastic Constant Matrix: (Units=GPa)
#
#
# Indices 1 2 3 4 5 6 
#
# 1 98.7340 21.0166 16.5225 0.0000 -0.1611 0.0000
# 2 21.0166 81.6635 9.8065 -0.0001 9.0593 0.0000
# 3 16.5225 9.8065 31.9558 0.0000 -3.3760 0.0000
# 4 0.0000 -0.0001 0.0000 17.6858 0.0000 0.0876
# 5 -0.1611 9.0593 -3.3760 0.0000 25.7977 0.0000
# 6 0.0000 0.0000 0.0000 0.0876 0.0000 32.5506
#
#
#
# Elastic Compliance Matrix: (Units=1/GPa)
#
#
# Indices 1 2 3 4 5 6 
#
# 1 0.011501 -0.002360 -0.005199 0.000000 0.000220 0.000000
# 2 -0.002360 0.013880 -0.003606 0.000000 -0.005361 0.000000
# 3 -0.005199 -0.003606 0.035712 0.000000 0.005907 0.000000
# 4 0.000000 0.000000 0.000000 0.056543 0.000000 -0.000152
# 5 0.000220 -0.005361 0.005907 0.000000 0.041420 0.000000
# 6 0.000000 0.000000 0.000000 -0.000152 0.000000 0.030722
#
#
# Mechanical properties :
#
#
# Convention : Reuss Voigt Hill
#
# Bulk Modulus (GPa) = 25.79720 34.11605 29.95663
# Shear Modulus (GPa) = 22.21934 26.20734 24.21334
#
# Velocity S-wave (km/s) = 3.27316 3.55478 3.41687
# Velocity P-wave (km/s) = 5.16948 5.77048 5.47823
#
# Compressibility (1/GPa) = 0.03876389
#
# Stress axis : x y z
#
# Youngs Moduli (GPa) = 86.94936 72.04392 28.00186
#
# Poissons Ratio (x) = 0.17002 0.14558
# Poissons Ratio (y) = 0.20520 0.10097
# Poissons Ratio (z) = 0.45205 0.25977
#
# Static dielectric constant tensor:
#      x y z
#    x 1.766440 0.000000 -0.023010 
#    y 0.000000 1.770100 0.000000 
#    z -0.023010 0.000000 1.517980 
# 
# From -- ./inp_files/257498.got.cif
#   From: 2010.05.17/outbox.cif.g08.bks.cpg/sg15_129_cif.got.tgz:257498.got - 2010.06.03 18:47:42.
