data_PCOD9274222
_publ_section_title
;
Structure prediction by ZEFSAII (Michael W. Deem and Ramdas Pophale) SiO2 
 PCOD9274222
Probable space group: C 2/C
;
_chemical_formula_sum "Si O2"
_cell_formula_units_Z 48
_cell_length_a 25.326735
_cell_length_b 9.422695
_cell_length_c 9.838544
_cell_angle_alpha 90.000000
_cell_angle_beta 110.374185
_cell_angle_gamma 90.000000
_cell_volume 2201.041163
_symmetry_space_group_name_H-M "C 2/C"
_symmetry_group_IT_number 15
_symmetry_cell_setting 'monoclinic'
loop_
_space_group_symop_operation_xyz
x,y,z
-x,y,1/2-z
-x,-y,-z
x,-y,1/2+z
1/2+x,1/2+y,z
1/2-x,1/2+y,1/2-z
1/2-x,1/2-y,-z
1/2+x,1/2-y,1/2+z
loop_
_atom_site_type_symbol
_atom_site_label
_atom_site_fract_x
_atom_site_fract_y
_atom_site_fract_z
Si Si1 0.263669 0.533866 0.601175
Si Si2 0.794405 0.348121 0.720887
Si Si3 0.910403 0.685385 0.226812
Si Si4 0.119411 0.987208 0.416413
Si Si5 0.944456 0.075032 0.389304
Si Si6 0.475306 0.860057 0.540614
O O1 0.234887 0.425518 0.679339
O O2 0.225700 0.581034 0.439091
O O3 0.278379 0.681232 0.693853
O O4 0.319878 0.467374 0.582893
O O5 0.861999 0.367380 0.782075
O O6 0.885244 0.821998 0.128877
O O7 0.968960 0.720114 0.352488
O O8 0.932866 0.592210 0.121933
O O9 0.105850 0.993606 0.563524
O O10 0.070290 0.054724 0.280835
O O11 0.052941 0.757149 0.579050
O O12 0.000000 0.000000 0.500000
O O13 0.500000 0.000000 0.500000
#
# Coordination Sequence:
#
# PCOD9274222 Si02
#       6
#     8   8   8   8   8   8
#     4  10  22  41  62  91 121 162 208 253 304 366
#     4  10  22  40  65  87 122 162 207 252 309 359
#     4   9  20  39  58  81 121 162 189 247 305 354
#     4  10  20  38  62  87 120 156 197 248 300 356
#     4  11  20  37  63  87 118 156 196 244 304 358
#     4  10  21  38  58  85 119 154 202 242 301 362
#
# _framework density 21.807862
#
# number of rings (size 3 to 8) (size 9 to 14) (size 15 to 20)
#    0.000    2.000    1.667    1.500    2.333    2.000 
#    6.000    0.000    0.000    0.000    0.000    0.000 
#    0.000    0.000    0.000    0.000    0.000    0.000 
#
# Total GULP energy -133899.379544 kJ/mol
# GULP energy per Si atom -5579.140814 kJ/mol
# Density = 2.175823 g / cm^3
# Si number density = 21.807862 Si / 1000 Ang^3
#
#
#
# Elastic Constant Matrix: (Units=GPa)
#
#
# Indices 1 2 3 4 5 6 
#
# 1 112.0887 10.7683 5.5783 0.0000 -25.0339 0.0000
# 2 10.7683 43.1501 6.9051 0.0000 -16.7232 0.0000
# 3 5.5783 6.9051 45.3980 0.0000 -9.3811 0.0000
# 4 0.0000 0.0000 0.0000 24.4617 0.0000 -10.8717
# 5 -25.0339 -16.7232 -9.3811 0.0000 35.0460 0.0000
# 6 0.0000 0.0000 0.0000 -10.8717 0.0000 27.7910
#
#
#
# Elastic Compliance Matrix: (Units=1/GPa)
#
#
# Indices 1 2 3 4 5 6 
#
# 1 0.010622 0.000338 0.000259 0.000000 0.007818 0.000000
# 2 0.000338 0.028556 -0.001608 0.000000 0.013437 0.000000
# 3 0.000259 -0.001608 0.023415 0.000000 0.005685 0.000000
# 4 0.000000 0.000000 0.000000 0.049484 0.000000 0.019358
# 5 0.007818 0.013437 0.005685 0.000000 0.042052 0.000000
# 6 0.000000 0.000000 0.000000 0.019358 0.000000 0.043556
#
#
# Mechanical properties :
#
#
# Convention : Reuss Voigt Hill
#
# Bulk Modulus (GPa) = 16.50993 27.46002 21.98497
# Shear Modulus (GPa) = 22.73792 29.28542 26.01167
#
# Velocity S-wave (km/s) = 3.23251 3.66851 3.45739
# Velocity P-wave (km/s) = 4.63888 5.52839 5.10305
#
# Compressibility (1/GPa) = 0.06056962
#
# Stress axis : x y z
#
# Youngs Moduli (GPa) = 94.14184 35.01950 42.70771
#
# Poissons Ratio (x) = -0.01183 -0.01106
# Poissons Ratio (y) = -0.03179 0.06868
# Poissons Ratio (z) = -0.02438 0.05632
#
# Static dielectric constant tensor:
#      x y z
#    x 1.824060 0.000000 -0.021100 
#    y 0.000000 1.849710 0.000000 
#    z -0.021100 0.000000 1.783450 
# 
# From -- ./inp_files/60606.got.cif
#   From: 2010.05.17/outbox.cif.g08.bks.cpg/sg15_31_cif.got.tgz:60606.got - 2010.06.03 18:47:42.
