data_PCOD9274143
_publ_section_title
;
Structure prediction by ZEFSAII (Michael W. Deem and Ramdas Pophale) SiO2 
 PCOD9274143
Probable space group: C 2/C
;
_chemical_formula_sum "Si O2"
_cell_formula_units_Z 64
_cell_length_a 7.695270
_cell_length_b 15.410225
_cell_length_c 25.948424
_cell_angle_alpha 90.000000
_cell_angle_beta 114.910830
_cell_angle_gamma 90.000000
_cell_volume 2790.834449
_symmetry_space_group_name_H-M "C 2/C"
_symmetry_group_IT_number 15
_symmetry_cell_setting 'monoclinic'
loop_
_space_group_symop_operation_xyz
x,y,z
-x,y,1/2-z
-x,-y,-z
x,-y,1/2+z
1/2+x,1/2+y,z
1/2-x,1/2+y,1/2-z
1/2-x,1/2-y,-z
1/2+x,1/2-y,1/2+z
loop_
_atom_site_type_symbol
_atom_site_label
_atom_site_fract_x
_atom_site_fract_y
_atom_site_fract_z
Si Si1 0.992999 0.406972 0.601079
Si Si2 0.560209 0.190561 0.681652
Si Si3 0.385122 0.512545 0.911358
Si Si4 0.575780 0.796051 0.005364
Si Si5 0.301380 0.355451 0.309789
Si Si6 0.549955 0.081767 0.580129
Si Si7 0.091990 0.716045 0.315145
Si Si8 0.874072 0.121927 0.008073
O O1 0.799693 0.465105 0.585322
O O2 0.012507 0.344796 0.554856
O O3 0.128189 0.487538 0.603161
O O4 0.977726 0.349932 0.650141
O O5 0.351064 0.207859 0.679559
O O6 0.688722 0.139635 0.740695
O O7 0.518931 0.127101 0.630038
O O8 0.686449 0.267300 0.672277
O O9 0.336228 0.560913 0.851200
O O10 0.444940 0.583561 0.961679
O O11 0.536758 0.434476 0.934660
O O12 0.448003 0.720993 0.016734
O O13 0.750000 0.750000 0.000000
O O14 0.677630 0.860973 0.058649
O O15 0.497801 0.307580 0.320293
O O16 0.352527 0.101193 0.523234
O O17 0.000000 0.687880 0.250000
#
# Coordination Sequence:
#
# PCOD9274143 Si02
#       8
#     8   8   8   8   8   8   8   8
#     4  11  22  39  60  95 128 170 217 268 333 393
#     4  10  21  40  69  97 126 170 229 270 332 405
#     4  10  20  38  61  94 131 169 216 262 341 394
#     4  12  23  39  63  89 132 171 219 271 329 391
#     4  10  20  42  70  94 130 176 214 282 338 393
#     4  11  24  42  62  95 132 172 224 270 336 399
#     4  10  23  42  70 100 130 171 225 276 336 397
#     4  10  21  39  60  88 131 172 214 264 323 406
#
# _framework density 22.932209
#
# number of rings (size 3 to 8) (size 9 to 14) (size 15 to 20)
#    0.000    1.500    3.750    2.250    0.000    1.000 
#    2.250    0.000    2.750    0.000    0.000    0.000 
#    0.000    0.000    0.000    0.000    0.000    0.000 
#
# Total GULP energy -178187.629455 kJ/mol
# GULP energy per Si atom -5568.363420 kJ/mol
# Density = 2.288001 g / cm^3
# Si number density = 22.932209 Si / 1000 Ang^3
#
#
#
# Elastic Constant Matrix: (Units=GPa)
#
#
# Indices 1 2 3 4 5 6 
#
# 1 74.3152 5.0761 27.1973 0.0000 -18.7263 0.0000
# 2 5.0761 80.6934 55.0028 0.0000 -15.4746 0.0000
# 3 27.1973 55.0028 132.0911 0.0000 -28.2749 0.0000
# 4 0.0000 0.0000 0.0000 25.7686 0.0000 -8.3608
# 5 -18.7263 -15.4746 -28.2749 0.0000 31.9704 0.0000
# 6 0.0000 0.0000 0.0000 -8.3608 0.0000 15.0182
#
#
#
# Elastic Compliance Matrix: (Units=1/GPa)
#
#
# Indices 1 2 3 4 5 6 
#
# 1 0.016354 0.002311 -0.002516 0.000000 0.008473 0.000000
# 2 0.002311 0.017790 -0.007094 0.000000 0.003691 0.000000
# 3 -0.002516 -0.007094 0.012325 0.000000 0.005993 0.000000
# 4 0.000000 0.000000 0.000000 0.047362 0.000000 0.026367
# 5 0.008473 0.003691 0.005993 0.000000 0.043329 0.000000
# 6 0.000000 0.000000 0.000000 0.026367 0.000000 0.081264
#
#
# Mechanical properties :
#
#
# Convention : Reuss Voigt Hill
#
# Bulk Modulus (GPa) = 31.37504 51.29465 41.33485
# Shear Modulus (GPa) = 20.52159 27.87301 24.19730
#
# Velocity S-wave (km/s) = 2.99470 3.49012 3.25186
# Velocity P-wave (km/s) = 5.06646 6.21753 5.67128
#
# Compressibility (1/GPa) = 0.03187246
#
# Stress axis : x y z
#
# Youngs Moduli (GPa) = 61.14675 56.21060 81.13415
#
# Poissons Ratio (x) = -0.12990 0.20413
# Poissons Ratio (y) = -0.14131 0.57553
# Poissons Ratio (z) = 0.15384 0.39874
#
# Static dielectric constant tensor:
#      x y z
#    x 2.822560 0.000000 -1.376330 
#    y 0.000000 2.117000 0.000000 
#    z -1.376330 0.000000 4.848530 
# 
# From -- ./inp_files/288815.got.cif
#   From: 2010.05.17/outbox.cif.g08.bks.cpg/sg15_145_cif.got.tgz:288815.got - 2010.06.03 18:47:42.
