data_PCOD9274251
_publ_section_title
;
Structure prediction by ZEFSAII (Michael W. Deem and Ramdas Pophale) SiO2 
 PCOD9274251
Probable space group: C 2/C
;
_chemical_formula_sum "Si O2"
_cell_formula_units_Z 44
_cell_length_a 11.479552
_cell_length_b 24.132407
_cell_length_c 10.995156
_cell_angle_alpha 90.000000
_cell_angle_beta 41.581869
_cell_angle_gamma 90.000000
_cell_volume 2021.584740
_symmetry_space_group_name_H-M "C 2/C"
_symmetry_group_IT_number 15
_symmetry_cell_setting 'monoclinic'
loop_
_space_group_symop_operation_xyz
x,y,z
-x,y,1/2-z
-x,-y,-z
x,-y,1/2+z
1/2+x,1/2+y,z
1/2-x,1/2+y,1/2-z
1/2-x,1/2-y,-z
1/2+x,1/2-y,1/2+z
loop_
_atom_site_type_symbol
_atom_site_label
_atom_site_fract_x
_atom_site_fract_y
_atom_site_fract_z
Si Si1 0.711673 0.897889 0.953164
Si Si2 0.000000 0.804337 0.750000
Si Si3 0.890770 0.005273 0.711033
Si Si4 0.177386 0.706888 0.157647
Si Si5 0.188157 0.602672 0.754934
Si Si6 0.047117 0.204526 0.950723
O O1 0.836774 0.844951 0.853005
O O2 0.793673 0.947249 0.811390
O O3 0.515351 0.884506 0.065861
O O4 0.706609 0.916134 0.099287
O O5 0.033417 0.773209 0.599127
O O6 0.756331 0.055102 0.790582
O O7 0.000000 0.016149 0.750000
O O8 0.000000 0.000000 0.500000
O O9 0.106595 0.745481 0.320524
O O10 0.000000 0.676406 0.250000
O O11 0.250000 0.750000 0.000000
O O12 0.358193 0.678892 0.058744
O O13 0.309222 0.656583 0.671278
#
# Coordination Sequence:
#
# PCOD9274251 Si02
#       6
#     8   4   8   8   8   8
#     4  10  20  40  60  88 129 171 203 261 322 356
#     4  10  20  38  62  88 128 162 206 258 308 384
#     4  12  21  38  62  90 128 168 214 257 317 371
#     4   9  20  39  63  83 121 161 197 261 319 369
#     4  10  22  38  64  92 125 167 216 257 305 387
#     4  10  21  39  61  94 121 163 208 254 321 372
#
# _framework density 21.765103
#
# number of rings (size 3 to 8) (size 9 to 14) (size 15 to 20)
#    0.000    1.818    2.727    1.636    0.000    5.818 
#    0.000    1.818    0.000    0.000    0.000    0.000 
#    0.000    0.000    0.000    0.000    0.000    0.000 
#
# Total GULP energy -122946.493272 kJ/mol
# GULP energy per Si atom -5588.476967 kJ/mol
# Density = 2.171557 g / cm^3
# Si number density = 21.765103 Si / 1000 Ang^3
#
#
#
# Elastic Constant Matrix: (Units=GPa)
#
#
# Indices 1 2 3 4 5 6 
#
# 1 152.4943 36.9818 78.1336 0.0000 -29.5628 0.0000
# 2 36.9818 34.0902 30.1305 0.0000 -5.1470 0.0000
# 3 78.1336 30.1305 134.7135 0.0000 -9.9585 0.0000
# 4 0.0000 0.0000 0.0000 19.9900 0.0000 1.6208
# 5 -29.5628 -5.1470 -9.9585 0.0000 58.8599 0.0000
# 6 0.0000 0.0000 0.0000 1.6208 0.0000 33.3904
#
#
#
# Elastic Compliance Matrix: (Units=1/GPa)
#
#
# Indices 1 2 3 4 5 6 
#
# 1 0.011749 -0.007908 -0.004719 0.000000 0.004411 0.000000
# 2 -0.007908 0.042082 -0.004909 0.000000 -0.001122 0.000000
# 3 -0.004719 -0.004909 0.011191 0.000000 -0.000906 0.000000
# 4 0.000000 0.000000 0.000000 0.050223 0.000000 -0.002438
# 5 0.004411 -0.001122 -0.000906 0.000000 0.018953 0.000000
# 6 0.000000 0.000000 0.000000 -0.002438 0.000000 0.030067
#
#
# Mechanical properties :
#
#
# Convention : Reuss Voigt Hill
#
# Bulk Modulus (GPa) = 33.38922 67.97665 50.68293
# Shear Modulus (GPa) = 23.88694 34.18486 29.03590
#
# Velocity S-wave (km/s) = 3.31643 3.96741 3.65644
# Velocity P-wave (km/s) = 5.48078 7.23097 6.41583
#
# Compressibility (1/GPa) = 0.02994978
#
# Stress axis : x y z
#
# Youngs Moduli (GPa) = 85.11689 23.76335 89.35556
#
# Poissons Ratio (x) = 0.18792 0.42170
# Poissons Ratio (y) = 0.67310 0.43860
# Poissons Ratio (z) = 0.40170 0.11664
#
# Static dielectric constant tensor:
#      x y z
#    x 1.872060 0.000000 -0.007110 
#    y 0.000000 1.761030 0.000000 
#    z -0.007110 0.000000 1.811660 
# 
# From -- ./inp_files/91146.got.cif
#   From: 2010.05.17/outbox.cif.g08.bks.cpg/sg15_46_cif.got.tgz:91146.got - 2010.06.03 18:47:42.
