data_PCOD9274127
_publ_section_title
;
Structure prediction by ZEFSAII (Michael W. Deem and Ramdas Pophale) SiO2 
 PCOD9274127
Probable space group: C 2/C
;
_chemical_formula_sum "Si O2"
_cell_formula_units_Z 40
_cell_length_a 13.822806
_cell_length_b 9.636511
_cell_length_c 17.826119
_cell_angle_alpha 90.000000
_cell_angle_beta 53.134428
_cell_angle_gamma 90.000000
_cell_volume 1899.710450
_symmetry_space_group_name_H-M "C 2/C"
_symmetry_group_IT_number 15
_symmetry_cell_setting 'monoclinic'
loop_
_space_group_symop_operation_xyz
x,y,z
-x,y,1/2-z
-x,-y,-z
x,-y,1/2+z
1/2+x,1/2+y,z
1/2-x,1/2+y,1/2-z
1/2-x,1/2-y,-z
1/2+x,1/2-y,1/2+z
loop_
_atom_site_type_symbol
_atom_site_label
_atom_site_fract_x
_atom_site_fract_y
_atom_site_fract_z
Si Si1 0.878669 0.920604 0.265868
Si Si2 0.864586 0.329586 0.040567
Si Si3 0.914390 0.621127 0.951861
Si Si4 0.536114 0.556422 0.563461
Si Si5 0.151572 0.168554 0.124020
O O1 0.761506 0.854271 0.357888
O O2 0.000000 0.867154 0.250000
O O3 0.912094 0.901727 0.164029
O O4 0.870751 0.086252 0.288560
O O5 0.967605 0.335957 0.057030
O O6 0.894625 0.457254 0.970888
O O7 0.877457 0.187185 0.990047
O O8 0.909921 0.687656 0.871254
O O9 0.795286 0.683824 0.047855
O O10 0.500000 0.500000 0.500000
O O11 0.602817 0.442514 0.584302
#
# Coordination Sequence:
#
# PCOD9274127 Si02
#       5
#     8   8   8   8   8
#     4   9  21  38  60  87 119 163 206 248 298 378
#     4  10  20  38  61  92 125 153 207 257 306 350
#     4   9  18  35  60  91 118 159 196 258 303 350
#     4  11  21  39  62  89 122 167 200 246 313 370
#     4   9  18  37  63  84 120 160 207 240 307 366
#
# _framework density 21.055838999999999
#
# number of rings (size 3 to 8) (size 9 to 14) (size 15 to 20)
#    0.000    2.400    2.000    0.000    0.000    7.200 
#   10.800    0.000    0.000   10.800    0.000    0.000 
#    0.000    0.000    0.000    0.000    0.000    0.000 
#
# Total GULP energy -111552.243342 kJ/mol
# GULP energy per Si atom -5577.612167 kJ/mol
# Density = 2.100791 g / cm^3
# Si number density = 21.055839 Si / 1000 Ang^3
#
#
#
# Elastic Constant Matrix: (Units=GPa)
#
#
# Indices 1 2 3 4 5 6 
#
# 1 79.3259 22.4237 42.8717 0.0000 -22.5508 0.0000
# 2 22.4237 90.0646 48.1637 0.0000 -3.0585 0.0000
# 3 42.8717 48.1637 150.7247 0.0000 -10.0645 0.0000
# 4 0.0000 0.0000 0.0000 24.7749 0.0000 0.5683
# 5 -22.5508 -3.0585 -10.0645 0.0000 39.0301 0.0000
# 6 0.0000 0.0000 0.0000 0.5683 0.0000 27.5107
#
#
#
# Elastic Compliance Matrix: (Units=1/GPa)
#
#
# Indices 1 2 3 4 5 6 
#
# 1 0.017861 -0.002106 -0.003795 0.000000 0.009176 0.000000
# 2 -0.002106 0.013640 -0.003835 0.000000 -0.001137 0.000000
# 3 -0.003795 -0.003835 0.008927 0.000000 -0.000191 0.000000
# 4 0.000000 0.000000 0.000000 0.040383 0.000000 -0.000834
# 5 0.009176 -0.001137 -0.000191 0.000000 0.030785 0.000000
# 6 0.000000 0.000000 0.000000 -0.000834 0.000000 0.036367
#
#
# Mechanical properties :
#
#
# Convention : Reuss Voigt Hill
#
# Bulk Modulus (GPa) = 47.72037 60.78148 54.25093
# Shear Modulus (GPa) = 28.66657 32.04022 30.35339
#
# Velocity S-wave (km/s) = 3.69379 3.90510 3.80092
# Velocity P-wave (km/s) = 6.39571 7.01873 6.71445
#
# Compressibility (1/GPa) = 0.02095541
#
# Stress axis : x y z
#
# Youngs Moduli (GPa) = 55.98803 73.31390 112.02223
#
# Poissons Ratio (x) = 0.15440 0.42508
# Poissons Ratio (y) = 0.11791 0.42966
# Poissons Ratio (z) = 0.21245 0.28120
#
# Static dielectric constant tensor:
#      x y z
#    x 1.785320 0.000000 0.006280 
#    y 0.000000 1.805410 0.000000 
#    z 0.006280 0.000000 1.801390 
# 
# From -- ./inp_files/242221.got.cif
#   From: 2010.05.17/outbox.cif.g08.bks.cpg/sg15_122_cif.got.tgz:242221.got - 2010.06.03 18:47:42.
