data_PCOD9274422
_publ_section_title
;
Structure prediction by ZEFSAII (Michael W. Deem and Ramdas Pophale) SiO2 
 PCOD9274422
Probable space group: C 2/C
;
_chemical_formula_sum "Si O2"
_cell_formula_units_Z 40
_cell_length_a 14.576898
_cell_length_b 10.770453
_cell_length_c 15.316753
_cell_angle_alpha 90.000000
_cell_angle_beta 122.343726
_cell_angle_gamma 90.000000
_cell_volume 2031.642784
_symmetry_space_group_name_H-M "C 2/C"
_symmetry_group_IT_number 15
_symmetry_cell_setting 'monoclinic'
loop_
_space_group_symop_operation_xyz
x,y,z
-x,y,1/2-z
-x,-y,-z
x,-y,1/2+z
1/2+x,1/2+y,z
1/2-x,1/2+y,1/2-z
1/2-x,1/2-y,-z
1/2+x,1/2-y,1/2+z
loop_
_atom_site_type_symbol
_atom_site_label
_atom_site_fract_x
_atom_site_fract_y
_atom_site_fract_z
Si Si1 0.519644 0.277003 0.159972
Si Si2 0.069953 0.249581 0.211266
Si Si3 0.237399 0.095905 0.697211
Si Si4 0.947243 0.497461 0.378238
Si Si5 0.599105 0.404057 0.548800
O O1 0.500000 0.309377 0.250000
O O2 0.629778 0.344302 0.182969
O O3 0.533616 0.129458 0.156241
O O4 0.421858 0.321425 0.046835
O O5 0.187395 0.295781 0.303865
O O6 0.009078 0.378055 0.153041
O O7 0.088938 0.175118 0.132196
O O8 0.000000 0.184105 0.250000
O O9 0.317956 0.033909 0.809787
O O10 0.205204 0.989138 0.612364
O O11 0.000000 0.500000 0.500000
O O12 0.500000 0.500000 0.500000
#
# Coordination Sequence:
#
# PCOD9274422 Si02
#       5
#     8   8   8   8   8
#     4  11  21  40  62  89 121 162 201 251 300 356
#     4  10  21  40  63  87 121 158 201 244 299 358
#     4   9  22  39  60  88 123 156 200 248 295 358
#     4  10  20  38  63  88 122 159 201 251 298 354
#     4  10  21  40  61  90 124 156 201 252 298 356
#
# _framework density 19.688500000000001
#
# number of rings (size 3 to 8) (size 9 to 14) (size 15 to 20)
#    1.200    0.800    2.000    1.800    0.000    3.200 
#    3.600    9.000    0.000    0.000    0.000    0.000 
#    0.000    0.000    0.000    0.000    0.000    0.000 
#
# Total GULP energy -111353.474518 kJ/mol
# GULP energy per Si atom -5567.673726 kJ/mol
# Density = 1.964369 g / cm^3
# Si number density = 19.688500 Si / 1000 Ang^3
#
#
#
# Elastic Constant Matrix: (Units=GPa)
#
#
# Indices 1 2 3 4 5 6 
#
# 1 60.4338 4.2462 34.9948 0.0000 -0.7588 0.0000
# 2 4.2462 72.5885 11.5018 0.0000 2.4941 0.0000
# 3 34.9948 11.5018 88.8593 0.0000 5.8099 0.0000
# 4 0.0000 0.0000 0.0000 6.8132 0.0000 -7.8729
# 5 -0.7588 2.4941 5.8099 0.0000 33.2353 0.0000
# 6 0.0000 0.0000 0.0000 -7.8729 0.0000 -16.0032
#
#
#
# Elastic Compliance Matrix: (Units=1/GPa)
#
#
# Indices 1 2 3 4 5 6 
#
# 1 0.021566 0.000037 -0.008629 0.000000 0.001998 0.000000
# 2 0.000037 0.014083 -0.001789 0.000000 -0.000743 0.000000
# 3 -0.008629 -0.001789 0.015060 0.000000 -0.002695 0.000000
# 4 0.000000 0.000000 0.000000 0.093577 0.000000 -0.046036
# 5 0.001998 -0.000743 -0.002695 0.000000 0.030661 0.000000
# 6 0.000000 0.000000 0.000000 -0.046036 0.000000 -0.039839
#
#
# Mechanical properties :
#
#
# Convention : Reuss Voigt Hill
#
# Bulk Modulus (GPa) = 33.39137 35.92970 34.66054
# Shear Modulus (GPa) = 30.14749 16.21830 23.18290
#
# Velocity S-wave (km/s) = 3.91733 2.87321 3.43517
# Velocity P-wave (km/s) = 6.12024 5.41256 5.77724
#
# Compressibility (1/GPa) = 0.02994786
#
# Stress axis : x y z
#
# Youngs Moduli (GPa) = 46.36926 71.00699 66.40257
#
# Poissons Ratio (x) = -0.00263 0.57296
# Poissons Ratio (y) = -0.00172 0.11879
# Poissons Ratio (z) = 0.40010 0.12702
#
# Static dielectric constant tensor:
#      x y z
#    x 1.703660 0.000000 0.010080 
#    y 0.000000 1.788920 0.000000 
#    z 0.010080 0.000000 1.707530 
# 
# From -- ./inp_files/151462.got.cif
#   From: 2010.05.17/outbox.cif.g08.bks.cpg/sg15_76_cif.got.tgz:151462.got - 2010.06.03 18:47:42.
