data_PCOD9274947
_publ_section_title
;
Structure prediction by ZEFSAII (Michael W. Deem and Ramdas Pophale) SiO2 
 PCOD9274947
Probable space group: C 2/C
;
_chemical_formula_sum "Si O2"
_cell_formula_units_Z 48
_cell_length_a 21.529045
_cell_length_b 13.322120
_cell_length_c 14.336522
_cell_angle_alpha 90.000000
_cell_angle_beta 27.407847
_cell_angle_gamma 90.000000
_cell_volume 1892.792696
_symmetry_space_group_name_H-M "C 2/C"
_symmetry_group_IT_number 15
_symmetry_cell_setting 'monoclinic'
loop_
_space_group_symop_operation_xyz
x,y,z
-x,y,1/2-z
-x,-y,-z
x,-y,1/2+z
1/2+x,1/2+y,z
1/2-x,1/2+y,1/2-z
1/2-x,1/2-y,-z
1/2+x,1/2-y,1/2+z
loop_
_atom_site_type_symbol
_atom_site_label
_atom_site_fract_x
_atom_site_fract_y
_atom_site_fract_z
Si Si1 0.042664 0.654237 0.801020
Si Si2 0.765997 0.598189 0.228494
Si Si3 0.607377 0.139824 0.181764
Si Si4 0.717193 0.468694 0.464762
Si Si5 0.152737 0.788599 0.267692
Si Si6 0.058989 0.114393 0.338894
O O1 0.191197 0.629948 0.643666
O O2 0.032863 0.772869 0.835128
O O3 0.000000 0.643362 0.750000
O O4 0.927511 0.584600 0.002459
O O5 0.697915 0.515310 0.387401
O O6 0.772504 0.710793 0.262754
O O7 0.687595 0.603678 0.235552
O O8 0.500000 0.108160 0.250000
O O9 0.559232 0.220559 0.323127
O O10 0.675465 0.048917 0.142107
O O11 0.729055 0.179306 0.957130
O O12 0.594798 0.453802 0.701148
O O13 0.070955 0.882593 0.418366
#
# Coordination Sequence:
#
# PCOD9274947 Si02
#       6
#     8   8   8   8   8   8
#     4  11  22  42  71 100 136 180 241 289 351 418
#     4  10  22  41  66  98 139 181 232 287 351 419
#     4  10  20  38  66  95 134 181 233 288 341 420
#     4  11  23  40  65 103 136 176 232 294 350 412
#     4   9  21  40  64  96 132 184 235 278 351 421
#     4  11  23  42  67 100 141 182 228 295 356 426
#
# _framework density 25.359352000000001
#
# number of rings (size 3 to 8) (size 9 to 14) (size 15 to 20)
#    0.000    1.667    1.667    2.500    0.000    0.667 
#    3.000    1.667    0.000    0.000    0.000    0.000 
#    0.000    0.000    0.000    0.000    0.000    0.000 
#
# Total GULP energy -133875.018115 kJ/mol
# GULP energy per Si atom -5578.125755 kJ/mol
# Density = 2.530163 g / cm^3
# Si number density = 25.359352 Si / 1000 Ang^3
#
#
#
# Elastic Constant Matrix: (Units=GPa)
#
#
# Indices 1 2 3 4 5 6 
#
# 1 147.3029 31.7676 39.2376 0.0000 18.3348 0.0000
# 2 31.7676 39.8835 26.9503 0.0000 6.5320 0.0000
# 3 39.2376 26.9503 138.8052 0.0000 10.8742 0.0000
# 4 0.0000 0.0000 0.0000 45.2172 0.0000 26.7030
# 5 18.3348 6.5320 10.8742 0.0000 32.7636 0.0000
# 6 0.0000 0.0000 0.0000 26.7030 0.0000 33.0776
#
#
#
# Elastic Compliance Matrix: (Units=1/GPa)
#
#
# Indices 1 2 3 4 5 6 
#
# 1 0.008722 -0.005647 -0.001104 0.000000 -0.003389 0.000000
# 2 -0.005647 0.033034 -0.004671 0.000000 -0.001876 0.000000
# 3 -0.001104 -0.004671 0.008524 0.000000 -0.001280 0.000000
# 4 0.000000 0.000000 0.000000 0.042265 0.000000 -0.034120
# 5 -0.003389 -0.001876 -0.001280 0.000000 0.033217 0.000000
# 6 0.000000 0.000000 0.000000 -0.034120 0.000000 0.057776
#
#
# Mechanical properties :
#
#
# Convention : Reuss Voigt Hill
#
# Bulk Modulus (GPa) = 36.44633 57.98921 47.21777
# Shear Modulus (GPa) = 23.19905 37.41407 30.30656
#
# Velocity S-wave (km/s) = 3.02787 3.84520 3.46075
# Velocity P-wave (km/s) = 5.16015 6.52922 5.88464
#
# Compressibility (1/GPa) = 0.02743760
#
# Stress axis : x y z
#
# Youngs Moduli (GPa) = 114.64827 30.27200 117.32255
#
# Poissons Ratio (x) = 0.17093 0.12950
# Poissons Ratio (y) = 0.64736 0.54798
# Poissons Ratio (z) = 0.12655 0.14139
#
# Static dielectric constant tensor:
#      x y z
#    x 1.766430 0.000000 0.332690 
#    y 0.000000 2.006390 0.000000 
#    z 0.332690 0.000000 2.028310 
# 
# From -- ./inp_files/173615.got.cif
#   From: 2010.05.17/outbox.cif.g08.bks.cpg/sg15_87_cif.got.tgz:173615.got - 2010.06.03 18:47:42.
