data_PCOD9274829
_publ_section_title
;
Structure prediction by ZEFSAII (Michael W. Deem and Ramdas Pophale) SiO2 
 PCOD9274829
Probable space group: C 2/C
;
_chemical_formula_sum "Si O2"
_cell_formula_units_Z 60
_cell_length_a 5.658459
_cell_length_b 23.447376
_cell_length_c 19.130011
_cell_angle_alpha 90.000000
_cell_angle_beta 104.254754
_cell_angle_gamma 90.000000
_cell_volume 2459.946962
_symmetry_space_group_name_H-M "C 2/C"
_symmetry_group_IT_number 15
_symmetry_cell_setting 'monoclinic'
loop_
_space_group_symop_operation_xyz
x,y,z
-x,y,1/2-z
-x,-y,-z
x,-y,1/2+z
1/2+x,1/2+y,z
1/2-x,1/2+y,1/2-z
1/2-x,1/2-y,-z
1/2+x,1/2-y,1/2+z
loop_
_atom_site_type_symbol
_atom_site_label
_atom_site_fract_x
_atom_site_fract_y
_atom_site_fract_z
Si Si1 0.425263 0.835685 0.823416
Si Si2 0.106226 0.766710 0.420864
Si Si3 0.241848 0.154322 0.812557
Si Si4 0.117584 0.539928 0.609955
Si Si5 0.874994 0.146729 0.974909
Si Si6 0.500000 0.743161 0.250000
Si Si7 0.400074 0.523227 0.918734
Si Si8 0.433920 0.887170 0.534179
O O1 0.500000 0.849310 0.750000
O O2 0.592847 0.785377 0.867778
O O3 0.458084 0.887229 0.879507
O O4 0.172205 0.800905 0.803511
O O5 0.250000 0.750000 0.500000
O O6 0.205732 0.821754 0.387830
O O7 0.856371 0.794307 0.431161
O O8 0.365191 0.093305 0.835108
O O9 0.355602 0.210063 0.784788
O O10 0.000000 0.143442 0.750000
O O11 0.387874 0.512576 0.622271
O O12 0.878390 0.503532 0.611395
O O13 0.081379 0.563417 0.526580
O O14 0.657581 0.148265 0.014577
O O15 0.153074 0.135119 0.022658
O O16 0.854974 0.091253 0.923901
O O17 0.500000 0.500000 0.000000
#
# Coordination Sequence:
#
# PCOD9274829 Si02
#       8
#     8   8   8   8   8   4   8   8
#     4  12  25  38  51  82 121 165 216 258 304 358
#     4  12  21  39  57  81 124 165 212 262 306 355
#     4  12  24  40  54  87 130 173 213 260 313 386
#     4  10  22  40  63  95 125 159 206 253 324 378
#     4  10  22  37  60  89 119 149 203 244 316 361
#     4  12  26  34  58  76 128 170 222 256 308 358
#     4  10  20  38  65  96 126 146 192 259 321 378
#     4  10  22  38  58  82 119 156 207 251 299 362
#
# _framework density 24.390768000000001
#
# number of rings (size 3 to 8) (size 9 to 14) (size 15 to 20)
#    0.000    1.067    6.667    0.400    9.333    0.533 
#    0.000    0.000    0.000    0.000    0.000   14.933 
#    0.000    0.000    0.000    0.000    0.000    0.000 
#
# Total GULP energy -167116.873902 kJ/mol
# GULP energy per Si atom -5570.562463 kJ/mol
# Density = 2.433525 g / cm^3
# Si number density = 24.390768 Si / 1000 Ang^3
#
#
#
# Elastic Constant Matrix: (Units=GPa)
#
#
# Indices 1 2 3 4 5 6 
#
# 1 165.8062 26.0515 35.5929 0.0000 24.5367 0.0000
# 2 26.0515 84.3849 15.3859 0.0000 5.8703 0.0000
# 3 35.5929 15.3859 96.2541 0.0000 11.6689 0.0000
# 4 0.0000 0.0000 0.0000 31.8040 0.0000 10.7698
# 5 24.5367 5.8703 11.6689 0.0000 28.8641 0.0000
# 6 0.0000 0.0000 0.0000 10.7698 0.0000 11.9476
#
#
#
# Elastic Compliance Matrix: (Units=1/GPa)
#
#
# Indices 1 2 3 4 5 6 
#
# 1 0.007462 -0.001597 -0.001866 0.000000 -0.005264 0.000000
# 2 -0.001597 0.012636 -0.001348 0.000000 -0.000667 0.000000
# 3 -0.001866 -0.001348 0.011640 0.000000 -0.002845 0.000000
# 4 0.000000 0.000000 0.000000 0.045257 0.000000 -0.040796
# 5 -0.005264 -0.000667 -0.002845 0.000000 0.040406 0.000000
# 6 0.000000 0.000000 0.000000 -0.040796 0.000000 0.120473
#
#
# Mechanical properties :
#
#
# Convention : Reuss Voigt Hill
#
# Bulk Modulus (GPa) = 45.21928 55.61176 50.41552
# Shear Modulus (GPa) = 19.61808 32.48412 26.05110
#
# Velocity S-wave (km/s) = 2.83914 3.65337 3.27168
# Velocity P-wave (km/s) = 5.41547 6.37542 5.91495
#
# Compressibility (1/GPa) = 0.02211446
#
# Stress axis : x y z
#
# Youngs Moduli (GPa) = 134.02043 79.14031 85.91409
#
# Poissons Ratio (x) = 0.12640 0.16029
# Poissons Ratio (y) = 0.21406 0.11584
# Poissons Ratio (z) = 0.25004 0.10671
#
# Static dielectric constant tensor:
#      x y z
#    x 2.229120 0.000000 -0.053100 
#    y 0.000000 2.112510 0.000000 
#    z -0.053100 0.000000 2.010850 
# 
# From -- ./inp_files/228519.got.cif
#   From: 2010.05.17/outbox.cif.g08.bks.cpg/sg15_115_cif.got.tgz:228519.got - 2010.06.03 18:47:42.
