data_PCOD9274777
_publ_section_title
;
Structure prediction by ZEFSAII (Michael W. Deem and Ramdas Pophale) SiO2 
 PCOD9274777
Probable space group: C 2/C
;
_chemical_formula_sum "Si O2"
_cell_formula_units_Z 56
_cell_length_a 15.532733
_cell_length_b 13.995943
_cell_length_c 11.315107
_cell_angle_alpha 90.000000
_cell_angle_beta 82.309643
_cell_angle_gamma 90.000000
_cell_volume 2437.725922
_symmetry_space_group_name_H-M "C 2/C"
_symmetry_group_IT_number 15
_symmetry_cell_setting 'monoclinic'
loop_
_space_group_symop_operation_xyz
x,y,z
-x,y,1/2-z
-x,-y,-z
x,-y,1/2+z
1/2+x,1/2+y,z
1/2-x,1/2+y,1/2-z
1/2-x,1/2-y,-z
1/2+x,1/2-y,1/2+z
loop_
_atom_site_type_symbol
_atom_site_label
_atom_site_fract_x
_atom_site_fract_y
_atom_site_fract_z
Si Si1 0.716223 0.612661 0.605860
Si Si2 0.162452 0.342283 0.941113
Si Si3 0.086364 0.047339 0.031773
Si Si4 0.225345 0.140776 0.862452
Si Si5 0.018321 0.549489 0.369794
Si Si6 0.622360 0.797089 0.547457
Si Si7 0.987873 0.239323 0.382920
O O1 0.652483 0.527220 0.579508
O O2 0.753636 0.603948 0.730891
O O3 0.657915 0.709336 0.617151
O O4 0.796439 0.636655 0.504881
O O5 0.217094 0.256325 0.872473
O O6 0.117557 0.414444 0.859860
O O7 0.217728 0.388914 0.035225
O O8 0.082451 0.295906 0.027158
O O9 0.132459 0.096280 0.910635
O O10 0.054117 0.134053 0.119548
O O11 0.000000 0.000000 0.000000
O O12 0.951246 0.638612 0.379163
O O13 0.000000 0.495991 0.250000
O O14 0.000000 0.500000 0.500000
O O15 0.577028 0.748771 0.440243
O O16 0.000000 0.277455 0.250000
#
# Coordination Sequence:
#
# PCOD9274777 Si02
#       7
#     8   8   8   8   8   8   8
#     4  11  23  40  67  93 134 172 218 271 330 396
#     4   9  21  43  64  94 125 169 225 262 330 400
#     4  11  24  39  57  98 131 167 221 268 336 399
#     4  10  22  41  66  91 130 173 213 271 328 400
#     4  11  25  44  69  98 132 172 219 276 332 395
#     4  10  23  43  63  98 127 171 226 267 324 402
#     4  10  20  38  65  90 131 172 221 276 332 397
#
# _framework density 22.972231000000001
#
# number of rings (size 3 to 8) (size 9 to 14) (size 15 to 20)
#    0.000    1.714    1.429    1.714    4.000    3.429 
#    0.000    1.429    0.000    0.000    0.000    0.000 
#    0.000    0.000    0.000    0.000    0.000    0.000 
#
# Total GULP energy -156456.551847 kJ/mol
# GULP energy per Si atom -5587.733995 kJ/mol
# Density = 2.291995 g / cm^3
# Si number density = 22.972231 Si / 1000 Ang^3
#
#
#
# Elastic Constant Matrix: (Units=GPa)
#
#
# Indices 1 2 3 4 5 6 
#
# 1 93.2827 39.2100 7.0633 0.0000 22.1538 0.0000
# 2 39.2100 100.6176 28.8642 0.0000 6.8522 0.0000
# 3 7.0633 28.8642 101.6539 0.0000 23.6736 0.0000
# 4 0.0000 0.0000 0.0000 13.0752 0.0000 6.2231
# 5 22.1538 6.8522 23.6736 0.0000 30.7264 0.0000
# 6 0.0000 0.0000 0.0000 6.2231 0.0000 41.6164
#
#
#
# Elastic Compliance Matrix: (Units=1/GPa)
#
#
# Indices 1 2 3 4 5 6 
#
# 1 0.016335 -0.006557 0.003813 0.000000 -0.013253 0.000000
# 2 -0.006557 0.013452 -0.004590 0.000000 0.005264 0.000000
# 3 0.003813 -0.004590 0.013744 0.000000 -0.012315 0.000000
# 4 0.000000 0.000000 0.000000 0.082341 0.000000 -0.012313
# 5 -0.013253 0.005264 -0.012315 0.000000 0.050415 0.000000
# 6 0.000000 0.000000 0.000000 -0.012313 0.000000 0.025870
#
#
# Mechanical properties :
#
#
# Convention : Reuss Voigt Hill
#
# Bulk Modulus (GPa) = 34.64600 49.53656 42.09128
# Shear Modulus (GPa) = 22.08039 31.77805 26.92922
#
# Velocity S-wave (km/s) = 3.10365 3.72334 3.42753
# Velocity P-wave (km/s) = 5.28753 6.33205 5.83322
#
# Compressibility (1/GPa) = 0.02886336
#
# Stress axis : x y z
#
# Youngs Moduli (GPa) = 61.21801 74.33797 72.76136
#
# Poissons Ratio (x) = 0.48743 -0.27746
# Poissons Ratio (y) = 0.40141 0.33397
# Poissons Ratio (z) = -0.23344 0.34121
#
# Static dielectric constant tensor:
#      x y z
#    x 1.874930 0.000000 0.028860 
#    y 0.000000 1.919860 0.000000 
#    z 0.028860 0.000000 1.879050 
# 
# From -- ./inp_files/97037.got.cif
#   From: 2010.05.17/outbox.cif.g08.bks.cpg/sg15_49_cif.got.tgz:97037.got - 2010.06.03 18:47:42.
