data_PCOD9274818
_publ_section_title
;
Structure prediction by ZEFSAII (Michael W. Deem and Ramdas Pophale) SiO2 
 PCOD9274818
Probable space group: C 2/C
;
_chemical_formula_sum "Si O2"
_cell_formula_units_Z 60
_cell_length_a 19.800406
_cell_length_b 8.276742
_cell_length_c 22.473977
_cell_angle_alpha 90.000000
_cell_angle_beta 43.634259
_cell_angle_gamma 90.000000
_cell_volume 2541.531708
_symmetry_space_group_name_H-M "C 2/C"
_symmetry_group_IT_number 15
_symmetry_cell_setting 'monoclinic'
loop_
_space_group_symop_operation_xyz
x,y,z
-x,y,1/2-z
-x,-y,-z
x,-y,1/2+z
1/2+x,1/2+y,z
1/2-x,1/2+y,1/2-z
1/2-x,1/2-y,-z
1/2+x,1/2-y,1/2+z
loop_
_atom_site_type_symbol
_atom_site_label
_atom_site_fract_x
_atom_site_fract_y
_atom_site_fract_z
Si Si1 0.029142 0.145215 0.359521
Si Si2 0.806319 0.121497 0.025610
Si Si3 0.500000 0.760172 0.250000
Si Si4 0.759046 0.953146 0.422519
Si Si5 0.240196 0.697026 0.726680
Si Si6 0.889183 0.851723 0.232262
Si Si7 0.358474 0.736731 0.537577
Si Si8 0.133624 0.534639 0.211733
O O1 0.982499 0.173888 0.323804
O O2 0.142841 0.195639 0.290142
O O3 0.970239 0.249377 0.444991
O O4 0.036963 0.951787 0.355909
O O5 0.805990 0.087362 0.956148
O O6 0.824340 0.309937 0.031506
O O7 0.695451 0.115608 0.120776
O O8 0.844989 0.954881 0.030587
O O9 0.587401 0.878538 0.212141
O O10 0.707649 0.129535 0.454098
O O11 0.845677 0.946049 0.317564
O O12 0.291124 0.677498 0.756857
O O13 0.322697 0.758337 0.627851
O O14 0.199992 0.530445 0.723563
O O15 0.933457 0.678882 0.221877
#
# Coordination Sequence:
#
# PCOD9274818 Si02
#       8
#     8   8   4   8   8   8   8   8
#     4  11  24  40  67 102 124 174 223 268 336 403
#     4   9  20  37  61  97 131 168 224 266 335 406
#     4  10  22  40  58  98 138 158 222 274 332 400
#     4  10  20  38  65  94 130 179 216 274 336 393
#     4  10  22  44  66  92 134 176 219 269 327 392
#     4  11  22  40  66  93 128 177 225 265 326 398
#     4  11  22  40  68  94 133 175 214 283 334 386
#     4   9  20  38  63  88 131 176 201 280 333 378
#
# _framework density 23.607811000000002
#
# number of rings (size 3 to 8) (size 9 to 14) (size 15 to 20)
#    0.000    1.867    1.333    2.000    1.867    1.067 
#    9.600    0.667    0.000    0.000    0.000    0.000 
#    0.000    0.000    0.000    0.000    0.000    0.000 
#
# Total GULP energy -167156.296857 kJ/mol
# GULP energy per Si atom -5571.876562 kJ/mol
# Density = 2.355408 g / cm^3
# Si number density = 23.607811 Si / 1000 Ang^3
#
#
#
# Elastic Constant Matrix: (Units=GPa)
#
#
# Indices 1 2 3 4 5 6 
#
# 1 28.5158 -9.5863 -4.9123 0.0000 -1.1615 -0.0001
# 2 -9.5863 84.5831 9.4800 0.0000 -15.5057 -0.0001
# 3 -4.9123 9.4800 77.1182 0.0000 6.4635 0.0000
# 4 0.0000 0.0000 0.0000 29.2234 0.0000 3.0793
# 5 -1.1615 -15.5057 6.4635 0.0000 15.1418 0.0000
# 6 -0.0001 -0.0001 0.0000 3.0793 0.0000 15.1459
#
#
#
# Elastic Compliance Matrix: (Units=1/GPa)
#
#
# Indices 1 2 3 4 5 6 
#
# 1 0.037473 0.005642 0.001004 0.000000 0.008223 0.000000
# 2 0.005642 0.016182 -0.003168 0.000000 0.018357 0.000000
# 3 0.001004 -0.003168 0.014194 0.000000 -0.009226 0.000000
# 4 0.000000 0.000000 0.000000 0.034968 0.000000 -0.007109
# 5 0.008223 0.018357 -0.009226 0.000000 0.089409 0.000000
# 6 0.000000 0.000000 0.000000 -0.007109 0.000000 0.067470
#
#
# Mechanical properties :
#
#
# Convention : Reuss Voigt Hill
#
# Bulk Modulus (GPa) = 13.36815 20.01999 16.69407
# Shear Modulus (GPa) = 18.00662 24.91795 21.46228
#
# Velocity S-wave (km/s) = 2.76477 3.25236 3.01843
# Velocity P-wave (km/s) = 3.98332 4.75421 4.38573
#
# Compressibility (1/GPa) = 0.07480465
#
# Stress axis : x y z
#
# Youngs Moduli (GPa) = 26.68594 61.79576 70.45313
#
# Poissons Ratio (x) = -0.34865 -0.07075
# Poissons Ratio (y) = -0.15056 0.22322
# Poissons Ratio (z) = -0.02680 0.19579
#
# Static dielectric constant tensor:
#      x y z
#    x 1.930010 0.000000 -0.026710 
#    y 0.000000 2.072710 0.000000 
#    z -0.026710 0.000000 1.999760 
# 
# From -- ./inp_files/279664.got.cif
#   From: 2010.05.17/outbox.cif.g08.bks.cpg/sg15_140_cif.got.tgz:279664.got - 2010.06.03 18:47:42.
