data_PCOD9274258
_publ_section_title
;
Structure prediction by ZEFSAII (Michael W. Deem and Ramdas Pophale) SiO2 
 PCOD9274258
Probable space group: C 2/C
;
_chemical_formula_sum "Si O2"
_cell_formula_units_Z 40
_cell_length_a 9.330863
_cell_length_b 16.203926
_cell_length_c 10.882705
_cell_angle_alpha 90.000000
_cell_angle_beta 94.182747
_cell_angle_gamma 90.000000
_cell_volume 1641.045521
_symmetry_space_group_name_H-M "C 2/C"
_symmetry_group_IT_number 15
_symmetry_cell_setting 'monoclinic'
loop_
_space_group_symop_operation_xyz
x,y,z
-x,y,1/2-z
-x,-y,-z
x,-y,1/2+z
1/2+x,1/2+y,z
1/2-x,1/2+y,1/2-z
1/2-x,1/2-y,-z
1/2+x,1/2-y,1/2+z
loop_
_atom_site_type_symbol
_atom_site_label
_atom_site_fract_x
_atom_site_fract_y
_atom_site_fract_z
Si Si1 0.317108 0.615657 0.316901
Si Si2 0.885042 0.279485 0.856297
Si Si3 0.675901 0.470393 0.362811
Si Si4 0.928453 0.409988 0.494746
Si Si5 0.571762 0.383814 0.014321
O O1 0.253908 0.678452 0.212981
O O2 0.335519 0.526614 0.256467
O O3 0.190494 0.604625 0.407197
O O4 0.462757 0.639743 0.395572
O O5 0.000000 0.269693 0.750000
O O6 0.956685 0.340440 0.962446
O O7 0.853210 0.193639 0.920193
O O8 0.821269 0.416244 0.371159
O O9 0.541467 0.415282 0.390644
O O10 0.668495 0.541250 0.470394
O O11 0.000000 0.500000 0.500000
#
# Coordination Sequence:
#
# PCOD9274258 Si02
#       5
#     8   8   8   8   8
#     4  10  21  39  65  87 127 165 199 261 300 362
#     4  10  22  39  64  89 127 159 203 258 309 359
#     4  10  21  39  64  85 127 159 206 254 301 362
#     4  10  20  38  62  89 115 161 206 250 305 365
#     4  10  23  40  62  96 120 166 207 247 309 373
#
# _framework density 24.374706
#
# number of rings (size 3 to 8) (size 9 to 14) (size 15 to 20)
#    0.000    2.000    2.000    0.600    0.000   12.800 
#    0.000    0.000    4.400    0.000    0.000    0.000 
#    0.000    0.000    0.000    0.000    0.000    0.000 
#
# Total GULP energy -111797.667001 kJ/mol
# GULP energy per Si atom -5589.883350 kJ/mol
# Density = 2.431923 g / cm^3
# Si number density = 24.374706 Si / 1000 Ang^3
#
#
#
# Elastic Constant Matrix: (Units=GPa)
#
#
# Indices 1 2 3 4 5 6 
#
# 1 99.4661 24.6803 24.1028 0.0000 15.6700 0.0000
# 2 24.6803 112.8334 38.2177 0.0000 26.5225 0.0000
# 3 24.1028 38.2177 91.5964 0.0000 36.4417 0.0000
# 4 0.0000 0.0000 0.0000 53.5924 0.0000 5.9227
# 5 15.6700 26.5225 36.4417 0.0000 29.7891 0.0000
# 6 0.0000 0.0000 0.0000 5.9227 0.0000 27.0251
#
#
#
# Elastic Compliance Matrix: (Units=1/GPa)
#
#
# Indices 1 2 3 4 5 6 
#
# 1 0.011167 -0.001277 -0.001015 0.000000 -0.003496 0.000000
# 2 -0.001277 0.011444 -0.001271 0.000000 -0.007963 0.000000
# 3 -0.001015 -0.001271 0.021532 0.000000 -0.024675 0.000000
# 4 0.000000 0.000000 0.000000 0.019123 0.000000 -0.004191
# 5 -0.003496 -0.007963 -0.024675 0.000000 0.072683 0.000000
# 6 0.000000 0.000000 0.000000 -0.004191 0.000000 0.037921
#
#
# Mechanical properties :
#
#
# Convention : Reuss Voigt Hill
#
# Bulk Modulus (GPa) = 27.01468 53.09971 40.05719
# Shear Modulus (GPa) = 25.86190 36.54098 31.20144
#
# Velocity S-wave (km/s) = 3.26085 3.87607 3.58169
# Velocity P-wave (km/s) = 5.02839 6.47023 5.79433
#
# Compressibility (1/GPa) = 0.03701691
#
# Stress axis : x y z
#
# Youngs Moduli (GPa) = 89.54771 87.38084 46.44318
#
# Poissons Ratio (x) = 0.11160 0.04714
# Poissons Ratio (y) = 0.11437 0.05903
# Poissons Ratio (z) = 0.09089 0.11106
#
# Static dielectric constant tensor:
#      x y z
#    x 1.989700 0.000000 0.003330 
#    y 0.000000 1.914010 0.000000 
#    z 0.003330 0.000000 2.060480 
# 
# From -- ./inp_files/85547.got.cif
#   From: 2010.05.17/outbox.cif.g08.bks.cpg/sg15_43_cif.got.tgz:85547.got - 2010.06.03 18:47:42.
