data_PCOD9274540
_publ_section_title
;
Structure prediction by ZEFSAII (Michael W. Deem and Ramdas Pophale) SiO2 
 PCOD9274540
Probable space group: C 2/C
;
_chemical_formula_sum "Si O2"
_cell_formula_units_Z 60
_cell_length_a 19.395955
_cell_length_b 8.495287
_cell_length_c 23.978289
_cell_angle_alpha 90.000000
_cell_angle_beta 38.064960
_cell_angle_gamma 90.000000
_cell_volume 2436.008979
_symmetry_space_group_name_H-M "C 2/C"
_symmetry_group_IT_number 15
_symmetry_cell_setting 'monoclinic'
loop_
_space_group_symop_operation_xyz
x,y,z
-x,y,1/2-z
-x,-y,-z
x,-y,1/2+z
1/2+x,1/2+y,z
1/2-x,1/2+y,1/2-z
1/2-x,1/2-y,-z
1/2+x,1/2-y,1/2+z
loop_
_atom_site_type_symbol
_atom_site_label
_atom_site_fract_x
_atom_site_fract_y
_atom_site_fract_z
Si Si1 0.687420 0.778740 0.330045
Si Si2 0.411267 0.151712 0.388517
Si Si3 0.305162 0.660290 0.053899
Si Si4 0.149643 0.845002 0.672950
Si Si5 0.950879 0.844238 0.979476
Si Si6 0.058012 0.696967 0.630150
Si Si7 0.500000 0.621927 0.750000
Si Si8 0.155773 0.644844 0.363062
O O1 0.725413 0.740558 0.368393
O O2 0.584610 0.657717 0.383962
O O3 0.786192 0.740797 0.223915
O O4 0.642484 0.960256 0.355138
O O5 0.373878 0.219337 0.471305
O O6 0.304852 0.130286 0.414398
O O7 0.495748 0.272676 0.306846
O O8 0.468401 0.984894 0.356029
O O9 0.380657 0.506183 0.020685
O O10 0.149474 0.733500 0.619352
O O11 0.256672 0.856915 0.641758
O O12 0.050436 0.785608 0.776783
O O13 0.108578 0.013034 0.677393
O O14 0.939105 0.748195 0.045416
O O15 0.908717 0.751827 0.951778
#
# Coordination Sequence:
#
# PCOD9274540 Si02
#       8
#     8   8   8   8   8   8   4   8
#     4  12  27  49  69 103 138 187 236 286 348 418
#     4  11  23  40  67 105 136 176 230 286 349 408
#     4  11  25  45  68  99 140 179 232 284 347 415
#     4  10  21  41  67  98 140 184 226 283 357 408
#     4  12  25  47  72 100 143 185 234 288 348 418
#     4  10  21  40  69 100 137 176 225 284 345 417
#     4  10  20  38  64 102 138 178 222 286 344 414
#     4  12  26  46  71 102 139 186 236 288 348 422
#
# _framework density 24.630451000000001
#
# number of rings (size 3 to 8) (size 9 to 14) (size 15 to 20)
#    0.000    1.067    1.333    6.400    0.000    4.267 
#    7.200    0.000    0.000    0.000    0.000    0.000 
#    0.000    0.000    0.000    0.000    0.000    0.000 
#
# Total GULP energy -167918.545035 kJ/mol
# GULP energy per Si atom -5597.284835 kJ/mol
# Density = 2.457439 g / cm^3
# Si number density = 24.630451 Si / 1000 Ang^3
#
#
#
# Elastic Constant Matrix: (Units=GPa)
#
#
# Indices 1 2 3 4 5 6 
#
# 1 90.7265 12.6029 24.8062 0.0000 23.5023 -0.0003
# 2 12.6029 140.4300 28.7775 -0.0001 22.8290 -0.0007
# 3 24.8062 28.7775 119.7875 -0.0001 39.2127 -0.0001
# 4 0.0000 -0.0001 -0.0001 29.8566 0.0000 5.4824
# 5 23.5023 22.8290 39.2127 0.0000 51.5549 0.0001
# 6 -0.0003 -0.0007 -0.0001 5.4824 0.0001 23.6778
#
#
#
# Elastic Compliance Matrix: (Units=1/GPa)
#
#
# Indices 1 2 3 4 5 6 
#
# 1 0.012584 -0.000129 -0.000953 0.000000 -0.004955 0.000000
# 2 -0.000129 0.007761 -0.000975 0.000000 -0.002637 0.000000
# 3 -0.000953 -0.000975 0.011313 0.000000 -0.007738 0.000000
# 4 0.000000 0.000000 0.000000 0.034981 0.000000 -0.008099
# 5 -0.004955 -0.002637 -0.007738 0.000000 0.028709 0.000000
# 6 0.000000 0.000000 0.000000 -0.008099 0.000000 0.044109
#
#
# Mechanical properties :
#
#
# Convention : Reuss Voigt Hill
#
# Bulk Modulus (GPa) = 36.30417 53.70191 45.00304
# Shear Modulus (GPa) = 32.73303 40.00170 36.36736
#
# Velocity S-wave (km/s) = 3.64945 4.03435 3.84672
# Velocity P-wave (km/s) = 5.70347 6.59937 6.16771
#
# Compressibility (1/GPa) = 0.02754505
#
# Stress axis : x y z
#
# Youngs Moduli (GPa) = 79.46519 128.85116 88.39496
#
# Poissons Ratio (x) = 0.01657 0.08425
# Poissons Ratio (y) = 0.01022 0.08616
# Poissons Ratio (z) = 0.07574 0.12560
#
# Static dielectric constant tensor:
#      x y z
#    x 2.042190 0.000000 -0.072820 
#    y 0.000000 1.952430 0.000000 
#    z -0.072820 0.000000 1.955570 
# 
# From -- ./inp_files/279666.got.cif
#   From: 2010.05.17/outbox.cif.g08.bks.cpg/sg15_140_cif.got.tgz:279666.got - 2010.06.03 18:47:42.
