data_PCOD9274320
_publ_section_title
;
Structure prediction by ZEFSAII (Michael W. Deem and Ramdas Pophale) SiO2 
 PCOD9274320
Probable space group: C 2/C
;
_chemical_formula_sum "Si O2"
_cell_formula_units_Z 52
_cell_length_a 22.444670
_cell_length_b 9.975629
_cell_length_c 14.106660
_cell_angle_alpha 90.000000
_cell_angle_beta 55.160309
_cell_angle_gamma 90.000000
_cell_volume 2592.331511
_symmetry_space_group_name_H-M "C 2/C"
_symmetry_group_IT_number 15
_symmetry_cell_setting 'monoclinic'
loop_
_space_group_symop_operation_xyz
x,y,z
-x,y,1/2-z
-x,-y,-z
x,-y,1/2+z
1/2+x,1/2+y,z
1/2-x,1/2+y,1/2-z
1/2-x,1/2-y,-z
1/2+x,1/2-y,1/2+z
loop_
_atom_site_type_symbol
_atom_site_label
_atom_site_fract_x
_atom_site_fract_y
_atom_site_fract_z
Si Si1 0.198198 0.551058 0.868477
Si Si2 0.049043 0.396182 0.404459
Si Si3 0.780636 0.545825 0.948275
Si Si4 0.861780 0.177164 0.345063
Si Si5 0.500000 0.806289 0.250000
Si Si6 0.723501 0.637958 0.341313
Si Si7 0.565882 0.602466 0.422036
O O1 0.129690 0.566317 0.862263
O O2 0.247195 0.432874 0.780647
O O3 0.231648 0.701218 0.836210
O O4 0.180193 0.507531 0.992312
O O5 0.033250 0.250283 0.461415
O O6 0.000000 0.500000 0.500000
O O7 0.030764 0.389384 0.309963
O O8 0.818749 0.680230 0.872985
O O9 0.769742 0.429539 0.882346
O O10 0.698775 0.584542 0.054234
O O11 0.932101 0.214817 0.344022
O O12 0.898113 0.114329 0.217057
O O13 0.637815 0.597615 0.422876
O O14 0.500000 0.500000 0.500000
#
# Coordination Sequence:
#
# PCOD9274320 Si02
#       7
#     8   8   8   8   4   8   8
#     4  11  24  42  62  96 135 167 224 273 337 402
#     4  10  22  39  64  89 122 170 207 267 327 391
#     4  11  22  40  66  94 132 174 227 270 338 400
#     4  10  22  39  65  95 127 170 221 278 328 402
#     4  10  20  38  62  92 124 158 222 256 326 390
#     4  11  23  39  64  93 130 175 216 280 337 396
#     4  10  22  41  60  93 129 162 217 275 328 397
#
# _framework density 20.059163000000002
#
# number of rings (size 3 to 8) (size 9 to 14) (size 15 to 20)
#    0.000    1.538    1.538    4.154    6.462    1.231 
#    0.000    0.000    0.000    0.000    0.000    0.000 
#    0.000    0.000    0.000    0.000    0.000    0.000 
#
# Total GULP energy -144921.475069 kJ/mol
# GULP energy per Si atom -5573.902887 kJ/mol
# Density = 2.001351 g / cm^3
# Si number density = 20.059163 Si / 1000 Ang^3
#
#
#
# Elastic Constant Matrix: (Units=GPa)
#
#
# Indices 1 2 3 4 5 6 
#
# 1 88.3341 3.7027 28.9761 0.0000 19.3308 0.0000
# 2 3.7027 66.9771 37.7590 0.0000 -8.5711 0.0000
# 3 28.9761 37.7590 82.1946 0.0000 3.6822 0.0000
# 4 0.0000 0.0000 0.0000 34.7160 0.0000 -11.0393
# 5 19.3308 -8.5711 3.6822 0.0000 38.3394 0.0000
# 6 0.0000 0.0000 0.0000 -11.0393 0.0000 34.0371
#
#
#
# Elastic Compliance Matrix: (Units=1/GPa)
#
#
# Indices 1 2 3 4 5 6 
#
# 1 0.014468 0.001469 -0.005487 0.000000 -0.006439 0.000000
# 2 0.001469 0.021484 -0.010615 0.000000 0.005081 0.000000
# 3 -0.005487 -0.010615 0.019041 0.000000 -0.001435 0.000000
# 4 0.000000 0.000000 0.000000 0.032118 0.000000 0.010417
# 5 -0.006439 0.005081 -0.001435 0.000000 0.030603 0.000000
# 6 0.000000 0.000000 0.000000 0.010417 0.000000 0.032758
#
#
# Mechanical properties :
#
#
# Convention : Reuss Voigt Hill
#
# Bulk Modulus (GPa) = 38.86808 42.04240 40.45524
# Shear Modulus (GPa) = 26.55143 32.55637 29.55390
#
# Velocity S-wave (km/s) = 3.64215 4.03304 3.84257
# Velocity P-wave (km/s) = 6.09146 6.53390 6.31656
#
# Compressibility (1/GPa) = 0.02572805
#
# Stress axis : x y z
#
# Youngs Moduli (GPa) = 69.11739 46.54653 52.51739
#
# Poissons Ratio (x) = -0.06840 0.28817
# Poissons Ratio (y) = -0.10157 0.55748
# Poissons Ratio (z) = 0.37925 0.49409
#
# Static dielectric constant tensor:
#      x y z
#    x 1.752540 0.000000 0.006010 
#    y 0.000000 1.700610 0.000000 
#    z 0.006010 0.000000 1.758260 
# 
# From -- ./inp_files/171763.got.cif
#   From: 2010.05.17/outbox.cif.g08.bks.cpg/sg15_86_cif.got.tgz:171763.got - 2010.06.03 18:47:42.
