data_PCOD9274782
_publ_section_title
;
Structure prediction by ZEFSAII (Michael W. Deem and Ramdas Pophale) SiO2 
 PCOD9274782
Probable space group: C 2/C
;
_chemical_formula_sum "Si O2"
_cell_formula_units_Z 56
_cell_length_a 26.029006
_cell_length_b 12.700101
_cell_length_c 13.076426
_cell_angle_alpha 90.000000
_cell_angle_beta 148.163076
_cell_angle_gamma 90.000000
_cell_volume 2280.232221
_symmetry_space_group_name_H-M "C 2/C"
_symmetry_group_IT_number 15
_symmetry_cell_setting 'monoclinic'
loop_
_space_group_symop_operation_xyz
x,y,z
-x,y,1/2-z
-x,-y,-z
x,-y,1/2+z
1/2+x,1/2+y,z
1/2-x,1/2+y,1/2-z
1/2-x,1/2-y,-z
1/2+x,1/2-y,1/2+z
loop_
_atom_site_type_symbol
_atom_site_label
_atom_site_fract_x
_atom_site_fract_y
_atom_site_fract_z
Si Si1 0.637742 0.410894 0.844291
Si Si2 0.298862 0.953844 0.971048
Si Si3 0.064958 0.395344 0.110736
Si Si4 0.117602 0.739073 0.968914
Si Si5 0.945574 0.179981 0.942362
Si Si6 0.895893 0.119081 0.627628
Si Si7 0.116400 0.659326 0.474326
O O1 0.660068 0.305388 0.945734
O O2 0.524412 0.400644 0.622236
O O3 0.658117 0.508134 0.954836
O O4 0.691108 0.430203 0.827307
O O5 0.361238 0.915011 0.173337
O O6 0.336145 0.875873 0.946330
O O7 0.326008 0.072925 0.992950
O O8 0.999296 0.292609 0.019234
O O9 0.119869 0.372309 0.098166
O O10 0.000000 0.500000 0.000000
O O11 0.000000 0.730623 0.750000
O O12 0.130761 0.801892 0.096201
O O13 0.909466 0.149277 0.769912
O O14 0.853687 0.221142 0.499615
O O15 0.000000 0.100064 0.750000
O O16 0.000000 0.652847 0.250000
#
# Coordination Sequence:
#
# PCOD9274782 Si02
#       7
#     8   8   8   8   8   8   8
#     4  11  25  40  63  96 129 170 206 269 325 377
#     4  12  23  42  64  94 138 159 209 276 327 375
#     4  12  21  38  69  96 124 166 218 264 318 382
#     4  10  20  38  65  91 118 161 216 261 305 375
#     4  11  21  40  69  94 118 169 220 258 315 383
#     4  11  22  44  67  87 129 167 222 259 307 402
#     4  11  22  40  65  96 120 171 216 261 320 376
#
# _framework density 24.558903000000001
#
# number of rings (size 3 to 8) (size 9 to 14) (size 15 to 20)
#    0.000    0.857    7.143    3.429    0.000    0.571 
#    5.143    0.000    0.000    0.000    0.000    0.000 
#    0.000    0.000    0.000    0.000    0.000    0.000 
#
# Total GULP energy -156815.220575 kJ/mol
# GULP energy per Si atom -5600.543592 kJ/mol
# Density = 2.450301 g / cm^3
# Si number density = 24.558903 Si / 1000 Ang^3
#
#
#
# Elastic Constant Matrix: (Units=GPa)
#
#
# Indices 1 2 3 4 5 6 
#
# 1 98.5779 28.6510 5.1461 0.0000 -5.9085 0.0000
# 2 28.6510 162.1112 13.0256 0.0000 8.4542 0.0000
# 3 5.1461 13.0256 48.7397 0.0000 -0.5622 0.0000
# 4 0.0000 0.0000 0.0000 15.8700 0.0000 -2.4529
# 5 -5.9085 8.4542 -0.5622 0.0000 33.8915 0.0000
# 6 0.0000 0.0000 0.0000 -2.4529 0.0000 50.1723
#
#
#
# Elastic Compliance Matrix: (Units=1/GPa)
#
#
# Indices 1 2 3 4 5 6 
#
# 1 0.010901 -0.002004 -0.000588 0.000000 0.002391 0.000000
# 2 -0.002004 0.006760 -0.001619 0.000000 -0.002063 0.000000
# 3 -0.000588 -0.001619 0.021019 0.000000 0.000650 0.000000
# 4 0.000000 0.000000 0.000000 0.063492 0.000000 0.003104
# 5 0.002391 -0.002063 0.000650 0.000000 0.030448 0.000000
# 6 0.000000 0.000000 0.000000 0.003104 0.000000 0.020083
#
#
# Mechanical properties :
#
#
# Convention : Reuss Voigt Hill
#
# Bulk Modulus (GPa) = 33.04793 44.78603 38.91698
# Shear Modulus (GPa) = 29.20371 37.49384 33.34877
#
# Velocity S-wave (km/s) = 3.45212 3.91153 3.68898
# Velocity P-wave (km/s) = 5.41990 6.21899 5.83314
#
# Compressibility (1/GPa) = 0.03025908
#
# Stress axis : x y z
#
# Youngs Moduli (GPa) = 91.73749 147.91963 47.57518
#
# Poissons Ratio (x) = 0.29643 0.02796
# Poissons Ratio (y) = 0.18384 0.07702
# Poissons Ratio (z) = 0.05392 0.23947
#
# Static dielectric constant tensor:
#      x y z
#    x 2.116570 0.000000 0.112290 
#    y 0.000000 1.921160 0.000000 
#    z 0.112290 0.000000 2.028320 
# 
# From -- ./inp_files/161418.got.cif
#   From: 2010.05.17/outbox.cif.g08.bks.cpg/sg15_81_cif.got.tgz:161418.got - 2010.06.03 18:47:42.
