data_PCOD9274375
_publ_section_title
;
Structure prediction by ZEFSAII (Michael W. Deem and Ramdas Pophale) SiO2 
 PCOD9274375
Probable space group: C 2/C
;
_chemical_formula_sum "Si O2"
_cell_formula_units_Z 56
_cell_length_a 22.200617
_cell_length_b 14.461915
_cell_length_c 9.985248
_cell_angle_alpha 90.000000
_cell_angle_beta 121.372351
_cell_angle_gamma 90.000000
_cell_volume 2737.202535
_symmetry_space_group_name_H-M "C 2/C"
_symmetry_group_IT_number 15
_symmetry_cell_setting 'monoclinic'
loop_
_space_group_symop_operation_xyz
x,y,z
-x,y,1/2-z
-x,-y,-z
x,-y,1/2+z
1/2+x,1/2+y,z
1/2-x,1/2+y,1/2-z
1/2-x,1/2-y,-z
1/2+x,1/2-y,1/2+z
loop_
_atom_site_type_symbol
_atom_site_label
_atom_site_fract_x
_atom_site_fract_y
_atom_site_fract_z
Si Si1 0.389372 0.562135 0.484222
Si Si2 0.222323 0.088674 0.746560
Si Si3 0.323422 0.728019 0.013328
Si Si4 0.919009 0.411109 0.119356
Si Si5 0.234875 0.847728 0.548328
Si Si6 0.432187 0.417981 0.746348
Si Si7 0.148943 0.518784 0.216505
O O1 0.333519 0.486668 0.366626
O O2 0.339362 0.649077 0.459576
O O3 0.421501 0.515478 0.654762
O O4 0.440154 0.576734 0.415927
O O5 0.196370 0.185409 0.654573
O O6 0.298175 0.060594 0.776406
O O7 0.224879 0.085778 0.908487
O O8 0.373009 0.817318 0.068515
O O9 0.364911 0.646367 0.138639
O O10 0.250000 0.750000 0.000000
O O11 0.885935 0.481968 0.188861
O O12 0.000000 0.393441 0.250000
O O13 0.908175 0.455531 0.960905
O O14 0.250000 0.750000 0.500000
O O15 0.299788 0.892718 0.702583
O O16 0.500000 0.375757 0.750000
#
# Coordination Sequence:
#
# PCOD9274375 Si02
#       7
#     8   8   8   8   8   8   8
#     4  10  22  38  65  90 130 168 213 264 327 386
#     4  10  20  38  62  98 125 162 216 273 322 380
#     4  11  24  39  67  96 127 167 219 271 324 380
#     4  12  25  44  65  95 132 175 216 266 326 401
#     4  11  22  36  63  97 131 162 218 277 325 372
#     4  11  23  42  64  94 129 172 212 264 326 395
#     4  11  23  40  67  91 131 172 216 267 330 388
#
# _framework density 20.458843999999999
#
# number of rings (size 3 to 8) (size 9 to 14) (size 15 to 20)
#    0.000    1.143    4.286    2.143    6.000    0.000 
#    0.000    0.000    0.000    0.000    0.000    0.000 
#    0.000    0.000    0.000    0.000    0.000    0.000 
#
# Total GULP energy -156405.712695 kJ/mol
# GULP energy per Si atom -5585.918311 kJ/mol
# Density = 2.041228 g / cm^3
# Si number density = 20.458844 Si / 1000 Ang^3
#
#
#
# Elastic Constant Matrix: (Units=GPa)
#
#
# Indices 1 2 3 4 5 6 
#
# 1 113.2410 30.2348 26.7837 0.0000 3.0719 0.0000
# 2 30.2348 80.8158 23.7296 0.0000 6.4242 0.0000
# 3 26.7837 23.7296 93.0274 0.0000 -1.0332 0.0000
# 4 0.0000 0.0000 0.0000 22.9598 0.0000 -0.3073
# 5 3.0719 6.4242 -1.0332 0.0000 42.1954 0.0000
# 6 0.0000 0.0000 0.0000 -0.3073 0.0000 28.1989
#
#
#
# Elastic Compliance Matrix: (Units=1/GPa)
#
#
# Indices 1 2 3 4 5 6 
#
# 1 0.010187 -0.003161 -0.002130 0.000000 -0.000313 0.000000
# 2 -0.003161 0.014549 -0.002824 0.000000 -0.002054 0.000000
# 3 -0.002130 -0.002824 0.012093 0.000000 0.000881 0.000000
# 4 0.000000 0.000000 0.000000 0.043561 0.000000 0.000475
# 5 -0.000313 -0.002054 0.000881 0.000000 0.024056 0.000000
# 6 0.000000 0.000000 0.000000 0.000475 0.000000 0.035468
#
#
# Mechanical properties :
#
#
# Convention : Reuss Voigt Hill
#
# Bulk Modulus (GPa) = 48.54625 49.84227 49.19426
# Shear Modulus (GPa) = 30.67308 32.42656 31.54982
#
# Velocity S-wave (km/s) = 3.87623 3.98548 3.93123
# Velocity P-wave (km/s) = 6.61920 6.75232 6.68609
#
# Compressibility (1/GPa) = 0.02059891
#
# Stress axis : x y z
#
# Youngs Moduli (GPa) = 98.16477 68.73422 82.69299
#
# Poissons Ratio (x) = 0.21726 0.17615
# Poissons Ratio (y) = 0.31028 0.23352
# Poissons Ratio (z) = 0.20911 0.19410
#
# Static dielectric constant tensor:
#      x y z
#    x 1.733290 0.000000 -0.008660 
#    y 0.000000 1.745560 0.000000 
#    z -0.008660 0.000000 1.769310 
# 
# From -- ./inp_files/61802.got.cif
#   From: 2010.05.17/outbox.cif.g08.bks.cpg/sg15_31_cif.got.tgz:61802.got - 2010.06.03 18:47:42.
