data_PCOD9274926
_publ_section_title
;
Structure prediction by ZEFSAII (Michael W. Deem and Ramdas Pophale) SiO2 
 PCOD9274926
Probable space group: C 2/C
;
_chemical_formula_sum "Si O2"
_cell_formula_units_Z 40
_cell_length_a 5.046408
_cell_length_b 18.095473
_cell_length_c 20.320139
_cell_angle_alpha 90.000000
_cell_angle_beta 118.212752
_cell_angle_gamma 90.000000
_cell_volume 1635.131194
_symmetry_space_group_name_H-M "C 2/C"
_symmetry_group_IT_number 15
_symmetry_cell_setting 'monoclinic'
loop_
_space_group_symop_operation_xyz
x,y,z
-x,y,1/2-z
-x,-y,-z
x,-y,1/2+z
1/2+x,1/2+y,z
1/2-x,1/2+y,1/2-z
1/2-x,1/2-y,-z
1/2+x,1/2-y,1/2+z
loop_
_atom_site_type_symbol
_atom_site_label
_atom_site_fract_x
_atom_site_fract_y
_atom_site_fract_z
Si Si1 0.434085 0.760393 0.315239
Si Si2 0.649060 0.617857 0.133582
Si Si3 0.288161 0.531533 0.915611
Si Si4 0.964491 0.318734 0.938198
Si Si5 0.746397 0.866257 0.100157
O O1 0.500000 0.785198 0.250000
O O2 0.311987 0.675586 0.302017
O O3 0.751760 0.748542 0.391039
O O4 0.230276 0.814701 0.333443
O O5 0.775120 0.536178 0.141765
O O6 0.286276 0.615781 0.085698
O O7 0.794946 0.659614 0.088351
O O8 0.468253 0.592751 0.895829
O O9 0.994405 0.569931 0.910354
O O10 0.500000 0.500000 0.000000
O O11 0.386491 0.184986 0.973671
#
# Coordination Sequence:
#
# PCOD9274926 Si02
#       5
#     8   8   8   8   8
#     4  10  26  45  62  91 130 178 215 264 312 385
#     4  10  22  38  66  91 127 164 209 251 324 375
#     4  12  21  39  65 101 130 160 201 275 325 383
#     4  10  20  38  66  94 119 161 213 258 315 374
#     4  12  23  38  69  97 132 157 216 268 327 376
#
# _framework density 24.462868
#
# number of rings (size 3 to 8) (size 9 to 14) (size 15 to 20)
#    1.200    0.000    4.000    2.400    2.800    1.600 
#    0.000    2.000    0.000    0.000    0.000    0.000 
#    0.000    0.000    0.000    0.000    0.000    0.000 
#
# Total GULP energy -111857.489639 kJ/mol
# GULP energy per Si atom -5592.874482 kJ/mol
# Density = 2.440719 g / cm^3
# Si number density = 24.462868 Si / 1000 Ang^3
#
#
#
# Elastic Constant Matrix: (Units=GPa)
#
#
# Indices 1 2 3 4 5 6 
#
# 1 82.8749 11.0727 16.0965 0.0000 -19.1384 0.0000
# 2 11.0727 126.2378 15.4884 0.0000 -10.2742 0.0000
# 3 16.0965 15.4884 74.5693 0.0000 -24.8213 0.0000
# 4 0.0000 0.0000 0.0000 12.3848 0.0000 -28.2476
# 5 -19.1384 -10.2742 -24.8213 0.0000 43.9831 0.0000
# 6 0.0000 0.0000 0.0000 -28.2476 0.0000 35.1777
#
#
#
# Elastic Compliance Matrix: (Units=1/GPa)
#
#
# Indices 1 2 3 4 5 6 
#
# 1 0.013548 -0.000638 -0.001083 0.000000 0.005135 0.000000
# 2 -0.000638 0.008207 -0.001257 0.000000 0.000930 0.000000
# 3 -0.001083 -0.001257 0.016808 0.000000 0.008720 0.000000
# 4 0.000000 0.000000 0.000000 -0.097107 0.000000 -0.077977
# 5 0.005135 0.000930 0.008720 0.000000 0.030109 0.000000
# 6 0.000000 0.000000 0.000000 -0.077977 0.000000 -0.034188
#
#
# Mechanical properties :
#
#
# Convention : Reuss Voigt Hill
#
# Bulk Modulus (GPa) = 30.66766 40.99968 35.83367
# Shear Modulus (GPa) = -109.17549 34.37742 -37.39903
#
# Velocity S-wave (km/s) = -6.68775 3.75279 -3.91424
# Velocity P-wave (km/s) = 6.86083 5.96441 2.39758
#
# Compressibility (1/GPa) = 0.03260764
#
# Stress axis : x y z
#
# Youngs Moduli (GPa) = 73.81332 121.84030 59.49561
#
# Poissons Ratio (x) = 0.07768 0.06442
# Poissons Ratio (y) = 0.04706 0.07482
# Poissons Ratio (z) = 0.07992 0.15321
#
# Static dielectric constant tensor:
#      x y z
#    x 1.975970 0.000000 0.065230 
#    y 0.000000 1.974480 0.000000 
#    z 0.065230 0.000000 1.922400 
# 
# From -- ./inp_files/285335.got.cif
#   From: 2010.05.17/outbox.cif.g08.bks.cpg/sg15_143_cif.got.tgz:285335.got - 2010.06.03 18:47:42.
