data_PCOD9274906
_publ_section_title
;
Structure prediction by ZEFSAII (Michael W. Deem and Ramdas Pophale) SiO2 
 PCOD9274906
Probable space group: C 2/C
;
_chemical_formula_sum "Si O2"
_cell_formula_units_Z 56
_cell_length_a 9.318573
_cell_length_b 16.766647
_cell_length_c 20.344330
_cell_angle_alpha 90.000000
_cell_angle_beta 121.268121
_cell_angle_gamma 90.000000
_cell_volume 2716.920891
_symmetry_space_group_name_H-M "C 2/C"
_symmetry_group_IT_number 15
_symmetry_cell_setting 'monoclinic'
loop_
_space_group_symop_operation_xyz
x,y,z
-x,y,1/2-z
-x,-y,-z
x,-y,1/2+z
1/2+x,1/2+y,z
1/2-x,1/2+y,1/2-z
1/2-x,1/2-y,-z
1/2+x,1/2-y,1/2+z
loop_
_atom_site_type_symbol
_atom_site_label
_atom_site_fract_x
_atom_site_fract_y
_atom_site_fract_z
Si Si1 0.499779 0.024297 0.924346
Si Si2 0.673856 0.264372 0.331644
Si Si3 0.515697 0.267066 0.829819
Si Si4 0.484642 0.427393 0.591302
Si Si5 0.133405 0.060794 0.841546
Si Si6 0.133315 0.587740 0.342624
Si Si7 0.258954 0.833323 0.042517
O O1 0.583712 0.963136 0.893962
O O2 0.309790 0.031478 0.855310
O O3 0.594807 0.108381 0.946749
O O4 0.500000 0.000000 0.000000
O O5 0.500000 0.265868 0.250000
O O6 0.666948 0.347168 0.368756
O O7 0.660834 0.181031 0.366588
O O8 0.842173 0.259592 0.325777
O O9 0.500000 0.279823 0.750000
O O10 0.556430 0.353334 0.870239
O O11 0.664819 0.201870 0.872587
O O12 0.408656 0.506269 0.605704
O O13 0.682561 0.439735 0.635707
O O14 0.403608 0.390120 0.505078
O O15 0.000000 0.055247 0.750000
O O16 0.000000 0.581436 0.250000
O O17 0.250000 0.750000 0.000000
#
# Coordination Sequence:
#
# PCOD9274906 Si02
#       7
#     8   8   8   8   8   8   8
#     4  12  24  44  67  95 135 175 218 269 334 393
#     4   9  20  40  60  93 133 158 212 278 322 383
#     4  10  20  38  66  92 123 172 223 269 322 394
#     4  10  21  40  65  91 131 169 215 268 331 397
#     4  11  21  39  66  97 130 170 220 276 323 392
#     4  10  23  44  68  95 133 173 217 273 324 389
#     4  10  22  42  63  91 133 169 211 266 324 390
#
# _framework density 20.611567999999998
#
# number of rings (size 3 to 8) (size 9 to 14) (size 15 to 20)
#    0.000    1.714    2.857    1.286    0.000    3.429 
#    5.143    0.714    0.000    0.000    0.000    0.000 
#    0.000    0.000    0.000    0.000    0.000    0.000 
#
# Total GULP energy -155959.419781 kJ/mol
# GULP energy per Si atom -5569.979278 kJ/mol
# Density = 2.056466 g / cm^3
# Si number density = 20.611568 Si / 1000 Ang^3
#
#
#
# Elastic Constant Matrix: (Units=GPa)
#
#
# Indices 1 2 3 4 5 6 
#
# 1 71.2343 70.9688 33.9443 0.0000 19.9614 0.0000
# 2 70.9688 151.2807 24.7503 0.0000 -14.0521 0.0000
# 3 33.9443 24.7503 67.5706 0.0000 4.0914 0.0000
# 4 0.0000 0.0000 0.0000 21.4785 0.0000 5.6519
# 5 19.9614 -14.0521 4.0914 0.0000 34.4662 0.0000
# 6 0.0000 0.0000 0.0000 5.6519 0.0000 24.1949
#
#
#
# Elastic Compliance Matrix: (Units=1/GPa)
#
#
# Indices 1 2 3 4 5 6 
#
# 1 0.083890 -0.041386 -0.023186 0.000000 -0.062706 0.000000
# 2 -0.041386 0.027816 0.008525 0.000000 0.034298 0.000000
# 3 -0.023186 0.008525 0.022462 0.000000 0.014238 0.000000
# 4 0.000000 0.000000 0.000000 0.049607 0.000000 -0.011588
# 5 -0.062706 0.034298 0.014238 0.000000 0.077624 0.000000
# 6 0.000000 0.000000 0.000000 -0.011588 0.000000 0.044038
#
#
# Mechanical properties :
#
#
# Convention : Reuss Voigt Hill
#
# Bulk Modulus (GPa) = 45.30229 61.04582 53.17405
# Shear Modulus (GPa) = 11.76775 26.72274 19.24524
#
# Velocity S-wave (km/s) = 2.39200 3.60459 3.05898
# Velocity P-wave (km/s) = 5.44570 6.85607 6.19118
#
# Compressibility (1/GPa) = 0.02207394
#
# Stress axis : x y z
#
# Youngs Moduli (GPa) = 11.92041 35.95034 44.51866
#
# Poissons Ratio (x) = 1.48782 1.03223
# Poissons Ratio (y) = 0.49333 -0.37951
# Poissons Ratio (z) = 0.27639 -0.30647
#
# Static dielectric constant tensor:
#      x y z
#    x 1.762930 0.000000 0.014930 
#    y 0.000000 -4.205200 0.000000 
#    z 0.014930 0.000000 1.721490 
# 
# From -- ./inp_files/232801.got.cif
#   From: 2010.05.17/outbox.cif.g08.bks.cpg/sg15_117_cif.got.tgz:232801.got - 2010.06.03 18:47:42.
