data_PCOD9274678
_publ_section_title
;
Structure prediction by ZEFSAII (Michael W. Deem and Ramdas Pophale) SiO2 
 PCOD9274678
Probable space group: C 2/C
;
_chemical_formula_sum "Si O2"
_cell_formula_units_Z 64
_cell_length_a 14.889206
_cell_length_b 14.486098
_cell_length_c 29.159146
_cell_angle_alpha 90.000000
_cell_angle_beta 33.378613
_cell_angle_gamma 90.000000
_cell_volume 3460.142088
_symmetry_space_group_name_H-M "C 2/C"
_symmetry_group_IT_number 15
_symmetry_cell_setting 'monoclinic'
loop_
_space_group_symop_operation_xyz
x,y,z
-x,y,1/2-z
-x,-y,-z
x,-y,1/2+z
1/2+x,1/2+y,z
1/2-x,1/2+y,1/2-z
1/2-x,1/2-y,-z
1/2+x,1/2-y,1/2+z
loop_
_atom_site_type_symbol
_atom_site_label
_atom_site_fract_x
_atom_site_fract_y
_atom_site_fract_z
Si Si1 0.953274 0.589648 0.050429
Si Si2 0.278341 0.299592 0.438462
Si Si3 0.120338 0.346041 0.089532
Si Si4 0.863258 0.987304 0.020649
Si Si5 0.792737 0.843836 0.918006
Si Si6 0.635087 0.011183 0.312064
Si Si7 0.932225 0.375818 0.829835
Si Si8 0.012937 0.020706 0.634149
O O1 0.815613 0.646302 0.081327
O O2 0.895959 0.548265 0.123476
O O3 0.000000 0.500000 0.000000
O O4 0.109229 0.655163 0.993326
O O5 0.250000 0.250000 0.500000
O O6 0.358321 0.224163 0.371347
O O7 0.405584 0.383107 0.387401
O O8 0.274606 0.389209 0.051226
O O9 0.094135 0.246398 0.123510
O O10 0.975526 0.420749 0.151528
O O11 0.173560 0.338284 0.013464
O O12 0.717346 0.056060 0.095459
O O13 0.943842 0.009257 0.937646
O O14 0.000000 0.000000 0.000000
O O15 0.896719 0.936873 0.878654
O O16 0.573644 0.092184 0.304439
O O17 0.822052 0.985951 0.224565
O O18 0.000000 0.385119 0.750000
#
# Coordination Sequence:
#
# PCOD9274678 Si02
#       8
#     8   8   8   8   8   8   8   8
#     4  12  22  42  70  94 132 177 218 274 337 392
#     4  12  23  44  68  96 134 176 223 271 337 401
#     4   9  20  39  63  91 127 165 216 275 318 395
#     4  10  20  38  64  93 125 171 216 264 335 393
#     4  10  21  40  63  94 125 167 221 267 329 391
#     4  11  23  42  65  97 136 170 218 278 333 391
#     4  11  24  43  66  97 133 171 223 279 328 400
#     4  11  23  40  66  92 132 175 214 270 329 396
#
# _framework density 18.496348999999999
#
# number of rings (size 3 to 8) (size 9 to 14) (size 15 to 20)
#    0.000    1.250    5.000    1.500    1.750    2.500 
#    2.250    0.000    8.250    0.000    0.000    0.000 
#    0.000    0.000    0.000    0.000    0.000    0.000 
#
# Total GULP energy -178645.723144 kJ/mol
# GULP energy per Si atom -5582.678848 kJ/mol
# Density = 1.845425 g / cm^3
# Si number density = 18.496349 Si / 1000 Ang^3
#
#
#
# Elastic Constant Matrix: (Units=GPa)
#
#
# Indices 1 2 3 4 5 6 
#
# 1 137.4371 50.5868 64.8828 0.0000 -7.1219 0.0000
# 2 50.5868 122.3417 49.1810 0.0000 -2.6788 0.0000
# 3 64.8828 49.1810 116.8883 -0.0001 -8.0623 0.0000
# 4 0.0000 0.0000 -0.0001 40.5547 0.0001 -5.3647
# 5 -7.1219 -2.6788 -8.0623 0.0001 29.8656 0.0000
# 6 0.0000 0.0000 0.0000 -5.3647 0.0000 26.7456
#
#
#
# Elastic Compliance Matrix: (Units=1/GPa)
#
#
# Indices 1 2 3 4 5 6 
#
# 1 0.010437 -0.002398 -0.004715 0.000000 0.001001 0.000000
# 2 -0.002398 0.010390 -0.003073 0.000000 -0.000469 0.000000
# 3 -0.004715 -0.003073 0.012604 0.000000 0.002002 0.000000
# 4 0.000000 0.000000 0.000000 0.025330 0.000000 0.005081
# 5 0.001001 -0.000469 0.002002 0.000000 0.034220 0.000000
# 6 0.000000 0.000000 0.000000 0.005081 0.000000 0.038408
#
#
# Mechanical properties :
#
#
# Convention : Reuss Voigt Hill
#
# Bulk Modulus (GPa) = 76.58081 78.44092 77.51087
# Shear Modulus (GPa) = 32.02770 33.56761 32.79766
#
# Velocity S-wave (km/s) = 4.16573 4.26470 4.21550
# Velocity P-wave (km/s) = 8.03933 8.17014 8.10500
#
# Compressibility (1/GPa) = 0.01305810
#
# Stress axis : x y z
#
# Youngs Moduli (GPa) = 95.81721 96.24207 79.34228
#
# Poissons Ratio (x) = 0.23079 0.37411
# Poissons Ratio (y) = 0.22977 0.24383
# Poissons Ratio (z) = 0.45179 0.29576
#
# Static dielectric constant tensor:
#      x y z
#    x 1.617520 0.000000 0.000520 
#    y 0.000000 1.630140 0.000000 
#    z 0.000520 0.000000 1.524190 
# 
# From -- ./inp_files/293054.got.cif
#   From: 2010.05.17/outbox.cif.g08.bks.cpg/sg15_147_cif.got.tgz:293054.got - 2010.06.03 18:47:42.
