data_PCOD9274323
_publ_section_title
;
Structure prediction by ZEFSAII (Michael W. Deem and Ramdas Pophale) SiO2 
 PCOD9274323
Probable space group: C 2/C
;
_chemical_formula_sum "Si O2"
_cell_formula_units_Z 48
_cell_length_a 17.337932
_cell_length_b 17.157250
_cell_length_c 19.198414
_cell_angle_alpha 90.000000
_cell_angle_beta 156.610837
_cell_angle_gamma 90.000000
_cell_volume 2267.110650
_symmetry_space_group_name_H-M "C 2/C"
_symmetry_group_IT_number 15
_symmetry_cell_setting 'monoclinic'
loop_
_space_group_symop_operation_xyz
x,y,z
-x,y,1/2-z
-x,-y,-z
x,-y,1/2+z
1/2+x,1/2+y,z
1/2-x,1/2+y,1/2-z
1/2-x,1/2-y,-z
1/2+x,1/2-y,1/2+z
loop_
_atom_site_type_symbol
_atom_site_label
_atom_site_fract_x
_atom_site_fract_y
_atom_site_fract_z
Si Si1 0.815600 0.153542 0.701169
Si Si2 0.128812 0.197812 0.066602
Si Si3 0.416411 0.428485 0.476735
Si Si4 0.986554 0.451240 0.158993
Si Si5 0.378427 0.517951 0.218147
Si Si6 0.463062 0.139464 0.142540
O O1 0.661517 0.211265 0.610481
O O2 0.805467 0.060315 0.697466
O O3 0.740650 0.165685 0.559872
O O4 0.020966 0.179540 0.903328
O O5 0.002829 0.150153 0.016770
O O6 0.346125 0.163509 0.242412
O O7 0.500000 0.500000 0.500000
O O8 0.184840 0.431261 0.284724
O O9 0.486183 0.440333 0.613769
O O10 0.965529 0.545521 0.146606
O O11 0.000000 0.422373 0.250000
O O12 0.798042 0.430483 0.957332
O O13 0.500000 0.493889 0.250000
O O14 0.500000 0.169941 0.250000
#
# Coordination Sequence:
#
# PCOD9274323 Si02
#       6
#     8   8   8   8   8   8
#     4  11  24  38  59  85 130 173 212 248 322 378
#     4  12  24  41  56  89 134 171 219 258 311 383
#     4  12  23  39  64  95 132 167 216 273 320 376
#     4  10  20  38  62  92 126 160 208 266 324 378
#     4  11  23  41  68  96 130 169 216 264 323 389
#     4  10  22  36  58  87 126 169 212 256 308 384
#
# _framework density 21.172322999999999
#
# number of rings (size 3 to 8) (size 9 to 14) (size 15 to 20)
#    0.000    1.000    6.667    0.000    4.667    3.333 
#    0.000    0.000    0.000    0.000    0.000    3.500 
#    0.000    0.000    0.000    0.000    0.000    0.000 
#
# Total GULP energy -133846.742741 kJ/mol
# GULP energy per Si atom -5576.947614 kJ/mol
# Density = 2.112413 g / cm^3
# Si number density = 21.172323 Si / 1000 Ang^3
#
#
#
# Elastic Constant Matrix: (Units=GPa)
#
#
# Indices 1 2 3 4 5 6 
#
# 1 66.8234 21.2282 19.7529 -0.0044 3.3196 -0.0087
# 2 21.2282 42.5002 3.5150 -0.0657 -0.8220 -0.0128
# 3 19.7529 3.5150 129.5499 -0.0473 -16.7256 -0.0445
# 4 -0.0044 -0.0657 -0.0473 16.0154 -0.0095 8.5006
# 5 3.3196 -0.8220 -16.7256 -0.0095 40.8959 -0.0072
# 6 -0.0087 -0.0128 -0.0445 8.5006 -0.0072 7.0015
#
#
#
# Elastic Compliance Matrix: (Units=1/GPa)
#
#
# Indices 1 2 3 4 5 6 
#
# 1 0.018950 -0.009273 -0.003020 -0.000099 -0.002960 0.000104
# 2 -0.009273 0.028122 0.000867 0.000257 0.001672 -0.000265
# 3 -0.003020 0.000867 0.008646 0.000001 0.003799 0.000055
# 4 -0.000099 0.000257 0.000001 0.175606 0.000017 -0.213208
# 5 -0.002960 0.001672 0.003799 0.000017 0.026280 0.000030
# 6 0.000104 -0.000265 0.000055 -0.213208 0.000030 0.401688
#
#
# Mechanical properties :
#
#
# Convention : Reuss Voigt Hill
#
# Bulk Modulus (GPa) = 30.42614 36.42954 33.42784
# Shear Modulus (GPa) = 7.21396 25.74105 16.47750
#
# Velocity S-wave (km/s) = 1.84788 3.49060 2.79275
# Velocity P-wave (km/s) = 4.35371 5.78699 5.12074
#
# Compressibility (1/GPa) = 0.03286648
#
# Stress axis : x y z
#
# Youngs Moduli (GPa) = 52.76940 35.55931 115.65453
#
# Poissons Ratio (x) = 0.32974 0.34927
# Poissons Ratio (y) = 0.48933 -0.10025
# Poissons Ratio (z) = 0.15936 -0.03082
#
# Static dielectric constant tensor:
#      x y z
#    x 1.786000 -0.000020 -0.041520 
#    y -0.000020 1.785100 -0.000040 
#    z -0.041520 -0.000040 1.804550 
# 
# From -- ./inp_files/206384.got.cif
#   From: 2010.05.17/outbox.cif.g08.bks.cpg/sg15_104_cif.got.tgz:206384.got - 2010.06.03 18:47:42.
