data_PCOD9274868
_publ_section_title
;
Structure prediction by ZEFSAII (Michael W. Deem and Ramdas Pophale) SiO2 
 PCOD9274868
Probable space group: C 2/C
;
_chemical_formula_sum "Si O2"
_cell_formula_units_Z 52
_cell_length_a 9.818658
_cell_length_b 12.543254
_cell_length_c 22.376309
_cell_angle_alpha 90.000000
_cell_angle_beta 130.480806
_cell_angle_gamma 90.000000
_cell_volume 2096.141191
_symmetry_space_group_name_H-M "C 2/C"
_symmetry_group_IT_number 15
_symmetry_cell_setting 'monoclinic'
loop_
_space_group_symop_operation_xyz
x,y,z
-x,y,1/2-z
-x,-y,-z
x,-y,1/2+z
1/2+x,1/2+y,z
1/2-x,1/2+y,1/2-z
1/2-x,1/2-y,-z
1/2+x,1/2-y,1/2+z
loop_
_atom_site_type_symbol
_atom_site_label
_atom_site_fract_x
_atom_site_fract_y
_atom_site_fract_z
Si Si1 0.120930 0.537445 0.980497
Si Si2 0.440886 0.656358 0.939648
Si Si3 0.978209 0.362625 0.162790
Si Si4 0.551224 0.160442 0.386625
Si Si5 0.500000 0.929609 0.750000
Si Si6 0.016553 0.086269 0.087527
Si Si7 0.348275 0.350822 0.750564
O O1 0.018614 0.617624 0.907093
O O2 0.159726 0.432125 0.951206
O O3 0.310905 0.588144 0.051786
O O4 0.000000 0.500000 0.000000
O O5 0.226163 0.676385 0.882943
O O6 0.547402 0.729482 0.922911
O O7 0.443993 0.533164 0.921982
O O8 0.519413 0.660396 0.029489
O O9 0.024675 0.474718 0.206674
O O10 0.109936 0.273163 0.224524
O O11 0.580200 0.154184 0.323288
O O12 0.340859 0.131664 0.332727
O O13 0.143997 0.103471 0.180300
O O14 0.500000 0.393998 0.750000
#
# Coordination Sequence:
#
# PCOD9274868 Si02
#       7
#     8   8   8   8   4   8   8
#     4  10  23  40  61  96 127 169 206 275 311 388
#     4  10  21  43  64  92 118 171 211 270 311 391
#     4  10  20  38  66  85 126 160 215 252 331 368
#     4  11  23  39  66  90 132 165 220 254 332 380
#     4  10  20  40  56  90 124 170 194 262 318 388
#     4  10  24  41  67  91 132 167 222 260 326 370
#     4  12  22  38  66  99 121 168 213 276 304 386
#
# _framework density 24.807486999999998
#
# number of rings (size 3 to 8) (size 9 to 14) (size 15 to 20)
#    0.000    1.538    2.308    1.846    2.154    4.308 
#    4.154    0.000    0.000    0.000    0.000    0.000 
#    0.000    0.000    0.000    0.000    0.000    0.000 
#
# Total GULP energy -145143.651838 kJ/mol
# GULP energy per Si atom -5582.448148 kJ/mol
# Density = 2.475102 g / cm^3
# Si number density = 24.807487 Si / 1000 Ang^3
#
#
#
# Elastic Constant Matrix: (Units=GPa)
#
#
# Indices 1 2 3 4 5 6 
#
# 1 94.2038 1.8908 17.6079 0.0000 -19.3198 0.0000
# 2 1.8908 91.4519 20.7960 0.0000 -18.1079 0.0000
# 3 17.6079 20.7960 104.2848 0.0000 -12.0874 0.0000
# 4 0.0000 0.0000 0.0000 35.2598 0.0000 -3.4446
# 5 -19.3198 -18.1079 -12.0874 0.0000 53.4179 0.0000
# 6 0.0000 0.0000 0.0000 -3.4446 0.0000 28.4648
#
#
#
# Elastic Compliance Matrix: (Units=1/GPa)
#
#
# Indices 1 2 3 4 5 6 
#
# 1 0.011775 0.000975 -0.001695 0.000000 0.004206 0.000000
# 2 0.000975 0.012192 -0.002132 0.000000 0.004003 0.000000
# 3 -0.001695 -0.002132 0.010419 0.000000 0.001022 0.000000
# 4 0.000000 0.000000 0.000000 0.028700 0.000000 0.003473
# 5 0.004206 0.004003 0.001022 0.000000 0.021830 0.000000
# 6 0.000000 0.000000 0.000000 0.003473 0.000000 0.035551
#
#
# Mechanical properties :
#
#
# Convention : Reuss Voigt Hill
#
# Bulk Modulus (GPa) = 34.86569 41.16998 38.01783
# Shear Modulus (GPa) = 36.83731 40.07155 38.45443
#
# Velocity S-wave (km/s) = 3.85766 4.02344 3.94142
# Velocity P-wave (km/s) = 5.82469 6.18190 6.00595
#
# Compressibility (1/GPa) = 0.02868149
#
# Stress axis : x y z
#
# Youngs Moduli (GPa) = 84.92536 82.02135 95.97949
#
# Poissons Ratio (x) = -0.07995 0.16269
# Poissons Ratio (y) = -0.08278 0.20461
# Poissons Ratio (z) = 0.14395 0.17486
#
# Static dielectric constant tensor:
#      x y z
#    x 2.522090 0.000000 0.233310 
#    y 0.000000 1.962940 0.000000 
#    z 0.233310 0.000000 2.106310 
# 
# From -- ./inp_files/269330.got.cif
#   From: 2010.05.17/outbox.cif.g08.bks.cpg/sg15_135_cif.got.tgz:269330.got - 2010.06.03 18:47:42.
