data_PCOD9274411
_publ_section_title
;
Structure prediction by ZEFSAII (Michael W. Deem and Ramdas Pophale) SiO2 
 PCOD9274411
Probable space group: C 2/C
;
_chemical_formula_sum "Si O2"
_cell_formula_units_Z 64
_cell_length_a 16.386036
_cell_length_b 15.923636
_cell_length_c 12.447566
_cell_angle_alpha 90.000000
_cell_angle_beta 97.942965
_cell_angle_gamma 90.000000
_cell_volume 3216.724732
_symmetry_space_group_name_H-M "C 2/C"
_symmetry_group_IT_number 15
_symmetry_cell_setting 'monoclinic'
loop_
_space_group_symop_operation_xyz
x,y,z
-x,y,1/2-z
-x,-y,-z
x,-y,1/2+z
1/2+x,1/2+y,z
1/2-x,1/2+y,1/2-z
1/2-x,1/2-y,-z
1/2+x,1/2-y,1/2+z
loop_
_atom_site_type_symbol
_atom_site_label
_atom_site_fract_x
_atom_site_fract_y
_atom_site_fract_z
Si Si1 0.673163 0.349373 0.428195
Si Si2 0.632087 0.168115 0.490977
Si Si3 0.343880 0.085245 0.227664
Si Si4 0.357155 0.230000 0.403460
Si Si5 0.917986 0.880963 0.302376
Si Si6 0.583603 0.908643 0.199349
Si Si7 0.300021 0.151886 0.598922
Si Si8 0.690222 0.492846 0.591452
O O1 0.626429 0.267079 0.464270
O O2 0.771368 0.340634 0.459673
O O3 0.649925 0.359242 0.300331
O O4 0.654705 0.432415 0.493763
O O5 0.618413 0.114379 0.379977
O O6 0.581311 0.130186 0.580358
O O7 0.350480 0.162584 0.308580
O O8 0.388515 0.005844 0.289347
O O9 0.249294 0.060164 0.182384
O O10 0.423315 0.300531 0.382223
O O11 0.362123 0.182326 0.517699
O O12 0.271481 0.280652 0.396667
O O13 0.882608 0.959232 0.361223
O O14 0.000000 0.896372 0.250000
O O15 0.500000 0.900051 0.250000
O O16 0.652986 0.861922 0.281953
O O17 0.252926 0.065140 0.559123
#
# Coordination Sequence:
#
# PCOD9274411 Si02
#       8
#     8   8   8   8   8   8   8   8
#     4  10  20  38  63  88 113 151 208 254 284 343
#     4  10  21  39  64  89 113 155 209 253 290 337
#     4  10  21  37  64  89 111 155 204 253 288 342
#     4  10  20  39  64  88 113 154 205 251 290 344
#     4  11  23  39  56  87 127 157 189 238 302 371
#     4  11  25  39  56  88 131 160 189 239 304 375
#     4   9  21  39  61  90 118 153 202 251 299 343
#     4   9  21  36  61  89 110 154 198 250 294 335
#
# _framework density 19.896014000000001
#
# number of rings (size 3 to 8) (size 9 to 14) (size 15 to 20)
#    0.000    2.000    1.250    2.250   10.500    2.500 
#    0.000    0.625    0.000    0.000    0.000    0.000 
#    0.000    0.000    0.000    0.000    0.000    0.000 
#
# Total GULP energy -178667.686039 kJ/mol
# GULP energy per Si atom -5583.365189 kJ/mol
# Density = 1.985073 g / cm^3
# Si number density = 19.896014 Si / 1000 Ang^3
#
#
#
# Elastic Constant Matrix: (Units=GPa)
#
#
# Indices 1 2 3 4 5 6 
#
# 1 46.2927 15.2809 7.5406 0.0000 -22.7233 0.0000
# 2 15.2809 76.4667 42.6370 0.0000 -25.0408 0.0000
# 3 7.5406 42.6370 88.2335 0.0000 -23.5750 0.0000
# 4 0.0000 0.0000 0.0000 38.8844 0.0000 -8.6317
# 5 -22.7233 -25.0408 -23.5750 0.0000 24.5382 0.0000
# 6 0.0000 0.0000 0.0000 -8.6317 0.0000 -0.7821
#
#
#
# Elastic Compliance Matrix: (Units=1/GPa)
#
#
# Indices 1 2 3 4 5 6 
#
# 1 0.045851 0.003877 0.008893 0.000000 0.054960 0.000000
# 2 0.003877 0.022234 -0.005454 0.000000 0.021039 0.000000
# 3 0.008893 -0.005454 0.018730 0.000000 0.020665 0.000000
# 4 0.000000 0.000000 0.000000 0.007454 0.000000 -0.082272
# 5 0.054960 0.021039 0.020665 0.000000 0.132971 0.000000
# 6 0.000000 0.000000 0.000000 -0.082272 0.000000 -0.370621
#
#
# Mechanical properties :
#
#
# Convention : Reuss Voigt Hill
#
# Bulk Modulus (GPa) = 9.85745 37.99000 23.92372
# Shear Modulus (GPa) = -40.25904 22.23039 -9.01433
#
# Velocity S-wave (km/s) = -4.50318 3.34627 -2.13086
# Velocity P-wave (km/s) = 4.69819 5.83659 2.44876
#
# Compressibility (1/GPa) = 0.10144614
#
# Stress axis : x y z
#
# Youngs Moduli (GPa) = 21.80974 44.97680 53.38916
#
# Poissons Ratio (x) = -0.17435 -0.47478
# Poissons Ratio (y) = -0.08455 0.29118
# Poissons Ratio (z) = -0.19395 0.24530
#
# Static dielectric constant tensor:
#      x y z
#    x 1.716890 0.000000 -0.012480 
#    y 0.000000 1.723670 0.000000 
#    z -0.012480 0.000000 1.680260 
# 
# From -- ./inp_files/105740.got.cif
#   From: 2010.05.17/outbox.cif.g08.bks.cpg/sg15_53_cif.got.tgz:105740.got - 2010.06.03 18:47:42.
