data_PCOD9274317
_publ_section_title
;
Structure prediction by ZEFSAII (Michael W. Deem and Ramdas Pophale) SiO2 
 PCOD9274317
Probable space group: C 2/C
;
_chemical_formula_sum "Si O2"
_cell_formula_units_Z 48
_cell_length_a 13.019520
_cell_length_b 8.432348
_cell_length_c 17.644879
_cell_angle_alpha 90.000000
_cell_angle_beta 77.381270
_cell_angle_gamma 90.000000
_cell_volume 1890.354249
_symmetry_space_group_name_H-M "C 2/C"
_symmetry_group_IT_number 15
_symmetry_cell_setting 'monoclinic'
loop_
_space_group_symop_operation_xyz
x,y,z
-x,y,1/2-z
-x,-y,-z
x,-y,1/2+z
1/2+x,1/2+y,z
1/2-x,1/2+y,1/2-z
1/2-x,1/2-y,-z
1/2+x,1/2-y,1/2+z
loop_
_atom_site_type_symbol
_atom_site_label
_atom_site_fract_x
_atom_site_fract_y
_atom_site_fract_z
Si Si1 0.207724 0.689850 0.663578
Si Si2 0.352783 0.495400 0.258670
Si Si3 0.818648 0.055810 0.504040
Si Si4 0.463345 0.437791 0.598262
Si Si5 0.050469 0.249550 0.636118
Si Si6 0.250000 0.250000 0.500000
Si Si7 0.500000 0.986699 0.250000
O O1 0.280779 0.596673 0.710999
O O2 0.206114 0.872932 0.684358
O O3 0.252356 0.661828 0.571748
O O4 0.094631 0.615097 0.700903
O O5 0.428989 0.595629 0.188784
O O6 0.405506 0.365595 0.304246
O O7 0.923048 0.123853 0.446604
O O8 0.754888 0.933742 0.463520
O O9 0.869397 0.912299 0.552944
O O10 0.481093 0.629092 0.597174
O O11 0.150675 0.305082 0.572708
O O12 0.981863 0.389808 0.683211
#
# Coordination Sequence:
#
# PCOD9274317 Si02
#       7
#     8   8   8   8   8   4   4
#     4  11  25  39  63  94 128 162 214 262 317 376
#     4  11  23  41  64  93 127 169 210 261 315 380
#     4   9  19  37  59  91 120 163 208 257 311 372
#     4   9  19  35  64  88 120 159 210 251 311 371
#     4  11  21  39  65  90 125 168 205 254 319 375
#     4  10  20  38  62  92 122 174 206 258 310 382
#     4  12  22  38  62  96 126 160 212 260 308 378
#
# _framework density 25.392066
#
# number of rings (size 3 to 8) (size 9 to 14) (size 15 to 20)
#    0.000    1.667    3.333    1.000    7.000    0.000 
#    0.000    5.000    0.000    2.000    0.000    0.000 
#    0.000    0.000    0.000    0.000    0.000    0.000 
#
# Total GULP energy -133626.412002 kJ/mol
# GULP energy per Si atom -5567.767167 kJ/mol
# Density = 2.533427 g / cm^3
# Si number density = 25.392066 Si / 1000 Ang^3
#
#
#
# Elastic Constant Matrix: (Units=GPa)
#
#
# Indices 1 2 3 4 5 6 
#
# 1 55.8693 20.2843 28.8302 0.0000 -32.4326 0.0000
# 2 20.2843 85.2026 42.2746 0.0000 -14.1883 0.0000
# 3 28.8302 42.2746 165.2759 0.0000 -42.2930 0.0000
# 4 0.0000 0.0000 0.0000 51.9935 0.0000 -18.8641
# 5 -32.4326 -14.1883 -42.2930 0.0000 51.0659 0.0000
# 6 0.0000 0.0000 0.0000 -18.8641 0.0000 23.5345
#
#
#
# Elastic Compliance Matrix: (Units=1/GPa)
#
#
# Indices 1 2 3 4 5 6 
#
# 1 0.029705 -0.004334 0.000566 0.000000 0.018131 0.000000
# 2 -0.004334 0.014126 -0.003245 0.000000 -0.001515 0.000000
# 3 0.000566 -0.003245 0.008430 0.000000 0.006440 0.000000
# 4 0.000000 0.000000 0.000000 0.027120 0.000000 0.021738
# 5 0.018131 -0.001515 0.006440 0.000000 0.036010 0.000000
# 6 0.000000 0.000000 0.000000 0.021738 0.000000 0.059915
#
#
# Mechanical properties :
#
#
# Convention : Reuss Voigt Hill
#
# Bulk Modulus (GPa) = 26.15289 54.34733 40.25011
# Shear Modulus (GPa) = 24.74313 39.64938 32.19625
#
# Velocity S-wave (km/s) = 3.12499 3.95585 3.56471
# Velocity P-wave (km/s) = 4.83144 6.50498 5.72964
#
# Compressibility (1/GPa) = 0.03823669
#
# Stress axis : x y z
#
# Youngs Moduli (GPa) = 33.66386 70.79039 118.63072
#
# Poissons Ratio (x) = 0.30679 -0.06720
# Poissons Ratio (y) = 0.14589 0.38495
# Poissons Ratio (z) = -0.01907 0.22971
#
# Static dielectric constant tensor:
#      x y z
#    x -1.831980 0.000000 -0.873380 
#    y 0.000000 0.301270 0.000000 
#    z -0.873380 0.000000 1.863130 
# 
# From -- ./inp_files/242373.got.cif
#   From: 2010.05.17/outbox.cif.g08.bks.cpg/sg15_122_cif.got.tgz:242373.got - 2010.06.03 18:47:42.
