data_PCOD9274256
_publ_section_title
;
Structure prediction by ZEFSAII (Michael W. Deem and Ramdas Pophale) SiO2 
 PCOD9274256
Probable space group: C 2/C
;
_chemical_formula_sum "Si O2"
_cell_formula_units_Z 52
_cell_length_a 6.241815
_cell_length_b 26.575435
_cell_length_c 17.438027
_cell_angle_alpha 90.000000
_cell_angle_beta 117.065422
_cell_angle_gamma 90.000000
_cell_volume 2575.825741
_symmetry_space_group_name_H-M "C 2/C"
_symmetry_group_IT_number 15
_symmetry_cell_setting 'monoclinic'
loop_
_space_group_symop_operation_xyz
x,y,z
-x,y,1/2-z
-x,-y,-z
x,-y,1/2+z
1/2+x,1/2+y,z
1/2-x,1/2+y,1/2-z
1/2-x,1/2-y,-z
1/2+x,1/2-y,1/2+z
loop_
_atom_site_type_symbol
_atom_site_label
_atom_site_fract_x
_atom_site_fract_y
_atom_site_fract_z
Si Si1 0.032760 0.693999 0.615976
Si Si2 0.495601 0.559610 0.493492
Si Si3 0.057907 0.105523 0.339364
Si Si4 0.909336 0.641370 0.040316
Si Si5 0.725765 0.886449 0.340867
Si Si6 0.500000 0.640369 0.750000
Si Si7 0.749066 0.800142 0.836322
O O1 0.049971 0.670114 0.533842
O O2 0.266598 0.673473 0.698327
O O3 0.067271 0.753490 0.625187
O O4 0.813945 0.669065 0.628064
O O5 0.500000 0.500000 0.500000
O O6 0.506925 0.573516 0.406300
O O7 0.274097 0.593687 0.490241
O O8 0.727312 0.579027 0.578642
O O9 0.333351 0.122106 0.389250
O O10 0.000000 0.078978 0.250000
O O11 0.886109 0.154489 0.316285
O O12 0.811880 0.680073 0.088406
O O13 0.500000 0.899490 0.250000
O O14 0.947792 0.889477 0.318815
O O15 0.500000 0.788432 0.750000
#
# Coordination Sequence:
#
# PCOD9274256 Si02
#       7
#     8   8   8   8   8   4   8
#     4  11  21  38  64  96 131 177 215 262 330 401
#     4  11  25  47  69  96 127 175 232 285 344 404
#     4  11  24  45  66  97 137 178 221 280 334 400
#     4  11  23  43  66  91 139 172 221 280 335 386
#     4  10  22  41  64  96 134 168 213 280 338 395
#     4  10  20  38  62  88 132 168 206 264 330 382
#     4  11  23  38  64  98 134 176 221 261 324 409
#
# _framework density 20.187701000000001
#
# number of rings (size 3 to 8) (size 9 to 14) (size 15 to 20)
#    0.000    1.231    5.385    0.462    0.000    4.308 
#    4.154    0.000    0.000    0.000    0.000    0.000 
#    0.000    0.000    0.000    0.000    0.000    0.000 
#
# Total GULP energy -145067.058181 kJ/mol
# GULP energy per Si atom -5579.502238 kJ/mol
# Density = 2.014175 g / cm^3
# Si number density = 20.187701 Si / 1000 Ang^3
#
#
#
# Elastic Constant Matrix: (Units=GPa)
#
#
# Indices 1 2 3 4 5 6 
#
# 1 60.0377 23.7326 37.9388 0.0000 -14.1177 0.0000
# 2 23.7326 115.5634 54.3218 0.0000 -5.1703 0.0000
# 3 37.9388 54.3218 142.1772 0.0000 -21.0122 0.0000
# 4 0.0000 0.0000 0.0000 -27.7793 0.0000 2.0170
# 5 -14.1177 -5.1703 -21.0122 0.0000 36.7629 0.0000
# 6 0.0000 0.0000 0.0000 2.0170 0.0000 5.3576
#
#
#
# Elastic Compliance Matrix: (Units=1/GPa)
#
#
# Indices 1 2 3 4 5 6 
#
# 1 0.021407 -0.002255 -0.004023 0.000000 0.005605 0.000000
# 2 -0.002255 0.010812 -0.003749 0.000000 -0.001488 0.000000
# 3 -0.004023 -0.003749 0.010085 0.000000 0.003692 0.000000
# 4 0.000000 0.000000 0.000000 -0.035040 0.000000 0.013192
# 5 0.005605 -0.001488 0.003692 0.000000 0.031255 0.000000
# 6 0.000000 0.000000 0.000000 0.013192 0.000000 0.181683
#
#
# Mechanical properties :
#
#
# Convention : Reuss Voigt Hill
#
# Bulk Modulus (GPa) = 44.94122 61.08497 53.01310
# Shear Modulus (GPa) = 20.18795 16.32057 18.25426
#
# Velocity S-wave (km/s) = 3.16573 2.84640 3.01030
# Velocity P-wave (km/s) = 5.97264 6.41302 6.19674
#
# Compressibility (1/GPa) = 0.02225129
#
# Stress axis : x y z
#
# Youngs Moduli (GPa) = 46.71297 92.48899 99.15693
#
# Poissons Ratio (x) = 0.20853 0.39887
# Poissons Ratio (y) = 0.10532 0.37177
# Poissons Ratio (z) = 0.18791 0.34677
#
# Static dielectric constant tensor:
#      x y z
#    x 1.768350 0.000000 -0.010390 
#    y 0.000000 1.695960 0.000000 
#    z -0.010390 0.000000 1.744000 
# 
# From -- ./inp_files/185949.got.cif
#   From: 2010.05.17/outbox.cif.g08.bks.cpg/sg15_93_cif.got.tgz:185949.got - 2010.06.03 18:47:42.
