data_PCOD9274194
_publ_section_title
;
Structure prediction by ZEFSAII (Michael W. Deem and Ramdas Pophale) SiO2 
 PCOD9274194
Probable space group: C 2/C
;
_chemical_formula_sum "Si O2"
_cell_formula_units_Z 64
_cell_length_a 16.747324
_cell_length_b 21.987580
_cell_length_c 17.227544
_cell_angle_alpha 90.000000
_cell_angle_beta 149.657084
_cell_angle_gamma 90.000000
_cell_volume 3204.699957
_symmetry_space_group_name_H-M "C 2/C"
_symmetry_group_IT_number 15
_symmetry_cell_setting 'monoclinic'
loop_
_space_group_symop_operation_xyz
x,y,z
-x,y,1/2-z
-x,-y,-z
x,-y,1/2+z
1/2+x,1/2+y,z
1/2-x,1/2+y,1/2-z
1/2-x,1/2-y,-z
1/2+x,1/2-y,1/2+z
loop_
_atom_site_type_symbol
_atom_site_label
_atom_site_fract_x
_atom_site_fract_y
_atom_site_fract_z
Si Si1 0.020450 0.741735 0.581801
Si Si2 0.620638 0.864061 0.779588
Si Si3 0.839430 0.754183 0.283610
Si Si4 0.485106 0.624414 0.580990
Si Si5 0.884211 0.504212 0.226516
Si Si6 0.977381 0.997613 0.639544
Si Si7 0.406264 0.127230 0.752722
Si Si8 0.028193 0.870592 0.932447
O O1 0.151082 0.742167 0.622991
O O2 0.033802 0.680904 0.642014
O O3 0.866043 0.748597 0.398910
O O4 0.034482 0.803911 0.642773
O O5 0.500000 0.859909 0.750000
O O6 0.602554 0.805858 0.710327
O O7 0.597513 0.929924 0.719058
O O8 0.805664 0.865866 0.959874
O O9 0.912903 0.816339 0.313328
O O10 0.548865 0.559390 0.663498
O O11 0.486837 0.622133 0.488772
O O12 0.923735 0.441132 0.302099
O O13 0.000000 0.506108 0.250000
O O14 0.705028 0.499380 0.043452
O O15 0.000000 0.001835 0.750000
O O16 0.036388 0.931056 0.662784
O O17 0.500000 0.129711 0.750000
O O18 0.217918 0.133070 0.581359
#
# Coordination Sequence:
#
# PCOD9274194 Si02
#       8
#     8   8   8   8   8   8   8   8
#     4  11  21  40  59  86 120 153 196 239 286 348
#     4  10  20  38  62  86 114 158 192 239 292 342
#     4  11  21  40  59  86 120 153 196 239 286 348
#     4  10  20  39  61  82 120 159 189 232 299 347
#     4   8  18  39  57  79 119 148 182 232 298 339
#     4  10  21  37  60  91 115 144 199 250 276 337
#     4  10  20  38  62  86 114 158 192 239 292 342
#     4  10  20  39  61  82 120 159 189 232 299 347
#
# _framework density 19.970669000000001
#
# number of rings (size 3 to 8) (size 9 to 14) (size 15 to 20)
#    0.000    2.000    5.000    0.375    0.000    2.000 
#   13.500    0.625    0.000    0.000    0.000    0.000 
#    0.000    0.000    0.000    0.000    0.000    0.000 
#
# Total GULP energy -178220.806439 kJ/mol
# GULP energy per Si atom -5569.400201 kJ/mol
# Density = 1.992521 g / cm^3
# Si number density = 19.970669 Si / 1000 Ang^3
#
#
#
# Elastic Constant Matrix: (Units=GPa)
#
#
# Indices 1 2 3 4 5 6 
#
# 1 63.1299 20.9034 4.1288 0.0003 13.0994 0.0002
# 2 20.9034 206.1621 17.7018 0.0005 -14.5031 0.0003
# 3 4.1288 17.7018 11.8222 0.0005 2.8640 0.0003
# 4 0.0003 0.0005 0.0005 7.9948 0.0002 -14.3925
# 5 13.0994 -14.5031 2.8640 0.0002 32.7719 0.0001
# 6 0.0002 0.0003 0.0003 -14.3925 0.0001 29.7191
#
#
#
# Elastic Compliance Matrix: (Units=1/GPa)
#
#
# Indices 1 2 3 4 5 6 
#
# 1 0.018415 -0.002381 -0.000845 -0.000003 -0.008341 -0.000001
# 2 -0.002381 0.006237 -0.009611 0.000001 0.004552 0.000001
# 3 -0.000845 -0.009611 0.102389 -0.000050 -0.012863 -0.000025
# 4 -0.000003 0.000001 -0.000050 0.975866 -0.000001 0.472597
# 5 -0.008341 0.004552 -0.012863 -0.000001 0.036987 -0.000001
# 6 -0.000001 0.000001 -0.000025 0.472597 -0.000001 0.262520
#
#
# Mechanical properties :
#
#
# Convention : Reuss Voigt Hill
#
# Bulk Modulus (GPa) = 9.86515 40.73136 25.29826
# Shear Modulus (GPa) = 3.42026 29.98917 16.70471
#
# Velocity S-wave (km/s) = 1.31010 3.87933 2.89530
# Velocity P-wave (km/s) = 2.69054 6.36439 4.88592
#
# Compressibility (1/GPa) = 0.10136691
#
# Stress axis : x y z
#
# Youngs Moduli (GPa) = 54.30408 160.32200 9.76670
#
# Poissons Ratio (x) = 0.38178 0.00825
# Poissons Ratio (y) = 0.12932 0.09386
# Poissons Ratio (z) = 0.04589 1.54081
#
# Static dielectric constant tensor:
#      x y z
#    x 1.684210 0.000000 0.022160 
#    y 0.000000 1.772070 0.000000 
#    z 0.022160 0.000000 1.696160 
# 
# From -- ./inp_files/211976.got.cif
#   From: 2010.05.17/outbox.cif.g08.bks.cpg/sg15_106_cif.got.tgz:211976.got - 2010.06.03 18:47:42.
