data_PCOD9274475
_publ_section_title
;
Structure prediction by ZEFSAII (Michael W. Deem and Ramdas Pophale) SiO2 
 PCOD9274475
Probable space group: C 2/C
;
_chemical_formula_sum "Si O2"
_cell_formula_units_Z 48
_cell_length_a 20.631989
_cell_length_b 20.585588
_cell_length_c 9.433953
_cell_angle_alpha 90.000000
_cell_angle_beta 36.319399
_cell_angle_gamma 90.000000
_cell_volume 2373.173878
_symmetry_space_group_name_H-M "C 2/C"
_symmetry_group_IT_number 15
_symmetry_cell_setting 'monoclinic'
loop_
_space_group_symop_operation_xyz
x,y,z
-x,y,1/2-z
-x,-y,-z
x,-y,1/2+z
1/2+x,1/2+y,z
1/2-x,1/2+y,1/2-z
1/2-x,1/2-y,-z
1/2+x,1/2-y,1/2+z
loop_
_atom_site_type_symbol
_atom_site_label
_atom_site_fract_x
_atom_site_fract_y
_atom_site_fract_z
Si Si1 0.750449 0.640649 0.997036
Si Si2 0.721410 0.457662 0.301839
Si Si3 0.623955 0.938784 0.988743
Si Si4 0.904734 0.249054 0.119759
Si Si5 0.861007 0.226159 0.874888
Si Si6 0.803577 0.079117 0.974825
O O1 0.719062 0.603135 0.909846
O O2 0.796591 0.590145 0.030198
O O3 0.847172 0.692320 0.801855
O O4 0.648799 0.682134 0.232461
O O5 0.662020 0.518861 0.484364
O O6 0.846325 0.484940 0.072258
O O7 0.685062 0.441602 0.207904
O O8 0.500000 0.926270 0.250000
O O9 0.675641 0.911794 0.750668
O O10 0.873954 0.255365 0.008537
O O11 0.034671 0.246616 0.900994
O O12 0.750000 0.250000 0.000000
O O13 0.860485 0.148110 0.894545
#
# Coordination Sequence:
#
# PCOD9274475 Si02
#       6
#     8   8   8   8   8   8
#     4  11  21  42  63  92 129 166 215 257 327 386
#     4  10  20  38  63  92 127 161 207 266 323 384
#     4  10  21  37  61  90 127 167 203 266 327 376
#     4  10  24  41  66  91 130 175 210 270 316 383
#     4  11  23  43  64  97 128 169 219 266 318 382
#     4  10  21  39  63  89 130 158 211 264 318 387
#
# _framework density 20.226078000000001
#
# number of rings (size 3 to 8) (size 9 to 14) (size 15 to 20)
#    1.000    0.667    3.333    1.000    2.333    2.667 
#    3.000    7.500    3.667    0.000    0.000    0.000 
#    0.000    0.000    0.000    0.000    0.000    0.000 
#
# Total GULP energy -133800.421641 kJ/mol
# GULP energy per Si atom -5575.017568 kJ/mol
# Density = 2.018004 g / cm^3
# Si number density = 20.226078 Si / 1000 Ang^3
#
#
#
# Elastic Constant Matrix: (Units=GPa)
#
#
# Indices 1 2 3 4 5 6 
#
# 1 59.6887 0.4108 34.0595 0.0000 8.9431 0.0000
# 2 0.4108 30.9993 14.9402 0.0000 1.8502 0.0000
# 3 34.0595 14.9402 95.2203 0.0000 2.1604 0.0000
# 4 0.0000 0.0000 0.0000 -8.8757 0.0000 7.0947
# 5 8.9431 1.8502 2.1604 0.0000 37.6205 0.0000
# 6 0.0000 0.0000 0.0000 7.0947 0.0000 24.1020
#
#
#
# Elastic Compliance Matrix: (Units=1/GPa)
#
#
# Indices 1 2 3 4 5 6 
#
# 1 0.022341 0.004111 -0.008522 0.000000 -0.005024 0.000000
# 2 0.004111 0.035728 -0.007023 0.000000 -0.002331 0.000000
# 3 -0.008522 -0.007023 0.014618 0.000000 0.001532 0.000000
# 4 0.000000 0.000000 0.000000 -0.091207 0.000000 0.026848
# 5 -0.005024 -0.002331 0.001532 0.000000 0.027802 0.000000
# 6 0.000000 0.000000 0.000000 0.026848 0.000000 0.033587
#
#
# Mechanical properties :
#
#
# Convention : Reuss Voigt Hill
#
# Bulk Modulus (GPa) = 20.07319 31.63658 25.85489
# Shear Modulus (GPa) = 60.72048 19.66921 40.19484
#
# Velocity S-wave (km/s) = 5.48508 3.12182 4.46273
# Velocity P-wave (km/s) = 7.07536 5.35442 6.27417
#
# Compressibility (1/GPa) = 0.04981769
#
# Stress axis : x y z
#
# Youngs Moduli (GPa) = 44.76088 27.98895 68.41100
#
# Poissons Ratio (x) = -0.11507 0.58301
# Poissons Ratio (y) = -0.18402 0.48048
# Poissons Ratio (z) = 0.38146 0.19658
#
# Static dielectric constant tensor:
#      x y z
#    x 1.697290 0.000000 0.005220 
#    y 0.000000 1.728320 0.000000 
#    z 0.005220 0.000000 1.732750 
# 
# From -- ./inp_files/57722.got.cif
#   From: 2010.05.17/outbox.cif.g08.bks.cpg/sg15_29_cif.got.tgz:57722.got - 2010.06.03 18:47:42.
