data_PCOD9274531
_publ_section_title
;
Structure prediction by ZEFSAII (Michael W. Deem and Ramdas Pophale) SiO2 
 PCOD9274531
Probable space group: C 2/C
;
_chemical_formula_sum "Si O2"
_cell_formula_units_Z 52
_cell_length_a 26.778207
_cell_length_b 9.598853
_cell_length_c 16.168851
_cell_angle_alpha 90.000000
_cell_angle_beta 144.429375
_cell_angle_gamma 90.000000
_cell_volume 2417.595039
_symmetry_space_group_name_H-M "C 2/C"
_symmetry_group_IT_number 15
_symmetry_cell_setting 'monoclinic'
loop_
_space_group_symop_operation_xyz
x,y,z
-x,y,1/2-z
-x,-y,-z
x,-y,1/2+z
1/2+x,1/2+y,z
1/2-x,1/2+y,1/2-z
1/2-x,1/2-y,-z
1/2+x,1/2-y,1/2+z
loop_
_atom_site_type_symbol
_atom_site_label
_atom_site_fract_x
_atom_site_fract_y
_atom_site_fract_z
Si Si1 0.351048 0.801701 0.449988
Si Si2 0.562534 0.952462 0.659445
Si Si3 0.151807 0.702246 0.852451
Si Si4 0.500000 0.850744 0.750000
Si Si5 0.362873 0.380134 0.810190
Si Si6 0.852954 0.204296 0.815473
Si Si7 0.156635 0.627853 0.040026
O O1 0.413442 0.768633 0.610509
O O2 0.387582 0.716600 0.421019
O O3 0.250473 0.774624 0.330990
O O4 0.353609 0.969310 0.443287
O O5 0.520418 0.934288 0.693222
O O6 0.601334 0.804141 0.687570
O O7 0.500000 0.000000 0.500000
O O8 0.637811 0.066129 0.776178
O O9 0.106287 0.821278 0.736406
O O10 0.250000 0.750000 0.000000
O O11 0.119330 0.663352 0.899968
O O12 0.378177 0.543439 0.841430
O O13 0.259596 0.359762 0.671047
O O14 0.876184 0.264913 0.936573
#
# Coordination Sequence:
#
# PCOD9274531 Si02
#       7
#     8   8   8   4   8   8   8
#     4  10  20  40  67  93 138 171 232 276 338 408
#     4  12  26  44  74  99 138 185 235 290 343 428
#     4  10  20  38  64 100 134 176 229 281 336 409
#     4  12  24  42  64 102 136 178 232 282 342 418
#     4   9  19  36  62  95 133 172 218 290 335 398
#     4  10  22  41  68  99 132 184 227 274 355 417
#     4   9  17  36  61  95 127 176 225 274 325 415
#
# _framework density 21.508979
#
# number of rings (size 3 to 8) (size 9 to 14) (size 15 to 20)
#    0.000    1.846    1.538    2.769    0.000    4.308 
#    2.769    3.077    0.000    0.923    0.000    0.000 
#    0.000    0.000    0.000    0.000    0.000    0.000 
#
# Total GULP energy -144978.299232 kJ/mol
# GULP energy per Si atom -5576.088432 kJ/mol
# Density = 2.146002 g / cm^3
# Si number density = 21.508979 Si / 1000 Ang^3
#
#
#
# Elastic Constant Matrix: (Units=GPa)
#
#
# Indices 1 2 3 4 5 6 
#
# 1 79.1131 58.2449 49.5632 0.0000 -19.2456 0.0000
# 2 58.2449 137.2067 48.9786 0.0000 -26.1111 0.0000
# 3 49.5632 48.9786 140.4979 0.0000 -23.9949 0.0000
# 4 0.0000 0.0000 0.0000 21.9056 0.0000 -10.9527
# 5 -19.2456 -26.1111 -23.9949 0.0000 32.2578 0.0000
# 6 0.0000 0.0000 0.0000 -10.9527 0.0000 20.4962
#
#
#
# Elastic Compliance Matrix: (Units=1/GPa)
#
#
# Indices 1 2 3 4 5 6 
#
# 1 0.021375 -0.006705 -0.004527 0.000000 0.003958 0.000000
# 2 -0.006705 0.011282 -0.000792 0.000000 0.004543 0.000000
# 3 -0.004527 -0.000792 0.009645 0.000000 0.003833 0.000000
# 4 0.000000 0.000000 0.000000 0.062295 0.000000 0.033289
# 5 0.003958 0.004543 0.003833 0.000000 0.039890 0.000000
# 6 0.000000 0.000000 0.000000 0.033289 0.000000 0.066579
#
#
# Mechanical properties :
#
#
# Convention : Reuss Voigt Hill
#
# Bulk Modulus (GPa) = 54.78005 74.48790 64.63397
# Shear Modulus (GPa) = 20.72988 28.26732 24.49860
#
# Velocity S-wave (km/s) = 3.10785 3.62914 3.37856
# Velocity P-wave (km/s) = 6.19694 7.22960 6.73309
#
# Compressibility (1/GPa) = 0.01825482
#
# Stress axis : x y z
#
# Youngs Moduli (GPa) = 46.78270 88.64000 103.67847
#
# Poissons Ratio (x) = 0.59429 0.46938
# Poissons Ratio (y) = 0.31366 0.08210
# Poissons Ratio (z) = 0.21180 0.07019
#
# Static dielectric constant tensor:
#      x y z
#    x 1.824290 0.000000 0.027890 
#    y 0.000000 1.768940 0.000000 
#    z 0.027890 0.000000 1.839910 
# 
# From -- ./inp_files/181255.got.cif
#   From: 2010.05.17/outbox.cif.g08.bks.cpg/sg15_91_cif.got.tgz:181255.got - 2010.06.03 18:47:42.
