data_PCOD9274229
_publ_section_title
;
Structure prediction by ZEFSAII (Michael W. Deem and Ramdas Pophale) SiO2 
 PCOD9274229
Probable space group: C 2/C
;
_chemical_formula_sum "Si O2"
_cell_formula_units_Z 40
_cell_length_a 13.629167
_cell_length_b 12.774996
_cell_length_c 14.323629
_cell_angle_alpha 90.000000
_cell_angle_beta 127.062355
_cell_angle_gamma 90.000000
_cell_volume 1990.101380
_symmetry_space_group_name_H-M "C 2/C"
_symmetry_group_IT_number 15
_symmetry_cell_setting 'monoclinic'
loop_
_space_group_symop_operation_xyz
x,y,z
-x,y,1/2-z
-x,-y,-z
x,-y,1/2+z
1/2+x,1/2+y,z
1/2-x,1/2+y,1/2-z
1/2-x,1/2-y,-z
1/2+x,1/2-y,1/2+z
loop_
_atom_site_type_symbol
_atom_site_label
_atom_site_fract_x
_atom_site_fract_y
_atom_site_fract_z
Si Si1 0.365165 0.543689 0.159887
Si Si2 0.427557 0.209661 0.075389
Si Si3 0.800351 0.825956 0.168408
Si Si4 0.882391 0.941763 0.972393
Si Si5 0.702201 0.855482 0.714359
O O1 0.500000 0.594158 0.250000
O O2 0.372761 0.432740 0.220268
O O3 0.258809 0.609278 0.148715
O O4 0.343108 0.507828 0.041062
O O5 0.375642 0.241980 0.147878
O O6 0.554341 0.147699 0.137477
O O7 0.320690 0.148900 0.960085
O O8 0.426934 0.324944 0.027599
O O9 0.767023 0.765453 0.242754
O O10 0.774388 0.923344 0.834598
O O11 0.000000 0.000000 0.000000
#
# Coordination Sequence:
#
# PCOD9274229 Si02
#       5
#     8   8   8   8   8
#     4  11  21  36  61  88 118 160 205 243 301 367
#     4   9  19  36  59  88 114 152 202 254 300 348
#     4   9  19  36  59  84 115 153 205 248 293 366
#     4  10  20  38  62  88 118 159 208 245 298 368
#     4  11  21  34  63  90 119 155 198 258 299 349
#
# _framework density 20.099478000000001
#
# number of rings (size 3 to 8) (size 9 to 14) (size 15 to 20)
#    0.000    2.000    2.000    4.200    0.000    0.800 
#    0.000    1.000    0.000    2.400    0.000    0.000 
#    0.000    0.000    0.000    0.000    0.000    0.000 
#
# Total GULP energy -111478.178730 kJ/mol
# GULP energy per Si atom -5573.908937 kJ/mol
# Density = 2.005373 g / cm^3
# Si number density = 20.099478 Si / 1000 Ang^3
#
#
#
# Elastic Constant Matrix: (Units=GPa)
#
#
# Indices 1 2 3 4 5 6 
#
# 1 162.8069 53.1474 64.2889 0.0000 12.8190 0.0000
# 2 53.1474 36.4717 4.3032 0.0000 -5.6342 0.0000
# 3 64.2889 4.3032 89.3157 0.0000 22.4463 0.0000
# 4 0.0000 0.0000 0.0000 16.7882 0.0000 6.9947
# 5 12.8190 -5.6342 22.4463 0.0000 46.0782 0.0000
# 6 0.0000 0.0000 0.0000 6.9947 0.0000 50.2249
#
#
#
# Elastic Compliance Matrix: (Units=1/GPa)
#
#
# Indices 1 2 3 4 5 6 
#
# 1 0.021478 -0.030245 -0.013186 0.000000 -0.003250 0.000000
# 2 -0.030245 0.071040 0.016010 0.000000 0.009302 0.000000
# 3 -0.013186 0.016010 0.021083 0.000000 -0.004644 0.000000
# 4 0.000000 0.000000 0.000000 0.063235 0.000000 -0.008807
# 5 -0.003250 0.009302 -0.004644 0.000000 0.026006 0.000000
# 6 0.000000 0.000000 0.000000 -0.008807 0.000000 0.021137
#
#
# Mechanical properties :
#
#
# Convention : Reuss Voigt Hill
#
# Bulk Modulus (GPa) = 17.01849 59.11925 38.06887
# Shear Modulus (GPa) = 16.75554 33.74191 25.24873
#
# Velocity S-wave (km/s) = 2.89040 4.10170 3.54812
# Velocity P-wave (km/s) = 4.42998 7.20479 5.98054
#
# Compressibility (1/GPa) = 0.05875962
#
# Stress axis : x y z
#
# Youngs Moduli (GPa) = 46.55856 14.07653 47.43091
#
# Poissons Ratio (x) = 0.42574 0.62542
# Poissons Ratio (y) = 1.40817 -0.75936
# Poissons Ratio (z) = 0.61392 -0.22536
#
# Static dielectric constant tensor:
#      x y z
#    x 1.740970 0.000000 0.000720 
#    y 0.000000 1.715570 0.000000 
#    z 0.000720 0.000000 1.800160 
# 
# From -- ./inp_files/142613.got.cif
#   From: 2010.05.17/outbox.cif.g08.bks.cpg/sg15_72_cif.got.tgz:142613.got - 2010.06.03 18:47:42.
