data_PCOD9274756
_publ_section_title
;
Structure prediction by ZEFSAII (Michael W. Deem and Ramdas Pophale) SiO2 
 PCOD9274756
Probable space group: C 2/C
;
_chemical_formula_sum "Si O2"
_cell_formula_units_Z 56
_cell_length_a 24.990310
_cell_length_b 17.867609
_cell_length_c 10.190744
_cell_angle_alpha 90.000000
_cell_angle_beta 28.241788
_cell_angle_gamma 90.000000
_cell_volume 2153.191521
_symmetry_space_group_name_H-M "C 2/C"
_symmetry_group_IT_number 15
_symmetry_cell_setting 'monoclinic'
loop_
_space_group_symop_operation_xyz
x,y,z
-x,y,1/2-z
-x,-y,-z
x,-y,1/2+z
1/2+x,1/2+y,z
1/2-x,1/2+y,1/2-z
1/2-x,1/2-y,-z
1/2+x,1/2-y,1/2+z
loop_
_atom_site_type_symbol
_atom_site_label
_atom_site_fract_x
_atom_site_fract_y
_atom_site_fract_z
Si Si1 0.333029 0.313465 0.172607
Si Si2 0.422007 0.048440 0.308151
Si Si3 0.422007 0.451560 0.808151
Si Si4 0.500000 0.697012 0.750000
Si Si5 0.375054 0.901520 0.317421
Si Si6 0.166971 0.686535 0.827394
Si Si7 0.000000 0.302988 0.250000
Si Si8 0.124947 0.901520 0.182579
O O1 0.250000 0.273719 0.250000
O O2 0.298302 0.353811 0.382824
O O3 0.372359 0.381865 0.993810
O O4 0.431233 0.254474 0.991586
O O5 0.500000 0.008731 0.250000
O O6 0.372359 0.118135 0.493810
O O7 0.337482 0.985324 0.437262
O O8 0.506937 0.080648 0.015318
O O9 0.500000 0.491270 0.750000
O O10 0.506937 0.419352 0.515318
O O11 0.337482 0.514676 0.937261
O O12 0.568767 0.754473 0.508414
O O13 0.412110 0.647011 0.860421
O O14 0.298302 0.853811 0.382823
O O15 0.412110 0.852989 0.360420
#
# Coordination Sequence:
#
# PCOD9274756 Si02
#       8
#     8   8   8   4   8   8   4   8
#     4  11  24  39  59  90 122 153 193 242 293 348
#     4   9  18  39  63  87 110 153 203 241 285 339
#     4   9  18  39  63  87 110 153 203 241 285 339
#     4  12  22  40  60  88 120 160 188 238 296 354
#     4  10  20  38  65  84 114 158 197 240 289 342
#     4  11  24  39  59  90 122 153 193 242 293 348
#     4  12  22  40  60  88 120 160 188 238 296 354
#     4  10  20  38  65  84 114 158 197 240 289 342
#
# _framework density 26.007905000000001
#
# number of rings (size 3 to 8) (size 9 to 14) (size 15 to 20)
#    0.000    1.714    5.714    0.857    0.000    2.286 
#    0.000    1.429    0.000    0.000    0.000    0.000 
#    0.000    0.000    0.000    0.000    0.000    0.000 
#
# Total GULP energy -156420.237183 kJ/mol
# GULP energy per Si atom -5586.437042 kJ/mol
# Density = 2.594871 g / cm^3
# Si number density = 26.007905 Si / 1000 Ang^3
#
#
#
# Elastic Constant Matrix: (Units=GPa)
#
#
# Indices 1 2 3 4 5 6 
#
# 1 102.5745 30.1201 -4.6993 0.0000 4.9021 0.0000
# 2 30.1201 126.1863 15.4902 0.0000 6.0462 0.0000
# 3 -4.6993 15.4902 27.6664 0.0000 12.4198 0.0000
# 4 0.0000 0.0000 0.0000 15.1504 0.0000 3.1540
# 5 4.9021 6.0462 12.4198 0.0000 31.1068 0.0000
# 6 0.0000 0.0000 0.0000 3.1540 0.0000 40.2396
#
#
#
# Elastic Compliance Matrix: (Units=1/GPa)
#
#
# Indices 1 2 3 4 5 6 
#
# 1 0.011040 -0.003101 0.005022 0.000000 -0.003142 0.000000
# 2 -0.003101 0.009383 -0.006312 0.000000 0.001185 0.000000
# 3 0.005022 -0.006312 0.049145 0.000000 -0.019186 0.000000
# 4 0.000000 0.000000 0.000000 0.067100 0.000000 -0.005259
# 5 -0.003142 0.001185 -0.019186 0.000000 0.040072 0.000000
# 6 0.000000 0.000000 0.000000 -0.005259 0.000000 0.025263
#
#
# Mechanical properties :
#
#
# Convention : Reuss Voigt Hill
#
# Bulk Modulus (GPa) = 16.45138 37.58323 27.01730
# Shear Modulus (GPa) = 21.64053 31.66712 26.65382
#
# Velocity S-wave (km/s) = 2.88770 3.49319 3.20478
# Velocity P-wave (km/s) = 4.17824 5.54544 4.90966
#
# Compressibility (1/GPa) = 0.06078519
#
# Stress axis : x y z
#
# Youngs Moduli (GPa) = 90.58086 106.57463 20.34794
#
# Poissons Ratio (x) = 0.33050 -0.10219
# Poissons Ratio (y) = 0.28090 0.12844
# Poissons Ratio (z) = -0.45490 0.67273
#
# Static dielectric constant tensor:
#      x y z
#    x 2.172580 0.000000 -0.102940 
#    y 0.000000 2.016180 0.000000 
#    z -0.102940 0.000000 2.103730 
# 
# From -- ./inp_files/119204.got.cif
#   From: 2010.05.17/outbox.cif.g08.bks.cpg/sg15_60_cif.got.tgz:119204.got - 2010.06.03 18:47:42.
