data_PCOD9274346
_publ_section_title
;
Structure prediction by ZEFSAII (Michael W. Deem and Ramdas Pophale) SiO2 
 PCOD9274346
Probable space group: C 2/C
;
_chemical_formula_sum "Si O2"
_cell_formula_units_Z 48
_cell_length_a 14.275417
_cell_length_b 14.034830
_cell_length_c 12.777854
_cell_angle_alpha 90.000000
_cell_angle_beta 117.349983
_cell_angle_gamma 90.000000
_cell_volume 2273.907827
_symmetry_space_group_name_H-M "C 2/C"
_symmetry_group_IT_number 15
_symmetry_cell_setting 'monoclinic'
loop_
_space_group_symop_operation_xyz
x,y,z
-x,y,1/2-z
-x,-y,-z
x,-y,1/2+z
1/2+x,1/2+y,z
1/2-x,1/2+y,1/2-z
1/2-x,1/2-y,-z
1/2+x,1/2-y,1/2+z
loop_
_atom_site_type_symbol
_atom_site_label
_atom_site_fract_x
_atom_site_fract_y
_atom_site_fract_z
Si Si1 0.731779 0.205470 0.377235
Si Si2 0.217108 0.581380 0.073069
Si Si3 0.099744 0.093146 0.491235
Si Si4 0.875633 0.923407 0.835596
Si Si5 0.424189 0.063095 0.121468
Si Si6 0.579577 0.768893 0.626324
O O1 0.750000 0.250000 0.500000
O O2 0.832191 0.177750 0.358850
O O3 0.675139 0.104690 0.367707
O O4 0.644660 0.259920 0.263915
O O5 0.296148 0.543407 0.203774
O O6 0.157329 0.669015 0.094451
O O7 0.293968 0.612976 0.018494
O O8 0.126720 0.507670 0.988720
O O9 0.061456 0.173701 0.552901
O O10 0.997504 0.082400 0.365679
O O11 0.121456 0.998111 0.567990
O O12 0.500000 0.019007 0.250000
O O13 0.486061 0.156431 0.107639
#
# Coordination Sequence:
#
# PCOD9274346 Si02
#       6
#     8   8   8   8   8   8
#     4  10  20  38  62  94 122 163 212 262 301 368
#     4  11  22  42  64  89 127 165 210 256 314 376
#     4  11  22  41  61  92 126 167 203 255 322 369
#     4  10  23  39  63  90 125 164 209 256 311 378
#     4  10  21  40  62  91 124 162 214 261 305 367
#     4  10  23  38  61  94 129 161 209 258 312 375
#
# _framework density 21.109036
#
# number of rings (size 3 to 8) (size 9 to 14) (size 15 to 20)
#    0.000    1.667    1.667    2.500    2.333    0.000 
#    0.000    3.333    0.000    0.000    0.000    0.000 
#    0.000    0.000    0.000    0.000    0.000    0.000 
#
# Total GULP energy -133787.828316 kJ/mol
# GULP energy per Si atom -5574.492846 kJ/mol
# Density = 2.106099 g / cm^3
# Si number density = 21.109036 Si / 1000 Ang^3
#
#
#
# Elastic Constant Matrix: (Units=GPa)
#
#
# Indices 1 2 3 4 5 6 
#
# 1 87.1413 19.8410 24.0780 0.0000 11.0686 0.0000
# 2 19.8410 30.9411 42.4668 0.0000 15.3358 0.0000
# 3 24.0780 42.4668 167.5112 0.0000 23.1828 0.0000
# 4 0.0000 0.0000 0.0000 26.4251 0.0000 -5.6611
# 5 11.0686 15.3358 23.1828 0.0000 36.4357 0.0000
# 6 0.0000 0.0000 0.0000 -5.6611 0.0000 18.0811
#
#
#
# Elastic Compliance Matrix: (Units=1/GPa)
#
#
# Indices 1 2 3 4 5 6 
#
# 1 0.013465 -0.008884 0.000401 0.000000 -0.000606 0.000000
# 2 -0.008884 0.063061 -0.012512 0.000000 -0.015883 0.000000
# 3 0.000401 -0.012512 0.009181 0.000000 -0.000697 0.000000
# 4 0.000000 0.000000 0.000000 0.040564 0.000000 0.012700
# 5 -0.000606 -0.015883 -0.000697 0.000000 0.034758 0.000000
# 6 0.000000 0.000000 0.000000 0.012700 0.000000 0.059283
#
#
# Mechanical properties :
#
#
# Convention : Reuss Voigt Hill
#
# Bulk Modulus (GPa) = 22.87474 50.92949 36.90211
# Shear Modulus (GPa) = 18.05882 29.46889 23.76385
#
# Velocity S-wave (km/s) = 2.92807 3.74040 3.35889
# Velocity P-wave (km/s) = 4.72138 6.54472 5.70635
#
# Compressibility (1/GPa) = 0.04371635
#
# Stress axis : x y z
#
# Youngs Moduli (GPa) = 74.26881 15.85761 108.92571
#
# Poissons Ratio (x) = 0.14087 -0.04364
# Poissons Ratio (y) = 0.65978 1.36288
# Poissons Ratio (z) = -0.02975 0.19841
#
# Static dielectric constant tensor:
#      x y z
#    x 1.821170 0.000000 0.047200 
#    y 0.000000 1.739880 0.000000 
#    z 0.047200 0.000000 1.854750 
# 
# From -- ./inp_files/96828.got.cif
#   From: 2010.05.17/outbox.cif.g08.bks.cpg/sg15_49_cif.got.tgz:96828.got - 2010.06.03 18:47:42.
