data_PCOD9274434
_publ_section_title
;
Structure prediction by ZEFSAII (Michael W. Deem and Ramdas Pophale) SiO2 
 PCOD9274434
Probable space group: C 2/C
;
_chemical_formula_sum "Si O2"
_cell_formula_units_Z 48
_cell_length_a 18.641216
_cell_length_b 16.905452
_cell_length_c 13.572012
_cell_angle_alpha 90.000000
_cell_angle_beta 152.569519
_cell_angle_gamma 90.000000
_cell_volume 1970.321549
_symmetry_space_group_name_H-M "C 2/C"
_symmetry_group_IT_number 15
_symmetry_cell_setting 'monoclinic'
loop_
_space_group_symop_operation_xyz
x,y,z
-x,y,1/2-z
-x,-y,-z
x,-y,1/2+z
1/2+x,1/2+y,z
1/2-x,1/2+y,1/2-z
1/2-x,1/2-y,-z
1/2+x,1/2-y,1/2+z
loop_
_atom_site_type_symbol
_atom_site_label
_atom_site_fract_x
_atom_site_fract_y
_atom_site_fract_z
Si Si1 0.552149 0.140124 0.202617
Si Si2 0.085009 0.783220 0.769115
Si Si3 0.275618 0.090609 0.752190
Si Si4 0.195811 0.075948 0.116875
Si Si5 0.022700 0.614938 0.888706
Si Si6 0.031263 0.189224 0.570073
O O1 0.500000 0.155601 0.250000
O O2 0.718184 0.101106 0.379824
O O3 0.425770 0.078516 0.005332
O O4 0.546186 0.223842 0.135633
O O5 0.967278 0.709510 0.612164
O O6 0.092366 0.816776 0.669810
O O7 0.000000 0.834015 0.750000
O O8 0.250000 0.750000 0.000000
O O9 0.362273 0.106482 0.754735
O O10 0.185509 0.159096 0.701758
O O11 0.165719 0.016448 0.597898
O O12 0.333683 0.090495 0.367056
O O13 0.042233 0.128006 0.942879
O O14 0.000000 0.581694 0.750000
#
# Coordination Sequence:
#
# PCOD9274434 Si02
#       6
#     8   8   8   8   8   8
#     4  11  25  45  71  94 125 181 236 274 318 393
#     4  11  21  34  61  95 125 154 199 257 321 380
#     4  11  24  41  65  94 132 171 215 273 331 389
#     4  11  24  41  63  95 130 173 213 272 333 394
#     4  10  20  38  63  89 123 163 208 254 316 388
#     4  12  23  41  65  98 135 164 217 277 331 389
#
# _framework density 24.361505999999999
#
# number of rings (size 3 to 8) (size 9 to 14) (size 15 to 20)
#    0.000    1.000    3.333    6.500    0.000    5.333 
#    0.000    0.000    0.000    6.000    0.000    0.000 
#    0.000    0.000    0.000    0.000    0.000    0.000 
#
# Total GULP energy -133950.004908 kJ/mol
# GULP energy per Si atom -5581.250205 kJ/mol
# Density = 2.430606 g / cm^3
# Si number density = 24.361506 Si / 1000 Ang^3
#
#
#
# Elastic Constant Matrix: (Units=GPa)
#
#
# Indices 1 2 3 4 5 6 
#
# 1 178.6079 15.3942 21.5816 0.0000 2.4679 0.0000
# 2 15.3942 80.2069 -12.5384 0.0000 5.1808 0.0000
# 3 21.5816 -12.5384 49.1927 0.0000 13.3141 0.0000
# 4 0.0000 0.0000 0.0000 14.1674 0.0000 7.7896
# 5 2.4679 5.1808 13.3141 0.0000 29.4637 0.0000
# 6 0.0000 0.0000 0.0000 7.7896 0.0000 20.5265
#
#
#
# Elastic Compliance Matrix: (Units=1/GPa)
#
#
# Indices 1 2 3 4 5 6 
#
# 1 0.006167 -0.001830 -0.003554 0.000000 0.001411 0.000000
# 2 -0.001830 0.014026 0.005701 0.000000 -0.004889 0.000000
# 3 -0.003554 0.005701 0.026810 0.000000 -0.012820 0.000000
# 4 0.000000 0.000000 0.000000 0.089195 0.000000 -0.033849
# 5 0.001411 -0.004889 -0.012820 0.000000 0.040475 0.000000
# 6 0.000000 0.000000 0.000000 -0.033849 0.000000 0.061563
#
#
# Mechanical properties :
#
#
# Convention : Reuss Voigt Hill
#
# Bulk Modulus (GPa) = 20.99198 39.65360 30.32279
# Shear Modulus (GPa) = 19.72542 31.73618 25.73080
#
# Velocity S-wave (km/s) = 2.84860 3.61323 3.25346
# Velocity P-wave (km/s) = 4.41078 5.80687 5.15629
#
# Compressibility (1/GPa) = 0.04763723
#
# Stress axis : x y z
#
# Youngs Moduli (GPa) = 162.16598 71.29559 37.29930
#
# Poissons Ratio (x) = 0.13049 0.13255
# Poissons Ratio (y) = 0.29680 -0.21265
# Poissons Ratio (z) = 0.57630 -0.40648
#
# Static dielectric constant tensor:
#      x y z
#    x 2.101270 0.000000 -0.049320 
#    y 0.000000 1.978160 0.000000 
#    z -0.049320 0.000000 2.003740 
# 
# From -- ./inp_files/163324.got.cif
#   From: 2010.05.17/outbox.cif.g08.bks.cpg/sg15_82_cif.got.tgz:163324.got - 2010.06.03 18:47:42.
