data_PCOD9274903
_publ_section_title
;
Structure prediction by ZEFSAII (Michael W. Deem and Ramdas Pophale) SiO2 
 PCOD9274903
Probable space group: C 2/C
;
_chemical_formula_sum "Si O2"
_cell_formula_units_Z 60
_cell_length_a 14.921548
_cell_length_b 18.991645
_cell_length_c 10.885848
_cell_angle_alpha 90.000000
_cell_angle_beta 64.129423
_cell_angle_gamma 90.000000
_cell_volume 2775.722313
_symmetry_space_group_name_H-M "C 2/C"
_symmetry_group_IT_number 15
_symmetry_cell_setting 'monoclinic'
loop_
_space_group_symop_operation_xyz
x,y,z
-x,y,1/2-z
-x,-y,-z
x,-y,1/2+z
1/2+x,1/2+y,z
1/2-x,1/2+y,1/2-z
1/2-x,1/2-y,-z
1/2+x,1/2-y,1/2+z
loop_
_atom_site_type_symbol
_atom_site_label
_atom_site_fract_x
_atom_site_fract_y
_atom_site_fract_z
Si Si1 0.247359 0.776142 0.137908
Si Si2 0.914506 0.263372 0.449819
Si Si3 0.582063 0.825656 0.804139
Si Si4 0.000000 0.872347 0.250000
Si Si5 0.762299 0.915122 0.779625
Si Si6 0.756853 0.345477 0.442886
Si Si7 0.795496 0.925055 0.264210
Si Si8 0.579970 0.327426 0.933198
O O1 0.140085 0.747624 0.244071
O O2 0.259120 0.859058 0.139052
O O3 0.336190 0.731783 0.142062
O O4 0.250000 0.750000 0.000000
O O5 0.956400 0.312167 0.534951
O O6 0.870934 0.316159 0.372816
O O7 0.813633 0.220791 0.544840
O O8 0.991169 0.198946 0.399033
O O9 0.500000 0.837820 0.750000
O O10 0.667657 0.884953 0.760632
O O11 0.908578 0.916641 0.245729
O O12 0.955053 0.834464 0.402421
O O13 0.863204 0.897604 0.644294
O O14 0.756093 0.997436 0.810174
O O15 0.761789 0.873110 0.908529
O O16 0.723814 0.404791 0.366501
#
# Coordination Sequence:
#
# PCOD9274903 Si02
#       8
#     8   8   8   4   8   8   8   8
#     4  11  21  35  64  99 129 165 226 288 327 386
#     4  10  20  38  66  91 126 171 226 276 336 391
#     4  10  20  40  68  96 126 178 228 281 336 393
#     4  12  24  40  66 100 134 180 222 282 348 398
#     4  10  27  43  65 100 142 183 223 275 348 420
#     4  10  22  43  64  89 135 185 215 275 346 398
#     4  12  25  44  66  98 141 183 221 279 350 413
#     4  11  23  41  64 102 132 170 232 288 334 402
#
# _framework density 21.615995999999999
#
# number of rings (size 3 to 8) (size 9 to 14) (size 15 to 20)
#    0.000    1.333    4.000    0.800    5.600    2.133 
#    0.000    1.333    0.000    4.000    0.000    0.000 
#    0.000    0.000    0.000    0.000    0.000    0.000 
#
# Total GULP energy -167210.490999 kJ/mol
# GULP energy per Si atom -5573.683033 kJ/mol
# Density = 2.156680 g / cm^3
# Si number density = 21.615996 Si / 1000 Ang^3
#
#
#
# Elastic Constant Matrix: (Units=GPa)
#
#
# Indices 1 2 3 4 5 6 
#
# 1 155.0827 33.8565 35.0573 0.0000 27.1460 0.0000
# 2 33.8565 133.6277 24.4519 0.0000 4.9944 0.0000
# 3 35.0573 24.4519 83.4086 0.0000 20.5421 0.0000
# 4 0.0000 0.0000 0.0000 22.4995 0.0000 0.5873
# 5 27.1460 4.9944 20.5421 0.0000 31.8197 0.0000
# 6 0.0000 0.0000 0.0000 0.5873 0.0000 23.9065
#
#
#
# Elastic Compliance Matrix: (Units=1/GPa)
#
#
# Indices 1 2 3 4 5 6 
#
# 1 0.008138 -0.001564 -0.001561 0.000000 -0.005690 0.000000
# 2 -0.001564 0.008211 -0.002094 0.000000 0.001397 0.000000
# 3 -0.001561 -0.002094 0.015280 0.000000 -0.008204 0.000000
# 4 0.000000 0.000000 0.000000 0.044474 0.000000 -0.001093
# 5 -0.005690 0.001397 -0.008204 0.000000 0.041358 0.000000
# 6 0.000000 0.000000 0.000000 -0.001093 0.000000 0.041856
#
#
# Mechanical properties :
#
#
# Convention : Reuss Voigt Hill
#
# Bulk Modulus (GPa) = 47.18842 62.09450 54.64146
# Shear Modulus (GPa) = 28.27773 34.22871 31.25322
#
# Velocity S-wave (km/s) = 3.62081 3.98363 3.80654
# Velocity P-wave (km/s) = 6.27360 7.06736 6.68228
#
# Compressibility (1/GPa) = 0.02119164
#
# Stress axis : x y z
#
# Youngs Moduli (GPa) = 122.87483 121.79398 65.44717
#
# Poissons Ratio (x) = 0.19045 0.10216
# Poissons Ratio (y) = 0.19214 0.13703
# Poissons Ratio (z) = 0.19179 0.25501
#
# Static dielectric constant tensor:
#      x y z
#    x 1.853980 0.000000 -0.006530 
#    y 0.000000 1.771260 0.000000 
#    z -0.006530 0.000000 1.901010 
# 
# From -- ./inp_files/99763.got.cif
#   From: 2010.05.17/outbox.cif.g08.bks.cpg/sg15_50_cif.got.tgz:99763.got - 2010.06.03 18:47:42.
