data_PCOD9274794
_publ_section_title
;
Structure prediction by ZEFSAII (Michael W. Deem and Ramdas Pophale) SiO2 
 PCOD9274794
Probable space group: C 2/C
;
_chemical_formula_sum "Si O2"
_cell_formula_units_Z 48
_cell_length_a 26.407916
_cell_length_b 6.888273
_cell_length_c 13.823257
_cell_angle_alpha 90.000000
_cell_angle_beta 125.592997
_cell_angle_gamma 90.000000
_cell_volume 2044.735932
_symmetry_space_group_name_H-M "C 2/C"
_symmetry_group_IT_number 15
_symmetry_cell_setting 'monoclinic'
loop_
_space_group_symop_operation_xyz
x,y,z
-x,y,1/2-z
-x,-y,-z
x,-y,1/2+z
1/2+x,1/2+y,z
1/2-x,1/2+y,1/2-z
1/2-x,1/2-y,-z
1/2+x,1/2-y,1/2+z
loop_
_atom_site_type_symbol
_atom_site_label
_atom_site_fract_x
_atom_site_fract_y
_atom_site_fract_z
Si Si1 0.854689 0.164580 0.125134
Si Si2 0.049435 0.658469 0.879721
Si Si3 0.024831 0.988904 0.137473
Si Si4 0.326347 0.505463 0.892379
Si Si5 0.410167 0.169539 0.373889
Si Si6 0.310679 0.151447 0.750404
O O1 0.883197 0.342560 0.094473
O O2 0.802581 0.222868 0.143584
O O3 0.912621 0.098063 0.257597
O O4 0.836051 0.019258 0.018801
O O5 0.000000 0.574919 0.750000
O O6 0.051519 0.586834 0.991487
O O7 0.029237 0.889509 0.869072
O O8 0.047356 0.765760 0.161804
O O9 0.000000 0.000000 0.000000
O O10 0.368811 0.658074 0.879139
O O11 0.336503 0.292018 0.862194
O O12 0.254605 0.559982 0.792842
O O13 0.362052 0.010312 0.285198
#
# Coordination Sequence:
#
# PCOD9274794 Si02
#       6
#     8   8   8   8   8   8
#     4  10  21  39  67  92 129 172 213 265 323 391
#     4   8  17  36  64  88 127 170 207 262 326 374
#     4   9  17  37  66  90 123 171 206 261 331 372
#     4  11  23  42  63  93 134 172 212 271 327 382
#     4  10  20  38  65  91 129 170 212 267 320 385
#     4  12  23  42  65  96 129 172 219 265 330 383
#
# _framework density 23.474912
#
# number of rings (size 3 to 8) (size 9 to 14) (size 15 to 20)
#    0.000    2.000    3.333    0.500    0.000    0.000 
#    6.000    9.167    0.000    0.000    0.000    0.000 
#    0.000    0.000    0.000    0.000    0.000    0.000 
#
# Total GULP energy -133732.542346 kJ/mol
# GULP energy per Si atom -5572.189264 kJ/mol
# Density = 2.342148 g / cm^3
# Si number density = 23.474912 Si / 1000 Ang^3
#
#
#
# Elastic Constant Matrix: (Units=GPa)
#
#
# Indices 1 2 3 4 5 6 
#
# 1 64.7462 33.0624 2.4946 0.0000 -13.3464 0.0000
# 2 33.0624 63.8891 16.7988 0.0000 7.5893 0.0000
# 3 2.4946 16.7988 74.7212 0.0000 -0.6316 0.0000
# 4 0.0000 0.0000 0.0000 21.2345 0.0000 3.0122
# 5 -13.3464 7.5893 -0.6316 0.0000 29.1946 0.0000
# 6 0.0000 0.0000 0.0000 3.0122 0.0000 39.9212
#
#
#
# Elastic Compliance Matrix: (Units=1/GPa)
#
#
# Indices 1 2 3 4 5 6 
#
# 1 0.027608 -0.017132 0.003075 0.000000 0.017141 0.000000
# 2 -0.017132 0.027853 -0.005818 0.000000 -0.015198 0.000000
# 3 0.003075 -0.005818 0.014616 0.000000 0.003234 0.000000
# 4 0.000000 0.000000 0.000000 0.047603 0.000000 -0.003592
# 5 0.017141 -0.015198 0.003234 0.000000 0.046110 0.000000
# 6 0.000000 0.000000 0.000000 -0.003592 0.000000 0.025320
#
#
# Mechanical properties :
#
#
# Convention : Reuss Voigt Hill
#
# Bulk Modulus (GPa) = 32.97490 34.22980 33.60235
# Shear Modulus (GPa) = 20.92322 28.13678 24.53000
#
# Velocity S-wave (km/s) = 2.98871 3.46582 3.23607
# Velocity P-wave (km/s) = 5.09776 5.53435 5.32053
#
# Compressibility (1/GPa) = 0.03032610
#
# Stress axis : x y z
#
# Youngs Moduli (GPa) = 36.22137 35.90290 68.41886
#
# Poissons Ratio (x) = 0.61508 -0.21037
# Poissons Ratio (y) = 0.62053 0.39809
# Poissons Ratio (z) = -0.11137 0.20890
#
# Static dielectric constant tensor:
#      x y z
#    x 1.912610 0.000000 -0.000610 
#    y 0.000000 1.921180 0.000000 
#    z -0.000610 0.000000 1.908320 
# 
# From -- ./inp_files/180209.got.cif
#   From: 2010.05.17/outbox.cif.g08.bks.cpg/sg15_91_cif.got.tgz:180209.got - 2010.06.03 18:47:42.
