data_PCOD9274701
_publ_section_title
;
Structure prediction by ZEFSAII (Michael W. Deem and Ramdas Pophale) SiO2 
 PCOD9274701
Probable space group: C 2/C
;
_chemical_formula_sum "Si O2"
_cell_formula_units_Z 44
_cell_length_a 9.449725
_cell_length_b 21.538033
_cell_length_c 9.497521
_cell_angle_alpha 90.000000
_cell_angle_beta 101.095772
_cell_angle_gamma 90.000000
_cell_volume 1896.881972
_symmetry_space_group_name_H-M "C 2/C"
_symmetry_group_IT_number 15
_symmetry_cell_setting 'monoclinic'
loop_
_space_group_symop_operation_xyz
x,y,z
-x,y,1/2-z
-x,-y,-z
x,-y,1/2+z
1/2+x,1/2+y,z
1/2-x,1/2+y,1/2-z
1/2-x,1/2-y,-z
1/2+x,1/2-y,1/2+z
loop_
_atom_site_type_symbol
_atom_site_label
_atom_site_fract_x
_atom_site_fract_y
_atom_site_fract_z
Si Si1 0.215123 0.864445 0.809893
Si Si2 0.576684 0.565453 0.555020
Si Si3 0.004567 0.649584 0.979494
Si Si4 0.224704 0.088297 0.006334
Si Si5 0.370405 0.973958 0.138019
Si Si6 0.500000 0.745661 0.250000
O O1 0.139845 0.897686 0.930964
O O2 0.202758 0.907406 0.671468
O O3 0.133922 0.800655 0.762894
O O4 0.381011 0.849973 0.873367
O O5 0.500000 0.500000 0.500000
O O6 0.434242 0.598886 0.585920
O O7 0.719212 0.551218 0.675029
O O8 0.053513 0.587339 0.906506
O O9 0.022032 0.709436 0.886359
O O10 0.839280 0.639943 0.986879
O O11 0.308024 0.021922 0.009878
O O12 0.500000 0.005595 0.250000
#
# Coordination Sequence:
#
# PCOD9274701 Si02
#       6
#     8   8   8   8   8   4
#     4  11  22  43  66  91 128 177 218 268 329 389
#     4   9  20  38  64  95 129 162 215 270 329 383
#     4  11  24  40  64  95 129 170 227 266 326 390
#     4  11  21  40  67  98 127 171 220 275 327 391
#     4  10  20  38  64  94 134 168 207 269 336 387
#     4  12  24  44  66  88 138 180 222 264 324 394
#
# _framework density 23.195961
#
# number of rings (size 3 to 8) (size 9 to 14) (size 15 to 20)
#    0.000    1.455    2.727    2.727    0.000    3.636 
#    0.000    2.727    0.000    0.000    0.000    0.000 
#    0.000    0.000    0.000    0.000    0.000    0.000 
#
# Total GULP energy -122844.714069 kJ/mol
# GULP energy per Si atom -5583.850639 kJ/mol
# Density = 2.314317 g / cm^3
# Si number density = 23.195961 Si / 1000 Ang^3
#
#
#
# Elastic Constant Matrix: (Units=GPa)
#
#
# Indices 1 2 3 4 5 6 
#
# 1 203.5084 18.8851 40.4299 0.0000 37.5640 0.0000
# 2 18.8851 98.9617 18.8779 0.0000 -5.8987 0.0000
# 3 40.4299 18.8779 65.3080 0.0000 23.0666 0.0000
# 4 0.0000 0.0000 0.0000 19.3257 0.0000 6.4628
# 5 37.5640 -5.8987 23.0666 0.0000 42.7529 0.0000
# 6 0.0000 0.0000 0.0000 6.4628 0.0000 29.5652
#
#
#
# Elastic Compliance Matrix: (Units=1/GPa)
#
#
# Indices 1 2 3 4 5 6 
#
# 1 0.006248 -0.001100 -0.001924 0.000000 -0.004603 0.000000
# 2 -0.001100 0.011437 -0.004353 0.000000 0.004893 0.000000
# 3 -0.001924 -0.004353 0.021467 0.000000 -0.010492 0.000000
# 4 0.000000 0.000000 0.000000 0.055825 0.000000 -0.012203
# 5 -0.004603 0.004893 -0.010492 0.000000 0.033771 0.000000
# 6 0.000000 0.000000 0.000000 -0.012203 0.000000 0.036491
#
#
# Mechanical properties :
#
#
# Convention : Reuss Voigt Hill
#
# Bulk Modulus (GPa) = 40.98708 58.24044 49.61376
# Shear Modulus (GPa) = 26.57792 37.63443 32.10618
#
# Velocity S-wave (km/s) = 3.38864 4.03234 3.72442
# Velocity P-wave (km/s) = 5.74620 6.84414 6.31906
#
# Compressibility (1/GPa) = 0.02439793
#
# Stress axis : x y z
#
# Youngs Moduli (GPa) = 160.05795 87.43669 46.58205
#
# Poissons Ratio (x) = 0.09615 0.08963
# Poissons Ratio (y) = 0.17600 0.20279
# Poissons Ratio (z) = 0.30797 0.38064
#
# Static dielectric constant tensor:
#      x y z
#    x 1.989090 0.000000 0.008960 
#    y 0.000000 1.852990 0.000000 
#    z 0.008960 0.000000 2.009620 
# 
# From -- ./inp_files/78219.got.cif
#   From: 2010.05.17/outbox.cif.g08.bks.cpg/sg15_40_cif.got.tgz:78219.got - 2010.06.03 18:47:42.
