data_PCOD9274581
_publ_section_title
;
Structure prediction by ZEFSAII (Michael W. Deem and Ramdas Pophale) SiO2 
 PCOD9274581
Probable space group: C 2/C
;
_chemical_formula_sum "Si O2"
_cell_formula_units_Z 36
_cell_length_a 10.209604
_cell_length_b 18.047471
_cell_length_c 10.046858
_cell_angle_alpha 90.000000
_cell_angle_beta 124.410998
_cell_angle_gamma 90.000000
_cell_volume 1527.256964
_symmetry_space_group_name_H-M "C 2/C"
_symmetry_group_IT_number 15
_symmetry_cell_setting 'monoclinic'
loop_
_space_group_symop_operation_xyz
x,y,z
-x,y,1/2-z
-x,-y,-z
x,-y,1/2+z
1/2+x,1/2+y,z
1/2-x,1/2+y,1/2-z
1/2-x,1/2-y,-z
1/2+x,1/2-y,1/2+z
loop_
_atom_site_type_symbol
_atom_site_label
_atom_site_fract_x
_atom_site_fract_y
_atom_site_fract_z
Si Si1 0.849230 0.813120 0.767302
Si Si2 0.008901 0.683322 0.508029
Si Si3 0.393669 0.522755 0.315319
Si Si4 0.864613 0.543397 0.005297
Si Si5 0.000000 0.572005 0.750000
O O1 0.676205 0.795305 0.608101
O O2 0.000000 0.806066 0.750000
O O3 0.891276 0.756594 0.908801
O O4 0.821508 0.896703 0.803766
O O5 0.078878 0.626811 0.437745
O O6 0.027538 0.629472 0.646949
O O7 0.500000 0.542910 0.250000
O O8 0.500000 0.500000 0.500000
O O9 0.283039 0.462247 0.179439
O O10 0.859039 0.486294 0.127717
O O11 0.000000 0.500000 0.000000
#
# Coordination Sequence:
#
# PCOD9274581 Si02
#       5
#     8   8   8   8   4
#     4  11  23  38  60  98 130 169 218 280 342 384
#     4  11  23  37  63  93 128 170 216 279 340 393
#     4  11  26  42  68 101 135 174 227 282 333 395
#     4  10  22  39  62  92 126 178 215 268 331 402
#     4  10  20  38  64  86 128 162 230 256 332 396
#
# _framework density 23.571673000000001
#
# number of rings (size 3 to 8) (size 9 to 14) (size 15 to 20)
#    0.000    1.333    5.556    0.667    9.333    0.000 
#    0.000    0.000    2.444    2.667    0.000    0.000 
#    0.000    0.000    0.000    0.000    0.000    0.000 
#
# Total GULP energy -100300.815596 kJ/mol
# GULP energy per Si atom -5572.267533 kJ/mol
# Density = 2.351802 g / cm^3
# Si number density = 23.571673 Si / 1000 Ang^3
#
#
#
# Elastic Constant Matrix: (Units=GPa)
#
#
# Indices 1 2 3 4 5 6 
#
# 1 32.1008 18.7657 25.4388 0.0000 18.5597 0.0000
# 2 18.7657 91.5655 36.0683 0.0000 23.5245 0.0000
# 3 25.4388 36.0683 164.3668 0.0000 20.0024 0.0000
# 4 0.0000 0.0000 0.0000 9.5315 0.0000 9.5475
# 5 18.5597 23.5245 20.0024 0.0000 39.5356 0.0000
# 6 0.0000 0.0000 0.0000 9.5475 0.0000 27.0409
#
#
#
# Elastic Compliance Matrix: (Units=1/GPa)
#
#
# Indices 1 2 3 4 5 6 
#
# 1 0.046837 -0.003306 -0.004355 0.000000 -0.017817 0.000000
# 2 -0.003306 0.013787 -0.001816 0.000000 -0.005733 0.000000
# 3 -0.004355 -0.001816 0.007221 0.000000 -0.000528 0.000000
# 4 0.000000 0.000000 0.000000 0.162325 0.000000 -0.057313
# 5 -0.017817 -0.005733 -0.000528 0.000000 0.037336 0.000000
# 6 0.000000 0.000000 0.000000 -0.057313 0.000000 0.057217
#
#
# Mechanical properties :
#
#
# Convention : Reuss Voigt Hill
#
# Bulk Modulus (GPa) = 20.45405 49.84208 35.14807
# Shear Modulus (GPa) = 13.88991 29.07227 21.48109
#
# Velocity S-wave (km/s) = 2.43011 3.51573 3.02207
# Velocity P-wave (km/s) = 4.07064 6.13769 5.20775
#
# Compressibility (1/GPa) = 0.04889007
#
# Stress axis : x y z
#
# Youngs Moduli (GPa) = 21.35064 72.53284 138.48900
#
# Poissons Ratio (x) = 0.23979 0.60315
# Poissons Ratio (y) = 0.07058 0.25151
# Poissons Ratio (z) = 0.09299 0.13172
#
# Static dielectric constant tensor:
#      x y z
#    x 2.114880 0.000000 -0.078630 
#    y 0.000000 1.912240 0.000000 
#    z -0.078630 0.000000 2.026350 
# 
# From -- ./inp_files/97984.got.cif
#   From: 2010.05.17/outbox.cif.g08.bks.cpg/sg15_49_cif.got.tgz:97984.got - 2010.06.03 18:47:42.
