data_PCOD9274276
_publ_section_title
;
Structure prediction by ZEFSAII (Michael W. Deem and Ramdas Pophale) SiO2 
 PCOD9274276
Probable space group: C 2/C
;
_chemical_formula_sum "Si O2"
_cell_formula_units_Z 52
_cell_length_a 7.717764
_cell_length_b 27.869172
_cell_length_c 11.910217
_cell_angle_alpha 90.000000
_cell_angle_beta 103.616762
_cell_angle_gamma 90.000000
_cell_volume 2489.736101
_symmetry_space_group_name_H-M "C 2/C"
_symmetry_group_IT_number 15
_symmetry_cell_setting 'monoclinic'
loop_
_space_group_symop_operation_xyz
x,y,z
-x,y,1/2-z
-x,-y,-z
x,-y,1/2+z
1/2+x,1/2+y,z
1/2-x,1/2+y,1/2-z
1/2-x,1/2-y,-z
1/2+x,1/2-y,1/2+z
loop_
_atom_site_type_symbol
_atom_site_label
_atom_site_fract_x
_atom_site_fract_y
_atom_site_fract_z
Si Si1 0.254659 0.674322 0.328104
Si Si2 0.927472 0.286514 0.907000
Si Si3 0.419966 0.574646 0.946062
Si Si4 0.212728 0.067625 0.183105
Si Si5 0.500000 0.511426 0.750000
Si Si6 0.425207 0.991100 0.113373
Si Si7 0.112887 0.182239 0.513738
O O1 0.195041 0.709264 0.221543
O O2 0.238052 0.620755 0.274349
O O3 0.457627 0.678730 0.396471
O O4 0.112244 0.685693 0.406332
O O5 0.947252 0.230009 0.930630
O O6 0.807522 0.308501 0.989124
O O7 0.514784 0.545868 0.859307
O O8 0.237027 0.545926 0.930746
O O9 0.391596 0.631378 0.922845
O O10 0.540838 0.570460 0.075324
O O11 0.366163 0.045241 0.132853
O O12 0.164488 0.025649 0.263183
O O13 0.500000 0.974702 0.250000
O O14 0.500000 0.000000 0.000000
#
# Coordination Sequence:
#
# PCOD9274276 Si02
#       7
#     8   8   8   8   4   8   8
#     4  10  22  39  65  92 124 169 215 268 332 398
#     4  10  22  39  64  96 127 157 223 274 326 402
#     4  10  24  42  65  88 129 178 220 267 332 417
#     4  10  24  39  65  91 124 178 220 274 325 407
#     4  10  20  38  62  90 118 162 224 258 322 390
#     4  11  26  40  64  97 138 172 222 282 341 394
#     4  10  22  42  64  93 126 173 209 273 336 398
#
# _framework density 20.885748
#
# number of rings (size 3 to 8) (size 9 to 14) (size 15 to 20)
#    0.000    1.846    0.000    2.769   17.231    1.231 
#    0.000    3.077    0.000    0.000    0.000    0.000 
#    0.000    0.000    0.000    0.000    0.000    0.000 
#
# Total GULP energy -144816.649381 kJ/mol
# GULP energy per Si atom -5569.871130 kJ/mol
# Density = 2.083821 g / cm^3
# Si number density = 20.885748 Si / 1000 Ang^3
#
#
#
# Elastic Constant Matrix: (Units=GPa)
#
#
# Indices 1 2 3 4 5 6 
#
# 1 50.1814 11.4255 22.4069 0.0000 -10.2354 0.0000
# 2 11.4255 148.7596 33.6712 0.0000 -9.9005 0.0000
# 3 22.4069 33.6712 73.8099 0.0000 -7.0406 0.0000
# 4 0.0000 0.0000 0.0000 27.9900 0.0000 11.8674
# 5 -10.2354 -9.9005 -7.0406 0.0000 38.5158 0.0000
# 6 0.0000 0.0000 0.0000 11.8674 0.0000 5.5356
#
#
#
# Elastic Compliance Matrix: (Units=1/GPa)
#
#
# Indices 1 2 3 4 5 6 
#
# 1 0.024012 0.000041 -0.006817 0.000000 0.005145 0.000000
# 2 0.000041 0.007563 -0.003335 0.000000 0.001346 0.000000
# 3 -0.006817 -0.003335 0.017184 0.000000 0.000472 0.000000
# 4 0.000000 0.000000 0.000000 0.392470 0.000000 -0.841397
# 5 0.005145 0.001346 0.000472 0.000000 0.027763 0.000000
# 6 0.000000 0.000000 0.000000 -0.841397 0.000000 1.984481
#
#
# Mechanical properties :
#
#
# Convention : Reuss Voigt Hill
#
# Bulk Modulus (GPa) = 35.04083 45.30646 40.17364
# Shear Modulus (GPa) = 2.01352 28.09141 15.05247
#
# Velocity S-wave (km/s) = 0.98293 3.67141 2.68751
# Velocity P-wave (km/s) = 4.25465 6.30174 5.37652
#
# Compressibility (1/GPa) = 0.02853814
#
# Stress axis : x y z
#
# Youngs Moduli (GPa) = 41.64597 132.21579 58.19305
#
# Poissons Ratio (x) = -0.00546 0.39673
# Poissons Ratio (y) = -0.00172 0.19405
# Poissons Ratio (z) = 0.28392 0.44088
#
# Static dielectric constant tensor:
#      x y z
#    x 1.859750 0.000000 -0.004760 
#    y 0.000000 1.729910 0.000000 
#    z -0.004760 0.000000 1.825750 
# 
# From -- ./inp_files/80791.got.cif
#   From: 2010.05.17/outbox.cif.g08.bks.cpg/sg15_41_cif.got.tgz:80791.got - 2010.06.03 18:47:42.
