data_PCOD9274695
_publ_section_title
;
Structure prediction by ZEFSAII (Michael W. Deem and Ramdas Pophale) SiO2 
 PCOD9274695
Probable space group: C 2/C
;
_chemical_formula_sum "Si O2"
_cell_formula_units_Z 56
_cell_length_a 10.754931
_cell_length_b 12.379450
_cell_length_c 19.905912
_cell_angle_alpha 90.000000
_cell_angle_beta 67.400338
_cell_angle_gamma 90.000000
_cell_volume 2446.767634
_symmetry_space_group_name_H-M "C 2/C"
_symmetry_group_IT_number 15
_symmetry_cell_setting 'monoclinic'
loop_
_space_group_symop_operation_xyz
x,y,z
-x,y,1/2-z
-x,-y,-z
x,-y,1/2+z
1/2+x,1/2+y,z
1/2-x,1/2+y,1/2-z
1/2-x,1/2-y,-z
1/2+x,1/2-y,1/2+z
loop_
_atom_site_type_symbol
_atom_site_label
_atom_site_fract_x
_atom_site_fract_y
_atom_site_fract_z
Si Si1 0.064703 0.234913 0.622395
Si Si2 0.130527 0.015351 0.676687
Si Si3 0.794311 0.871872 0.603550
Si Si4 0.125224 0.105759 0.930137
Si Si5 0.919310 0.826864 0.918171
Si Si6 0.138642 0.682883 0.696128
Si Si7 0.802184 0.633648 0.228105
O O1 0.124879 0.142225 0.659533
O O2 0.186353 0.314268 0.579127
O O3 0.002667 0.166730 0.574227
O O4 0.941607 0.307578 0.678126
O O5 0.000000 0.996000 0.750000
O O6 0.105969 0.939904 0.616529
O O7 0.260005 0.969212 0.690467
O O8 0.711393 0.889477 0.690436
O O9 0.925291 0.805118 0.596541
O O10 0.863842 0.978761 0.559620
O O11 0.230522 0.113990 0.846211
O O12 0.153193 0.162493 0.995315
O O13 0.881995 0.737758 0.871867
O O14 0.184880 0.779202 0.735080
O O15 0.000000 0.631910 0.750000
#
# Coordination Sequence:
#
# PCOD9274695 Si02
#       7
#     8   8   8   8   8   8   8
#     4  11  25  40  64  98 131 168 218 265 319 378
#     4  11  19  40  67  90 125 173 215 266 325 372
#     4  12  22  39  63  91 129 168 213 260 318 385
#     4  11  25  42  63  94 136 165 207 270 320 377
#     4  11  21  41  66  91 125 173 215 257 322 389
#     4  10  20  41  69  93 121 169 214 260 323 379
#     4  10  20  38  64  94 128 161 214 274 310 373
#
# _framework density 22.887339999999998
#
# number of rings (size 3 to 8) (size 9 to 14) (size 15 to 20)
#    0.000    1.143    4.286    3.000    0.000    2.857 
#    2.571    0.000    0.000    3.429    0.000    0.000 
#    0.000    0.000    0.000    0.000    0.000    0.000 
#
# Total GULP energy -156280.614746 kJ/mol
# GULP energy per Si atom -5581.450527 kJ/mol
# Density = 2.283525 g / cm^3
# Si number density = 22.887340 Si / 1000 Ang^3
#
#
#
# Elastic Constant Matrix: (Units=GPa)
#
#
# Indices 1 2 3 4 5 6 
#
# 1 103.9958 48.3202 24.5670 0.0000 -3.9240 0.0000
# 2 48.3202 79.3084 24.8429 0.0000 0.9458 0.0000
# 3 24.5670 24.8429 108.5896 0.0000 0.8322 0.0000
# 4 0.0000 0.0000 0.0000 26.4483 0.0000 -4.5797
# 5 -3.9240 0.9458 0.8322 0.0000 25.7087 0.0000
# 6 0.0000 0.0000 0.0000 -4.5797 0.0000 26.5116
#
#
#
# Elastic Compliance Matrix: (Units=1/GPa)
#
#
# Indices 1 2 3 4 5 6 
#
# 1 0.013724 -0.007984 -0.001297 0.000000 0.002430 0.000000
# 2 -0.007984 0.018231 -0.002351 0.000000 -0.001813 0.000000
# 3 -0.001297 -0.002351 0.010044 0.000000 -0.000437 0.000000
# 4 0.000000 0.000000 0.000000 0.038975 0.000000 0.006733
# 5 0.002430 -0.001813 -0.000437 0.000000 0.039349 0.000000
# 6 0.000000 0.000000 0.000000 0.006733 0.000000 0.038882
#
#
# Mechanical properties :
#
#
# Convention : Reuss Voigt Hill
#
# Bulk Modulus (GPa) = 53.37556 54.15045 53.76300
# Shear Modulus (GPa) = 26.49513 28.67796 27.58655
#
# Velocity S-wave (km/s) = 3.40609 3.54362 3.47554
# Velocity P-wave (km/s) = 6.23219 6.36034 6.29659
#
# Compressibility (1/GPa) = 0.01873517
#
# Stress axis : x y z
#
# Youngs Moduli (GPa) = 72.86755 54.85022 99.56667
#
# Poissons Ratio (x) = 0.43793 0.12912
# Poissons Ratio (y) = 0.58178 0.23406
# Poissons Ratio (z) = 0.09449 0.12894
#
# Static dielectric constant tensor:
#      x y z
#    x 1.881640 0.000000 -0.010200 
#    y 0.000000 1.931890 0.000000 
#    z -0.010200 0.000000 1.847220 
# 
# From -- ./inp_files/237526.got.cif
#   From: 2010.05.17/outbox.cif.g08.bks.cpg/sg15_119_cif.got.tgz:237526.got - 2010.06.03 18:47:42.
