data_PCOD9274034
_publ_section_title
;
Structure prediction by ZEFSAII (Michael W. Deem and Ramdas Pophale) SiO2 
 PCOD9274034
Probable space group: C 2/C
;
_chemical_formula_sum "Si O2"
_cell_formula_units_Z 64
_cell_length_a 15.915463
_cell_length_b 11.546290
_cell_length_c 17.958367
_cell_angle_alpha 90.000000
_cell_angle_beta 123.676543
_cell_angle_gamma 90.000000
_cell_volume 2746.290565
_symmetry_space_group_name_H-M "C 2/C"
_symmetry_group_IT_number 15
_symmetry_cell_setting 'monoclinic'
loop_
_space_group_symop_operation_xyz
x,y,z
-x,y,1/2-z
-x,-y,-z
x,-y,1/2+z
1/2+x,1/2+y,z
1/2-x,1/2+y,1/2-z
1/2-x,1/2-y,-z
1/2+x,1/2-y,1/2+z
loop_
_atom_site_type_symbol
_atom_site_label
_atom_site_fract_x
_atom_site_fract_y
_atom_site_fract_z
Si Si1 0.974126 0.821084 0.370123
Si Si2 0.059188 0.550421 0.850727
Si Si3 0.065784 0.938412 0.851073
Si Si4 0.886289 0.408704 0.833489
Si Si5 0.727488 0.914992 0.853609
Si Si6 0.677149 0.785086 0.032139
Si Si7 0.095127 0.077197 0.524867
Si Si8 0.694230 0.058891 0.047160
O O1 0.923942 0.708078 0.309155
O O2 0.892519 0.854149 0.393027
O O3 0.018271 0.931908 0.346873
O O4 0.068513 0.766951 0.461015
O O5 0.123407 0.445058 0.844750
O O6 0.000000 0.604869 0.750000
O O7 0.973905 0.501940 0.863947
O O8 0.142029 0.608928 0.946129
O O9 0.184328 0.935330 0.889505
O O10 0.000000 0.893810 0.750000
O O11 0.064353 0.872224 0.929894
O O12 0.789590 0.451219 0.739641
O O13 0.857992 0.391420 0.904823
O O14 0.771366 0.786120 0.876473
O O15 0.809221 0.993912 0.936202
O O16 0.672466 0.921185 0.038165
O O17 0.750000 0.750000 0.000000
O O18 0.000000 0.000000 0.500000
#
# Coordination Sequence:
#
# PCOD9274034 Si02
#       8
#     8   8   8   8   8   8   8   8
#     4  11  22  39  61  88 123 165 206 255 308 371
#     4  10  20  38  61  84 119 162 202 248 309 367
#     4  11  24  38  66  94 123 159 212 265 309 363
#     4  11  26  36  60  96 132 161 203 258 314 380
#     4  11  21  39  61  90 125 165 206 257 314 370
#     4  12  19  35  62  90 120 160 204 258 315 367
#     4  10  20  40  62  86 122 166 210 256 309 367
#     4  12  23  40  61  94 130 162 202 256 327 368
#
# _framework density 23.304162000000002
#
# number of rings (size 3 to 8) (size 9 to 14) (size 15 to 20)
#    0.000    1.000    7.500    0.375    5.250    0.500 
#    0.000    0.625    0.000    0.750    0.000    0.000 
#    0.000    0.000    0.000    0.000    0.000    0.000 
#
# Total GULP energy -178385.724718 kJ/mol
# GULP energy per Si atom -5574.553897 kJ/mol
# Density = 2.325112 g / cm^3
# Si number density = 23.304162 Si / 1000 Ang^3
#
#
#
# Elastic Constant Matrix: (Units=GPa)
#
#
# Indices 1 2 3 4 5 6 
#
# 1 93.1896 10.0649 38.3551 0.0000 -5.3631 0.0000
# 2 10.0649 54.6597 -5.4488 0.0000 8.6379 0.0000
# 3 38.3551 -5.4488 160.4720 0.0000 14.4031 0.0000
# 4 0.0000 0.0000 0.0000 9.4513 0.0000 -7.2423
# 5 -5.3631 8.6379 14.4031 0.0000 32.2174 0.0000
# 6 0.0000 0.0000 0.0000 -7.2423 0.0000 21.4895
#
#
#
# Elastic Compliance Matrix: (Units=1/GPa)
#
#
# Indices 1 2 3 4 5 6 
#
# 1 0.012862 -0.003469 -0.003613 0.000000 0.004686 0.000000
# 2 -0.003469 0.020248 0.002142 0.000000 -0.006964 0.000000
# 3 -0.003613 0.002142 0.007577 0.000000 -0.004563 0.000000
# 4 0.000000 0.000000 0.000000 0.142643 0.000000 0.048073
# 5 0.004686 -0.006964 -0.004563 0.000000 0.035726 0.000000
# 6 0.000000 0.000000 0.000000 0.048073 0.000000 0.062736
#
#
# Mechanical properties :
#
#
# Convention : Reuss Voigt Hill
#
# Bulk Modulus (GPa) = 32.45998 43.80707 38.13352
# Shear Modulus (GPa) = 16.55953 30.32166 23.44059
#
# Velocity S-wave (km/s) = 2.66857 3.61103 3.17496
# Velocity P-wave (km/s) = 4.84294 6.01870 5.46255
#
# Compressibility (1/GPa) = 0.03080717
#
# Stress axis : x y z
#
# Youngs Moduli (GPa) = 77.74793 49.38811 131.97200
#
# Poissons Ratio (x) = 0.17133 0.47677
# Poissons Ratio (y) = 0.26972 -0.28264
# Poissons Ratio (z) = 0.28087 -0.10577
#
# Static dielectric constant tensor:
#      x y z
#    x 1.892310 0.000000 -0.039020 
#    y 0.000000 1.970940 0.000000 
#    z -0.039020 0.000000 2.013270 
# 
# From -- ./inp_files/205468.got.cif
#   From: 2010.05.17/outbox.cif.g08.bks.cpg/sg15_103_cif.got.tgz:205468.got - 2010.06.03 18:47:42.
