data_PCOD9274073
_publ_section_title
;
Structure prediction by ZEFSAII (Michael W. Deem and Ramdas Pophale) SiO2 
 PCOD9274073
Probable space group: C 2/C
;
_chemical_formula_sum "Si O2"
_cell_formula_units_Z 48
_cell_length_a 25.006026
_cell_length_b 12.820766
_cell_length_c 8.784159
_cell_angle_alpha 90.000000
_cell_angle_beta 40.154510
_cell_angle_gamma 90.000000
_cell_volume 1816.010118
_symmetry_space_group_name_H-M "C 2/C"
_symmetry_group_IT_number 15
_symmetry_cell_setting 'monoclinic'
loop_
_space_group_symop_operation_xyz
x,y,z
-x,y,1/2-z
-x,-y,-z
x,-y,1/2+z
1/2+x,1/2+y,z
1/2-x,1/2+y,1/2-z
1/2-x,1/2-y,-z
1/2+x,1/2-y,1/2+z
loop_
_atom_site_type_symbol
_atom_site_label
_atom_site_fract_x
_atom_site_fract_y
_atom_site_fract_z
Si Si1 0.099492 0.144225 0.034975
Si Si2 0.605333 0.372245 0.189812
Si Si3 0.832949 0.491402 0.916000
Si Si4 0.409877 0.358436 0.609956
Si Si5 0.220383 0.341248 0.743046
Si Si6 0.910967 0.630203 0.522218
O O1 0.119376 0.100379 0.161447
O O2 0.000000 0.161937 0.250000
O O3 0.118163 0.088123 0.833815
O O4 0.151604 0.252092 0.909796
O O5 0.509277 0.339266 0.410581
O O6 0.601057 0.416714 0.027246
O O7 0.687141 0.300557 0.992928
O O8 0.798498 0.418782 0.856984
O O9 0.909022 0.552182 0.669583
O O10 0.779538 0.585721 0.105728
O O11 0.856442 0.421628 0.008746
O O12 0.377760 0.240965 0.653345
O O13 0.000000 0.642515 0.250000
#
# Coordination Sequence:
#
# PCOD9274073 Si02
#       6
#     8   8   8   8   8   8
#     4  10  21  36  59  91 120 151 195 243 293 352
#     4  10  21  38  61  84 120 153 194 250 294 340
#     4  10  24  35  54  84 118 162 193 229 292 354
#     4  10  20  38  61  88 114 151 198 249 296 343
#     4  11  22  40  56  85 119 157 197 238 291 349
#     4  11  19  36  56  83 119 155 196 236 287 358
#
# _framework density 26.431570000000001
#
# number of rings (size 3 to 8) (size 9 to 14) (size 15 to 20)
#    0.000    1.667    3.333    2.000    2.333    3.333 
#    6.000    0.000    0.000    4.000    0.000    0.000 
#    0.000    0.000    0.000    0.000    0.000    0.000 
#
# Total GULP energy -133807.561904 kJ/mol
# GULP energy per Si atom -5575.315079 kJ/mol
# Density = 2.637141 g / cm^3
# Si number density = 26.431570 Si / 1000 Ang^3
#
#
#
# Elastic Constant Matrix: (Units=GPa)
#
#
# Indices 1 2 3 4 5 6 
#
# 1 107.5194 58.6757 81.7282 0.0000 71.7824 0.0000
# 2 58.6757 98.9768 56.7230 0.0000 51.9148 0.0000
# 3 81.7282 56.7230 163.6140 0.0000 52.0058 0.0000
# 4 0.0000 0.0000 0.0000 31.5913 0.0000 28.6236
# 5 71.7824 51.9148 52.0058 0.0000 63.5744 0.0000
# 6 0.0000 0.0000 0.0000 28.6236 0.0000 35.1015
#
#
#
# Elastic Compliance Matrix: (Units=1/GPa)
#
#
# Indices 1 2 3 4 5 6 
#
# 1 0.045519 0.002198 -0.008909 0.000000 -0.045902 0.000000
# 2 0.002198 0.018319 -0.002575 0.000000 -0.015335 0.000000
# 3 -0.008909 -0.002575 0.010256 0.000000 0.003772 0.000000
# 4 0.000000 0.000000 0.000000 0.121210 0.000000 -0.098841
# 5 -0.045902 -0.015335 0.003772 0.000000 0.076995 0.000000
# 6 0.000000 0.000000 0.000000 -0.098841 0.000000 0.109089
#
#
# Mechanical properties :
#
#
# Convention : Reuss Voigt Hill
#
# Bulk Modulus (GPa) = 18.01084 84.92931 51.47007
# Shear Modulus (GPa) = 11.94837 37.58566 24.76702
#
# Velocity S-wave (km/s) = 2.12845 3.77503 3.06441
# Velocity P-wave (km/s) = 3.58739 7.15560 5.66004
#
# Compressibility (1/GPa) = 0.05552212
#
# Stress axis : x y z
#
# Youngs Moduli (GPa) = 21.96895 54.58676 97.50643
#
# Poissons Ratio (x) = -0.11996 0.86868
# Poissons Ratio (y) = -0.04828 0.25104
# Poissons Ratio (z) = 0.19572 0.14054
#
# Static dielectric constant tensor:
#      x y z
#    x 2.113430 0.000000 -0.010520 
#    y 0.000000 2.083000 0.000000 
#    z -0.010520 0.000000 2.025450 
# 
# From -- ./inp_files/40927.got.cif
#   From: 2010.05.17/outbox.cif.g08.bks.cpg/sg15_21_cif.got.tgz:40927.got - 2010.06.03 18:47:42.
