data_PCOD9274911
_publ_section_title
;
Structure prediction by ZEFSAII (Michael W. Deem and Ramdas Pophale) SiO2 
 PCOD9274911
Probable space group: C 2/C
;
_chemical_formula_sum "Si O2"
_cell_formula_units_Z 36
_cell_length_a 15.293540
_cell_length_b 15.210494
_cell_length_c 11.813530
_cell_angle_alpha 90.000000
_cell_angle_beta 38.111108
_cell_angle_gamma 90.000000
_cell_volume 1696.089655
_symmetry_space_group_name_H-M "C 2/C"
_symmetry_group_IT_number 15
_symmetry_cell_setting 'monoclinic'
loop_
_space_group_symop_operation_xyz
x,y,z
-x,y,1/2-z
-x,-y,-z
x,-y,1/2+z
1/2+x,1/2+y,z
1/2-x,1/2+y,1/2-z
1/2-x,1/2-y,-z
1/2+x,1/2-y,1/2+z
loop_
_atom_site_type_symbol
_atom_site_label
_atom_site_fract_x
_atom_site_fract_y
_atom_site_fract_z
Si Si1 0.000000 0.812962 0.250000
Si Si2 0.895044 0.709604 0.748641
Si Si3 0.003650 0.346709 0.904101
Si Si4 0.776165 0.575982 0.473826
Si Si5 0.339023 0.611636 0.381533
O O1 0.958920 0.747741 0.189144
O O2 0.866606 0.873598 0.412049
O O3 0.975680 0.665072 0.563538
O O4 0.852981 0.812010 0.772627
O O5 0.000000 0.708204 0.750000
O O6 0.750759 0.659715 0.928132
O O7 0.858670 0.373789 0.989253
O O8 0.119209 0.416291 0.741014
O O9 0.742549 0.478885 0.552532
O O10 0.500000 0.589705 0.250000
#
# Coordination Sequence:
#
# PCOD9274911 Si02
#       5
#     4   8   8   8   8
#     4  10  20  38  66  92 132 160 210 266 320 378
#     4  10  24  44  67  86 133 173 214 251 323 384
#     4  10  22  41  66  95 124 175 207 259 323 377
#     4  10  21  40  67  96 129 157 221 263 313 376
#     4  10  22  42  63  94 127 168 208 266 314 378
#
# _framework density 21.225292
#
# number of rings (size 3 to 8) (size 9 to 14) (size 15 to 20)
#    0.000    2.222    1.111    2.667    3.111   11.556 
#    4.000    2.222    0.000    0.000    0.000    0.000 
#    0.000    0.000    0.000    0.000    0.000    0.000 
#
# Total GULP energy -100469.276921 kJ/mol
# GULP energy per Si atom -5581.626496 kJ/mol
# Density = 2.117698 g / cm^3
# Si number density = 21.225292 Si / 1000 Ang^3
#
#
#
# Elastic Constant Matrix: (Units=GPa)
#
#
# Indices 1 2 3 4 5 6 
#
# 1 41.1380 20.0218 58.8086 0.0000 5.1198 0.0000
# 2 20.0218 97.2275 22.2102 0.0000 -4.3267 0.0000
# 3 58.8086 22.2102 109.8482 0.0000 -4.9257 0.0000
# 4 0.0000 0.0000 0.0000 21.8999 0.0000 -10.7888
# 5 5.1198 -4.3267 -4.9257 0.0000 37.3305 0.0000
# 6 0.0000 0.0000 0.0000 -10.7888 0.0000 -54.0734
#
#
#
# Elastic Compliance Matrix: (Units=1/GPa)
#
#
# Indices 1 2 3 4 5 6 
#
# 1 0.139087 -0.013282 -0.073134 0.000000 -0.030265 0.000000
# 2 -0.013282 0.012086 0.004840 0.000000 0.003861 0.000000
# 3 -0.073134 0.004840 0.048037 0.000000 0.016930 0.000000
# 4 0.000000 0.000000 0.000000 0.041576 0.000000 -0.008295
# 5 -0.030265 0.003861 0.016930 0.000000 0.033620 0.000000
# 6 0.000000 0.000000 0.000000 -0.008295 0.000000 -0.016838
#
#
# Mechanical properties :
#
#
# Convention : Reuss Voigt Hill
#
# Bulk Modulus (GPa) = 27.73217 50.03275 38.88246
# Shear Modulus (GPa) = 11.55431 10.84294 11.19862
#
# Velocity S-wave (km/s) = 2.33569 2.26265 2.29946
# Velocity P-wave (km/s) = 4.51309 5.51811 5.04071
#
# Compressibility (1/GPa) = 0.03605921
#
# Stress axis : x y z
#
# Youngs Moduli (GPa) = 7.18974 82.73697 20.81731
#
# Poissons Ratio (x) = 1.09894 1.52244
# Poissons Ratio (y) = 0.09550 -0.10076
# Poissons Ratio (z) = 0.52581 -0.40047
#
# Static dielectric constant tensor:
#      x y z
#    x 1.756270 0.000000 -0.005110 
#    y 0.000000 1.795960 0.000000 
#    z -0.005110 0.000000 1.770780 
# 
# From -- ./inp_files/96776.got.cif
#   From: 2010.05.17/outbox.cif.g08.bks.cpg/sg15_49_cif.got.tgz:96776.got - 2010.06.03 18:47:42.
