data_PCOD9274464
_publ_section_title
;
Structure prediction by ZEFSAII (Michael W. Deem and Ramdas Pophale) SiO2 
 PCOD9274464
Probable space group: C 2/C
;
_chemical_formula_sum "Si O2"
_cell_formula_units_Z 56
_cell_length_a 26.732795
_cell_length_b 11.099899
_cell_length_c 16.416572
_cell_angle_alpha 90.000000
_cell_angle_beta 27.344418
_cell_angle_gamma 90.000000
_cell_volume 2237.579825
_symmetry_space_group_name_H-M "C 2/C"
_symmetry_group_IT_number 15
_symmetry_cell_setting 'monoclinic'
loop_
_space_group_symop_operation_xyz
x,y,z
-x,y,1/2-z
-x,-y,-z
x,-y,1/2+z
1/2+x,1/2+y,z
1/2-x,1/2+y,1/2-z
1/2-x,1/2-y,-z
1/2+x,1/2-y,1/2+z
loop_
_atom_site_type_symbol
_atom_site_label
_atom_site_fract_x
_atom_site_fract_y
_atom_site_fract_z
Si Si1 0.791130 0.151513 0.302541
Si Si2 0.252170 0.404010 0.456137
Si Si3 0.610980 0.968694 0.292580
Si Si4 0.091671 0.732519 0.681446
Si Si5 0.996734 0.111360 0.443854
Si Si6 0.701167 0.502631 0.857320
Si Si7 0.883120 0.807646 0.400007
O O1 0.705899 0.237351 0.470289
O O2 0.917852 0.191062 0.123113
O O3 0.758506 0.103565 0.261701
O O4 0.775333 0.028291 0.378205
O O5 0.168464 0.427590 0.652727
O O6 0.202783 0.301784 0.469388
O O7 0.361758 0.354763 0.339351
O O8 0.591640 0.867667 0.251803
O O9 0.500000 0.000000 0.500000
O O10 0.698432 0.944659 0.237851
O O11 0.058969 0.858612 0.769437
O O12 0.000000 0.697817 0.750000
O O13 0.000000 0.000000 0.500000
O O14 0.873647 0.097288 0.585186
O O15 0.630393 0.423915 0.023058
O O16 0.000000 0.754924 0.250000
#
# Coordination Sequence:
#
# PCOD9274464 Si02
#       7
#     8   8   8   8   8   8   8
#     4  10  21  43  66  96 137 175 228 282 339 405
#     4   9  21  39  61  93 126 166 217 272 318 401
#     4  10  22  44  67  98 135 173 226 281 339 408
#     4  11  24  42  71  98 135 186 231 284 346 415
#     4  10  23  44  63  98 136 176 223 282 341 402
#     4  10  22  42  66  99 137 176 226 286 340 411
#     4  10  20  38  63  91 126 173 213 263 340 394
#
# _framework density 25.027038999999998
#
# number of rings (size 3 to 8) (size 9 to 14) (size 15 to 20)
#    0.000    2.000    0.000    2.143    0.000    8.571 
#   30.857    0.000    0.000    0.000    0.000    0.000 
#    0.000    0.000    0.000    0.000    0.000    0.000 
#
# Total GULP energy -156033.383244 kJ/mol
# GULP energy per Si atom -5572.620830 kJ/mol
# Density = 2.497008 g / cm^3
# Si number density = 25.027039 Si / 1000 Ang^3
#
#
#
# Elastic Constant Matrix: (Units=GPa)
#
#
# Indices 1 2 3 4 5 6 
#
# 1 187.9284 45.2573 62.8652 0.0000 -31.1935 0.0000
# 2 45.2573 66.1270 34.2233 0.0000 -6.5164 0.0000
# 3 62.8652 34.2233 132.3969 0.0000 -7.2566 0.0000
# 4 0.0000 0.0000 0.0000 42.7000 0.0000 16.4930
# 5 -31.1935 -6.5164 -7.2566 0.0000 40.3339 0.0000
# 6 0.0000 0.0000 0.0000 16.4930 0.0000 31.1525
#
#
#
# Elastic Compliance Matrix: (Units=1/GPa)
#
#
# Indices 1 2 3 4 5 6 
#
# 1 0.007869 -0.003576 -0.002535 0.000000 0.005052 0.000000
# 2 -0.003576 0.019249 -0.003291 0.000000 -0.000248 0.000000
# 3 -0.002535 -0.003291 0.009565 0.000000 -0.000771 0.000000
# 4 0.000000 0.000000 0.000000 0.029439 0.000000 -0.015586
# 5 0.005052 -0.000248 -0.000771 0.000000 0.028521 0.000000
# 6 0.000000 0.000000 0.000000 -0.015586 0.000000 0.040352
#
#
# Mechanical properties :
#
#
# Convention : Reuss Voigt Hill
#
# Bulk Modulus (GPa) = 55.93317 74.57153 65.25235
# Shear Modulus (GPa) = 31.29721 39.11106 35.20413
#
# Velocity S-wave (km/s) = 3.54013 3.95745 3.75459
# Velocity P-wave (km/s) = 6.25361 7.12341 6.70263
#
# Compressibility (1/GPa) = 0.01787848
#
# Stress axis : x y z
#
# Youngs Moduli (GPa) = 127.08355 51.95207 104.54439
#
# Poissons Ratio (x) = 0.18576 0.26504
# Poissons Ratio (y) = 0.45439 0.34409
# Poissons Ratio (z) = 0.32218 0.17099
#
# Static dielectric constant tensor:
#      x y z
#    x 1.990660 0.000000 -0.021610 
#    y 0.000000 2.053070 0.000000 
#    z -0.021610 0.000000 2.042040 
# 
# From -- ./inp_files/173777.got.cif
#   From: 2010.05.17/outbox.cif.g08.bks.cpg/sg15_87_cif.got.tgz:173777.got - 2010.06.03 18:47:42.
