data_PCOD9274988
_publ_section_title
;
Structure prediction by ZEFSAII (Michael W. Deem and Ramdas Pophale) SiO2 
 PCOD9274988
Probable space group: C 2/C
;
_chemical_formula_sum "Si O2"
_cell_formula_units_Z 52
_cell_length_a 8.487537
_cell_length_b 28.234061
_cell_length_c 12.018122
_cell_angle_alpha 90.000000
_cell_angle_beta 73.269577
_cell_angle_gamma 90.000000
_cell_volume 2758.083558
_symmetry_space_group_name_H-M "C 2/C"
_symmetry_group_IT_number 15
_symmetry_cell_setting 'monoclinic'
loop_
_space_group_symop_operation_xyz
x,y,z
-x,y,1/2-z
-x,-y,-z
x,-y,1/2+z
1/2+x,1/2+y,z
1/2-x,1/2+y,1/2-z
1/2-x,1/2-y,-z
1/2+x,1/2-y,1/2+z
loop_
_atom_site_type_symbol
_atom_site_label
_atom_site_fract_x
_atom_site_fract_y
_atom_site_fract_z
Si Si1 0.500000 0.177892 0.250000
Si Si2 0.805473 0.238452 0.115105
Si Si3 0.623980 0.088105 0.828671
Si Si4 0.617038 0.882757 0.923299
Si Si5 0.912198 0.514467 0.141201
Si Si6 0.820041 0.823555 0.243305
Si Si7 0.162560 0.198379 0.017036
O O1 0.661000 0.209814 0.204811
O O2 0.488124 0.144462 0.146924
O O3 0.814670 0.288320 0.176796
O O4 0.750000 0.250000 0.000000
O O5 0.973717 0.209482 0.084670
O O6 0.500000 0.091325 0.750000
O O7 0.772544 0.124033 0.787515
O O8 0.686184 0.034245 0.823298
O O9 0.507810 0.104624 0.952736
O O10 0.669461 0.934514 0.865842
O O11 0.754161 0.844022 0.929915
O O12 0.000000 0.519371 0.250000
O O13 0.000000 0.500000 0.000000
O O14 0.823702 0.818785 0.111674
O O15 0.000000 0.810007 0.250000
O O16 0.250000 0.250000 0.000000
#
# Coordination Sequence:
#
# PCOD9274988 Si02
#       7
#     4   8   8   8   8   8   8
#     4  12  24  40  62  88 124 170 212 262 316 394
#     4  12  23  41  60  89 127 171 216 260 324 391
#     4  10  20  38  67  92 122 162 214 261 318 387
#     4  11  22  39  63  97 128 165 213 267 327 381
#     4   9  19  38  66  97 129 171 218 275 331 398
#     4  12  23  39  61  89 123 168 214 269 325 384
#     4  12  25  39  61  94 131 171 217 267 323 396
#
# _framework density 18.853670000000001
#
# number of rings (size 3 to 8) (size 9 to 14) (size 15 to 20)
#    0.000    0.923    4.615    3.692    0.000    1.846 
#    0.000    0.000    3.385    0.923    0.000    0.000 
#    0.000    0.000    0.000    0.000    0.000    0.000 
#
# Total GULP energy -144822.640103 kJ/mol
# GULP energy per Si atom -5570.101542 kJ/mol
# Density = 1.881076 g / cm^3
# Si number density = 18.853670 Si / 1000 Ang^3
#
#
#
# Elastic Constant Matrix: (Units=GPa)
#
#
# Indices 1 2 3 4 5 6 
#
# 1 64.5600 51.3471 21.0573 0.0000 -4.6906 0.0000
# 2 51.3471 185.5978 39.9664 0.0000 -5.2765 0.0000
# 3 21.0573 39.9664 82.7013 0.0000 11.3735 0.0000
# 4 0.0000 0.0000 0.0000 84.4021 0.0000 20.5706
# 5 -4.6906 -5.2765 11.3735 0.0000 33.1052 0.0000
# 6 0.0000 0.0000 0.0000 20.5706 0.0000 37.5261
#
#
#
# Elastic Compliance Matrix: (Units=1/GPa)
#
#
# Indices 1 2 3 4 5 6 
#
# 1 0.020738 -0.004920 -0.003357 0.000000 0.003308 0.000000
# 2 -0.004920 0.007317 -0.002464 0.000000 0.001316 0.000000
# 3 -0.003357 -0.002464 0.014964 0.000000 -0.006009 0.000000
# 4 0.000000 0.000000 0.000000 0.013675 0.000000 -0.007496
# 5 0.003308 0.001316 -0.006009 0.000000 0.032950 0.000000
# 6 0.000000 0.000000 0.000000 -0.007496 0.000000 0.030757
#
#
# Mechanical properties :
#
#
# Convention : Reuss Voigt Hill
#
# Bulk Modulus (GPa) = 46.43537 61.95564 54.19551
# Shear Modulus (GPa) = 33.54263 45.70590 39.62426
#
# Velocity S-wave (km/s) = 4.22252 4.92900 4.58938
# Velocity P-wave (km/s) = 6.96101 8.08246 7.54261
#
# Compressibility (1/GPa) = 0.02153531
#
# Stress axis : x y z
#
# Youngs Moduli (GPa) = 48.22018 136.66188 66.82738
#
# Poissons Ratio (x) = 0.67243 0.22436
# Poissons Ratio (y) = 0.23726 0.16468
# Poissons Ratio (z) = 0.16189 0.33678
#
# Static dielectric constant tensor:
#      x y z
#    x 1.419690 0.000000 0.136320 
#    y 0.000000 1.659840 0.000000 
#    z 0.136320 0.000000 1.639570 
# 
# From -- ./inp_files/80625.got.cif
#   From: 2010.05.17/outbox.cif.g08.bks.cpg/sg15_41_cif.got.tgz:80625.got - 2010.06.03 18:47:42.
