data_PCOD9274228
_publ_section_title
;
Structure prediction by ZEFSAII (Michael W. Deem and Ramdas Pophale) SiO2 
 PCOD9274228
Probable space group: C 2/C
;
_chemical_formula_sum "Si O2"
_cell_formula_units_Z 64
_cell_length_a 25.828278
_cell_length_b 23.767338
_cell_length_c 9.134501
_cell_angle_alpha 90.000000
_cell_angle_beta 141.956541
_cell_angle_gamma 90.000000
_cell_volume 3455.605064
_symmetry_space_group_name_H-M "C 2/C"
_symmetry_group_IT_number 15
_symmetry_cell_setting 'monoclinic'
loop_
_space_group_symop_operation_xyz
x,y,z
-x,y,1/2-z
-x,-y,-z
x,-y,1/2+z
1/2+x,1/2+y,z
1/2-x,1/2+y,1/2-z
1/2-x,1/2-y,-z
1/2+x,1/2-y,1/2+z
loop_
_atom_site_type_symbol
_atom_site_label
_atom_site_fract_x
_atom_site_fract_y
_atom_site_fract_z
Si Si1 0.855514 0.147933 0.568852
Si Si2 0.165927 0.892610 0.946277
Si Si3 0.918691 0.945423 0.996070
Si Si4 0.100662 0.319124 0.471905
Si Si5 0.243168 0.691651 0.071813
Si Si6 0.196839 0.577360 0.297797
Si Si7 0.747223 0.010490 0.682578
Si Si8 0.406719 0.306013 0.480081
O O1 0.907835 0.107695 0.580049
O O2 0.803203 0.190143 0.348946
O O3 0.787570 0.107527 0.495130
O O4 0.906508 0.176038 0.811363
O O5 0.087196 0.920512 0.681916
O O6 0.219791 0.857273 0.948566
O O7 0.140299 0.850285 0.019247
O O8 0.222651 0.941913 0.137791
O O9 0.000000 0.975084 0.250000
O O10 0.834737 0.983178 0.820424
O O11 0.150104 0.322104 0.426219
O O12 0.132562 0.371548 0.638463
O O13 0.128395 0.257374 0.589527
O O14 0.000000 0.320495 0.250000
O O15 0.250000 0.750000 0.000000
O O16 0.195294 0.539187 0.437491
O O17 0.196417 0.537474 0.154726
O O18 0.500000 0.303899 0.750000
#
# Coordination Sequence:
#
# PCOD9274228 Si02
#       8
#     8   8   8   8   8   8   8   8
#     4   9  20  35  55  86 118 157 200 236 290 355
#     4  11  21  35  59  87 119 159 204 241 296 360
#     4  10  21  36  52  80 126 165 195 240 297 353
#     4  10  23  41  64  88 121 153 196 253 311 350
#     4  10  20  38  62  88 117 159 197 240 299 366
#     4  10  21  39  60  83 115 153 203 251 296 357
#     4  11  21  37  59  86 113 157 207 251 293 352
#     4  11  21  35  59  93 127 159 198 243 294 361
#
# _framework density 18.520634999999999
#
# number of rings (size 3 to 8) (size 9 to 14) (size 15 to 20)
#    0.000    1.750    3.750    1.500    0.000    4.000 
#    0.000    0.625    0.000    1.500    0.000    0.000 
#    0.000    0.000    0.000    0.000    0.000    0.000 
#
# Total GULP energy -178430.038772 kJ/mol
# GULP energy per Si atom -5575.938712 kJ/mol
# Density = 1.847848 g / cm^3
# Si number density = 18.520635 Si / 1000 Ang^3
#
#
#
# Elastic Constant Matrix: (Units=GPa)
#
#
# Indices 1 2 3 4 5 6 
#
# 1 47.5590 14.4966 34.3658 0.0000 -8.6717 0.0000
# 2 14.4966 95.8206 36.3898 0.0000 -16.4776 0.0000
# 3 34.3658 36.3898 68.4738 0.0000 -20.0776 0.0000
# 4 0.0000 0.0000 0.0000 4.2598 0.0000 57.7727
# 5 -8.6717 -16.4776 -20.0776 0.0000 29.8531 0.0000
# 6 0.0000 0.0000 0.0000 57.7727 0.0000 -129.6915
#
#
#
# Elastic Compliance Matrix: (Units=1/GPa)
#
#
# Indices 1 2 3 4 5 6 
#
# 1 0.033253 0.001518 -0.017959 0.000000 -0.001582 0.000000
# 2 0.001518 0.013389 -0.006952 0.000000 0.003156 0.000000
# 3 -0.017959 -0.006952 0.030714 0.000000 0.011603 0.000000
# 4 0.000000 0.000000 0.000000 0.033338 0.000000 0.014851
# 5 -0.001582 0.003156 0.011603 0.000000 0.042583 0.000000
# 6 0.000000 0.000000 0.000000 0.014851 0.000000 -0.001095
#
#
# Mechanical properties :
#
#
# Convention : Reuss Voigt Hill
#
# Bulk Modulus (GPa) = 32.71282 42.48421 37.59852
# Shear Modulus (GPa) = 23.90513 -10.67565 6.61474
#
# Velocity S-wave (km/s) = 3.59657 -2.40348 1.89191
# Velocity P-wave (km/s) = 5.91171 3.90978 5.01172
#
# Compressibility (1/GPa) = 0.03056905
#
# Stress axis : x y z
#
# Youngs Moduli (GPa) = 30.07272 74.68586 32.55812
#
# Poissons Ratio (x) = -0.11335 0.58472
# Poissons Ratio (y) = -0.04564 0.22635
# Poissons Ratio (z) = 0.54008 0.51922
#
# Static dielectric constant tensor:
#      x y z
#    x 1.668410 0.000000 0.000130 
#    y 0.000000 1.663040 0.000000 
#    z 0.000130 0.000000 1.648220 
# 
# From -- ./inp_files/70984.got.cif
#   From: 2010.05.17/outbox.cif.g08.bks.cpg/sg15_36_cif.got.tgz:70984.got - 2010.06.03 18:47:42.
