data_PCOD9274105
_publ_section_title
;
Structure prediction by ZEFSAII (Michael W. Deem and Ramdas Pophale) SiO2 
 PCOD9274105
Probable space group: C 2/C
;
_chemical_formula_sum "Si O2"
_cell_formula_units_Z 60
_cell_length_a 18.803113
_cell_length_b 17.917534
_cell_length_c 8.984506
_cell_angle_alpha 90.000000
_cell_angle_beta 107.266849
_cell_angle_gamma 90.000000
_cell_volume 2890.513227
_symmetry_space_group_name_H-M "C 2/C"
_symmetry_group_IT_number 15
_symmetry_cell_setting 'monoclinic'
loop_
_space_group_symop_operation_xyz
x,y,z
-x,y,1/2-z
-x,-y,-z
x,-y,1/2+z
1/2+x,1/2+y,z
1/2-x,1/2+y,1/2-z
1/2-x,1/2-y,-z
1/2+x,1/2-y,1/2+z
loop_
_atom_site_type_symbol
_atom_site_label
_atom_site_fract_x
_atom_site_fract_y
_atom_site_fract_z
Si Si1 0.850643 0.723139 0.213310
Si Si2 0.237685 0.906215 0.624858
Si Si3 0.382365 0.841789 0.030950
Si Si4 0.769533 0.318202 0.193818
Si Si5 0.786423 0.468925 0.372770
Si Si6 0.113179 0.207355 0.074274
Si Si7 0.057314 0.494693 0.904898
Si Si8 0.500000 0.732369 0.250000
O O1 0.787987 0.665873 0.112542
O O2 0.892290 0.671294 0.360522
O O3 0.807038 0.782384 0.292583
O O4 0.892100 0.762944 0.100965
O O5 0.233546 0.960461 0.481483
O O6 0.159046 0.869558 0.609831
O O7 0.276043 0.952960 0.781513
O O8 0.298663 0.824320 0.040790
O O9 0.410029 0.922479 0.106993
O O10 0.436716 0.783078 0.138997
O O11 0.770291 0.402678 0.250376
O O12 0.833578 0.269498 0.315002
O O13 0.868657 0.454927 0.492136
O O14 0.040460 0.196137 0.131458
O O15 0.000000 0.462226 0.750000
O O16 0.000000 0.500000 0.000000
#
# Coordination Sequence:
#
# PCOD9274105 Si02
#       8
#     8   8   8   8   8   8   8   4
#     4  11  20  39  64  92 121 160 211 263 313 362
#     4  11  22  38  61  94 123 164 205 266 313 364
#     4  11  22  37  57  88 124 169 204 253 307 364
#     4  10  20  38  61  90 126 155 207 267 312 361
#     4  12  22  38  61  91 127 170 212 255 307 367
#     4  10  21  42  64  87 122 161 211 265 321 367
#     4  12  25  38  53  85 136 180 210 236 290 376
#     4  10  24  42  62  82 122 162 210 262 314 380
#
# _framework density 20.757560999999999
#
# number of rings (size 3 to 8) (size 9 to 14) (size 15 to 20)
#    0.000    1.067    4.667    3.600    1.867    0.533 
#    0.000    0.000    0.000    0.800    0.000    0.000 
#    0.000    0.000    0.000    0.000    0.000    0.000 
#
# Total GULP energy -167180.574864 kJ/mol
# GULP energy per Si atom -5572.685829 kJ/mol
# Density = 2.071032 g / cm^3
# Si number density = 20.757561 Si / 1000 Ang^3
#
#
#
# Elastic Constant Matrix: (Units=GPa)
#
#
# Indices 1 2 3 4 5 6 
#
# 1 73.5022 25.5251 8.7231 0.0000 -32.7193 0.0000
# 2 25.5251 74.3069 7.4472 0.0000 -9.5708 0.0000
# 3 8.7231 7.4472 80.3559 0.0000 -25.0596 0.0000
# 4 0.0000 0.0000 0.0000 -2.3296 0.0000 3.3868
# 5 -32.7193 -9.5708 -25.0596 0.0000 34.2857 0.0000
# 6 0.0000 0.0000 0.0000 3.3868 0.0000 11.6420
#
#
#
# Elastic Compliance Matrix: (Units=1/GPa)
#
#
# Indices 1 2 3 4 5 6 
#
# 1 0.028772 -0.006628 0.007094 0.000000 0.030792 0.000000
# 2 -0.006628 0.015487 -0.001736 0.000000 -0.003271 0.000000
# 3 0.007094 -0.001736 0.017868 0.000000 0.019345 0.000000
# 4 0.000000 0.000000 0.000000 -0.301668 0.000000 0.087759
# 5 0.030792 -0.003271 0.019345 0.000000 0.071778 0.000000
# 6 0.000000 0.000000 0.000000 0.087759 0.000000 0.060366
#
#
# Mechanical properties :
#
#
# Convention : Reuss Voigt Hill
#
# Bulk Modulus (GPa) = 16.78231 34.61731 25.69981
# Shear Modulus (GPa) = -58.82841 21.15092 -18.83875
#
# Velocity S-wave (km/s) = -5.32938 3.19556 -3.01584
# Velocity P-wave (km/s) = 5.45593 5.50715 0.52985
#
# Compressibility (1/GPa) = 0.05958656
#
# Stress axis : x y z
#
# Youngs Moduli (GPa) = 34.75600 64.56917 55.96474
#
# Poissons Ratio (x) = 0.42799 -0.39700
# Poissons Ratio (y) = 0.23038 0.09715
# Poissons Ratio (z) = -0.24655 0.11208
#
# Static dielectric constant tensor:
#      x y z
#    x 1.766120 0.000000 -0.025790 
#    y 0.000000 1.730570 0.000000 
#    z -0.025790 0.000000 1.797260 
# 
# From -- ./inp_files/56645.got.cif
#   From: 2010.05.17/outbox.cif.g08.bks.cpg/sg15_29_cif.got.tgz:56645.got - 2010.06.03 18:47:42.
