data_PCOD9274813
_publ_section_title
;
Structure prediction by ZEFSAII (Michael W. Deem and Ramdas Pophale) SiO2 
 PCOD9274813
Probable space group: C 2/C
;
_chemical_formula_sum "Si O2"
_cell_formula_units_Z 52
_cell_length_a 11.162534
_cell_length_b 18.602133
_cell_length_c 14.818762
_cell_angle_alpha 90.000000
_cell_angle_beta 53.296506
_cell_angle_gamma 90.000000
_cell_volume 2467.008128
_symmetry_space_group_name_H-M "C 2/C"
_symmetry_group_IT_number 15
_symmetry_cell_setting 'monoclinic'
loop_
_space_group_symop_operation_xyz
x,y,z
-x,y,1/2-z
-x,-y,-z
x,-y,1/2+z
1/2+x,1/2+y,z
1/2-x,1/2+y,1/2-z
1/2-x,1/2-y,-z
1/2+x,1/2-y,1/2+z
loop_
_atom_site_type_symbol
_atom_site_label
_atom_site_fract_x
_atom_site_fract_y
_atom_site_fract_z
Si Si1 0.824484 0.958930 0.911608
Si Si2 0.578003 0.041198 0.383497
Si Si3 0.000000 0.087056 0.750000
Si Si4 0.406427 0.397353 0.605539
Si Si5 0.287170 0.034668 0.845308
Si Si6 0.098027 0.682461 0.293884
Si Si7 0.378897 0.334603 0.139747
O O1 0.737141 0.939179 0.859883
O O2 0.958779 0.906451 0.882567
O O3 0.711536 0.967162 0.046815
O O4 0.898423 0.035119 0.855864
O O5 0.511237 0.117112 0.382659
O O6 0.500000 0.000000 0.500000
O O7 0.601032 0.995202 0.281580
O O8 0.098707 0.134926 0.770292
O O9 0.350755 0.479083 0.611525
O O10 0.257839 0.351496 0.693406
O O11 0.484442 0.360101 0.484611
O O12 0.257542 0.118133 0.836621
O O13 0.126036 0.749533 0.346798
O O14 0.000000 0.702083 0.250000
#
# Coordination Sequence:
#
# PCOD9274813 Si02
#       7
#     8   8   4   8   8   8   8
#     4  11  20  39  68  94 118 160 231 268 294 379
#     4  11  26  40  62  92 132 172 210 255 329 392
#     4  12  16  32  66  98 114 156 206 266 322 362
#     4  10  21  40  63  91 126 170 214 265 314 385
#     4  10  20  38  65  94 121 161 220 267 306 380
#     4  11  26  40  57  96 139 166 200 271 340 382
#     4  11  20  37  62  97 125 159 214 266 327 381
#
# _framework density 21.078163
#
# number of rings (size 3 to 8) (size 9 to 14) (size 15 to 20)
#    0.000    1.231    5.385    1.846    4.308    1.846 
#    0.000    3.077    0.000    3.692    0.000    0.000 
#    0.000    0.000    0.000    0.000    0.000    0.000 
#
# Total GULP energy -144969.429084 kJ/mol
# GULP energy per Si atom -5575.747272 kJ/mol
# Density = 2.103019 g / cm^3
# Si number density = 21.078163 Si / 1000 Ang^3
#
#
#
# Elastic Constant Matrix: (Units=GPa)
#
#
# Indices 1 2 3 4 5 6 
#
# 1 72.1323 -1.4369 32.1672 0.0000 10.8396 0.0000
# 2 -1.4369 126.2113 48.1584 0.0000 -2.8393 0.0000
# 3 32.1672 48.1584 133.7125 0.0000 7.6668 0.0000
# 4 0.0000 0.0000 0.0000 25.9642 0.0000 7.1555
# 5 10.8396 -2.8393 7.6668 0.0000 38.2844 0.0000
# 6 0.0000 0.0000 0.0000 7.1555 0.0000 17.1677
#
#
#
# Elastic Compliance Matrix: (Units=1/GPa)
#
#
# Indices 1 2 3 4 5 6 
#
# 1 0.016396 0.001774 -0.004375 0.000000 -0.003635 0.000000
# 2 0.001774 0.009448 -0.003886 0.000000 0.000976 0.000000
# 3 -0.004375 -0.003886 0.009991 0.000000 -0.001050 0.000000
# 4 0.000000 0.000000 0.000000 0.043513 0.000000 -0.018136
# 5 -0.003635 0.000976 -0.001050 0.000000 0.027432 0.000000
# 6 0.000000 0.000000 0.000000 -0.018136 0.000000 0.065808
#
#
# Mechanical properties :
#
#
# Convention : Reuss Voigt Hill
#
# Bulk Modulus (GPa) = 43.74048 54.42593 49.08321
# Shear Modulus (GPa) = 25.88245 33.16110 29.52178
#
# Velocity S-wave (km/s) = 3.50798 3.97072 3.74650
# Velocity P-wave (km/s) = 6.09955 6.84830 6.48474
#
# Compressibility (1/GPa) = 0.02286212
#
# Stress axis : x y z
#
# Youngs Moduli (GPa) = 60.99062 105.84205 100.09087
#
# Poissons Ratio (x) = -0.18779 0.43790
# Poissons Ratio (y) = -0.10821 0.38892
# Poissons Ratio (z) = 0.26683 0.41127
#
# Static dielectric constant tensor:
#      x y z
#    x 1.843360 0.000000 -0.050530 
#    y 0.000000 1.756330 0.000000 
#    z -0.050530 0.000000 1.806370 
# 
# From -- ./inp_files/145483.got.cif
#   From: 2010.05.17/outbox.cif.g08.bks.cpg/sg15_73_cif.got.tgz:145483.got - 2010.06.03 18:47:42.
