data_PCOD9274925
_publ_section_title
;
Structure prediction by ZEFSAII (Michael W. Deem and Ramdas Pophale) SiO2 
 PCOD9274925
Probable space group: C 2/C
;
_chemical_formula_sum "Si O2"
_cell_formula_units_Z 60
_cell_length_a 17.669639
_cell_length_b 10.145801
_cell_length_c 20.702265
_cell_angle_alpha 90.000000
_cell_angle_beta 55.282470
_cell_angle_gamma 90.000000
_cell_volume 3050.617492
_symmetry_space_group_name_H-M "C 2/C"
_symmetry_group_IT_number 15
_symmetry_cell_setting 'monoclinic'
loop_
_space_group_symop_operation_xyz
x,y,z
-x,y,1/2-z
-x,-y,-z
x,-y,1/2+z
1/2+x,1/2+y,z
1/2-x,1/2+y,1/2-z
1/2-x,1/2-y,-z
1/2+x,1/2-y,1/2+z
loop_
_atom_site_type_symbol
_atom_site_label
_atom_site_fract_x
_atom_site_fract_y
_atom_site_fract_z
Si Si1 0.049258 0.761310 0.839402
Si Si2 0.801393 0.015735 0.221019
Si Si3 0.850305 0.632675 0.296453
Si Si4 0.949103 0.362121 0.019627
Si Si5 0.934358 0.013979 0.345813
Si Si6 0.045909 0.202183 0.862072
Si Si7 0.500000 0.059038 0.750000
Si Si8 0.256924 0.598349 0.879009
O O1 0.055864 0.701428 0.907065
O O2 0.034974 0.650784 0.791683
O O3 0.138920 0.855502 0.787672
O O4 0.962598 0.859756 0.873545
O O5 0.872998 0.903357 0.164183
O O6 0.751396 0.956609 0.308227
O O7 0.730805 0.054190 0.199845
O O8 0.914213 0.693061 0.208371
O O9 0.806350 0.759173 0.352420
O O10 0.914085 0.536866 0.307493
O O11 0.845270 0.385727 0.045241
O O12 0.000000 0.500000 0.000000
O O13 0.006392 0.270220 0.944050
O O14 0.828321 0.998836 0.379299
O O15 0.000000 0.021168 0.250000
O O16 0.967014 0.883375 0.366388
#
# Coordination Sequence:
#
# PCOD9274925 Si02
#       8
#     8   8   8   8   8   8   4   8
#     4  11  22  41  66  93 132 172 213 265 330 375
#     4  10  20  38  66  94 118 172 232 263 305 386
#     4  11  21  37  64 100 122 165 227 272 316 377
#     4  12  26  45  62  95 140 174 210 266 333 399
#     4  11  19  41  68  97 128 168 221 280 319 372
#     4  10  23  40  65  90 134 173 208 270 331 389
#     4  12  22  34  64 102 132 154 214 288 320 354
#     4  11  21  39  66  95 127 168 221 274 317 379
#
# _framework density 19.668149
#
# number of rings (size 3 to 8) (size 9 to 14) (size 15 to 20)
#    0.000    1.067    6.000    3.200    1.867    2.667 
#    2.400    0.667    0.000    0.000    0.000    0.000 
#    0.000    0.000    0.000    0.000    0.000    0.000 
#
# Total GULP energy -167665.282375 kJ/mol
# GULP energy per Si atom -5588.842746 kJ/mol
# Density = 1.962338 g / cm^3
# Si number density = 19.668149 Si / 1000 Ang^3
#
#
#
# Elastic Constant Matrix: (Units=GPa)
#
#
# Indices 1 2 3 4 5 6 
#
# 1 99.4873 35.6502 -1.5091 0.0000 -11.1577 0.0000
# 2 35.6502 87.2201 28.4770 0.0000 -9.4364 0.0000
# 3 -1.5091 28.4770 41.5438 0.0000 -9.0449 0.0000
# 4 0.0000 0.0000 0.0000 11.5719 0.0000 9.7196
# 5 -11.1577 -9.4364 -9.0449 0.0000 14.4054 0.0000
# 6 0.0000 0.0000 0.0000 9.7196 0.0000 32.3392
#
#
#
# Elastic Compliance Matrix: (Units=1/GPa)
#
#
# Indices 1 2 3 4 5 6 
#
# 1 0.013920 -0.007015 0.007716 0.000000 0.011031 0.000000
# 2 -0.007015 0.018493 -0.013294 0.000000 -0.001667 0.000000
# 3 0.007716 -0.013294 0.038074 0.000000 0.021174 0.000000
# 4 0.000000 0.000000 0.000000 0.115598 0.000000 -0.034743
# 5 0.011031 -0.001667 0.021174 0.000000 0.090165 0.000000
# 6 0.000000 0.000000 0.000000 -0.034743 0.000000 0.041364
#
#
# Mechanical properties :
#
#
# Convention : Reuss Voigt Hill
#
# Bulk Modulus (GPa) = 22.07516 39.27639 30.67577
# Shear Modulus (GPa) = 13.97037 22.70550 18.33793
#
# Velocity S-wave (km/s) = 2.66804 3.40138 3.05678
# Velocity P-wave (km/s) = 4.55406 5.95304 5.29991
#
# Compressibility (1/GPa) = 0.04529979
#
# Stress axis : x y z
#
# Youngs Moduli (GPa) = 71.84133 54.07528 26.26468
#
# Poissons Ratio (x) = 0.37935 -0.20266
# Poissons Ratio (y) = 0.50399 0.34916
# Poissons Ratio (z) = -0.55433 0.71888
#
# Static dielectric constant tensor:
#      x y z
#    x 1.700260 0.000000 -0.001880 
#    y 0.000000 1.701930 0.000000 
#    z -0.001880 0.000000 1.635920 
# 
# From -- ./inp_files/247804.got.cif
#   From: 2010.05.17/outbox.cif.g08.bks.cpg/sg15_124_cif.got.tgz:247804.got - 2010.06.03 18:47:42.
