data_PCOD9274771
_publ_section_title
;
Structure prediction by ZEFSAII (Michael W. Deem and Ramdas Pophale) SiO2 
 PCOD9274771
Probable space group: C 2/C
;
_chemical_formula_sum "Si O2"
_cell_formula_units_Z 44
_cell_length_a 15.519298
_cell_length_b 10.147222
_cell_length_c 17.723044
_cell_angle_alpha 90.000000
_cell_angle_beta 128.931943
_cell_angle_gamma 90.000000
_cell_volume 2171.087742
_symmetry_space_group_name_H-M "C 2/C"
_symmetry_group_IT_number 15
_symmetry_cell_setting 'monoclinic'
loop_
_space_group_symop_operation_xyz
x,y,z
-x,y,1/2-z
-x,-y,-z
x,-y,1/2+z
1/2+x,1/2+y,z
1/2-x,1/2+y,1/2-z
1/2-x,1/2-y,-z
1/2+x,1/2-y,1/2+z
loop_
_atom_site_type_symbol
_atom_site_label
_atom_site_fract_x
_atom_site_fract_y
_atom_site_fract_z
Si Si1 0.269969 0.529728 0.980136
Si Si2 0.500000 0.611639 0.250000
Si Si3 0.170489 0.902886 0.333263
Si Si4 0.909128 0.444535 0.392015
Si Si5 0.589851 0.765493 0.433352
Si Si6 0.115259 0.602830 0.274726
O O1 0.175752 0.614244 0.973159
O O2 0.212936 0.455224 0.880143
O O3 0.322475 0.432923 0.072280
O O4 0.354104 0.640905 0.994959
O O5 0.586170 0.514177 0.256303
O O6 0.572445 0.705546 0.341309
O O7 0.293194 0.916842 0.367944
O O8 0.125700 0.760059 0.286525
O O9 0.887645 0.544028 0.310771
O O10 0.000000 0.500000 0.500000
O O11 0.971364 0.314485 0.395836
O O12 0.000000 0.561326 0.250000
#
# Coordination Sequence:
#
# PCOD9274771 Si02
#       6
#     8   4   8   8   8   8
#     4  10  21  41  66  91 121 171 213 256 310 382
#     4  10  22  40  66  92 124 170 212 254 318 378
#     4  11  24  42  63  95 132 160 210 270 313 373
#     4  12  25  42  62  96 129 166 208 268 315 367
#     4  10  20  38  65  89 124 160 211 251 309 371
#     4  12  23  42  67  91 124 172 212 250 323 385
#
# _framework density 20.266338000000001
#
# number of rings (size 3 to 8) (size 9 to 14) (size 15 to 20)
#    0.000    1.091    4.545    1.636    2.545    1.455 
#    0.000    0.909    0.000    0.000    0.000    0.000 
#    0.000    0.000    0.000    0.000    0.000    0.000 
#
# Total GULP energy -122813.976645 kJ/mol
# GULP energy per Si atom -5582.453484 kJ/mol
# Density = 2.022021 g / cm^3
# Si number density = 20.266338 Si / 1000 Ang^3
#
#
#
# Elastic Constant Matrix: (Units=GPa)
#
#
# Indices 1 2 3 4 5 6 
#
# 1 80.0842 24.5521 5.0532 0.0000 15.5967 0.0000
# 2 24.5521 81.2583 26.2759 0.0000 -6.8468 0.0000
# 3 5.0532 26.2759 91.4400 0.0000 -6.0941 0.0000
# 4 0.0000 0.0000 0.0000 31.6097 0.0000 28.5936
# 5 15.5967 -6.8468 -6.0941 0.0000 28.4386 0.0000
# 6 0.0000 0.0000 0.0000 28.5936 0.0000 20.9914
#
#
#
# Elastic Compliance Matrix: (Units=1/GPa)
#
#
# Indices 1 2 3 4 5 6 
#
# 1 0.016270 -0.005811 0.000084 0.000000 -0.010304 0.000000
# 2 -0.005811 0.015815 -0.003812 0.000000 0.006178 0.000000
# 3 0.000084 -0.003812 0.012136 0.000000 0.001637 0.000000
# 4 0.000000 0.000000 0.000000 -0.136253 0.000000 0.185599
# 5 -0.010304 0.006178 0.001637 0.000000 0.042653 0.000000
# 6 0.000000 0.000000 0.000000 0.185599 0.000000 -0.205176
#
#
# Mechanical properties :
#
#
# Convention : Reuss Voigt Hill
#
# Bulk Modulus (GPa) = 39.77217 40.50499 40.13858
# Shear Modulus (GPa) = -22.01711 29.33470 3.65880
#
# Velocity S-wave (km/s) = -3.29962 3.80868 1.34509
# Velocity P-wave (km/s) = 2.26952 6.27464 4.71815
#
# Compressibility (1/GPa) = 0.02514321
#
# Stress axis : x y z
#
# Youngs Moduli (GPa) = 61.46302 63.22923 82.40004
#
# Poissons Ratio (x) = 0.36745 -0.00693
# Poissons Ratio (y) = 0.35718 0.31409
# Poissons Ratio (z) = -0.00517 0.24102
#
# Static dielectric constant tensor:
#      x y z
#    x 1.732970 0.000000 0.017880 
#    y 0.000000 1.744950 0.000000 
#    z 0.017880 0.000000 1.737240 
# 
# From -- ./inp_files/209739.got.cif
#   From: 2010.05.17/outbox.cif.g08.bks.cpg/sg15_105_cif.got.tgz:209739.got - 2010.06.03 18:47:42.
