data_PCOD9274030
_publ_section_title
;
Structure prediction by ZEFSAII (Michael W. Deem and Ramdas Pophale) SiO2 
 PCOD9274030
Probable space group: C 2/C
;
_chemical_formula_sum "Si O2"
_cell_formula_units_Z 40
_cell_length_a 7.964068
_cell_length_b 6.964441
_cell_length_c 25.293492
_cell_angle_alpha 90.000000
_cell_angle_beta 82.878283
_cell_angle_gamma 90.000000
_cell_volume 1392.087228
_symmetry_space_group_name_H-M "C 2/C"
_symmetry_group_IT_number 15
_symmetry_cell_setting 'monoclinic'
loop_
_space_group_symop_operation_xyz
x,y,z
-x,y,1/2-z
-x,-y,-z
x,-y,1/2+z
1/2+x,1/2+y,z
1/2-x,1/2+y,1/2-z
1/2-x,1/2-y,-z
1/2+x,1/2-y,1/2+z
loop_
_atom_site_type_symbol
_atom_site_label
_atom_site_fract_x
_atom_site_fract_y
_atom_site_fract_z
Si Si1 0.823836 0.565695 0.815955
Si Si2 0.546808 0.575483 0.616719
Si Si3 0.667064 0.365707 0.216392
Si Si4 0.555972 0.979146 0.084665
Si Si5 0.257034 0.528073 0.982567
O O1 0.640326 0.558777 0.851990
O O2 0.801327 0.654190 0.758475
O O3 0.873974 0.350564 0.798419
O O4 0.944327 0.633290 0.859348
O O5 0.678214 0.526338 0.659769
O O6 0.577806 0.798685 0.600756
O O7 0.579187 0.475106 0.558858
O O8 0.500000 0.450230 0.250000
O O9 0.391689 0.980869 0.054942
O O10 0.706724 0.919730 0.038327
O O11 0.250000 0.750000 0.000000
#
# Coordination Sequence:
#
# PCOD9274030 Si02
#       5
#     8   8   8   8   8
#     4  10  20  38  61  84 114 154 195 238 288 341
#     4   9  19  36  57  83 115 147 187 237 284 338
#     4   9  20  38  56  82 118 150 189 243 293 341
#     4   9  19  37  59  83 114 152 189 230 284 342
#     4   9  18  37  59  81 116 152 184 233 288 337
#
# _framework density 28.733830999999999
#
# number of rings (size 3 to 8) (size 9 to 14) (size 15 to 20)
#    0.000    2.800    0.000    0.000    0.000    5.600 
#    0.000   38.000    0.000    0.000    0.000    0.000 
#    0.000    0.000    0.000    0.000    0.000    0.000 
#
# Total GULP energy -111824.378030 kJ/mol
# GULP energy per Si atom -5591.218902 kJ/mol
# Density = 2.866843 g / cm^3
# Si number density = 28.733831 Si / 1000 Ang^3
#
#
#
# Elastic Constant Matrix: (Units=GPa)
#
#
# Indices 1 2 3 4 5 6 
#
# 1 99.8197 -4.2679 35.3674 0.0000 7.0964 0.0000
# 2 -4.2679 67.9398 58.2715 0.0000 -3.6177 0.0000
# 3 35.3674 58.2715 220.2356 0.0000 24.5684 0.0000
# 4 0.0000 0.0000 0.0000 37.8297 0.0000 2.6925
# 5 7.0964 -3.6177 24.5684 0.0000 69.0013 0.0000
# 6 0.0000 0.0000 0.0000 2.6925 0.0000 28.7215
#
#
#
# Elastic Compliance Matrix: (Units=1/GPa)
#
#
# Indices 1 2 3 4 5 6 
#
# 1 0.011037 0.002846 -0.002515 0.000000 -0.000090 0.000000
# 2 0.002846 0.020351 -0.006173 0.000000 0.002972 0.000000
# 3 -0.002515 -0.006173 0.006857 0.000000 -0.002507 0.000000
# 4 0.000000 0.000000 0.000000 0.026612 0.000000 -0.002495
# 5 -0.000090 0.002972 -0.002507 0.000000 0.015550 0.000000
# 6 0.000000 0.000000 0.000000 -0.002495 0.000000 0.035051
#
#
# Mechanical properties :
#
#
# Convention : Reuss Voigt Hill
#
# Bulk Modulus (GPa) = 37.64997 62.97080 50.31038
# Shear Modulus (GPa) = 36.76552 47.01877 41.89215
#
# Velocity S-wave (km/s) = 3.58092 4.04958 3.82244
# Velocity P-wave (km/s) = 5.49807 6.62029 6.08510
#
# Compressibility (1/GPa) = 0.02656045
#
# Stress axis : x y z
#
# Youngs Moduli (GPa) = 90.60089 49.13862 145.82593
#
# Poissons Ratio (x) = -0.13985 0.36682
# Poissons Ratio (y) = -0.25785 0.90020
# Poissons Ratio (z) = 0.22790 0.30334
#
# Static dielectric constant tensor:
#      x y z
#    x 2.326010 0.000000 0.008090 
#    y 0.000000 2.298400 0.000000 
#    z 0.008090 0.000000 2.289540 
# 
# From -- ./inp_files/262423.got.cif
#   From: 2010.05.17/outbox.cif.g08.bks.cpg/sg15_132_cif.got.tgz:262423.got - 2010.06.03 18:47:42.
