data_PCOD9274875
_publ_section_title
;
Structure prediction by ZEFSAII (Michael W. Deem and Ramdas Pophale) SiO2 
 PCOD9274875
Probable space group: C 2/C
;
_chemical_formula_sum "Si O2"
_cell_formula_units_Z 44
_cell_length_a 12.437282
_cell_length_b 28.114373
_cell_length_c 9.227580
_cell_angle_alpha 90.000000
_cell_angle_beta 43.484537
_cell_angle_gamma 90.000000
_cell_volume 2220.395622
_symmetry_space_group_name_H-M "C 2/C"
_symmetry_group_IT_number 15
_symmetry_cell_setting 'monoclinic'
loop_
_space_group_symop_operation_xyz
x,y,z
-x,y,1/2-z
-x,-y,-z
x,-y,1/2+z
1/2+x,1/2+y,z
1/2-x,1/2+y,1/2-z
1/2-x,1/2-y,-z
1/2+x,1/2-y,1/2+z
loop_
_atom_site_type_symbol
_atom_site_label
_atom_site_fract_x
_atom_site_fract_y
_atom_site_fract_z
Si Si1 0.500000 0.242386 0.250000
Si Si2 0.665617 0.032827 0.017130
Si Si3 0.671999 0.596796 0.870269
Si Si4 0.171776 0.901060 0.931397
Si Si5 0.838481 0.580175 0.987198
Si Si6 0.218223 0.180335 0.631490
O O1 0.374636 0.208673 0.445975
O O2 0.412545 0.279069 0.229504
O O3 0.500000 0.047576 0.250000
O O4 0.791225 0.051891 0.010623
O O5 0.659106 0.976907 0.996331
O O6 0.714486 0.059024 0.821621
O O7 0.697949 0.590881 0.013860
O O8 0.728158 0.648207 0.762385
O O9 0.496626 0.593142 0.979230
O O10 0.300167 0.896823 0.679118
O O11 0.182290 0.856782 0.033583
O O12 0.000000 0.594268 0.750000
#
# Coordination Sequence:
#
# PCOD9274875 Si02
#       6
#     4   8   8   8   8   8
#     4  10  20  38  66  88 112 134 188 236 288 342
#     4  10  21  37  57  83 114 155 203 236 265 327
#     4  11  22  37  57  86 120 149 192 235 282 334
#     4  11  22  37  57  86 120 149 192 235 282 334
#     4  11  24  37  55  82 118 161 194 229 280 336
#     4  10  21  38  63  93 108 142 183 239 283 342
#
# _framework density 19.816288
#
# number of rings (size 3 to 8) (size 9 to 14) (size 15 to 20)
#    0.000    1.455    1.818    4.364    7.636    7.273 
#    0.000    0.000    0.000    6.545    0.000    0.000 
#    0.000    0.000    0.000    0.000    0.000    0.000 
#
# Total GULP energy -122885.542711 kJ/mol
# GULP energy per Si atom -5585.706487 kJ/mol
# Density = 1.977119 g / cm^3
# Si number density = 19.816288 Si / 1000 Ang^3
#
#
#
# Elastic Constant Matrix: (Units=GPa)
#
#
# Indices 1 2 3 4 5 6 
#
# 1 53.2958 8.0583 11.1001 0.0000 -4.5378 0.0000
# 2 8.0583 50.4287 22.2871 0.0000 -17.3609 0.0000
# 3 11.1001 22.2871 76.1578 0.0000 2.9192 0.0000
# 4 0.0000 0.0000 0.0000 -13.0044 0.0000 -57.6214
# 5 -4.5378 -17.3609 2.9192 0.0000 32.8738 0.0000
# 6 0.0000 0.0000 0.0000 -57.6214 0.0000 -70.2707
#
#
#
# Elastic Compliance Matrix: (Units=1/GPa)
#
#
# Indices 1 2 3 4 5 6 
#
# 1 0.019684 -0.001195 -0.002608 0.000000 0.002318 0.000000
# 2 -0.001195 0.029677 -0.009136 0.000000 0.016319 0.000000
# 3 -0.002608 -0.009136 0.016439 0.000000 -0.006645 0.000000
# 4 0.000000 0.000000 0.000000 0.029202 0.000000 -0.023945
# 5 0.002318 0.016319 -0.006645 0.000000 0.039948 0.000000
# 6 0.000000 0.000000 0.000000 -0.023945 0.000000 0.005404
#
#
# Mechanical properties :
#
#
# Convention : Reuss Voigt Hill
#
# Bulk Modulus (GPa) = 25.04890 29.19704 27.12297
# Shear Modulus (GPa) = 27.84909 -0.85114 13.49897
#
# Velocity S-wave (km/s) = 3.75288 -0.65608 2.61282
# Velocity P-wave (km/s) = 5.60775 3.76722 4.77696
#
# Compressibility (1/GPa) = 0.03992191
#
# Stress axis : x y z
#
# Youngs Moduli (GPa) = 50.80162 33.69649 60.83062
#
# Poissons Ratio (x) = 0.04026 0.15866
# Poissons Ratio (y) = 0.06070 0.55575
# Poissons Ratio (z) = 0.13250 0.30785
#
# Static dielectric constant tensor:
#      x y z
#    x 1.737410 0.000000 -0.035920 
#    y 0.000000 1.659650 0.000000 
#    z -0.035920 0.000000 1.722980 
# 
# From -- ./inp_files/33983.got.cif
#   From: 2010.05.17/outbox.cif.g08.bks.cpg/sg15_17_cif.got.tgz:33983.got - 2010.06.03 18:47:42.
