data_PCOD9274309
_publ_section_title
;
Structure prediction by ZEFSAII (Michael W. Deem and Ramdas Pophale) SiO2 
 PCOD9274309
Probable space group: C 2/C
;
_chemical_formula_sum "Si O2"
_cell_formula_units_Z 56
_cell_length_a 9.497012
_cell_length_b 23.159359
_cell_length_c 13.758999
_cell_angle_alpha 90.000000
_cell_angle_beta 65.800576
_cell_angle_gamma 90.000000
_cell_volume 2760.287742
_symmetry_space_group_name_H-M "C 2/C"
_symmetry_group_IT_number 15
_symmetry_cell_setting 'monoclinic'
loop_
_space_group_symop_operation_xyz
x,y,z
-x,y,1/2-z
-x,-y,-z
x,-y,1/2+z
1/2+x,1/2+y,z
1/2-x,1/2+y,1/2-z
1/2-x,1/2-y,-z
1/2+x,1/2-y,1/2+z
loop_
_atom_site_type_symbol
_atom_site_label
_atom_site_fract_x
_atom_site_fract_y
_atom_site_fract_z
Si Si1 0.878138 0.710145 0.368924
Si Si2 0.541248 0.266391 0.958540
Si Si3 0.900211 0.561044 0.653968
Si Si4 0.719961 0.984541 0.107667
Si Si5 0.085160 0.320458 0.141309
Si Si6 0.905975 0.123613 0.547013
Si Si7 0.226230 0.902544 0.011141
O O1 0.719020 0.738193 0.374211
O O2 0.947909 0.753603 0.429209
O O3 0.820901 0.652921 0.444451
O O4 0.000000 0.697501 0.250000
O O5 0.426418 0.219231 0.948652
O O6 0.483523 0.330752 0.951852
O O7 0.806817 0.535758 0.772949
O O8 0.801673 0.570270 0.585640
O O9 0.052547 0.521390 0.604133
O O10 0.977938 0.623334 0.654310
O O11 0.838216 0.937360 0.031016
O O12 0.774385 0.049001 0.073156
O O13 0.253759 0.341701 0.122658
O O14 0.000000 0.285870 0.250000
O O15 0.046776 0.112409 0.580352
#
# Coordination Sequence:
#
# PCOD9274309 Si02
#       7
#     8   8   8   8   8   8   8
#     4  10  23  38  62  96 126 163 209 260 318 379
#     4  10  22  41  61  93 128 163 207 259 321 372
#     4  10  20  38  62  92 114 161 214 250 308 377
#     4  10  21  39  61  89 122 162 210 256 313 378
#     4  11  20  40  65  88 123 161 214 253 310 385
#     4  10  22  39  60  91 124 160 205 263 308 375
#     4  11  22  40  63  88 128 162 205 266 315 368
#
# _framework density 20.287739999999999
#
# number of rings (size 3 to 8) (size 9 to 14) (size 15 to 20)
#    0.000    1.714    4.286    1.286    4.000    0.571 
#    0.000    0.000    3.143    0.000    0.000    0.000 
#    0.000    0.000    0.000    0.000    0.000    0.000 
#
# Total GULP energy -155978.569111 kJ/mol
# GULP energy per Si atom -5570.663183 kJ/mol
# Density = 2.024156 g / cm^3
# Si number density = 20.287740 Si / 1000 Ang^3
#
#
#
# Elastic Constant Matrix: (Units=GPa)
#
#
# Indices 1 2 3 4 5 6 
#
# 1 113.9663 25.3070 60.0916 0.0000 -12.0301 0.0000
# 2 25.3070 98.5350 19.7376 0.0000 -0.0594 0.0000
# 3 60.0916 19.7376 66.6216 0.0000 -6.3688 0.0000
# 4 0.0000 0.0000 0.0000 19.9493 0.0000 -0.5745
# 5 -12.0301 -0.0594 -6.3688 0.0000 19.1354 0.0000
# 6 0.0000 0.0000 0.0000 -0.5745 0.0000 22.4541
#
#
#
# Elastic Compliance Matrix: (Units=1/GPa)
#
#
# Indices 1 2 3 4 5 6 
#
# 1 0.017569 -0.001543 -0.014805 0.000000 0.006113 0.000000
# 2 -0.001543 0.010945 -0.002004 0.000000 -0.001603 0.000000
# 3 -0.014805 -0.002004 0.028990 0.000000 0.000335 0.000000
# 4 0.000000 0.000000 0.000000 0.050164 0.000000 0.001284
# 5 0.006113 -0.001603 0.000335 0.000000 0.056209 0.000000
# 6 0.000000 0.000000 0.000000 0.001284 0.000000 0.044568
#
#
# Mechanical properties :
#
#
# Convention : Reuss Voigt Hill
#
# Bulk Modulus (GPa) = 48.07852 54.37723 51.22788
# Shear Modulus (GPa) = 19.83466 23.90687 21.87077
#
# Velocity S-wave (km/s) = 3.13016 3.43649 3.28690
# Velocity P-wave (km/s) = 6.06742 6.52742 6.30162
#
# Compressibility (1/GPa) = 0.02079931
#
# Stress axis : x y z
#
# Youngs Moduli (GPa) = 56.91867 91.36202 34.49440
#
# Poissons Ratio (x) = 0.14096 0.51070
# Poissons Ratio (y) = 0.08782 0.06914
# Poissons Ratio (z) = 0.84270 0.18312
#
# Static dielectric constant tensor:
#      x y z
#    x 1.745550 0.000000 -0.005850 
#    y 0.000000 1.751830 0.000000 
#    z -0.005850 0.000000 1.770860 
# 
# From -- ./inp_files/137739.got.cif
#   From: 2010.05.17/outbox.cif.g08.bks.cpg/sg15_69_cif.got.tgz:137739.got - 2010.06.03 18:47:42.
