data_PCOD9274764
_publ_section_title
;
Structure prediction by ZEFSAII (Michael W. Deem and Ramdas Pophale) SiO2 
 PCOD9274764
Probable space group: C 2/C
;
_chemical_formula_sum "Si O2"
_cell_formula_units_Z 40
_cell_length_a 9.590117
_cell_length_b 17.985315
_cell_length_c 27.691242
_cell_angle_alpha 90.000000
_cell_angle_beta 153.048043
_cell_angle_gamma 90.000000
_cell_volume 2164.789681
_symmetry_space_group_name_H-M "C 2/C"
_symmetry_group_IT_number 15
_symmetry_cell_setting 'monoclinic'
loop_
_space_group_symop_operation_xyz
x,y,z
-x,y,1/2-z
-x,-y,-z
x,-y,1/2+z
1/2+x,1/2+y,z
1/2-x,1/2+y,1/2-z
1/2-x,1/2-y,-z
1/2+x,1/2-y,1/2+z
loop_
_atom_site_type_symbol
_atom_site_label
_atom_site_fract_x
_atom_site_fract_y
_atom_site_fract_z
Si Si1 0.980755 0.096904 0.954913
Si Si2 0.736958 0.316310 0.455969
Si Si3 0.196649 0.811491 0.942176
Si Si4 0.310386 0.571471 0.376788
Si Si5 0.071214 0.281257 0.219734
O O1 0.691857 0.154725 0.866335
O O2 0.215456 0.113393 0.984147
O O3 0.855135 0.015083 0.904224
O O4 0.159310 0.107171 0.060469
O O5 0.750000 0.250000 0.500000
O O6 0.411745 0.313091 0.328351
O O7 0.006700 0.316904 0.500717
O O8 0.079791 0.888047 0.929424
O O9 0.946179 0.776530 0.828771
O O10 0.250000 0.750000 0.000000
O O11 0.000000 0.581197 0.250000
O O12 0.000000 0.245113 0.250000
#
# Coordination Sequence:
#
# PCOD9274764 Si02
#       5
#     8   8   8   8   8
#     4  10  22  45  61  90 123 173 203 238 323 382
#     4  11  21  38  64  88 126 165 203 254 307 369
#     4  12  24  37  59 100 120 154 213 264 301 353
#     4  11  24  40  66  89 128 160 206 259 305 372
#     4  10  20  38  65  86 125 166 207 243 314 377
#
# _framework density 18.477546
#
# number of rings (size 3 to 8) (size 9 to 14) (size 15 to 20)
#    0.000    1.200    6.000    1.800    5.600    0.800 
#    0.000    0.000    0.000    0.000    0.000    0.000 
#    0.000    0.000    0.000    0.000    0.000    0.000 
#
# Total GULP energy -111455.137193 kJ/mol
# GULP energy per Si atom -5572.756860 kJ/mol
# Density = 1.843549 g / cm^3
# Si number density = 18.477546 Si / 1000 Ang^3
#
#
#
# Elastic Constant Matrix: (Units=GPa)
#
#
# Indices 1 2 3 4 5 6 
#
# 1 135.1570 15.3456 64.3369 0.0003 -1.4097 0.0002
# 2 15.3456 36.3833 21.1431 0.0007 -0.6051 0.0005
# 3 64.3369 21.1431 116.4961 -0.0022 -16.3036 0.0017
# 4 0.0003 0.0007 -0.0022 17.6303 0.0018 -3.2588
# 5 -1.4097 -0.6051 -16.3036 0.0018 37.3594 0.0003
# 6 0.0002 0.0005 0.0017 -3.2588 0.0003 34.3062
#
#
#
# Elastic Compliance Matrix: (Units=1/GPa)
#
#
# Indices 1 2 3 4 5 6 
#
# 1 0.010238 -0.000999 -0.005774 -0.000001 -0.002150 0.000000
# 2 -0.000999 0.030973 -0.005330 -0.000002 -0.001862 0.000000
# 3 -0.005774 -0.005330 0.013523 0.000001 0.005597 0.000000
# 4 -0.000001 -0.000002 0.000001 0.057734 -0.000002 0.005484
# 5 -0.002150 -0.001862 0.005597 -0.000002 0.029098 -0.000001
# 6 0.000000 0.000000 0.000000 0.005484 -0.000001 0.029670
#
#
# Mechanical properties :
#
#
# Convention : Reuss Voigt Hill
#
# Bulk Modulus (GPa) = 32.75591 54.40973 43.58282
# Shear Modulus (GPa) = 24.31673 30.33989 27.32831
#
# Velocity S-wave (km/s) = 3.63163 4.05654 3.84995
# Velocity P-wave (km/s) = 5.94566 7.17294 6.58794
#
# Compressibility (1/GPa) = 0.03052884
#
# Stress axis : x y z
#
# Youngs Moduli (GPa) = 97.67359 32.28616 73.94578
#
# Poissons Ratio (x) = 0.03224 0.42695
# Poissons Ratio (y) = 0.09755 0.39416
# Poissons Ratio (z) = 0.56394 0.17210
#
# Static dielectric constant tensor:
#      x y z
#    x 1.654030 0.000000 -0.009470 
#    y 0.000000 1.691510 0.000000 
#    z -0.009470 0.000000 1.667070 
# 
# From -- ./inp_files/190694.got.cif
#   From: 2010.05.17/outbox.cif.g08.bks.cpg/sg15_96_cif.got.tgz:190694.got - 2010.06.03 18:47:42.
