data_PCOD9274587
_publ_section_title
;
Structure prediction by ZEFSAII (Michael W. Deem and Ramdas Pophale) SiO2 
 PCOD9274587
Probable space group: C 2/C
;
_chemical_formula_sum "Si O2"
_cell_formula_units_Z 48
_cell_length_a 12.044503
_cell_length_b 22.937440
_cell_length_c 9.196814
_cell_angle_alpha 90.000000
_cell_angle_beta 77.444414
_cell_angle_gamma 90.000000
_cell_volume 2480.042504
_symmetry_space_group_name_H-M "C 2/C"
_symmetry_group_IT_number 15
_symmetry_cell_setting 'monoclinic'
loop_
_space_group_symop_operation_xyz
x,y,z
-x,y,1/2-z
-x,-y,-z
x,-y,1/2+z
1/2+x,1/2+y,z
1/2-x,1/2+y,1/2-z
1/2-x,1/2-y,-z
1/2+x,1/2-y,1/2+z
loop_
_atom_site_type_symbol
_atom_site_label
_atom_site_fract_x
_atom_site_fract_y
_atom_site_fract_z
Si Si1 0.798889 0.483858 0.165982
Si Si2 0.609682 0.393642 0.322083
Si Si3 0.391632 0.069969 0.370510
Si Si4 0.885582 0.080373 0.346306
Si Si5 0.794546 0.168007 0.130989
Si Si6 0.872617 0.225470 0.812139
O O1 0.708771 0.435920 0.241202
O O2 0.856358 0.514293 0.285714
O O3 0.721051 0.536102 0.121018
O O4 0.891776 0.454637 0.033796
O O5 0.500000 0.401710 0.250000
O O6 0.585405 0.403732 0.497406
O O7 0.649147 0.327477 0.290335
O O8 0.500000 0.093839 0.250000
O O9 0.291375 0.117654 0.399181
O O10 0.857769 0.135670 0.247584
O O11 0.000000 0.051270 0.250000
O O12 0.716286 0.223429 0.190476
O O13 0.865178 0.194469 0.974355
O O14 0.000000 0.247435 0.750000
#
# Coordination Sequence:
#
# PCOD9274587 Si02
#       6
#     8   8   8   8   8   8
#     4  11  22  37  58  86 117 154 194 242 292 347
#     4  11  22  36  60  86 118 152 192 243 294 350
#     4  11  22  39  59  84 116 156 197 239 290 352
#     4  11  23  37  59  89 120 153 192 241 296 349
#     4  10  22  39  60  87 117 152 196 239 289 348
#     4  10  20  38  64  88 114 153 194 237 289 348
#
# _framework density 19.354507999999999
#
# number of rings (size 3 to 8) (size 9 to 14) (size 15 to 20)
#    0.000    1.333    3.333    3.500    2.333    2.000 
#    0.000    0.000    0.000    1.000    0.000    0.000 
#    0.000    0.000    0.000    0.000    0.000    0.000 
#
# Total GULP energy -133831.582778 kJ/mol
# GULP energy per Si atom -5576.315949 kJ/mol
# Density = 1.931046 g / cm^3
# Si number density = 19.354508 Si / 1000 Ang^3
#
#
#
# Elastic Constant Matrix: (Units=GPa)
#
#
# Indices 1 2 3 4 5 6 
#
# 1 45.3006 1.3120 16.4149 0.0000 -14.9322 0.0000
# 2 1.3120 52.2292 12.1259 0.0000 -3.9628 0.0000
# 3 16.4149 12.1259 105.8781 0.0000 -17.4088 0.0000
# 4 0.0000 0.0000 0.0000 19.3887 0.0000 -19.8599
# 5 -14.9322 -3.9628 -17.4088 0.0000 26.6738 0.0000
# 6 0.0000 0.0000 0.0000 -19.8599 0.0000 33.1708
#
#
#
# Elastic Compliance Matrix: (Units=1/GPa)
#
#
# Indices 1 2 3 4 5 6 
#
# 1 0.027456 0.000856 -0.002024 0.000000 0.014177 0.000000
# 2 0.000856 0.019759 -0.002055 0.000000 0.002074 0.000000
# 3 -0.002024 -0.002055 0.010930 0.000000 0.005696 0.000000
# 4 0.000000 0.000000 0.000000 0.133364 0.000000 0.079847
# 5 0.014177 0.002074 0.005696 0.000000 0.049451 0.000000
# 6 0.000000 0.000000 0.000000 0.079847 0.000000 0.077953
#
#
# Mechanical properties :
#
#
# Convention : Reuss Voigt Hill
#
# Bulk Modulus (GPa) = 19.34217 29.23486 24.28851
# Shear Modulus (GPa) = 14.59459 27.41700 21.00580
#
# Velocity S-wave (km/s) = 2.74901 3.76782 3.29799
# Velocity P-wave (km/s) = 4.48234 5.83664 5.20373
#
# Compressibility (1/GPa) = 0.05170051
#
# Stress axis : x y z
#
# Youngs Moduli (GPa) = 36.42152 50.60925 91.48811
#
# Poissons Ratio (x) = -0.04331 0.18515
# Poissons Ratio (y) = -0.03117 0.18798
# Poissons Ratio (z) = 0.07371 0.10399
#
# Static dielectric constant tensor:
#      x y z
#    x 1.705500 0.000000 -0.032280 
#    y 0.000000 1.660200 0.000000 
#    z -0.032280 0.000000 1.725810 
# 
# From -- ./inp_files/31931.got.cif
#   From: 2010.05.17/outbox.cif.g08.bks.cpg/sg15_16_cif.got.tgz:31931.got - 2010.06.03 18:47:42.
