data_PCOD9274542
_publ_section_title
;
Structure prediction by ZEFSAII (Michael W. Deem and Ramdas Pophale) SiO2 
 PCOD9274542
Probable space group: C 2/C
;
_chemical_formula_sum "Si O2"
_cell_formula_units_Z 40
_cell_length_a 17.554603
_cell_length_b 8.387967
_cell_length_c 12.011848
_cell_angle_alpha 90.000000
_cell_angle_beta 75.854380
_cell_angle_gamma 90.000000
_cell_volume 1715.082352
_symmetry_space_group_name_H-M "C 2/C"
_symmetry_group_IT_number 15
_symmetry_cell_setting 'monoclinic'
loop_
_space_group_symop_operation_xyz
x,y,z
-x,y,1/2-z
-x,-y,-z
x,-y,1/2+z
1/2+x,1/2+y,z
1/2-x,1/2+y,1/2-z
1/2-x,1/2-y,-z
1/2+x,1/2-y,1/2+z
loop_
_atom_site_type_symbol
_atom_site_label
_atom_site_fract_x
_atom_site_fract_y
_atom_site_fract_z
Si Si1 0.927483 0.274171 0.695064
Si Si2 0.345965 0.948490 0.127278
Si Si3 0.715753 0.730917 0.164972
Si Si4 0.841377 0.759350 0.440375
Si Si5 0.638707 0.602080 0.985069
O O1 0.914998 0.455049 0.662084
O O2 0.855357 0.239295 0.804522
O O3 0.920000 0.170364 0.586381
O O4 0.000000 0.246060 0.750000
O O5 0.321320 0.795280 0.208467
O O6 0.272136 0.073526 0.148560
O O7 0.373161 0.892953 0.995644
O O8 0.774361 0.868798 0.099071
O O9 0.648378 0.696398 0.097897
O O10 0.750000 0.750000 0.500000
O O11 0.875372 0.920347 0.479892
#
# Coordination Sequence:
#
# PCOD9274542 Si02
#       5
#     8   8   8   8   8
#     4  11  28  47  63  94 140 182 222 270 327 400
#     4  11  23  38  67  97 135 172 222 271 340 390
#     4  10  20  38  64 103 135 164 215 285 334 380
#     4  12  23  41  72 102 128 170 221 281 336 389
#     4  10  22  39  65  97 132 171 216 274 331 390
#
# _framework density 23.322493999999999
#
# number of rings (size 3 to 8) (size 9 to 14) (size 15 to 20)
#    0.000    1.200    2.000    4.800    8.400    1.600 
#    0.000    1.000    0.000    0.000    0.000    0.000 
#    0.000    0.000    0.000    0.000    0.000    0.000 
#
# Total GULP energy -111822.270952 kJ/mol
# GULP energy per Si atom -5591.113548 kJ/mol
# Density = 2.326941 g / cm^3
# Si number density = 23.322494 Si / 1000 Ang^3
#
#
#
# Elastic Constant Matrix: (Units=GPa)
#
#
# Indices 1 2 3 4 5 6 
#
# 1 87.5940 12.6527 17.4529 0.0000 43.5941 0.0000
# 2 12.6527 100.8874 36.6583 0.0000 25.1407 0.0000
# 3 17.4529 36.6583 97.6694 0.0000 38.4662 0.0000
# 4 0.0000 0.0000 0.0000 43.5776 0.0000 17.2867
# 5 43.5941 25.1407 38.4662 0.0000 44.8867 0.0000
# 6 0.0000 0.0000 0.0000 17.2867 0.0000 13.7846
#
#
#
# Elastic Compliance Matrix: (Units=1/GPa)
#
#
# Indices 1 2 3 4 5 6 
#
# 1 0.025958 0.002218 0.007468 0.000000 -0.032852 0.000000
# 2 0.002218 0.012198 -0.002167 0.000000 -0.007129 0.000000
# 3 0.007468 -0.002167 0.018258 0.000000 -0.021685 0.000000
# 4 0.000000 0.000000 0.000000 0.045664 0.000000 -0.057266
# 5 -0.032852 -0.007129 -0.021685 0.000000 0.076761 0.000000
# 6 0.000000 0.000000 0.000000 -0.057266 0.000000 0.144360
#
#
# Mechanical properties :
#
#
# Convention : Reuss Voigt Hill
#
# Bulk Modulus (GPa) = 13.99571 46.63095 30.31333
# Shear Modulus (GPa) = 15.06122 35.07555 25.06839
#
# Velocity S-wave (km/s) = 2.54398 3.88227 3.28206
# Velocity P-wave (km/s) = 3.82663 6.33509 5.23338
#
# Compressibility (1/GPa) = 0.07145044
#
# Stress axis : x y z
#
# Youngs Moduli (GPa) = 38.52384 81.98259 54.77016
#
# Poissons Ratio (x) = -0.18181 -0.40900
# Poissons Ratio (y) = -0.08543 0.11868
# Poissons Ratio (z) = -0.28768 0.17765
#
# Static dielectric constant tensor:
#      x y z
#    x 1.976410 0.000000 0.016080 
#    y 0.000000 1.891970 0.000000 
#    z 0.016080 0.000000 1.906410 
# 
# From -- ./inp_files/102690.got.cif
#   From: 2010.05.17/outbox.cif.g08.bks.cpg/sg15_52_cif.got.tgz:102690.got - 2010.06.03 18:47:42.
