data_PCOD9274739
_publ_section_title
;
Structure prediction by ZEFSAII (Michael W. Deem and Ramdas Pophale) SiO2 
 PCOD9274739
Probable space group: C 2/C
;
_chemical_formula_sum "Si O2"
_cell_formula_units_Z 64
_cell_length_a 10.841252
_cell_length_b 31.672644
_cell_length_c 17.557999
_cell_angle_alpha 90.000000
_cell_angle_beta 149.818303
_cell_angle_gamma 90.000000
_cell_volume 3030.997154
_symmetry_space_group_name_H-M "C 2/C"
_symmetry_group_IT_number 15
_symmetry_cell_setting 'monoclinic'
loop_
_space_group_symop_operation_xyz
x,y,z
-x,y,1/2-z
-x,-y,-z
x,-y,1/2+z
1/2+x,1/2+y,z
1/2-x,1/2+y,1/2-z
1/2-x,1/2-y,-z
1/2+x,1/2-y,1/2+z
loop_
_atom_site_type_symbol
_atom_site_label
_atom_site_fract_x
_atom_site_fract_y
_atom_site_fract_z
Si Si1 0.028571 0.254098 0.174257
Si Si2 0.410099 0.523440 0.027350
Si Si3 0.256645 0.521388 0.153902
Si Si4 0.332607 0.060339 0.084376
Si Si5 0.921876 0.394195 0.929276
Si Si6 0.460452 0.845045 0.367775
Si Si7 0.388536 0.394393 0.427428
Si Si8 0.462859 0.662456 0.363256
O O1 0.135325 0.297317 0.197087
O O2 0.136063 0.209983 0.201726
O O3 0.000000 0.256833 0.250000
O O4 0.750000 0.250000 0.000000
O O5 0.212502 0.489870 0.953317
O O6 0.322110 0.569434 0.954065
O O7 0.500000 0.500000 0.000000
O O8 0.646742 0.527277 0.208233
O O9 0.500000 0.499795 0.250000
O O10 0.212413 0.568052 0.096522
O O11 0.000000 0.500000 0.000000
O O12 0.500000 0.064926 0.250000
O O13 0.433221 0.083224 0.062567
O O14 0.076229 0.082724 0.969966
O O15 0.711674 0.366368 0.779849
O O16 0.078203 0.366015 0.070580
O O17 0.335234 0.874538 0.238003
O O18 0.754674 0.841324 0.513644
O O19 0.525759 0.356743 0.545965
#
# Coordination Sequence:
#
# PCOD9274739 Si02
#       8
#     8   8   8   8   8   8   8   8
#     4  10  20  38  64  98 136 171 211 272 340 408
#     4  10  23  44  66  93 121 179 226 278 330 389
#     4  12  26  44  65  98 135 176 229 287 341 398
#     4  11  23  45  68  90 126 178 237 266 331 401
#     4  12  24  42  65  92 134 182 216 273 333 405
#     4  11  24  38  64 104 134 164 219 276 342 403
#     4  11  23  41  67  95 128 172 222 278 327 398
#     4  11  20  41  68  97 134 173 214 273 343 405
#
# _framework density 21.115164
#
# number of rings (size 3 to 8) (size 9 to 14) (size 15 to 20)
#    0.000    1.000    2.500    6.000    3.500    1.500 
#    0.000    0.000    0.000    4.500    0.000    0.000 
#    0.000    0.000    0.000    0.000    0.000    0.000 
#
# Total GULP energy -178686.609193 kJ/mol
# GULP energy per Si atom -5583.956537 kJ/mol
# Density = 2.106710 g / cm^3
# Si number density = 21.115164 Si / 1000 Ang^3
#
#
#
# Elastic Constant Matrix: (Units=GPa)
#
#
# Indices 1 2 3 4 5 6 
#
# 1 68.6249 49.8801 43.0948 0.0000 -9.1242 0.0000
# 2 49.8801 179.6539 76.5962 0.0000 -4.3586 0.0000
# 3 43.0948 76.5962 138.0517 0.0000 -26.1862 0.0000
# 4 0.0000 0.0000 0.0000 32.6631 0.0000 -2.5771
# 5 -9.1242 -4.3586 -26.1862 0.0000 36.8686 0.0000
# 6 0.0000 0.0000 0.0000 -2.5771 0.0000 25.8131
#
#
#
# Elastic Compliance Matrix: (Units=1/GPa)
#
#
# Indices 1 2 3 4 5 6 
#
# 1 0.020004 -0.003925 -0.003717 0.000000 0.001847 0.000000
# 2 -0.003925 0.008237 -0.003866 0.000000 -0.002743 0.000000
# 3 -0.003717 -0.003866 0.011889 0.000000 0.007068 0.000000
# 4 0.000000 0.000000 0.000000 0.030859 0.000000 0.003081
# 5 0.001847 -0.002743 0.007068 0.000000 0.032276 0.000000
# 6 0.000000 0.000000 0.000000 0.003081 0.000000 0.039048
#
#
# Mechanical properties :
#
#
# Convention : Reuss Voigt Hill
#
# Bulk Modulus (GPa) = 58.42162 80.60807 69.51484
# Shear Modulus (GPa) = 29.23413 33.51959 31.37686
#
# Velocity S-wave (km/s) = 3.72494 3.98862 3.85903
# Velocity P-wave (km/s) = 6.79914 7.71171 7.26976
#
# Compressibility (1/GPa) = 0.01711695
#
# Stress axis : x y z
#
# Youngs Moduli (GPa) = 49.98958 121.39608 84.10888
#
# Poissons Ratio (x) = 0.47643 0.31261
# Poissons Ratio (y) = 0.19619 0.32514
# Poissons Ratio (z) = 0.18580 0.46928
#
# Static dielectric constant tensor:
#      x y z
#    x 1.886440 0.000000 -0.000840 
#    y 0.000000 1.880520 0.000000 
#    z -0.000840 0.000000 1.759240 
# 
# From -- ./inp_files/201480.got.cif
#   From: 2010.05.17/outbox.cif.g08.bks.cpg/sg15_101_cif.got.tgz:201480.got - 2010.06.03 18:47:42.
