data_PCOD9274527
_publ_section_title
;
Structure prediction by ZEFSAII (Michael W. Deem and Ramdas Pophale) SiO2 
 PCOD9274527
Probable space group: C 2/C
;
_chemical_formula_sum "Si O2"
_cell_formula_units_Z 44
_cell_length_a 9.867193
_cell_length_b 10.186918
_cell_length_c 21.635290
_cell_angle_alpha 90.000000
_cell_angle_beta 95.072606
_cell_angle_gamma 90.000000
_cell_volume 2166.181687
_symmetry_space_group_name_H-M "C 2/C"
_symmetry_group_IT_number 15
_symmetry_cell_setting 'monoclinic'
loop_
_space_group_symop_operation_xyz
x,y,z
-x,y,1/2-z
-x,-y,-z
x,-y,1/2+z
1/2+x,1/2+y,z
1/2-x,1/2+y,1/2-z
1/2-x,1/2-y,-z
1/2+x,1/2-y,1/2+z
loop_
_atom_site_type_symbol
_atom_site_label
_atom_site_fract_x
_atom_site_fract_y
_atom_site_fract_z
Si Si1 0.195848 0.203245 0.861019
Si Si2 0.139294 0.646901 0.023992
Si Si3 0.587162 0.004389 0.150366
Si Si4 0.705944 0.992108 0.910516
Si Si5 0.000000 0.315544 0.750000
Si Si6 0.511169 0.608131 0.553095
O O1 0.326889 0.126845 0.843565
O O2 0.232059 0.340061 0.896389
O O3 0.093158 0.235257 0.800998
O O4 0.112076 0.111316 0.904684
O O5 0.139510 0.588991 0.093198
O O6 0.013526 0.747693 0.022088
O O7 0.250000 0.750000 0.000000
O O8 0.152565 0.526595 0.977377
O O9 0.426925 0.972909 0.134993
O O10 0.595387 0.093202 0.211305
O O11 0.844586 0.075316 0.907473
O O12 0.500000 0.500000 0.500000
#
# Coordination Sequence:
#
# PCOD9274527 Si02
#       6
#     8   8   8   8   4   8
#     4  11  24  44  69  91 131 172 221 274 326 398
#     4  10  20  38  63  99 138 163 206 272 330 392
#     4  11  23  44  68  92 130 178 215 275 328 388
#     4  10  23  40  65  99 134 168 209 267 334 392
#     4  10  24  46  62  92 130 174 226 268 326 380
#     4  11  23  38  65 103 137 172 210 269 336 395
#
# _framework density 20.312237
#
# number of rings (size 3 to 8) (size 9 to 14) (size 15 to 20)
#    0.000    1.455    3.636    2.727    2.545    4.364 
#    0.000    0.000    0.000    0.000    0.000    0.000 
#    0.000    0.000    0.000    0.000    0.000    0.000 
#
# Total GULP energy -122663.649512 kJ/mol
# GULP energy per Si atom -5575.620432 kJ/mol
# Density = 2.026601 g / cm^3
# Si number density = 20.312237 Si / 1000 Ang^3
#
#
#
# Elastic Constant Matrix: (Units=GPa)
#
#
# Indices 1 2 3 4 5 6 
#
# 1 81.7489 36.7797 -6.7418 0.0000 -4.7521 0.0000
# 2 36.7797 128.9085 39.2950 0.0000 7.4695 0.0000
# 3 -6.7418 39.2950 80.7531 0.0000 1.1891 0.0000
# 4 0.0000 0.0000 0.0000 33.7805 0.0000 -4.0010
# 5 -4.7521 7.4695 1.1891 0.0000 15.7619 0.0000
# 6 0.0000 0.0000 0.0000 -4.0010 0.0000 45.1802
#
#
#
# Elastic Compliance Matrix: (Units=1/GPa)
#
#
# Indices 1 2 3 4 5 6 
#
# 1 0.015819 -0.006237 0.004247 0.000000 0.007405 0.000000
# 2 -0.006237 0.011825 -0.006171 0.000000 -0.007019 0.000000
# 3 0.004247 -0.006171 0.015697 0.000000 0.003021 0.000000
# 4 0.000000 0.000000 0.000000 0.029917 0.000000 0.002649
# 5 0.007405 -0.007019 0.003021 0.000000 0.068775 0.000000
# 6 0.000000 0.000000 0.000000 0.002649 0.000000 0.022368
#
#
# Mechanical properties :
#
#
# Convention : Reuss Voigt Hill
#
# Bulk Modulus (GPa) = 37.01356 47.78625 42.39990
# Shear Modulus (GPa) = 26.35327 33.74972 30.05149
#
# Velocity S-wave (km/s) = 3.60586 4.08063 3.85057
# Velocity P-wave (km/s) = 5.96642 6.76601 6.37876
#
# Compressibility (1/GPa) = 0.02701713
#
# Stress axis : x y z
#
# Youngs Moduli (GPa) = 63.21361 84.56728 63.70828
#
# Poissons Ratio (x) = 0.52745 -0.27055
# Poissons Ratio (y) = 0.39427 0.39317
# Poissons Ratio (z) = -0.26845 0.52190
#
# Static dielectric constant tensor:
#      x y z
#    x 1.758480 0.000000 0.048960 
#    y 0.000000 1.747280 0.000000 
#    z 0.048960 0.000000 1.669970 
# 
# From -- ./inp_files/236111.got.cif
#   From: 2010.05.17/outbox.cif.g08.bks.cpg/sg15_119_cif.got.tgz:236111.got - 2010.06.03 18:47:42.
