data_PCOD9274836
_publ_section_title
;
Structure prediction by ZEFSAII (Michael W. Deem and Ramdas Pophale) SiO2 
 PCOD9274836
Probable space group: C 2/C
;
_chemical_formula_sum "Si O2"
_cell_formula_units_Z 60
_cell_length_a 20.719257
_cell_length_b 12.924560
_cell_length_c 19.132356
_cell_angle_alpha 90.000000
_cell_angle_beta 32.494945
_cell_angle_gamma 90.000000
_cell_volume 2752.420421
_symmetry_space_group_name_H-M "C 2/C"
_symmetry_group_IT_number 15
_symmetry_cell_setting 'monoclinic'
loop_
_space_group_symop_operation_xyz
x,y,z
-x,y,1/2-z
-x,-y,-z
x,-y,1/2+z
1/2+x,1/2+y,z
1/2-x,1/2+y,1/2-z
1/2-x,1/2-y,-z
1/2+x,1/2-y,1/2+z
loop_
_atom_site_type_symbol
_atom_site_label
_atom_site_fract_x
_atom_site_fract_y
_atom_site_fract_z
Si Si1 0.308297 0.832048 0.894929
Si Si2 0.097336 0.974588 0.819782
Si Si3 0.640239 0.636802 0.143183
Si Si4 0.000000 0.500516 0.750000
Si Si5 0.177567 0.977634 0.468418
Si Si6 0.388795 0.720880 0.110808
Si Si7 0.118539 0.657475 0.742470
Si Si8 0.121828 0.782258 0.304442
O O1 0.390018 0.920000 0.856343
O O2 0.381899 0.770575 0.768553
O O3 0.206592 0.901857 0.950420
O O4 0.250000 0.750000 0.000000
O O5 0.123966 0.094092 0.800838
O O6 0.164327 0.928584 0.690941
O O7 0.119677 0.901676 0.865327
O O8 0.956641 0.961289 0.932361
O O9 0.500000 0.635108 0.250000
O O10 0.660846 0.755106 0.147806
O O11 0.697438 0.578236 0.025531
O O12 0.025067 0.578592 0.791588
O O13 0.271933 0.916498 0.334879
O O14 0.423210 0.777671 0.152560
O O15 0.252992 0.751777 0.214850
O O16 0.499501 0.745518 0.957983
#
# Coordination Sequence:
#
# PCOD9274836 Si02
#       8
#     8   8   8   4   8   8   8   8
#     4  11  26  44  69  98 138 184 238 291 354 420
#     4  10  22  41  67  96 134 181 236 283 341 419
#     4   9  17  33  63  98 132 170 223 283 346 408
#     4  10  24  42  68 102 144 182 232 302 358 412
#     4  10  20  38  65  98 133 181 228 284 345 413
#     4  11  26  46  72 103 140 187 236 293 353 424
#     4  10  20  41  64 103 139 179 228 295 357 411
#     4  12  26  48  72 100 142 187 238 290 352 428
#
# _framework density 21.798995999999999
#
# number of rings (size 3 to 8) (size 9 to 14) (size 15 to 20)
#    0.000    1.600    0.667    3.200    3.733    2.133 
#   12.000    3.333    0.000    0.000    0.000    0.000 
#    0.000    0.000    0.000    0.000    0.000    0.000 
#
# Total GULP energy -167530.030662 kJ/mol
# GULP energy per Si atom -5584.334355 kJ/mol
# Density = 2.174938 g / cm^3
# Si number density = 21.798996 Si / 1000 Ang^3
#
#
#
# Elastic Constant Matrix: (Units=GPa)
#
#
# Indices 1 2 3 4 5 6 
#
# 1 58.6084 39.6772 27.5742 0.0000 -8.7881 0.0000
# 2 39.6772 144.9634 53.6243 0.0000 7.5905 0.0000
# 3 27.5742 53.6243 91.7883 0.0000 7.6260 0.0000
# 4 0.0000 0.0000 0.0000 23.3556 0.0000 2.7498
# 5 -8.7881 7.5905 7.6260 0.0000 35.6778 0.0000
# 6 0.0000 0.0000 0.0000 2.7498 0.0000 24.4397
#
#
#
# Elastic Compliance Matrix: (Units=1/GPa)
#
#
# Indices 1 2 3 4 5 6 
#
# 1 0.024096 -0.005220 -0.004860 0.000000 0.008085 0.000000
# 2 -0.005220 0.009953 -0.004035 0.000000 -0.002541 0.000000
# 3 -0.004860 -0.004035 0.015007 0.000000 -0.003546 0.000000
# 4 0.000000 0.000000 0.000000 0.043391 0.000000 -0.004882
# 5 0.008085 -0.002541 -0.003546 0.000000 0.031319 0.000000
# 6 0.000000 0.000000 0.000000 -0.004882 0.000000 0.041466
#
#
# Mechanical properties :
#
#
# Convention : Reuss Voigt Hill
#
# Bulk Modulus (GPa) = 48.02357 59.67906 53.85131
# Shear Modulus (GPa) = 24.94951 28.32692 26.63821
#
# Velocity S-wave (km/s) = 3.38675 3.60871 3.49949
# Velocity P-wave (km/s) = 6.11322 6.69329 6.40982
#
# Compressibility (1/GPa) = 0.02082311
#
# Stress axis : x y z
#
# Youngs Moduli (GPa) = 41.50133 100.47309 66.63619
#
# Poissons Ratio (x) = 0.52452 0.32388
# Poissons Ratio (y) = 0.21666 0.26890
# Poissons Ratio (z) = 0.20171 0.40544
#
# Static dielectric constant tensor:
#      x y z
#    x 1.847720 0.000000 0.014770 
#    y 0.000000 1.782390 0.000000 
#    z 0.014770 0.000000 1.808510 
# 
# From -- ./inp_files/255555.got.cif
#   From: 2010.05.17/outbox.cif.g08.bks.cpg/sg15_128_cif.got.tgz:255555.got - 2010.06.03 18:47:42.
