data_PCOD9274872
_publ_section_title
;
Structure prediction by ZEFSAII (Michael W. Deem and Ramdas Pophale) SiO2 
 PCOD9274872
Probable space group: C 2/C
;
_chemical_formula_sum "Si O2"
_cell_formula_units_Z 36
_cell_length_a 17.142847
_cell_length_b 9.190064
_cell_length_c 17.988232
_cell_angle_alpha 90.000000
_cell_angle_beta 140.409901
_cell_angle_gamma 90.000000
_cell_volume 1806.041126
_symmetry_space_group_name_H-M "C 2/C"
_symmetry_group_IT_number 15
_symmetry_cell_setting 'monoclinic'
loop_
_space_group_symop_operation_xyz
x,y,z
-x,y,1/2-z
-x,-y,-z
x,-y,1/2+z
1/2+x,1/2+y,z
1/2-x,1/2+y,1/2-z
1/2-x,1/2-y,-z
1/2+x,1/2-y,1/2+z
loop_
_atom_site_type_symbol
_atom_site_label
_atom_site_fract_x
_atom_site_fract_y
_atom_site_fract_z
Si Si1 0.145191 0.991661 0.118200
Si Si2 0.068278 0.532443 0.454301
Si Si3 0.751307 0.719926 0.089218
Si Si4 0.175673 0.650826 0.148044
Si Si5 0.000000 0.365484 0.750000
O O1 0.177699 0.823785 0.155835
O O2 0.207428 0.067081 0.091279
O O3 0.199835 0.084158 0.227398
O O4 0.000000 0.000000 0.000000
O O5 0.156750 0.661289 0.549261
O O6 0.133583 0.390262 0.533911
O O7 0.933628 0.569708 0.386379
O O8 0.058716 0.539846 0.358456
O O9 0.895284 0.731336 0.211849
O O10 0.750000 0.750000 0.000000
#
# Coordination Sequence:
#
# PCOD9274872 Si02
#       5
#     8   8   8   8   4
#     4  12  24  41  66 101 135 177 228 286 339 404
#     4  10  21  40  64  95 130 176 222 284 340 402
#     4  10  21  38  63  93 126 176 220 269 333 414
#     4  11  24  38  67  99 134 168 231 286 337 399
#     4  10  20  38  66  86 136 178 222 262 350 408
#
# _framework density 19.933101000000001
#
# number of rings (size 3 to 8) (size 9 to 14) (size 15 to 20)
#    0.000    1.333    4.444    1.333    3.111    0.000 
#    0.000    4.444    0.000    2.667    0.000    0.000 
#    0.000    0.000    0.000    0.000    0.000    0.000 
#
# Total GULP energy -100258.568176 kJ/mol
# GULP energy per Si atom -5569.920454 kJ/mol
# Density = 1.988773 g / cm^3
# Si number density = 19.933101 Si / 1000 Ang^3
#
#
#
# Elastic Constant Matrix: (Units=GPa)
#
#
# Indices 1 2 3 4 5 6 
#
# 1 50.7585 0.8529 31.5503 0.0000 9.1298 0.0000
# 2 0.8529 114.6302 50.5604 0.0000 -2.7661 0.0000
# 3 31.5503 50.5604 141.3307 0.0000 4.5593 0.0000
# 4 0.0000 0.0000 0.0000 35.6550 0.0000 -6.7651
# 5 9.1298 -2.7661 4.5593 0.0000 52.4477 0.0000
# 6 0.0000 0.0000 0.0000 -6.7651 0.0000 18.9304
#
#
#
# Elastic Compliance Matrix: (Units=1/GPa)
#
#
# Indices 1 2 3 4 5 6 
#
# 1 0.024115 0.002445 -0.006144 0.000000 -0.003535 0.000000
# 2 0.002445 0.010646 -0.004371 0.000000 0.000516 0.000000
# 3 -0.006144 -0.004371 0.010012 0.000000 -0.000031 0.000000
# 4 0.000000 0.000000 0.000000 0.030087 0.000000 0.010752
# 5 -0.003535 0.000516 -0.000031 0.000000 0.019712 0.000000
# 6 0.000000 0.000000 0.000000 0.010752 0.000000 0.056668
#
#
# Mechanical properties :
#
#
# Convention : Reuss Voigt Hill
#
# Bulk Modulus (GPa) = 34.92476 52.51629 43.72053
# Shear Modulus (GPa) = 28.26092 36.32367 32.29229
#
# Velocity S-wave (km/s) = 3.76944 4.27345 4.02933
# Velocity P-wave (km/s) = 6.04185 7.12413 6.60519
#
# Compressibility (1/GPa) = 0.02863298
#
# Stress axis : x y z
#
# Youngs Moduli (GPa) = 41.46819 93.93280 99.88089
#
# Poissons Ratio (x) = -0.22969 0.61368
# Poissons Ratio (y) = -0.10140 0.43658
# Poissons Ratio (z) = 0.25478 0.41058
#
# Static dielectric constant tensor:
#      x y z
#    x 1.778330 0.000000 -0.019080 
#    y 0.000000 1.717690 0.000000 
#    z -0.019080 0.000000 1.766980 
# 
# From -- ./inp_files/102417.got.cif
#   From: 2010.05.17/outbox.cif.g08.bks.cpg/sg15_52_cif.got.tgz:102417.got - 2010.06.03 18:47:42.
