data_PCOD9274286
_publ_section_title
;
Structure prediction by ZEFSAII (Michael W. Deem and Ramdas Pophale) SiO2 
 PCOD9274286
Probable space group: C 2/C
;
_chemical_formula_sum "Si O2"
_cell_formula_units_Z 52
_cell_length_a 19.647089
_cell_length_b 17.212179
_cell_length_c 9.100725
_cell_angle_alpha 90.000000
_cell_angle_beta 128.600454
_cell_angle_gamma 90.000000
_cell_volume 2405.180475
_symmetry_space_group_name_H-M "C 2/C"
_symmetry_group_IT_number 15
_symmetry_cell_setting 'monoclinic'
loop_
_space_group_symop_operation_xyz
x,y,z
-x,y,1/2-z
-x,-y,-z
x,-y,1/2+z
1/2+x,1/2+y,z
1/2-x,1/2+y,1/2-z
1/2-x,1/2-y,-z
1/2+x,1/2-y,1/2+z
loop_
_atom_site_type_symbol
_atom_site_label
_atom_site_fract_x
_atom_site_fract_y
_atom_site_fract_z
Si Si1 0.500000 0.602046 0.250000
Si Si2 0.151409 0.831979 0.425125
Si Si3 0.347033 0.633869 0.230024
Si Si4 0.151122 0.338016 0.931515
Si Si5 0.215341 0.612322 0.820021
Si Si6 0.434735 0.000028 0.278369
Si Si7 0.874783 0.043558 0.842747
O O1 0.429925 0.654059 0.241638
O O2 0.547212 0.549447 0.435933
O O3 0.147678 0.841087 0.594864
O O4 0.115912 0.746362 0.339019
O O5 0.253279 0.840378 0.515448
O O6 0.106758 0.897741 0.266478
O O7 0.351508 0.539808 0.247339
O O8 0.261878 0.654229 0.019701
O O9 0.096633 0.414015 0.813644
O O10 0.165368 0.339213 0.127420
O O11 0.150249 0.548959 0.798356
O O12 0.291858 0.572146 0.827018
O O13 0.500000 0.962282 0.250000
O O14 0.500000 0.000000 0.500000
#
# Coordination Sequence:
#
# PCOD9274286 Si02
#       7
#     4   8   8   8   8   8   8
#     4  10  22  36  52  84 124 152 196 258 296 368
#     4  10  22  39  68  90 123 178 206 265 323 388
#     4  11  21  36  63  91 123 163 213 257 317 383
#     4  10  22  43  61  92 128 160 223 260 326 388
#     4  10  21  39  62  89 126 161 210 267 319 386
#     4  12  24  40  67  96 128 169 217 280 325 385
#     4  10  20  38  62  90 123 162 212 259 312 383
#
# _framework density 21.619999
#
# number of rings (size 3 to 8) (size 9 to 14) (size 15 to 20)
#    0.000    1.538    1.538    5.077    2.154    1.231 
#    2.769    0.000    3.385    0.000    0.000    0.000 
#    0.000    0.000    0.000    0.000    0.000    0.000 
#
# Total GULP energy -145179.193742 kJ/mol
# GULP energy per Si atom -5583.815144 kJ/mol
# Density = 2.157079 g / cm^3
# Si number density = 21.619999 Si / 1000 Ang^3
#
#
#
# Elastic Constant Matrix: (Units=GPa)
#
#
# Indices 1 2 3 4 5 6 
#
# 1 94.6564 18.4845 41.8700 0.0000 -20.1631 0.0000
# 2 18.4845 91.8966 29.2191 0.0000 -0.4574 0.0000
# 3 41.8700 29.2191 138.1548 0.0000 -17.7431 0.0000
# 4 0.0000 0.0000 0.0000 18.2675 0.0000 -3.7966
# 5 -20.1631 -0.4574 -17.7431 0.0000 40.0351 0.0000
# 6 0.0000 0.0000 0.0000 -3.7966 0.0000 3.9895
#
#
#
# Elastic Compliance Matrix: (Units=1/GPa)
#
#
# Indices 1 2 3 4 5 6 
#
# 1 0.013372 -0.001709 -0.002999 0.000000 0.005386 0.000000
# 2 -0.001709 0.011924 -0.002223 0.000000 -0.001710 0.000000
# 3 -0.002999 -0.002223 0.008928 0.000000 0.002421 0.000000
# 4 0.000000 0.000000 0.000000 0.068238 0.000000 0.064938
# 5 0.005386 -0.001710 0.002421 0.000000 0.028744 0.000000
# 6 0.000000 0.000000 0.000000 0.064938 0.000000 0.312452
#
#
# Mechanical properties :
#
#
# Convention : Reuss Voigt Hill
#
# Bulk Modulus (GPa) = 49.11489 55.98389 52.54939
# Shear Modulus (GPa) = 10.76866 28.13404 19.45135
#
# Velocity S-wave (km/s) = 2.23421 3.61126 3.00274
# Velocity P-wave (km/s) = 5.42423 6.58324 6.03164
#
# Compressibility (1/GPa) = 0.02036043
#
# Stress axis : x y z
#
# Youngs Moduli (GPa) = 74.78106 83.86399 112.00111
#
# Poissons Ratio (x) = 0.14335 0.33595
# Poissons Ratio (y) = 0.12782 0.24903
# Poissons Ratio (z) = 0.22431 0.18647
#
# Static dielectric constant tensor:
#      x y z
#    x 1.836040 0.000000 0.091510 
#    y 0.000000 1.758600 0.000000 
#    z 0.091510 0.000000 1.876470 
# 
# From -- ./inp_files/57056.got.cif
#   From: 2010.05.17/outbox.cif.g08.bks.cpg/sg15_29_cif.got.tgz:57056.got - 2010.06.03 18:47:42.
