data_PCOD9274009
_publ_section_title
;
Structure prediction by ZEFSAII (Michael W. Deem and Ramdas Pophale) SiO2 
 PCOD9274009
Probable space group: C 2/C
;
_chemical_formula_sum "Si O2"
_cell_formula_units_Z 44
_cell_length_a 8.567081
_cell_length_b 23.748724
_cell_length_c 13.216883
_cell_angle_alpha 90.000000
_cell_angle_beta 55.288166
_cell_angle_gamma 90.000000
_cell_volume 2210.487112
_symmetry_space_group_name_H-M "C 2/C"
_symmetry_group_IT_number 15
_symmetry_cell_setting 'monoclinic'
loop_
_space_group_symop_operation_xyz
x,y,z
-x,y,1/2-z
-x,-y,-z
x,-y,1/2+z
1/2+x,1/2+y,z
1/2-x,1/2+y,1/2-z
1/2-x,1/2-y,-z
1/2+x,1/2-y,1/2+z
loop_
_atom_site_type_symbol
_atom_site_label
_atom_site_fract_x
_atom_site_fract_y
_atom_site_fract_z
Si Si1 0.354473 0.386364 0.212219
Si Si2 0.000000 0.106579 0.250000
Si Si3 0.141148 0.329018 0.954836
Si Si4 0.490466 0.057199 0.569757
Si Si5 0.286330 0.217169 0.847549
Si Si6 0.084850 0.942580 0.507215
O O1 0.500000 0.383963 0.250000
O O2 0.253058 0.327174 0.226547
O O3 0.198431 0.434870 0.293926
O O4 0.456116 0.399712 0.068486
O O5 0.184863 0.144046 0.169762
O O6 0.995655 0.071356 0.148636
O O7 0.128015 0.266149 0.913866
O O8 0.995526 0.381622 0.009937
O O9 0.200984 0.315236 0.049142
O O10 0.687585 0.056362 0.558993
O O11 0.500000 0.000000 0.500000
O O12 0.500000 0.239879 0.750000
O O13 0.000000 0.000000 0.500000
#
# Coordination Sequence:
#
# PCOD9274009 Si02
#       6
#     8   4   8   8   8   8
#     4  12  24  42  66  94 132 179 220 271 342 400
#     4  10  20  38  60  98 126 160 220 256 326 398
#     4  10  21  36  68  95 126 167 217 276 331 394
#     4  11  23  42  66  97 133 174 225 277 338 407
#     4  11  19  40  68  96 123 168 228 278 327 405
#     4  11  24  40  65  96 130 173 217 275 329 400
#
# _framework density 19.905114000000001
#
# number of rings (size 3 to 8) (size 9 to 14) (size 15 to 20)
#    0.000    1.091    6.364    1.636    6.364    0.000 
#    0.000    0.909    4.000    0.000    0.000    0.000 
#    0.000    0.000    0.000    0.000    0.000    0.000 
#
# Total GULP energy -122541.353997 kJ/mol
# GULP energy per Si atom -5570.061545 kJ/mol
# Density = 1.985981 g / cm^3
# Si number density = 19.905114 Si / 1000 Ang^3
#
#
#
# Elastic Constant Matrix: (Units=GPa)
#
#
# Indices 1 2 3 4 5 6 
#
# 1 62.8559 20.4000 34.9329 0.0000 16.3959 0.0000
# 2 20.4000 130.5184 37.7098 0.0000 15.1667 0.0000
# 3 34.9329 37.7098 124.2160 0.0000 16.2290 0.0000
# 4 0.0000 0.0000 0.0000 23.7032 0.0000 -3.9361
# 5 16.3959 15.1667 16.2290 0.0000 27.0608 0.0000
# 6 0.0000 0.0000 0.0000 -3.9361 0.0000 22.8540
#
#
#
# Elastic Compliance Matrix: (Units=1/GPa)
#
#
# Indices 1 2 3 4 5 6 
#
# 1 0.021184 -0.000910 -0.004417 0.000000 -0.009676 0.000000
# 2 -0.000910 0.008745 -0.001986 0.000000 -0.003158 0.000000
# 3 -0.004417 -0.001986 0.010200 0.000000 -0.002328 0.000000
# 4 0.000000 0.000000 0.000000 0.043430 0.000000 0.007480
# 5 -0.009676 -0.003158 -0.002328 0.000000 0.045982 0.000000
# 6 0.000000 0.000000 0.000000 0.007480 0.000000 0.045044
#
#
# Mechanical properties :
#
#
# Convention : Reuss Voigt Hill
#
# Bulk Modulus (GPa) = 39.21372 55.96397 47.58885
# Shear Modulus (GPa) = 25.28925 29.69344 27.49135
#
# Velocity S-wave (km/s) = 3.56826 3.86651 3.72037
# Velocity P-wave (km/s) = 6.05968 6.93611 6.51265
#
# Compressibility (1/GPa) = 0.02550128
#
# Stress axis : x y z
#
# Youngs Moduli (GPa) = 47.20653 114.35208 98.04215
#
# Poissons Ratio (x) = 0.10412 0.43304
# Poissons Ratio (y) = 0.04298 0.19472
# Poissons Ratio (z) = 0.20850 0.22711
#
# Static dielectric constant tensor:
#      x y z
#    x 1.680280 0.000000 -0.042230 
#    y 0.000000 1.805870 0.000000 
#    z -0.042230 0.000000 1.831450 
# 
# From -- ./inp_files/79709.got.cif
#   From: 2010.05.17/outbox.cif.g08.bks.cpg/sg15_40_cif.got.tgz:79709.got - 2010.06.03 18:47:42.
