data_PCOD9274775
_publ_section_title
;
Structure prediction by ZEFSAII (Michael W. Deem and Ramdas Pophale) SiO2 
 PCOD9274775
Probable space group: C 2/C
;
_chemical_formula_sum "Si O2"
_cell_formula_units_Z 56
_cell_length_a 19.427371
_cell_length_b 16.568763
_cell_length_c 7.990168
_cell_angle_alpha 90.000000
_cell_angle_beta 51.974576
_cell_angle_gamma 90.000000
_cell_volume 2026.009809
_symmetry_space_group_name_H-M "C 2/C"
_symmetry_group_IT_number 15
_symmetry_cell_setting 'monoclinic'
loop_
_space_group_symop_operation_xyz
x,y,z
-x,y,1/2-z
-x,-y,-z
x,-y,1/2+z
1/2+x,1/2+y,z
1/2-x,1/2+y,1/2-z
1/2-x,1/2-y,-z
1/2+x,1/2-y,1/2+z
loop_
_atom_site_type_symbol
_atom_site_label
_atom_site_fract_x
_atom_site_fract_y
_atom_site_fract_z
Si Si1 0.000000 0.976900 0.250000
Si Si2 0.172571 0.485331 0.022498
Si Si3 0.947736 0.687097 0.584137
Si Si4 0.627740 0.757593 0.960410
Si Si5 0.000000 0.500000 0.500000
Si Si6 0.665152 0.405302 0.551583
Si Si7 0.600735 0.658361 0.486580
Si Si8 0.270947 0.881619 0.884964
O O1 0.977027 0.907419 0.421314
O O2 0.085435 0.032247 0.142256
O O3 0.201405 0.579059 0.982386
O O4 0.074740 0.489462 0.236607
O O5 0.244476 0.449065 0.042176
O O6 0.182802 0.438726 0.832197
O O7 0.880526 0.694400 0.845901
O O8 0.981113 0.597927 0.489691
O O9 0.917494 0.746808 0.480939
O O10 0.031393 0.734927 0.530557
O O11 0.657038 0.666148 0.933990
O O12 0.691085 0.798108 0.732338
O O13 0.652696 0.355045 0.739622
O O14 0.667164 0.624808 0.524365
#
# Coordination Sequence:
#
# PCOD9274775 Si02
#       8
#     4   8   8   8   4   8   8   8
#     4  12  20  42  64  94 128 168 208 282 340 408
#     4  11  24  40  65 101 128 176 221 271 333 393
#     4  10  21  38  61  97 123 176 217 271 321 393
#     4  10  20  38  65  90 126 165 227 276 318 374
#     4  12  22  38  68  90 138 172 222 264 328 392
#     4  10  22  38  66  98 122 171 223 275 325 394
#     4  10  23  38  65  93 131 165 220 272 339 389
#     4  11  22  43  66  97 134 172 224 282 326 398
#
# _framework density 27.640537999999999
#
# number of rings (size 3 to 8) (size 9 to 14) (size 15 to 20)
#    0.000    1.429    4.286    2.143    2.000    2.286 
#    0.000    2.857    0.000    2.571    0.000    0.000 
#    0.000    0.000    0.000    0.000    0.000    0.000 
#
# Total GULP energy -155981.166869 kJ/mol
# GULP energy per Si atom -5570.755960 kJ/mol
# Density = 2.757763 g / cm^3
# Si number density = 27.640538 Si / 1000 Ang^3
#
#
#
# Elastic Constant Matrix: (Units=GPa)
#
#
# Indices 1 2 3 4 5 6 
#
# 1 87.5073 28.7096 25.9328 0.0000 -19.9557 0.0000
# 2 28.7096 184.1040 53.4602 0.0000 -14.8373 0.0000
# 3 25.9328 53.4602 112.3778 0.0000 -15.2092 0.0000
# 4 0.0000 0.0000 0.0000 -60.8432 0.0000 -25.1956
# 5 -19.9557 -14.8373 -15.2092 0.0000 37.4005 0.0000
# 6 0.0000 0.0000 0.0000 -25.1956 0.0000 5.8006
#
#
#
# Elastic Compliance Matrix: (Units=1/GPa)
#
#
# Indices 1 2 3 4 5 6 
#
# 1 0.013732 -0.001122 -0.001803 0.000000 0.006149 0.000000
# 2 -0.001122 0.006460 -0.002697 0.000000 0.000867 0.000000
# 3 -0.001803 -0.002697 0.010924 0.000000 0.002410 0.000000
# 4 0.000000 0.000000 0.000000 -0.005873 0.000000 -0.025508
# 5 0.006149 0.000867 0.002410 0.000000 0.031343 0.000000
# 6 0.000000 0.000000 0.000000 -0.025508 0.000000 0.061598
#
#
# Mechanical properties :
#
#
# Convention : Reuss Voigt Hill
#
# Bulk Modulus (GPa) = 50.32217 66.68827 58.50522
# Shear Modulus (GPa) = 36.75079 14.86401 25.80740
#
# Velocity S-wave (km/s) = 3.65032 2.32148 3.05893
# Velocity P-wave (km/s) = 6.00099 5.60045 5.80418
#
# Compressibility (1/GPa) = 0.01987196
#
# Stress axis : x y z
#
# Youngs Moduli (GPa) = 72.82091 154.80666 91.54461
#
# Poissons Ratio (x) = 0.17376 0.16504
# Poissons Ratio (y) = 0.08174 0.24686
# Poissons Ratio (z) = 0.13128 0.41745
#
# Static dielectric constant tensor:
#      x y z
#    x 2.123680 0.000000 0.041940 
#    y 0.000000 2.165730 0.000000 
#    z 0.041940 0.000000 2.334490 
# 
# From -- ./inp_files/123338.got.cif
#   From: 2010.05.17/outbox.cif.g08.bks.cpg/sg15_62_cif.got.tgz:123338.got - 2010.06.03 18:47:42.
