data_PCOD9274433
_publ_section_title
;
Structure prediction by ZEFSAII (Michael W. Deem and Ramdas Pophale) SiO2 
 PCOD9274433
Probable space group: C 2/C
;
_chemical_formula_sum "Si O2"
_cell_formula_units_Z 64
_cell_length_a 8.051183
_cell_length_b 31.737818
_cell_length_c 21.203368
_cell_angle_alpha 90.000000
_cell_angle_beta 35.527067
_cell_angle_gamma 90.000000
_cell_volume 3148.350945
_symmetry_space_group_name_H-M "C 2/C"
_symmetry_group_IT_number 15
_symmetry_cell_setting 'monoclinic'
loop_
_space_group_symop_operation_xyz
x,y,z
-x,y,1/2-z
-x,-y,-z
x,-y,1/2+z
1/2+x,1/2+y,z
1/2-x,1/2+y,1/2-z
1/2-x,1/2-y,-z
1/2+x,1/2-y,1/2+z
loop_
_atom_site_type_symbol
_atom_site_label
_atom_site_fract_x
_atom_site_fract_y
_atom_site_fract_z
Si Si1 0.577384 0.590284 0.152607
Si Si2 0.429810 0.758741 0.125303
Si Si3 0.113739 0.540672 0.006080
Si Si4 0.751287 0.069369 0.725077
Si Si5 0.217515 0.663764 0.741030
Si Si6 0.081279 0.181671 0.152264
Si Si7 0.269956 0.785375 0.047117
Si Si8 0.885176 0.519575 0.213346
O O1 0.500000 0.594923 0.250000
O O2 0.525462 0.635942 0.138782
O O3 0.385133 0.550420 0.193682
O O4 0.905932 0.577719 0.046558
O O5 0.399077 0.802502 0.172398
O O6 0.392965 0.718496 0.180491
O O7 0.233194 0.762072 0.125300
O O8 0.750000 0.750000 0.000000
O O9 0.061550 0.535956 0.098080
O O10 0.439442 0.555190 0.896611
O O11 0.000000 0.500000 0.000000
O O12 0.500000 0.071772 0.750000
O O13 0.755334 0.115900 0.753497
O O14 0.677357 0.028371 0.788854
O O15 0.518816 0.680742 0.621544
O O16 0.000000 0.663844 0.750000
O O17 0.000000 0.180521 0.250000
O O18 0.418451 0.193056 0.046658
O O19 0.250000 0.750000 0.000000
O O20 0.000000 0.517574 0.250000
#
# Coordination Sequence:
#
# PCOD9274433 Si02
#       8
#     8   8   8   8   8   8   8   8
#     4   9  19  38  61  91 123 162 213 267 318 389
#     4  10  21  39  58  89 122 163 210 256 316 387
#     4  11  21  41  67  94 128 174 217 270 337 395
#     4  10  23  41  63  96 132 170 217 270 335 400
#     4  11  22  41  63  91 130 168 209 271 325 387
#     4  10  20  38  63  89 123 160 212 266 321 385
#     4  11  22  38  61  87 123 168 211 262 324 389
#     4  10  22  42  64  93 131 169 219 273 334 395
#
# _framework density 20.328102000000001
#
# number of rings (size 3 to 8) (size 9 to 14) (size 15 to 20)
#    0.000    1.750    1.250    3.750    0.000    2.000 
#    9.000    8.750    0.000    0.000    0.000    0.000 
#    0.000    0.000    0.000    0.000    0.000    0.000 
#
# Total GULP energy -178277.275280 kJ/mol
# GULP energy per Si atom -5571.164852 kJ/mol
# Density = 2.028183 g / cm^3
# Si number density = 20.328102 Si / 1000 Ang^3
#
#
#
# Elastic Constant Matrix: (Units=GPa)
#
#
# Indices 1 2 3 4 5 6 
#
# 1 84.3536 48.1143 24.8157 0.0000 -0.2709 0.0000
# 2 48.1143 185.0581 32.3975 0.0000 -4.9744 0.0000
# 3 24.8157 32.3975 84.9689 -0.0011 -16.9449 0.0002
# 4 0.0000 0.0000 -0.0011 -3.9969 0.0001 -5.9943
# 5 -0.2709 -4.9744 -16.9449 0.0001 34.3009 0.0000
# 6 0.0000 0.0000 0.0002 -5.9943 0.0000 19.1037
#
#
#
# Elastic Compliance Matrix: (Units=1/GPa)
#
#
# Indices 1 2 3 4 5 6 
#
# 1 0.014740 -0.003281 -0.003467 0.000000 -0.002072 0.000000
# 2 -0.003281 0.006523 -0.001492 0.000000 0.000183 0.000000
# 3 -0.003467 -0.001492 0.014756 -0.000002 0.007046 -0.000001
# 4 0.000000 0.000000 -0.000002 -0.170133 0.000000 -0.053384
# 5 -0.002072 0.000183 0.007046 0.000000 0.032644 0.000000
# 6 0.000000 0.000000 -0.000001 -0.053384 0.000000 0.035595
#
#
# Mechanical properties :
#
#
# Convention : Reuss Voigt Hill
#
# Bulk Modulus (GPa) = 51.18404 62.78175 56.98289
# Shear Modulus (GPa) = -116.59829 26.48509 -45.05660
#
# Velocity S-wave (km/s) = -7.58173 3.61346 -4.71305
# Velocity P-wave (km/s) = 7.17008 6.95419 1.23476
#
# Compressibility (1/GPa) = 0.01953734
#
# Stress axis : x y z
#
# Youngs Moduli (GPa) = 67.84457 153.30525 67.77045
#
# Poissons Ratio (x) = 0.50299 0.23496
# Poissons Ratio (y) = 0.22260 0.10114
# Poissons Ratio (z) = 0.23522 0.22880
#
# Static dielectric constant tensor:
#      x y z
#    x 1.732510 0.000000 -0.104980 
#    y 0.000000 1.795530 0.000010 
#    z -0.104980 0.000010 3.053430 
# 
# From -- ./inp_files/266727.got.cif
#   From: 2010.05.17/outbox.cif.g08.bks.cpg/sg15_134_cif.got.tgz:266727.got - 2010.06.03 18:47:42.
