data_PCOD9274931
_publ_section_title
;
Structure prediction by ZEFSAII (Michael W. Deem and Ramdas Pophale) SiO2 
 PCOD9274931
Probable space group: C 2/C
;
_chemical_formula_sum "Si O2"
_cell_formula_units_Z 64
_cell_length_a 15.486822
_cell_length_b 18.287800
_cell_length_c 13.944643
_cell_angle_alpha 90.000000
_cell_angle_beta 50.637346
_cell_angle_gamma 90.000000
_cell_volume 3053.467631
_symmetry_space_group_name_H-M "C 2/C"
_symmetry_group_IT_number 15
_symmetry_cell_setting 'monoclinic'
loop_
_space_group_symop_operation_xyz
x,y,z
-x,y,1/2-z
-x,-y,-z
x,-y,1/2+z
1/2+x,1/2+y,z
1/2-x,1/2+y,1/2-z
1/2-x,1/2-y,-z
1/2+x,1/2-y,1/2+z
loop_
_atom_site_type_symbol
_atom_site_label
_atom_site_fract_x
_atom_site_fract_y
_atom_site_fract_z
Si Si1 0.656306 0.940849 0.908221
Si Si2 0.723304 0.187990 0.734318
Si Si3 0.711747 0.916393 0.582062
Si Si4 0.367508 0.072502 0.849973
Si Si5 0.082162 0.394746 0.486509
Si Si6 0.935511 0.006312 0.891267
Si Si7 0.055711 0.890834 0.456962
Si Si8 0.813509 0.847275 0.687986
O O1 0.770609 0.916613 0.778662
O O2 0.627358 0.026175 0.918645
O O3 0.663175 0.924708 0.016453
O O4 0.550420 0.896872 0.938467
O O5 0.676513 0.140604 0.679083
O O6 0.647861 0.164637 0.878226
O O7 0.850945 0.162140 0.650381
O O8 0.715354 0.274717 0.733875
O O9 0.620407 0.891078 0.569797
O O10 0.746202 0.856526 0.635626
O O11 0.826317 0.943673 0.449852
O O12 0.668851 0.991794 0.660970
O O13 0.500000 0.073867 0.750000
O O14 0.000000 0.985407 0.750000
O O15 0.017411 0.053418 0.901258
O O16 0.901364 0.937802 0.981956
O O17 0.943544 0.851650 0.572072
#
# Coordination Sequence:
#
# PCOD9274931 Si02
#       8
#     8   8   8   8   8   8   8   8
#     4  10  23  41  65 101 126 167 220 276 328 383
#     4  12  24  43  65  91 135 179 211 267 330 400
#     4  10  22  40  65 102 125 167 219 275 326 384
#     4  11  22  40  68  99 128 166 225 279 323 373
#     4  10  22  39  72  94 127 167 222 275 326 381
#     4  10  20  38  66  94 127 159 208 270 323 384
#     4  10  24  40  62  94 126 168 214 263 321 388
#     4  11  27  41  63  91 141 172 215 265 331 403
#
# _framework density 20.959776999999999
#
# number of rings (size 3 to 8) (size 9 to 14) (size 15 to 20)
#    0.000    1.500    2.500    1.500   12.250    1.000 
#    0.000    0.625    5.500    0.000    0.000    0.000 
#    0.000    0.000    0.000    0.000    0.000    0.000 
#
# Total GULP energy -178891.684133 kJ/mol
# GULP energy per Si atom -5590.365129 kJ/mol
# Density = 2.091207 g / cm^3
# Si number density = 20.959777 Si / 1000 Ang^3
#
#
#
# Elastic Constant Matrix: (Units=GPa)
#
#
# Indices 1 2 3 4 5 6 
#
# 1 72.6267 10.6560 9.2575 0.0000 -4.4692 0.0000
# 2 10.6560 45.3048 -2.3594 0.0000 -9.1932 0.0000
# 3 9.2575 -2.3594 50.0565 0.0000 -8.7732 0.0000
# 4 0.0000 0.0000 0.0000 29.6529 0.0000 -0.2039
# 5 -4.4692 -9.1932 -8.7732 0.0000 34.8751 0.0000
# 6 0.0000 0.0000 0.0000 -0.2039 0.0000 9.2099
#
#
#
# Elastic Compliance Matrix: (Units=1/GPa)
#
#
# Indices 1 2 3 4 5 6 
#
# 1 0.014666 -0.003551 -0.002840 0.000000 0.000229 0.000000
# 2 -0.003551 0.024431 0.002989 0.000000 0.006737 0.000000
# 3 -0.002840 0.002989 0.021673 0.000000 0.005876 0.000000
# 4 0.000000 0.000000 0.000000 0.033729 0.000000 0.000747
# 5 0.000229 0.006737 0.005876 0.000000 0.031957 0.000000
# 6 0.000000 0.000000 0.000000 0.000747 0.000000 0.108595
#
#
# Mechanical properties :
#
#
# Convention : Reuss Voigt Hill
#
# Bulk Modulus (GPa) = 18.52985 22.56623 20.54804
# Shear Modulus (GPa) = 19.24239 24.77650 22.00944
#
# Velocity S-wave (km/s) = 3.03324 3.44189 3.24401
# Velocity P-wave (km/s) = 4.59644 5.15610 4.88429
#
# Compressibility (1/GPa) = 0.05396697
#
# Stress axis : x y z
#
# Youngs Moduli (GPa) = 68.18440 40.93220 46.13956
#
# Poissons Ratio (x) = 0.14535 0.13102
# Poissons Ratio (y) = 0.24212 -0.13791
# Poissons Ratio (z) = 0.19362 -0.12235
#
# Static dielectric constant tensor:
#      x y z
#    x 1.801630 0.000000 -0.005140 
#    y 0.000000 1.729360 0.000000 
#    z -0.005140 0.000000 1.756170 
# 
# From -- ./inp_files/155498.got.cif
#   From: 2010.05.17/outbox.cif.g08.bks.cpg/sg15_78_cif.got.tgz:155498.got - 2010.06.03 18:47:42.
