data_PCOD9274754
_publ_section_title
;
Structure prediction by ZEFSAII (Michael W. Deem and Ramdas Pophale) SiO2 
 PCOD9274754
Probable space group: C 2/C
;
_chemical_formula_sum "Si O2"
_cell_formula_units_Z 32
_cell_length_a 5.034857
_cell_length_b 20.730520
_cell_length_c 15.912815
_cell_angle_alpha 90.000000
_cell_angle_beta 99.118415
_cell_angle_gamma 90.000000
_cell_volume 1639.914345
_symmetry_space_group_name_H-M "C 2/C"
_symmetry_group_IT_number 15
_symmetry_cell_setting 'monoclinic'
loop_
_space_group_symop_operation_xyz
x,y,z
-x,y,1/2-z
-x,-y,-z
x,-y,1/2+z
1/2+x,1/2+y,z
1/2-x,1/2+y,1/2-z
1/2-x,1/2-y,-z
1/2+x,1/2-y,1/2+z
loop_
_atom_site_type_symbol
_atom_site_label
_atom_site_fract_x
_atom_site_fract_y
_atom_site_fract_z
Si Si1 0.304204 0.933991 0.072576
Si Si2 0.500000 0.712886 0.750000
Si Si3 0.254806 0.585146 0.473810
Si Si4 0.000000 0.378205 0.250000
Si Si5 0.240133 0.837073 0.693463
O O1 0.466536 0.921157 0.165574
O O2 0.275503 0.010415 0.055250
O O3 0.475924 0.900932 0.006725
O O4 0.999933 0.908665 0.051704
O O5 0.739609 0.667489 0.733066
O O6 0.353654 0.764781 0.681267
O O7 0.320922 0.626870 0.395387
O O8 0.500000 0.870428 0.750000
O O9 0.000000 0.834414 0.750000
#
# Coordination Sequence:
#
# PCOD9274754 Si02
#       5
#     8   4   8   4   8
#     4  10  23  38  62  87 125 147 190 249 294 363
#     4  10  22  39  58  87 118 158 208 240 268 360
#     4  10  21  42  59  93 115 149 199 246 294 341
#     4  12  22  41  60  85 122 164 188 234 314 342
#     4  10  20  38  65  83 116 158 196 250 281 337
#
# _framework density 19.513216
#
# number of rings (size 3 to 8) (size 9 to 14) (size 15 to 20)
#    0.750    1.000    1.250    3.000    1.750    0.000 
#    2.250    7.500    0.000    0.000    0.000    0.000 
#    0.000    0.000    0.000    0.000    0.000    0.000 
#
# Total GULP energy -89077.759621 kJ/mol
# GULP energy per Si atom -5567.359976 kJ/mol
# Density = 1.946880 g / cm^3
# Si number density = 19.513216 Si / 1000 Ang^3
#
#
#
# Elastic Constant Matrix: (Units=GPa)
#
#
# Indices 1 2 3 4 5 6 
#
# 1 132.7403 28.8095 29.0278 0.0000 -8.2227 0.0000
# 2 28.8095 32.8027 28.6688 0.0000 0.6719 0.0000
# 3 29.0278 28.6688 95.6082 0.0000 11.8747 0.0000
# 4 0.0000 0.0000 0.0000 -5.1433 0.0000 -14.4762
# 5 -8.2227 0.6719 11.8747 0.0000 23.2343 0.0000
# 6 0.0000 0.0000 0.0000 -14.4762 0.0000 7.9784
#
#
#
# Elastic Compliance Matrix: (Units=1/GPa)
#
#
# Indices 1 2 3 4 5 6 
#
# 1 0.009702 -0.007548 -0.001213 0.000000 0.004271 0.000000
# 2 -0.007548 0.047850 -0.012336 0.000000 0.002250 0.000000
# 3 -0.001213 -0.012336 0.015521 0.000000 -0.008005 0.000000
# 4 0.000000 0.000000 0.000000 -0.031838 0.000000 -0.057767
# 5 0.004271 0.002250 -0.008005 0.000000 0.048578 0.000000
# 6 0.000000 0.000000 0.000000 -0.057767 0.000000 0.020524
#
#
# Mechanical properties :
#
#
# Convention : Reuss Voigt Hill
#
# Bulk Modulus (GPa) = 32.38474 48.24038 40.31256
# Shear Modulus (GPa) = 30.70838 16.85689 23.78264
#
# Velocity S-wave (km/s) = 3.97132 2.94236 3.49491
# Velocity P-wave (km/s) = 6.13684 6.02651 6.08193
#
# Compressibility (1/GPa) = 0.03087874
#
# Stress axis : x y z
#
# Youngs Moduli (GPa) = 103.07672 20.89881 64.43011
#
# Poissons Ratio (x) = 0.15775 0.07813
# Poissons Ratio (y) = 0.77804 0.79479
# Poissons Ratio (z) = 0.12500 0.25780
#
# Static dielectric constant tensor:
#      x y z
#    x 1.696490 0.000000 0.005060 
#    y 0.000000 1.680000 0.000000 
#    z 0.005060 0.000000 1.675910 
# 
# From -- ./inp_files/72211.got.cif
#   From: 2010.05.17/outbox.cif.g08.bks.cpg/sg15_37_cif.got.tgz:72211.got - 2010.06.03 18:47:42.
