data_PCOD9274944
_publ_section_title
;
Structure prediction by ZEFSAII (Michael W. Deem and Ramdas Pophale) SiO2 
 PCOD9274944
Probable space group: C 2/C
;
_chemical_formula_sum "Si O2"
_cell_formula_units_Z 40
_cell_length_a 8.809926
_cell_length_b 11.812858
_cell_length_c 14.498999
_cell_angle_alpha 90.000000
_cell_angle_beta 105.418035
_cell_angle_gamma 90.000000
_cell_volume 1454.613450
_symmetry_space_group_name_H-M "C 2/C"
_symmetry_group_IT_number 15
_symmetry_cell_setting 'monoclinic'
loop_
_space_group_symop_operation_xyz
x,y,z
-x,y,1/2-z
-x,-y,-z
x,-y,1/2+z
1/2+x,1/2+y,z
1/2-x,1/2+y,1/2-z
1/2-x,1/2-y,-z
1/2+x,1/2-y,1/2+z
loop_
_atom_site_type_symbol
_atom_site_label
_atom_site_fract_x
_atom_site_fract_y
_atom_site_fract_z
Si Si1 0.323947 0.913182 0.182722
Si Si2 0.452190 0.754940 0.835695
Si Si3 0.169452 0.951700 0.419005
Si Si4 0.992817 0.646105 0.953239
Si Si5 0.402137 0.609198 0.379653
O O1 0.500000 0.914079 0.250000
O O2 0.216734 0.805776 0.192003
O O3 0.355710 0.894640 0.078295
O O4 0.351833 0.943757 0.426209
O O5 0.500000 0.819339 0.750000
O O6 0.421867 0.652264 0.643138
O O7 0.475986 0.819255 0.935986
O O8 0.224981 0.027064 0.190181
O O9 0.073636 0.063371 0.378976
O O10 0.136145 0.923918 0.520656
O O11 0.921330 0.756851 0.889625
#
# Coordination Sequence:
#
# PCOD9274944 Si02
#       5
#     8   8   8   8   8
#     4  11  24  42  65 100 138 170 224 281 323 396
#     4  10  20  38  66  95 130 176 217 269 335 392
#     4   9  19  38  66  93 126 167 216 269 322 389
#     4  11  22  43  72  97 131 177 222 275 336 393
#     4   9  20  41  65  94 132 175 217 271 339 393
#
# _framework density 27.498714
#
# number of rings (size 3 to 8) (size 9 to 14) (size 15 to 20)
#    0.000    2.000    0.000    5.400    0.000    0.800 
#    0.000   20.000    0.000   24.000    0.000    0.000 
#    0.000    0.000    0.000    0.000    0.000    0.000 
#
# Total GULP energy -112086.407661 kJ/mol
# GULP energy per Si atom -5604.320383 kJ/mol
# Density = 2.743613 g / cm^3
# Si number density = 27.498714 Si / 1000 Ang^3
#
#
#
# Elastic Constant Matrix: (Units=GPa)
#
#
# Indices 1 2 3 4 5 6 
#
# 1 181.2475 84.9292 50.9319 0.0000 -5.2192 0.0000
# 2 84.9292 139.4145 43.2349 0.0000 3.7955 0.0000
# 3 50.9319 43.2349 128.7468 0.0000 -10.3093 0.0000
# 4 0.0000 0.0000 0.0000 17.5292 0.0000 0.8216
# 5 -5.2192 3.7955 -10.3093 0.0000 56.3844 0.0000
# 6 0.0000 0.0000 0.0000 0.8216 0.0000 50.7082
#
#
#
# Elastic Compliance Matrix: (Units=1/GPa)
#
#
# Indices 1 2 3 4 5 6 
#
# 1 0.008078 -0.004430 -0.001648 0.000000 0.000745 0.000000
# 2 -0.004430 0.010497 -0.001890 0.000000 -0.001462 0.000000
# 3 -0.001648 -0.001890 0.009186 0.000000 0.001654 0.000000
# 4 0.000000 0.000000 0.000000 0.057091 0.000000 -0.000925
# 5 0.000745 -0.001462 0.001654 0.000000 0.018205 0.000000
# 6 0.000000 0.000000 0.000000 -0.000925 0.000000 0.019736
#
#
# Mechanical properties :
#
#
# Convention : Reuss Voigt Hill
#
# Bulk Modulus (GPa) = 84.56348 89.73342 87.14845
# Shear Modulus (GPa) = 35.04569 42.94523 38.99546
#
# Velocity S-wave (km/s) = 3.57381 3.95614 3.76983
# Velocity P-wave (km/s) = 6.91723 7.31921 7.12106
#
# Compressibility (1/GPa) = 0.01182544
#
# Stress axis : x y z
#
# Youngs Moduli (GPa) = 123.79732 95.26202 108.85762
#
# Poissons Ratio (x) = 0.42200 0.17943
# Poissons Ratio (y) = 0.54841 0.20572
# Poissons Ratio (z) = 0.20405 0.18002
#
# Static dielectric constant tensor:
#      x y z
#    x 2.071920 0.000000 0.046390 
#    y 0.000000 2.109800 0.000000 
#    z 0.046390 0.000000 2.290770 
# 
# From -- ./inp_files/85692.got.cif
#   From: 2010.05.17/outbox.cif.g08.bks.cpg/sg15_43_cif.got.tgz:85692.got - 2010.06.03 18:47:42.
