data_PCOD9274888
_publ_section_title
;
Structure prediction by ZEFSAII (Michael W. Deem and Ramdas Pophale) SiO2 
 PCOD9274888
Probable space group: C 2/C
;
_chemical_formula_sum "Si O2"
_cell_formula_units_Z 44
_cell_length_a 12.442644
_cell_length_b 24.616568
_cell_length_c 11.726023
_cell_angle_alpha 90.000000
_cell_angle_beta 145.231748
_cell_angle_gamma 90.000000
_cell_volume 2048.154293
_symmetry_space_group_name_H-M "C 2/C"
_symmetry_group_IT_number 15
_symmetry_cell_setting 'monoclinic'
loop_
_space_group_symop_operation_xyz
x,y,z
-x,y,1/2-z
-x,-y,-z
x,-y,1/2+z
1/2+x,1/2+y,z
1/2-x,1/2+y,1/2-z
1/2-x,1/2-y,-z
1/2+x,1/2-y,1/2+z
loop_
_atom_site_type_symbol
_atom_site_label
_atom_site_fract_x
_atom_site_fract_y
_atom_site_fract_z
Si Si1 0.912142 0.057239 0.808761
Si Si2 0.341455 0.689206 0.337206
Si Si3 0.500000 0.454629 0.750000
Si Si4 0.275715 0.887522 0.567905
Si Si5 0.499474 0.794139 0.377719
Si Si6 0.300679 0.614818 0.916114
O O1 0.816229 0.101501 0.637876
O O2 0.907268 0.996725 0.757486
O O3 0.802967 0.066007 0.828617
O O4 0.135923 0.070951 0.013341
O O5 0.259425 0.667179 0.386813
O O6 0.410487 0.751514 0.389812
O O7 0.520442 0.652372 0.460976
O O8 0.191186 0.687305 0.103691
O O9 0.661629 0.414664 0.933691
O O10 0.500000 0.896718 0.750000
O O11 0.500000 0.767975 0.250000
O O12 0.373819 0.846597 0.248625
#
# Coordination Sequence:
#
# PCOD9274888 Si02
#       6
#     8   8   4   8   8   8
#     4   9  21  40  63  90 122 160 202 256 308 356
#     4  11  23  38  61  88 121 166 202 247 307 360
#     4  10  20  38  66  90 116 164 208 250 310 354
#     4   9  18  38  62  85 120 157 201 249 301 361
#     4  12  24  39  61  88 126 164 203 253 304 359
#     4  11  22  40  63  90 127 158 205 255 301 368
#
# _framework density 21.482756999999999
#
# number of rings (size 3 to 8) (size 9 to 14) (size 15 to 20)
#    0.000    1.818    1.818    3.273    1.273    0.000 
#    0.000   14.545    0.000   22.909    0.000    0.000 
#    0.000    0.000    0.000    0.000    0.000    0.000 
#
# Total GULP energy -122499.111340 kJ/mol
# GULP energy per Si atom -5568.141425 kJ/mol
# Density = 2.143386 g / cm^3
# Si number density = 21.482757 Si / 1000 Ang^3
#
#
#
# Elastic Constant Matrix: (Units=GPa)
#
#
# Indices 1 2 3 4 5 6 
#
# 1 42.8514 15.7213 11.6547 0.0000 9.5649 0.0000
# 2 15.7213 78.6582 2.8770 0.0000 4.2922 0.0000
# 3 11.6547 2.8770 83.0100 0.0000 21.2687 0.0000
# 4 0.0000 0.0000 0.0000 80.0853 0.0000 -50.4491
# 5 9.5649 4.2922 21.2687 0.0000 29.3407 0.0000
# 6 0.0000 0.0000 0.0000 -50.4491 0.0000 56.1471
#
#
#
# Elastic Compliance Matrix: (Units=1/GPa)
#
#
# Indices 1 2 3 4 5 6 
#
# 1 0.027197 -0.004998 -0.001917 0.000000 -0.006745 0.000000
# 2 -0.004998 0.013734 0.000397 0.000000 -0.000667 0.000000
# 3 -0.001917 0.000397 0.014930 0.000000 -0.010255 0.000000
# 4 0.000000 0.000000 0.000000 0.028772 0.000000 0.025852
# 5 -0.006745 -0.000667 -0.010255 0.000000 0.043813 0.000000
# 6 0.000000 0.000000 0.000000 0.025852 0.000000 0.041039
#
#
# Mechanical properties :
#
#
# Convention : Reuss Voigt Hill
#
# Bulk Modulus (GPa) = 23.35092 29.44731 26.39911
# Shear Modulus (GPa) = 25.40709 44.73240 35.06975
#
# Velocity S-wave (km/s) = 3.44273 4.56811 4.04475
# Velocity P-wave (km/s) = 5.16686 6.44676 5.84197
#
# Compressibility (1/GPa) = 0.04282487
#
# Stress axis : x y z
#
# Youngs Moduli (GPa) = 36.76872 72.81188 66.98023
#
# Poissons Ratio (x) = 0.36389 0.12840
# Poissons Ratio (y) = 0.18376 -0.02657
# Poissons Ratio (z) = 0.07049 -0.02888
#
# Static dielectric constant tensor:
#      x y z
#    x 1.859540 0.000000 -0.049340 
#    y 0.000000 1.785880 0.000000 
#    z -0.049340 0.000000 1.803650 
# 
# From -- ./inp_files/156666.got.cif
#   From: 2010.05.17/outbox.cif.g08.bks.cpg/sg15_79_cif.got.tgz:156666.got - 2010.06.03 18:47:42.
