data_PCOD9274307
_publ_section_title
;
Structure prediction by ZEFSAII (Michael W. Deem and Ramdas Pophale) SiO2 
 PCOD9274307
Probable space group: C 2/C
;
_chemical_formula_sum "Si O2"
_cell_formula_units_Z 60
_cell_length_a 6.566927
_cell_length_b 23.248688
_cell_length_c 18.155945
_cell_angle_alpha 90.000000
_cell_angle_beta 74.464854
_cell_angle_gamma 90.000000
_cell_volume 2670.644276
_symmetry_space_group_name_H-M "C 2/C"
_symmetry_group_IT_number 15
_symmetry_cell_setting 'monoclinic'
loop_
_space_group_symop_operation_xyz
x,y,z
-x,y,1/2-z
-x,-y,-z
x,-y,1/2+z
1/2+x,1/2+y,z
1/2-x,1/2+y,1/2-z
1/2-x,1/2-y,-z
1/2+x,1/2-y,1/2+z
loop_
_atom_site_type_symbol
_atom_site_label
_atom_site_fract_x
_atom_site_fract_y
_atom_site_fract_z
Si Si1 0.057344 0.343694 0.824537
Si Si2 0.974413 0.219466 0.462932
Si Si3 0.701667 0.431524 0.631557
Si Si4 0.135218 0.450501 0.310175
Si Si5 0.548818 0.933335 0.482325
Si Si6 0.000000 0.860217 0.250000
Si Si7 0.109150 0.773228 0.111406
Si Si8 0.151498 0.901052 0.922744
O O1 0.020763 0.286858 0.875640
O O2 0.870038 0.388468 0.860433
O O3 0.000000 0.321465 0.750000
O O4 0.271789 0.379034 0.813379
O O5 0.750000 0.250000 0.500000
O O6 0.079532 0.206373 0.531748
O O7 0.141140 0.259810 0.403116
O O8 0.007596 0.156090 0.426500
O O9 0.771453 0.489342 0.667462
O O10 0.485577 0.446091 0.609987
O O11 0.861139 0.408885 0.550914
O O12 0.037146 0.423516 0.396045
O O13 0.302819 0.403095 0.268188
O O14 0.000000 0.462630 0.250000
O O15 0.769262 0.917840 0.502707
O O16 0.500000 0.000000 0.500000
O O17 0.022172 0.818370 0.177821
#
# Coordination Sequence:
#
# PCOD9274307 Si02
#       8
#     8   8   8   8   8   4   8   8
#     4  10  20  38  62  91 131 169 216 281 344 395
#     4  10  21  39  66  97 132 170 230 284 334 406
#     4  10  22  41  68  95 127 169 229 290 340 396
#     4  11  26  43  61  94 134 180 222 271 343 414
#     4   9  21  41  63  88 125 171 224 278 331 399
#     4  12  26  42  64  94 142 190 220 272 340 426
#     4  10  22  41  63  94 132 182 223 273 346 406
#     4  10  21  37  64  98 121 167 224 284 338 398
#
# _framework density 22.46649
#
# number of rings (size 3 to 8) (size 9 to 14) (size 15 to 20)
#    0.000    1.867    0.667    2.000    0.000   13.333 
#    0.000    0.000    0.000    0.000    0.000    0.000 
#    0.000    0.000    0.000    0.000    0.000    0.000 
#
# Total GULP energy -167080.353242 kJ/mol
# GULP energy per Si atom -5569.345108 kJ/mol
# Density = 2.241536 g / cm^3
# Si number density = 22.466490 Si / 1000 Ang^3
#
#
#
# Elastic Constant Matrix: (Units=GPa)
#
#
# Indices 1 2 3 4 5 6 
#
# 1 102.1299 51.0988 41.6413 0.0000 11.0343 0.0000
# 2 51.0988 77.4219 30.3193 0.0000 -1.3077 0.0000
# 3 41.6413 30.3193 104.7924 0.0000 15.0836 0.0000
# 4 0.0000 0.0000 0.0000 33.8495 0.0000 0.1908
# 5 11.0343 -1.3077 15.0836 0.0000 36.8740 0.0000
# 6 0.0000 0.0000 0.0000 0.1908 0.0000 33.6362
#
#
#
# Elastic Compliance Matrix: (Units=1/GPa)
#
#
# Indices 1 2 3 4 5 6 
#
# 1 0.016294 -0.009594 -0.003133 0.000000 -0.003935 0.000000
# 2 -0.009594 0.020415 -0.002775 0.000000 0.004730 0.000000
# 3 -0.003133 -0.002775 0.012187 0.000000 -0.004146 0.000000
# 4 0.000000 0.000000 0.000000 0.029544 0.000000 -0.000168
# 5 -0.003935 0.004730 -0.004146 0.000000 0.030161 0.000000
# 6 0.000000 0.000000 0.000000 -0.000168 0.000000 0.029731
#
#
# Mechanical properties :
#
#
# Convention : Reuss Voigt Hill
#
# Bulk Modulus (GPa) = 55.88800 58.94036 57.41418
# Shear Modulus (GPa) = 28.52285 31.62426 30.07356
#
# Velocity S-wave (km/s) = 3.56697 3.75590 3.66265
# Velocity P-wave (km/s) = 6.47260 6.71571 6.59527
#
# Compressibility (1/GPa) = 0.01789293
#
# Stress axis : x y z
#
# Youngs Moduli (GPa) = 61.37282 48.98408 82.05319
#
# Poissons Ratio (x) = 0.46994 0.25704
# Poissons Ratio (y) = 0.58879 0.22771
# Poissons Ratio (z) = 0.19226 0.13594
#
# Static dielectric constant tensor:
#      x y z
#    x 1.924360 0.000000 -0.038540 
#    y 0.000000 1.887550 0.000000 
#    z -0.038540 0.000000 1.647850 
# 
# From -- ./inp_files/186194.got.cif
#   From: 2010.05.17/outbox.cif.g08.bks.cpg/sg15_94_cif.got.tgz:186194.got - 2010.06.03 18:47:42.
