data_PCOD9274162
_publ_section_title
;
Structure prediction by ZEFSAII (Michael W. Deem and Ramdas Pophale) SiO2 
 PCOD9274162
Probable space group: C 2/C
;
_chemical_formula_sum "Si O2"
_cell_formula_units_Z 52
_cell_length_a 18.536439
_cell_length_b 13.164684
_cell_length_c 15.330746
_cell_angle_alpha 90.000000
_cell_angle_beta 38.754669
_cell_angle_gamma 90.000000
_cell_volume 2341.883913
_symmetry_space_group_name_H-M "C 2/C"
_symmetry_group_IT_number 15
_symmetry_cell_setting 'monoclinic'
loop_
_space_group_symop_operation_xyz
x,y,z
-x,y,1/2-z
-x,-y,-z
x,-y,1/2+z
1/2+x,1/2+y,z
1/2-x,1/2+y,1/2-z
1/2-x,1/2-y,-z
1/2+x,1/2-y,1/2+z
loop_
_atom_site_type_symbol
_atom_site_label
_atom_site_fract_x
_atom_site_fract_y
_atom_site_fract_z
Si Si1 0.898152 0.769901 0.179352
Si Si2 0.703261 0.017568 0.042573
Si Si3 0.132331 0.293899 0.156439
Si Si4 0.078598 0.276271 0.404700
Si Si5 0.000000 0.319669 0.750000
Si Si6 0.242794 0.453381 0.308922
Si Si7 0.698654 0.386798 0.892019
O O1 0.981156 0.748528 0.182867
O O2 0.855563 0.882536 0.202621
O O3 0.785485 0.707854 0.316393
O O4 0.942457 0.714522 0.049296
O O5 0.608126 0.106334 0.133512
O O6 0.804562 0.058123 0.011250
O O7 0.648376 0.915231 0.132417
O O8 0.735569 0.999673 0.911898
O O9 0.128505 0.265562 0.261900
O O10 0.000000 0.267625 0.250000
O O11 0.250000 0.250000 0.000000
O O12 0.137692 0.375298 0.390548
O O13 0.094900 0.169686 0.441098
O O14 0.250289 0.532191 0.223771
#
# Coordination Sequence:
#
# PCOD9274162 Si02
#       7
#     8   8   8   8   4   8   8
#     4  10  24  38  67  96 133 175 231 291 357 421
#     4  11  22  41  70 100 137 186 233 300 354 429
#     4  12  28  47  74 106 147 191 245 298 364 438
#     4  11  24  43  69  97 138 184 231 300 356 429
#     4  10  20  38  62 104 124 170 232 292 352 422
#     4  11  23  41  66  98 138 178 234 295 358 421
#     4  10  24  41  63  99 134 178 237 289 360 418
#
# _framework density 22.204345
#
# number of rings (size 3 to 8) (size 9 to 14) (size 15 to 20)
#    0.000    1.231    3.846    0.923    8.615    3.077 
#    0.000    1.538    1.692    0.000    0.000    0.000 
#    0.000    0.000    0.000    0.000    0.000    0.000 
#
# Total GULP energy -144999.556959 kJ/mol
# GULP energy per Si atom -5576.906037 kJ/mol
# Density = 2.215381 g / cm^3
# Si number density = 22.204345 Si / 1000 Ang^3
#
#
#
# Elastic Constant Matrix: (Units=GPa)
#
#
# Indices 1 2 3 4 5 6 
#
# 1 65.6205 10.6098 16.6541 0.0000 15.5521 0.0000
# 2 10.6098 34.8250 -14.4999 0.0000 -5.6052 0.0000
# 3 16.6541 -14.4999 74.4889 0.0000 16.2489 0.0000
# 4 0.0000 0.0000 0.0000 23.1364 0.0000 4.5033
# 5 15.5521 -5.6052 16.2489 0.0000 34.9501 0.0000
# 6 0.0000 0.0000 0.0000 4.5033 0.0000 13.7009
#
#
#
# Elastic Compliance Matrix: (Units=1/GPa)
#
#
# Indices 1 2 3 4 5 6 
#
# 1 0.019799 -0.009198 -0.004422 0.000000 -0.008229 0.000000
# 2 -0.009198 0.035707 0.007640 0.000000 0.006267 0.000000
# 3 -0.004422 0.007640 0.016920 0.000000 -0.004674 0.000000
# 4 0.000000 0.000000 0.000000 0.046176 0.000000 -0.015177
# 5 -0.008229 0.006267 -0.004674 0.000000 0.035452 0.000000
# 6 0.000000 0.000000 0.000000 -0.015177 0.000000 0.077976
#
#
# Mechanical properties :
#
#
# Convention : Reuss Voigt Hill
#
# Bulk Modulus (GPa) = 16.53803 22.27360 19.40582
# Shear Modulus (GPa) = 18.92899 25.16884 22.04891
#
# Velocity S-wave (km/s) = 2.92291 3.37042 3.15461
# Velocity P-wave (km/s) = 4.34229 5.01988 4.69333
#
# Compressibility (1/GPa) = 0.06046670
#
# Stress axis : x y z
#
# Youngs Moduli (GPa) = 50.50799 28.00584 59.10136
#
# Poissons Ratio (x) = 0.25759 0.26134
# Poissons Ratio (y) = 0.46455 -0.45153
# Poissons Ratio (z) = 0.22334 -0.21396
#
# Static dielectric constant tensor:
#      x y z
#    x 1.960000 0.000000 -0.104530 
#    y 0.000000 1.785870 0.000000 
#    z -0.104530 0.000000 1.982410 
# 
# From -- ./inp_files/162487.got.cif
#   From: 2010.05.17/outbox.cif.g08.bks.cpg/sg15_82_cif.got.tgz:162487.got - 2010.06.03 18:47:42.
