data_PCOD9274605
_publ_section_title
;
Structure prediction by ZEFSAII (Michael W. Deem and Ramdas Pophale) SiO2 
 PCOD9274605
Probable space group: C 2/C
;
_chemical_formula_sum "Si O2"
_cell_formula_units_Z 56
_cell_length_a 19.819827
_cell_length_b 8.402515
_cell_length_c 19.684464
_cell_angle_alpha 90.000000
_cell_angle_beta 59.119462
_cell_angle_gamma 90.000000
_cell_volume 2813.462584
_symmetry_space_group_name_H-M "C 2/C"
_symmetry_group_IT_number 15
_symmetry_cell_setting 'monoclinic'
loop_
_space_group_symop_operation_xyz
x,y,z
-x,y,1/2-z
-x,-y,-z
x,-y,1/2+z
1/2+x,1/2+y,z
1/2-x,1/2+y,1/2-z
1/2-x,1/2-y,-z
1/2+x,1/2-y,1/2+z
loop_
_atom_site_type_symbol
_atom_site_label
_atom_site_fract_x
_atom_site_fract_y
_atom_site_fract_z
Si Si1 0.983337 0.226495 0.050662
Si Si2 0.253292 0.904450 0.873667
Si Si3 0.796943 0.416690 0.477681
Si Si4 0.841423 0.421528 0.093803
Si Si5 0.475270 0.902198 0.338377
Si Si6 0.889142 0.623388 0.200422
Si Si7 0.113756 0.900485 0.394106
O O1 0.929503 0.351327 0.037194
O O2 0.990687 0.283097 0.123406
O O3 0.937733 0.060208 0.077592
O O4 0.068160 0.208718 0.972481
O O5 0.212364 0.736747 0.876693
O O6 0.337692 0.901330 0.794154
O O7 0.255707 0.948302 0.952095
O O8 0.200586 0.045715 0.868962
O O9 0.750000 0.250000 0.500000
O O10 0.810152 0.474974 0.547589
O O11 0.882739 0.402009 0.399034
O O12 0.848920 0.519245 0.160293
O O13 0.500000 0.856716 0.250000
O O14 0.522373 0.064643 0.331328
O O15 0.887739 0.803357 0.174582
#
# Coordination Sequence:
#
# PCOD9274605 Si02
#       7
#     8   8   8   8   8   8   8
#     4   9  20  39  64  87 116 157 202 251 293 355
#     4  11  22  38  58  89 127 153 197 252 300 354
#     4  12  24  40  62  90 121 163 201 248 301 361
#     4  10  22  38  62  89 119 158 201 245 297 360
#     4  11  22  41  60  85 124 157 201 250 304 357
#     4  11  21  39  62  88 118 162 198 249 298 359
#     4  10  20  38  64  89 116 155 206 246 295 359
#
# _framework density 19.904298000000001
#
# number of rings (size 3 to 8) (size 9 to 14) (size 15 to 20)
#    0.000    1.429    1.429    4.714    0.000    2.286 
#    5.143    2.143    0.000    0.000    0.000    0.000 
#    0.000    0.000    0.000    0.000    0.000    0.000 
#
# Total GULP energy -156311.681076 kJ/mol
# GULP energy per Si atom -5582.560038 kJ/mol
# Density = 1.985900 g / cm^3
# Si number density = 19.904298 Si / 1000 Ang^3
#
#
#
# Elastic Constant Matrix: (Units=GPa)
#
#
# Indices 1 2 3 4 5 6 
#
# 1 73.2322 26.6727 22.1207 0.0000 -6.7819 0.0001
# 2 26.6727 61.9627 10.1877 0.0000 1.6383 0.0004
# 3 22.1207 10.1877 71.7033 0.0000 6.0298 0.0001
# 4 0.0000 0.0000 0.0000 19.5562 0.0000 0.0925
# 5 -6.7819 1.6383 6.0298 0.0000 36.3485 0.0000
# 6 0.0001 0.0004 0.0001 0.0925 0.0000 21.7582
#
#
#
# Elastic Compliance Matrix: (Units=1/GPa)
#
#
# Indices 1 2 3 4 5 6 
#
# 1 0.018173 -0.007125 -0.004976 0.000000 0.004537 0.000000
# 2 -0.007125 0.019323 -0.000367 0.000000 -0.002139 0.000000
# 3 -0.004976 -0.000367 0.015831 0.000000 -0.003538 0.000000
# 4 0.000000 0.000000 0.000000 0.051136 0.000000 -0.000217
# 5 0.004537 -0.002139 -0.003538 0.000000 0.029041 0.000000
# 6 0.000000 0.000000 0.000000 -0.000217 0.000000 0.045961
#
#
# Mechanical properties :
#
#
# Convention : Reuss Voigt Hill
#
# Bulk Modulus (GPa) = 35.22238 36.09559 35.65899
# Shear Modulus (GPa) = 23.37926 25.39372 24.38649
#
# Velocity S-wave (km/s) = 3.43094 3.57570 3.50406
# Velocity P-wave (km/s) = 5.78182 5.93476 5.85879
#
# Compressibility (1/GPa) = 0.02839104
#
# Stress axis : x y z
#
# Youngs Moduli (GPa) = 55.02539 51.75261 63.16657
#
# Poissons Ratio (x) = 0.36873 0.31431
# Poissons Ratio (y) = 0.39205 0.02321
# Poissons Ratio (z) = 0.27380 0.01902
#
# Static dielectric constant tensor:
#      x y z
#    x 1.726480 0.000000 0.004110 
#    y 0.000000 1.712850 0.000000 
#    z 0.004110 0.000000 1.679950 
# 
# From -- ./inp_files/209501.got.cif
#   From: 2010.05.17/outbox.cif.g08.bks.cpg/sg15_105_cif.got.tgz:209501.got - 2010.06.03 18:47:42.
