data_PCOD9274803
_publ_section_title
;
Structure prediction by ZEFSAII (Michael W. Deem and Ramdas Pophale) SiO2 
 PCOD9274803
Probable space group: C 2/C
;
_chemical_formula_sum "Si O2"
_cell_formula_units_Z 56
_cell_length_a 24.248215
_cell_length_b 9.704361
_cell_length_c 11.188989
_cell_angle_alpha 90.000000
_cell_angle_beta 68.564556
_cell_angle_gamma 90.000000
_cell_volume 2450.800155
_symmetry_space_group_name_H-M "C 2/C"
_symmetry_group_IT_number 15
_symmetry_cell_setting 'monoclinic'
loop_
_space_group_symop_operation_xyz
x,y,z
-x,y,1/2-z
-x,-y,-z
x,-y,1/2+z
1/2+x,1/2+y,z
1/2-x,1/2+y,1/2-z
1/2-x,1/2-y,-z
1/2+x,1/2-y,1/2+z
loop_
_atom_site_type_symbol
_atom_site_label
_atom_site_fract_x
_atom_site_fract_y
_atom_site_fract_z
Si Si1 0.869342 0.670144 0.800435
Si Si2 0.839525 0.566804 0.475599
Si Si3 0.434607 0.252858 0.264794
Si Si4 0.380301 0.471636 0.853633
Si Si5 0.311563 0.479420 0.156515
Si Si6 0.268392 0.760954 0.198235
Si Si7 0.065532 0.534384 0.406904
O O1 0.826747 0.570107 0.910044
O O2 0.893925 0.808720 0.839826
O O3 0.830007 0.721463 0.720827
O O4 0.920040 0.565938 0.716511
O O5 0.879353 0.681715 0.376705
O O6 0.782131 0.643817 0.572716
O O7 0.884602 0.506121 0.538421
O O8 0.500000 0.202347 0.250000
O O9 0.430658 0.414104 0.294725
O O10 0.428386 0.193441 0.136340
O O11 0.341643 0.501235 0.763438
O O12 0.350732 0.497679 0.006703
O O13 0.261668 0.599191 0.185054
O O14 0.283174 0.328939 0.185129
O O15 0.000000 0.500000 0.500000
#
# Coordination Sequence:
#
# PCOD9274803 Si02
#       7
#     8   8   8   8   8   8   8
#     4   9  23  39  62  91 133 166 215 268 324 388
#     4  10  20  40  64  90 130 164 222 265 319 388
#     4  11  22  41  66  93 130 174 214 275 330 383
#     4  11  26  46  63  99 136 172 214 278 324 398
#     4  11  26  43  69  93 136 168 223 266 332 388
#     4  10  23  41  64  95 127 172 211 273 323 388
#     4  10  20  38  65  93 122 171 222 268 320 385
#
# _framework density 22.849681
#
# number of rings (size 3 to 8) (size 9 to 14) (size 15 to 20)
#    0.000    1.714    2.857    0.000    6.000    4.000 
#    2.571    1.429    0.000    0.000    0.000    0.000 
#    0.000    0.000    0.000    0.000    0.000    0.000 
#
# Total GULP energy -156220.070179 kJ/mol
# GULP energy per Si atom -5579.288221 kJ/mol
# Density = 2.279767 g / cm^3
# Si number density = 22.849681 Si / 1000 Ang^3
#
#
#
# Elastic Constant Matrix: (Units=GPa)
#
#
# Indices 1 2 3 4 5 6 
#
# 1 37.7681 10.3873 22.9227 0.0000 -1.1199 0.0000
# 2 10.3873 104.8298 21.4440 0.0000 -0.2767 0.0000
# 3 22.9227 21.4440 88.4502 0.0000 2.9183 0.0000
# 4 0.0000 0.0000 0.0000 22.8136 0.0000 -0.4272
# 5 -1.1199 -0.2767 2.9183 0.0000 21.0834 0.0000
# 6 0.0000 0.0000 0.0000 -0.4272 0.0000 19.0125
#
#
#
# Elastic Compliance Matrix: (Units=1/GPa)
#
#
# Indices 1 2 3 4 5 6 
#
# 1 0.031813 -0.001515 -0.007969 0.000000 0.002773 0.000000
# 2 -0.001515 0.010114 -0.002071 0.000000 0.000339 0.000000
# 3 -0.007969 -0.002071 0.013952 0.000000 -0.002382 0.000000
# 4 0.000000 0.000000 0.000000 0.043852 0.000000 0.000985
# 5 0.002773 0.000339 -0.002382 0.000000 0.047912 0.000000
# 6 0.000000 0.000000 0.000000 0.000985 0.000000 0.052619
#
#
# Mechanical properties :
#
#
# Convention : Reuss Voigt Hill
#
# Bulk Modulus (GPa) = 30.51603 37.83957 34.17780
# Shear Modulus (GPa) = 21.34080 24.33483 22.83782
#
# Velocity S-wave (km/s) = 3.05940 3.26697 3.16489
# Velocity P-wave (km/s) = 5.08567 5.55220 5.32405
#
# Compressibility (1/GPa) = 0.03276967
#
# Stress axis : x y z
#
# Youngs Moduli (GPa) = 31.43395 98.87447 71.67652
#
# Poissons Ratio (x) = 0.14978 0.57118
# Poissons Ratio (y) = 0.04762 0.14841
# Poissons Ratio (z) = 0.25049 0.20473
#
# Static dielectric constant tensor:
#      x y z
#    x 1.845490 0.000000 0.084330 
#    y 0.000000 1.886880 0.000000 
#    z 0.084330 0.000000 1.934760 
# 
# From -- ./inp_files/121872.got.cif
#   From: 2010.05.17/outbox.cif.g08.bks.cpg/sg15_61_cif.got.tgz:121872.got - 2010.06.03 18:47:42.
