data_PCOD9274746
_publ_section_title
;
Structure prediction by ZEFSAII (Michael W. Deem and Ramdas Pophale) SiO2 
 PCOD9274746
Probable space group: C 2/C
;
_chemical_formula_sum "Si O2"
_cell_formula_units_Z 56
_cell_length_a 17.067189
_cell_length_b 6.820983
_cell_length_c 20.765653
_cell_angle_alpha 90.000000
_cell_angle_beta 90.577045
_cell_angle_gamma 90.000000
_cell_volume 2417.311018
_symmetry_space_group_name_H-M "C 2/C"
_symmetry_group_IT_number 15
_symmetry_cell_setting 'monoclinic'
loop_
_space_group_symop_operation_xyz
x,y,z
-x,y,1/2-z
-x,-y,-z
x,-y,1/2+z
1/2+x,1/2+y,z
1/2-x,1/2+y,1/2-z
1/2-x,1/2-y,-z
1/2+x,1/2-y,1/2+z
loop_
_atom_site_type_symbol
_atom_site_label
_atom_site_fract_x
_atom_site_fract_y
_atom_site_fract_z
Si Si1 0.956096 0.515028 0.893843
Si Si2 0.681276 0.156235 0.680947
Si Si3 0.467666 0.399010 0.603702
Si Si4 0.398209 0.137203 0.033840
Si Si5 0.102737 0.070747 0.522160
Si Si6 0.175847 0.133664 0.311263
Si Si7 0.752826 0.026858 0.899005
O O1 0.879674 0.494610 0.848214
O O2 0.988665 0.717042 0.864518
O O3 0.034548 0.392289 0.910971
O O4 0.921227 0.548540 0.964851
O O5 0.651298 0.266860 0.744225
O O6 0.704696 0.336174 0.632932
O O7 0.760191 0.036223 0.697835
O O8 0.537044 0.535375 0.576259
O O9 0.430593 0.306410 0.537446
O O10 0.397449 0.455520 0.649756
O O11 0.317386 0.055851 0.059094
O O12 0.387114 0.365180 0.015373
O O13 0.182241 0.129334 0.555696
O O14 0.215775 0.311491 0.351681
#
# Coordination Sequence:
#
# PCOD9274746 Si02
#       7
#     8   8   8   8   8   8   8
#     4  10  22  41  65  94 136 173 215 272 338 399
#     4  12  26  47  65  96 133 180 229 279 326 400
#     4  10  21  42  63 101 129 176 216 275 335 400
#     4  10  20  38  64  99 132 169 214 275 340 401
#     4  10  22  39  69 103 141 166 220 283 340 412
#     4  12  27  44  70  93 136 181 231 277 329 403
#     4  12  23  43  68 102 134 179 221 278 345 392
#
# _framework density 23.166236999999999
#
# number of rings (size 3 to 8) (size 9 to 14) (size 15 to 20)
#    0.000    1.143    5.714    1.286    2.000    5.714 
#    0.000    0.000    0.000    1.714    0.000    0.000 
#    0.000    0.000    0.000    0.000    0.000    0.000 
#
# Total GULP energy -156327.359230 kJ/mol
# GULP energy per Si atom -5583.119972 kJ/mol
# Density = 2.311351 g / cm^3
# Si number density = 23.166237 Si / 1000 Ang^3
#
#
#
# Elastic Constant Matrix: (Units=GPa)
#
#
# Indices 1 2 3 4 5 6 
#
# 1 137.3525 16.9401 67.8105 0.0000 -7.7505 0.0000
# 2 16.9401 28.5450 2.6143 0.0000 -2.2974 0.0000
# 3 67.8105 2.6143 84.1234 0.0000 -1.8221 0.0000
# 4 0.0000 0.0000 0.0000 34.3309 0.0000 -1.5204
# 5 -7.7505 -2.2974 -1.8221 0.0000 37.3328 0.0000
# 6 0.0000 0.0000 0.0000 -1.5204 0.0000 32.7716
#
#
#
# Elastic Compliance Matrix: (Units=1/GPa)
#
#
# Indices 1 2 3 4 5 6 
#
# 1 0.013467 -0.006872 -0.010602 0.000000 0.001855 0.000000
# 2 -0.006872 0.038806 0.004359 0.000000 0.001174 0.000000
# 3 -0.010602 0.004359 0.020277 0.000000 -0.000943 0.000000
# 4 0.000000 0.000000 0.000000 0.029188 0.000000 0.001354
# 5 0.001855 0.001174 -0.000943 0.000000 0.027198 0.000000
# 6 0.000000 0.000000 0.000000 0.001354 0.000000 0.030577
#
#
# Mechanical properties :
#
#
# Convention : Reuss Voigt Hill
#
# Bulk Modulus (GPa) = 21.58878 47.19451 34.39164
# Shear Modulus (GPa) = 24.85317 31.73078 28.29197
#
# Velocity S-wave (km/s) = 3.27894 3.70496 3.49844
# Velocity P-wave (km/s) = 4.86566 6.22243 5.58539
#
# Compressibility (1/GPa) = 0.04632036
#
# Stress axis : x y z
#
# Youngs Moduli (GPa) = 74.25743 25.76945 49.31660
#
# Poissons Ratio (x) = 0.17708 0.52283
# Poissons Ratio (y) = 0.51026 -0.21495
# Poissons Ratio (z) = 0.78724 -0.11232
#
# Static dielectric constant tensor:
#      x y z
#    x 1.931000 0.000000 0.056440 
#    y 0.000000 2.032520 0.000000 
#    z 0.056440 0.000000 1.848710 
# 
# From -- ./inp_files/247019.got.cif
#   From: 2010.05.17/outbox.cif.g08.bks.cpg/sg15_124_cif.got.tgz:247019.got - 2010.06.03 18:47:42.
