data_PCOD9274989
_publ_section_title
;
Structure prediction by ZEFSAII (Michael W. Deem and Ramdas Pophale) SiO2 
 PCOD9274989
Probable space group: C 2/C
;
_chemical_formula_sum "Si O2"
_cell_formula_units_Z 32
_cell_length_a 9.880881
_cell_length_b 16.982142
_cell_length_c 9.171545
_cell_angle_alpha 90.000000
_cell_angle_beta 127.556696
_cell_angle_gamma 90.000000
_cell_volume 1220.020694
_symmetry_space_group_name_H-M "C 2/C"
_symmetry_group_IT_number 15
_symmetry_cell_setting 'monoclinic'
loop_
_space_group_symop_operation_xyz
x,y,z
-x,y,1/2-z
-x,-y,-z
x,-y,1/2+z
1/2+x,1/2+y,z
1/2-x,1/2+y,1/2-z
1/2-x,1/2-y,-z
1/2+x,1/2-y,1/2+z
loop_
_atom_site_type_symbol
_atom_site_label
_atom_site_fract_x
_atom_site_fract_y
_atom_site_fract_z
Si Si1 0.930194 0.134064 0.870167
Si Si2 0.110502 0.577796 0.135496
Si Si3 0.868542 0.727528 0.941156
Si Si4 0.196111 0.460151 0.402535
O O1 0.761786 0.189226 0.753843
O O2 0.847468 0.060621 0.892277
O O3 0.000000 0.121761 0.750000
O O4 0.055583 0.187848 0.046260
O O5 0.828820 0.551682 0.163452
O O6 0.245763 0.571783 0.093331
O O7 0.000000 0.500000 0.000000
O O8 0.008748 0.659706 0.067053
O O9 0.750000 0.750000 0.000000
O O10 0.000000 0.425751 0.250000
#
# Coordination Sequence:
#
# PCOD9274989 Si02
#       4
#     8   8   8   8
#     4  10  21  39  61  93 132 169 217 276 332 391
#     4  10  20  38  67  92 126 172 226 259 331 396
#     4  10  21  38  64  95 129 172 222 269 329 397
#     4  10  20  39  67  92 126 173 221 268 327 400
#
# _framework density 26.229064000000001
#
# number of rings (size 3 to 8) (size 9 to 14) (size 15 to 20)
#    0.000    2.000    5.000    0.000    0.000   10.000 
#    0.000    1.250    0.000    0.000    0.000    0.000 
#    0.000    0.000    0.000    0.000    0.000    0.000 
#
# Total GULP energy -89084.488773 kJ/mol
# GULP energy per Si atom -5567.780548 kJ/mol
# Density = 2.616937 g / cm^3
# Si number density = 26.229064 Si / 1000 Ang^3
#
#
#
# Elastic Constant Matrix: (Units=GPa)
#
#
# Indices 1 2 3 4 5 6 
#
# 1 128.8420 60.3565 27.1560 0.0000 -1.3145 0.0000
# 2 60.3565 112.6935 15.7041 0.0000 7.7062 0.0000
# 3 27.1560 15.7041 48.7207 0.0000 -5.3867 0.0000
# 4 0.0000 0.0000 0.0000 39.7168 0.0000 15.2495
# 5 -1.3145 7.7062 -5.3867 0.0000 27.3052 0.0000
# 6 0.0000 0.0000 0.0000 15.2495 0.0000 38.1955
#
#
#
# Elastic Compliance Matrix: (Units=1/GPa)
#
#
# Indices 1 2 3 4 5 6 
#
# 1 0.011280 -0.005517 -0.004372 0.000000 0.001237 0.000000
# 2 -0.005517 0.012286 -0.001327 0.000000 -0.003995 0.000000
# 3 -0.004372 -0.001327 0.023930 0.000000 0.004885 0.000000
# 4 0.000000 0.000000 0.000000 0.029737 0.000000 -0.011872
# 5 0.001237 -0.003995 0.004885 0.000000 0.038774 0.000000
# 6 0.000000 0.000000 0.000000 -0.011872 0.000000 0.030921
#
#
# Mechanical properties :
#
#
# Convention : Reuss Voigt Hill
#
# Bulk Modulus (GPa) = 39.89725 55.18773 47.54249
# Shear Modulus (GPa) = 28.13504 33.51281 30.82392
#
# Velocity S-wave (km/s) = 3.27871 3.57837 3.43181
# Velocity P-wave (km/s) = 5.43851 6.17732 5.81965
#
# Compressibility (1/GPa) = 0.02506438
#
# Stress axis : x y z
#
# Youngs Moduli (GPa) = 88.65340 81.39129 41.78856
#
# Poissons Ratio (x) = 0.44901 0.18271
# Poissons Ratio (y) = 0.48907 0.05546
# Poissons Ratio (z) = 0.38761 0.10801
#
# Static dielectric constant tensor:
#      x y z
#    x 2.456920 0.000000 -0.129290 
#    y 0.000000 2.247000 0.000000 
#    z -0.129290 0.000000 2.393140 
# 
# From -- ./inp_files/133642.got.cif
#   From: 2010.05.17/outbox.cif.g08.bks.cpg/sg15_67_cif.got.tgz:133642.got - 2010.06.03 18:47:42.
