data_PCOD9274506
_publ_section_title
;
Structure prediction by ZEFSAII (Michael W. Deem and Ramdas Pophale) SiO2 
 PCOD9274506
Probable space group: C 2/C
;
_chemical_formula_sum "Si O2"
_cell_formula_units_Z 44
_cell_length_a 25.405872
_cell_length_b 6.036708
_cell_length_c 15.695278
_cell_angle_alpha 90.000000
_cell_angle_beta 54.898813
_cell_angle_gamma 90.000000
_cell_volume 1969.381022
_symmetry_space_group_name_H-M "C 2/C"
_symmetry_group_IT_number 15
_symmetry_cell_setting 'monoclinic'
loop_
_space_group_symop_operation_xyz
x,y,z
-x,y,1/2-z
-x,-y,-z
x,-y,1/2+z
1/2+x,1/2+y,z
1/2-x,1/2+y,1/2-z
1/2-x,1/2-y,-z
1/2+x,1/2-y,1/2+z
loop_
_atom_site_type_symbol
_atom_site_label
_atom_site_fract_x
_atom_site_fract_y
_atom_site_fract_z
Si Si1 0.549377 0.692136 0.482897
Si Si2 0.711391 0.062056 0.484530
Si Si3 0.330777 0.681090 0.844375
Si Si4 0.391852 0.595015 0.439288
Si Si5 0.434112 0.045733 0.170892
Si Si6 0.000000 0.685131 0.750000
O O1 0.500000 0.500000 0.500000
O O2 0.604252 0.584995 0.490256
O O3 0.502603 0.851978 0.580540
O O4 0.577801 0.839524 0.380210
O O5 0.750000 0.250000 0.500000
O O6 0.652356 0.193960 0.497627
O O7 0.688620 0.884723 0.575871
O O8 0.764655 0.937328 0.377769
O O9 0.368235 0.513385 0.872710
O O10 0.377824 0.773817 0.728138
O O11 0.464691 0.671076 0.353829
O O12 0.445663 0.958846 0.255531
#
# Coordination Sequence:
#
# PCOD9274506 Si02
#       6
#     8   8   8   8   8   4
#     4  11  24  39  56  96 134 176 200 261 341 394
#     4   9  20  36  62  98 116 159 215 276 316 363
#     4  10  20  38  63  96 119 166 222 273 313 377
#     4  11  21  36  61  94 133 166 216 268 326 388
#     4  11  23  37  59  94 132 171 216 264 326 396
#     4  12  20  36  62  96 128 162 212 266 320 388
#
# _framework density 22.342046
#
# number of rings (size 3 to 8) (size 9 to 14) (size 15 to 20)
#    0.000    1.455    3.636    2.182    0.000    0.000 
#    0.000    0.000    0.000    0.000   80.364    0.000 
#    0.000    0.000    0.000    0.000    0.000    0.000 
#
# Total GULP energy -122932.447351 kJ/mol
# GULP energy per Si atom -5587.838516 kJ/mol
# Density = 2.229119 g / cm^3
# Si number density = 22.342046 Si / 1000 Ang^3
#
#
#
# Elastic Constant Matrix: (Units=GPa)
#
#
# Indices 1 2 3 4 5 6 
#
# 1 59.3853 32.0077 39.2893 0.0000 -11.5522 0.0010
# 2 32.0077 95.7654 33.3699 -0.0007 -8.5098 0.0029
# 3 39.2893 33.3699 79.9800 -0.0003 -13.7420 0.0004
# 4 0.0000 -0.0007 -0.0003 45.3068 -0.0001 -8.9716
# 5 -11.5522 -8.5098 -13.7420 -0.0001 31.2015 0.0004
# 6 0.0010 0.0029 0.0004 -8.9716 0.0004 39.5145
#
#
#
# Elastic Compliance Matrix: (Units=1/GPa)
#
#
# Indices 1 2 3 4 5 6 
#
# 1 0.027419 -0.005093 -0.010644 0.000000 0.004075 0.000000
# 2 -0.005093 0.013205 -0.002935 0.000000 0.000423 -0.000001
# 3 -0.010644 -0.002935 0.019627 0.000000 0.003903 0.000000
# 4 0.000000 0.000000 0.000000 0.023111 0.000000 0.005247
# 5 0.004075 0.000423 0.003903 0.000000 0.035393 -0.000001
# 6 0.000000 -0.000001 0.000000 0.005247 -0.000001 0.026499
#
#
# Mechanical properties :
#
#
# Convention : Reuss Voigt Hill
#
# Bulk Modulus (GPa) = 43.65543 49.38495 46.52019
# Shear Modulus (GPa) = 26.28356 31.90213 29.09285
#
# Velocity S-wave (km/s) = 3.43361 3.78285 3.61246
# Velocity P-wave (km/s) = 5.94152 6.42121 6.18602
#
# Compressibility (1/GPa) = 0.02290666
#
# Stress axis : x y z
#
# Youngs Moduli (GPa) = 36.47071 75.73059 50.95018
#
# Poissons Ratio (x) = 0.38571 0.54233
# Poissons Ratio (y) = 0.18575 0.14952
# Poissons Ratio (z) = 0.38820 0.22224
#
# Static dielectric constant tensor:
#      x y z
#    x 1.887660 0.000000 -0.019920 
#    y 0.000000 1.884630 0.000000 
#    z -0.019920 0.000000 1.867330 
# 
# From -- ./inp_files/175661.got.cif
#   From: 2010.05.17/outbox.cif.g08.bks.cpg/sg15_88_cif.got.tgz:175661.got - 2010.06.03 18:47:42.
