data_PCOD9274147
_publ_section_title
;
Structure prediction by ZEFSAII (Michael W. Deem and Ramdas Pophale) SiO2 
 PCOD9274147
Probable space group: C 2/C
;
_chemical_formula_sum "Si O2"
_cell_formula_units_Z 44
_cell_length_a 12.825519
_cell_length_b 11.267056
_cell_length_c 24.718230
_cell_angle_alpha 90.000000
_cell_angle_beta 143.917139
_cell_angle_gamma 90.000000
_cell_volume 2103.703912
_symmetry_space_group_name_H-M "C 2/C"
_symmetry_group_IT_number 15
_symmetry_cell_setting 'monoclinic'
loop_
_space_group_symop_operation_xyz
x,y,z
-x,y,1/2-z
-x,-y,-z
x,-y,1/2+z
1/2+x,1/2+y,z
1/2-x,1/2+y,1/2-z
1/2-x,1/2-y,-z
1/2+x,1/2-y,1/2+z
loop_
_atom_site_type_symbol
_atom_site_label
_atom_site_fract_x
_atom_site_fract_y
_atom_site_fract_z
Si Si1 0.575425 0.077959 0.227146
Si Si2 0.520564 0.855837 0.373845
Si Si3 0.543360 0.478463 0.080219
Si Si4 0.304316 0.750525 0.809547
Si Si5 0.698037 0.398999 0.933622
Si Si6 0.500000 0.386195 0.750000
O O1 0.500000 0.134228 0.250000
O O2 0.581853 0.156314 0.176233
O O3 0.467597 0.958674 0.166328
O O4 0.775572 0.041822 0.325349
O O5 0.315317 0.819180 0.285225
O O6 0.633141 0.738899 0.405384
O O7 0.596305 0.896863 0.463584
O O8 0.577834 0.340806 0.107747
O O9 0.393065 0.535196 0.054478
O O10 0.500000 0.500000 0.000000
O O11 0.155428 0.811183 0.785180
O O12 0.611784 0.452675 0.843377
#
# Coordination Sequence:
#
# PCOD9274147 Si02
#       6
#     8   8   8   8   8   4
#     4  11  22  41  62  91 126 169 205 252 315 372
#     4   9  20  36  64  87 121 156 212 255 298 369
#     4  11  23  38  65  94 122 166 213 257 309 375
#     4  10  23  39  61  93 128 161 204 260 313 371
#     4  10  20  38  61  95 117 158 211 257 311 360
#     4  10  20  38  62  86 126 154 208 260 298 366
#
# _framework density 20.915490999999999
#
# number of rings (size 3 to 8) (size 9 to 14) (size 15 to 20)
#    0.000    1.818    3.636    1.091   19.091    0.000 
#    1.636    4.545    0.000    0.000    0.000    0.000 
#    0.000    0.000    0.000    0.000    0.000    0.000 
#
# Total GULP energy -122664.929018 kJ/mol
# GULP energy per Si atom -5575.678592 kJ/mol
# Density = 2.086789 g / cm^3
# Si number density = 20.915491 Si / 1000 Ang^3
#
#
#
# Elastic Constant Matrix: (Units=GPa)
#
#
# Indices 1 2 3 4 5 6 
#
# 1 71.4264 36.9594 -15.5120 0.0000 -12.8007 0.0000
# 2 36.9594 44.6441 9.1352 0.0000 -9.3089 0.0000
# 3 -15.5120 9.1352 100.5653 0.0000 -27.9547 0.0000
# 4 0.0000 0.0000 0.0000 23.0822 0.0000 -4.8136
# 5 -12.8007 -9.3089 -27.9547 0.0000 33.3179 0.0000
# 6 0.0000 0.0000 0.0000 -4.8136 0.0000 -3.9953
#
#
#
# Elastic Compliance Matrix: (Units=1/GPa)
#
#
# Indices 1 2 3 4 5 6 
#
# 1 0.032972 -0.026549 0.011681 0.000000 0.015051 0.000000
# 2 -0.026549 0.045174 -0.009814 0.000000 -0.005813 0.000000
# 3 0.011681 -0.009814 0.017114 0.000000 0.016105 0.000000
# 4 0.000000 0.000000 0.000000 0.034624 0.000000 -0.041716
# 5 0.015051 -0.005813 0.016105 0.000000 0.047685 0.000000
# 6 0.000000 0.000000 0.000000 -0.041716 0.000000 -0.200033
#
#
# Mechanical properties :
#
#
# Convention : Reuss Voigt Hill
#
# Bulk Modulus (GPa) = 21.78779 30.86679 26.32729
# Shear Modulus (GPa) = 118.48816 22.88450 70.68633
#
# Velocity S-wave (km/s) = 7.53485 3.31137 5.81975
# Velocity P-wave (km/s) = 9.28107 5.42311 7.60093
#
# Compressibility (1/GPa) = 0.04589727
#
# Stress axis : x y z
#
# Youngs Moduli (GPa) = 30.32853 22.13653 58.43188
#
# Poissons Ratio (x) = 0.58769 -0.68257
# Poissons Ratio (y) = 0.80518 0.57348
# Poissons Ratio (z) = -0.35428 0.21726
#
# Static dielectric constant tensor:
#      x y z
#    x 1.782070 0.000000 -0.008980 
#    y 0.000000 1.788610 0.000000 
#    z -0.008980 0.000000 1.826260 
# 
# From -- ./inp_files/236677.got.cif
#   From: 2010.05.17/outbox.cif.g08.bks.cpg/sg15_119_cif.got.tgz:236677.got - 2010.06.03 18:47:42.
