data_PCOD9274370
_publ_section_title
;
Structure prediction by ZEFSAII (Michael W. Deem and Ramdas Pophale) SiO2 
 PCOD9274370
Probable space group: C 2/C
;
_chemical_formula_sum "Si O2"
_cell_formula_units_Z 52
_cell_length_a 11.802333
_cell_length_b 17.084077
_cell_length_c 14.606192
_cell_angle_alpha 90.000000
_cell_angle_beta 63.512186
_cell_angle_gamma 90.000000
_cell_volume 2635.928426
_symmetry_space_group_name_H-M "C 2/C"
_symmetry_group_IT_number 15
_symmetry_cell_setting 'monoclinic'
loop_
_space_group_symop_operation_xyz
x,y,z
-x,y,1/2-z
-x,-y,-z
x,-y,1/2+z
1/2+x,1/2+y,z
1/2-x,1/2+y,1/2-z
1/2-x,1/2-y,-z
1/2+x,1/2-y,1/2+z
loop_
_atom_site_type_symbol
_atom_site_label
_atom_site_fract_x
_atom_site_fract_y
_atom_site_fract_z
Si Si1 0.785787 0.887925 0.183682
Si Si2 0.500000 0.370786 0.250000
Si Si3 0.672717 0.772495 0.937562
Si Si4 0.875925 0.162138 0.230651
Si Si5 0.790313 0.835339 0.456216
Si Si6 0.366914 0.462448 0.578363
Si Si7 0.909658 0.323180 0.115782
O O1 0.891716 0.909642 0.223957
O O2 0.839904 0.810374 0.112786
O O3 0.647397 0.867726 0.274708
O O4 0.777388 0.962574 0.121813
O O5 0.414677 0.323310 0.350449
O O6 0.755175 0.826711 0.840049
O O7 0.750000 0.750000 0.000000
O O8 0.548257 0.814451 0.022524
O O9 0.877879 0.084226 0.169773
O O10 0.877110 0.233817 0.157620
O O11 0.000000 0.168489 0.250000
O O12 0.750000 0.750000 0.500000
O O13 0.820471 0.899486 0.521112
O O14 0.676613 0.860555 0.431739
O O15 0.500000 0.500000 0.500000
#
# Coordination Sequence:
#
# PCOD9274370 Si02
#       7
#     8   4   8   8   8   8   8
#     4  10  23  38  63  99 132 169 221 275 350 392
#     4  10  20  38  62  96 132 174 208 282 330 404
#     4  11  22  43  70  91 125 175 230 285 339 415
#     4  11  23  38  68 100 125 169 233 279 332 416
#     4  11  21  39  66  95 135 172 224 270 338 406
#     4  12  24  41  65 100 140 174 221 286 344 404
#     4  10  21  41  63  95 127 173 220 281 340 410
#
# _framework density 19.727394
#
# number of rings (size 3 to 8) (size 9 to 14) (size 15 to 20)
#    0.000    1.231    4.615    1.846    1.077    0.000 
#    0.000    0.769    3.385    0.000    0.000    0.000 
#    0.000    0.000    0.000    0.000    0.000    0.000 
#
# Total GULP energy -144821.703776 kJ/mol
# GULP energy per Si atom -5570.065530 kJ/mol
# Density = 1.968249 g / cm^3
# Si number density = 19.727394 Si / 1000 Ang^3
#
#
#
# Elastic Constant Matrix: (Units=GPa)
#
#
# Indices 1 2 3 4 5 6 
#
# 1 99.4554 36.5403 62.6532 0.0000 -7.4711 0.0000
# 2 36.5403 123.6562 76.8023 0.0000 -11.2023 0.0000
# 3 62.6532 76.8023 167.5446 0.0000 -36.1587 0.0000
# 4 0.0000 0.0000 0.0000 18.6823 0.0000 2.4249
# 5 -7.4711 -11.2023 -36.1587 0.0000 43.4387 0.0000
# 6 0.0000 0.0000 0.0000 2.4249 0.0000 24.1667
#
#
#
# Elastic Compliance Matrix: (Units=1/GPa)
#
#
# Indices 1 2 3 4 5 6 
#
# 1 0.013431 -0.001059 -0.004995 0.000000 -0.002121 0.000000
# 2 -0.001059 0.011494 -0.005208 0.000000 -0.001553 0.000000
# 3 -0.004995 -0.005208 0.011883 0.000000 0.007690 0.000000
# 4 0.000000 0.000000 0.000000 0.054233 0.000000 -0.005442
# 5 -0.002121 -0.001553 0.007690 0.000000 0.028657 0.000000
# 6 0.000000 0.000000 0.000000 -0.005442 0.000000 0.041925
#
#
# Mechanical properties :
#
#
# Convention : Reuss Voigt Hill
#
# Bulk Modulus (GPa) = 70.00443 82.51641 76.26042
# Shear Modulus (GPa) = 26.46792 31.56821 29.01807
#
# Velocity S-wave (km/s) = 3.66687 4.00462 3.83946
# Velocity P-wave (km/s) = 7.31375 7.95624 7.64175
#
# Compressibility (1/GPa) = 0.01428481
#
# Stress axis : x y z
#
# Youngs Moduli (GPa) = 74.45448 87.00368 84.15147
#
# Poissons Ratio (x) = 0.09211 0.42033
# Poissons Ratio (y) = 0.07882 0.43827
# Poissons Ratio (z) = 0.37190 0.45312
#
# Static dielectric constant tensor:
#      x y z
#    x 1.764780 0.000000 0.012240 
#    y 0.000000 1.713760 0.000000 
#    z 0.012240 0.000000 1.715880 
# 
# From -- ./inp_files/145476.got.cif
#   From: 2010.05.17/outbox.cif.g08.bks.cpg/sg15_73_cif.got.tgz:145476.got - 2010.06.03 18:47:42.
