data_PCOD9274680
_publ_section_title
;
Structure prediction by ZEFSAII (Michael W. Deem and Ramdas Pophale) SiO2 
 PCOD9274680
Probable space group: C 2/C
;
_chemical_formula_sum "Si O2"
_cell_formula_units_Z 40
_cell_length_a 16.655372
_cell_length_b 7.011681
_cell_length_c 15.275120
_cell_angle_alpha 90.000000
_cell_angle_beta 92.547447
_cell_angle_gamma 90.000000
_cell_volume 1782.098550
_symmetry_space_group_name_H-M "C 2/C"
_symmetry_group_IT_number 15
_symmetry_cell_setting 'monoclinic'
loop_
_space_group_symop_operation_xyz
x,y,z
-x,y,1/2-z
-x,-y,-z
x,-y,1/2+z
1/2+x,1/2+y,z
1/2-x,1/2+y,1/2-z
1/2-x,1/2-y,-z
1/2+x,1/2-y,1/2+z
loop_
_atom_site_type_symbol
_atom_site_label
_atom_site_fract_x
_atom_site_fract_y
_atom_site_fract_z
Si Si1 0.945350 0.083269 0.666036
Si Si2 0.134922 0.752086 0.733295
Si Si3 0.796007 0.902187 0.061087
Si Si4 0.898571 0.963130 0.410996
Si Si5 0.692871 0.867659 0.692746
O O1 0.862404 0.180379 0.632407
O O2 0.000000 0.153812 0.750000
O O3 0.007933 0.089895 0.589071
O O4 0.915336 0.872260 0.697243
O O5 0.228465 0.809717 0.748822
O O6 0.135860 0.524522 0.735272
O O7 0.106529 0.833360 0.638661
O O8 0.731724 0.024975 0.110769
O O9 0.750000 0.750000 0.000000
O O10 0.850741 0.028905 0.998639
O O11 0.852250 0.817142 0.344568
#
# Coordination Sequence:
#
# PCOD9274680 Si02
#       5
#     8   8   8   8   8
#     4   9  22  41  64  90 129 168 207 264 320 375
#     4  10  20  38  64  93 127 169 219 258 316 384
#     4  11  22  39  68  96 128 169 215 264 323 384
#     4  11  21  39  65  92 133 164 212 268 325 377
#     4  11  21  38  67  97 124 175 216 265 318 384
#
# _framework density 22.445447999999999
#
# number of rings (size 3 to 8) (size 9 to 14) (size 15 to 20)
#    0.000    1.600    4.000    1.200    0.000    0.000 
#    0.000   10.000    8.800    0.000    0.000    0.000 
#    0.000    0.000    0.000    0.000    0.000    0.000 
#
# Total GULP energy -111651.375720 kJ/mol
# GULP energy per Si atom -5582.568786 kJ/mol
# Density = 2.239436 g / cm^3
# Si number density = 22.445448 Si / 1000 Ang^3
#
#
#
# Elastic Constant Matrix: (Units=GPa)
#
#
# Indices 1 2 3 4 5 6 
#
# 1 131.0788 15.8526 18.9183 0.0000 0.8007 0.0000
# 2 15.8526 63.9263 8.2474 0.0000 10.2578 0.0000
# 3 18.9183 8.2474 64.1386 0.0000 1.0722 0.0000
# 4 0.0000 0.0000 0.0000 37.3656 0.0000 0.2278
# 5 0.8007 10.2578 1.0722 0.0000 54.9870 0.0000
# 6 0.0000 0.0000 0.0000 0.2278 0.0000 28.0443
#
#
#
# Elastic Compliance Matrix: (Units=1/GPa)
#
#
# Indices 1 2 3 4 5 6 
#
# 1 0.008158 -0.001783 -0.002181 0.000000 0.000256 0.000000
# 2 -0.001783 0.016782 -0.001581 0.000000 -0.003074 0.000000
# 3 -0.002181 -0.001581 0.016438 0.000000 0.000006 0.000000
# 4 0.000000 0.000000 0.000000 0.026764 0.000000 -0.000217
# 5 0.000256 -0.003074 0.000006 0.000000 0.018756 0.000000
# 6 0.000000 0.000000 0.000000 -0.000217 0.000000 0.035660
#
#
# Mechanical properties :
#
#
# Convention : Reuss Voigt Hill
#
# Bulk Modulus (GPa) = 33.01595 38.35336 35.68466
# Shear Modulus (GPa) = 34.78432 38.48773 36.63603
#
# Velocity S-wave (km/s) = 3.94093 4.14541 4.04446
# Velocity P-wave (km/s) = 5.95393 6.32749 6.14355
#
# Compressibility (1/GPa) = 0.03028839
#
# Stress axis : x y z
#
# Youngs Moduli (GPa) = 122.58130 59.58657 60.83538
#
# Poissons Ratio (x) = 0.10623 0.13270
# Poissons Ratio (y) = 0.21853 0.09617
# Poissons Ratio (z) = 0.26739 0.09419
#
# Static dielectric constant tensor:
#      x y z
#    x 1.848400 0.000000 -0.020300 
#    y 0.000000 1.823760 0.000000 
#    z -0.020300 0.000000 1.926180 
# 
# From -- ./inp_files/208062.got.cif
#   From: 2010.05.17/outbox.cif.g08.bks.cpg/sg15_105_cif.got.tgz:208062.got - 2010.06.03 18:47:42.
