data_PCOD9274510
_publ_section_title
;
Structure prediction by ZEFSAII (Michael W. Deem and Ramdas Pophale) SiO2 
 PCOD9274510
Probable space group: C 2/C
;
_chemical_formula_sum "Si O2"
_cell_formula_units_Z 48
_cell_length_a 20.585686
_cell_length_b 6.700325
_cell_length_c 18.651401
_cell_angle_alpha 90.000000
_cell_angle_beta 125.545373
_cell_angle_gamma 90.000000
_cell_volume 2093.211842
_symmetry_space_group_name_H-M "C 2/C"
_symmetry_group_IT_number 15
_symmetry_cell_setting 'monoclinic'
loop_
_space_group_symop_operation_xyz
x,y,z
-x,y,1/2-z
-x,-y,-z
x,-y,1/2+z
1/2+x,1/2+y,z
1/2-x,1/2+y,1/2-z
1/2-x,1/2-y,-z
1/2+x,1/2-y,1/2+z
loop_
_atom_site_type_symbol
_atom_site_label
_atom_site_fract_x
_atom_site_fract_y
_atom_site_fract_z
Si Si1 0.366046 0.309887 0.133434
Si Si2 0.029383 0.055499 0.405556
Si Si3 0.066708 0.607460 0.592281
Si Si4 0.881692 0.211634 0.812534
Si Si5 0.167377 0.968158 0.598626
Si Si6 0.726748 0.977568 0.466649
O O1 0.429696 0.459631 0.137957
O O2 0.377077 0.304572 0.224755
O O3 0.359673 0.088715 0.091870
O O4 0.281295 0.406701 0.058659
O O5 0.978589 0.257638 0.376850
O O6 0.100254 0.081166 0.507966
O O7 0.966306 0.887897 0.388896
O O8 0.117886 0.436803 0.662201
O O9 0.126330 0.755183 0.587767
O O10 0.000000 0.500000 0.500000
O O11 0.819489 0.081557 0.818368
O O12 0.241956 0.976766 0.593838
O O13 0.750000 0.750000 0.500000
#
# Coordination Sequence:
#
# PCOD9274510 Si02
#       6
#     8   8   8   8   8   8
#     4  10  24  43  61  96 133 164 223 271 316 384
#     4  10  20  38  63  96 134 167 206 263 321 399
#     4  11  19  36  68  97 126 168 209 255 331 383
#     4  11  21  38  64 100 132 161 212 270 327 376
#     4  10  21  39  64  95 126 167 219 262 309 391
#     4  10  24  47  68  85 124 182 221 260 325 383
#
# _framework density 22.931266000000001
#
# number of rings (size 3 to 8) (size 9 to 14) (size 15 to 20)
#    0.000    1.667    3.333    1.500    0.000    9.333 
#    6.000    3.333    0.000    0.000    0.000    0.000 
#    0.000    0.000    0.000    0.000    0.000    0.000 
#
# Total GULP energy -133905.316610 kJ/mol
# GULP energy per Si atom -5579.388192 kJ/mol
# Density = 2.287907 g / cm^3
# Si number density = 22.931266 Si / 1000 Ang^3
#
#
#
# Elastic Constant Matrix: (Units=GPa)
#
#
# Indices 1 2 3 4 5 6 
#
# 1 74.1095 38.9666 30.9033 0.0000 -23.9702 0.0000
# 2 38.9666 156.9868 30.7562 0.0000 -23.2824 -0.0001
# 3 30.9033 30.7562 66.2745 0.0000 -32.6772 0.0000
# 4 0.0000 0.0000 0.0000 19.2685 0.0000 -11.9876
# 5 -23.9702 -23.2824 -32.6772 0.0000 36.4498 0.0000
# 6 0.0000 -0.0001 0.0000 -11.9876 0.0000 16.4611
#
#
#
# Elastic Compliance Matrix: (Units=1/GPa)
#
#
# Indices 1 2 3 4 5 6 
#
# 1 0.018959 -0.002874 -0.004058 0.000000 0.006994 0.000000
# 2 -0.002874 0.007605 -0.001301 0.000000 0.001802 0.000000
# 3 -0.004058 -0.001301 0.028423 0.000000 0.021981 0.000000
# 4 0.000000 0.000000 0.000000 0.094888 0.000000 0.069101
# 5 0.006994 0.001802 0.021981 0.000000 0.052891 0.000000
# 6 0.000000 0.000000 0.000000 0.069101 0.000000 0.111072
#
#
# Mechanical properties :
#
#
# Convention : Reuss Voigt Hill
#
# Bulk Modulus (GPa) = 25.95991 55.40258 40.68124
# Shear Modulus (GPa) = 14.57109 27.55221 21.06165
#
# Velocity S-wave (km/s) = 2.52350 3.47004 3.03391
# Velocity P-wave (km/s) = 4.45377 6.34568 5.48196
#
# Compressibility (1/GPa) = 0.03852094
#
# Stress axis : x y z
#
# Youngs Moduli (GPa) = 52.74563 131.48641 35.18272
#
# Poissons Ratio (x) = 0.37783 0.14279
# Poissons Ratio (y) = 0.15157 0.04578
# Poissons Ratio (z) = 0.21407 0.17108
#
# Static dielectric constant tensor:
#      x y z
#    x 2.002600 0.000000 0.008050 
#    y 0.000000 1.950600 0.000000 
#    z 0.008050 0.000000 1.828780 
# 
# From -- ./inp_files/221018.got.cif
#   From: 2010.05.17/outbox.cif.g08.bks.cpg/sg15_111_cif.got.tgz:221018.got - 2010.06.03 18:47:42.
