data_PCOD9274496
_publ_section_title
;
Structure prediction by ZEFSAII (Michael W. Deem and Ramdas Pophale) SiO2 
 PCOD9274496
Probable space group: C 2/C
;
_chemical_formula_sum "Si O2"
_cell_formula_units_Z 48
_cell_length_a 12.817043
_cell_length_b 18.427566
_cell_length_c 11.685478
_cell_angle_alpha 90.000000
_cell_angle_beta 117.687461
_cell_angle_gamma 90.000000
_cell_volume 2443.928949
_symmetry_space_group_name_H-M "C 2/C"
_symmetry_group_IT_number 15
_symmetry_cell_setting 'monoclinic'
loop_
_space_group_symop_operation_xyz
x,y,z
-x,y,1/2-z
-x,-y,-z
x,-y,1/2+z
1/2+x,1/2+y,z
1/2-x,1/2+y,1/2-z
1/2-x,1/2-y,-z
1/2+x,1/2-y,1/2+z
loop_
_atom_site_type_symbol
_atom_site_label
_atom_site_fract_x
_atom_site_fract_y
_atom_site_fract_z
Si Si1 0.547766 0.207717 0.459400
Si Si2 0.577182 0.285240 0.891143
Si Si3 0.500000 0.096082 0.250000
Si Si4 0.750513 0.107766 0.665750
Si Si5 0.000000 0.826720 0.250000
Si Si6 0.707057 0.141528 0.899494
Si Si7 0.386037 0.992754 0.024504
O O1 0.490408 0.241676 0.543377
O O2 0.473528 0.148783 0.345050
O O3 0.668323 0.166616 0.555873
O O4 0.553954 0.274992 0.375854
O O5 0.500000 0.317144 0.750000
O O6 0.652764 0.221755 0.869213
O O7 0.661189 0.345051 0.989065
O O8 0.595082 0.041428 0.351785
O O9 0.887498 0.128056 0.734188
O O10 0.705834 0.109451 0.772756
O O11 0.721422 0.030254 0.596046
O O12 0.636884 0.088803 0.948345
O O13 0.500000 0.000000 0.000000
#
# Coordination Sequence:
#
# PCOD9274496 Si02
#       7
#     8   8   4   8   4   8   8
#     4  10  20  38  63  94 127 164 208 266 315 379
#     4  11  22  39  64  95 125 160 209 261 324 374
#     4   9  20  34  62  96 125 158 210 258 315 372
#     4  11  22  40  64  92 127 169 213 262 321 377
#     4  11  22  40  60  92 133 164 216 256 323 382
#     4  11  23  39  63  94 124 163 210 263 315 380
#     4  11  23  40  64  94 126 167 216 265 320 384
#
# _framework density 19.640505999999998
#
# number of rings (size 3 to 8) (size 9 to 14) (size 15 to 20)
#    0.000    1.333    3.333    3.500    1.167    0.000 
#    1.500    4.167    0.000    0.000    0.000    0.000 
#    0.000    0.000    0.000    0.000    0.000    0.000 
#
# Total GULP energy -133848.230831 kJ/mol
# GULP energy per Si atom -5577.009618 kJ/mol
# Density = 1.959580 g / cm^3
# Si number density = 19.640506 Si / 1000 Ang^3
#
#
#
# Elastic Constant Matrix: (Units=GPa)
#
#
# Indices 1 2 3 4 5 6 
#
# 1 65.5861 10.0631 22.4928 0.0000 0.8512 0.0000
# 2 10.0631 53.9893 18.7345 0.0000 1.9314 0.0000
# 3 22.4928 18.7345 112.9715 0.0000 -8.3467 0.0000
# 4 0.0000 0.0000 0.0000 2.4522 0.0000 -7.8513
# 5 0.8512 1.9314 -8.3467 0.0000 24.8844 0.0000
# 6 0.0000 0.0000 0.0000 -7.8513 0.0000 24.2108
#
#
#
# Elastic Compliance Matrix: (Units=1/GPa)
#
#
# Indices 1 2 3 4 5 6 
#
# 1 0.016629 -0.001975 -0.003091 0.000000 -0.001452 0.000000
# 2 -0.001975 0.020064 -0.003122 0.000000 -0.002537 0.000000
# 3 -0.003091 -0.003122 0.010265 0.000000 0.003791 0.000000
# 4 0.000000 0.000000 0.000000-10.642791 0.000000 -3.451363
# 5 -0.001452 -0.002537 0.003791 0.000000 0.041704 0.000000
# 6 0.000000 0.000000 0.000000 -3.451363 0.000000 -1.077943
#
#
# Mechanical properties :
#
#
# Convention : Reuss Voigt Hill
#
# Bulk Modulus (GPa) = 32.69717 37.23642 34.96680
# Shear Modulus (GPa) = -0.43083 22.39322 10.98119
#
# Velocity S-wave (km/s) = -0.46886 3.38028 2.36711
# Velocity P-wave (km/s) = 4.04856 5.85109 5.03121
#
# Compressibility (1/GPa) = 0.03058368
#
# Stress axis : x y z
#
# Youngs Moduli (GPa) = 60.13604 49.83986 97.41956
#
# Poissons Ratio (x) = 0.09844 0.30109
# Poissons Ratio (y) = 0.11877 0.30410
# Poissons Ratio (z) = 0.18586 0.15558
#
# Static dielectric constant tensor:
#      x y z
#    x 1.701210 0.000000 0.017620 
#    y 0.000000 1.686710 0.000000 
#    z 0.017620 0.000000 1.723530 
# 
# From -- ./inp_files/87820.got.cif
#   From: 2010.05.17/outbox.cif.g08.bks.cpg/sg15_44_cif.got.tgz:87820.got - 2010.06.03 18:47:42.
