data_PCOD9274489
_publ_section_title
;
Structure prediction by ZEFSAII (Michael W. Deem and Ramdas Pophale) SiO2 
 PCOD9274489
Probable space group: C 2/C
;
_chemical_formula_sum "Si O2"
_cell_formula_units_Z 60
_cell_length_a 16.680435
_cell_length_b 9.095437
_cell_length_c 19.095097
_cell_angle_alpha 90.000000
_cell_angle_beta 66.333302
_cell_angle_gamma 90.000000
_cell_volume 2653.377262
_symmetry_space_group_name_H-M "C 2/C"
_symmetry_group_IT_number 15
_symmetry_cell_setting 'monoclinic'
loop_
_space_group_symop_operation_xyz
x,y,z
-x,y,1/2-z
-x,-y,-z
x,-y,1/2+z
1/2+x,1/2+y,z
1/2-x,1/2+y,1/2-z
1/2-x,1/2-y,-z
1/2+x,1/2-y,1/2+z
loop_
_atom_site_type_symbol
_atom_site_label
_atom_site_fract_x
_atom_site_fract_y
_atom_site_fract_z
Si Si1 0.000000 0.380183 0.250000
Si Si2 0.053342 0.798655 0.604304
Si Si3 0.172369 0.140723 0.781798
Si Si4 0.915297 0.057537 0.072246
Si Si5 0.268387 0.132839 0.419607
Si Si6 0.191199 0.620944 0.487133
Si Si7 0.658696 0.970222 0.755094
Si Si8 0.169660 0.042491 0.630107
O O1 0.942334 0.283313 0.322870
O O2 0.938907 0.474178 0.220858
O O3 0.098229 0.700221 0.527668
O O4 0.955261 0.827287 0.613536
O O5 0.101803 0.952987 0.605132
O O6 0.162336 0.314184 0.791410
O O7 0.135992 0.077258 0.720317
O O8 0.127242 0.067719 0.864419
O O9 0.274282 0.093528 0.742011
O O10 0.836682 0.122045 0.053346
O O11 0.000000 0.000000 0.000000
O O12 0.306446 0.070282 0.334128
O O13 0.302794 0.299405 0.411341
O O14 0.304510 0.021315 0.464650
O O15 0.250000 0.750000 0.500000
O O16 0.243475 0.562074 0.401324
#
# Coordination Sequence:
#
# PCOD9274489 Si02
#       8
#     4   8   8   8   8   8   8   8
#     4  12  24  42  66  98 140 162 218 278 328 390
#     4  11  24  39  65  98 129 174 218 272 330 384
#     4  10  24  42  69  95 127 172 224 261 336 398
#     4  11  24  43  65  97 136 171 215 275 331 386
#     4  10  21  43  64  91 129 177 221 266 330 394
#     4  10  20  38  63  93 127 173 219 264 325 391
#     4  10  24  41  68  92 129 172 215 272 326 392
#     4  10  22  39  67  94 125 171 224 269 324 391
#
# _framework density 22.612693
#
# number of rings (size 3 to 8) (size 9 to 14) (size 15 to 20)
#    0.000    1.600    1.333    2.800    7.467    4.267 
#    2.400    0.667    0.000    0.000    0.000    0.000 
#    0.000    0.000    0.000    0.000    0.000    0.000 
#
# Total GULP energy -167513.651549 kJ/mol
# GULP energy per Si atom -5583.788385 kJ/mol
# Density = 2.256123 g / cm^3
# Si number density = 22.612693 Si / 1000 Ang^3
#
#
#
# Elastic Constant Matrix: (Units=GPa)
#
#
# Indices 1 2 3 4 5 6 
#
# 1 89.9414 44.4477 6.4007 0.0000 -4.4389 0.0000
# 2 44.4477 125.7218 25.0894 0.0000 -1.5471 0.0000
# 3 6.4007 25.0894 71.3437 0.0000 -1.6369 0.0000
# 4 0.0000 0.0000 0.0000 31.0587 0.0000 0.8000
# 5 -4.4389 -1.5471 -1.6369 0.0000 29.1905 0.0000
# 6 0.0000 0.0000 0.0000 0.8000 0.0000 22.9220
#
#
#
# Elastic Compliance Matrix: (Units=1/GPa)
#
#
# Indices 1 2 3 4 5 6 
#
# 1 0.013587 -0.004889 0.000543 0.000000 0.001837 0.000000
# 2 -0.004889 0.010316 -0.003198 0.000000 -0.000376 0.000000
# 3 0.000543 -0.003198 0.015110 0.000000 0.000760 0.000000
# 4 0.000000 0.000000 0.000000 0.032226 0.000000 -0.001125
# 5 0.001837 -0.000376 0.000760 0.000000 0.034560 0.000000
# 6 0.000000 0.000000 0.000000 -0.001125 0.000000 0.043665
#
#
# Mechanical properties :
#
#
# Convention : Reuss Voigt Hill
#
# Bulk Modulus (GPa) = 41.79916 48.76472 45.28194
# Shear Modulus (GPa) = 28.98093 30.70552 29.84322
#
# Velocity S-wave (km/s) = 3.58386 3.68895 3.63678
# Velocity P-wave (km/s) = 5.97079 6.30528 6.14031
#
# Compressibility (1/GPa) = 0.02392393
#
# Stress axis : x y z
#
# Youngs Moduli (GPa) = 73.60238 96.93596 66.18132
#
# Poissons Ratio (x) = 0.47392 -0.03591
# Poissons Ratio (y) = 0.35985 0.21164
# Poissons Ratio (z) = -0.03993 0.30999
#
# Static dielectric constant tensor:
#      x y z
#    x 1.859610 0.000000 -0.001660 
#    y 0.000000 1.844070 0.000000 
#    z -0.001660 0.000000 1.913790 
# 
# From -- ./inp_files/247802.got.cif
#   From: 2010.05.17/outbox.cif.g08.bks.cpg/sg15_124_cif.got.tgz:247802.got - 2010.06.03 18:47:42.
