data_PCOD9274862
_publ_section_title
;
Structure prediction by ZEFSAII (Michael W. Deem and Ramdas Pophale) SiO2 
 PCOD9274862
Probable space group: C 2/C
;
_chemical_formula_sum "Si O2"
_cell_formula_units_Z 44
_cell_length_a 7.880749
_cell_length_b 20.168305
_cell_length_c 16.820059
_cell_angle_alpha 90.000000
_cell_angle_beta 56.538883
_cell_angle_gamma 90.000000
_cell_volume 2230.313603
_symmetry_space_group_name_H-M "C 2/C"
_symmetry_group_IT_number 15
_symmetry_cell_setting 'monoclinic'
loop_
_space_group_symop_operation_xyz
x,y,z
-x,y,1/2-z
-x,-y,-z
x,-y,1/2+z
1/2+x,1/2+y,z
1/2-x,1/2+y,1/2-z
1/2-x,1/2-y,-z
1/2+x,1/2-y,1/2+z
loop_
_atom_site_type_symbol
_atom_site_label
_atom_site_fract_x
_atom_site_fract_y
_atom_site_fract_z
Si Si1 0.649903 0.562463 0.471898
Si Si2 0.894450 0.568667 0.120954
Si Si3 0.032075 0.186931 0.064388
Si Si4 0.488824 0.831724 0.452520
Si Si5 0.310666 0.431143 0.356464
Si Si6 0.500000 0.647248 0.250000
O O1 0.500000 0.500000 0.500000
O O2 0.586819 0.622523 0.432191
O O3 0.624663 0.584791 0.570256
O O4 0.890660 0.549879 0.394516
O O5 0.806355 0.501086 0.107344
O O6 0.700157 0.601842 0.213941
O O7 0.952857 0.623898 0.040277
O O8 0.945268 0.255737 0.053257
O O9 0.034309 0.188296 0.160209
O O10 0.263724 0.176277 0.974490
O O11 0.657718 0.874644 0.364263
O O12 0.500000 0.438324 0.250000
#
# Coordination Sequence:
#
# PCOD9274862 Si02
#       6
#     8   8   8   8   8   4
#     4  11  22  38  63  93 118 161 208 246 298 370
#     4  10  20  38  66  83 125 163 203 247 309 364
#     4  10  21  40  63  89 125 159 211 243 305 366
#     4   9  20  41  61  86 120 171 192 245 317 356
#     4  11  22  40  60  91 126 161 201 257 304 354
#     4  10  20  40  60  88 122 164 204 254 300 354
#
# _framework density 19.728168
#
# number of rings (size 3 to 8) (size 9 to 14) (size 15 to 20)
#    0.000    1.818    0.909    5.455    0.000    3.636 
#   13.091    1.818    0.000    0.000    0.000    0.000 
#    0.000    0.000    0.000    0.000    0.000    0.000 
#
# Total GULP energy -122581.143897 kJ/mol
# GULP energy per Si atom -5571.870177 kJ/mol
# Density = 1.968327 g / cm^3
# Si number density = 19.728168 Si / 1000 Ang^3
#
#
#
# Elastic Constant Matrix: (Units=GPa)
#
#
# Indices 1 2 3 4 5 6 
#
# 1 65.8645 40.7795 38.7766 0.0000 -18.7843 0.0000
# 2 40.7795 146.4112 36.6121 0.0000 -6.0173 0.0000
# 3 38.7766 36.6121 92.0966 0.0000 -18.7925 0.0000
# 4 0.0000 0.0000 0.0000 21.9593 0.0000 -6.0181
# 5 -18.7843 -6.0173 -18.7925 0.0000 34.7147 0.0000
# 6 0.0000 0.0000 0.0000 -6.0181 0.0000 28.7885
#
#
#
# Elastic Compliance Matrix: (Units=1/GPa)
#
#
# Indices 1 2 3 4 5 6 
#
# 1 0.024613 -0.004833 -0.006627 0.000000 0.008893 0.000000
# 2 -0.004833 0.008537 -0.001788 0.000000 -0.002103 0.000000
# 3 -0.006627 -0.001788 0.015249 0.000000 0.004359 0.000000
# 4 0.000000 0.000000 0.000000 0.048306 0.000000 0.010098
# 5 0.008893 -0.002103 0.004359 0.000000 0.035613 0.000000
# 6 0.000000 0.000000 0.000000 0.010098 0.000000 0.036847
#
#
# Mechanical properties :
#
#
# Convention : Reuss Voigt Hill
#
# Bulk Modulus (GPa) = 45.65740 59.63429 52.64584
# Shear Modulus (GPa) = 24.63525 29.63945 27.13735
#
# Velocity S-wave (km/s) = 3.53758 3.88028 3.71288
# Velocity P-wave (km/s) = 6.31502 7.09711 6.71746
#
# Compressibility (1/GPa) = 0.02190225
#
# Stress axis : x y z
#
# Youngs Moduli (GPa) = 40.62973 117.14005 65.57894
#
# Poissons Ratio (x) = 0.56609 0.43461
# Poissons Ratio (y) = 0.19635 0.11727
# Poissons Ratio (z) = 0.26926 0.20947
#
# Static dielectric constant tensor:
#      x y z
#    x 1.732320 0.000000 -0.026620 
#    y 0.000000 1.714000 0.000000 
#    z -0.026620 0.000000 1.730960 
# 
# From -- ./inp_files/190801.got.cif
#   From: 2010.05.17/outbox.cif.g08.bks.cpg/sg15_96_cif.got.tgz:190801.got - 2010.06.03 18:47:42.
