data_PCOD9274939
_publ_section_title
;
Structure prediction by ZEFSAII (Michael W. Deem and Ramdas Pophale) SiO2 
 PCOD9274939
Probable space group: C 2/C
;
_chemical_formula_sum "Si O2"
_cell_formula_units_Z 64
_cell_length_a 11.732339
_cell_length_b 21.585118
_cell_length_c 11.617905
_cell_angle_alpha 90.000000
_cell_angle_beta 82.980517
_cell_angle_gamma 90.000000
_cell_volume 2920.111287
_symmetry_space_group_name_H-M "C 2/C"
_symmetry_group_IT_number 15
_symmetry_cell_setting 'monoclinic'
loop_
_space_group_symop_operation_xyz
x,y,z
-x,y,1/2-z
-x,-y,-z
x,-y,1/2+z
1/2+x,1/2+y,z
1/2-x,1/2+y,1/2-z
1/2-x,1/2-y,-z
1/2+x,1/2-y,1/2+z
loop_
_atom_site_type_symbol
_atom_site_label
_atom_site_fract_x
_atom_site_fract_y
_atom_site_fract_z
Si Si1 0.841821 0.140010 0.632180
Si Si2 0.025182 0.238333 0.539321
Si Si3 0.916711 0.325914 0.364082
Si Si4 0.802233 0.942601 0.353644
Si Si5 0.394054 0.853332 0.845564
Si Si6 0.951779 0.562859 0.557334
Si Si7 0.563012 0.551240 0.072062
Si Si8 0.648451 0.628856 0.410098
O O1 0.941796 0.190552 0.613302
O O2 0.717535 0.172540 0.646931
O O3 0.850521 0.097497 0.743457
O O4 0.859880 0.095408 0.519034
O O5 0.947495 0.282594 0.468369
O O6 0.095140 0.282073 0.616668
O O7 0.109365 0.197547 0.450327
O O8 0.000000 0.305534 0.250000
O O9 0.955046 0.396422 0.387443
O O10 0.664876 0.948265 0.357486
O O11 0.826914 0.906645 0.471102
O O12 0.860684 0.009720 0.353345
O O13 0.500000 0.866853 0.750000
O O14 0.414687 0.894116 0.955814
O O15 0.265013 0.868638 0.822540
O O16 0.000000 0.500000 0.500000
O O17 0.459785 0.593853 0.130551
O O18 0.500000 0.500000 0.000000
#
# Coordination Sequence:
#
# PCOD9274939 Si02
#       8
#     8   8   8   8   8   8   8   8
#     4  11  22  39  67  93 126 173 220 262 325 381
#     4  10  23  38  65  92 128 166 213 272 311 383
#     4  11  22  40  62  93 128 172 217 262 325 383
#     4  10  20  38  66  95 120 170 218 261 315 387
#     4  10  22  38  61  94 130 160 213 260 321 384
#     4  10  21  40  60  91 129 167 213 265 321 385
#     4   9  20  38  61  90 130 155 210 269 310 376
#     4   9  20  39  62  90 131 166 205 265 320 375
#
# _framework density 21.916974
#
# number of rings (size 3 to 8) (size 9 to 14) (size 15 to 20)
#    0.000    2.000    1.250    1.500    1.750    5.500 
#    6.750    0.000   22.000    0.000    0.000    0.000 
#    0.000    0.000    0.000    0.000    0.000    0.000 
#
# Total GULP energy -178887.241145 kJ/mol
# GULP energy per Si atom -5590.226286 kJ/mol
# Density = 2.186709 g / cm^3
# Si number density = 21.916974 Si / 1000 Ang^3
#
#
#
# Elastic Constant Matrix: (Units=GPa)
#
#
# Indices 1 2 3 4 5 6 
#
# 1 98.9644 29.6162 43.4255 0.0000 -39.2135 0.0000
# 2 29.6162 81.3490 35.4355 0.0000 -18.6615 0.0000
# 3 43.4255 35.4355 83.0249 0.0000 -26.2121 0.0000
# 4 0.0000 0.0000 0.0000 26.2412 0.0000 -0.8280
# 5 -39.2135 -18.6615 -26.2121 0.0000 35.6816 0.0000
# 6 0.0000 0.0000 0.0000 -0.8280 0.0000 16.8817
#
#
#
# Elastic Compliance Matrix: (Units=1/GPa)
#
#
# Indices 1 2 3 4 5 6 
#
# 1 0.019138 -0.001230 -0.003968 0.000000 0.017474 0.000000
# 2 -0.001230 0.015659 -0.005053 0.000000 0.003125 0.000000
# 3 -0.003968 -0.005053 0.018313 0.000000 0.006449 0.000000
# 4 0.000000 0.000000 0.000000 0.038167 0.000000 0.001872
# 5 0.017474 0.003125 0.006449 0.000000 0.053601 0.000000
# 6 0.000000 0.000000 0.000000 0.001872 0.000000 0.059328
#
#
# Mechanical properties :
#
#
# Convention : Reuss Voigt Hill
#
# Bulk Modulus (GPa) = 30.66885 53.36584 42.01734
# Shear Modulus (GPa) = 21.22454 26.08499 23.65477
#
# Velocity S-wave (km/s) = 3.11530 3.45363 3.28882
# Velocity P-wave (km/s) = 5.19266 6.34865 5.79953
#
# Compressibility (1/GPa) = 0.03260637
#
# Stress axis : x y z
#
# Youngs Moduli (GPa) = 52.25280 63.86243 54.60676
#
# Poissons Ratio (x) = 0.07858 0.21668
# Poissons Ratio (y) = 0.06429 0.27592
# Poissons Ratio (z) = 0.20734 0.32269
#
# Static dielectric constant tensor:
#      x y z
#    x 1.837380 0.000000 -0.028370 
#    y 0.000000 1.783650 0.000000 
#    z -0.028370 0.000000 1.836740 
# 
# From -- ./inp_files/147127.got.cif
#   From: 2010.05.17/outbox.cif.g08.bks.cpg/sg15_74_cif.got.tgz:147127.got - 2010.06.03 18:47:42.
