data_PCOD9274144
_publ_section_title
;
Structure prediction by ZEFSAII (Michael W. Deem and Ramdas Pophale) SiO2 
 PCOD9274144
Probable space group: C 2/C
;
_chemical_formula_sum "Si O2"
_cell_formula_units_Z 60
_cell_length_a 8.019363
_cell_length_b 19.924301
_cell_length_c 27.335756
_cell_angle_alpha 90.000000
_cell_angle_beta 41.429169
_cell_angle_gamma 90.000000
_cell_volume 2890.087740
_symmetry_space_group_name_H-M "C 2/C"
_symmetry_group_IT_number 15
_symmetry_cell_setting 'monoclinic'
loop_
_space_group_symop_operation_xyz
x,y,z
-x,y,1/2-z
-x,-y,-z
x,-y,1/2+z
1/2+x,1/2+y,z
1/2-x,1/2+y,1/2-z
1/2-x,1/2-y,-z
1/2+x,1/2-y,1/2+z
loop_
_atom_site_type_symbol
_atom_site_label
_atom_site_fract_x
_atom_site_fract_y
_atom_site_fract_z
Si Si1 0.263679 0.815692 0.718095
Si Si2 0.660321 0.634196 0.901178
Si Si3 0.500000 0.910668 0.750000
Si Si4 0.849639 0.371391 0.933598
Si Si5 0.362444 0.523135 0.097383
Si Si6 0.546281 0.003142 0.546452
Si Si7 0.383466 0.668649 0.703401
Si Si8 0.867596 0.627815 0.648084
O O1 0.366268 0.865254 0.737560
O O2 0.478163 0.815760 0.628631
O O3 0.256591 0.740664 0.740429
O O4 0.000000 0.833659 0.750000
O O5 0.712272 0.554180 0.893863
O O6 0.668436 0.651008 0.841683
O O7 0.868299 0.661856 0.893569
O O8 0.379561 0.650497 0.981770
O O9 0.272409 0.954898 0.822722
O O10 0.732348 0.418903 0.917652
O O11 0.018429 0.427917 0.922418
O O12 0.656827 0.519532 0.019994
O O13 0.409688 0.059600 0.608252
O O14 0.500000 0.000000 0.500000
O O15 0.676179 0.670128 0.655912
O O16 0.262586 0.618247 0.769922
#
# Coordination Sequence:
#
# PCOD9274144 Si02
#       8
#     8   8   4   8   8   8   8   8
#     4  11  25  47  64  87 131 174 219 274 320 388
#     4  11  20  40  65  95 131 167 204 267 330 389
#     4  10  24  40  68  94 124 170 218 260 326 402
#     4  10  21  41  63  90 130 166 206 259 332 390
#     4  10  20  38  61  94 132 161 201 261 329 388
#     4  11  21  37  64  99 133 166 206 265 336 399
#     4  11  26  40  61  96 120 171 231 261 317 385
#     4  11  21  40  65  89 134 163 206 275 320 377
#
# _framework density 20.760614
#
# number of rings (size 3 to 8) (size 9 to 14) (size 15 to 20)
#    0.000    1.333    2.667    4.400    3.733    0.533 
#    2.400    0.667    0.000    0.000    0.000    0.000 
#    0.000    0.000    0.000    0.000    0.000    0.000 
#
# Total GULP energy -167099.390498 kJ/mol
# GULP energy per Si atom -5569.979683 kJ/mol
# Density = 2.071336 g / cm^3
# Si number density = 20.760614 Si / 1000 Ang^3
#
#
#
# Elastic Constant Matrix: (Units=GPa)
#
#
# Indices 1 2 3 4 5 6 
#
# 1 108.3223 16.5692 12.4125 -0.0331 4.1738 -0.0063
# 2 16.5692 36.3113 29.9571 -0.0255 -3.8686 0.0069
# 3 12.4125 29.9571 107.2453 -0.0628 10.0276 -0.0139
# 4 -0.0331 -0.0255 -0.0628 25.1331 0.0189 2.0962
# 5 4.1738 -3.8686 10.0276 0.0189 28.0314 0.0062
# 6 -0.0063 0.0069 -0.0139 2.0962 0.0062 11.7703
#
#
#
# Elastic Compliance Matrix: (Units=1/GPa)
#
#
# Indices 1 2 3 4 5 6 
#
# 1 0.010074 -0.005303 0.000542 0.000010 -0.002426 0.000009
# 2 -0.005303 0.040812 -0.011781 0.000001 0.010636 -0.000047
# 3 0.000542 -0.011781 0.013152 0.000025 -0.006411 0.000022
# 4 0.000010 0.000001 0.000025 0.040388 -0.000036 -0.007193
# 5 -0.002426 0.010636 -0.006411 -0.000036 0.039797 -0.000030
# 6 0.000009 -0.000047 0.000022 -0.007193 -0.000030 0.086241
#
#
# Mechanical properties :
#
#
# Convention : Reuss Voigt Hill
#
# Bulk Modulus (GPa) = 32.30489 41.08408 36.69449
# Shear Modulus (GPa) = 18.25721 25.84965 22.05343
#
# Velocity S-wave (km/s) = 2.96871 3.53247 3.26279
# Velocity P-wave (km/s) = 5.22929 6.03905 5.64870
#
# Compressibility (1/GPa) = 0.03095506
#
# Stress axis : x y z
#
# Youngs Moduli (GPa) = 99.26390 24.50280 76.03434
#
# Poissons Ratio (x) = 0.12993 -0.04121
# Poissons Ratio (y) = 0.52635 0.89575
# Poissons Ratio (z) = -0.05380 0.28866
#
# Static dielectric constant tensor:
#      x y z
#    x 1.822200 0.000000 -0.035420 
#    y 0.000000 1.719860 0.000000 
#    z -0.035420 0.000000 1.781550 
# 
# From -- ./inp_files/290112.got.cif
#   From: 2010.05.17/outbox.cif.g08.bks.cpg/sg15_146_cif.got.tgz:290112.got - 2010.06.03 18:47:42.
