data_PCOD9274016
_publ_section_title
;
Structure prediction by ZEFSAII (Michael W. Deem and Ramdas Pophale) SiO2 
 PCOD9274016
Probable space group: C 2/C
;
_chemical_formula_sum "Si O2"
_cell_formula_units_Z 40
_cell_length_a 8.324789
_cell_length_b 19.543481
_cell_length_c 10.087863
_cell_angle_alpha 90.000000
_cell_angle_beta 88.612021
_cell_angle_gamma 90.000000
_cell_volume 1640.766906
_symmetry_space_group_name_H-M "C 2/C"
_symmetry_group_IT_number 15
_symmetry_cell_setting 'monoclinic'
loop_
_space_group_symop_operation_xyz
x,y,z
-x,y,1/2-z
-x,-y,-z
x,-y,1/2+z
1/2+x,1/2+y,z
1/2-x,1/2+y,1/2-z
1/2-x,1/2-y,-z
1/2+x,1/2-y,1/2+z
loop_
_atom_site_type_symbol
_atom_site_label
_atom_site_fract_x
_atom_site_fract_y
_atom_site_fract_z
Si Si1 0.192367 0.299674 0.733545
Si Si2 0.285620 0.386746 0.976028
Si Si3 0.386269 0.582978 0.122662
Si Si4 0.179146 0.508591 0.795844
Si Si5 0.306941 0.353648 0.267548
O O1 0.263345 0.322655 0.875620
O O2 0.263323 0.354312 0.629107
O O3 0.237481 0.223014 0.691201
O O4 0.000000 0.305261 0.750000
O O5 0.194274 0.448528 0.903733
O O6 0.232081 0.365782 0.122545
O O7 0.471941 0.411330 0.985308
O O8 0.500000 0.592396 0.250000
O O9 0.288650 0.515867 0.168316
O O10 0.244504 0.580481 0.848426
O O11 0.000000 0.514442 0.750000
O O12 0.500000 0.354229 0.250000
#
# Coordination Sequence:
#
# PCOD9274016 Si02
#       5
#     8   8   8   8   8
#     4   9  18  36  59  84 112 141 182 232 278 329
#     4  10  20  38  61  79 111 154 184 222 283 333
#     4   8  16  33  58  79 105 145 183 219 272 336
#     4  10  21  36  56  83 110 144 188 233 276 325
#     4  11  23  37  55  85 116 146 188 232 271 327
#
# _framework density 24.378844000000001
#
# number of rings (size 3 to 8) (size 9 to 14) (size 15 to 20)
#    0.000    2.800    0.000    4.800    0.000    6.400 
#    0.000    6.000    0.000    0.000    0.000    1.400 
#    0.000    0.000    0.000    0.000    0.000    0.000 
#
# Total GULP energy -111748.267304 kJ/mol
# GULP energy per Si atom -5587.413365 kJ/mol
# Density = 2.432336 g / cm^3
# Si number density = 24.378844 Si / 1000 Ang^3
#
#
#
# Elastic Constant Matrix: (Units=GPa)
#
#
# Indices 1 2 3 4 5 6 
#
# 1 85.8460 40.4307 5.2422 0.0000 30.8971 0.0000
# 2 40.4307 193.1097 13.7326 0.0000 18.7618 0.0000
# 3 5.2422 13.7326 55.6517 0.0000 9.2109 0.0000
# 4 0.0000 0.0000 0.0000 24.8074 0.0000 5.0834
# 5 30.8971 18.7618 9.2109 0.0000 38.7189 0.0000
# 6 0.0000 0.0000 0.0000 5.0834 0.0000 30.8169
#
#
#
# Elastic Compliance Matrix: (Units=1/GPa)
#
#
# Indices 1 2 3 4 5 6 
#
# 1 0.017406 -0.002464 0.001114 0.000000 -0.012961 0.000000
# 2 -0.002464 0.005831 -0.001108 0.000000 -0.000595 0.000000
# 3 0.001114 -0.001108 0.018941 0.000000 -0.004858 0.000000
# 4 0.000000 0.000000 0.000000 0.041721 0.000000 -0.006882
# 5 -0.012961 -0.000595 -0.004858 0.000000 0.037614 0.000000
# 6 0.000000 0.000000 0.000000 -0.006882 0.000000 0.033585
#
#
# Mechanical properties :
#
#
# Convention : Reuss Voigt Hill
#
# Bulk Modulus (GPa) = 26.83787 50.37983 38.60885
# Shear Modulus (GPa) = 28.99630 37.21542 33.10586
#
# Velocity S-wave (km/s) = 3.45252 3.91134 3.68907
# Velocity P-wave (km/s) = 5.18900 6.41158 5.83241
#
# Compressibility (1/GPa) = 0.03726079
#
# Stress axis : x y z
#
# Youngs Moduli (GPa) = 57.45138 171.49745 52.79428
#
# Poissons Ratio (x) = 0.42261 -0.05879
# Poissons Ratio (y) = 0.14157 0.05851
# Poissons Ratio (z) = -0.06398 0.19005
#
# Static dielectric constant tensor:
#      x y z
#    x 1.978650 0.000000 -0.088080 
#    y 0.000000 1.946550 0.000000 
#    z -0.088080 0.000000 2.039220 
# 
# From -- ./inp_files/136308.got.cif
#   From: 2010.05.17/outbox.cif.g08.bks.cpg/sg15_69_cif.got.tgz:136308.got - 2010.06.03 18:47:42.
