data_PCOD9274269
_publ_section_title
;
Structure prediction by ZEFSAII (Michael W. Deem and Ramdas Pophale) SiO2 
 PCOD9274269
Probable space group: C 2/C
;
_chemical_formula_sum "Si O2"
_cell_formula_units_Z 56
_cell_length_a 11.574472
_cell_length_b 13.897512
_cell_length_c 17.385301
_cell_angle_alpha 90.000000
_cell_angle_beta 56.659847
_cell_angle_gamma 90.000000
_cell_volume 2336.289065
_symmetry_space_group_name_H-M "C 2/C"
_symmetry_group_IT_number 15
_symmetry_cell_setting 'monoclinic'
loop_
_space_group_symop_operation_xyz
x,y,z
-x,y,1/2-z
-x,-y,-z
x,-y,1/2+z
1/2+x,1/2+y,z
1/2-x,1/2+y,1/2-z
1/2-x,1/2-y,-z
1/2+x,1/2-y,1/2+z
loop_
_atom_site_type_symbol
_atom_site_label
_atom_site_fract_x
_atom_site_fract_y
_atom_site_fract_z
Si Si1 0.038343 0.142422 0.441787
Si Si2 0.178707 0.468892 0.919591
Si Si3 0.264625 0.332060 0.249330
Si Si4 0.135384 0.837080 0.734926
Si Si5 0.787065 0.307739 0.064407
Si Si6 0.981449 0.563351 0.880602
Si Si7 0.796541 0.957047 0.099098
O O1 0.087936 0.134423 0.336630
O O2 0.080515 0.245321 0.458634
O O3 0.880369 0.116149 0.514115
O O4 0.134111 0.059314 0.444711
O O5 0.317414 0.424511 0.835555
O O6 0.195062 0.577031 0.948434
O O7 0.074527 0.478235 0.884845
O O8 0.112293 0.407818 0.011884
O O9 0.261837 0.236384 0.199255
O O10 0.307049 0.307019 0.321654
O O11 0.326939 0.417286 0.174549
O O12 0.102605 0.363257 0.315388
O O13 0.000000 0.788652 0.750000
O O14 0.750000 0.250000 0.000000
O O15 0.867221 0.541170 0.857895
#
# Coordination Sequence:
#
# PCOD9274269 Si02
#       7
#     8   8   8   8   8   8   8
#     4  10  23  38  62  93 123 165 214 256 310 384
#     4  10  22  38  63  94 126 170 216 255 315 388
#     4  10  23  39  62  94 124 160 213 265 317 387
#     4  11  22  39  61  92 128 164 208 262 316 369
#     4  10  21  42  62  85 123 164 207 260 314 376
#     4  10  20  38  62  89 125 167 207 261 318 370
#     4  11  21  40  63  91 128 164 206 265 321 370
#
# _framework density 23.969638
#
# number of rings (size 3 to 8) (size 9 to 14) (size 15 to 20)
#    0.000    1.714    0.000    4.714    0.000    5.714 
#    0.000    9.286    0.000    3.429    0.000    0.000 
#    0.000    0.000    0.000    0.000    0.000    0.000 
#
# Total GULP energy -156024.776259 kJ/mol
# GULP energy per Si atom -5572.313438 kJ/mol
# Density = 2.391508 g / cm^3
# Si number density = 23.969638 Si / 1000 Ang^3
#
#
#
# Elastic Constant Matrix: (Units=GPa)
#
#
# Indices 1 2 3 4 5 6 
#
# 1 53.3453 16.9896 11.6913 0.0000 7.2374 0.0000
# 2 16.9896 101.3543 39.4934 0.0000 7.7340 0.0000
# 3 11.6913 39.4934 86.9306 0.0000 -0.2501 0.0000
# 4 0.0000 0.0000 0.0000 38.5464 0.0000 5.0666
# 5 7.2374 7.7340 -0.2501 0.0000 31.4189 0.0000
# 6 0.0000 0.0000 0.0000 5.0666 0.0000 15.4248
#
#
#
# Elastic Compliance Matrix: (Units=1/GPa)
#
#
# Indices 1 2 3 4 5 6 
#
# 1 0.020452 -0.002476 -0.001637 0.000000 -0.004115 0.000000
# 2 -0.002476 0.012577 -0.005388 0.000000 -0.002568 0.000000
# 3 -0.001637 -0.005388 0.014177 0.000000 0.001816 0.000000
# 4 0.000000 0.000000 0.000000 0.027113 0.000000 -0.008906
# 5 -0.004115 -0.002568 0.001816 0.000000 0.033422 0.000000
# 6 0.000000 0.000000 0.000000 -0.008906 0.000000 0.067756
#
#
# Mechanical properties :
#
#
# Convention : Reuss Voigt Hill
#
# Bulk Modulus (GPa) = 35.45893 41.99765 38.72829
# Shear Modulus (GPa) = 24.52165 28.64174 26.58170
#
# Velocity S-wave (km/s) = 3.20195 3.46051 3.33374
# Velocity P-wave (km/s) = 5.33811 5.79017 5.56873
#
# Compressibility (1/GPa) = 0.02820164
#
# Stress axis : x y z
#
# Youngs Moduli (GPa) = 48.89617 79.51019 70.53788
#
# Poissons Ratio (x) = 0.19689 0.11550
# Poissons Ratio (y) = 0.12108 0.38007
# Poissons Ratio (z) = 0.08006 0.42842
#
# Static dielectric constant tensor:
#      x y z
#    x 1.995070 0.000000 0.081970 
#    y 0.000000 1.942750 0.000000 
#    z 0.081970 0.000000 1.959680 
# 
# From -- ./inp_files/198222.got.cif
#   From: 2010.05.17/outbox.cif.g08.bks.cpg/sg15_100_cif.got.tgz:198222.got - 2010.06.03 18:47:42.
