data_PCOD9274337
_publ_section_title
;
Structure prediction by ZEFSAII (Michael W. Deem and Ramdas Pophale) SiO2 
 PCOD9274337
Probable space group: C 2/C
;
_chemical_formula_sum "Si O2"
_cell_formula_units_Z 60
_cell_length_a 14.065296
_cell_length_b 19.098241
_cell_length_c 11.175558
_cell_angle_alpha 90.000000
_cell_angle_beta 69.361712
_cell_angle_gamma 90.000000
_cell_volume 2809.349283
_symmetry_space_group_name_H-M "C 2/C"
_symmetry_group_IT_number 15
_symmetry_cell_setting 'monoclinic'
loop_
_space_group_symop_operation_xyz
x,y,z
-x,y,1/2-z
-x,-y,-z
x,-y,1/2+z
1/2+x,1/2+y,z
1/2-x,1/2+y,1/2-z
1/2-x,1/2-y,-z
1/2+x,1/2-y,1/2+z
loop_
_atom_site_type_symbol
_atom_site_label
_atom_site_fract_x
_atom_site_fract_y
_atom_site_fract_z
Si Si1 0.329458 0.634560 0.641111
Si Si2 0.424170 0.865316 0.607035
Si Si3 0.222307 0.269438 0.715067
Si Si4 0.253685 0.582434 0.927590
Si Si5 0.976409 0.055679 0.902723
Si Si6 0.500000 0.981358 0.750000
Si Si7 0.118489 0.720440 0.024156
Si Si8 0.172878 0.559414 0.556917
O O1 0.294512 0.714350 0.671439
O O2 0.283324 0.596606 0.778308
O O3 0.448868 0.620176 0.598947
O O4 0.274755 0.596695 0.555817
O O5 0.322384 0.842911 0.722640
O O6 0.478515 0.929501 0.649294
O O7 0.502059 0.800677 0.572809
O O8 0.393983 0.887252 0.489002
O O9 0.149961 0.245347 0.636000
O O10 0.333735 0.262995 0.607789
O O11 0.358499 0.577141 0.955306
O O12 0.180682 0.646348 0.996840
O O13 0.200549 0.507949 0.965811
O O14 0.000000 0.034829 0.750000
O O15 0.000000 0.000000 0.000000
O O16 0.599316 0.028704 0.690975
#
# Coordination Sequence:
#
# PCOD9274337 Si02
#       8
#     8   8   8   8   8   4   8   8
#     4  10  23  39  63  90 127 172 214 266 328 382
#     4  12  23  40  65  94 132 169 214 273 328 390
#     4  10  22  40  61  86 125 163 221 262 314 392
#     4  10  20  38  62  93 125 163 216 269 330 385
#     4  10  20  38  63  91 124 166 215 271 321 385
#     4  12  24  40  64 100 130 168 212 266 330 398
#     4  10  21  39  65  93 119 165 217 274 314 386
#     4  12  24  37  64  94 136 166 208 266 339 403
#
# _framework density 21.357258999999999
#
# number of rings (size 3 to 8) (size 9 to 14) (size 15 to 20)
#    0.000    1.333    4.000    1.200    3.733    6.933 
#    0.000    0.000    0.000    0.000    0.000    0.000 
#    0.000    0.000    0.000    0.000    0.000    0.000 
#
# Total GULP energy -167500.121342 kJ/mol
# GULP energy per Si atom -5583.337378 kJ/mol
# Density = 2.130865 g / cm^3
# Si number density = 21.357259 Si / 1000 Ang^3
#
#
#
# Elastic Constant Matrix: (Units=GPa)
#
#
# Indices 1 2 3 4 5 6 
#
# 1 57.8247 0.0800 11.3910 0.0000 3.6345 0.0000
# 2 0.0800 35.8072 9.7677 0.0000 4.6140 0.0000
# 3 11.3910 9.7677 42.5469 0.0000 -5.2623 0.0000
# 4 0.0000 0.0000 0.0000 21.0694 0.0000 -9.6611
# 5 3.6345 4.6140 -5.2623 0.0000 31.6534 0.0000
# 6 0.0000 0.0000 0.0000 -9.6611 0.0000 32.2309
#
#
#
# Elastic Compliance Matrix: (Units=1/GPa)
#
#
# Indices 1 2 3 4 5 6 
#
# 1 0.018663 0.002001 -0.005878 0.000000 -0.003412 0.000000
# 2 0.002001 0.031011 -0.008416 0.000000 -0.006149 0.000000
# 3 -0.005878 -0.008416 0.027816 0.000000 0.006526 0.000000
# 4 0.000000 0.000000 0.000000 0.055025 0.000000 0.016494
# 5 -0.003412 -0.006149 0.006526 0.000000 0.033965 0.000000
# 6 0.000000 0.000000 0.000000 0.016494 0.000000 0.035970
#
#
# Mechanical properties :
#
#
# Convention : Reuss Voigt Hill
#
# Bulk Modulus (GPa) = 18.90152 19.85067 19.37610
# Shear Modulus (GPa) = 20.43558 24.65341 22.54450
#
# Velocity S-wave (km/s) = 3.09665 3.40124 3.25251
# Velocity P-wave (km/s) = 4.65349 4.97386 4.81634
#
# Compressibility (1/GPa) = 0.05290580
#
# Stress axis : x y z
#
# Youngs Moduli (GPa) = 53.58111 32.24665 35.94998
#
# Poissons Ratio (x) = -0.06454 0.21132
# Poissons Ratio (y) = -0.10724 0.30254
# Poissons Ratio (z) = 0.31496 0.27138
#
# Static dielectric constant tensor:
#      x y z
#    x 1.770160 0.000000 -0.019960 
#    y 0.000000 1.807160 0.000000 
#    z -0.019960 0.000000 1.804250 
# 
# From -- ./inp_files/98731.got.cif
#   From: 2010.05.17/outbox.cif.g08.bks.cpg/sg15_50_cif.got.tgz:98731.got - 2010.06.03 18:47:42.
