data_PCOD9274750
_publ_section_title
;
Structure prediction by ZEFSAII (Michael W. Deem and Ramdas Pophale) SiO2 
 PCOD9274750
Probable space group: C 2/C
;
_chemical_formula_sum "Si O2"
_cell_formula_units_Z 44
_cell_length_a 12.285113
_cell_length_b 35.927762
_cell_length_c 10.367410
_cell_angle_alpha 90.000000
_cell_angle_beta 151.503965
_cell_angle_gamma 90.000000
_cell_volume 2183.167908
_symmetry_space_group_name_H-M "C 2/C"
_symmetry_group_IT_number 15
_symmetry_cell_setting 'monoclinic'
loop_
_space_group_symop_operation_xyz
x,y,z
-x,y,1/2-z
-x,-y,-z
x,-y,1/2+z
1/2+x,1/2+y,z
1/2-x,1/2+y,1/2-z
1/2-x,1/2-y,-z
1/2+x,1/2-y,1/2+z
loop_
_atom_site_type_symbol
_atom_site_label
_atom_site_fract_x
_atom_site_fract_y
_atom_site_fract_z
Si Si1 0.650902 0.467993 0.531175
Si Si2 0.735237 0.263548 0.835486
Si Si3 0.539310 0.899563 0.649836
Si Si4 0.500000 0.597701 0.250000
Si Si5 0.326466 0.149546 0.447394
Si Si6 0.731563 0.454933 0.169946
O O1 0.500000 0.477877 0.250000
O O2 0.749572 0.427338 0.610254
O O3 0.514034 0.462813 0.521823
O O4 0.814513 0.503950 0.717159
O O5 0.476272 0.251307 0.523721
O O6 0.752671 0.308080 0.850254
O O7 0.750000 0.250000 0.000000
O O8 0.500000 0.883027 0.750000
O O9 0.566429 0.868769 0.568301
O O10 0.361166 0.930184 0.409747
O O11 0.609399 0.624191 0.257149
O O12 0.695532 0.571172 0.509672
O O13 0.500000 0.148387 0.750000
#
# Coordination Sequence:
#
# PCOD9274750 Si02
#       6
#     8   8   8   4   8   8
#     4  11  22  40  57  81 116 172 221 270 323 377
#     4  10  20  38  65 101 132 165 206 265 337 400
#     4  12  25  41  59  90 129 169 215 261 330 393
#     4  12  22  38  60  94 124 160 220 276 320 374
#     4  12  24  38  65  96 129 161 208 268 324 388
#     4  11  23  38  60  83 120 163 221 279 319 374
#
# _framework density 20.154199999999999
#
# number of rings (size 3 to 8) (size 9 to 14) (size 15 to 20)
#    0.000    0.727    8.182    1.636    0.000    0.000 
#    3.273    0.000    0.000    1.091    0.000    0.000 
#    0.000    0.000    0.000    0.000    0.000    0.000 
#
# Total GULP energy -122627.443268 kJ/mol
# GULP energy per Si atom -5573.974694 kJ/mol
# Density = 2.010833 g / cm^3
# Si number density = 20.154200 Si / 1000 Ang^3
#
#
#
# Elastic Constant Matrix: (Units=GPa)
#
#
# Indices 1 2 3 4 5 6 
#
# 1 80.8505 52.4842 18.2101 0.0000 -13.1279 0.0000
# 2 52.4842 152.3762 24.4242 0.0000 -6.2920 0.0000
# 3 18.2101 24.4242 74.7093 0.0000 -6.0414 0.0000
# 4 0.0000 0.0000 0.0000 7.6283 0.0000 -1.4166
# 5 -13.1279 -6.2920 -6.0414 0.0000 31.3023 0.0000
# 6 0.0000 0.0000 0.0000 -1.4166 0.0000 17.4200
#
#
#
# Elastic Compliance Matrix: (Units=1/GPa)
#
#
# Indices 1 2 3 4 5 6 
#
# 1 0.017246 -0.005385 -0.001977 0.000000 0.005769 0.000000
# 2 -0.005385 0.008636 -0.001578 0.000000 -0.000827 0.000000
# 3 -0.001977 -0.001578 0.014517 0.000000 0.001656 0.000000
# 4 0.000000 0.000000 0.000000 0.133101 0.000000 0.010824
# 5 0.005769 -0.000827 0.001656 0.000000 0.034519 0.000000
# 6 0.000000 0.000000 0.000000 0.010824 0.000000 0.058286
#
#
# Mechanical properties :
#
#
# Convention : Reuss Voigt Hill
#
# Bulk Modulus (GPa) = 44.40464 55.35255 49.87860
# Shear Modulus (GPa) = 17.14141 25.45795 21.29968
#
# Velocity S-wave (km/s) = 2.91952 3.55795 3.25443
# Velocity P-wave (km/s) = 5.78317 6.66354 6.23891
#
# Compressibility (1/GPa) = 0.02252017
#
# Stress axis : x y z
#
# Youngs Moduli (GPa) = 57.98364 115.79023 68.88632
#
# Poissons Ratio (x) = 0.62356 0.13616
# Poissons Ratio (y) = 0.31225 0.10868
# Poissons Ratio (z) = 0.11461 0.18268
#
# Static dielectric constant tensor:
#      x y z
#    x 1.734000 0.000000 0.062340 
#    y 0.000000 1.704250 0.000000 
#    z 0.062340 0.000000 1.801230 
# 
# From -- ./inp_files/101570.got.cif
#   From: 2010.05.17/outbox.cif.g08.bks.cpg/sg15_51_cif.got.tgz:101570.got - 2010.06.03 18:47:42.
