data_PCOD9274922
_publ_section_title
;
Structure prediction by ZEFSAII (Michael W. Deem and Ramdas Pophale) SiO2 
 PCOD9274922
Probable space group: C 2/C
;
_chemical_formula_sum "Si O2"
_cell_formula_units_Z 40
_cell_length_a 9.788191
_cell_length_b 12.001244
_cell_length_c 15.195779
_cell_angle_alpha 90.000000
_cell_angle_beta 127.811148
_cell_angle_gamma 90.000000
_cell_volume 1410.257476
_symmetry_space_group_name_H-M "C 2/C"
_symmetry_group_IT_number 15
_symmetry_cell_setting 'monoclinic'
loop_
_space_group_symop_operation_xyz
x,y,z
-x,y,1/2-z
-x,-y,-z
x,-y,1/2+z
1/2+x,1/2+y,z
1/2-x,1/2+y,1/2-z
1/2-x,1/2-y,-z
1/2+x,1/2-y,1/2+z
loop_
_atom_site_type_symbol
_atom_site_label
_atom_site_fract_x
_atom_site_fract_y
_atom_site_fract_z
Si Si1 0.606268 0.803824 0.376924
Si Si2 0.729307 0.112705 0.647774
Si Si3 0.607649 0.632331 0.611134
Si Si4 0.884390 0.389525 0.849096
Si Si5 0.265472 0.857232 0.604354
O O1 0.500000 0.748744 0.250000
O O2 0.750000 0.750000 0.500000
O O3 0.447231 0.845913 0.373360
O O4 0.721025 0.899811 0.375203
O O5 0.874176 0.100554 0.780717
O O6 0.777981 0.220000 0.608704
O O7 0.686119 0.983375 0.612932
O O8 0.629770 0.766343 0.619270
O O9 0.424600 0.606741 0.498323
O O10 0.791735 0.386614 0.717399
O O11 0.084081 0.400634 0.899501
#
# Coordination Sequence:
#
# PCOD9274922 Si02
#       5
#     8   8   8   8   8
#     4  10  20  38  66  93 133 175 214 286 335 397
#     4  10  22  41  64  93 129 168 226 272 332 415
#     4  10  21  39  65  88 131 169 218 280 334 405
#     4  10  23  40  64  94 123 178 215 278 350 394
#     4  10  21  40  65  89 130 167 219 277 335 405
#
# _framework density 28.363614999999999
#
# number of rings (size 3 to 8) (size 9 to 14) (size 15 to 20)
#    0.000    2.000    2.000    0.600    8.400    1.600 
#    0.000    0.000   44.000    0.000    0.000    0.000 
#    0.000    0.000    0.000    0.000    0.000    0.000 
#
# Total GULP energy -111935.749861 kJ/mol
# GULP energy per Si atom -5596.787493 kJ/mol
# Density = 2.829906 g / cm^3
# Si number density = 28.363615 Si / 1000 Ang^3
#
#
#
# Elastic Constant Matrix: (Units=GPa)
#
#
# Indices 1 2 3 4 5 6 
#
# 1 97.4775 25.4633 13.1756 0.0000 14.0771 0.0000
# 2 25.4633 161.5752 14.2874 0.0000 -7.1766 0.0000
# 3 13.1756 14.2874 234.0071 0.0000 23.2604 0.0000
# 4 0.0000 0.0000 0.0000 21.5601 0.0000 0.9665
# 5 14.0771 -7.1766 23.2604 0.0000 53.0833 0.0000
# 6 0.0000 0.0000 0.0000 0.9665 0.0000 48.9756
#
#
#
# Elastic Compliance Matrix: (Units=1/GPa)
#
#
# Indices 1 2 3 4 5 6 
#
# 1 0.011235 -0.001892 -0.000204 0.000000 -0.003146 0.000000
# 2 -0.001892 0.006598 -0.000455 0.000000 0.001593 0.000000
# 3 -0.000204 -0.000455 0.004510 0.000000 -0.001983 0.000000
# 4 0.000000 0.000000 0.000000 0.046423 0.000000 -0.000916
# 5 -0.003146 0.001593 -0.001983 0.000000 0.020757 0.000000
# 6 0.000000 0.000000 0.000000 -0.000916 0.000000 0.020436
#
#
# Mechanical properties :
#
#
# Convention : Reuss Voigt Hill
#
# Bulk Modulus (GPa) = 58.00297 66.54582 62.27439
# Shear Modulus (GPa) = 41.38769 54.06602 47.72686
#
# Velocity S-wave (km/s) = 3.82407 4.37071 4.10650
# Velocity P-wave (km/s) = 6.32394 6.99882 6.66992
#
# Compressibility (1/GPa) = 0.01724050
#
# Stress axis : x y z
#
# Youngs Moduli (GPa) = 89.00783 151.55579 221.73966
#
# Poissons Ratio (x) = 0.28678 0.04532
# Poissons Ratio (y) = 0.16842 0.10082
# Poissons Ratio (z) = 0.01819 0.06891
#
# Static dielectric constant tensor:
#      x y z
#    x 2.319240 0.000000 -0.026200 
#    y 0.000000 2.337860 0.000000 
#    z -0.026200 0.000000 2.231570 
# 
# From -- ./inp_files/237805.got.cif
#   From: 2010.05.17/outbox.cif.g08.bks.cpg/sg15_119_cif.got.tgz:237805.got - 2010.06.03 18:47:42.
