data_PCOD9274471
_publ_section_title
;
Structure prediction by ZEFSAII (Michael W. Deem and Ramdas Pophale) SiO2 
 PCOD9274471
Probable space group: C 2/C
;
_chemical_formula_sum "Si O2"
_cell_formula_units_Z 56
_cell_length_a 9.274038
_cell_length_b 16.170586
_cell_length_c 19.215753
_cell_angle_alpha 90.000000
_cell_angle_beta 103.343525
_cell_angle_gamma 90.000000
_cell_volume 2803.926264
_symmetry_space_group_name_H-M "C 2/C"
_symmetry_group_IT_number 15
_symmetry_cell_setting 'monoclinic'
loop_
_space_group_symop_operation_xyz
x,y,z
-x,y,1/2-z
-x,-y,-z
x,-y,1/2+z
1/2+x,1/2+y,z
1/2-x,1/2+y,1/2-z
1/2-x,1/2-y,-z
1/2+x,1/2-y,1/2+z
loop_
_atom_site_type_symbol
_atom_site_label
_atom_site_fract_x
_atom_site_fract_y
_atom_site_fract_z
Si Si1 0.546131 0.159348 0.529371
Si Si2 0.500000 0.216534 0.250000
Si Si3 0.804739 0.603559 0.608589
Si Si4 0.649773 0.581995 0.949281
Si Si5 0.574857 0.547510 0.096058
Si Si6 0.000000 0.326630 0.250000
Si Si7 0.828562 0.786244 0.839067
Si Si8 0.050406 0.227730 0.607082
O O1 0.412744 0.113923 0.554788
O O2 0.676216 0.093486 0.530683
O O3 0.617575 0.232386 0.586762
O O4 0.495733 0.200400 0.451260
O O5 0.346137 0.191783 0.190768
O O6 0.419143 0.251141 0.309765
O O7 0.705170 0.521689 0.607905
O O8 0.905609 0.617285 0.687348
O O9 0.691252 0.680059 0.591950
O O10 0.579578 0.499663 0.909302
O O11 0.580758 0.660550 0.903523
O O12 0.582551 0.584182 0.019223
O O13 0.596289 0.623987 0.148731
O O14 0.106114 0.268876 0.215697
#
# Coordination Sequence:
#
# PCOD9274471 Si02
#       8
#     8   4   8   8   8   4   8   8
#     4  11  21  39  69  92 122 167 224 265 306 381
#     4  12  22  35  65  96 126 158 220 268 308 379
#     4  10  23  39  63  91 132 168 207 270 329 378
#     4  10  20  38  63  92 123 164 211 259 318 385
#     4  10  22  40  61  91 132 165 205 264 332 375
#     4  10  22  43  61  88 126 172 218 252 324 381
#     4  11  22  41  64  93 123 169 215 271 307 386
#     4  11  20  38  62  99 121 165 214 267 311 377
#
# _framework density 19.971996000000001
#
# number of rings (size 3 to 8) (size 9 to 14) (size 15 to 20)
#    0.000    1.429    4.286    1.714    0.000    1.143 
#    0.000    7.143    0.000    0.000    0.000    0.000 
#    0.000    0.000    0.000    0.000    0.000    0.000 
#
# Total GULP energy -155915.005587 kJ/mol
# GULP energy per Si atom -5568.393057 kJ/mol
# Density = 1.992654 g / cm^3
# Si number density = 19.971996 Si / 1000 Ang^3
#
#
#
# Elastic Constant Matrix: (Units=GPa)
#
#
# Indices 1 2 3 4 5 6 
#
# 1 70.6803 7.4358 11.0335 0.0000 9.1793 0.0000
# 2 7.4358 59.5008 29.4192 0.0000 4.0042 0.0000
# 3 11.0335 29.4192 94.2174 0.0000 3.1994 0.0000
# 4 0.0000 0.0000 0.0000 -31.1040 0.0000 -6.3414
# 5 9.1793 4.0042 3.1994 0.0000 28.8883 0.0000
# 6 0.0000 0.0000 0.0000 -6.3414 0.0000 4.4220
#
#
#
# Elastic Compliance Matrix: (Units=1/GPa)
#
#
# Indices 1 2 3 4 5 6 
#
# 1 0.015036 -0.000924 -0.001320 0.000000 -0.004504 0.000000
# 2 -0.000924 0.020056 -0.006093 0.000000 -0.001812 0.000000
# 3 -0.001320 -0.006093 0.012676 0.000000 -0.000140 0.000000
# 4 0.000000 0.000000 0.000000 -0.024877 0.000000 -0.035675
# 5 -0.004504 -0.001812 -0.000140 0.000000 0.036314 0.000000
# 6 0.000000 0.000000 0.000000 -0.035675 0.000000 0.174981
#
#
# Mechanical properties :
#
#
# Convention : Reuss Voigt Hill
#
# Bulk Modulus (GPa) = 32.15833 35.57508 33.86671
# Shear Modulus (GPa) = 19.14070 12.20860 15.67465
#
# Velocity S-wave (km/s) = 3.09912 2.47510 2.80452
# Velocity P-wave (km/s) = 5.37985 5.10091 5.24224
#
# Compressibility (1/GPa) = 0.03109614
#
# Stress axis : x y z
#
# Youngs Moduli (GPa) = 66.50594 49.85953 78.89228
#
# Poissons Ratio (x) = 0.04605 0.10410
# Poissons Ratio (y) = 0.06142 0.48068
# Poissons Ratio (z) = 0.08776 0.30379
#
# Static dielectric constant tensor:
#      x y z
#    x 5.598940 0.000000 0.487940 
#    y 0.000000 1.697130 0.000000 
#    z 0.487940 0.000000 1.784240 
# 
# From -- ./inp_files/191077.got.cif
#   From: 2010.05.17/outbox.cif.g08.bks.cpg/sg15_96_cif.got.tgz:191077.got - 2010.06.03 18:47:42.
