data_PCOD9274412
_publ_section_title
;
Structure prediction by ZEFSAII (Michael W. Deem and Ramdas Pophale) SiO2 
 PCOD9274412
Probable space group: C 2/C
;
_chemical_formula_sum "Si O2"
_cell_formula_units_Z 52
_cell_length_a 8.935186
_cell_length_b 24.524146
_cell_length_c 20.212902
_cell_angle_alpha 90.000000
_cell_angle_beta 142.118255
_cell_angle_gamma 90.000000
_cell_volume 2719.683771
_symmetry_space_group_name_H-M "C 2/C"
_symmetry_group_IT_number 15
_symmetry_cell_setting 'monoclinic'
loop_
_space_group_symop_operation_xyz
x,y,z
-x,y,1/2-z
-x,-y,-z
x,-y,1/2+z
1/2+x,1/2+y,z
1/2-x,1/2+y,1/2-z
1/2-x,1/2-y,-z
1/2+x,1/2-y,1/2+z
loop_
_atom_site_type_symbol
_atom_site_label
_atom_site_fract_x
_atom_site_fract_y
_atom_site_fract_z
Si Si1 0.133408 0.224599 0.393298
Si Si2 0.500000 0.185798 0.750000
Si Si3 0.500000 0.658400 0.750000
Si Si4 0.294037 0.342975 0.855908
Si Si5 0.373231 0.400691 0.338282
Si Si6 0.347875 0.235805 0.961669
Si Si7 0.500000 0.993145 0.250000
Si Si8 0.336592 0.445936 0.951903
O O1 0.250000 0.250000 0.500000
O O2 0.994908 0.274227 0.310274
O O3 0.378055 0.211575 0.437500
O O4 0.943571 0.176987 0.343708
O O5 0.263324 0.147731 0.669614
O O6 0.611458 0.619847 0.731413
O O7 0.683806 0.696618 0.857237
O O8 0.346595 0.294081 0.925040
O O9 0.399935 0.399170 0.920984
O O10 0.000000 0.346854 0.750000
O O11 0.621718 0.417902 0.462475
O O12 0.203464 0.453003 0.291342
O O13 0.250000 0.250000 0.000000
O O14 0.421523 0.031530 0.161886
O O15 0.500000 0.500000 0.000000
#
# Coordination Sequence:
#
# PCOD9274412 Si02
#       8
#     8   4   4   8   8   8   4   8
#     4  10  22  35  54  86 122 159 196 240 294 364
#     4  11  20  38  58  82 122 162 198 231 294 386
#     4  12  22  39  60  92 128 159 202 256 312 382
#     4  11  21  36  58  87 123 157 194 256 312 356
#     4  10  21  36  62  88 116 160 205 250 310 370
#     4  11  23  37  59  89 128 167 203 241 307 380
#     4   9  20  39  62  88 116 157 210 271 306 368
#     4  10  20  38  63  88 113 155 214 261 312 367
#
# _framework density 19.119871
#
# number of rings (size 3 to 8) (size 9 to 14) (size 15 to 20)
#    0.000    1.538    1.538    5.538    2.154    2.462 
#    0.000    0.769    0.000    7.385    0.000    0.000 
#    0.000    0.000    0.000    0.000    0.000    0.000 
#
# Total GULP energy -144800.365355 kJ/mol
# GULP energy per Si atom -5569.244821 kJ/mol
# Density = 1.907635 g / cm^3
# Si number density = 19.119871 Si / 1000 Ang^3
#
#
#
# Elastic Constant Matrix: (Units=GPa)
#
#
# Indices 1 2 3 4 5 6 
#
# 1 104.8578 41.5393 33.9899 0.0000 0.0403 0.0000
# 2 41.5393 118.5856 49.5735 0.0000 -7.4095 0.0000
# 3 33.9899 49.5735 100.5368 0.0006 -3.9635 0.0001
# 4 0.0000 0.0000 0.0006 32.0643 0.0002 -13.6090
# 5 0.0403 -7.4095 -3.9635 0.0002 28.4749 0.0000
# 6 0.0000 0.0000 0.0001 -13.6090 0.0000 15.8018
#
#
#
# Elastic Compliance Matrix: (Units=1/GPa)
#
#
# Indices 1 2 3 4 5 6 
#
# 1 0.011553 -0.003108 -0.002419 0.000000 -0.001162 0.000000
# 2 -0.003108 0.011578 -0.004564 0.000000 0.002382 0.000000
# 3 -0.002419 -0.004564 0.013040 0.000000 0.000631 -0.000001
# 4 0.000000 0.000000 0.000000 0.049155 0.000000 0.042334
# 5 -0.001162 0.002382 0.000631 0.000000 0.035828 0.000000
# 6 0.000000 0.000000 -0.000001 0.042334 0.000000 0.099743
#
#
# Mechanical properties :
#
#
# Convention : Reuss Voigt Hill
#
# Bulk Modulus (GPa) = 62.54749 63.79840 63.17294
# Shear Modulus (GPa) = 20.29141 28.52670 24.40906
#
# Velocity S-wave (km/s) = 3.26125 3.86682 3.57688
# Velocity P-wave (km/s) = 6.85313 7.30592 7.08314
#
# Compressibility (1/GPa) = 0.01598785
#
# Stress axis : x y z
#
# Youngs Moduli (GPa) = 86.56091 86.36751 76.68729
#
# Poissons Ratio (x) = 0.26844 0.18550
# Poissons Ratio (y) = 0.26904 0.35004
# Poissons Ratio (z) = 0.20939 0.39422
#
# Static dielectric constant tensor:
#      x y z
#    x 1.795070 0.000000 0.029730 
#    y 0.000000 1.658940 0.000000 
#    z 0.029730 0.000000 1.740540 
# 
# From -- ./inp_files/137562.got.cif
#   From: 2010.05.17/outbox.cif.g08.bks.cpg/sg15_69_cif.got.tgz:137562.got - 2010.06.03 18:47:42.
