data_PCOD9274949
_publ_section_title
;
Structure prediction by ZEFSAII (Michael W. Deem and Ramdas Pophale) SiO2 
 PCOD9274949
Probable space group: C 2/C
;
_chemical_formula_sum "Si O2"
_cell_formula_units_Z 60
_cell_length_a 27.107448
_cell_length_b 18.132396
_cell_length_c 14.288594
_cell_angle_alpha 90.000000
_cell_angle_beta 21.649362
_cell_angle_gamma 90.000000
_cell_volume 2591.026981
_symmetry_space_group_name_H-M "C 2/C"
_symmetry_group_IT_number 15
_symmetry_cell_setting 'monoclinic'
loop_
_space_group_symop_operation_xyz
x,y,z
-x,y,1/2-z
-x,-y,-z
x,-y,1/2+z
1/2+x,1/2+y,z
1/2-x,1/2+y,1/2-z
1/2-x,1/2-y,-z
1/2+x,1/2-y,1/2+z
loop_
_atom_site_type_symbol
_atom_site_label
_atom_site_fract_x
_atom_site_fract_y
_atom_site_fract_z
Si Si1 0.928255 0.588031 0.470859
Si Si2 0.122081 0.923867 0.238888
Si Si3 0.639117 0.853816 0.970606
Si Si4 0.639486 0.521615 0.026200
Si Si5 0.861778 0.251836 0.012127
Si Si6 0.750000 0.250000 0.000000
Si Si7 0.383644 0.863730 0.703613
Si Si8 0.663698 0.449705 0.798236
O O1 0.783601 0.556436 0.752731
O O2 0.898758 0.672873 0.498005
O O3 0.029170 0.586891 0.381500
O O4 0.000000 0.556785 0.250000
O O5 0.964139 0.909281 0.522081
O O6 0.167003 0.967073 0.252268
O O7 0.225507 0.860470 0.022974
O O8 0.138710 0.987094 0.130345
O O9 0.755694 0.794846 0.755888
O O10 0.617691 0.884942 0.902236
O O11 0.693773 0.911151 0.951720
O O12 0.500000 0.822475 0.250000
O O13 0.631183 0.456013 0.965205
O O14 0.500000 0.564572 0.250000
O O15 0.800539 0.268532 0.019516
O O16 0.000000 0.208991 0.750000
O O17 0.903158 0.277711 0.685666
#
# Coordination Sequence:
#
# PCOD9274949 Si02
#       8
#     8   8   8   8   8   4   8   8
#     4  11  22  40  65  95 124 155 212 263 309 363
#     4  10  22  39  63  93 122 169 212 255 310 374
#     4  11  26  41  62  92 133 163 207 259 324 371
#     4  10  22  40  61  90 126 167 203 253 309 373
#     4  10  22  42  67  93 121 162 212 260 308 378
#     4  10  20  38  66  96 116 156 212 262 306 364
#     4  11  22  39  67  93 124 163 214 258 315 371
#     4  10  22  40  61  88 128 164 212 254 309 374
#
# _framework density 23.156842000000001
#
# number of rings (size 3 to 8) (size 9 to 14) (size 15 to 20)
#    0.000    1.600    4.000    0.800    5.600    2.667 
#    0.000    0.667    0.000    0.000    0.000    0.000 
#    0.000    0.000    0.000    0.000    0.000    0.000 
#
# Total GULP energy -167036.393938 kJ/mol
# GULP energy per Si atom -5567.879798 kJ/mol
# Density = 2.310414 g / cm^3
# Si number density = 23.156842 Si / 1000 Ang^3
#
#
#
# Elastic Constant Matrix: (Units=GPa)
#
#
# Indices 1 2 3 4 5 6 
#
# 1 94.6300 14.8771 12.2357 0.0000 -8.3218 0.0000
# 2 14.8771 44.8163 32.5760 0.0003 -6.3669 -0.0001
# 3 12.2357 32.5760 150.3347 0.0003 -12.1270 -0.0002
# 4 0.0000 0.0003 0.0003 33.8851 -0.0003 -0.7124
# 5 -8.3218 -6.3669 -12.1270 -0.0003 27.3479 0.0002
# 6 0.0000 -0.0001 -0.0002 -0.7124 0.0002 21.8061
#
#
#
# Elastic Compliance Matrix: (Units=1/GPa)
#
#
# Indices 1 2 3 4 5 6 
#
# 1 0.011334 -0.003405 0.000031 0.000000 0.002670 0.000000
# 2 -0.003405 0.027885 -0.005523 0.000000 0.003007 0.000000
# 3 0.000031 -0.005523 0.008030 0.000000 0.002285 0.000000
# 4 0.000000 0.000000 0.000000 0.029532 0.000000 0.000965
# 5 0.002670 0.003007 0.002285 0.000000 0.039091 0.000000
# 6 0.000000 0.000000 0.000000 0.000965 0.000000 0.045890
#
#
# Mechanical properties :
#
#
# Convention : Reuss Voigt Hill
#
# Bulk Modulus (GPa) = 33.95064 45.46207 39.70635
# Shear Modulus (GPa) = 26.40259 31.94731 29.17495
#
# Velocity S-wave (km/s) = 3.38029 3.71833 3.55334
# Velocity P-wave (km/s) = 5.47067 6.17329 5.83257
#
# Compressibility (1/GPa) = 0.02945453
#
# Stress axis : x y z
#
# Youngs Moduli (GPa) = 88.23296 35.86123 124.52793
#
# Poissons Ratio (x) = 0.12212 -0.00384
# Poissons Ratio (y) = 0.30047 0.68774
# Poissons Ratio (z) = -0.00272 0.19805
#
# Static dielectric constant tensor:
#      x y z
#    x 2.022350 0.000000 -0.117650 
#    y 0.000000 4.312030 0.000000 
#    z -0.117650 0.000000 2.008910 
# 
# From -- ./inp_files/179259.got.cif
#   From: 2010.05.17/outbox.cif.g08.bks.cpg/sg15_90_cif.got.tgz:179259.got - 2010.06.03 18:47:42.
