data_PCOD9274521
_publ_section_title
;
Structure prediction by ZEFSAII (Michael W. Deem and Ramdas Pophale) SiO2 
 PCOD9274521
Probable space group: C 2/C
;
_chemical_formula_sum "Si O2"
_cell_formula_units_Z 52
_cell_length_a 8.802340
_cell_length_b 16.768453
_cell_length_c 18.771384
_cell_angle_alpha 90.000000
_cell_angle_beta 116.472330
_cell_angle_gamma 90.000000
_cell_volume 2480.179547
_symmetry_space_group_name_H-M "C 2/C"
_symmetry_group_IT_number 15
_symmetry_cell_setting 'monoclinic'
loop_
_space_group_symop_operation_xyz
x,y,z
-x,y,1/2-z
-x,-y,-z
x,-y,1/2+z
1/2+x,1/2+y,z
1/2-x,1/2+y,1/2-z
1/2-x,1/2-y,-z
1/2+x,1/2-y,1/2+z
loop_
_atom_site_type_symbol
_atom_site_label
_atom_site_fract_x
_atom_site_fract_y
_atom_site_fract_z
Si Si1 0.805707 0.673260 0.971038
Si Si2 0.000000 0.308442 0.250000
Si Si3 0.705200 0.637172 0.795785
Si Si4 0.997685 0.068041 0.940068
Si Si5 0.911189 0.024936 0.166743
Si Si6 0.393128 0.080932 0.483964
Si Si7 0.780678 0.691076 0.573729
O O1 0.777707 0.682561 0.880641
O O2 0.687377 0.600231 0.969794
O O3 0.750000 0.750000 0.000000
O O4 0.995937 0.649393 0.029394
O O5 0.837746 0.349276 0.258679
O O6 0.894897 0.272115 0.160721
O O7 0.500000 0.658571 0.750000
O O8 0.698356 0.544372 0.817696
O O9 0.959070 0.022841 0.857762
O O10 0.887707 0.146825 0.932254
O O11 0.000000 0.000000 0.000000
O O12 0.000000 0.070272 0.250000
O O13 0.788104 0.073318 0.090327
O O14 0.373695 0.112491 0.560027
O O15 0.500000 0.000000 0.500000
O O16 0.750000 0.750000 0.500000
#
# Coordination Sequence:
#
# PCOD9274521 Si02
#       7
#     8   4   8   8   8   8   8
#     4  11  22  39  66  92 129 168 218 276 336 396
#     4  12  22  42  68  96 136 180 232 278 332 430
#     4  10  21  39  65  98 130 176 227 276 337 406
#     4  11  21  39  65  93 128 174 215 275 341 397
#     4  10  20  38  63  98 135 170 217 280 340 399
#     4  12  20  40  66  96 124 170 223 269 330 404
#     4  12  25  41  64 100 130 172 229 279 337 406
#
# _framework density 20.966224
#
# number of rings (size 3 to 8) (size 9 to 14) (size 15 to 20)
#    0.000    0.923    6.154    3.692    0.000    0.000 
#    1.385    0.000    3.385    0.000    0.000    0.000 
#    0.000    0.000    0.000    0.000    0.000    0.000 
#
# Total GULP energy -144769.888260 kJ/mol
# GULP energy per Si atom -5568.072625 kJ/mol
# Density = 2.091850 g / cm^3
# Si number density = 20.966224 Si / 1000 Ang^3
#
#
#
# Elastic Constant Matrix: (Units=GPa)
#
#
# Indices 1 2 3 4 5 6 
#
# 1 123.5932 22.1093 30.7745 0.0000 -8.4600 0.0000
# 2 22.1093 52.6630 36.3234 0.0000 -2.7686 0.0000
# 3 30.7745 36.3234 147.1367 0.0000 3.9684 0.0000
# 4 0.0000 0.0000 0.0000 27.7632 0.0000 -5.6316
# 5 -8.4600 -2.7686 3.9684 0.0000 38.6424 0.0000
# 6 0.0000 0.0000 0.0000 -5.6316 0.0000 36.3448
#
#
#
# Elastic Compliance Matrix: (Units=1/GPa)
#
#
# Indices 1 2 3 4 5 6 
#
# 1 0.009038 -0.002838 -0.001241 0.000000 0.001903 0.000000
# 2 -0.002838 0.023969 -0.005368 0.000000 0.001647 0.000000
# 3 -0.001241 -0.005368 0.008422 0.000000 -0.001521 0.000000
# 4 0.000000 0.000000 0.000000 0.037188 0.000000 0.005762
# 5 0.001903 0.001647 -0.001521 0.000000 0.026569 0.000000
# 6 0.000000 0.000000 0.000000 0.005762 0.000000 0.028407
#
#
# Mechanical properties :
#
#
# Convention : Reuss Voigt Hill
#
# Bulk Modulus (GPa) = 44.37588 55.75638 50.06613
# Shear Modulus (GPa) = 31.24997 36.16246 33.70622
#
# Velocity S-wave (km/s) = 3.86488 4.15757 4.01389
# Velocity P-wave (km/s) = 6.41309 7.04971 6.73892
#
# Compressibility (1/GPa) = 0.02253476
#
# Stress axis : x y z
#
# Youngs Moduli (GPa) = 110.64311 41.71983 118.73410
#
# Poissons Ratio (x) = 0.11842 0.14734
# Poissons Ratio (y) = 0.31406 0.63737
# Poissons Ratio (z) = 0.13730 0.22395
#
# Static dielectric constant tensor:
#      x y z
#    x 1.821080 0.000000 0.006930 
#    y 0.000000 1.826540 0.000000 
#    z 0.006930 0.000000 1.813590 
# 
# From -- ./inp_files/190582.got.cif
#   From: 2010.05.17/outbox.cif.g08.bks.cpg/sg15_96_cif.got.tgz:190582.got - 2010.06.03 18:47:42.
