data_PCOD9274601
_publ_section_title
;
Structure prediction by ZEFSAII (Michael W. Deem and Ramdas Pophale) SiO2 
 PCOD9274601
Probable space group: C 2/C
;
_chemical_formula_sum "Si O2"
_cell_formula_units_Z 44
_cell_length_a 11.165598
_cell_length_b 11.408026
_cell_length_c 26.058839
_cell_angle_alpha 90.000000
_cell_angle_beta 30.225620
_cell_angle_gamma 90.000000
_cell_volume 1670.960757
_symmetry_space_group_name_H-M "C 2/C"
_symmetry_group_IT_number 15
_symmetry_cell_setting 'monoclinic'
loop_
_space_group_symop_operation_xyz
x,y,z
-x,y,1/2-z
-x,-y,-z
x,-y,1/2+z
1/2+x,1/2+y,z
1/2-x,1/2+y,1/2-z
1/2-x,1/2-y,-z
1/2+x,1/2-y,1/2+z
loop_
_atom_site_type_symbol
_atom_site_label
_atom_site_fract_x
_atom_site_fract_y
_atom_site_fract_z
Si Si1 0.749089 0.986252 0.757451
Si Si2 0.000000 0.151097 0.250000
Si Si3 0.710802 0.414692 0.055223
Si Si4 0.871073 0.325891 0.530375
Si Si5 0.749080 0.046481 0.074343
Si Si6 0.763270 0.709568 0.325280
O O1 0.815599 0.934178 0.788214
O O2 0.481731 0.032821 0.850721
O O3 0.766400 0.871673 0.713915
O O4 0.934434 0.086313 0.673121
O O5 0.160446 0.216075 0.147288
O O6 0.780322 0.549749 0.042536
O O7 0.725117 0.390583 0.989748
O O8 0.899252 0.343083 0.017848
O O9 0.001215 0.260077 0.435315
O O10 0.685793 0.123546 0.146146
O O11 0.000000 0.000000 0.000000
O O12 0.000000 0.790554 0.250000
#
# Coordination Sequence:
#
# PCOD9274601 Si02
#       6
#     8   4   8   8   8   8
#     4  10  21  40  64  93 127 169 208 265 319 380
#     4  10  20  38  64  88 132 160 204 268 322 364
#     4  10  21  38  66  92 121 166 213 257 311 383
#     4  10  22  41  64  96 124 170 211 263 319 378
#     4  11  21  40  63  89 127 170 206 260 317 381
#     4  10  23  41  64  89 131 169 212 261 324 376
#
# _framework density 26.332156000000001
#
# number of rings (size 3 to 8) (size 9 to 14) (size 15 to 20)
#    0.000    1.818    3.636    0.000    0.000    5.091 
#    3.273    1.818    0.000    0.000    0.000    0.000 
#    0.000    0.000    0.000    0.000    0.000    0.000 
#
# Total GULP energy -122788.172498 kJ/mol
# GULP energy per Si atom -5581.280568 kJ/mol
# Density = 2.627222 g / cm^3
# Si number density = 26.332156 Si / 1000 Ang^3
#
#
#
# Elastic Constant Matrix: (Units=GPa)
#
#
# Indices 1 2 3 4 5 6 
#
# 1 161.4730 28.1477 29.9408 -0.0012 -11.3050 0.0000
# 2 28.1477 35.1182 17.6023 -0.0019 6.0609 -0.0002
# 3 29.9408 17.6023 147.1099 -0.0040 -27.5356 -0.0008
# 4 -0.0012 -0.0019 -0.0040 21.8492 -0.0014 2.8011
# 5 -11.3050 6.0609 -27.5356 -0.0014 69.3589 0.0002
# 6 0.0000 -0.0002 -0.0008 2.8011 0.0002 12.4104
#
#
#
# Elastic Compliance Matrix: (Units=1/GPa)
#
#
# Indices 1 2 3 4 5 6 
#
# 1 0.007435 -0.005966 -0.000513 0.000000 0.001530 0.000000
# 2 -0.005966 0.036384 -0.004231 0.000002 -0.005831 0.000000
# 3 -0.000513 -0.004231 0.008061 0.000001 0.003486 0.000000
# 4 0.000000 0.000002 0.000001 0.047132 0.000001 -0.010638
# 5 0.001530 -0.005831 0.003486 0.000001 0.016561 0.000000
# 6 0.000000 0.000000 0.000000 -0.010638 0.000000 0.082979
#
#
# Mechanical properties :
#
#
# Convention : Reuss Voigt Hill
#
# Bulk Modulus (GPa) = 32.82969 55.00917 43.91943
# Shear Modulus (GPa) = 21.72726 38.59104 30.15915
#
# Velocity S-wave (km/s) = 2.87561 3.83240 3.38795
# Velocity P-wave (km/s) = 4.84975 6.36545 5.65858
#
# Compressibility (1/GPa) = 0.03046023
#
# Stress axis : x y z
#
# Youngs Moduli (GPa) = 134.49472 27.48436 124.05662
#
# Poissons Ratio (x) = 0.16398 0.06365
# Poissons Ratio (y) = 0.80243 0.52485
# Poissons Ratio (z) = 0.06901 0.11628
#
# Static dielectric constant tensor:
#      x y z
#    x 2.219460 -0.000010 -0.448920 
#    y -0.000010 2.213370 0.000030 
#    z -0.448920 0.000030 3.072640 
# 
# From -- ./inp_files/86810.got.cif
#   From: 2010.05.17/outbox.cif.g08.bks.cpg/sg15_44_cif.got.tgz:86810.got - 2010.06.03 18:47:42.
