data_PCOD9274865
_publ_section_title
;
Structure prediction by ZEFSAII (Michael W. Deem and Ramdas Pophale) SiO2 
 PCOD9274865
Probable space group: C 2/C
;
_chemical_formula_sum "Si O2"
_cell_formula_units_Z 60
_cell_length_a 8.791126
_cell_length_b 29.550526
_cell_length_c 11.816778
_cell_angle_alpha 90.000000
_cell_angle_beta 99.298867
_cell_angle_gamma 90.000000
_cell_volume 3029.450526
_symmetry_space_group_name_H-M "C 2/C"
_symmetry_group_IT_number 15
_symmetry_cell_setting 'monoclinic'
loop_
_space_group_symop_operation_xyz
x,y,z
-x,y,1/2-z
-x,-y,-z
x,-y,1/2+z
1/2+x,1/2+y,z
1/2-x,1/2+y,1/2-z
1/2-x,1/2-y,-z
1/2+x,1/2-y,1/2+z
loop_
_atom_site_type_symbol
_atom_site_label
_atom_site_fract_x
_atom_site_fract_y
_atom_site_fract_z
Si Si1 0.500000 0.439543 0.250000
Si Si2 0.695788 0.673496 0.456260
Si Si3 0.353542 0.727219 0.606595
Si Si4 0.653854 0.497020 0.942358
Si Si5 0.715635 0.738014 0.650164
Si Si6 0.825267 0.432144 0.594154
Si Si7 0.933364 0.128058 0.552601
Si Si8 0.682566 0.913555 0.641161
O O1 0.376200 0.473293 0.175861
O O2 0.470672 0.404761 0.351086
O O3 0.754368 0.692097 0.585893
O O4 0.688667 0.720462 0.388210
O O5 0.537947 0.647766 0.464880
O O6 0.792091 0.637739 0.395905
O O7 0.250000 0.750000 0.500000
O O8 0.529551 0.745068 0.613234
O O9 0.373475 0.673113 0.606103
O O10 0.272034 0.736903 0.715071
O O11 0.704009 0.447182 0.912342
O O12 0.500000 0.500000 0.000000
O O13 0.781387 0.519055 0.038986
O O14 0.711342 0.399165 0.512365
O O15 0.793104 0.423335 0.722756
O O16 0.004763 0.424465 0.595695
#
# Coordination Sequence:
#
# PCOD9274865 Si02
#       8
#     4   8   8   8   8   8   8   8
#     4  10  20  38  66  84 122 158 204 252 304 376
#     4  10  21  38  62  85 123 161 203 259 316 355
#     4  10  21  36  65  88 121 166 214 254 316 378
#     4  11  22  39  64  93 118 156 206 259 314 374
#     4   9  21  41  58  88 125 161 207 263 313 367
#     4  10  24  39  59  90 124 159 207 251 307 383
#     4  10  21  39  61  90 118 165 210 252 309 376
#     4  11  23  39  62  87 125 163 198 258 318 370
#
# _framework density 19.805571
#
# number of rings (size 3 to 8) (size 9 to 14) (size 15 to 20)
#    0.000    1.867    0.000    4.400    3.733    2.667 
#    2.400    2.000    5.867    6.400    0.000    0.000 
#    0.000    0.000    0.000    0.000    0.000    0.000 
#
# Total GULP energy -167237.402158 kJ/mol
# GULP energy per Si atom -5574.580072 kJ/mol
# Density = 1.976049 g / cm^3
# Si number density = 19.805571 Si / 1000 Ang^3
#
#
#
# Elastic Constant Matrix: (Units=GPa)
#
#
# Indices 1 2 3 4 5 6 
#
# 1 37.1023 17.3750 28.5367 0.0000 -6.5494 0.0000
# 2 17.3750 97.4394 27.3510 0.0000 -1.1451 0.0000
# 3 28.5367 27.3510 103.8479 0.0000 3.2191 0.0000
# 4 0.0000 0.0000 0.0000 14.3251 0.0000 3.1062
# 5 -6.5494 -1.1451 3.2191 0.0000 28.1376 0.0000
# 6 0.0000 0.0000 0.0000 3.1062 0.0000 12.9511
#
#
#
# Elastic Compliance Matrix: (Units=1/GPa)
#
#
# Indices 1 2 3 4 5 6 
#
# 1 0.037989 -0.003934 -0.009707 0.000000 0.009793 0.000000
# 2 -0.003934 0.011507 -0.001943 0.000000 -0.000225 0.000000
# 3 -0.009707 -0.001943 0.012927 0.000000 -0.003817 0.000000
# 4 0.000000 0.000000 0.000000 0.073637 0.000000 -0.017661
# 5 0.009793 -0.000225 -0.003817 0.000000 0.038247 0.000000
# 6 0.000000 0.000000 0.000000 -0.017661 0.000000 0.081450
#
#
# Mechanical properties :
#
#
# Convention : Reuss Voigt Hill
#
# Bulk Modulus (GPa) = 31.99384 42.76834 37.38109
# Shear Modulus (GPa) = 16.81567 22.09121 19.45344
#
# Velocity S-wave (km/s) = 2.91699 3.34339 3.13744
# Velocity P-wave (km/s) = 5.24729 6.04527 5.66036
#
# Compressibility (1/GPa) = 0.03125601
#
# Stress axis : x y z
#
# Youngs Moduli (GPa) = 26.32321 86.90382 77.35926
#
# Poissons Ratio (x) = 0.34192 0.75089
# Poissons Ratio (y) = 0.10357 0.15027
# Poissons Ratio (z) = 0.25551 0.16881
#
# Static dielectric constant tensor:
#      x y z
#    x 1.721280 0.000000 -0.029200 
#    y 0.000000 1.718560 0.000000 
#    z -0.029200 0.000000 1.736790 
# 
# From -- ./inp_files/82241.got.cif
#   From: 2010.05.17/outbox.cif.g08.bks.cpg/sg15_42_cif.got.tgz:82241.got - 2010.06.03 18:47:42.
