data_PCOD9274677
_publ_section_title
;
Structure prediction by ZEFSAII (Michael W. Deem and Ramdas Pophale) SiO2 
 PCOD9274677
Probable space group: C 2/C
;
_chemical_formula_sum "Si O2"
_cell_formula_units_Z 60
_cell_length_a 15.320284
_cell_length_b 8.245670
_cell_length_c 20.762717
_cell_angle_alpha 90.000000
_cell_angle_beta 111.026814
_cell_angle_gamma 90.000000
_cell_volume 2448.220976
_symmetry_space_group_name_H-M "C 2/C"
_symmetry_group_IT_number 15
_symmetry_cell_setting 'monoclinic'
loop_
_space_group_symop_operation_xyz
x,y,z
-x,y,1/2-z
-x,-y,-z
x,-y,1/2+z
1/2+x,1/2+y,z
1/2-x,1/2+y,1/2-z
1/2-x,1/2-y,-z
1/2+x,1/2-y,1/2+z
loop_
_atom_site_type_symbol
_atom_site_label
_atom_site_fract_x
_atom_site_fract_y
_atom_site_fract_z
Si Si1 0.500000 0.614892 0.250000
Si Si2 0.855662 0.947126 0.807634
Si Si3 0.206883 0.065754 0.580538
Si Si4 0.440578 0.954710 0.547390
Si Si5 0.785217 0.557409 0.413737
Si Si6 0.846834 0.442222 0.295998
Si Si7 0.838449 0.141994 0.546477
Si Si8 0.911075 0.567605 0.674801
O O1 0.558460 0.510790 0.215449
O O2 0.569120 0.740875 0.306036
O O3 0.853365 0.751429 0.806720
O O4 0.862108 0.014017 0.880827
O O5 0.758754 0.015819 0.754882
O O6 0.231720 0.253491 0.589966
O O7 0.309631 0.995366 0.625440
O O8 0.158961 0.005971 0.502991
O O9 0.424699 0.764285 0.559526
O O10 0.500000 0.000000 0.500000
O O11 0.342733 0.024958 0.494286
O O12 0.466070 0.035460 0.622245
O O13 0.846214 0.521019 0.366501
O O14 0.695048 0.439072 0.395418
O O15 0.910792 0.491451 0.250444
O O16 0.750000 0.250000 0.500000
#
# Coordination Sequence:
#
# PCOD9274677 Si02
#       8
#     4   8   8   8   8   8   8   8
#     4  10  22  38  62  98 130 184 200 286 340 398
#     4  10  21  39  65  92 132 165 229 265 342 392
#     4  11  21  41  67  97 123 172 225 277 323 406
#     4  11  25  41  63  96 134 173 216 270 343 405
#     4  11  22  39  67  94 125 164 224 275 327 392
#     4  10  21  37  65  95 122 171 218 275 321 401
#     4  10  20  38  64  93 125 164 214 274 322 389
#     4  10  22  38  64  93 130 163 221 263 333 395
#
# _framework density 24.507593
#
# number of rings (size 3 to 8) (size 9 to 14) (size 15 to 20)
#    0.000    1.600    2.667    4.400    7.467    0.000 
#    0.000    3.333    0.000    0.800    0.000    0.000 
#    0.000    0.000    0.000    0.000    0.000    0.000 
#
# Total GULP energy -167255.636581 kJ/mol
# GULP energy per Si atom -5575.187886 kJ/mol
# Density = 2.445181 g / cm^3
# Si number density = 24.507593 Si / 1000 Ang^3
#
#
#
# Elastic Constant Matrix: (Units=GPa)
#
#
# Indices 1 2 3 4 5 6 
#
# 1 85.7120 20.6420 48.8877 0.0000 -55.6834 0.0000
# 2 20.6420 87.4408 6.4234 0.0000 -22.8696 0.0000
# 3 48.8877 6.4234 146.0650 0.0000 -43.2582 0.0000
# 4 0.0000 0.0000 0.0000 25.1885 0.0000 -12.5231
# 5 -55.6834 -22.8696 -43.2582 0.0000 51.9499 0.0000
# 6 0.0000 0.0000 0.0000 -12.5231 0.0000 16.7580
#
#
#
# Elastic Compliance Matrix: (Units=1/GPa)
#
#
# Indices 1 2 3 4 5 6 
#
# 1 0.038760 0.001829 -0.000678 0.000000 0.041785 0.000000
# 2 0.001829 0.013257 0.001478 0.000000 0.009027 0.000000
# 3 -0.000678 0.001478 0.009272 0.000000 0.007645 0.000000
# 4 0.000000 0.000000 0.000000 0.063171 0.000000 0.047207
# 5 0.041785 0.009027 0.007645 0.000000 0.074378 0.000000
# 6 0.000000 0.000000 0.000000 0.047207 0.000000 0.094951
#
#
# Mechanical properties :
#
#
# Convention : Reuss Voigt Hill
#
# Bulk Modulus (GPa) = 15.02700 52.34714 33.68707
# Shear Modulus (GPa) = 16.09206 34.99691 25.54448
#
# Velocity S-wave (km/s) = 2.56523 3.78299 3.23198
# Velocity P-wave (km/s) = 3.86248 6.36296 5.26337
#
# Compressibility (1/GPa) = 0.06654688
#
# Stress axis : x y z
#
# Youngs Moduli (GPa) = 25.80007 75.43167 107.84781
#
# Poissons Ratio (x) = -0.13794 0.07313
# Poissons Ratio (y) = -0.04718 -0.15945
# Poissons Ratio (z) = 0.01750 -0.11152
#
# Static dielectric constant tensor:
#      x y z
#    x 2.227620 0.000000 0.099150 
#    y 0.000000 1.931430 0.000000 
#    z 0.099150 0.000000 2.044390 
# 
# From -- ./inp_files/247492.got.cif
#   From: 2010.05.17/outbox.cif.g08.bks.cpg/sg15_124_cif.got.tgz:247492.got - 2010.06.03 18:47:42.
