data_PCOD9274113
_publ_section_title
;
Structure prediction by ZEFSAII (Michael W. Deem and Ramdas Pophale) SiO2 
 PCOD9274113
Probable space group: C 2/C
;
_chemical_formula_sum "Si O2"
_cell_formula_units_Z 44
_cell_length_a 10.758264
_cell_length_b 8.154239
_cell_length_c 25.530613
_cell_angle_alpha 90.000000
_cell_angle_beta 51.561491
_cell_angle_gamma 90.000000
_cell_volume 1754.290800
_symmetry_space_group_name_H-M "C 2/C"
_symmetry_group_IT_number 15
_symmetry_cell_setting 'monoclinic'
loop_
_space_group_symop_operation_xyz
x,y,z
-x,y,1/2-z
-x,-y,-z
x,-y,1/2+z
1/2+x,1/2+y,z
1/2-x,1/2+y,1/2-z
1/2-x,1/2-y,-z
1/2+x,1/2-y,1/2+z
loop_
_atom_site_type_symbol
_atom_site_label
_atom_site_fract_x
_atom_site_fract_y
_atom_site_fract_z
Si Si1 0.055631 0.901903 0.792515
Si Si2 0.381347 0.403785 0.423706
Si Si3 0.895797 0.531478 0.431986
Si Si4 0.000000 0.500000 0.000000
Si Si5 0.845968 0.153092 0.578920
Si Si6 0.151627 0.435793 0.232689
O O1 0.227486 0.965286 0.764223
O O2 0.000000 0.955134 0.750000
O O3 0.933119 0.974531 0.865701
O O4 0.071418 0.707037 0.787362
O O5 0.195388 0.424600 0.487123
O O6 0.414991 0.211930 0.402541
O O7 0.491956 0.439234 0.445151
O O8 0.777779 0.429696 0.427964
O O9 0.034279 0.440995 0.425892
O O10 0.909211 0.678755 0.038603
O O11 0.751934 0.150167 0.659597
O O12 0.000000 0.533434 0.250000
#
# Coordination Sequence:
#
# PCOD9274113 Si02
#       6
#     8   8   8   4   8   8
#     4  10  23  43  63  93 127 170 217 270 317 389
#     4   9  21  39  61  88 122 157 217 259 316 389
#     4  10  20  38  61  91 123 161 204 266 319 386
#     4  10  22  34  56  94 124 160 200 256 312 392
#     4  10  21  40  59  90 126 161 210 257 327 388
#     4  10  24  42  63  92 128 169 219 263 320 395
#
# _framework density 25.081361999999999
#
# number of rings (size 3 to 8) (size 9 to 14) (size 15 to 20)
#    0.000    2.182    0.000    1.091    5.091    8.000 
#    3.273    0.000    0.000    0.000    0.000    0.000 
#    0.000    0.000    0.000    0.000    0.000    0.000 
#
# Total GULP energy -122591.173864 kJ/mol
# GULP energy per Si atom -5572.326085 kJ/mol
# Density = 2.502428 g / cm^3
# Si number density = 25.081362 Si / 1000 Ang^3
#
#
#
# Elastic Constant Matrix: (Units=GPa)
#
#
# Indices 1 2 3 4 5 6 
#
# 1 189.4680 47.4324 34.0611 0.0000 5.6054 0.0000
# 2 47.4324 20.0803 -1.0233 0.0000 2.7698 0.0000
# 3 34.0611 -1.0233 44.6557 0.0000 -13.4148 0.0000
# 4 0.0000 0.0000 0.0000 32.0964 0.0000 -4.2935
# 5 5.6054 2.7698 -13.4148 0.0000 39.7571 0.0000
# 6 0.0000 0.0000 0.0000 -4.2935 0.0000 53.6579
#
#
#
# Elastic Compliance Matrix: (Units=1/GPa)
#
#
# Indices 1 2 3 4 5 6 
#
# 1 0.022313 -0.052870 -0.020108 0.000000 -0.006247 0.000000
# 2 -0.052870 0.175556 0.047755 0.000000 0.011337 0.000000
# 3 -0.020108 0.047755 0.043040 0.000000 0.014030 0.000000
# 4 0.000000 0.000000 0.000000 0.031493 0.000000 0.002520
# 5 -0.006247 0.011337 0.014030 0.000000 0.029978 0.000000
# 6 0.000000 0.000000 0.000000 0.002520 0.000000 0.018838
#
#
# Mechanical properties :
#
#
# Convention : Reuss Voigt Hill
#
# Bulk Modulus (GPa) = 5.25035 46.12715 25.68875
# Shear Modulus (GPa) = 11.49026 36.68452 24.08739
#
# Velocity S-wave (km/s) = 2.14269 3.82857 3.10235
# Velocity P-wave (km/s) = 2.86695 6.16238 4.80595
#
# Compressibility (1/GPa) = 0.19046332
#
# Stress axis : x y z
#
# Youngs Moduli (GPa) = 44.81638 5.69620 23.23434
#
# Poissons Ratio (x) = 0.30116 0.46719
# Poissons Ratio (y) = 2.36944 -1.10955
# Poissons Ratio (z) = 0.90115 -0.27202
#
# Static dielectric constant tensor:
#      x y z
#    x 2.967000 0.000000 -0.059730 
#    y 0.000000 2.043870 0.000000 
#    z -0.059730 0.000000 2.126700 
# 
# From -- ./inp_files/236200.got.cif
#   From: 2010.05.17/outbox.cif.g08.bks.cpg/sg15_119_cif.got.tgz:236200.got - 2010.06.03 18:47:42.
