data_PCOD9274584
_publ_section_title
;
Structure prediction by ZEFSAII (Michael W. Deem and Ramdas Pophale) SiO2 
 PCOD9274584
Probable space group: C 2/C
;
_chemical_formula_sum "Si O2"
_cell_formula_units_Z 40
_cell_length_a 14.399039
_cell_length_b 12.129935
_cell_length_c 14.347248
_cell_angle_alpha 90.000000
_cell_angle_beta 63.368829
_cell_angle_gamma 90.000000
_cell_volume 2240.034097
_symmetry_space_group_name_H-M "C 2/C"
_symmetry_group_IT_number 15
_symmetry_cell_setting 'monoclinic'
loop_
_space_group_symop_operation_xyz
x,y,z
-x,y,1/2-z
-x,-y,-z
x,-y,1/2+z
1/2+x,1/2+y,z
1/2-x,1/2+y,1/2-z
1/2-x,1/2-y,-z
1/2+x,1/2-y,1/2+z
loop_
_atom_site_type_symbol
_atom_site_label
_atom_site_fract_x
_atom_site_fract_y
_atom_site_fract_z
Si Si1 0.173772 0.539462 0.666406
Si Si2 0.763640 0.378409 0.009923
Si Si3 0.891095 0.035900 0.505081
Si Si4 0.078596 0.574108 0.904435
Si Si5 0.558259 0.752029 0.129857
O O1 0.163419 0.436099 0.601570
O O2 0.298388 0.548434 0.622824
O O3 0.111357 0.525335 0.789522
O O4 0.134271 0.649746 0.631089
O O5 0.655299 0.441704 0.042047
O O6 0.750000 0.250000 0.000000
O O7 0.818547 0.403990 0.082291
O O8 0.895625 0.148747 0.444877
O O9 0.000000 0.000000 0.500000
O O10 0.021910 0.687991 0.903585
O O11 0.000000 0.500000 0.000000
O O12 0.500000 0.714181 0.250000
#
# Coordination Sequence:
#
# PCOD9274584 Si02
#       5
#     8   8   8   8   8
#     4   9  22  38  61  91 123 155 207 245 298 361
#     4  10  22  40  59  87 130 153 198 254 301 353
#     4  10  21  39  60  86 126 155 201 246 306 354
#     4  11  20  39  66  89 117 162 203 247 304 357
#     4  10  20  38  64  87 120 159 205 249 298 369
#
# _framework density 17.856871000000002
#
# number of rings (size 3 to 8) (size 9 to 14) (size 15 to 20)
#    1.200    0.800    2.000    1.800    0.000    1.600 
#    7.200    0.000    8.800    0.000    0.000    0.000 
#    0.000    0.000    0.000    0.000    0.000    0.000 
#
# Total GULP energy -111338.775057 kJ/mol
# GULP energy per Si atom -5566.938753 kJ/mol
# Density = 1.781623 g / cm^3
# Si number density = 17.856871 Si / 1000 Ang^3
#
#
#
# Elastic Constant Matrix: (Units=GPa)
#
#
# Indices 1 2 3 4 5 6 
#
# 1 129.0759 29.0680 19.4824 0.0000 9.8355 0.0000
# 2 29.0680 107.6001 55.2954 0.0000 6.0916 0.0000
# 3 19.4824 55.2954 92.2797 0.0000 0.0330 0.0000
# 4 0.0000 0.0000 0.0000 22.0720 0.0000 -3.9077
# 5 9.8355 6.0916 0.0330 0.0000 29.2769 0.0000
# 6 0.0000 0.0000 0.0000 -3.9077 0.0000 23.6061
#
#
#
# Elastic Compliance Matrix: (Units=1/GPa)
#
#
# Indices 1 2 3 4 5 6 
#
# 1 0.008443 -0.001771 -0.000720 0.000000 -0.002467 0.000000
# 2 -0.001771 0.014031 -0.008033 0.000000 -0.002315 0.000000
# 3 -0.000720 -0.008033 0.015802 0.000000 0.001896 0.000000
# 4 0.000000 0.000000 0.000000 0.046674 0.000000 0.007726
# 5 -0.002467 -0.002315 0.001896 0.000000 0.035465 0.000000
# 6 0.000000 0.000000 0.000000 0.007726 0.000000 0.043641
#
#
# Mechanical properties :
#
#
# Convention : Reuss Voigt Hill
#
# Bulk Modulus (GPa) = 58.04861 59.62747 58.83804
# Shear Modulus (GPa) = 26.19894 29.99832 28.09863
#
# Velocity S-wave (km/s) = 3.83451 4.10314 3.97110
# Velocity P-wave (km/s) = 7.22378 7.47744 7.35170
#
# Compressibility (1/GPa) = 0.01722694
#
# Stress axis : x y z
#
# Youngs Moduli (GPa) = 118.44226 71.26889 63.28473
#
# Poissons Ratio (x) = 0.12621 0.04559
# Poissons Ratio (y) = 0.20976 0.50837
# Poissons Ratio (z) = 0.08533 0.57251
#
# Static dielectric constant tensor:
#      x y z
#    x 1.636780 0.000000 -0.022390 
#    y 0.000000 1.614460 0.000000 
#    z -0.022390 0.000000 1.604620 
# 
# From -- ./inp_files/142106.got.cif
#   From: 2010.05.17/outbox.cif.g08.bks.cpg/sg15_72_cif.got.tgz:142106.got - 2010.06.03 18:47:42.
