data_PCOD9274292
_publ_section_title
;
Structure prediction by ZEFSAII (Michael W. Deem and Ramdas Pophale) SiO2 
 PCOD9274292
Probable space group: C 2/C
;
_chemical_formula_sum "Si O2"
_cell_formula_units_Z 52
_cell_length_a 16.634195
_cell_length_b 13.518844
_cell_length_c 12.295658
_cell_angle_alpha 90.000000
_cell_angle_beta 66.247397
_cell_angle_gamma 90.000000
_cell_volume 2530.773898
_symmetry_space_group_name_H-M "C 2/C"
_symmetry_group_IT_number 15
_symmetry_cell_setting 'monoclinic'
loop_
_space_group_symop_operation_xyz
x,y,z
-x,y,1/2-z
-x,-y,-z
x,-y,1/2+z
1/2+x,1/2+y,z
1/2-x,1/2+y,1/2-z
1/2-x,1/2-y,-z
1/2+x,1/2-y,1/2+z
loop_
_atom_site_type_symbol
_atom_site_label
_atom_site_fract_x
_atom_site_fract_y
_atom_site_fract_z
Si Si1 0.761953 0.149483 0.166658
Si Si2 0.674418 0.114548 0.574549
Si Si3 0.718630 0.920249 0.455097
Si Si4 0.576419 0.197240 0.925843
Si Si5 0.000000 0.382346 0.250000
Si Si6 0.698462 0.420936 0.307028
Si Si7 0.884264 0.740625 0.089002
O O1 0.848936 0.217900 0.114056
O O2 0.684201 0.189799 0.288312
O O3 0.791334 0.038025 0.184242
O O4 0.726203 0.138462 0.063029
O O5 0.581616 0.061602 0.653277
O O6 0.724671 0.127783 0.659975
O O7 0.651062 0.206820 0.511285
O O8 0.728727 0.035371 0.476927
O O9 0.627290 0.898074 0.444376
O O10 0.789748 0.894307 0.325324
O O11 0.543539 0.182229 0.820787
O O12 0.485898 0.209931 0.041518
O O13 0.617097 0.359121 0.395888
#
# Coordination Sequence:
#
# PCOD9274292 Si02
#       7
#     8   8   8   8   4   8   8
#     4  11  24  43  64  91 129 164 205 257 308 369
#     4  10  21  37  64  93 121 161 208 257 309 366
#     4  11  22  39  65  92 126 167 202 256 313 364
#     4  11  24  41  64  94 127 160 212 252 312 370
#     4  10  20  38  62  90 128 158 200 270 300 362
#     4  11  22  41  64  90 124 167 207 254 308 372
#     4  11  23  39  67  93 120 166 208 253 318 359
#
# _framework density 20.547076000000001
#
# number of rings (size 3 to 8) (size 9 to 14) (size 15 to 20)
#    0.000    1.231    4.615    0.923    0.000    7.385 
#    0.000    0.000    0.000    0.000    0.000    0.000 
#    0.000    0.000    0.000    0.000    0.000    0.000 
#
# Total GULP energy -144869.790274 kJ/mol
# GULP energy per Si atom -5571.915011 kJ/mol
# Density = 2.050031 g / cm^3
# Si number density = 20.547076 Si / 1000 Ang^3
#
#
#
# Elastic Constant Matrix: (Units=GPa)
#
#
# Indices 1 2 3 4 5 6 
#
# 1 60.2232 -2.6844 22.0775 0.0000 12.2755 0.0000
# 2 -2.6844 61.2443 23.5279 0.0000 -2.5164 0.0000
# 3 22.0775 23.5279 100.3130 0.0000 19.0057 0.0000
# 4 0.0000 0.0000 0.0000 25.0903 0.0000 -1.5012
# 5 12.2755 -2.5164 19.0057 0.0000 34.7371 0.0000
# 6 0.0000 0.0000 0.0000 -1.5012 0.0000 19.1292
#
#
#
# Elastic Compliance Matrix: (Units=1/GPa)
#
#
# Indices 1 2 3 4 5 6 
#
# 1 0.019017 0.002124 -0.003837 0.000000 -0.004467 0.000000
# 2 0.002124 0.018700 -0.005542 0.000000 0.003636 0.000000
# 3 -0.003837 -0.005542 0.013312 0.000000 -0.006329 0.000000
# 4 0.000000 0.000000 0.000000 0.040044 0.000000 0.003143
# 5 -0.004467 0.003636 -0.006329 0.000000 0.034093 0.000000
# 6 0.000000 0.000000 0.000000 0.003143 0.000000 0.052523
#
#
# Mechanical properties :
#
#
# Convention : Reuss Voigt Hill
#
# Bulk Modulus (GPa) = 27.38382 34.18030 30.78206
# Shear Modulus (GPa) = 24.46520 27.71528 26.09024
#
# Velocity S-wave (km/s) = 3.45438 3.67668 3.56726
# Velocity P-wave (km/s) = 5.40986 5.89026 5.65517
#
# Compressibility (1/GPa) = 0.03651792
#
# Stress axis : x y z
#
# Youngs Moduli (GPa) = 52.58517 53.47664 75.11795
#
# Poissons Ratio (x) = -0.11359 0.28824
# Poissons Ratio (y) = -0.11170 0.41633
# Poissons Ratio (z) = 0.20178 0.29639
#
# Static dielectric constant tensor:
#      x y z
#    x 1.731670 0.000000 -0.017180 
#    y 0.000000 1.758300 0.000000 
#    z -0.017180 0.000000 1.783640 
# 
# From -- ./inp_files/96980.got.cif
#   From: 2010.05.17/outbox.cif.g08.bks.cpg/sg15_49_cif.got.tgz:96980.got - 2010.06.03 18:47:42.
