data_PCOD9274709
_publ_section_title
;
Structure prediction by ZEFSAII (Michael W. Deem and Ramdas Pophale) SiO2 
 PCOD9274709
Probable space group: C 2/C
;
_chemical_formula_sum "Si O2"
_cell_formula_units_Z 56
_cell_length_a 14.672260
_cell_length_b 19.453469
_cell_length_c 7.949000
_cell_angle_alpha 90.000000
_cell_angle_beta 92.636910
_cell_angle_gamma 90.000000
_cell_volume 2266.451697
_symmetry_space_group_name_H-M "C 2/C"
_symmetry_group_IT_number 15
_symmetry_cell_setting 'monoclinic'
loop_
_space_group_symop_operation_xyz
x,y,z
-x,y,1/2-z
-x,-y,-z
x,-y,1/2+z
1/2+x,1/2+y,z
1/2-x,1/2+y,1/2-z
1/2-x,1/2-y,-z
1/2+x,1/2-y,1/2+z
loop_
_atom_site_type_symbol
_atom_site_label
_atom_site_fract_x
_atom_site_fract_y
_atom_site_fract_z
Si Si1 0.070151 0.460985 0.385932
Si Si2 0.406142 0.427118 0.136729
Si Si3 0.890832 0.222328 0.563880
Si Si4 0.065113 0.790075 0.920873
Si Si5 0.259827 0.270789 0.755002
Si Si6 0.357532 0.437293 0.482094
Si Si7 0.684574 0.078722 0.188707
O O1 0.135555 0.520185 0.302663
O O2 0.120514 0.410384 0.518750
O O3 0.000000 0.425981 0.250000
O O4 0.000000 0.500000 0.500000
O O5 0.500000 0.423215 0.250000
O O6 0.391802 0.358876 0.031069
O O7 0.333726 0.429706 0.284102
O O8 0.406117 0.490621 0.013898
O O9 0.834294 0.229632 0.731427
O O10 0.826366 0.252762 0.413968
O O11 0.996380 0.242617 0.553259
O O12 0.167327 0.762858 0.889847
O O13 0.086338 0.870281 0.958734
O O14 0.000000 0.785715 0.750000
O O15 0.219472 0.349011 0.768935
O O16 0.274343 0.446558 0.601863
#
# Coordination Sequence:
#
# PCOD9274709 Si02
#       7
#     8   8   8   8   8   8   8
#     4   9  19  37  64  90 129 160 205 268 333 376
#     4  12  24  36  58  94 132 169 204 253 322 392
#     4  10  21  40  62  90 132 173 213 272 320 381
#     4   9  18  36  63  90 127 167 209 267 323 378
#     4   9  21  39  66  92 125 172 223 263 320 386
#     4  11  23  35  59  97 128 163 206 254 326 391
#     4  10  20  38  64  95 125 169 210 271 324 388
#
# _framework density 24.708224999999999
#
# number of rings (size 3 to 8) (size 9 to 14) (size 15 to 20)
#    0.000    2.000    1.429    1.714    8.000    0.000 
#    0.000    5.000   12.571    2.571    0.000    1.000 
#    0.000    1.429    0.000    0.000    0.000    0.000 
#
# Total GULP energy -155994.463290 kJ/mol
# GULP energy per Si atom -5571.230832 kJ/mol
# Density = 2.465199 g / cm^3
# Si number density = 24.708225 Si / 1000 Ang^3
#
#
#
# Elastic Constant Matrix: (Units=GPa)
#
#
# Indices 1 2 3 4 5 6 
#
# 1 176.6927 28.4051 39.8787 0.0000 -42.7616 0.0000
# 2 28.4051 25.2394 -2.7933 0.0000 -9.6249 0.0000
# 3 39.8787 -2.7933 82.5592 0.0000 -21.2276 0.0000
# 4 0.0000 0.0000 0.0000 19.9581 0.0000 -1.3205
# 5 -42.7616 -9.6249 -21.2276 0.0000 69.0936 0.0000
# 6 0.0000 0.0000 0.0000 -1.3205 0.0000 23.5217
#
#
#
# Elastic Compliance Matrix: (Units=1/GPa)
#
#
# Indices 1 2 3 4 5 6 
#
# 1 0.008673 -0.009045 -0.003734 0.000000 0.002960 0.000000
# 2 -0.009045 0.052052 0.007117 0.000000 0.003840 0.000000
# 3 -0.003734 0.007117 0.015003 0.000000 0.003290 0.000000
# 4 0.000000 0.000000 0.000000 0.050292 0.000000 0.002823
# 5 0.002960 0.003840 0.003290 0.000000 0.017851 0.000000
# 6 0.000000 0.000000 0.000000 0.002823 0.000000 0.042672
#
#
# Mechanical properties :
#
#
# Convention : Reuss Voigt Hill
#
# Bulk Modulus (GPa) = 15.52688 46.16359 30.84524
# Shear Modulus (GPa) = 22.79622 37.11470 29.95546
#
# Velocity S-wave (km/s) = 3.04076 3.87992 3.48568
# Velocity P-wave (km/s) = 4.31578 6.22863 5.35825
#
# Compressibility (1/GPa) = 0.06440443
#
# Stress axis : x y z
#
# Youngs Moduli (GPa) = 115.30275 19.21152 66.65378
#
# Poissons Ratio (x) = 0.17377 0.24889
# Poissons Ratio (y) = 1.04291 -0.47440
# Poissons Ratio (z) = 0.43055 -0.13674
#
# Static dielectric constant tensor:
#      x y z
#    x 2.103870 0.000000 -0.033610 
#    y 0.000000 1.916280 0.000000 
#    z -0.033610 0.000000 2.074840 
# 
# From -- ./inp_files/41247.got.cif
#   From: 2010.05.17/outbox.cif.g08.bks.cpg/sg15_21_cif.got.tgz:41247.got - 2010.06.03 18:47:42.
