data_PCOD9274812
_publ_section_title
;
Structure prediction by ZEFSAII (Michael W. Deem and Ramdas Pophale) SiO2 
 PCOD9274812
Probable space group: C 2/C
;
_chemical_formula_sum "Si O2"
_cell_formula_units_Z 36
_cell_length_a 5.559411
_cell_length_b 18.819908
_cell_length_c 14.341823
_cell_angle_alpha 90.000000
_cell_angle_beta 107.277580
_cell_angle_gamma 90.000000
_cell_volume 1432.841363
_symmetry_space_group_name_H-M "C 2/C"
_symmetry_group_IT_number 15
_symmetry_cell_setting 'monoclinic'
loop_
_space_group_symop_operation_xyz
x,y,z
-x,y,1/2-z
-x,-y,-z
x,-y,1/2+z
1/2+x,1/2+y,z
1/2-x,1/2+y,1/2-z
1/2-x,1/2-y,-z
1/2+x,1/2-y,1/2+z
loop_
_atom_site_type_symbol
_atom_site_label
_atom_site_fract_x
_atom_site_fract_y
_atom_site_fract_z
Si Si1 0.017451 0.924248 0.550581
Si Si2 0.968768 0.347451 0.491031
Si Si3 0.772440 0.616814 0.767360
Si Si4 0.871717 0.741103 0.336304
Si Si5 0.500000 0.615068 0.250000
O O1 0.738273 0.887980 0.509413
O O2 0.074328 0.928155 0.667484
O O3 0.258250 0.885291 0.531967
O O4 0.000000 0.000000 0.500000
O O5 0.840522 0.348305 0.374789
O O6 0.011844 0.271949 0.548179
O O7 0.500000 0.582696 0.750000
O O8 0.741281 0.680733 0.688561
O O9 0.000000 0.571883 0.750000
O O10 0.701000 0.671503 0.311001
O O11 0.000000 0.735130 0.250000
#
# Coordination Sequence:
#
# PCOD9274812 Si02
#       5
#     8   8   8   8   4
#     4  11  24  45  70  96 125 175 224 277 330 374
#     4  11  24  43  67  98 136 170 222 273 318 398
#     4  11  24  40  63  97 138 175 213 259 334 389
#     4  10  20  38  65  93 131 173 221 251 323 394
#     4  10  20  42  66  92 130 166 224 264 316 404
#
# _framework density 25.124901999999999
#
# number of rings (size 3 to 8) (size 9 to 14) (size 15 to 20)
#    0.000    1.333    3.333    2.000    0.000    4.444 
#    6.000    0.000    0.000    0.000    0.000    0.000 
#    0.000    0.000    0.000    0.000    0.000    0.000 
#
# Total GULP energy -100447.242034 kJ/mol
# GULP energy per Si atom -5580.402335 kJ/mol
# Density = 2.506772 g / cm^3
# Si number density = 25.124902 Si / 1000 Ang^3
#
#
#
# Elastic Constant Matrix: (Units=GPa)
#
#
# Indices 1 2 3 4 5 6 
#
# 1 188.7732 38.6665 56.9469 0.0000 -25.3915 0.0000
# 2 38.6665 76.0990 23.1970 0.0000 -10.6160 0.0000
# 3 56.9469 23.1970 153.1210 0.0000 -13.7121 0.0000
# 4 0.0000 0.0000 0.0000 39.3141 0.0000 -6.5157
# 5 -25.3915 -10.6160 -13.7121 0.0000 46.8956 0.0000
# 6 0.0000 0.0000 0.0000 -6.5157 0.0000 14.2617
#
#
#
# Elastic Compliance Matrix: (Units=1/GPa)
#
#
# Indices 1 2 3 4 5 6 
#
# 1 0.006717 -0.002483 -0.001896 0.000000 0.002520 0.000000
# 2 -0.002483 0.015005 -0.001197 0.000000 0.001702 0.000000
# 3 -0.001896 -0.001197 0.007497 0.000000 0.000895 0.000000
# 4 0.000000 0.000000 0.000000 0.027520 0.000000 0.012573
# 5 0.002520 0.001702 0.000895 0.000000 0.023335 0.000000
# 6 0.000000 0.000000 0.000000 0.012573 0.000000 0.075862
#
#
# Mechanical properties :
#
#
# Convention : Reuss Voigt Hill
#
# Bulk Modulus (GPa) = 55.35262 72.84599 64.09930
# Shear Modulus (GPa) = 28.88298 40.03980 34.46139
#
# Velocity S-wave (km/s) = 3.39422 3.99636 3.70753
# Velocity P-wave (km/s) = 6.11880 7.09584 6.62536
#
# Compressibility (1/GPa) = 0.01806599
#
# Stress axis : x y z
#
# Youngs Moduli (GPa) = 148.87451 66.64455 133.37839
#
# Poissons Ratio (x) = 0.16550 0.25291
# Poissons Ratio (y) = 0.36971 0.15967
# Poissons Ratio (z) = 0.28230 0.07978
#
# Static dielectric constant tensor:
#      x y z
#    x 2.159330 0.000000 0.095360 
#    y 0.000000 2.017370 0.000000 
#    z 0.095360 0.000000 2.054670 
# 
# From -- ./inp_files/72702.got.cif
#   From: 2010.05.17/outbox.cif.g08.bks.cpg/sg15_37_cif.got.tgz:72702.got - 2010.06.03 18:47:42.
