data_PCOD9274943
_publ_section_title
;
Structure prediction by ZEFSAII (Michael W. Deem and Ramdas Pophale) SiO2 
 PCOD9274943
Probable space group: C 2/C
;
_chemical_formula_sum "Si O2"
_cell_formula_units_Z 44
_cell_length_a 15.479012
_cell_length_b 12.430321
_cell_length_c 14.935775
_cell_angle_alpha 90.000000
_cell_angle_beta 128.110876
_cell_angle_gamma 90.000000
_cell_volume 2261.140581
_symmetry_space_group_name_H-M "C 2/C"
_symmetry_group_IT_number 15
_symmetry_cell_setting 'monoclinic'
loop_
_space_group_symop_operation_xyz
x,y,z
-x,y,1/2-z
-x,-y,-z
x,-y,1/2+z
1/2+x,1/2+y,z
1/2-x,1/2+y,1/2-z
1/2-x,1/2-y,-z
1/2+x,1/2-y,1/2+z
loop_
_atom_site_type_symbol
_atom_site_label
_atom_site_fract_x
_atom_site_fract_y
_atom_site_fract_z
Si Si1 0.083988 0.458800 0.479162
Si Si2 0.224282 0.293412 0.884824
Si Si3 0.772727 0.410502 0.303253
Si Si4 0.000000 0.579365 0.250000
Si Si5 0.469369 0.777743 0.335735
Si Si6 0.898598 0.932508 0.897703
O O1 0.190883 0.512277 0.590073
O O2 0.044873 0.509781 0.361144
O O3 0.000000 0.500000 0.500000
O O4 0.071674 0.331469 0.455876
O O5 0.223178 0.194334 0.816493
O O6 0.326991 0.368626 0.925143
O O7 0.107635 0.351228 0.796941
O O8 0.250000 0.250000 0.000000
O O9 0.869523 0.360149 0.300954
O O10 0.686670 0.481687 0.195879
O O11 0.500000 0.775937 0.250000
O O12 0.438571 0.660130 0.353627
O O13 0.000000 0.000000 0.000000
#
# Coordination Sequence:
#
# PCOD9274943 Si02
#       6
#     8   8   8   4   8   8
#     4  10  20  38  66  95 129 170 221 280 327 400
#     4  11  24  41  67 102 130 179 230 276 339 404
#     4  10  23  42  64  96 136 173 227 276 341 398
#     4  12  22  40  74 100 134 176 234 278 336 412
#     4  10  22  42  69  98 128 174 231 268 342 407
#     4  11  27  45  64  96 141 180 220 285 345 396
#
# _framework density 19.459206999999999
#
# number of rings (size 3 to 8) (size 9 to 14) (size 15 to 20)
#    0.000    1.455    2.727    2.182    2.545    4.364 
#    0.000    1.818    0.000    0.000    0.000    0.000 
#    0.000    0.000    0.000    0.000    0.000    0.000 
#
# Total GULP energy -122603.466537 kJ/mol
# GULP energy per Si atom -5572.884843 kJ/mol
# Density = 1.941492 g / cm^3
# Si number density = 19.459207 Si / 1000 Ang^3
#
#
#
# Elastic Constant Matrix: (Units=GPa)
#
#
# Indices 1 2 3 4 5 6 
#
# 1 108.0749 72.2446 53.2912 0.0000 -14.4859 0.0000
# 2 72.2446 144.0462 63.3453 0.0000 3.0802 0.0000
# 3 53.2912 63.3453 119.8402 0.0000 -5.1608 0.0000
# 4 0.0000 0.0000 0.0000 14.7620 0.0000 8.2781
# 5 -14.4859 3.0802 -5.1608 0.0000 31.0826 0.0000
# 6 0.0000 0.0000 0.0000 8.2781 0.0000 35.2503
#
#
#
# Elastic Compliance Matrix: (Units=1/GPa)
#
#
# Indices 1 2 3 4 5 6 
#
# 1 0.016689 -0.007069 -0.003343 0.000000 0.007923 0.000000
# 2 -0.007069 0.012129 -0.003486 0.000000 -0.005075 0.000000
# 3 -0.003343 -0.003486 0.011706 0.000000 0.000731 0.000000
# 4 0.000000 0.000000 0.000000 0.078016 0.000000 -0.018321
# 5 0.007923 -0.005075 0.000731 0.000000 0.036489 0.000000
# 6 0.000000 0.000000 0.000000 -0.018321 0.000000 0.032671
#
#
# Mechanical properties :
#
#
# Convention : Reuss Voigt Hill
#
# Bulk Modulus (GPa) = 78.58064 83.30262 80.94163
# Shear Modulus (GPa) = 22.75414 28.42432 25.58923
#
# Velocity S-wave (km/s) = 3.42325 3.82607 3.63025
# Velocity P-wave (km/s) = 7.48964 7.90065 7.69789
#
# Compressibility (1/GPa) = 0.01272578
#
# Stress axis : x y z
#
# Youngs Moduli (GPa) = 59.91926 82.44416 85.42975
#
# Poissons Ratio (x) = 0.58283 0.28563
# Poissons Ratio (y) = 0.42359 0.29784
# Poissons Ratio (z) = 0.20034 0.28743
#
# Static dielectric constant tensor:
#      x y z
#    x 1.719210 0.000000 0.024580 
#    y 0.000000 1.755200 0.000000 
#    z 0.024580 0.000000 1.679260 
# 
# From -- ./inp_files/161122.got.cif
#   From: 2010.05.17/outbox.cif.g08.bks.cpg/sg15_81_cif.got.tgz:161122.got - 2010.06.03 18:47:42.
