data_PCOD9274729
_publ_section_title
;
Structure prediction by ZEFSAII (Michael W. Deem and Ramdas Pophale) SiO2 
 PCOD9274729
Probable space group: C 2/C
;
_chemical_formula_sum "Si O2"
_cell_formula_units_Z 40
_cell_length_a 14.519446
_cell_length_b 15.004874
_cell_length_c 13.947552
_cell_angle_alpha 90.000000
_cell_angle_beta 150.627119
_cell_angle_gamma 90.000000
_cell_volume 1490.430507
_symmetry_space_group_name_H-M "C 2/C"
_symmetry_group_IT_number 15
_symmetry_cell_setting 'monoclinic'
loop_
_space_group_symop_operation_xyz
x,y,z
-x,y,1/2-z
-x,-y,-z
x,-y,1/2+z
1/2+x,1/2+y,z
1/2-x,1/2+y,1/2-z
1/2-x,1/2-y,-z
1/2+x,1/2-y,1/2+z
loop_
_atom_site_type_symbol
_atom_site_label
_atom_site_fract_x
_atom_site_fract_y
_atom_site_fract_z
Si Si1 0.437431 0.947360 0.083646
Si Si2 0.850700 0.995262 0.448637
Si Si3 0.207650 0.186992 0.136985
Si Si4 0.594994 0.142676 0.441545
Si Si5 0.575795 0.336035 0.724453
O O1 0.500000 0.939516 0.250000
O O2 0.644529 0.962767 0.225586
O O3 0.332603 0.042965 0.980326
O O4 0.287380 0.871771 0.927686
O O5 0.851773 0.099633 0.479258
O O6 0.000000 0.000000 0.500000
O O7 0.930865 0.919214 0.589449
O O8 0.418290 0.157050 0.352260
O O9 0.086328 0.200010 0.124183
O O10 0.223648 0.276112 0.089272
O O11 0.500000 0.149318 0.250000
O O12 0.500000 0.283638 0.750000
#
# Coordination Sequence:
#
# PCOD9274729 Si02
#       5
#     8   8   8   8   8
#     4  10  20  38  64  97 127 169 218 267 333 383
#     4   9  20  36  58  92 126 162 216 263 322 378
#     4  10  23  40  59 100 126 173 219 259 339 392
#     4  10  22  40  63  92 134 170 212 271 334 400
#     4  11  22  40  68  96 134 172 220 277 321 391
#
# _framework density 26.837882
#
# number of rings (size 3 to 8) (size 9 to 14) (size 15 to 20)
#    0.000    2.000    2.000    0.600    2.800    8.000 
#    3.600    1.000    0.000    0.000    0.000    0.000 
#    0.000    0.000    0.000    0.000    0.000    0.000 
#
# Total GULP energy -111623.546513 kJ/mol
# GULP energy per Si atom -5581.177326 kJ/mol
# Density = 2.677680 g / cm^3
# Si number density = 26.837882 Si / 1000 Ang^3
#
#
#
# Elastic Constant Matrix: (Units=GPa)
#
#
# Indices 1 2 3 4 5 6 
#
# 1 160.3022 4.9491 15.0393 -0.0011 5.4824 0.0000
# 2 4.9491 62.9011 32.8880 0.0001 -10.9623 -0.0002
# 3 15.0393 32.8880 75.1805 -0.0010 5.5084 -0.0001
# 4 -0.0011 0.0001 -0.0010 22.9627 -0.0010 11.6659
# 5 5.4824 -10.9623 5.5084 -0.0010 48.1584 0.0000
# 6 0.0000 -0.0002 -0.0001 11.6659 0.0000 8.2862
#
#
#
# Elastic Compliance Matrix: (Units=1/GPa)
#
#
# Indices 1 2 3 4 5 6 
#
# 1 0.006374 0.000057 -0.001259 0.000001 -0.000569 -0.000001
# 2 0.000057 0.022337 -0.010241 -0.000002 0.006249 0.000003
# 3 -0.001259 -0.010241 0.018347 0.000002 -0.004286 -0.000003
# 4 0.000001 -0.000002 0.000002 0.152942 0.000002 -0.215325
# 5 -0.000569 0.006249 -0.004286 0.000002 0.022742 -0.000003
# 6 -0.000001 0.000003 -0.000003 -0.215325 -0.000003 0.423834
#
#
# Mechanical properties :
#
#
# Convention : Reuss Voigt Hill
#
# Bulk Modulus (GPa) = 41.36638 44.90405 43.13521
# Shear Modulus (GPa) = 7.37987 32.24860 19.81424
#
# Velocity S-wave (km/s) = 1.66005 3.47018 2.72010
# Velocity P-wave (km/s) = 4.37278 5.72923 5.09634
#
# Compressibility (1/GPa) = 0.02417422
#
# Stress axis : x y z
#
# Youngs Moduli (GPa) = 156.88823 44.76875 54.50482
#
# Poissons Ratio (x) = -0.00257 0.06860
# Poissons Ratio (y) = -0.00901 0.55817
# Poissons Ratio (z) = 0.19745 0.45847
#
# Static dielectric constant tensor:
#      x y z
#    x 2.213060 0.000000 0.042570 
#    y 0.000000 2.184310 0.000000 
#    z 0.042570 0.000000 2.135240 
# 
# From -- ./inp_files/155605.got.cif
#   From: 2010.05.17/outbox.cif.g08.bks.cpg/sg15_78_cif.got.tgz:155605.got - 2010.06.03 18:47:42.
