data_PCOD9274923
_publ_section_title
;
Structure prediction by ZEFSAII (Michael W. Deem and Ramdas Pophale) SiO2 
 PCOD9274923
Probable space group: C 2/C
;
_chemical_formula_sum "Si O2"
_cell_formula_units_Z 48
_cell_length_a 22.122251
_cell_length_b 9.502696
_cell_length_c 14.320476
_cell_angle_alpha 90.000000
_cell_angle_beta 133.294136
_cell_angle_gamma 90.000000
_cell_volume 2191.145826
_symmetry_space_group_name_H-M "C 2/C"
_symmetry_group_IT_number 15
_symmetry_cell_setting 'monoclinic'
loop_
_space_group_symop_operation_xyz
x,y,z
-x,y,1/2-z
-x,-y,-z
x,-y,1/2+z
1/2+x,1/2+y,z
1/2-x,1/2+y,1/2-z
1/2-x,1/2-y,-z
1/2+x,1/2-y,1/2+z
loop_
_atom_site_type_symbol
_atom_site_label
_atom_site_fract_x
_atom_site_fract_y
_atom_site_fract_z
Si Si1 0.138874 0.676209 0.657672
Si Si2 0.409086 0.187890 0.678978
Si Si3 0.573713 0.224200 0.394494
Si Si4 0.372106 0.528111 0.032309
Si Si5 0.787150 0.014097 0.267939
Si Si6 0.725326 0.958654 0.005050
O O1 0.101167 0.687543 0.720344
O O2 0.075493 0.671943 0.503580
O O3 0.194153 0.819330 0.704110
O O4 0.198253 0.541647 0.709426
O O5 0.500000 0.134936 0.750000
O O6 0.399390 0.340722 0.622207
O O7 0.336268 0.092420 0.559339
O O8 0.500000 0.175956 0.250000
O O9 0.570642 0.392671 0.397646
O O10 0.662070 0.171509 0.445710
O O11 0.356030 0.559559 0.906374
O O12 0.282866 0.475907 0.976663
O O13 0.785404 0.967982 0.158325
#
# Coordination Sequence:
#
# PCOD9274923 Si02
#       6
#     8   8   8   8   8   8
#     4  10  21  41  65  91 123 160 212 255 310 366
#     4  12  24  42  63  94 129 167 203 259 314 369
#     4  10  23  42  59  92 128 161 200 257 320 371
#     4  11  21  40  66  89 123 162 213 257 301 371
#     4  10  20  38  66  94 116 156 212 264 300 358
#     4  11  21  40  66  89 123 162 213 257 301 371
#
# _framework density 21.906347
#
# number of rings (size 3 to 8) (size 9 to 14) (size 15 to 20)
#    0.000    1.333    3.333    3.000    0.000    0.000 
#    6.000    5.000    0.000    0.000    0.000    0.000 
#    0.000    0.000    0.000    0.000    0.000    0.000 
#
# Total GULP energy -134078.453485 kJ/mol
# GULP energy per Si atom -5586.602229 kJ/mol
# Density = 2.185649 g / cm^3
# Si number density = 21.906347 Si / 1000 Ang^3
#
#
#
# Elastic Constant Matrix: (Units=GPa)
#
#
# Indices 1 2 3 4 5 6 
#
# 1 63.6672 18.0867 31.0424 0.0000 -17.1292 0.0000
# 2 18.0867 77.4402 33.1826 0.0000 -9.6225 0.0000
# 3 31.0424 33.1826 133.0855 0.0000 -28.8462 0.0000
# 4 0.0000 0.0000 0.0000 -3.5686 0.0000 2.7680
# 5 -17.1292 -9.6225 -28.8462 0.0000 28.1011 0.0000
# 6 0.0000 0.0000 0.0000 2.7680 0.0000 12.3283
#
#
#
# Elastic Compliance Matrix: (Units=1/GPa)
#
#
# Indices 1 2 3 4 5 6 
#
# 1 0.019901 -0.002655 -0.001991 0.000000 0.009178 0.000000
# 2 -0.002655 0.014869 -0.003004 0.000000 0.000390 0.000000
# 3 -0.001991 -0.003004 0.010600 0.000000 0.008639 0.000000
# 4 0.000000 0.000000 0.000000 -0.238657 0.000000 0.053584
# 5 0.009178 0.000390 0.008639 0.000000 0.050182 0.000000
# 6 0.000000 0.000000 0.000000 0.053584 0.000000 0.069083
#
#
# Mechanical properties :
#
#
# Convention : Reuss Voigt Hill
#
# Bulk Modulus (GPa) = 33.25395 48.75735 41.00565
# Shear Modulus (GPa) = -102.66535 20.16425 -41.25055
#
# Velocity S-wave (km/s) = -6.85327 3.03722 -4.34411
# Velocity P-wave (km/s) = 6.88550 5.88261 2.53031
#
# Compressibility (1/GPa) = 0.03007162
#
# Stress axis : x y z
#
# Youngs Moduli (GPa) = 50.24947 67.25571 94.34315
#
# Poissons Ratio (x) = 0.17853 0.18780
# Poissons Ratio (y) = 0.13339 0.28336
# Poissons Ratio (z) = 0.10003 0.20200
#
# Static dielectric constant tensor:
#      x y z
#    x 1.771990 0.000000 -0.018930 
#    y 0.000000 1.817820 0.000000 
#    z -0.018930 0.000000 1.821880 
# 
# From -- ./inp_files/152120.got.cif
#   From: 2010.05.17/outbox.cif.g08.bks.cpg/sg15_77_cif.got.tgz:152120.got - 2010.06.03 18:47:42.
