data_PCOD9274441
_publ_section_title
;
Structure prediction by ZEFSAII (Michael W. Deem and Ramdas Pophale) SiO2 
 PCOD9274441
Probable space group: C 2/C
;
_chemical_formula_sum "Si O2"
_cell_formula_units_Z 52
_cell_length_a 31.916874
_cell_length_b 5.493241
_cell_length_c 17.303133
_cell_angle_alpha 90.000000
_cell_angle_beta 126.911079
_cell_angle_gamma 90.000000
_cell_volume 2425.657325
_symmetry_space_group_name_H-M "C 2/C"
_symmetry_group_IT_number 15
_symmetry_cell_setting 'monoclinic'
loop_
_space_group_symop_operation_xyz
x,y,z
-x,y,1/2-z
-x,-y,-z
x,-y,1/2+z
1/2+x,1/2+y,z
1/2-x,1/2+y,1/2-z
1/2-x,1/2-y,-z
1/2+x,1/2-y,1/2+z
loop_
_atom_site_type_symbol
_atom_site_label
_atom_site_fract_x
_atom_site_fract_y
_atom_site_fract_z
Si Si1 0.323139 0.926366 0.524413
Si Si2 0.826892 0.977555 0.917994
Si Si3 0.500000 0.997669 0.250000
Si Si4 0.584135 0.703716 0.399953
Si Si5 0.723524 0.882210 0.376995
Si Si6 0.671931 0.384745 0.258746
Si Si7 0.591001 0.662445 0.783053
O O1 0.309028 0.787013 0.430268
O O2 0.281738 0.034375 0.539205
O O3 0.354559 0.731264 0.612743
O O4 0.369618 0.105729 0.555928
O O5 0.782962 0.139549 0.913146
O O6 0.822588 0.040155 0.824158
O O7 0.888006 0.014927 0.011159
O O8 0.455505 0.158363 0.243450
O O9 0.530026 0.843451 0.349667
O O10 0.576290 0.588564 0.306743
O O11 0.698085 0.118106 0.303872
O O12 0.694273 0.626854 0.327719
O O13 0.611214 0.354613 0.218518
#
# Coordination Sequence:
#
# PCOD9274441 Si02
#       7
#     8   8   4   8   8   8   8
#     4   9  20  37  59  90 125 169 217 264 303 367
#     4  11  24  36  61  96 133 168 215 265 312 369
#     4  10  20  38  70  88 114 158 218 276 330 388
#     4  10  20  38  63  90 121 158 216 274 316 374
#     4  11  23  41  62  90 134 186 219 245 305 381
#     4  11  24  41  62  93 136 178 211 255 315 381
#     4   9  19  39  60  91 118 164 213 265 317 389
#
# _framework density 21.437488999999999
#
# number of rings (size 3 to 8) (size 9 to 14) (size 15 to 20)
#    0.000    1.846    1.538    1.846    4.308    0.615 
#    0.000    0.769    0.000   12.923    0.000    0.000 
#    0.000    0.000    0.000    0.000    0.000    0.000 
#
# Total GULP energy -144780.052088 kJ/mol
# GULP energy per Si atom -5568.463542 kJ/mol
# Density = 2.138870 g / cm^3
# Si number density = 21.437489 Si / 1000 Ang^3
#
#
#
# Elastic Constant Matrix: (Units=GPa)
#
#
# Indices 1 2 3 4 5 6 
#
# 1 109.8087 26.3379 48.6382 -0.0001 8.5788 0.0001
# 2 26.3379 94.4077 27.6473 -0.0006 10.5903 -0.0007
# 3 48.6382 27.6473 71.2008 0.0000 -4.4387 -0.0002
# 4 -0.0001 -0.0006 0.0000 26.0370 0.0000 16.7752
# 5 8.5788 10.5903 -4.4387 0.0000 41.1340 0.0000
# 6 0.0001 -0.0007 -0.0002 16.7752 0.0000 26.4032
#
#
#
# Elastic Compliance Matrix: (Units=1/GPa)
#
#
# Indices 1 2 3 4 5 6 
#
# 1 0.013682 -0.000676 -0.009314 0.000000 -0.003684 0.000000
# 2 -0.000676 0.012540 -0.004631 0.000000 -0.003587 0.000000
# 3 -0.009314 -0.004631 0.022552 0.000000 0.005568 0.000000
# 4 0.000000 0.000000 0.000000 0.065024 0.000000 -0.041313
# 5 -0.003684 -0.003587 0.005568 0.000000 0.026604 0.000000
# 6 0.000000 0.000000 0.000000 -0.041313 0.000000 0.064122
#
#
# Mechanical properties :
#
#
# Convention : Reuss Voigt Hill
#
# Bulk Modulus (GPa) = 51.19603 53.40712 52.30157
# Shear Modulus (GPa) = 20.80943 30.23442 25.52193
#
# Velocity S-wave (km/s) = 3.11899 3.75954 3.45415
# Velocity P-wave (km/s) = 6.07488 6.61911 6.35282
#
# Compressibility (1/GPa) = 0.01953277
#
# Stress axis : x y z
#
# Youngs Moduli (GPa) = 73.08831 79.74788 44.34157
#
# Poissons Ratio (x) = 0.05393 0.41298
# Poissons Ratio (y) = 0.04943 0.20533
# Poissons Ratio (z) = 0.68071 0.36929
#
# Static dielectric constant tensor:
#      x y z
#    x 1.817400 0.000000 0.029230 
#    y 0.000000 1.934080 0.000000 
#    z 0.029230 0.000000 1.853890 
# 
# From -- ./inp_files/223573.got.cif
#   From: 2010.05.17/outbox.cif.g08.bks.cpg/sg15_112_cif.got.tgz:223573.got - 2010.06.03 18:47:42.
