data_PCOD9274373
_publ_section_title
;
Structure prediction by ZEFSAII (Michael W. Deem and Ramdas Pophale) SiO2 
 PCOD9274373
Probable space group: C 2/C
;
_chemical_formula_sum "Si O2"
_cell_formula_units_Z 44
_cell_length_a 19.526244
_cell_length_b 6.588502
_cell_length_c 16.951279
_cell_angle_alpha 90.000000
_cell_angle_beta 66.961176
_cell_angle_gamma 90.000000
_cell_volume 2006.822290
_symmetry_space_group_name_H-M "C 2/C"
_symmetry_group_IT_number 15
_symmetry_cell_setting 'monoclinic'
loop_
_space_group_symop_operation_xyz
x,y,z
-x,y,1/2-z
-x,-y,-z
x,-y,1/2+z
1/2+x,1/2+y,z
1/2-x,1/2+y,1/2-z
1/2-x,1/2-y,-z
1/2+x,1/2-y,1/2+z
loop_
_atom_site_type_symbol
_atom_site_label
_atom_site_fract_x
_atom_site_fract_y
_atom_site_fract_z
Si Si1 0.280574 0.038373 0.513258
Si Si2 0.814092 0.251286 0.358381
Si Si3 0.532983 0.644003 0.124535
Si Si4 0.921980 0.386256 0.531004
Si Si5 0.500000 0.721103 0.750000
Si Si6 0.901355 0.477129 0.207934
O O1 0.250000 0.250000 0.500000
O O2 0.231750 0.952679 0.607871
O O3 0.274270 0.901621 0.437577
O O4 0.365337 0.016925 0.503268
O O5 0.897177 0.209484 0.353261
O O6 0.828132 0.359017 0.269358
O O7 0.511186 0.425311 0.169133
O O8 0.465565 0.805119 0.165074
O O9 0.563182 0.674907 0.021622
O O10 0.891835 0.391583 0.633141
O O11 0.000000 0.500000 0.500000
O O12 0.568787 0.869150 0.738346
#
# Coordination Sequence:
#
# PCOD9274373 Si02
#       6
#     8   8   8   8   4   8
#     4  10  23  41  65  93 120 180 220 265 339 407
#     4  10  20  39  61  86 132 160 221 275 318 409
#     4  10  20  38  62  97 127 166 228 279 320 414
#     4   9  22  43  66  94 141 167 216 294 342 393
#     4  12  20  32  68  96 122 182 226 266 344 396
#     4  11  21  39  61  97 134 170 214 282 343 391
#
# _framework density 21.925208999999999
#
# number of rings (size 3 to 8) (size 9 to 14) (size 15 to 20)
#    0.000    1.818    3.636    0.000    2.545    0.727 
#    3.273    9.091    0.000    0.000    0.000    0.000 
#    0.000    0.000    0.000    0.000    0.000    0.000 
#
# Total GULP energy -122702.101422 kJ/mol
# GULP energy per Si atom -5577.368246 kJ/mol
# Density = 2.187531 g / cm^3
# Si number density = 21.925209 Si / 1000 Ang^3
#
#
#
# Elastic Constant Matrix: (Units=GPa)
#
#
# Indices 1 2 3 4 5 6 
#
# 1 48.2948 32.3561 26.4216 -0.0002 -0.1301 -0.0006
# 2 32.3561 107.0488 35.8678 -0.0010 -9.0057 -0.0040
# 3 26.4216 35.8678 123.3088 -0.0001 -8.9661 -0.0006
# 4 -0.0002 -0.0010 -0.0001 27.1480 -0.0001 -4.2296
# 5 -0.1301 -9.0057 -8.9661 -0.0001 25.8600 -0.0005
# 6 -0.0006 -0.0040 -0.0006 -4.2296 -0.0005 19.2751
#
#
#
# Elastic Compliance Matrix: (Units=1/GPa)
#
#
# Indices 1 2 3 4 5 6 
#
# 1 0.027886 -0.007376 -0.004110 0.000000 -0.003853 -0.000001
# 2 -0.007376 0.012478 -0.001781 0.000001 0.003691 0.000003
# 3 -0.004110 -0.001781 0.009706 0.000000 0.002725 0.000000
# 4 0.000000 0.000001 0.000000 0.038139 0.000000 0.008369
# 5 -0.003853 0.003691 0.002725 0.000000 0.040880 0.000002
# 6 -0.000001 0.000003 0.000000 0.008369 0.000002 0.053717
#
#
# Mechanical properties :
#
#
# Convention : Reuss Voigt Hill
#
# Bulk Modulus (GPa) = 42.48544 51.99371 47.23958
# Shear Modulus (GPa) = 23.02183 26.72374 24.87279
#
# Velocity S-wave (km/s) = 3.24391 3.49500 3.37180
# Velocity P-wave (km/s) = 5.78361 6.32869 6.06228
#
# Compressibility (1/GPa) = 0.02353747
#
# Stress axis : x y z
#
# Youngs Moduli (GPa) = 35.86059 80.14059 103.02420
#
# Poissons Ratio (x) = 0.59110 0.42342
# Poissons Ratio (y) = 0.26450 0.18347
# Poissons Ratio (z) = 0.14738 0.14272
#
# Static dielectric constant tensor:
#      x y z
#    x 1.805640 0.000000 -0.011500 
#    y 0.000000 1.856320 0.000000 
#    z -0.011500 0.000000 1.915820 
# 
# From -- ./inp_files/217696.got.cif
#   From: 2010.05.17/outbox.cif.g08.bks.cpg/sg15_109_cif.got.tgz:217696.got - 2010.06.03 18:47:42.
