data_PCOD9274190
_publ_section_title
;
Structure prediction by ZEFSAII (Michael W. Deem and Ramdas Pophale) SiO2 
 PCOD9274190
Probable space group: C 2/C
;
_chemical_formula_sum "Si O2"
_cell_formula_units_Z 48
_cell_length_a 19.104788
_cell_length_b 14.211544
_cell_length_c 14.324422
_cell_angle_alpha 90.000000
_cell_angle_beta 31.298248
_cell_angle_gamma 90.000000
_cell_volume 2020.413586
_symmetry_space_group_name_H-M "C 2/C"
_symmetry_group_IT_number 15
_symmetry_cell_setting 'monoclinic'
loop_
_space_group_symop_operation_xyz
x,y,z
-x,y,1/2-z
-x,-y,-z
x,-y,1/2+z
1/2+x,1/2+y,z
1/2-x,1/2+y,1/2-z
1/2-x,1/2-y,-z
1/2+x,1/2-y,1/2+z
loop_
_atom_site_type_symbol
_atom_site_label
_atom_site_fract_x
_atom_site_fract_y
_atom_site_fract_z
Si Si1 0.872574 0.007240 0.442989
Si Si2 0.847535 0.483384 0.454835
Si Si3 0.144952 0.288952 0.546974
Si Si4 0.838688 0.497310 0.172724
Si Si5 0.511652 0.296942 0.628658
Si Si6 0.293468 0.772495 0.233606
O O1 0.765664 0.958176 0.634159
O O2 0.950505 0.092312 0.406352
O O3 0.000000 0.954510 0.250000
O O4 0.768596 0.048280 0.483850
O O5 0.844322 0.597445 0.461374
O O6 0.812746 0.460202 0.600727
O O7 0.000000 0.456649 0.250000
O O8 0.250000 0.250000 0.500000
O O9 0.166055 0.251747 0.418522
O O10 0.000000 0.264298 0.750000
O O11 0.809192 0.386244 0.217784
O O12 0.000000 0.500000 0.000000
O O13 0.500000 0.265553 0.750000
O O14 0.385517 0.272325 0.708648
O O15 0.639319 0.250840 0.432433
#
# Coordination Sequence:
#
# PCOD9274190 Si02
#       6
#     8   8   8   8   8   8
#     4  10  22  40  60  92 129 158 203 258 312 365
#     4  10  20  38  62  85 119 160 209 254 297 370
#     4  10  21  37  61  89 117 156 206 258 310 361
#     4  10  20  39  63  88 113 158 211 247 301 363
#     4  10  21  41  60  90 126 162 204 247 308 370
#     4  10  21  39  62  87 124 157 201 256 300 366
#
# _framework density 23.757511000000001
#
# number of rings (size 3 to 8) (size 9 to 14) (size 15 to 20)
#    0.000    2.000    1.667    1.500    0.000    1.333 
#   12.000    0.000    0.000    0.000    0.000    0.000 
#    0.000    0.000    0.000    0.000    0.000    0.000 
#
# Total GULP energy -134153.351474 kJ/mol
# GULP energy per Si atom -5589.722978 kJ/mol
# Density = 2.370344 g / cm^3
# Si number density = 23.757511 Si / 1000 Ang^3
#
#
#
# Elastic Constant Matrix: (Units=GPa)
#
#
# Indices 1 2 3 4 5 6 
#
# 1 113.2775 -15.3389 46.8619 0.0000 21.2920 0.0000
# 2 -15.3389 84.5729 -11.9409 0.0000 0.5131 0.0000
# 3 46.8619 -11.9409 212.0631 0.0000 23.4110 0.0000
# 4 0.0000 0.0000 0.0000 -259.3845 0.0000 -88.7105
# 5 21.2920 0.5131 23.4110 0.0000 56.9508 0.0000
# 6 0.0000 0.0000 0.0000 -88.7105 0.0000 2.6598
#
#
#
# Elastic Compliance Matrix: (Units=1/GPa)
#
#
# Indices 1 2 3 4 5 6 
#
# 1 0.010411 0.001645 -0.001861 0.000000 -0.003142 0.000000
# 2 0.001645 0.012187 0.000422 0.000000 -0.000898 0.000000
# 3 -0.001861 0.000422 0.005315 0.000000 -0.001493 0.000000
# 4 0.000000 0.000000 0.000000 -0.000311 0.000000 -0.010364
# 5 -0.003142 -0.000898 -0.001493 0.000000 0.019356 0.000000
# 6 0.000000 0.000000 0.000000 -0.010364 0.000000 0.030304
#
#
# Mechanical properties :
#
#
# Convention : Reuss Voigt Hill
#
# Bulk Modulus (GPa) = 35.30489 49.89750 42.60120
# Shear Modulus (GPa) = 57.94180 -13.93268 22.00456
#
# Velocity S-wave (km/s) = 4.94386 -2.42431 3.04668
# Velocity P-wave (km/s) = 6.89071 3.63484 5.50881
#
# Compressibility (1/GPa) = 0.02832469
#
# Stress axis : x y z
#
# Youngs Moduli (GPa) = 96.05114 82.05184 188.13086
#
# Poissons Ratio (x) = -0.13494 0.35015
# Poissons Ratio (y) = -0.15796 -0.07939
# Poissons Ratio (z) = 0.17877 -0.03463
#
# Static dielectric constant tensor:
#      x y z
#    x 1.948760 0.000000 0.100100 
#    y 0.000000 1.962290 0.000000 
#    z 0.100100 0.000000 1.941040 
# 
# From -- ./inp_files/100049.got.cif
#   From: 2010.05.17/outbox.cif.g08.bks.cpg/sg15_51_cif.got.tgz:100049.got - 2010.06.03 18:47:42.
