data_PCOD9274096
_publ_section_title
;
Structure prediction by ZEFSAII (Michael W. Deem and Ramdas Pophale) SiO2 
 PCOD9274096
Probable space group: C 2/C
;
_chemical_formula_sum "Si O2"
_cell_formula_units_Z 48
_cell_length_a 16.608607
_cell_length_b 9.920110
_cell_length_c 23.155307
_cell_angle_alpha 90.000000
_cell_angle_beta 32.906086
_cell_angle_gamma 90.000000
_cell_volume 2072.577947
_symmetry_space_group_name_H-M "C 2/C"
_symmetry_group_IT_number 15
_symmetry_cell_setting 'monoclinic'
loop_
_space_group_symop_operation_xyz
x,y,z
-x,y,1/2-z
-x,-y,-z
x,-y,1/2+z
1/2+x,1/2+y,z
1/2-x,1/2+y,1/2-z
1/2-x,1/2-y,-z
1/2+x,1/2-y,1/2+z
loop_
_atom_site_type_symbol
_atom_site_label
_atom_site_fract_x
_atom_site_fract_y
_atom_site_fract_z
Si Si1 0.564718 0.645688 0.775707
Si Si2 0.951313 0.304297 0.436175
Si Si3 0.800677 0.053858 0.012644
Si Si4 0.132728 0.273429 0.431496
Si Si5 0.348624 0.233434 0.875002
Si Si6 0.016421 0.402465 0.608629
O O1 0.500000 0.638055 0.750000
O O2 0.459813 0.565338 0.883883
O O3 0.738966 0.622072 0.663866
O O4 0.565825 0.799288 0.800118
O O5 0.786196 0.330788 0.561650
O O6 0.904526 0.231547 0.405629
O O7 0.026788 0.441911 0.369142
O O8 0.049851 0.229115 0.423311
O O9 0.808550 0.154556 0.062422
O O10 0.683048 0.101148 0.034818
O O11 0.726656 0.915269 0.080148
O O12 0.018114 0.348308 0.542720
O O13 0.500000 0.236998 0.750000
#
# Coordination Sequence:
#
# PCOD9274096 Si02
#       6
#     8   8   8   8   8   8
#     4  11  19  36  64  98 129 170 211 266 328 380
#     4  10  24  43  60  95 124 168 225 259 320 400
#     4  10  21  37  64  96 125 166 224 259 314 395
#     4  11  21  37  63  96 131 162 209 277 325 371
#     4  10  24  47  68  83 128 181 218 267 329 390
#     4  10  20  38  61  89 130 166 209 262 319 390
#
# _framework density 23.159562999999999
#
# number of rings (size 3 to 8) (size 9 to 14) (size 15 to 20)
#    0.000    1.667    3.333    1.500    4.667    3.333 
#   12.000    0.000    0.000    0.000    0.000    0.000 
#    0.000    0.000    0.000    0.000    0.000    0.000 
#
# Total GULP energy -133808.854188 kJ/mol
# GULP energy per Si atom -5575.368924 kJ/mol
# Density = 2.310685 g / cm^3
# Si number density = 23.159563 Si / 1000 Ang^3
#
#
#
# Elastic Constant Matrix: (Units=GPa)
#
#
# Indices 1 2 3 4 5 6 
#
# 1 140.4808 4.3461 22.4835 0.0000 -2.2564 0.0000
# 2 4.3461 63.0625 -5.6906 0.0000 7.7800 0.0000
# 3 22.4835 -5.6906 102.7740 0.0000 6.7155 0.0000
# 4 0.0000 0.0000 0.0000 19.4203 0.0000 0.6613
# 5 -2.2564 7.7800 6.7155 0.0000 8.9038 0.0000
# 6 0.0000 0.0000 0.0000 0.6613 0.0000 18.3336
#
#
#
# Elastic Compliance Matrix: (Units=1/GPa)
#
#
# Indices 1 2 3 4 5 6 
#
# 1 0.007554 -0.001263 -0.002019 0.000000 0.004541 0.000000
# 2 -0.001263 0.018427 0.002492 0.000000 -0.018301 0.000000
# 3 -0.002019 0.002492 0.011029 0.000000 -0.011008 0.000000
# 4 0.000000 0.000000 0.000000 0.051556 0.000000 -0.001860
# 5 0.004541 -0.018301 -0.011008 0.000000 0.137755 0.000000
# 6 0.000000 0.000000 0.000000 -0.001860 0.000000 0.054612
#
#
# Mechanical properties :
#
#
# Convention : Reuss Voigt Hill
#
# Bulk Modulus (GPa) = 28.22428 38.73280 33.47854
# Shear Modulus (GPa) = 16.98820 28.34342 22.66581
#
# Velocity S-wave (km/s) = 2.71131 3.50213 3.13178
# Velocity P-wave (km/s) = 4.69201 5.75446 5.25018
#
# Compressibility (1/GPa) = 0.03543049
#
# Stress axis : x y z
#
# Youngs Moduli (GPa) = 132.38781 54.26807 90.66934
#
# Poissons Ratio (x) = 0.06854 0.18307
# Poissons Ratio (y) = 0.16720 -0.22599
# Poissons Ratio (z) = 0.26730 -0.13526
#
# Static dielectric constant tensor:
#      x y z
#    x 1.825860 0.000000 -0.023530 
#    y 0.000000 1.961410 0.000000 
#    z -0.023530 0.000000 2.009970 
# 
# From -- ./inp_files/277221.got.cif
#   From: 2010.05.17/outbox.cif.g08.bks.cpg/sg15_139_cif.got.tgz:277221.got - 2010.06.03 18:47:42.
