data_PCOD9274914
_publ_section_title
;
Structure prediction by ZEFSAII (Michael W. Deem and Ramdas Pophale) SiO2 
 PCOD9274914
Probable space group: C 2/C
;
_chemical_formula_sum "Si O2"
_cell_formula_units_Z 36
_cell_length_a 14.773661
_cell_length_b 18.000537
_cell_length_c 8.041673
_cell_angle_alpha 90.000000
_cell_angle_beta 136.937287
_cell_angle_gamma 90.000000
_cell_volume 1460.200621
_symmetry_space_group_name_H-M "C 2/C"
_symmetry_group_IT_number 15
_symmetry_cell_setting 'monoclinic'
loop_
_space_group_symop_operation_xyz
x,y,z
-x,y,1/2-z
-x,-y,-z
x,-y,1/2+z
1/2+x,1/2+y,z
1/2-x,1/2+y,1/2-z
1/2-x,1/2-y,-z
1/2+x,1/2-y,1/2+z
loop_
_atom_site_type_symbol
_atom_site_label
_atom_site_fract_x
_atom_site_fract_y
_atom_site_fract_z
Si Si1 0.000000 0.688351 0.750000
Si Si2 0.532196 0.913258 0.548626
Si Si3 0.507090 0.414483 0.958572
Si Si4 0.205917 0.351464 0.083498
Si Si5 0.153570 0.221280 0.218976
O O1 0.908851 0.626189 0.536455
O O2 0.979115 0.743950 0.875693
O O3 0.384098 0.880994 0.382646
O O4 0.500000 0.000000 0.500000
O O5 0.627453 0.886129 0.823596
O O6 0.500000 0.409628 0.750000
O O7 0.386746 0.363338 0.861926
O O8 0.500000 0.500000 0.000000
O O9 0.646425 0.381150 0.207606
O O10 0.194048 0.263466 0.105240
O O11 0.250000 0.250000 0.500000
#
# Coordination Sequence:
#
# PCOD9274914 Si02
#       5
#     4   8   8   8   8
#     4  10  20  38  66  92 132 190 238 306 352 428
#     4  10  22  40  67 102 146 195 250 309 371 445
#     4  12  27  49  73 111 153 196 244 315 385 447
#     4  10  23  44  69 107 144 189 259 301 373 451
#     4  11  21  45  71  96 144 196 244 295 374 451
#
# _framework density 24.654146000000001
#
# number of rings (size 3 to 8) (size 9 to 14) (size 15 to 20)
#    0.000    1.333    3.333    1.333    3.111    1.778 
#    8.000   11.111    0.000    0.000    0.000    0.000 
#    0.000    0.000    0.000    0.000    0.000    0.000 
#
# Total GULP energy -100371.004467 kJ/mol
# GULP energy per Si atom -5576.166915 kJ/mol
# Density = 2.459803 g / cm^3
# Si number density = 24.654146 Si / 1000 Ang^3
#
#
#
# Elastic Constant Matrix: (Units=GPa)
#
#
# Indices 1 2 3 4 5 6 
#
# 1 66.7572 37.6949 47.7264 0.0000 7.8806 0.0000
# 2 37.6949 214.4190 74.0306 0.0000 9.3429 0.0000
# 3 47.7264 74.0306 160.9927 0.0000 7.8514 0.0000
# 4 0.0000 0.0000 0.0000 36.2270 0.0000 -7.0264
# 5 7.8806 9.3429 7.8514 0.0000 54.4862 0.0000
# 6 0.0000 0.0000 0.0000 -7.0264 0.0000 30.5511
#
#
#
# Elastic Compliance Matrix: (Units=1/GPa)
#
#
# Indices 1 2 3 4 5 6 
#
# 1 0.019700 -0.001661 -0.004986 0.000000 -0.001846 0.000000
# 2 -0.001661 0.005703 -0.002109 0.000000 -0.000434 0.000000
# 3 -0.004986 -0.002109 0.008667 0.000000 -0.000166 0.000000
# 4 0.000000 0.000000 0.000000 0.028893 0.000000 0.006645
# 5 -0.001846 -0.000434 -0.000166 0.000000 0.018719 0.000000
# 6 0.000000 0.000000 0.000000 0.006645 0.000000 0.034260
#
#
# Mechanical properties :
#
#
# Convention : Reuss Voigt Hill
#
# Bulk Modulus (GPa) = 60.39350 84.56362 72.47856
# Shear Modulus (GPa) = 35.97795 43.10066 39.53931
#
# Velocity S-wave (km/s) = 3.82423 4.18570 4.00904
# Velocity P-wave (km/s) = 6.63695 7.59832 7.13385
#
# Compressibility (1/GPa) = 0.01655807
#
# Stress axis : x y z
#
# Youngs Moduli (GPa) = 50.76027 175.35302 115.37494
#
# Poissons Ratio (x) = 0.29132 0.57529
# Poissons Ratio (y) = 0.08433 0.24329
# Poissons Ratio (z) = 0.25310 0.36977
#
# Static dielectric constant tensor:
#      x y z
#    x 2.803650 0.000000 0.186650 
#    y 0.000000 2.120470 0.000000 
#    z 0.186650 0.000000 1.985880 
# 
# From -- ./inp_files/48849.got.cif
#   From: 2010.05.17/outbox.cif.g08.bks.cpg/sg15_25_cif.got.tgz:48849.got - 2010.06.03 18:47:42.
