data_PCOD9274043
_publ_section_title
;
Structure prediction by ZEFSAII (Michael W. Deem and Ramdas Pophale) SiO2 
 PCOD9274043
Probable space group: C 2/C
;
_chemical_formula_sum "Si O2"
_cell_formula_units_Z 40
_cell_length_a 17.069554
_cell_length_b 8.917832
_cell_length_c 11.710650
_cell_angle_alpha 90.000000
_cell_angle_beta 122.304163
_cell_angle_gamma 90.000000
_cell_volume 1506.724226
_symmetry_space_group_name_H-M "C 2/C"
_symmetry_group_IT_number 15
_symmetry_cell_setting 'monoclinic'
loop_
_space_group_symop_operation_xyz
x,y,z
-x,y,1/2-z
-x,-y,-z
x,-y,1/2+z
1/2+x,1/2+y,z
1/2-x,1/2+y,1/2-z
1/2-x,1/2-y,-z
1/2+x,1/2-y,1/2+z
loop_
_atom_site_type_symbol
_atom_site_label
_atom_site_fract_x
_atom_site_fract_y
_atom_site_fract_z
Si Si1 0.900005 0.969819 0.183266
Si Si2 0.347774 0.752099 0.438197
Si Si3 0.796697 0.582819 0.489148
Si Si4 0.358615 0.212501 0.316837
Si Si5 0.921779 0.399610 0.284229
O O1 0.812378 0.076619 0.115343
O O2 0.895557 0.865853 0.292711
O O3 0.000000 0.041768 0.250000
O O4 0.884655 0.858172 0.063670
O O5 0.330528 0.915657 0.480426
O O6 0.246468 0.698094 0.315794
O O7 0.415119 0.784821 0.383916
O O8 0.847033 0.696132 0.442699
O O9 0.825254 0.607612 0.640375
O O10 0.421634 0.071404 0.328952
O O11 0.000000 0.382056 0.250000
#
# Coordination Sequence:
#
# PCOD9274043 Si02
#       5
#     8   8   8   8   8
#     4  11  21  39  65  89 118 160 203 241 294 362
#     4  10  21  38  60  87 124 156 197 244 302 353
#     4  10  21  38  61  88 123 157 198 244 303 350
#     4  10  20  38  61  85 121 159 195 246 296 356
#     4  11  22  35  62  92 120 153 200 253 293 350
#
# _framework density 26.54766
#
# number of rings (size 3 to 8) (size 9 to 14) (size 15 to 20)
#    0.000    1.600    4.000    1.800    2.800    2.400 
#    0.000    2.000    0.000    0.000    0.000    0.000 
#    0.000    0.000    0.000    0.000    0.000    0.000 
#
# Total GULP energy -112251.329279 kJ/mol
# GULP energy per Si atom -5612.566464 kJ/mol
# Density = 2.648724 g / cm^3
# Si number density = 26.547660 Si / 1000 Ang^3
#
#
#
# Elastic Constant Matrix: (Units=GPa)
#
#
# Indices 1 2 3 4 5 6 
#
# 1 165.9120 35.0317 11.8091 0.0000 -5.3521 0.0000
# 2 35.0317 91.7064 14.6985 0.0000 -19.6580 0.0000
# 3 11.8091 14.6985 78.8228 0.0000 -14.1322 0.0000
# 4 0.0000 0.0000 0.0000 12.6445 0.0000 -14.4731
# 5 -5.3521 -19.6580 -14.1322 0.0000 46.1949 0.0000
# 6 0.0000 0.0000 0.0000 -14.4731 0.0000 23.7923
#
#
#
# Elastic Compliance Matrix: (Units=1/GPa)
#
#
# Indices 1 2 3 4 5 6 
#
# 1 0.006588 -0.002526 -0.000605 0.000000 -0.000497 0.000000
# 2 -0.002526 0.013115 -0.001184 0.000000 0.004926 0.000000
# 3 -0.000605 -0.001184 0.013644 0.000000 0.003600 0.000000
# 4 0.000000 0.000000 0.000000 0.260390 0.000000 0.158398
# 5 -0.000497 0.004926 0.003600 0.000000 0.024787 0.000000
# 6 0.000000 0.000000 0.000000 0.158398 0.000000 0.138385
#
#
# Mechanical properties :
#
#
# Convention : Reuss Voigt Hill
#
# Bulk Modulus (GPa) = 40.45909 51.05776 45.75843
# Shear Modulus (GPa) = 10.55348 34.85313 22.70331
#
# Velocity S-wave (km/s) = 1.99598 3.62726 2.92754
# Velocity P-wave (km/s) = 4.53709 6.06770 5.35734
#
# Compressibility (1/GPa) = 0.02471633
#
# Stress axis : x y z
#
# Youngs Moduli (GPa) = 151.79846 76.24852 73.29472
#
# Poissons Ratio (x) = 0.19260 0.04434
# Poissons Ratio (y) = 0.38344 0.08678
# Poissons Ratio (z) = 0.09184 0.09028
#
# Static dielectric constant tensor:
#      x y z
#    x 2.068050 0.000000 0.031660 
#    y 0.000000 2.072020 0.000000 
#    z 0.031660 0.000000 2.053390 
# 
# From -- ./inp_files/95153.got.cif
#   From: 2010.05.17/outbox.cif.g08.bks.cpg/sg15_48_cif.got.tgz:95153.got - 2010.06.03 18:47:42.
