data_PCOD9274455
_publ_section_title
;
Structure prediction by ZEFSAII (Michael W. Deem and Ramdas Pophale) SiO2 
 PCOD9274455
Probable space group: C 2/C
;
_chemical_formula_sum "Si O2"
_cell_formula_units_Z 48
_cell_length_a 11.234656
_cell_length_b 13.385782
_cell_length_c 13.720879
_cell_angle_alpha 90.000000
_cell_angle_beta 74.722798
_cell_angle_gamma 90.000000
_cell_volume 1990.493594
_symmetry_space_group_name_H-M "C 2/C"
_symmetry_group_IT_number 15
_symmetry_cell_setting 'monoclinic'
loop_
_space_group_symop_operation_xyz
x,y,z
-x,y,1/2-z
-x,-y,-z
x,-y,1/2+z
1/2+x,1/2+y,z
1/2-x,1/2+y,1/2-z
1/2-x,1/2-y,-z
1/2+x,1/2-y,1/2+z
loop_
_atom_site_type_symbol
_atom_site_label
_atom_site_fract_x
_atom_site_fract_y
_atom_site_fract_z
Si Si1 0.311938 0.982039 0.480655
Si Si2 0.327940 0.309903 0.068108
Si Si3 0.540498 0.135134 0.837209
Si Si4 0.172453 0.441538 0.800672
Si Si5 0.555198 0.807842 0.584574
Si Si6 0.244298 0.740865 0.198618
O O1 0.202286 0.925810 0.447335
O O2 0.435695 0.916425 0.425350
O O3 0.282827 0.964395 0.600561
O O4 0.353405 0.097194 0.460391
O O5 0.468256 0.268833 0.040948
O O6 0.279586 0.285071 0.187810
O O7 0.250000 0.250000 0.000000
O O8 0.500000 0.194457 0.750000
O O9 0.619586 0.044353 0.773503
O O10 0.636757 0.205242 0.869873
O O11 0.261470 0.377214 0.714899
O O12 0.446223 0.870786 0.660710
O O13 0.634471 0.745709 0.645603
#
# Coordination Sequence:
#
# PCOD9274455 Si02
#       6
#     8   8   8   8   8   8
#     4  11  21  39  65  93 121 166 220 268 321 392
#     4  11  20  35  63  94 123 162 216 268 321 388
#     4  11  21  35  62  92 122 162 210 265 325 383
#     4  10  20  38  63  91 118 159 215 263 310 388
#     4  10  21  37  61  92 127 163 213 271 320 379
#     4  11  22  36  60  94 129 160 209 274 326 385
#
# _framework density 24.114622000000001
#
# number of rings (size 3 to 8) (size 9 to 14) (size 15 to 20)
#    0.000    1.333    5.000    6.000    0.000    0.000 
#    0.000    3.333    3.667    1.000    0.000    1.167 
#    0.000    0.000    0.000    0.000    0.000    0.000 
#
# Total GULP energy -133792.019696 kJ/mol
# GULP energy per Si atom -5574.667487 kJ/mol
# Density = 2.405974 g / cm^3
# Si number density = 24.114622 Si / 1000 Ang^3
#
#
#
# Elastic Constant Matrix: (Units=GPa)
#
#
# Indices 1 2 3 4 5 6 
#
# 1 102.8693 65.7377 59.1519 0.0000 31.1141 0.0000
# 2 65.7377 97.9689 36.3780 0.0000 5.5637 0.0000
# 3 59.1519 36.3780 98.3149 0.0000 31.3975 0.0000
# 4 0.0000 0.0000 0.0000 28.7516 0.0000 7.1170
# 5 31.1141 5.5637 31.3975 0.0000 45.0866 0.0000
# 6 0.0000 0.0000 0.0000 7.1170 0.0000 29.5853
#
#
#
# Elastic Compliance Matrix: (Units=1/GPa)
#
#
# Indices 1 2 3 4 5 6 
#
# 1 0.026519 -0.014604 -0.006794 0.000000 -0.011768 0.000000
# 2 -0.014604 0.020023 -0.001353 0.000000 0.008549 0.000000
# 3 -0.006794 -0.001353 0.016987 0.000000 -0.006974 0.000000
# 4 0.000000 0.000000 0.000000 0.036983 0.000000 -0.008897
# 5 -0.011768 0.008549 -0.006974 0.000000 0.034102 0.000000
# 6 0.000000 0.000000 0.000000 -0.008897 0.000000 0.035941
#
#
# Mechanical properties :
#
#
# Convention : Reuss Voigt Hill
#
# Bulk Modulus (GPa) = 55.46707 69.07650 62.27179
# Shear Modulus (GPa) = 22.51600 29.87706 26.19653
#
# Velocity S-wave (km/s) = 3.05898 3.52371 3.29953
# Velocity P-wave (km/s) = 5.96052 6.72775 6.35572
#
# Compressibility (1/GPa) = 0.01802871
#
# Stress axis : x y z
#
# Youngs Moduli (GPa) = 37.70856 49.94215 58.86967
#
# Poissons Ratio (x) = 0.72933 0.39996
# Poissons Ratio (y) = 0.55068 0.07963
# Poissons Ratio (z) = 0.25619 0.06756
#
# Static dielectric constant tensor:
#      x y z
#    x 2.000970 0.000000 0.044200 
#    y 0.000000 1.995810 0.000000 
#    z 0.044200 0.000000 2.111600 
# 
# From -- ./inp_files/97471.got.cif
#   From: 2010.05.17/outbox.cif.g08.bks.cpg/sg15_49_cif.got.tgz:97471.got - 2010.06.03 18:47:42.
