data_PCOD9274844
_publ_section_title
;
Structure prediction by ZEFSAII (Michael W. Deem and Ramdas Pophale) SiO2 
 PCOD9274844
Probable space group: C 2/C
;
_chemical_formula_sum "Si O2"
_cell_formula_units_Z 48
_cell_length_a 13.742626
_cell_length_b 20.087481
_cell_length_c 11.437467
_cell_angle_alpha 90.000000
_cell_angle_beta 44.320737
_cell_angle_gamma 90.000000
_cell_volume 2205.971057
_symmetry_space_group_name_H-M "C 2/C"
_symmetry_group_IT_number 15
_symmetry_cell_setting 'monoclinic'
loop_
_space_group_symop_operation_xyz
x,y,z
-x,y,1/2-z
-x,-y,-z
x,-y,1/2+z
1/2+x,1/2+y,z
1/2-x,1/2+y,1/2-z
1/2-x,1/2-y,-z
1/2+x,1/2-y,1/2+z
loop_
_atom_site_type_symbol
_atom_site_label
_atom_site_fract_x
_atom_site_fract_y
_atom_site_fract_z
Si Si1 0.339401 0.916858 0.362254
Si Si2 0.521086 0.310537 0.868596
Si Si3 0.950229 0.424066 0.021222
Si Si4 0.662071 0.818602 0.930680
Si Si5 0.999184 0.928411 0.060488
Si Si6 0.223212 0.054374 0.541762
O O1 0.500000 0.936811 0.250000
O O2 0.343245 0.908414 0.219935
O O3 0.317764 0.850950 0.457174
O O4 0.245109 0.976419 0.491653
O O5 0.500000 0.325016 0.750000
O O6 0.686011 0.301148 0.746139
O O7 0.435634 0.245001 0.974142
O O8 0.472252 0.372032 0.988837
O O9 0.868688 0.419680 0.969157
O O10 0.000000 0.500000 0.000000
O O11 0.079867 0.374793 0.927501
O O12 0.149871 0.915323 0.991103
O O13 0.886564 0.934152 0.260071
O O14 0.000000 0.000000 0.000000
#
# Coordination Sequence:
#
# PCOD9274844 Si02
#       6
#     8   8   8   8   8   8
#     4  10  20  38  66 100 141 177 236 287 349 407
#     4  12  28  47  74 103 145 187 240 296 360 421
#     4  11  22  39  72 103 140 182 241 293 347 423
#     4  11  26  46  70 108 139 189 240 294 357 414
#     4  11  27  42  69 101 145 185 233 295 363 424
#     4  11  23  41  68 103 141 181 234 287 354 418
#
# _framework density 21.759125000000001
#
# number of rings (size 3 to 8) (size 9 to 14) (size 15 to 20)
#    0.000    1.000    3.333    4.000   11.667    0.000 
#    0.000    0.833    0.000    0.000    0.000    0.000 
#    0.000    0.000    0.000    0.000    0.000    0.000 
#
# Total GULP energy -134281.421044 kJ/mol
# GULP energy per Si atom -5595.059210 kJ/mol
# Density = 2.170960 g / cm^3
# Si number density = 21.759125 Si / 1000 Ang^3
#
#
#
# Elastic Constant Matrix: (Units=GPa)
#
#
# Indices 1 2 3 4 5 6 
#
# 1 123.6385 26.8031 23.1456 -0.0001 -15.9880 0.0001
# 2 26.8031 127.9220 57.8875 0.0000 -14.8056 0.0000
# 3 23.1456 57.8875 106.1952 0.0000 -26.9187 0.0001
# 4 -0.0001 0.0000 0.0000 39.5359 0.0001 -3.5423
# 5 -15.9880 -14.8056 -26.9187 0.0001 28.2125 -0.0001
# 6 0.0001 0.0000 0.0001 -3.5423 -0.0001 31.7613
#
#
#
# Elastic Compliance Matrix: (Units=1/GPa)
#
#
# Indices 1 2 3 4 5 6 
#
# 1 0.008950 -0.001312 -0.000164 0.000000 0.004227 0.000000
# 2 -0.001312 0.010569 -0.005616 0.000000 -0.000555 0.000000
# 3 -0.000164 -0.005616 0.015489 0.000000 0.011739 0.000000
# 4 0.000000 0.000000 0.000000 0.025549 0.000000 0.002849
# 5 0.004227 -0.000555 0.011739 0.000000 0.048750 0.000000
# 6 0.000000 0.000000 0.000000 0.002849 0.000000 0.031803
#
#
# Mechanical properties :
#
#
# Convention : Reuss Voigt Hill
#
# Bulk Modulus (GPa) = 48.02114 63.71423 55.86769
# Shear Modulus (GPa) = 30.81944 36.56322 33.69133
#
# Velocity S-wave (km/s) = 3.76758 4.10367 3.93921
# Velocity P-wave (km/s) = 6.40652 7.19713 6.81330
#
# Compressibility (1/GPa) = 0.02082416
#
# Stress axis : x y z
#
# Youngs Moduli (GPa) = 111.73467 94.61354 64.56011
#
# Poissons Ratio (x) = 0.12411 0.01060
# Poissons Ratio (y) = 0.14656 0.36259
# Poissons Ratio (z) = 0.01835 0.53138
#
# Static dielectric constant tensor:
#      x y z
#    x 1.838120 0.000000 -0.046690 
#    y 0.000000 1.737570 0.000000 
#    z -0.046690 0.000000 1.811650 
# 
# From -- ./inp_files/99984.got.cif
#   From: 2010.05.17/outbox.cif.g08.bks.cpg/sg15_50_cif.got.tgz:99984.got - 2010.06.03 18:47:42.
