data_PCOD9274125
_publ_section_title
;
Structure prediction by ZEFSAII (Michael W. Deem and Ramdas Pophale) SiO2 
 PCOD9274125
Probable space group: C 2/C
;
_chemical_formula_sum "Si O2"
_cell_formula_units_Z 48
_cell_length_a 14.200265
_cell_length_b 14.624063
_cell_length_c 12.229394
_cell_angle_alpha 90.000000
_cell_angle_beta 73.689507
_cell_angle_gamma 90.000000
_cell_volume 2437.414048
_symmetry_space_group_name_H-M "C 2/C"
_symmetry_group_IT_number 15
_symmetry_cell_setting 'monoclinic'
loop_
_space_group_symop_operation_xyz
x,y,z
-x,y,1/2-z
-x,-y,-z
x,-y,1/2+z
1/2+x,1/2+y,z
1/2-x,1/2+y,1/2-z
1/2-x,1/2-y,-z
1/2+x,1/2-y,1/2+z
loop_
_atom_site_type_symbol
_atom_site_label
_atom_site_fract_x
_atom_site_fract_y
_atom_site_fract_z
Si Si1 0.341021 0.133021 0.642256
Si Si2 0.345233 0.969420 0.773120
Si Si3 0.861341 0.914636 0.383332
Si Si4 0.487210 0.889610 0.910820
Si Si5 0.500000 0.570883 0.250000
Si Si6 0.000000 0.223638 0.750000
Si Si7 0.151133 0.150882 0.367810
O O1 0.254031 0.084940 0.601364
O O2 0.443458 0.117654 0.545146
O O3 0.322855 0.241760 0.648921
O O4 0.337445 0.077973 0.757137
O O5 0.409507 0.942137 0.857582
O O6 0.408161 0.934326 0.647950
O O7 0.243743 0.914544 0.810498
O O8 0.906310 0.841352 0.283693
O O9 0.877855 0.876972 0.499492
O O10 0.922084 0.006178 0.339545
O O11 0.494880 0.789092 0.855707
O O12 0.562810 0.629090 0.314718
#
# Coordination Sequence:
#
# PCOD9274125 Si02
#       7
#     8   8   8   8   4   4   8
#     4  12  21  38  68  91 123 171 214 260 320 378
#     4  10  22  37  60  93 127 156 212 270 315 365
#     4  11  21  39  65  90 120 171 215 262 305 386
#     4  10  20  38  61  92 124 158 209 268 304 383
#     4  11  26  42  61  92 140 164 205 268 341 360
#     4   9  18  34  59  96 110 146 219 258 289 348
#     4  12  23  42  64  94 127 169 217 262 318 389
#
# _framework density 19.693003000000001
#
# number of rings (size 3 to 8) (size 9 to 14) (size 15 to 20)
#    0.000    1.333    5.000    3.500    0.000    1.333 
#    0.000    0.000    0.000    3.000    0.000    0.000 
#    0.000    0.000    0.000    0.000    0.000    0.000 
#
# Total GULP energy -133913.236135 kJ/mol
# GULP energy per Si atom -5579.718172 kJ/mol
# Density = 1.964818 g / cm^3
# Si number density = 19.693003 Si / 1000 Ang^3
#
#
#
# Elastic Constant Matrix: (Units=GPa)
#
#
# Indices 1 2 3 4 5 6 
#
# 1 80.9688 10.8592 28.0231 0.0000 3.3640 0.0000
# 2 10.8592 60.4242 37.0850 0.0000 -4.4085 0.0000
# 3 28.0231 37.0850 69.5144 0.0000 -9.7482 0.0000
# 4 0.0000 0.0000 0.0000 1.6884 0.0000 -6.6399
# 5 3.3640 -4.4085 -9.7482 0.0000 29.9060 0.0000
# 6 0.0000 0.0000 0.0000 -6.6399 0.0000 13.4847
#
#
#
# Elastic Compliance Matrix: (Units=1/GPa)
#
#
# Indices 1 2 3 4 5 6 
#
# 1 0.014847 0.001569 -0.007361 0.000000 -0.003838 0.000000
# 2 0.001569 0.024786 -0.014008 0.000000 -0.001089 0.000000
# 3 -0.007361 -0.014008 0.025833 0.000000 0.007184 0.000000
# 4 0.000000 0.000000 0.000000 -0.632462 0.000000 -0.311427
# 5 -0.003838 -0.001089 0.007184 0.000000 0.036051 0.000000
# 6 0.000000 0.000000 0.000000 -0.311427 0.000000 -0.079189
#
#
# Mechanical properties :
#
#
# Convention : Reuss Voigt Hill
#
# Bulk Modulus (GPa) = 38.65940 40.31579 39.48760
# Shear Modulus (GPa) = -8.89817 18.01180 4.55682
#
# Velocity S-wave (km/s) = -2.12797 3.02757 1.52281
# Velocity P-wave (km/s) = 3.69269 5.72172 4.81529
#
# Compressibility (1/GPa) = 0.02586693
#
# Stress axis : x y z
#
# Youngs Moduli (GPa) = 67.35409 40.34602 38.70974
#
# Poissons Ratio (x) = -0.06331 0.28493
# Poissons Ratio (y) = -0.10570 0.54225
# Poissons Ratio (z) = 0.49577 0.56517
#
# Static dielectric constant tensor:
#      x y z
#    x 1.701800 0.000000 -0.004370 
#    y 0.000000 1.726240 0.000000 
#    z -0.004370 0.000000 1.728170 
# 
# From -- ./inp_files/96226.got.cif
#   From: 2010.05.17/outbox.cif.g08.bks.cpg/sg15_49_cif.got.tgz:96226.got - 2010.06.03 18:47:42.
