data_PCOD9274801
_publ_section_title
;
Structure prediction by ZEFSAII (Michael W. Deem and Ramdas Pophale) SiO2 
 PCOD9274801
Probable space group: C 2/C
;
_chemical_formula_sum "Si O2"
_cell_formula_units_Z 56
_cell_length_a 21.071930
_cell_length_b 17.062377
_cell_length_c 23.795831
_cell_angle_alpha 90.000000
_cell_angle_beta 17.599035
_cell_angle_gamma 90.000000
_cell_volume 2586.784252
_symmetry_space_group_name_H-M "C 2/C"
_symmetry_group_IT_number 15
_symmetry_cell_setting 'monoclinic'
loop_
_space_group_symop_operation_xyz
x,y,z
-x,y,1/2-z
-x,-y,-z
x,-y,1/2+z
1/2+x,1/2+y,z
1/2-x,1/2+y,1/2-z
1/2-x,1/2-y,-z
1/2+x,1/2-y,1/2+z
loop_
_atom_site_type_symbol
_atom_site_label
_atom_site_fract_x
_atom_site_fract_y
_atom_site_fract_z
Si Si1 0.358288 0.403682 0.225575
Si Si2 0.105027 0.804731 0.543601
Si Si3 0.859772 0.916969 0.694698
Si Si4 0.522729 0.191833 0.942855
Si Si5 0.168615 0.325375 0.494721
Si Si6 0.000000 0.692437 0.250000
Si Si7 0.691130 0.336163 0.871872
Si Si8 0.000000 0.791929 0.750000
O O1 0.348240 0.496458 0.227276
O O2 0.277560 0.377538 0.354979
O O3 0.206923 0.366778 0.305279
O O4 0.583922 0.368036 0.018692
O O5 0.987197 0.732537 0.610124
O O6 0.320516 0.765984 0.379588
O O7 0.082554 0.876641 0.520423
O O8 0.036788 0.838551 0.661981
O O9 0.816455 0.908394 0.665411
O O10 0.688670 0.857804 0.867286
O O11 0.561419 0.265028 0.952801
O O12 0.113697 0.354839 0.604122
O O13 0.323693 0.252157 0.373885
O O14 0.932214 0.309014 0.672350
#
# Coordination Sequence:
#
# PCOD9274801 Si02
#       8
#     8   8   8   8   8   4   8   4
#     4  12  26  41  70 102 143 175 216 283 365 407
#     4  10  21  39  66  96 125 171 230 271 324 399
#     4  11  23  44  64 103 140 175 212 286 356 411
#     4  11  22  39  67 101 133 170 218 282 341 404
#     4  11  25  43  70  97 134 173 231 283 335 402
#     4  10  26  46  69  99 128 178 238 290 320 390
#     4  11  24  42  70 105 133 176 228 279 341 416
#     4  10  20  38  65  93 118 174 228 280 302 378
#
# _framework density 21.648502000000001
#
# number of rings (size 3 to 8) (size 9 to 14) (size 15 to 20)
#    0.000    1.143    2.857    3.429   10.000    0.000 
#    0.000    0.714    3.143    0.857    0.000    0.000 
#    0.000    0.000    0.000    0.000    0.000    0.000 
#
# Total GULP energy -156085.627228 kJ/mol
# GULP energy per Si atom -5574.486687 kJ/mol
# Density = 2.159923 g / cm^3
# Si number density = 21.648502 Si / 1000 Ang^3
#
#
#
# Elastic Constant Matrix: (Units=GPa)
#
#
# Indices 1 2 3 4 5 6 
#
# 1 131.3884 50.6733 46.1465 -0.2348 14.9135 0.0775
# 2 50.6733 117.4207 38.9952 -0.1595 -1.7163 0.0361
# 3 46.1465 38.9952 84.2402 -0.3801 4.8686 0.1571
# 4 -0.2348 -0.1595 -0.3801 34.5925 0.0875 8.7124
# 5 14.9135 -1.7163 4.8686 0.0875 49.7497 -0.0344
# 6 0.0775 0.0361 0.1571 8.7124 -0.0344 16.3876
#
#
#
# Elastic Compliance Matrix: (Units=1/GPa)
#
#
# Indices 1 2 3 4 5 6 
#
# 1 0.010660 -0.003260 -0.004162 0.000025 -0.002901 -0.000023
# 2 -0.003260 0.011093 -0.003447 -0.000023 0.001697 0.000040
# 3 -0.004162 -0.003447 0.015772 0.000187 -0.000415 -0.000224
# 4 0.000025 -0.000023 0.000187 0.033381 -0.000097 -0.017749
# 5 -0.002901 0.001697 -0.000415 -0.000097 0.021070 0.000110
# 6 -0.000023 0.000040 -0.000224 -0.017749 0.000110 0.070460
#
#
# Mechanical properties :
#
#
# Convention : Reuss Voigt Hill
#
# Bulk Modulus (GPa) = 63.35226 67.18660 65.26943
# Shear Modulus (GPa) = 26.39408 33.29490 29.84449
#
# Velocity S-wave (km/s) = 3.49551 3.92596 3.71697
# Velocity P-wave (km/s) = 6.75418 7.18704 6.97397
#
# Compressibility (1/GPa) = 0.01578476
#
# Stress axis : x y z
#
# Youngs Moduli (GPa) = 93.81202 90.14706 63.40369
#
# Poissons Ratio (x) = 0.29390 0.26391
# Poissons Ratio (y) = 0.30585 0.21857
# Poissons Ratio (z) = 0.39048 0.31077
#
# Static dielectric constant tensor:
#      x y z
#    x 1.862570 0.000010 0.012170 
#    y 0.000010 1.749780 0.000070 
#    z 0.012170 0.000070 1.925200 
# 
# From -- ./inp_files/280431.got.cif
#   From: 2010.05.17/outbox.cif.g08.bks.cpg/sg15_141_cif.got.tgz:280431.got - 2010.06.03 18:47:42.
