data_PCOD9274196
_publ_section_title
;
Structure prediction by ZEFSAII (Michael W. Deem and Ramdas Pophale) SiO2 
 PCOD9274196
Probable space group: C 2/C
;
_chemical_formula_sum "Si O2"
_cell_formula_units_Z 48
_cell_length_a 15.530170
_cell_length_b 20.302855
_cell_length_c 8.185832
_cell_angle_alpha 90.000000
_cell_angle_beta 59.763615
_cell_angle_gamma 90.000000
_cell_volume 2229.910170
_symmetry_space_group_name_H-M "C 2/C"
_symmetry_group_IT_number 15
_symmetry_cell_setting 'monoclinic'
loop_
_space_group_symop_operation_xyz
x,y,z
-x,y,1/2-z
-x,-y,-z
x,-y,1/2+z
1/2+x,1/2+y,z
1/2-x,1/2+y,1/2-z
1/2-x,1/2-y,-z
1/2+x,1/2-y,1/2+z
loop_
_atom_site_type_symbol
_atom_site_label
_atom_site_fract_x
_atom_site_fract_y
_atom_site_fract_z
Si Si1 0.918328 0.113085 0.442643
Si Si2 0.777655 0.805126 0.839313
Si Si3 0.541903 0.121889 0.027401
Si Si4 0.536629 0.273318 0.028490
Si Si5 0.854510 0.579255 0.052235
Si Si6 0.775811 0.551390 0.766506
O O1 0.846714 0.146953 0.379483
O O2 0.840934 0.070096 0.621543
O O3 0.000000 0.077032 0.250000
O O4 0.972277 0.172132 0.490997
O O5 0.846515 0.785800 0.620908
O O6 0.683730 0.847261 0.871939
O O7 0.750000 0.750000 0.000000
O O8 0.500000 0.117438 0.250000
O O9 0.529062 0.197158 0.980461
O O10 0.470456 0.077088 0.984039
O O11 0.655453 0.096760 0.915428
O O12 0.500000 0.277042 0.250000
O O13 0.794409 0.524345 0.208456
O O14 0.825842 0.565823 0.893563
#
# Coordination Sequence:
#
# PCOD9274196 Si02
#       6
#     8   8   8   8   8   8
#     4   9  20  39  60  84 116 157 201 243 296 363
#     4  10  20  38  62  86 115 158 204 244 298 364
#     4  11  23  38  58  87 122 158 197 246 301 357
#     4  10  21  36  59  91 120 151 200 258 305 343
#     4  11  23  39  60  87 118 159 201 243 295 359
#     4  11  23  40  60  85 118 157 196 244 300 358
#
# _framework density 21.525531000000001
#
# number of rings (size 3 to 8) (size 9 to 14) (size 15 to 20)
#    0.000    1.667    0.000    5.000    0.000    5.333 
#    0.000   12.500    0.000    0.000    0.000    0.000 
#    0.000    0.000    0.000    0.000    0.000    0.000 
#
# Total GULP energy -133888.539500 kJ/mol
# GULP energy per Si atom -5578.689146 kJ/mol
# Density = 2.147654 g / cm^3
# Si number density = 21.525531 Si / 1000 Ang^3
#
#
#
# Elastic Constant Matrix: (Units=GPa)
#
#
# Indices 1 2 3 4 5 6 
#
# 1 47.0079 18.5824 22.2370 0.0000 -25.8311 0.0000
# 2 18.5824 94.5489 46.9429 0.0000 -25.0438 0.0000
# 3 22.2370 46.9429 133.0310 0.0000 -39.3745 0.0000
# 4 0.0000 0.0000 0.0000 37.0773 0.0000 -10.7428
# 5 -25.8311 -25.0438 -39.3745 0.0000 37.8880 0.0000
# 6 0.0000 0.0000 0.0000 -10.7428 0.0000 30.7758
#
#
#
# Elastic Compliance Matrix: (Units=1/GPa)
#
#
# Indices 1 2 3 4 5 6 
#
# 1 0.034391 -0.001199 0.001993 0.000000 0.024725 0.000000
# 2 -0.001199 0.013695 -0.003170 0.000000 0.004940 0.000000
# 3 0.001993 -0.003170 0.011676 0.000000 0.011397 0.000000
# 4 0.000000 0.000000 0.000000 0.030005 0.000000 0.010474
# 5 0.024725 0.004940 0.011397 0.000000 0.058360 0.000000
# 6 0.000000 0.000000 0.000000 0.010474 0.000000 0.036149
#
#
# Mechanical properties :
#
#
# Convention : Reuss Voigt Hill
#
# Bulk Modulus (GPa) = 18.17903 50.01249 34.09576
# Shear Modulus (GPa) = 24.11202 33.60325 28.85764
#
# Velocity S-wave (km/s) = 3.35051 3.95535 3.66542
# Velocity P-wave (km/s) = 4.84061 6.64411 5.81273
#
# Compressibility (1/GPa) = 0.05500842
#
# Stress axis : x y z
#
# Youngs Moduli (GPa) = 29.07734 73.02163 85.64693
#
# Poissons Ratio (x) = 0.08758 -0.17066
# Poissons Ratio (y) = 0.03488 0.27148
# Poissons Ratio (z) = -0.05794 0.23146
#
# Static dielectric constant tensor:
#      x y z
#    x 1.777280 0.000000 -0.041820 
#    y 0.000000 1.835750 0.000000 
#    z -0.041820 0.000000 1.870990 
# 
# From -- ./inp_files/50062.got.cif
#   From: 2010.05.17/outbox.cif.g08.bks.cpg/sg15_26_cif.got.tgz:50062.got - 2010.06.03 18:47:42.
