data_PCOD9274005
_publ_section_title
;
Structure prediction by ZEFSAII (Michael W. Deem and Ramdas Pophale) SiO2 
 PCOD9274005
Probable space group: C 2/C
;
_chemical_formula_sum "Si O2"
_cell_formula_units_Z 56
_cell_length_a 17.645096
_cell_length_b 14.964814
_cell_length_c 19.634522
_cell_angle_alpha 90.000000
_cell_angle_beta 148.884111
_cell_angle_gamma 90.000000
_cell_volume 2679.252338
_symmetry_space_group_name_H-M "C 2/C"
_symmetry_group_IT_number 15
_symmetry_cell_setting 'monoclinic'
loop_
_space_group_symop_operation_xyz
x,y,z
-x,y,1/2-z
-x,-y,-z
x,-y,1/2+z
1/2+x,1/2+y,z
1/2-x,1/2+y,1/2-z
1/2-x,1/2-y,-z
1/2+x,1/2-y,1/2+z
loop_
_atom_site_type_symbol
_atom_site_label
_atom_site_fract_x
_atom_site_fract_y
_atom_site_fract_z
Si Si1 0.373050 0.400089 0.797524
Si Si2 0.669856 0.259085 0.366856
Si Si3 0.667733 0.198166 0.739792
Si Si4 0.109432 0.687084 0.895478
Si Si5 0.795944 0.077238 0.959265
Si Si6 0.820441 0.899506 0.235186
Si Si7 0.637103 0.610356 0.048929
O O1 0.299808 0.304017 0.728467
O O2 0.298282 0.493478 0.719263
O O3 0.394352 0.403253 0.895683
O O4 0.536588 0.401833 0.891342
O O5 0.500000 0.239147 0.250000
O O6 0.750000 0.250000 0.500000
O O7 0.684623 0.355836 0.343019
O O8 0.751931 0.190761 0.379486
O O9 0.493029 0.188668 0.617990
O O10 0.748996 0.143966 0.862249
O O11 0.713355 0.152814 0.704293
O O12 0.180026 0.592102 0.930243
O O13 0.000000 0.713332 0.750000
O O14 0.250000 0.750000 0.000000
O O15 0.792008 0.978895 0.926430
O O16 0.982925 0.879566 0.390978
#
# Coordination Sequence:
#
# PCOD9274005 Si02
#       7
#     8   8   8   8   8   8   8
#     4  11  20  37  69  99 134 181 230 284 352 416
#     4  12  26  45  70 100 138 184 235 293 355 414
#     4  11  20  35  65  97 134 174 229 281 341 414
#     4  10  21  36  58  93 135 172 214 269 338 404
#     4  10  20  38  60  97 131 173 229 271 341 419
#     4  11  22  41  67 100 135 179 241 283 349 427
#     4  11  21  40  72  97 132 179 233 290 349 419
#
# _framework density 20.901353
#
# number of rings (size 3 to 8) (size 9 to 14) (size 15 to 20)
#    0.000    1.143    7.143    0.857    0.000    1.714 
#    0.000    5.000    3.143    2.571    0.000    0.000 
#    0.000    0.000    0.000    0.000    0.000    0.000 
#
# Total GULP energy -156406.517859 kJ/mol
# GULP energy per Si atom -5585.947066 kJ/mol
# Density = 2.085378 g / cm^3
# Si number density = 20.901353 Si / 1000 Ang^3
#
#
#
# Elastic Constant Matrix: (Units=GPa)
#
#
# Indices 1 2 3 4 5 6 
#
# 1 102.9621 49.9560 41.2192 0.0004 20.3995 0.0000
# 2 49.9560 138.5321 33.6320 0.0004 11.8334 0.0001
# 3 41.2192 33.6320 75.5773 0.0008 10.2660 0.0002
# 4 0.0004 0.0004 0.0008 28.8655 0.0005 0.3809
# 5 20.3995 11.8334 10.2660 0.0005 34.2834 0.0001
# 6 0.0000 0.0001 0.0002 0.3809 0.0001 34.8086
#
#
#
# Elastic Compliance Matrix: (Units=1/GPa)
#
#
# Indices 1 2 3 4 5 6 
#
# 1 0.014873 -0.003457 -0.005768 0.000000 -0.005930 0.000000
# 2 -0.003457 0.009003 -0.002062 0.000000 -0.000433 0.000000
# 3 -0.005768 -0.002062 0.017442 0.000000 -0.001079 0.000000
# 4 0.000000 0.000000 0.000000 0.034648 -0.000001 -0.000379
# 5 -0.005930 -0.000433 -0.001079 -0.000001 0.033170 0.000000
# 6 0.000000 0.000000 0.000000 -0.000379 0.000000 0.028733
#
#
# Mechanical properties :
#
#
# Convention : Reuss Voigt Hill
#
# Bulk Modulus (GPa) = 53.35098 62.96510 58.15804
# Shear Modulus (GPa) = 29.99574 32.40911 31.20242
#
# Velocity S-wave (km/s) = 3.79239 3.94201 3.86792
# Velocity P-wave (km/s) = 6.69006 7.13509 6.91615
#
# Compressibility (1/GPa) = 0.01874380
#
# Stress axis : x y z
#
# Youngs Moduli (GPa) = 67.23379 111.07813 57.33413
#
# Poissons Ratio (x) = 0.38396 0.33071
# Poissons Ratio (y) = 0.23240 0.11823
# Poissons Ratio (z) = 0.38782 0.22906
#
# Static dielectric constant tensor:
#      x y z
#    x 1.681860 0.000000 -0.121380 
#    y 0.000000 1.778880 0.000000 
#    z -0.121380 0.000000 1.633870 
# 
# From -- ./inp_files/249214.got.cif
#   From: 2010.05.17/outbox.cif.g08.bks.cpg/sg15_125_cif.got.tgz:249214.got - 2010.06.03 18:47:42.
