data_PCOD9274281
_publ_section_title
;
Structure prediction by ZEFSAII (Michael W. Deem and Ramdas Pophale) SiO2 
 PCOD9274281
Probable space group: C 2/C
;
_chemical_formula_sum "Si O2"
_cell_formula_units_Z 60
_cell_length_a 12.124930
_cell_length_b 15.034072
_cell_length_c 17.566390
_cell_angle_alpha 90.000000
_cell_angle_beta 110.018687
_cell_angle_gamma 90.000000
_cell_volume 3008.656605
_symmetry_space_group_name_H-M "C 2/C"
_symmetry_group_IT_number 15
_symmetry_cell_setting 'monoclinic'
loop_
_space_group_symop_operation_xyz
x,y,z
-x,y,1/2-z
-x,-y,-z
x,-y,1/2+z
1/2+x,1/2+y,z
1/2-x,1/2+y,1/2-z
1/2-x,1/2-y,-z
1/2+x,1/2-y,1/2+z
loop_
_atom_site_type_symbol
_atom_site_label
_atom_site_fract_x
_atom_site_fract_y
_atom_site_fract_z
Si Si1 0.061900 0.149198 0.059626
Si Si2 0.820897 0.331942 0.417166
Si Si3 0.065480 0.046848 0.341229
Si Si4 0.306511 0.989170 0.823624
Si Si5 0.697905 0.059336 0.346087
Si Si6 0.456043 0.657204 0.619712
Si Si7 0.041017 0.444192 0.936843
Si Si8 0.000000 0.702376 0.250000
O O1 0.112862 0.244921 0.095403
O O2 0.178557 0.088310 0.089911
O O3 0.969947 0.106450 0.095727
O O4 0.016247 0.157148 0.962979
O O5 0.831696 0.411570 0.359175
O O6 0.683195 0.320432 0.402528
O O7 0.885386 0.363670 0.510103
O O8 0.201676 0.045313 0.351468
O O9 0.000000 0.079009 0.250000
O O10 0.029174 0.944129 0.347937
O O11 0.278333 0.989143 0.727874
O O12 0.420170 0.928061 0.864478
O O13 0.625493 0.009424 0.395103
O O14 0.610058 0.141199 0.302435
O O15 0.525183 0.728791 0.686614
O O16 0.000000 0.500000 0.000000
#
# Coordination Sequence:
#
# PCOD9274281 Si02
#       8
#     8   8   8   8   8   8   8   4
#     4  12  23  39  63  93 124 162 214 255 321 383
#     4  10  21  38  63  91 119 166 206 264 312 371
#     4  11  23  41  59  87 131 170 199 258 326 386
#     4  10  22  39  63  86 127 168 211 250 319 380
#     4  12  21  36  65  94 117 162 209 260 312 376
#     4  11  22  39  63  93 122 155 215 270 317 367
#     4  10  20  38  62  90 121 156 209 264 309 371
#     4  12  22  34  66  96 116 150 216 280 306 360
#
# _framework density 19.942454999999999
#
# number of rings (size 3 to 8) (size 9 to 14) (size 15 to 20)
#    0.000    1.067    6.000    1.600    0.000    0.000 
#    0.000    3.333    0.000    0.000    0.000    0.000 
#    0.000    0.000    0.000    0.000    0.000    0.000 
#
# Total GULP energy -167471.505556 kJ/mol
# GULP energy per Si atom -5582.383519 kJ/mol
# Density = 1.989707 g / cm^3
# Si number density = 19.942455 Si / 1000 Ang^3
#
#
#
# Elastic Constant Matrix: (Units=GPa)
#
#
# Indices 1 2 3 4 5 6 
#
# 1 92.8378 23.1871 20.6390 0.0000 -30.8210 0.0000
# 2 23.1871 50.4934 19.1832 0.0000 -26.5198 0.0000
# 3 20.6390 19.1832 99.7459 0.0000 -33.3189 0.0000
# 4 0.0000 0.0000 0.0000 31.8077 0.0000 -2.0255
# 5 -30.8210 -26.5198 -33.3189 0.0000 37.3765 0.0000
# 6 0.0000 0.0000 0.0000 -2.0255 0.0000 24.9152
#
#
#
# Elastic Compliance Matrix: (Units=1/GPa)
#
#
# Indices 1 2 3 4 5 6 
#
# 1 0.014986 -0.000422 0.001436 0.000000 0.013338 0.000000
# 2 -0.000422 0.031866 0.001987 0.000000 0.024033 0.000000
# 3 0.001436 0.001987 0.014543 0.000000 0.015558 0.000000
# 4 0.000000 0.000000 0.000000 0.031603 0.000000 0.002569
# 5 0.013338 0.024033 0.015558 0.000000 0.068675 0.000000
# 6 0.000000 0.000000 0.000000 0.002569 0.000000 0.040345
#
#
# Mechanical properties :
#
#
# Convention : Reuss Voigt Hill
#
# Bulk Modulus (GPa) = 14.83757 41.01061 27.92409
# Shear Modulus (GPa) = 22.88525 30.82440 26.85483
#
# Velocity S-wave (km/s) = 3.39125 3.93576 3.67361
# Velocity P-wave (km/s) = 4.77393 6.42361 5.65920
#
# Compressibility (1/GPa) = 0.06739650
#
# Stress axis : x y z
#
# Youngs Moduli (GPa) = 66.73039 31.38139 68.76020
#
# Poissons Ratio (x) = 0.01324 -0.09872
# Poissons Ratio (y) = 0.02814 -0.13661
# Poissons Ratio (z) = -0.09581 -0.06235
#
# Static dielectric constant tensor:
#      x y z
#    x 1.724520 0.000000 0.000300 
#    y 0.000000 1.719750 0.000000 
#    z 0.000300 0.000000 1.763360 
# 
# From -- ./inp_files/198404.got.cif
#   From: 2010.05.17/outbox.cif.g08.bks.cpg/sg15_100_cif.got.tgz:198404.got - 2010.06.03 18:47:42.
