data_PCOD9274409
_publ_section_title
;
Structure prediction by ZEFSAII (Michael W. Deem and Ramdas Pophale) SiO2 
 PCOD9274409
Probable space group: C 2/C
;
_chemical_formula_sum "Si O2"
_cell_formula_units_Z 60
_cell_length_a 14.827892
_cell_length_b 11.285806
_cell_length_c 22.422490
_cell_angle_alpha 90.000000
_cell_angle_beta 131.707705
_cell_angle_gamma 90.000000
_cell_volume 2801.263659
_symmetry_space_group_name_H-M "C 2/C"
_symmetry_group_IT_number 15
_symmetry_cell_setting 'monoclinic'
loop_
_space_group_symop_operation_xyz
x,y,z
-x,y,1/2-z
-x,-y,-z
x,-y,1/2+z
1/2+x,1/2+y,z
1/2-x,1/2+y,1/2-z
1/2-x,1/2-y,-z
1/2+x,1/2-y,1/2+z
loop_
_atom_site_type_symbol
_atom_site_label
_atom_site_fract_x
_atom_site_fract_y
_atom_site_fract_z
Si Si1 0.945256 0.939324 0.835736
Si Si2 0.405973 0.797165 0.633726
Si Si3 0.360658 0.765502 0.093442
Si Si4 0.485297 0.326854 0.062924
Si Si5 0.317448 0.597430 0.391802
Si Si6 0.000000 0.079685 0.750000
Si Si7 0.253866 0.339430 0.339149
Si Si8 0.532853 0.038643 0.695337
O O1 0.041523 0.836705 0.870360
O O2 0.835098 0.891722 0.828185
O O3 0.004693 0.043976 0.901810
O O4 0.922381 0.998142 0.761039
O O5 0.396737 0.758287 0.560959
O O6 0.296606 0.850706 0.623442
O O7 0.432414 0.673101 0.678012
O O8 0.511573 0.898081 0.679997
O O9 0.313190 0.763628 0.140694
O O10 0.432264 0.889145 0.114782
O O11 0.250000 0.750000 0.000000
O O12 0.622790 0.280316 0.128410
O O13 0.433910 0.346592 0.974673
O O14 0.302867 0.456749 0.395073
O O15 0.162824 0.395276 0.249790
O O16 0.500000 0.060512 0.750000
#
# Coordination Sequence:
#
# PCOD9274409 Si02
#       8
#     8   8   8   8   8   4   8   8
#     4  10  23  37  62  91 129 157 208 265 321 377
#     4  11  20  40  65  91 132 164 216 263 317 378
#     4  11  21  38  64  92 125 162 212 268 317 377
#     4  10  22  38  64  95 126 167 217 258 321 378
#     4  11  19  40  65  94 121 172 214 258 313 394
#     4  10  22  42  54  92 128 162 202 272 324 368
#     4  10  20  39  63  88 123 168 218 260 316 388
#     4  10  20  38  63  87 120 175 213 258 319 383
#
# _framework density 21.418904000000001
#
# number of rings (size 3 to 8) (size 9 to 14) (size 15 to 20)
#    0.000    1.600    3.333    3.600    2.800    0.000 
#   12.000    0.000    2.933    1.600    0.000    0.000 
#    0.000    0.000    0.000    0.000    0.000    0.000 
#
# Total GULP energy -167104.904837 kJ/mol
# GULP energy per Si atom -5570.163495 kJ/mol
# Density = 2.137015 g / cm^3
# Si number density = 21.418904 Si / 1000 Ang^3
#
#
#
# Elastic Constant Matrix: (Units=GPa)
#
#
# Indices 1 2 3 4 5 6 
#
# 1 134.1441 47.8254 21.6827 0.0000 3.7380 0.0000
# 2 47.8254 52.0556 20.8903 0.0000 -4.6462 0.0000
# 3 21.6827 20.8903 79.0273 0.0000 5.0806 0.0000
# 4 0.0000 0.0000 0.0000 24.9075 0.0000 -2.2709
# 5 3.7380 -4.6462 5.0806 0.0000 31.4974 0.0000
# 6 0.0000 0.0000 0.0000 -2.2709 0.0000 44.7688
#
#
#
# Elastic Compliance Matrix: (Units=1/GPa)
#
#
# Indices 1 2 3 4 5 6 
#
# 1 0.011346 -0.010636 -0.000115 0.000000 -0.002897 0.000000
# 2 -0.010636 0.032006 -0.005989 0.000000 0.006950 0.000000
# 3 -0.000115 -0.005989 0.014475 0.000000 -0.003205 0.000000
# 4 0.000000 0.000000 0.000000 0.040335 0.000000 0.002046
# 5 -0.002897 0.006950 -0.003205 0.000000 0.033635 0.000000
# 6 0.000000 0.000000 0.000000 0.002046 0.000000 0.022441
#
#
# Mechanical properties :
#
#
# Convention : Reuss Voigt Hill
#
# Bulk Modulus (GPa) = 41.07523 49.55819 45.31671
# Shear Modulus (GPa) = 25.53188 31.88998 28.71093
#
# Velocity S-wave (km/s) = 3.45632 3.86278 3.66519
# Velocity P-wave (km/s) = 5.92848 6.56373 6.25418
#
# Compressibility (1/GPa) = 0.02434558
#
# Stress axis : x y z
#
# Youngs Moduli (GPa) = 88.13568 31.24410 69.08653
#
# Poissons Ratio (x) = 0.33233 0.00795
# Poissons Ratio (y) = 0.93745 0.41376
# Poissons Ratio (z) = 0.01015 0.18712
#
# Static dielectric constant tensor:
#      x y z
#    x 1.908820 0.000000 0.034410 
#    y 0.000000 1.792470 0.000000 
#    z 0.034410 0.000000 1.810450 
# 
# From -- ./inp_files/273852.got.cif
#   From: 2010.05.17/outbox.cif.g08.bks.cpg/sg15_137_cif.got.tgz:273852.got - 2010.06.03 18:47:42.
