data_PCOD9274547
_publ_section_title
;
Structure prediction by ZEFSAII (Michael W. Deem and Ramdas Pophale) SiO2 
 PCOD9274547
Probable space group: C 2/C
;
_chemical_formula_sum "Si O2"
_cell_formula_units_Z 52
_cell_length_a 18.573433
_cell_length_b 13.200651
_cell_length_c 11.097375
_cell_angle_alpha 90.000000
_cell_angle_beta 60.010193
_cell_angle_gamma 90.000000
_cell_volume 2356.584540
_symmetry_space_group_name_H-M "C 2/C"
_symmetry_group_IT_number 15
_symmetry_cell_setting 'monoclinic'
loop_
_space_group_symop_operation_xyz
x,y,z
-x,y,1/2-z
-x,-y,-z
x,-y,1/2+z
1/2+x,1/2+y,z
1/2-x,1/2+y,1/2-z
1/2-x,1/2-y,-z
1/2+x,1/2-y,1/2+z
loop_
_atom_site_type_symbol
_atom_site_label
_atom_site_fract_x
_atom_site_fract_y
_atom_site_fract_z
Si Si1 0.899218 0.333136 0.320817
Si Si2 0.000000 0.949497 0.250000
Si Si3 0.199501 0.973818 0.852641
Si Si4 0.062326 0.596662 0.963383
Si Si5 0.203314 0.496729 0.481046
Si Si6 0.100186 0.879460 0.579958
Si Si7 0.038964 0.829525 0.986486
O O1 0.885996 0.384023 0.202530
O O2 0.843280 0.396843 0.457397
O O3 0.874166 0.216961 0.364363
O O4 0.000000 0.342581 0.250000
O O5 0.003386 0.884247 0.366036
O O6 0.919192 0.020261 0.328134
O O7 0.244026 0.987098 0.686169
O O8 0.129855 0.883535 0.903869
O O9 0.253881 0.959142 0.930504
O O10 0.158283 0.082079 0.923959
O O11 0.126734 0.576049 0.014776
O O12 0.027562 0.709294 0.012607
O O13 0.000000 0.500000 0.000000
O O14 0.987052 0.853678 0.910539
#
# Coordination Sequence:
#
# PCOD9274547 Si02
#       7
#     8   4   8   8   8   8   8
#     4  12  23  45  78 105 133 193 258 303 357 445
#     4  10  20  38  64 106 138 174 232 306 368 410
#     4  11  28  44  72 104 156 191 234 306 371 452
#     4  12  25  47  73 105 143 186 253 312 360 438
#     4  12  27  47  69 107 151 196 238 302 381 433
#     4  11  23  43  75 104 140 188 257 297 365 439
#     4  11  25  42  72 105 140 193 248 303 370 433
#
# _framework density 22.065833999999999
#
# number of rings (size 3 to 8) (size 9 to 14) (size 15 to 20)
#    0.000    0.615    5.385    1.846   10.769    3.692 
#    2.769    0.000    0.000    0.000    0.000    0.000 
#    0.000    0.000    0.000    0.000    0.000    0.000 
#
# Total GULP energy -145026.538983 kJ/mol
# GULP energy per Si atom -5577.943807 kJ/mol
# Density = 2.201561 g / cm^3
# Si number density = 22.065834 Si / 1000 Ang^3
#
#
#
# Elastic Constant Matrix: (Units=GPa)
#
#
# Indices 1 2 3 4 5 6 
#
# 1 136.5393 36.0789 15.3559 0.0000 22.2653 0.0000
# 2 36.0789 146.0473 63.1841 0.0000 -0.2679 0.0000
# 3 15.3559 63.1841 150.2923 0.0000 4.5372 0.0000
# 4 0.0000 0.0000 0.0000 44.8054 0.0000 6.6232
# 5 22.2653 -0.2679 4.5372 0.0000 26.9901 0.0000
# 6 0.0000 0.0000 0.0000 6.6232 0.0000 19.1982
#
#
#
# Elastic Compliance Matrix: (Units=1/GPa)
#
#
# Indices 1 2 3 4 5 6 
#
# 1 0.009173 -0.002413 0.000308 0.000000 -0.007643 0.000000
# 2 -0.002413 0.009017 -0.003625 0.000000 0.002690 0.000000
# 3 0.000308 -0.003625 0.008197 0.000000 -0.001668 0.000000
# 4 0.000000 0.000000 0.000000 0.023518 0.000000 -0.008114
# 5 -0.007643 0.002690 -0.001668 0.000000 0.043663 0.000000
# 6 0.000000 0.000000 0.000000 -0.008114 0.000000 0.054887
#
#
# Mechanical properties :
#
#
# Convention : Reuss Voigt Hill
#
# Bulk Modulus (GPa) = 66.99987 73.56849 70.28418
# Shear Modulus (GPa) = 30.32296 39.41606 34.86951
#
# Velocity S-wave (km/s) = 3.71105 4.23104 3.97955
# Velocity P-wave (km/s) = 6.98513 7.56847 7.28264
#
# Compressibility (1/GPa) = 0.01492540
#
# Stress axis : x y z
#
# Youngs Moduli (GPa) = 109.01144 110.90614 122.00071
#
# Poissons Ratio (x) = 0.26767 -0.03759
# Poissons Ratio (y) = 0.26309 0.44229
# Poissons Ratio (z) = -0.03359 0.40207
#
# Static dielectric constant tensor:
#      x y z
#    x 1.907160 0.000000 -0.030040 
#    y 0.000000 1.829010 0.000000 
#    z -0.030040 0.000000 1.902390 
# 
# From -- ./inp_files/117917.got.cif
#   From: 2010.05.17/outbox.cif.g08.bks.cpg/sg15_59_cif.got.tgz:117917.got - 2010.06.03 18:47:42.
