data_PCOD9274417
_publ_section_title
;
Structure prediction by ZEFSAII (Michael W. Deem and Ramdas Pophale) SiO2 
 PCOD9274417
Probable space group: C 2/C
;
_chemical_formula_sum "Si O2"
_cell_formula_units_Z 48
_cell_length_a 22.698529
_cell_length_b 9.191960
_cell_length_c 15.312458
_cell_angle_alpha 90.000000
_cell_angle_beta 140.405257
_cell_angle_gamma 90.000000
_cell_volume 2036.249460
_symmetry_space_group_name_H-M "C 2/C"
_symmetry_group_IT_number 15
_symmetry_cell_setting 'monoclinic'
loop_
_space_group_symop_operation_xyz
x,y,z
-x,y,1/2-z
-x,-y,-z
x,-y,1/2+z
1/2+x,1/2+y,z
1/2-x,1/2+y,1/2-z
1/2-x,1/2-y,-z
1/2+x,1/2-y,1/2+z
loop_
_atom_site_type_symbol
_atom_site_label
_atom_site_fract_x
_atom_site_fract_y
_atom_site_fract_z
Si Si1 0.258960 0.124328 0.437945
Si Si2 0.236166 0.339418 0.274233
Si Si3 0.953121 0.218941 0.609792
Si Si4 0.741629 0.594110 0.064183
Si Si5 0.404446 0.755485 0.849487
Si Si6 0.416527 0.983871 0.006938
O O1 0.250000 0.250000 0.500000
O O2 0.210111 0.188597 0.294452
O O3 0.362954 0.104347 0.520886
O O4 0.233619 0.972767 0.457267
O O5 0.258907 0.454269 0.374712
O O6 0.326507 0.319759 0.319125
O O7 0.157023 0.414403 0.127998
O O8 0.845623 0.187185 0.502650
O O9 0.974459 0.391712 0.620797
O O10 0.000000 0.160858 0.750000
O O11 0.013126 0.160902 0.597007
O O12 0.838221 0.673258 0.198026
O O13 0.448682 0.872161 0.968989
#
# Coordination Sequence:
#
# PCOD9274417 Si02
#       6
#     8   8   8   8   8   8
#     4   9  19  36  62  88 118 158 203 250 306 365
#     4   9  19  38  64  88 115 165 205 253 307 360
#     4  12  25  36  57  93 127 161 203 250 313 366
#     4  10  21  39  60  90 124 163 202 252 312 364
#     4  10  21  39  62  88 120 160 209 259 301 365
#     4  10  20  38  63  88 119 159 212 250 304 364
#
# _framework density 23.572749000000002
#
# number of rings (size 3 to 8) (size 9 to 14) (size 15 to 20)
#    0.000    2.000    1.667    1.500    2.333    2.000 
#    0.000    1.667    0.000   19.000    0.000    0.000 
#    0.000    0.000    0.000    0.000    0.000    0.000 
#
# Total GULP energy -133780.743259 kJ/mol
# GULP energy per Si atom -5574.197636 kJ/mol
# Density = 2.351910 g / cm^3
# Si number density = 23.572749 Si / 1000 Ang^3
#
#
#
# Elastic Constant Matrix: (Units=GPa)
#
#
# Indices 1 2 3 4 5 6 
#
# 1 159.6983 36.6471 41.0636 0.0000 2.0142 0.0000
# 2 36.6471 53.8202 11.6759 0.0000 -6.8492 0.0000
# 3 41.0636 11.6759 43.9516 0.0000 13.1392 0.0000
# 4 0.0000 0.0000 0.0000 19.5895 0.0000 -10.9884
# 5 2.0142 -6.8492 13.1392 0.0000 35.7845 0.0000
# 6 0.0000 0.0000 0.0000 -10.9884 0.0000 53.1096
#
#
#
# Elastic Compliance Matrix: (Units=1/GPa)
#
#
# Indices 1 2 3 4 5 6 
#
# 1 0.009309 -0.004404 -0.007996 0.000000 0.001569 0.000000
# 2 -0.004404 0.023197 -0.003874 0.000000 0.006110 0.000000
# 3 -0.007996 -0.003874 0.035204 0.000000 -0.013217 0.000000
# 4 0.000000 0.000000 0.000000 0.057750 0.000000 0.011948
# 5 0.001569 0.006110 -0.013217 0.000000 0.033879 0.000000
# 6 0.000000 0.000000 0.000000 0.011948 0.000000 0.021301
#
#
# Mechanical properties :
#
#
# Convention : Reuss Voigt Hill
#
# Bulk Modulus (GPa) = 28.44122 48.47147 38.45635
# Shear Modulus (GPa) = 22.23113 32.90228 27.56670
#
# Velocity S-wave (km/s) = 3.07430 3.74006 3.42340
# Velocity P-wave (km/s) = 4.96923 6.26561 5.65470
#
# Compressibility (1/GPa) = 0.03516024
#
# Stress axis : x y z
#
# Youngs Moduli (GPa) = 107.42600 43.10836 28.40615
#
# Poissons Ratio (x) = 0.18985 0.22714
# Poissons Ratio (y) = 0.47311 0.11006
# Poissons Ratio (z) = 0.85900 0.16702
#
# Static dielectric constant tensor:
#      x y z
#    x 1.964250 0.000000 -0.041780 
#    y 0.000000 1.981100 0.000000 
#    z -0.041780 0.000000 1.940760 
# 
# From -- ./inp_files/167902.got.cif
#   From: 2010.05.17/outbox.cif.g08.bks.cpg/sg15_84_cif.got.tgz:167902.got - 2010.06.03 18:47:42.
