data_PCOD9274473
_publ_section_title
;
Structure prediction by ZEFSAII (Michael W. Deem and Ramdas Pophale) SiO2 
 PCOD9274473
Probable space group: C 2/C
;
_chemical_formula_sum "Si O2"
_cell_formula_units_Z 48
_cell_length_a 7.924538
_cell_length_b 13.448214
_cell_length_c 18.627660
_cell_angle_alpha 90.000000
_cell_angle_beta 87.561730
_cell_angle_gamma 90.000000
_cell_volume 1983.368876
_symmetry_space_group_name_H-M "C 2/C"
_symmetry_group_IT_number 15
_symmetry_cell_setting 'monoclinic'
loop_
_space_group_symop_operation_xyz
x,y,z
-x,y,1/2-z
-x,-y,-z
x,-y,1/2+z
1/2+x,1/2+y,z
1/2-x,1/2+y,1/2-z
1/2-x,1/2-y,-z
1/2+x,1/2-y,1/2+z
loop_
_atom_site_type_symbol
_atom_site_label
_atom_site_fract_x
_atom_site_fract_y
_atom_site_fract_z
Si Si1 0.363562 0.782869 0.851640
Si Si2 0.863626 0.930591 0.572768
Si Si3 0.096921 0.734336 0.557712
Si Si4 0.751877 0.783713 0.800841
Si Si5 0.898104 0.002271 0.818425
Si Si6 0.788311 0.396169 0.066930
O O1 0.289378 0.887612 0.877605
O O2 0.558945 0.791930 0.830693
O O3 0.262140 0.750847 0.781467
O O4 0.322040 0.703461 0.914383
O O5 0.789887 0.958458 0.497153
O O6 0.988142 0.836096 0.559778
O O7 0.966559 0.006486 0.619128
O O8 0.250000 0.750000 0.500000
O O9 0.158214 0.720532 0.638882
O O10 0.972080 0.643638 0.542735
O O11 0.845995 0.890263 0.799283
O O12 0.000000 0.048625 0.750000
O O13 0.731346 0.047340 0.857537
#
# Coordination Sequence:
#
# PCOD9274473 Si02
#       6
#     8   8   8   8   8   8
#     4  10  20  39  65  90 119 159 218 251 312 378
#     4  10  20  39  64  85 123 167 204 252 325 373
#     4  10  20  38  63  92 126 157 214 260 312 368
#     4  10  21  38  62  87 123 173 201 251 318 385
#     4  11  23  41  59  89 131 166 207 254 321 375
#     4  11  23  37  63  96 121 160 212 270 306 370
#
# _framework density 24.201248
#
# number of rings (size 3 to 8) (size 9 to 14) (size 15 to 20)
#    0.000    1.667    1.667    4.500    2.333    0.000 
#    0.000   14.167    0.000    0.000    0.000    0.000 
#    0.000    0.000    0.000    0.000    0.000    0.000 
#
# Total GULP energy -134189.440565 kJ/mol
# GULP energy per Si atom -5591.226690 kJ/mol
# Density = 2.414617 g / cm^3
# Si number density = 24.201248 Si / 1000 Ang^3
#
#
#
# Elastic Constant Matrix: (Units=GPa)
#
#
# Indices 1 2 3 4 5 6 
#
# 1 97.7592 17.5321 53.1564 0.0000 -12.9571 0.0000
# 2 17.5321 28.5395 9.5137 0.0000 -3.0167 0.0000
# 3 53.1564 9.5137 161.0419 0.0000 0.6306 0.0000
# 4 0.0000 0.0000 0.0000 19.2123 0.0000 -13.9106
# 5 -12.9571 -3.0167 0.6306 0.0000 37.4978 0.0000
# 6 0.0000 0.0000 0.0000 -13.9106 0.0000 15.3883
#
#
#
# Elastic Compliance Matrix: (Units=1/GPa)
#
#
# Indices 1 2 3 4 5 6 
#
# 1 0.014452 -0.006942 -0.004378 0.000000 0.004509 0.000000
# 2 -0.006942 0.039398 -0.000039 0.000000 0.000771 0.000000
# 3 -0.004378 -0.000039 0.007663 0.000000 -0.001645 0.000000
# 4 0.000000 0.000000 0.000000 0.150657 0.000000 0.136190
# 5 0.004509 0.000771 -0.001645 0.000000 0.028316 0.000000
# 6 0.000000 0.000000 0.000000 0.136190 0.000000 0.188096
#
#
# Mechanical properties :
#
#
# Convention : Reuss Voigt Hill
#
# Bulk Modulus (GPa) = 25.77602 49.74944 37.76273
# Shear Modulus (GPa) = 10.77043 28.22890 19.49966
#
# Velocity S-wave (km/s) = 2.11188 3.41900 2.84162
# Velocity P-wave (km/s) = 4.07683 6.01558 5.13847
#
# Compressibility (1/GPa) = 0.03879575
#
# Stress axis : x y z
#
# Youngs Moduli (GPa) = 69.19281 25.38172 130.49076
#
# Poissons Ratio (x) = 0.17621 0.57128
# Poissons Ratio (y) = 0.48035 0.00510
# Poissons Ratio (z) = 0.30292 0.00099
#
# Static dielectric constant tensor:
#      x y z
#    x 1.930860 0.000000 0.025940 
#    y 0.000000 1.939270 0.000000 
#    z 0.025940 0.000000 1.949820 
# 
# From -- ./inp_files/189213.got.cif
#   From: 2010.05.17/outbox.cif.g08.bks.cpg/sg15_95_cif.got.tgz:189213.got - 2010.06.03 18:47:42.
