data_PCOD9274593
_publ_section_title
;
Structure prediction by ZEFSAII (Michael W. Deem and Ramdas Pophale) SiO2 
 PCOD9274593
Probable space group: C 2/C
;
_chemical_formula_sum "Si O2"
_cell_formula_units_Z 44
_cell_length_a 32.144697
_cell_length_b 6.575202
_cell_length_c 9.719041
_cell_angle_alpha 90.000000
_cell_angle_beta 94.878532
_cell_angle_gamma 90.000000
_cell_volume 2046.753985
_symmetry_space_group_name_H-M "C 2/C"
_symmetry_group_IT_number 15
_symmetry_cell_setting 'monoclinic'
loop_
_space_group_symop_operation_xyz
x,y,z
-x,y,1/2-z
-x,-y,-z
x,-y,1/2+z
1/2+x,1/2+y,z
1/2-x,1/2+y,1/2-z
1/2-x,1/2-y,-z
1/2+x,1/2-y,1/2+z
loop_
_atom_site_type_symbol
_atom_site_label
_atom_site_fract_x
_atom_site_fract_y
_atom_site_fract_z
Si Si1 0.041660 0.921563 0.585388
Si Si2 0.000000 0.573045 0.750000
Si Si3 0.230389 0.942234 0.916357
Si Si4 0.922810 0.672473 0.278196
Si Si5 0.891054 0.628455 0.996232
Si Si6 0.802588 0.246170 0.362268
O O1 0.080048 0.828955 0.511999
O O2 0.022671 0.726180 0.655121
O O3 0.062007 0.100259 0.682787
O O4 0.000000 0.000000 0.500000
O O5 0.961917 0.425665 0.705168
O O6 0.200933 0.862032 0.786190
O O7 0.267264 0.079039 0.860887
O O8 0.250000 0.750000 0.000000
O O9 0.207654 0.082596 0.021720
O O10 0.886102 0.620437 0.160067
O O11 0.912666 0.560212 0.420486
O O12 0.847414 0.663119 0.909251
#
# Coordination Sequence:
#
# PCOD9274593 Si02
#       6
#     8   4   8   8   8   8
#     4  11  22  40  65  92 132 178 222 272 333 399
#     4  10  20  38  64  88 122 172 226 260 332 388
#     4  11  24  46  72  99 137 177 226 274 341 411
#     4  11  24  43  63  96 135 172 221 283 330 399
#     4  11  27  41  65 100 133 174 222 277 339 396
#     4  11  26  45  71 103 134 180 224 281 343 408
#
# _framework density 21.497453
#
# number of rings (size 3 to 8) (size 9 to 14) (size 15 to 20)
#    0.000    1.091    1.818    3.818    5.091    5.818 
#    0.000    0.000    0.000    0.000    0.000    0.000 
#    0.000    0.000    0.000    0.000    0.000    0.000 
#
# Total GULP energy -122754.097018 kJ/mol
# GULP energy per Si atom -5579.731683 kJ/mol
# Density = 2.144852 g / cm^3
# Si number density = 21.497453 Si / 1000 Ang^3
#
#
#
# Elastic Constant Matrix: (Units=GPa)
#
#
# Indices 1 2 3 4 5 6 
#
# 1 33.3782 -5.4918 -10.6107 0.0000 7.0990 0.0000
# 2 -5.4918 78.8081 11.5809 0.0000 -5.6309 0.0000
# 3 -10.6107 11.5809 96.4352 0.0000 13.7213 0.0000
# 4 0.0000 0.0000 0.0000 22.5638 0.0000 4.3374
# 5 7.0990 -5.6309 13.7213 0.0000 27.5411 0.0000
# 6 0.0000 0.0000 0.0000 4.3374 0.0000 22.9400
#
#
#
# Elastic Compliance Matrix: (Units=1/GPa)
#
#
# Indices 1 2 3 4 5 6 
#
# 1 0.034161 0.000802 0.005265 0.000000 -0.011265 0.000000
# 2 0.000802 0.013291 -0.002007 0.000000 0.003511 0.000000
# 3 0.005265 -0.002007 0.012314 0.000000 -0.007903 0.000000
# 4 0.000000 0.000000 0.000000 0.045990 0.000000 -0.008696
# 5 -0.011265 0.003511 -0.007903 0.000000 0.043868 0.000000
# 6 0.000000 0.000000 0.000000 -0.008696 0.000000 0.045236
#
#
# Mechanical properties :
#
#
# Convention : Reuss Voigt Hill
#
# Bulk Modulus (GPa) = 14.73058 22.17539 18.45298
# Shear Modulus (GPa) = 23.88116 28.81851 26.34984
#
# Velocity S-wave (km/s) = 3.33661 3.66533 3.50483
# Velocity P-wave (km/s) = 4.65951 5.31513 4.99808
#
# Compressibility (1/GPa) = 0.06788598
#
# Stress axis : x y z
#
# Youngs Moduli (GPa) = 29.27298 75.24021 81.20515
#
# Poissons Ratio (x) = -0.06034 -0.42756
# Poissons Ratio (y) = -0.02348 0.16301
# Poissons Ratio (z) = -0.15413 0.15104
#
# Static dielectric constant tensor:
#      x y z
#    x 1.840910 0.000000 0.073790 
#    y 0.000000 5.367680 0.000000 
#    z 0.073790 0.000000 2.082860 
# 
# From -- ./inp_files/125047.got.cif
#   From: 2010.05.17/outbox.cif.g08.bks.cpg/sg15_63_cif.got.tgz:125047.got - 2010.06.03 18:47:42.
