data_PCOD9274208
_publ_section_title
;
Structure prediction by ZEFSAII (Michael W. Deem and Ramdas Pophale) SiO2 
 PCOD9274208
Probable space group: C 2/C
;
_chemical_formula_sum "Si O2"
_cell_formula_units_Z 40
_cell_length_a 11.548934
_cell_length_b 8.366350
_cell_length_c 22.845068
_cell_angle_alpha 90.000000
_cell_angle_beta 131.387600
_cell_angle_gamma 90.000000
_cell_volume 1656.070434
_symmetry_space_group_name_H-M "C 2/C"
_symmetry_group_IT_number 15
_symmetry_cell_setting 'monoclinic'
loop_
_space_group_symop_operation_xyz
x,y,z
-x,y,1/2-z
-x,-y,-z
x,-y,1/2+z
1/2+x,1/2+y,z
1/2-x,1/2+y,1/2-z
1/2-x,1/2-y,-z
1/2+x,1/2-y,1/2+z
loop_
_atom_site_type_symbol
_atom_site_label
_atom_site_fract_x
_atom_site_fract_y
_atom_site_fract_z
Si Si1 0.500000 0.000000 0.000000
Si Si2 0.048202 0.620752 0.647521
Si Si3 0.657609 0.478300 0.704029
Si Si4 0.501054 0.692605 0.561288
Si Si5 0.187708 0.607871 0.400728
Si Si6 0.000000 0.195501 0.750000
O O1 0.451886 0.090422 0.921841
O O2 0.422914 0.833586 0.950011
O O3 0.165434 0.498007 0.718521
O O4 0.098656 0.798134 0.681166
O O5 0.881395 0.568313 0.615618
O O6 0.614244 0.570061 0.629961
O O7 0.569350 0.580205 0.724100
O O8 0.365583 0.614273 0.477521
O O9 0.402382 0.788942 0.578587
O O10 0.133142 0.695030 0.323495
#
# Coordination Sequence:
#
# PCOD9274208 Si02
#       6
#     4   8   8   8   8   4
#     4  10  20  38  62  88 126 166 204 252 312 370
#     4  11  23  40  62  90 124 161 208 261 312 375
#     4  11  23  40  63  92 124 163 212 260 312 375
#     4   9  19  36  59  88 121 160 204 252 308 369
#     4   9  19  36  58  84 119 160 201 251 309 366
#     4  10  20  38  62  86 122 164 206 256 314 372
#
# _framework density 24.153559999999999
#
# number of rings (size 3 to 8) (size 9 to 14) (size 15 to 20)
#    0.000    2.000    0.000    4.800    0.000    4.000 
#    0.000    2.000    0.000    0.000    0.000    0.000 
#    0.000    0.000    0.000    0.000    0.000    0.000 
#
# Total GULP energy -111417.515692 kJ/mol
# GULP energy per Si atom -5570.875785 kJ/mol
# Density = 2.409859 g / cm^3
# Si number density = 24.153560 Si / 1000 Ang^3
#
#
#
# Elastic Constant Matrix: (Units=GPa)
#
#
# Indices 1 2 3 4 5 6 
#
# 1 28.7419 19.5053 33.9208 0.0000 -0.4355 0.0000
# 2 19.5053 158.6941 76.6698 0.0000 -8.5319 0.0000
# 3 33.9208 76.6698 175.9285 0.0000 -28.7453 0.0000
# 4 0.0000 0.0000 0.0000 40.7259 0.0000 -1.6757
# 5 -0.4355 -8.5319 -28.7453 0.0000 26.6388 0.0000
# 6 0.0000 0.0000 0.0000 -1.6757 0.0000 30.2194
#
#
#
# Elastic Compliance Matrix: (Units=1/GPa)
#
#
# Indices 1 2 3 4 5 6 
#
# 1 0.047853 -0.001457 -0.010368 0.000000 -0.010872 0.000000
# 2 -0.001457 0.008073 -0.003422 0.000000 -0.001131 0.000000
# 3 -0.010368 -0.003422 0.010887 0.000000 0.010483 0.000000
# 4 0.000000 0.000000 0.000000 0.024611 0.000000 0.001365
# 5 -0.010872 -0.001131 0.010483 0.000000 0.048311 0.000000
# 6 0.000000 0.000000 0.000000 0.001365 0.000000 0.033167
#
#
# Mechanical properties :
#
#
# Convention : Reuss Voigt Hill
#
# Bulk Modulus (GPa) = 27.53393 69.28404 48.40898
# Shear Modulus (GPa) = 23.20165 35.06805 29.13485
#
# Velocity S-wave (km/s) = 3.10270 3.81449 3.47686
# Velocity P-wave (km/s) = 4.92544 6.93884 6.01695
#
# Compressibility (1/GPa) = 0.03631883
#
# Stress axis : x y z
#
# Youngs Moduli (GPa) = 20.89749 123.86923 91.85028
#
# Poissons Ratio (x) = 0.18049 0.95229
# Poissons Ratio (y) = 0.03045 0.31432
# Poissons Ratio (z) = 0.21666 0.42389
#
# Static dielectric constant tensor:
#      x y z
#    x 2.013820 0.000000 -0.022410 
#    y 0.000000 1.911770 0.000000 
#    z -0.022410 0.000000 1.875540 
# 
# From -- ./inp_files/298479.got.cif
#   From: 2010.05.17/outbox.cif.g08.bks.cpg/sg15_150_cif.got.tgz:298479.got - 2010.06.03 18:47:42.
