data_PCOD9274753
_publ_section_title
;
Structure prediction by ZEFSAII (Michael W. Deem and Ramdas Pophale) SiO2 
 PCOD9274753
Probable space group: C 2/C
;
_chemical_formula_sum "Si O2"
_cell_formula_units_Z 64
_cell_length_a 15.513923
_cell_length_b 8.874472
_cell_length_c 19.070744
_cell_angle_alpha 90.000000
_cell_angle_beta 114.591659
_cell_angle_gamma 90.000000
_cell_volume 2387.467161
_symmetry_space_group_name_H-M "C 2/C"
_symmetry_group_IT_number 15
_symmetry_cell_setting 'monoclinic'
loop_
_space_group_symop_operation_xyz
x,y,z
-x,y,1/2-z
-x,-y,-z
x,-y,1/2+z
1/2+x,1/2+y,z
1/2-x,1/2+y,1/2-z
1/2-x,1/2-y,-z
1/2+x,1/2-y,1/2+z
loop_
_atom_site_type_symbol
_atom_site_label
_atom_site_fract_x
_atom_site_fract_y
_atom_site_fract_z
Si Si1 0.316889 0.313203 0.149761
Si Si2 0.110763 0.488535 0.300013
Si Si3 0.200696 0.697129 0.114241
Si Si4 0.103198 0.907033 0.762635
Si Si5 0.125431 0.421314 0.153367
Si Si6 0.585611 0.688292 0.961940
Si Si7 0.585880 0.052801 0.948655
Si Si8 0.609217 0.498759 0.610523
O O1 0.331171 0.141455 0.174944
O O2 0.391018 0.414576 0.217517
O O3 0.339441 0.340761 0.075410
O O4 0.110852 0.109825 0.043930
O O5 0.132432 0.391676 0.238315
O O6 0.118050 0.421659 0.380091
O O7 0.000000 0.530116 0.250000
O O8 0.308937 0.649523 0.161027
O O9 0.141191 0.602424 0.151792
O O10 0.186061 0.872326 0.122524
O O11 0.152312 0.640459 0.025588
O O12 0.120632 0.904618 0.685359
O O13 0.000000 0.848301 0.750000
O O14 0.213228 0.361832 0.139055
O O15 0.022151 0.387685 0.087820
O O16 0.487836 0.597207 0.913396
O O17 0.579953 0.871497 0.960070
#
# Coordination Sequence:
#
# PCOD9274753 Si02
#       8
#     8   8   8   8   8   8   8   8
#     4  10  20  38  68 103 140 195 261 309 379 451
#     4   9  19  38  71 103 142 208 264 311 379 466
#     4  11  24  42  72 110 147 198 245 326 385 440
#     4  11  23  44  72 104 148 201 258 311 383 461
#     4  10  20  38  65 106 147 190 249 329 381 431
#     4  10  22  42  73 107 144 201 252 306 380 464
#     4  10  21  43  74 104 151 198 258 311 386 456
#     4  11  23  44  73 107 147 195 257 310 377 457
#
# _framework density 26.806653000000001
#
# number of rings (size 3 to 8) (size 9 to 14) (size 15 to 20)
#    0.000    1.750    2.500    1.500    1.750    1.000 
#    0.000   23.750    0.000    0.000    0.000    0.875 
#    0.000    0.000    0.000    0.000    0.000    0.000 
#
# Total GULP energy -179574.150585 kJ/mol
# GULP energy per Si atom -5611.692206 kJ/mol
# Density = 2.674564 g / cm^3
# Si number density = 26.806653 Si / 1000 Ang^3
#
#
#
# Elastic Constant Matrix: (Units=GPa)
#
#
# Indices 1 2 3 4 5 6 
#
# 1 218.2740 69.4208 134.3789 0.0000 -10.5478 0.0000
# 2 69.4208 136.1817 77.7188 0.0000 0.6962 0.0000
# 3 134.3789 77.7188 239.0577 0.0000 -12.8150 0.0000
# 4 0.0000 0.0000 0.0000 49.5707 0.0000 -0.4057
# 5 -10.5478 0.6962 -12.8150 0.0000 61.5775 0.0000
# 6 0.0000 0.0000 0.0000 -0.4057 0.0000 47.2909
#
#
#
# Elastic Compliance Matrix: (Units=1/GPa)
#
#
# Indices 1 2 3 4 5 6 
#
# 1 0.007329 -0.001724 -0.003530 0.000000 0.000540 0.000000
# 2 -0.001724 0.009453 -0.002150 0.000000 -0.000850 0.000000
# 3 -0.003530 -0.002150 0.006913 0.000000 0.000858 0.000000
# 4 0.000000 0.000000 0.000000 0.020175 0.000000 0.000173
# 5 0.000540 -0.000850 0.000858 0.000000 0.016520 0.000000
# 6 0.000000 0.000000 0.000000 0.000173 0.000000 0.021147
#
#
# Mechanical properties :
#
#
# Convention : Reuss Voigt Hill
#
# Bulk Modulus (GPa) = 112.53046 128.50562 120.51804
# Shear Modulus (GPa) = 50.34834 52.48747 51.41790
#
# Velocity S-wave (km/s) = 4.33853 4.42973 4.38437
# Velocity P-wave (km/s) = 8.19553 8.61425 8.40750
#
# Compressibility (1/GPa) = 0.00888648
#
# Stress axis : x y z
#
# Youngs Moduli (GPa) = 136.43689 105.78435 144.66545
#
# Poissons Ratio (x) = 0.18239 0.51074
# Poissons Ratio (y) = 0.23524 0.31098
# Poissons Ratio (z) = 0.48169 0.22740
#
# Static dielectric constant tensor:
#      x y z
#    x 2.103410 0.000000 0.027410 
#    y 0.000000 2.179140 0.000000 
#    z 0.027410 0.000000 2.070580 
# 
# From -- ./inp_files/248628.got.cif
#   From: 2010.05.17/outbox.cif.g08.bks.cpg/sg15_125_cif.got.tgz:248628.got - 2010.06.03 18:47:42.
