data_PCOD9274353
_publ_section_title
;
Structure prediction by ZEFSAII (Michael W. Deem and Ramdas Pophale) SiO2 
 PCOD9274353
Probable space group: C 2/C
;
_chemical_formula_sum "Si O2"
_cell_formula_units_Z 60
_cell_length_a 11.666509
_cell_length_b 14.991258
_cell_length_c 17.068521
_cell_angle_alpha 90.000000
_cell_angle_beta 94.961632
_cell_angle_gamma 90.000000
_cell_volume 2974.023949
_symmetry_space_group_name_H-M "C 2/C"
_symmetry_group_IT_number 15
_symmetry_cell_setting 'monoclinic'
loop_
_space_group_symop_operation_xyz
x,y,z
-x,y,1/2-z
-x,-y,-z
x,-y,1/2+z
1/2+x,1/2+y,z
1/2-x,1/2+y,1/2-z
1/2-x,1/2-y,-z
1/2+x,1/2-y,1/2+z
loop_
_atom_site_type_symbol
_atom_site_label
_atom_site_fract_x
_atom_site_fract_y
_atom_site_fract_z
Si Si1 0.658692 0.407984 0.517129
Si Si2 0.852294 0.161695 0.873489
Si Si3 0.500000 0.856143 0.250000
Si Si4 0.229421 0.541168 0.748873
Si Si5 0.152014 0.214052 0.316593
Si Si6 0.119312 0.167497 0.851987
Si Si7 0.263736 0.150475 0.183704
Si Si8 0.608433 0.404391 0.957972
O O1 0.660732 0.339867 0.444653
O O2 0.736744 0.381137 0.594387
O O3 0.528699 0.416300 0.542686
O O4 0.676197 0.504572 0.478969
O O5 0.783479 0.077455 0.833927
O O6 0.777463 0.245384 0.841976
O O7 0.981507 0.157668 0.847668
O O8 0.858498 0.159029 0.967519
O O9 0.394003 0.914198 0.274469
O O10 0.559799 0.793090 0.318381
O O11 0.318267 0.587169 0.692379
O O12 0.207944 0.436324 0.761492
O O13 0.153393 0.186821 0.225541
O O14 0.131637 0.135361 0.374985
O O15 0.153235 0.263845 0.819205
#
# Coordination Sequence:
#
# PCOD9274353 Si02
#       8
#     8   8   4   8   8   8   8   8
#     4  10  22  38  60  94 129 164 208 269 313 369
#     4  10  21  41  63  90 127 164 212 261 313 373
#     4  10  22  42  58  92 128 156 208 260 316 358
#     4  11  23  41  64  91 125 167 203 265 307 381
#     4  11  22  38  66  92 121 170 211 262 310 382
#     4  11  23  42  65  92 126 166 213 264 308 382
#     4  12  23  40  65  93 127 168 210 253 326 373
#     4  10  20  38  62  94 127 161 216 265 316 366
#
# _framework density 20.174686000000001
#
# number of rings (size 3 to 8) (size 9 to 14) (size 15 to 20)
#    0.000    1.333    4.000    2.800    0.000    1.067 
#    4.800    0.000    0.000    1.600    0.000    0.000 
#    0.000    0.000    0.000    0.000    0.000    0.000 
#
# Total GULP energy -167258.713667 kJ/mol
# GULP energy per Si atom -5575.290456 kJ/mol
# Density = 2.012877 g / cm^3
# Si number density = 20.174686 Si / 1000 Ang^3
#
#
#
# Elastic Constant Matrix: (Units=GPa)
#
#
# Indices 1 2 3 4 5 6 
#
# 1 87.3480 38.8445 31.6846 0.0000 -2.5370 0.0000
# 2 38.8445 119.9364 27.9641 0.0000 -8.4649 0.0000
# 3 31.6846 27.9641 61.0275 0.0000 -1.8263 0.0000
# 4 0.0000 0.0000 0.0000 33.1945 0.0000 -3.1823
# 5 -2.5370 -8.4649 -1.8263 0.0000 21.9799 0.0000
# 6 0.0000 0.0000 0.0000 -3.1823 0.0000 18.4653
#
#
#
# Elastic Compliance Matrix: (Units=1/GPa)
#
#
# Indices 1 2 3 4 5 6 
#
# 1 0.015297 -0.003481 -0.006350 0.000000 -0.000103 0.000000
# 2 -0.003481 0.010364 -0.002842 0.000000 0.003354 0.000000
# 3 -0.006350 -0.002842 0.020982 0.000000 -0.000084 0.000000
# 4 0.000000 0.000000 0.000000 0.030632 0.000000 0.005279
# 5 -0.000103 0.003354 -0.000084 0.000000 0.046769 0.000000
# 6 0.000000 0.000000 0.000000 0.005279 0.000000 0.055065
#
#
# Mechanical properties :
#
#
# Convention : Reuss Voigt Hill
#
# Bulk Modulus (GPa) = 46.95113 51.69980 49.32547
# Shear Modulus (GPa) = 23.63461 26.04917 24.84189
#
# Velocity S-wave (km/s) = 3.42643 3.59720 3.51285
# Velocity P-wave (km/s) = 6.24313 6.55247 6.39967
#
# Compressibility (1/GPa) = 0.02129874
#
# Stress axis : x y z
#
# Youngs Moduli (GPa) = 65.37282 96.48427 47.65897
#
# Poissons Ratio (x) = 0.33586 0.30263
# Poissons Ratio (y) = 0.22756 0.13543
# Poissons Ratio (z) = 0.41511 0.27416
#
# Static dielectric constant tensor:
#      x y z
#    x 1.698270 0.000000 -0.003690 
#    y 0.000000 1.774070 0.000000 
#    z -0.003690 0.000000 1.740100 
# 
# From -- ./inp_files/197868.got.cif
#   From: 2010.05.17/outbox.cif.g08.bks.cpg/sg15_99_cif.got.tgz:197868.got - 2010.06.03 18:47:42.
