data_PCOD9274953
_publ_section_title
;
Structure prediction by ZEFSAII (Michael W. Deem and Ramdas Pophale) SiO2 
 PCOD9274953
Probable space group: C 2/C
;
_chemical_formula_sum "Si O2"
_cell_formula_units_Z 52
_cell_length_a 25.527128
_cell_length_b 14.339434
_cell_length_c 13.582328
_cell_angle_alpha 90.000000
_cell_angle_beta 147.715074
_cell_angle_gamma 90.000000
_cell_volume 2655.553836
_symmetry_space_group_name_H-M "C 2/C"
_symmetry_group_IT_number 15
_symmetry_cell_setting 'monoclinic'
loop_
_space_group_symop_operation_xyz
x,y,z
-x,y,1/2-z
-x,-y,-z
x,-y,1/2+z
1/2+x,1/2+y,z
1/2-x,1/2+y,1/2-z
1/2-x,1/2-y,-z
1/2+x,1/2-y,1/2+z
loop_
_atom_site_type_symbol
_atom_site_label
_atom_site_fract_x
_atom_site_fract_y
_atom_site_fract_z
Si Si1 0.777040 0.055731 0.068771
Si Si2 0.088889 0.928684 0.107787
Si Si3 0.087410 0.531796 0.208251
Si Si4 0.191262 0.320799 0.607439
Si Si5 0.000000 0.432504 0.250000
Si Si6 0.331887 0.771692 0.712865
Si Si7 0.890677 0.869446 0.572893
O O1 0.751407 0.126210 0.117306
O O2 0.863021 0.088084 0.133187
O O3 0.814770 0.964847 0.183942
O O4 0.687100 0.028183 0.854712
O O5 0.096473 0.816961 0.145797
O O6 0.105689 0.935645 0.016825
O O7 0.000000 0.000000 0.000000
O O8 0.106157 0.640627 0.226905
O O9 0.055982 0.499817 0.265650
O O10 0.000000 0.500000 0.000000
O O11 0.218554 0.310667 0.765874
O O12 0.183201 0.214467 0.560845
O O13 0.083669 0.369688 0.434120
O O14 0.250000 0.750000 0.500000
O O15 0.000000 0.829401 0.750000
#
# Coordination Sequence:
#
# PCOD9274953 Si02
#       7
#     8   8   8   8   4   8   8
#     4  11  24  40  67  98 133 176 232 278 341 413
#     4  11  24  41  65  97 133 177 223 277 339 406
#     4  11  23  42  68  95 133 173 222 277 338 405
#     4  10  22  40  66  95 131 170 228 282 336 398
#     4  10  20  38  66  96 126 174 222 278 336 400
#     4  11  23  44  68  96 136 180 220 282 344 401
#     4  11  22  40  66  93 131 176 226 276 340 403
#
# _framework density 19.581602
#
# number of rings (size 3 to 8) (size 9 to 14) (size 15 to 20)
#    0.000    1.231    5.385    0.462    2.154    0.000 
#    2.769    1.538    0.000    0.000    0.000    0.000 
#    0.000    0.000    0.000    0.000    0.000    0.000 
#
# Total GULP energy -144738.442714 kJ/mol
# GULP energy per Si atom -5566.863181 kJ/mol
# Density = 1.953703 g / cm^3
# Si number density = 19.581602 Si / 1000 Ang^3
#
#
#
# Elastic Constant Matrix: (Units=GPa)
#
#
# Indices 1 2 3 4 5 6 
#
# 1 97.8044 55.2962 25.4263 0.0000 -11.9052 0.0000
# 2 55.2962 104.5938 30.1175 0.0000 -10.1040 0.0000
# 3 25.4263 30.1175 102.4005 0.0000 -15.6418 0.0000
# 4 0.0000 0.0000 0.0000 30.1145 0.0000 -5.0315
# 5 -11.9052 -10.1040 -15.6418 0.0000 30.9544 0.0000
# 6 0.0000 0.0000 0.0000 -5.0315 0.0000 25.5395
#
#
#
# Elastic Compliance Matrix: (Units=1/GPa)
#
#
# Indices 1 2 3 4 5 6 
#
# 1 0.015010 -0.007336 -0.001141 0.000000 0.002801 0.000000
# 2 -0.007336 0.014148 -0.002238 0.000000 0.000666 0.000000
# 3 -0.001141 -0.002238 0.011409 0.000000 0.004596 0.000000
# 4 0.000000 0.000000 0.000000 0.034337 0.000000 0.006765
# 5 0.002801 0.000666 0.004596 0.000000 0.035923 0.000000
# 6 0.000000 0.000000 0.000000 0.006765 0.000000 0.040488
#
#
# Mechanical properties :
#
#
# Convention : Reuss Voigt Hill
#
# Bulk Modulus (GPa) = 52.25669 58.49764 55.37716
# Shear Modulus (GPa) = 27.91370 30.25227 29.08298
#
# Velocity S-wave (km/s) = 3.77968 3.93483 3.85804
# Velocity P-wave (km/s) = 6.76702 7.11213 6.94172
#
# Compressibility (1/GPa) = 0.01913630
#
# Stress axis : x y z
#
# Youngs Moduli (GPa) = 66.62289 70.68193 87.64867
#
# Poissons Ratio (x) = 0.51853 0.10004
# Poissons Ratio (y) = 0.48875 0.19614
# Poissons Ratio (z) = 0.07604 0.15818
#
# Static dielectric constant tensor:
#      x y z
#    x 1.242900 0.000000 -0.118800 
#    y 0.000000 1.699920 0.000000 
#    z -0.118800 0.000000 1.765230 
# 
# From -- ./inp_files/118835.got.cif
#   From: 2010.05.17/outbox.cif.g08.bks.cpg/sg15_60_cif.got.tgz:118835.got - 2010.06.03 18:47:42.
