data_PCOD9274795
_publ_section_title
;
Structure prediction by ZEFSAII (Michael W. Deem and Ramdas Pophale) SiO2 
 PCOD9274795
Probable space group: C 2/C
;
_chemical_formula_sum "Si O2"
_cell_formula_units_Z 48
_cell_length_a 18.930335
_cell_length_b 7.995866
_cell_length_c 27.621848
_cell_angle_alpha 90.000000
_cell_angle_beta 28.008619
_cell_angle_gamma 90.000000
_cell_volume 1963.399500
_symmetry_space_group_name_H-M "C 2/C"
_symmetry_group_IT_number 15
_symmetry_cell_setting 'monoclinic'
loop_
_space_group_symop_operation_xyz
x,y,z
-x,y,1/2-z
-x,-y,-z
x,-y,1/2+z
1/2+x,1/2+y,z
1/2-x,1/2+y,1/2-z
1/2-x,1/2-y,-z
1/2+x,1/2-y,1/2+z
loop_
_atom_site_type_symbol
_atom_site_label
_atom_site_fract_x
_atom_site_fract_y
_atom_site_fract_z
Si Si1 0.601714 0.160383 0.304383
Si Si2 0.896813 0.978878 0.265289
Si Si3 0.927681 0.159610 0.149864
Si Si4 0.446741 0.679193 0.977169
Si Si5 0.864498 0.681678 0.046490
Si Si6 0.655255 0.985862 0.182319
O O1 0.589152 0.306117 0.272045
O O2 0.752850 0.188025 0.243943
O O3 0.463890 0.186778 0.423927
O O4 0.625693 0.996774 0.257638
O O5 0.946206 0.114973 0.194841
O O6 0.722995 0.015438 0.384834
O O7 0.000000 0.981701 0.250000
O O8 0.975841 0.990806 0.090839
O O9 0.029709 0.303635 0.064287
O O10 0.536778 0.746448 0.968953
O O11 0.281132 0.621542 0.091628
O O12 0.727292 0.811437 0.122742
O O13 0.500000 0.016250 0.250000
#
# Coordination Sequence:
#
# PCOD9274795 Si02
#       6
#     8   8   8   8   8   8
#     4  11  21  39  66  90 124 167 207 256 318 370
#     4  11  25  40  58  95 136 161 199 275 326 353
#     4  10  20  39  66  88 119 172 215 251 304 384
#     4  10  20  38  65  92 121 161 215 262 301 372
#     4  11  20  40  66  88 120 167 221 250 306 380
#     4  11  22  39  63  91 124 165 211 257 312 378
#
# _framework density 24.447393999999999
#
# number of rings (size 3 to 8) (size 9 to 14) (size 15 to 20)
#    0.000    1.333    5.000    2.000    0.000    2.000 
#    0.000    3.333    0.000    0.000    0.000    0.000 
#    0.000    0.000    0.000    0.000    0.000    0.000 
#
# Total GULP energy -134470.395406 kJ/mol
# GULP energy per Si atom -5602.933142 kJ/mol
# Density = 2.439175 g / cm^3
# Si number density = 24.447394 Si / 1000 Ang^3
#
#
#
# Elastic Constant Matrix: (Units=GPa)
#
#
# Indices 1 2 3 4 5 6 
#
# 1 160.2389 16.6503 52.0340 0.0010 -1.4782 -0.0016
# 2 16.6503 69.8165 9.1668 0.0014 2.4584 -0.0024
# 3 52.0340 9.1668 129.2029 -0.0033 16.5986 -0.0003
# 4 0.0010 0.0014 -0.0033 34.2814 0.0005 11.4759
# 5 -1.4782 2.4584 16.5986 0.0005 52.1778 0.0007
# 6 -0.0016 -0.0024 -0.0003 11.4759 0.0007 21.5063
#
#
#
# Elastic Compliance Matrix: (Units=1/GPa)
#
#
# Indices 1 2 3 4 5 6 
#
# 1 0.007383 -0.001406 -0.003033 -0.000001 0.001240 0.000001
# 2 -0.001406 0.014733 -0.000401 -0.000001 -0.000606 0.000002
# 3 -0.003033 -0.000401 0.009382 0.000001 -0.003052 -0.000001
# 4 -0.000001 -0.000001 0.000001 0.035514 0.000000 -0.018951
# 5 0.001240 -0.000606 -0.003052 0.000000 0.020200 0.000000
# 6 0.000001 0.000002 -0.000001 -0.018951 0.000000 0.056610
#
#
# Mechanical properties :
#
#
# Convention : Reuss Voigt Hill
#
# Bulk Modulus (GPa) = 45.83579 57.21783 51.52681
# Shear Modulus (GPa) = 31.09948 40.35359 35.72654
#
# Velocity S-wave (km/s) = 3.57052 4.06720 3.82693
# Velocity P-wave (km/s) = 5.98227 6.74622 6.37570
#
# Compressibility (1/GPa) = 0.02181701
#
# Stress axis : x y z
#
# Youngs Moduli (GPa) = 135.44373 67.87657 106.59026
#
# Poissons Ratio (x) = 0.09545 0.32329
# Poissons Ratio (y) = 0.19046 0.04275
# Poissons Ratio (z) = 0.41080 0.02722
#
# Static dielectric constant tensor:
#      x y z
#    x 1.865650 0.000000 0.049490 
#    y 0.000000 2.082750 0.000000 
#    z 0.049490 0.000000 1.910820 
# 
# From -- ./inp_files/298739.got.cif
#   From: 2010.05.17/outbox.cif.g08.bks.cpg/sg15_150_cif.got.tgz:298739.got - 2010.06.03 18:47:42.
