data_PCOD9274656
_publ_section_title
;
Structure prediction by ZEFSAII (Michael W. Deem and Ramdas Pophale) SiO2 
 PCOD9274656
Probable space group: C 2/C
;
_chemical_formula_sum "Si O2"
_cell_formula_units_Z 52
_cell_length_a 17.632183
_cell_length_b 27.474885
_cell_length_c 11.843415
_cell_angle_alpha 90.000000
_cell_angle_beta 28.249728
_cell_angle_gamma 90.000000
_cell_volume 2715.623941
_symmetry_space_group_name_H-M "C 2/C"
_symmetry_group_IT_number 15
_symmetry_cell_setting 'monoclinic'
loop_
_space_group_symop_operation_xyz
x,y,z
-x,y,1/2-z
-x,-y,-z
x,-y,1/2+z
1/2+x,1/2+y,z
1/2-x,1/2+y,1/2-z
1/2-x,1/2-y,-z
1/2+x,1/2-y,1/2+z
loop_
_atom_site_type_symbol
_atom_site_label
_atom_site_fract_x
_atom_site_fract_y
_atom_site_fract_z
Si Si1 0.000000 0.257036 0.250000
Si Si2 0.257725 0.602307 0.591941
Si Si3 0.315156 0.073337 0.458135
Si Si4 0.530984 0.394193 0.464390
Si Si5 0.225755 0.035035 0.141145
Si Si6 0.689157 0.684647 0.158966
Si Si7 0.940343 0.555385 0.059655
O O1 0.850123 0.289150 0.488607
O O2 0.930284 0.223780 0.240628
O O3 0.390347 0.606535 0.513960
O O4 0.281768 0.557430 0.474103
O O5 0.258238 0.649460 0.513031
O O6 0.089678 0.591415 0.871445
O O7 0.500000 0.084037 0.250000
O O8 0.176338 0.108333 0.686081
O O9 0.316926 0.067322 0.321006
O O10 0.267138 0.021450 0.576947
O O11 0.432437 0.444915 0.588692
O O12 0.404230 0.350053 0.631160
O O13 0.366961 0.057984 0.031454
O O14 0.000000 0.500000 0.000000
#
# Coordination Sequence:
#
# PCOD9274656 Si02
#       7
#     4   8   8   8   8   8   8
#     4  10  20  38  64  92 124 142 180 248 324 372
#     4  11  20  37  60  86 124 155 197 246 300 345
#     4  12  22  37  55  79 117 172 206 243 284 341
#     4  11  23  39  56  86 122 154 198 247 300 352
#     4  11  22  36  56  80 116 161 207 256 286 326
#     4  10  21  37  61  96 119 146 185 243 314 366
#     4  12  22  36  56  83 117 165 217 240 280 346
#
# _framework density 19.148454000000001
#
# number of rings (size 3 to 8) (size 9 to 14) (size 15 to 20)
#    0.000    0.923    6.154    2.308    4.308    0.615 
#    2.769    0.000    0.000    0.000    0.000   11.846 
#    0.000    0.000    0.000    0.000    0.000    0.000 
#
# Total GULP energy -145180.488445 kJ/mol
# GULP energy per Si atom -5583.864940 kJ/mol
# Density = 1.910487 g / cm^3
# Si number density = 19.148454 Si / 1000 Ang^3
#
#
#
# Elastic Constant Matrix: (Units=GPa)
#
#
# Indices 1 2 3 4 5 6 
#
# 1 27.7460 8.2534 17.9705 -0.0001 -0.9957 -0.0004
# 2 8.2534 71.9751 52.4617 0.0008 -14.9383 -0.0006
# 3 17.9705 52.4617 150.9628 0.0026 -2.3227 -0.0022
# 4 -0.0001 0.0008 0.0026 31.1832 -0.0009 -9.9496
# 5 -0.9957 -14.9383 -2.3227 -0.0009 31.3704 0.0011
# 6 -0.0004 -0.0006 -0.0022 -9.9496 0.0011 15.8236
#
#
#
# Elastic Compliance Matrix: (Units=1/GPa)
#
#
# Indices 1 2 3 4 5 6 
#
# 1 0.039169 -0.001393 -0.004175 0.000001 0.000271 0.000001
# 2 -0.001393 0.021159 -0.007041 0.000000 0.009510 -0.000001
# 3 -0.004175 -0.007041 0.009525 0.000000 -0.002780 0.000001
# 4 0.000001 0.000000 0.000000 0.040117 0.000000 0.025225
# 5 0.000271 0.009510 -0.002780 0.000000 0.036209 -0.000002
# 6 0.000001 -0.000001 0.000001 0.025225 -0.000002 0.079058
#
#
# Mechanical properties :
#
#
# Convention : Reuss Voigt Hill
#
# Bulk Modulus (GPa) = 22.40284 45.33946 33.87115
# Shear Modulus (GPa) = 18.84429 27.14198 22.99313
#
# Velocity S-wave (km/s) = 3.14046 3.76899 3.46899
# Velocity P-wave (km/s) = 4.98748 6.53220 5.81139
#
# Compressibility (1/GPa) = 0.04463721
#
# Stress axis : x y z
#
# Youngs Moduli (GPa) = 25.53043 47.26032 104.98474
#
# Poissons Ratio (x) = 0.06581 0.43826
# Poissons Ratio (y) = 0.03555 0.73921
# Poissons Ratio (z) = 0.10658 0.33276
#
# Static dielectric constant tensor:
#      x y z
#    x 1.688530 0.000000 -0.027690 
#    y 0.000000 1.676190 0.000000 
#    z -0.027690 0.000000 1.720760 
# 
# From -- ./inp_files/92632.got.cif
#   From: 2010.05.17/outbox.cif.g08.bks.cpg/sg15_47_cif.got.tgz:92632.got - 2010.06.03 18:47:42.
