data_PCOD9274942
_publ_section_title
;
Structure prediction by ZEFSAII (Michael W. Deem and Ramdas Pophale) SiO2 
 PCOD9274942
Probable space group: C 2/C
;
_chemical_formula_sum "Si O2"
_cell_formula_units_Z 56
_cell_length_a 9.157602
_cell_length_b 17.966158
_cell_length_c 22.107861
_cell_angle_alpha 90.000000
_cell_angle_beta 53.936670
_cell_angle_gamma 90.000000
_cell_volume 2940.303625
_symmetry_space_group_name_H-M "C 2/C"
_symmetry_group_IT_number 15
_symmetry_cell_setting 'monoclinic'
loop_
_space_group_symop_operation_xyz
x,y,z
-x,y,1/2-z
-x,-y,-z
x,-y,1/2+z
1/2+x,1/2+y,z
1/2-x,1/2+y,1/2-z
1/2-x,1/2-y,-z
1/2+x,1/2-y,1/2+z
loop_
_atom_site_type_symbol
_atom_site_label
_atom_site_fract_x
_atom_site_fract_y
_atom_site_fract_z
Si Si1 0.003722 0.446215 0.057438
Si Si2 0.505981 0.959079 0.817879
Si Si3 0.703216 0.667505 0.371842
Si Si4 0.196002 0.839934 0.733038
Si Si5 0.720538 0.818413 0.436691
Si Si6 0.063294 0.766295 0.408764
Si Si7 0.804201 0.169118 0.511904
O O1 0.015887 0.487185 0.119239
O O2 0.175645 0.392117 0.015753
O O3 0.837388 0.389478 0.087510
O O4 0.000000 0.500000 0.000000
O O5 0.500000 0.990799 0.750000
O O6 0.351032 0.894875 0.851689
O O7 0.692783 0.916807 0.788076
O O8 0.678059 0.681732 0.307228
O O9 0.755088 0.745886 0.387925
O O10 0.508412 0.648235 0.446090
O O11 0.321777 0.781162 0.666729
O O12 0.000000 0.846677 0.750000
O O13 0.557228 0.793048 0.521885
O O14 0.909956 0.824148 0.424571
O O15 0.199698 0.814714 0.415920
O O16 0.750000 0.250000 0.500000
#
# Coordination Sequence:
#
# PCOD9274942 Si02
#       7
#     8   8   8   8   8   8   8
#     4  12  26  41  69  98 137 175 218 276 343 399
#     4  10  24  46  63  93 141 180 214 268 345 411
#     4  10  21  40  69  91 130 174 227 270 327 397
#     4  11  22  36  70  98 125 175 228 268 330 402
#     4  10  21  40  66  96 129 169 220 283 320 389
#     4  10  20  38  66  95 128 161 224 284 321 373
#     4  11  22  40  65  99 128 166 227 285 322 386
#
# _framework density 19.045653000000001
#
# number of rings (size 3 to 8) (size 9 to 14) (size 15 to 20)
#    0.000    1.429    4.286    1.714    6.000    0.571 
#    2.571    0.000    0.000    0.000    0.000    0.000 
#    0.000    0.000    0.000    0.000    0.000    0.000 
#
# Total GULP energy -156075.706144 kJ/mol
# GULP energy per Si atom -5574.132362 kJ/mol
# Density = 1.900230 g / cm^3
# Si number density = 19.045653 Si / 1000 Ang^3
#
#
#
# Elastic Constant Matrix: (Units=GPa)
#
#
# Indices 1 2 3 4 5 6 
#
# 1 144.8918 53.6215 34.9867 0.0000 15.1448 -0.0001
# 2 53.6215 81.4257 37.0209 0.0000 20.6823 -0.0001
# 3 34.9867 37.0209 79.0576 0.0000 23.5118 0.0000
# 4 0.0000 0.0000 0.0000 21.4093 0.0000 5.6360
# 5 15.1448 20.6823 23.5118 0.0000 31.4735 0.0001
# 6 -0.0001 -0.0001 0.0000 5.6360 0.0001 35.0118
#
#
#
# Elastic Compliance Matrix: (Units=1/GPa)
#
#
# Indices 1 2 3 4 5 6 
#
# 1 0.009282 -0.005447 -0.001663 0.000000 0.000355 0.000000
# 2 -0.005447 0.019789 -0.004845 0.000000 -0.006764 0.000000
# 3 -0.001663 -0.004845 0.018601 0.000000 -0.009912 0.000000
# 4 0.000000 0.000000 0.000000 0.048776 0.000000 -0.007852
# 5 0.000355 -0.006764 -0.009912 0.000000 0.043451 0.000000
# 6 0.000000 0.000000 0.000000 -0.007852 0.000000 0.029826
#
#
# Mechanical properties :
#
#
# Convention : Reuss Voigt Hill
#
# Bulk Modulus (GPa) = 42.08050 61.84815 51.96433
# Shear Modulus (GPa) = 24.80735 29.56200 27.18467
#
# Velocity S-wave (km/s) = 3.61296 3.94403 3.78212
# Velocity P-wave (km/s) = 6.28865 7.29963 6.81292
#
# Compressibility (1/GPa) = 0.02376398
#
# Stress axis : x y z
#
# Youngs Moduli (GPa) = 107.73850 50.53432 53.75965
#
# Poissons Ratio (x) = 0.27524 0.08938
# Poissons Ratio (y) = 0.58680 0.26045
# Poissons Ratio (z) = 0.17913 0.24482
#
# Static dielectric constant tensor:
#      x y z
#    x 1.745520 0.000000 0.032020 
#    y 0.000000 1.665630 0.000000 
#    z 0.032020 0.000000 1.705480 
# 
# From -- ./inp_files/232586.got.cif
#   From: 2010.05.17/outbox.cif.g08.bks.cpg/sg15_117_cif.got.tgz:232586.got - 2010.06.03 18:47:42.
