data_PCOD9274692
_publ_section_title
;
Structure prediction by ZEFSAII (Michael W. Deem and Ramdas Pophale) SiO2 
 PCOD9274692
Probable space group: C 2/C
;
_chemical_formula_sum "Si O2"
_cell_formula_units_Z 48
_cell_length_a 22.778094
_cell_length_b 4.925265
_cell_length_c 15.917663
_cell_angle_alpha 90.000000
_cell_angle_beta 76.553060
_cell_angle_gamma 90.000000
_cell_volume 1736.817413
_symmetry_space_group_name_H-M "C 2/C"
_symmetry_group_IT_number 15
_symmetry_cell_setting 'monoclinic'
loop_
_space_group_symop_operation_xyz
x,y,z
-x,y,1/2-z
-x,-y,-z
x,-y,1/2+z
1/2+x,1/2+y,z
1/2-x,1/2+y,1/2-z
1/2-x,1/2-y,-z
1/2+x,1/2-y,1/2+z
loop_
_atom_site_type_symbol
_atom_site_label
_atom_site_fract_x
_atom_site_fract_y
_atom_site_fract_z
Si Si1 0.899032 0.393311 0.309278
Si Si2 0.819483 0.881698 0.331174
Si Si3 0.944445 0.267332 0.955933
Si Si4 0.065950 0.615772 0.371628
Si Si5 0.700266 0.907667 0.862429
Si Si6 0.821814 0.066666 0.020861
O O1 0.838355 0.571842 0.313148
O O2 0.922437 0.520939 0.389562
O O3 0.940407 0.467453 0.215914
O O4 0.877129 0.083194 0.308642
O O5 0.799065 0.883349 0.435069
O O6 0.763397 0.005446 0.298110
O O7 0.894251 0.033725 0.981636
O O8 0.010791 0.176116 0.903852
O O9 0.944171 0.417038 0.045818
O O10 0.135973 0.709453 0.349320
O O11 0.712797 0.679974 0.927097
O O12 0.681170 0.183605 0.914857
#
# Coordination Sequence:
#
# PCOD9274692 Si02
#       6
#     8   8   8   8   8   8
#     4  11  24  42  65  93 125 166 209 257 310 368
#     4  11  22  39  62  92 130 164 207 258 309 371
#     4   9  21  43  66  93 125 164 211 259 311 368
#     4  10  22  41  66  93 127 165 208 259 312 370
#     4  11  22  37  63  95 126 166 207 254 314 371
#     4  10  20  38  64  94 126 164 210 256 309 370
#
# _framework density 27.636754
#
# number of rings (size 3 to 8) (size 9 to 14) (size 15 to 20)
#    0.000    1.667    0.000    5.500    0.000    4.667 
#    0.000   15.000    0.000    0.000    0.000    0.000 
#    0.000    0.000    0.000    0.000    0.000    0.000 
#
# Total GULP energy -134115.985277 kJ/mol
# GULP energy per Si atom -5588.166053 kJ/mol
# Density = 2.757385 g / cm^3
# Si number density = 27.636754 Si / 1000 Ang^3
#
#
#
# Elastic Constant Matrix: (Units=GPa)
#
#
# Indices 1 2 3 4 5 6 
#
# 1 122.1487 -3.4254 0.5061 0.0000 -11.2566 0.0000
# 2 -3.4254 79.6131 -1.2344 0.0000 -4.4484 0.0000
# 3 0.5061 -1.2344 120.4694 0.0000 14.5430 0.0000
# 4 0.0000 0.0000 0.0000 29.1177 0.0000 -3.1153
# 5 -11.2566 -4.4484 14.5430 0.0000 37.1349 0.0000
# 6 0.0000 0.0000 0.0000 -3.1153 0.0000 33.6702
#
#
#
# Elastic Compliance Matrix: (Units=1/GPa)
#
#
# Indices 1 2 3 4 5 6 
#
# 1 0.008458 0.000513 -0.000364 0.000000 0.002768 0.000000
# 2 0.000513 0.012677 -0.000078 0.000000 0.001705 0.000000
# 3 -0.000364 -0.000078 0.008729 0.000000 -0.003538 0.000000
# 4 0.000000 0.000000 0.000000 0.034687 0.000000 0.003209
# 5 0.002768 0.001705 -0.003538 0.000000 0.029358 0.000000
# 6 0.000000 0.000000 0.000000 0.003209 0.000000 0.029997
#
#
# Mechanical properties :
#
#
# Convention : Reuss Voigt Hill
#
# Bulk Modulus (GPa) = 33.32870 34.88043 34.10456
# Shear Modulus (GPa) = 37.37897 41.74356 39.56126
#
# Velocity S-wave (km/s) = 3.68164 3.89065 3.78759
# Velocity P-wave (km/s) = 5.49166 5.72986 5.61202
#
# Compressibility (1/GPa) = 0.03000417
#
# Stress axis : x y z
#
# Youngs Moduli (GPa) = 118.23532 78.88399 114.56423
#
# Poissons Ratio (x) = -0.04046 0.04175
# Poissons Ratio (y) = -0.06064 0.00894
# Poissons Ratio (z) = 0.04309 0.00616
#
# Static dielectric constant tensor:
#      x y z
#    x 2.357680 0.000000 0.078880 
#    y 0.000000 2.024660 0.000000 
#    z 0.078880 0.000000 2.222320 
# 
# From -- ./inp_files/217769.got.cif
#   From: 2010.05.17/outbox.cif.g08.bks.cpg/sg15_109_cif.got.tgz:217769.got - 2010.06.03 18:47:42.
