data_PCOD9274962
_publ_section_title
;
Structure prediction by ZEFSAII (Michael W. Deem and Ramdas Pophale) SiO2 
 PCOD9274962
Probable space group: C 2/C
;
_chemical_formula_sum "Si O2"
_cell_formula_units_Z 64
_cell_length_a 19.563165
_cell_length_b 13.646358
_cell_length_c 18.918521
_cell_angle_alpha 90.000000
_cell_angle_beta 143.512893
_cell_angle_gamma 90.000000
_cell_volume 3003.298887
_symmetry_space_group_name_H-M "C 2/C"
_symmetry_group_IT_number 15
_symmetry_cell_setting 'monoclinic'
loop_
_space_group_symop_operation_xyz
x,y,z
-x,y,1/2-z
-x,-y,-z
x,-y,1/2+z
1/2+x,1/2+y,z
1/2-x,1/2+y,1/2-z
1/2-x,1/2-y,-z
1/2+x,1/2-y,1/2+z
loop_
_atom_site_type_symbol
_atom_site_label
_atom_site_fract_x
_atom_site_fract_y
_atom_site_fract_z
Si Si1 0.580838 0.607706 0.924188
Si Si2 0.333472 0.610817 0.657039
Si Si3 0.676987 0.214904 0.757558
Si Si4 0.021243 0.439970 0.445028
Si Si5 0.732192 0.277047 0.649970
Si Si6 0.228402 0.115514 0.394039
Si Si7 0.579026 0.079784 0.253764
Si Si8 0.277062 0.423784 0.452560
O O1 0.451024 0.629526 0.796777
O O2 0.652324 0.638844 0.913333
O O3 0.625514 0.662544 0.030181
O O4 0.610610 0.492459 0.956620
O O5 0.235991 0.673417 0.613183
O O6 0.316450 0.495242 0.647668
O O7 0.572159 0.145650 0.646151
O O8 0.728590 0.259900 0.729601
O O9 0.652110 0.304754 0.789956
O O10 0.763131 0.146097 0.873921
O O11 0.000028 0.520000 0.366008
O O12 0.000000 0.500000 0.500000
O O13 0.146012 0.391420 0.537860
O O14 0.843954 0.338913 0.719936
O O15 0.232270 0.133350 0.481435
O O16 0.500000 0.121398 0.250000
O O17 0.669888 0.000261 0.360219
#
# Coordination Sequence:
#
# PCOD9274962 Si02
#       8
#     8   8   8   8   8   8   8   8
#     4   9  21  40  62  90 123 164 208 263 324 378
#     4  10  22  39  62  92 126 161 213 261 320 387
#     4  11  25  40  60  95 128 166 215 262 324 396
#     4  11  23  41  65  93 133 170 215 269 332 384
#     4  11  23  38  60  94 132 169 211 264 325 385
#     4  11  22  41  65  92 123 169 217 264 318 383
#     4  10  20  38  66  97 124 169 224 271 316 384
#     4   9  20  42  65  90 126 166 216 268 321 381
#
# _framework density 21.309901
#
# number of rings (size 3 to 8) (size 9 to 14) (size 15 to 20)
#    0.000    1.750    1.250    2.250    1.750    6.000 
#    0.000    3.750    0.000    0.000    0.000    0.000 
#    0.000    0.000    0.000    0.000    0.000    0.000 
#
# Total GULP energy -178839.379819 kJ/mol
# GULP energy per Si atom -5588.730619 kJ/mol
# Density = 2.126140 g / cm^3
# Si number density = 21.309901 Si / 1000 Ang^3
#
#
#
# Elastic Constant Matrix: (Units=GPa)
#
#
# Indices 1 2 3 4 5 6 
#
# 1 93.4618 33.5067 53.2331 0.0000 -32.5525 0.0000
# 2 33.5067 95.8610 41.4140 0.0000 -23.1843 0.0000
# 3 53.2331 41.4140 66.2318 0.0000 -23.3024 0.0000
# 4 0.0000 0.0000 0.0000 4.4818 0.0000 -62.9647
# 5 -32.5525 -23.1843 -23.3024 0.0000 26.1066 0.0000
# 6 0.0000 0.0000 0.0000 -62.9647 0.0000 -38.9481
#
#
#
# Elastic Compliance Matrix: (Units=1/GPa)
#
#
# Indices 1 2 3 4 5 6 
#
# 1 0.025395 0.002480 -0.014645 0.000000 0.020795 0.000000
# 2 0.002480 0.015435 -0.008359 0.000000 0.009338 0.000000
# 3 -0.014645 -0.008359 0.033616 0.000000 0.004321 0.000000
# 4 0.000000 0.000000 0.000000 0.009410 0.000000 -0.015212
# 5 0.020795 0.009338 0.004321 0.000000 0.076384 0.000000
# 6 0.000000 0.000000 0.000000 -0.015212 0.000000 -0.001083
#
#
# Mechanical properties :
#
#
# Convention : Reuss Voigt Hill
#
# Bulk Modulus (GPa) = 29.94205 56.87357 43.40781
# Shear Modulus (GPa) = 23.65880 6.82146 15.24013
#
# Velocity S-wave (km/s) = 3.33562 1.79110 2.67716
# Velocity P-wave (km/s) = 5.37740 5.56993 5.47451
#
# Compressibility (1/GPa) = 0.03339784
#
# Stress axis : x y z
#
# Youngs Moduli (GPa) = 39.37798 64.78937 29.74736
#
# Poissons Ratio (x) = -0.16068 0.43566
# Poissons Ratio (y) = -0.09766 0.24866
# Poissons Ratio (z) = 0.57670 0.54157
#
# Static dielectric constant tensor:
#      x y z
#    x 1.744400 0.000000 0.003260 
#    y 0.000000 1.787860 0.000000 
#    z 0.003260 0.000000 1.773210 
# 
# From -- ./inp_files/211424.got.cif
#   From: 2010.05.17/outbox.cif.g08.bks.cpg/sg15_106_cif.got.tgz:211424.got - 2010.06.03 18:47:42.
