data_PCOD9274835
_publ_section_title
;
Structure prediction by ZEFSAII (Michael W. Deem and Ramdas Pophale) SiO2 
 PCOD9274835
Probable space group: C 2/C
;
_chemical_formula_sum "Si O2"
_cell_formula_units_Z 56
_cell_length_a 15.448359
_cell_length_b 14.428685
_cell_length_c 9.998321
_cell_angle_alpha 90.000000
_cell_angle_beta 95.107128
_cell_angle_gamma 90.000000
_cell_volume 2219.773182
_symmetry_space_group_name_H-M "C 2/C"
_symmetry_group_IT_number 15
_symmetry_cell_setting 'monoclinic'
loop_
_space_group_symop_operation_xyz
x,y,z
-x,y,1/2-z
-x,-y,-z
x,-y,1/2+z
1/2+x,1/2+y,z
1/2-x,1/2+y,1/2-z
1/2-x,1/2-y,-z
1/2+x,1/2-y,1/2+z
loop_
_atom_site_type_symbol
_atom_site_label
_atom_site_fract_x
_atom_site_fract_y
_atom_site_fract_z
Si Si1 0.130242 0.032915 0.000621
Si Si2 0.707078 0.086851 0.333968
Si Si3 0.926896 0.788420 0.838531
Si Si4 0.744494 0.249937 0.837279
Si Si5 0.405470 0.385629 0.285516
Si Si6 0.453717 0.857097 0.553373
Si Si7 0.927195 0.499918 0.335694
O O1 0.232146 0.041578 0.047236
O O2 0.102615 0.126963 0.073419
O O3 0.089729 0.946073 0.076345
O O4 0.113566 0.044209 0.841138
O O5 0.746850 0.145030 0.217541
O O6 0.636103 0.159703 0.382720
O O7 0.659208 0.002012 0.258042
O O8 0.849995 0.732944 0.748212
O O9 0.971889 0.719176 0.948574
O O10 0.000000 0.823734 0.750000
O O11 0.823741 0.183909 0.796204
O O12 0.750000 0.250000 0.000000
O O13 0.500000 0.343399 0.250000
O O14 0.540048 0.894124 0.636026
O O15 0.423388 0.949916 0.472947
O O16 0.000000 0.456697 0.250000
#
# Coordination Sequence:
#
# PCOD9274835 Si02
#       7
#     8   8   8   8   8   8   8
#     4  11  27  46  73 106 143 195 249 297 373 429
#     4  10  23  41  66  95 141 179 238 301 352 436
#     4  11  25  44  72 104 146 189 240 307 369 445
#     4  11  28  46  71 108 143 186 251 301 373 437
#     4  12  28  49  79 104 149 194 251 309 368 437
#     4  10  20  38  65  97 140 183 239 285 371 433
#     4   9  20  36  59 102 136 181 227 288 356 436
#
# _framework density 25.227805
#
# number of rings (size 3 to 8) (size 9 to 14) (size 15 to 20)
#    0.000    1.429    0.000    3.000   12.000    4.000 
#    0.000    0.000    0.000    0.000    0.000    0.000 
#    0.000    0.000    0.000    0.000    0.000    0.000 
#
# Total GULP energy -156279.920308 kJ/mol
# GULP energy per Si atom -5581.425725 kJ/mol
# Density = 2.517039 g / cm^3
# Si number density = 25.227805 Si / 1000 Ang^3
#
#
#
# Elastic Constant Matrix: (Units=GPa)
#
#
# Indices 1 2 3 4 5 6 
#
# 1 89.0520 8.0948 14.0920 0.0000 1.6346 0.0000
# 2 8.0948 51.8177 1.9436 0.0000 -7.4794 0.0000
# 3 14.0920 1.9436 104.2858 0.0000 -6.2997 0.0000
# 4 0.0000 0.0000 0.0000 36.0312 0.0000 -7.4324
# 5 1.6346 -7.4794 -6.2997 0.0000 30.4646 0.0000
# 6 0.0000 0.0000 0.0000 -7.4324 0.0000 17.7341
#
#
#
# Elastic Compliance Matrix: (Units=1/GPa)
#
#
# Indices 1 2 3 4 5 6 
#
# 1 0.011694 -0.001975 -0.001631 0.000000 -0.001449 0.000000
# 2 -0.001975 0.020342 0.000198 0.000000 0.005141 0.000000
# 3 -0.001631 0.000198 0.009938 0.000000 0.002191 0.000000
# 4 0.000000 0.000000 0.000000 0.030380 0.000000 0.012732
# 5 -0.001449 0.005141 0.002191 0.000000 0.034618 0.000000
# 6 0.000000 0.000000 0.000000 0.012732 0.000000 0.061725
#
#
# Mechanical properties :
#
#
# Convention : Reuss Voigt Hill
#
# Bulk Modulus (GPa) = 28.44267 32.60182 30.52224
# Shear Modulus (GPa) = 26.70510 31.58099 29.14304
#
# Velocity S-wave (km/s) = 3.25708 3.54196 3.40250
# Velocity P-wave (km/s) = 5.04416 5.44778 5.24985
#
# Compressibility (1/GPa) = 0.03515845
#
# Stress axis : x y z
#
# Youngs Moduli (GPa) = 85.51700 49.16048 100.62298
#
# Poissons Ratio (x) = 0.09708 0.16411
# Poissons Ratio (y) = 0.16888 -0.01995
# Poissons Ratio (z) = 0.13947 -0.00975
#
# Static dielectric constant tensor:
#      x y z
#    x 2.194120 0.000000 -0.039900 
#    y 0.000000 2.007970 0.000000 
#    z -0.039900 0.000000 2.003930 
# 
# From -- ./inp_files/97003.got.cif
#   From: 2010.05.17/outbox.cif.g08.bks.cpg/sg15_49_cif.got.tgz:97003.got - 2010.06.03 18:47:42.
