data_PCOD9274199
_publ_section_title
;
Structure prediction by ZEFSAII (Michael W. Deem and Ramdas Pophale) SiO2 
 PCOD9274199
Probable space group: C 2/C
;
_chemical_formula_sum "Si O2"
_cell_formula_units_Z 36
_cell_length_a 13.503737
_cell_length_b 10.437360
_cell_length_c 20.889376
_cell_angle_alpha 90.000000
_cell_angle_beta 144.174946
_cell_angle_gamma 90.000000
_cell_volume 1723.287488
_symmetry_space_group_name_H-M "C 2/C"
_symmetry_group_IT_number 15
_symmetry_cell_setting 'monoclinic'
loop_
_space_group_symop_operation_xyz
x,y,z
-x,y,1/2-z
-x,-y,-z
x,-y,1/2+z
1/2+x,1/2+y,z
1/2-x,1/2+y,1/2-z
1/2-x,1/2-y,-z
1/2+x,1/2-y,1/2+z
loop_
_atom_site_type_symbol
_atom_site_label
_atom_site_fract_x
_atom_site_fract_y
_atom_site_fract_z
Si Si1 0.707671 0.628209 0.934250
Si Si2 0.500000 0.777762 0.250000
Si Si3 0.143901 0.868397 0.702127
Si Si4 0.300246 0.626984 0.716007
Si Si5 0.721751 0.383299 0.022416
O O1 0.503999 0.619926 0.822601
O O2 0.767547 0.632629 0.892150
O O3 0.750000 0.750000 0.000000
O O4 0.771722 0.501350 0.003620
O O5 0.432450 0.685926 0.271051
O O6 0.344854 0.866964 0.146690
O O7 0.245933 0.753959 0.724052
O O8 0.978970 0.896871 0.571700
O O9 0.248594 0.995960 0.773092
O O10 0.750000 0.250000 0.000000
#
# Coordination Sequence:
#
# PCOD9274199 Si02
#       5
#     8   4   8   8   8
#     4  10  22  40  60  85 120 157 196 244 294 344
#     4  10  20  38  62  86 116 156 200 242 292 354
#     4  10  21  39  62  88 119 156 196 243 293 349
#     4  10  22  40  60  87 121 155 195 243 293 349
#     4   9  19  37  60  84 114 156 195 235 289 350
#
# _framework density 20.890304
#
# number of rings (size 3 to 8) (size 9 to 14) (size 15 to 20)
#    0.000    2.222    0.000    4.000    0.000    8.889 
#    0.000   11.111    0.000    0.000    0.000    0.000 
#    0.000    0.000    0.000    0.000    0.000    0.000 
#
# Total GULP energy -100492.928840 kJ/mol
# GULP energy per Si atom -5582.940491 kJ/mol
# Density = 2.084276 g / cm^3
# Si number density = 20.890304 Si / 1000 Ang^3
#
#
#
# Elastic Constant Matrix: (Units=GPa)
#
#
# Indices 1 2 3 4 5 6 
#
# 1 34.9847 37.7064 5.9483 0.0000 -5.8916 0.0000
# 2 37.7064 190.0434 50.5523 0.0000 -26.8270 0.0000
# 3 5.9483 50.5523 116.4184 0.0000 -16.7480 0.0000
# 4 0.0000 0.0000 0.0000 23.2931 0.0000 -1.3735
# 5 -5.8916 -26.8270 -16.7480 0.0000 10.1124 0.0000
# 6 0.0000 0.0000 0.0000 -1.3735 0.0000 28.0363
#
#
#
# Elastic Compliance Matrix: (Units=1/GPa)
#
#
# Indices 1 2 3 4 5 6 
#
# 1 0.036798 -0.006940 0.002060 0.000000 0.006440 0.000000
# 2 -0.006940 0.009751 -0.000971 0.000000 0.020217 0.000000
# 3 0.002060 -0.000971 0.011432 0.000000 0.017557 0.000000
# 4 0.000000 0.000000 0.000000 0.043055 0.000000 0.002109
# 5 0.006440 0.020217 0.017557 0.000000 0.185350 0.000000
# 6 0.000000 0.000000 0.000000 0.002109 0.000000 0.035771
#
#
# Mechanical properties :
#
#
# Convention : Reuss Voigt Hill
#
# Bulk Modulus (GPa) = 21.60847 58.87338 40.24092
# Shear Modulus (GPa) = 14.31490 28.77100 21.54295
#
# Velocity S-wave (km/s) = 2.62055 3.71515 3.21478
# Velocity P-wave (km/s) = 4.41844 6.82982 5.75191
#
# Compressibility (1/GPa) = 0.04627816
#
# Stress axis : x y z
#
# Youngs Moduli (GPa) = 27.17536 102.55272 87.47421
#
# Poissons Ratio (x) = 0.71171 -0.18018
# Poissons Ratio (y) = 0.18860 0.08496
# Poissons Ratio (z) = -0.05597 0.09960
#
# Static dielectric constant tensor:
#      x y z
#    x 1.746750 0.000000 0.002040 
#    y 0.000000 1.737700 0.000000 
#    z 0.002040 0.000000 1.791690 
# 
# From -- ./inp_files/150126.got.cif
#   From: 2010.05.17/outbox.cif.g08.bks.cpg/sg15_76_cif.got.tgz:150126.got - 2010.06.03 18:47:42.
