data_PCOD9274462
_publ_section_title
;
Structure prediction by ZEFSAII (Michael W. Deem and Ramdas Pophale) SiO2 
 PCOD9274462
Probable space group: C 2/C
;
_chemical_formula_sum "Si O2"
_cell_formula_units_Z 44
_cell_length_a 24.649805
_cell_length_b 10.940883
_cell_length_c 14.396311
_cell_angle_alpha 90.000000
_cell_angle_beta 150.906949
_cell_angle_gamma 90.000000
_cell_volume 1887.810076
_symmetry_space_group_name_H-M "C 2/C"
_symmetry_group_IT_number 15
_symmetry_cell_setting 'monoclinic'
loop_
_space_group_symop_operation_xyz
x,y,z
-x,y,1/2-z
-x,-y,-z
x,-y,1/2+z
1/2+x,1/2+y,z
1/2-x,1/2+y,1/2-z
1/2-x,1/2-y,-z
1/2+x,1/2-y,1/2+z
loop_
_atom_site_type_symbol
_atom_site_label
_atom_site_fract_x
_atom_site_fract_y
_atom_site_fract_z
Si Si1 0.207066 0.358062 0.868879
Si Si2 0.531271 0.105347 0.398878
Si Si3 0.000000 0.153789 0.250000
Si Si4 0.941669 0.202072 0.424509
Si Si5 0.101646 0.668196 0.023965
Si Si6 0.605820 0.506106 0.759155
O O1 0.085617 0.402552 0.720448
O O2 0.195506 0.322747 0.743971
O O3 0.250000 0.250000 0.000000
O O4 0.295626 0.461615 0.024353
O O5 0.500000 0.151192 0.250000
O O6 0.599381 0.205576 0.558609
O O7 0.587186 0.973350 0.476566
O O8 0.983242 0.063990 0.311238
O O9 0.099838 0.244682 0.431493
O O10 0.861267 0.095139 0.268206
O O11 0.990327 0.284761 0.413540
O O12 0.046297 0.122950 0.623277
#
# Coordination Sequence:
#
# PCOD9274462 Si02
#       6
#     8   8   4   8   8   8
#     4  11  21  40  63  90 126 157 203 256 305 358
#     4  11  22  40  64  88 121 169 208 244 308 375
#     4  10  22  40  64  88 124 166 208 250 310 370
#     4   9  19  36  63  85 120 167 195 243 317 367
#     4  10  20  42  62  84 127 168 196 252 315 366
#     4  10  20  38  63  91 123 159 202 253 307 362
#
# _framework density 23.30743
#
# number of rings (size 3 to 8) (size 9 to 14) (size 15 to 20)
#    0.000    1.818    4.545    2.182    1.273    0.000 
#    3.273   10.000    4.000    0.000    0.000    0.000 
#    0.000    0.000    0.000    0.000    0.000    0.000 
#
# Total GULP energy -122758.129253 kJ/mol
# GULP energy per Si atom -5579.914966 kJ/mol
# Density = 2.325438 g / cm^3
# Si number density = 23.307430 Si / 1000 Ang^3
#
#
#
# Elastic Constant Matrix: (Units=GPa)
#
#
# Indices 1 2 3 4 5 6 
#
# 1 30.5149 5.7021 -6.4377 0.0000 -15.8829 0.0000
# 2 5.7021 100.7873 7.8959 0.0000 -10.6612 0.0000
# 3 -6.4377 7.8959 89.3315 0.0000 -24.1539 0.0000
# 4 0.0000 0.0000 0.0000 44.5036 0.0000 -20.4649
# 5 -15.8829 -10.6612 -24.1539 0.0000 38.7094 0.0000
# 6 0.0000 0.0000 0.0000 -20.4649 0.0000 22.8207
#
#
#
# Elastic Compliance Matrix: (Units=1/GPa)
#
#
# Indices 1 2 3 4 5 6 
#
# 1 0.049085 -0.000804 0.010820 0.000000 0.026670 0.000000
# 2 -0.000804 0.010235 -0.000348 0.000000 0.002272 0.000000
# 3 0.010820 -0.000348 0.015854 0.000000 0.014236 0.000000
# 4 0.000000 0.000000 0.000000 0.038239 0.000000 0.034291
# 5 0.026670 0.002272 0.014236 0.000000 0.046285 0.000000
# 6 0.000000 0.000000 0.000000 0.034291 0.000000 0.074571
#
#
# Mechanical properties :
#
#
# Convention : Reuss Voigt Hill
#
# Bulk Modulus (GPa) = 10.58092 26.10604 18.34348
# Shear Modulus (GPa) = 20.28913 35.43830 27.86371
#
# Velocity S-wave (km/s) = 2.95363 3.90355 3.46133
# Velocity P-wave (km/s) = 4.02262 5.61623 4.88485
#
# Compressibility (1/GPa) = 0.09450971
#
# Stress axis : x y z
#
# Youngs Moduli (GPa) = 20.37270 97.70449 63.07565
#
# Poissons Ratio (x) = 0.07851 -0.68245
# Poissons Ratio (y) = 0.01637 0.02197
# Poissons Ratio (z) = -0.22042 0.03403
#
# Static dielectric constant tensor:
#      x y z
#    x 1.955870 0.000000 -0.016650 
#    y 0.000000 1.911320 0.000000 
#    z -0.016650 0.000000 1.919120 
# 
# From -- ./inp_files/151390.got.cif
#   From: 2010.05.17/outbox.cif.g08.bks.cpg/sg15_76_cif.got.tgz:151390.got - 2010.06.03 18:47:42.
