data_PCOD9274123
_publ_section_title
;
Structure prediction by ZEFSAII (Michael W. Deem and Ramdas Pophale) SiO2 
 PCOD9274123
Probable space group: C 2/C
;
_chemical_formula_sum "Si O2"
_cell_formula_units_Z 44
_cell_length_a 8.511992
_cell_length_b 17.009178
_cell_length_c 21.159903
_cell_angle_alpha 90.000000
_cell_angle_beta 45.550465
_cell_angle_gamma 90.000000
_cell_volume 2186.985117
_symmetry_space_group_name_H-M "C 2/C"
_symmetry_group_IT_number 15
_symmetry_cell_setting 'monoclinic'
loop_
_space_group_symop_operation_xyz
x,y,z
-x,y,1/2-z
-x,-y,-z
x,-y,1/2+z
1/2+x,1/2+y,z
1/2-x,1/2+y,1/2-z
1/2-x,1/2-y,-z
1/2+x,1/2-y,1/2+z
loop_
_atom_site_type_symbol
_atom_site_label
_atom_site_fract_x
_atom_site_fract_y
_atom_site_fract_z
Si Si1 0.000000 0.250963 0.250000
Si Si2 0.620243 0.346198 0.327782
Si Si3 0.438165 0.819450 0.638188
Si Si4 0.500000 0.906725 0.750000
Si Si5 0.282980 0.530273 0.594981
Si Si6 0.469208 0.979440 0.581045
Si Si7 0.000000 0.963349 0.250000
O O1 0.140926 0.307254 0.256672
O O2 0.202200 0.197229 0.170885
O O3 0.469746 0.268905 0.380705
O O4 0.664135 0.392534 0.380027
O O5 0.540760 0.406534 0.298200
O O6 0.415795 0.853884 0.715605
O O7 0.553515 0.890412 0.569421
O O8 0.687408 0.964728 0.670183
O O9 0.500000 0.500000 0.500000
O O10 0.102244 0.536080 0.590736
O O11 0.500000 0.000000 0.500000
O O12 0.216243 0.986241 0.674034
#
# Coordination Sequence:
#
# PCOD9274123 Si02
#       7
#     4   8   8   4   8   8   4
#     4   8  18  32  62  82 126 142 214 230 328 332
#     4  10  20  38  61  92 120 166 201 259 310 369
#     4   9  20  37  61  89 122 161 204 256 307 370
#     4  10  20  40  63  91 120 168 208 250 316 370
#     4  11  23  41  65  92 130 168 211 256 314 377
#     4  11  24  41  63  95 127 168 213 258 310 376
#     4  12  22  38  67  93 126 164 214 254 314 376
#
# _framework density 20.119021
#
# number of rings (size 3 to 8) (size 9 to 14) (size 15 to 20)
#    1.091    0.727    0.000    6.000    0.000    1.455 
#    0.000   10.909    0.000    0.000    0.000    0.000 
#    0.000    0.000    0.000    0.000    0.000    0.000 
#
# Total GULP energy -122490.869114 kJ/mol
# GULP energy per Si atom -5567.766778 kJ/mol
# Density = 2.007323 g / cm^3
# Si number density = 20.119021 Si / 1000 Ang^3
#
#
#
# Elastic Constant Matrix: (Units=GPa)
#
#
# Indices 1 2 3 4 5 6 
#
# 1 77.3182 26.9512 31.2743 -0.0002 19.7257 -0.0007
# 2 26.9512 129.1997 44.7041 -0.0008 25.2043 0.0000
# 3 31.2743 44.7041 94.0160 -0.0067 8.6635 -0.0005
# 4 -0.0002 -0.0008 -0.0067 -1.6035 0.0018 -7.1015
# 5 19.7257 25.2043 8.6635 0.0018 39.1646 0.0006
# 6 -0.0007 0.0000 -0.0005 -7.1015 0.0006 34.4650
#
#
#
# Elastic Compliance Matrix: (Units=1/GPa)
#
#
# Indices 1 2 3 4 5 6 
#
# 1 0.016824 -0.000493 -0.004707 0.000004 -0.007115 0.000001
# 2 -0.000493 0.010393 -0.004271 0.000003 -0.005495 0.000001
# 3 -0.004707 -0.004271 0.014048 -0.000028 0.002012 -0.000006
# 4 0.000004 0.000003 -0.000028 -0.326081 0.000018 -0.067189
# 5 -0.007115 -0.005495 0.002012 0.000018 0.032208 0.000003
# 6 0.000001 0.000001 -0.000006 -0.067189 0.000003 0.015171
#
#
# Mechanical properties :
#
#
# Convention : Reuss Voigt Hill
#
# Bulk Modulus (GPa) = 44.79658 56.26590 50.53124
# Shear Modulus (GPa) = -23.69056 27.57884 1.94414
#
# Velocity S-wave (km/s) = -3.43522 3.70643 0.98408
# Velocity P-wave (km/s) = 2.56510 6.80765 5.14411
#
# Compressibility (1/GPa) = 0.02232313
#
# Stress axis : x y z
#
# Youngs Moduli (GPa) = 59.43731 96.22166 71.18607
#
# Poissons Ratio (x) = 0.04744 0.33504
# Poissons Ratio (y) = 0.02930 0.30406
# Poissons Ratio (z) = 0.27974 0.41099
#
# Static dielectric constant tensor:
#      x y z
#    x 1.723350 0.000000 -0.033630 
#    y 0.000000 1.765790 0.000000 
#    z -0.033630 0.000000 1.709690 
# 
# From -- ./inp_files/231997.got.cif
#   From: 2010.05.17/outbox.cif.g08.bks.cpg/sg15_116_cif.got.tgz:231997.got - 2010.06.03 18:47:42.
