data_PCOD9274406
_publ_section_title
;
Structure prediction by ZEFSAII (Michael W. Deem and Ramdas Pophale) SiO2 
 PCOD9274406
Probable space group: C 2/C
;
_chemical_formula_sum "Si O2"
_cell_formula_units_Z 48
_cell_length_a 8.736377
_cell_length_b 18.268471
_cell_length_c 29.324131
_cell_angle_alpha 90.000000
_cell_angle_beta 147.546578
_cell_angle_gamma 90.000000
_cell_volume 2511.426999
_symmetry_space_group_name_H-M "C 2/C"
_symmetry_group_IT_number 15
_symmetry_cell_setting 'monoclinic'
loop_
_space_group_symop_operation_xyz
x,y,z
-x,y,1/2-z
-x,-y,-z
x,-y,1/2+z
1/2+x,1/2+y,z
1/2-x,1/2+y,1/2-z
1/2-x,1/2-y,-z
1/2+x,1/2-y,1/2+z
loop_
_atom_site_type_symbol
_atom_site_label
_atom_site_fract_x
_atom_site_fract_y
_atom_site_fract_z
Si Si1 0.653523 0.098214 0.837992
Si Si2 0.780593 0.565355 0.153908
Si Si3 0.381818 0.922621 0.989093
Si Si4 0.198960 0.215302 0.097937
Si Si5 0.787358 0.815427 0.044507
Si Si6 0.062028 0.671887 0.907564
O O1 0.500000 0.102659 0.750000
O O2 0.516004 0.142124 0.845392
O O3 0.969497 0.129779 0.910220
O O4 0.680850 0.013404 0.859243
O O5 0.458378 0.572150 0.091888
O O6 0.834862 0.636354 0.137146
O O7 0.000000 0.567678 0.250000
O O8 0.503721 0.861092 0.985389
O O9 0.478609 0.891338 0.063567
O O10 0.500000 0.000000 0.000000
O O11 0.372982 0.272616 0.111932
O O12 0.126229 0.257815 0.126274
O O13 0.890118 0.199256 0.996696
O O14 0.750000 0.750000 0.000000
#
# Coordination Sequence:
#
# PCOD9274406 Si02
#       6
#     8   8   8   8   8   8
#     4  11  23  38  58  87 125 159 198 248 303 356
#     4  10  22  38  59  85 122 155 198 244 304 352
#     4  10  20  38  63  87 115 160 201 242 294 356
#     4   9  19  36  60  85 113 153 201 246 292 355
#     4  11  21  37  60  89 118 150 204 249 290 354
#     4   9  19  36  60  88 115 155 200 243 295 358
#
# _framework density 19.112639999999999
#
# number of rings (size 3 to 8) (size 9 to 14) (size 15 to 20)
#    0.000    2.000    3.333    1.000    0.000    5.333 
#    0.000    2.500    0.000    2.000    0.000    0.000 
#    0.000    0.000    0.000    0.000    0.000    0.000 
#
# Total GULP energy -133751.087839 kJ/mol
# GULP energy per Si atom -5572.961993 kJ/mol
# Density = 1.906914 g / cm^3
# Si number density = 19.112640 Si / 1000 Ang^3
#
#
#
# Elastic Constant Matrix: (Units=GPa)
#
#
# Indices 1 2 3 4 5 6 
#
# 1 74.7865 28.7165 6.2488 -0.0002 -19.9778 0.0001
# 2 28.7165 127.5919 11.8749 -0.0015 -19.6029 -0.0005
# 3 6.2488 11.8749 28.9067 -0.0031 -6.9163 -0.0033
# 4 -0.0002 -0.0015 -0.0031 15.9250 -0.0003 -1.9268
# 5 -19.9778 -19.6029 -6.9163 -0.0003 14.5098 0.0001
# 6 0.0001 -0.0005 -0.0033 -1.9268 0.0001 20.8553
#
#
#
# Elastic Compliance Matrix: (Units=1/GPa)
#
#
# Indices 1 2 3 4 5 6 
#
# 1 0.021358 -0.000434 0.002773 0.000001 0.030143 0.000000
# 2 -0.000434 0.009924 -0.001036 0.000001 0.012315 0.000000
# 3 0.002773 -0.001036 0.039504 0.000009 0.021249 0.000007
# 4 0.000001 0.000001 0.000009 0.063504 0.000009 0.005867
# 5 0.030143 0.012315 0.021249 0.000009 0.137188 0.000004
# 6 0.000000 0.000000 0.000007 0.005867 0.000004 0.048491
#
#
# Mechanical properties :
#
#
# Convention : Reuss Voigt Hill
#
# Bulk Modulus (GPa) = 13.62540 36.10729 24.86634
# Shear Modulus (GPa) = 14.62723 22.55435 18.59079
#
# Velocity S-wave (km/s) = 2.76944 3.43895 3.12219
# Velocity P-wave (km/s) = 4.16784 5.89078 5.10256
#
# Compressibility (1/GPa) = 0.07339235
#
# Stress axis : x y z
#
# Youngs Moduli (GPa) = 46.81989 100.76850 25.31373
#
# Poissons Ratio (x) = 0.04374 -0.07020
# Poissons Ratio (y) = 0.02032 0.02623
# Poissons Ratio (z) = -0.12984 0.10442
#
# Static dielectric constant tensor:
#      x y z
#    x 1.703160 0.000000 -0.022560 
#    y 0.000000 1.697560 0.000000 
#    z -0.022560 0.000000 1.665100 
# 
# From -- ./inp_files/189971.got.cif
#   From: 2010.05.17/outbox.cif.g08.bks.cpg/sg15_95_cif.got.tgz:189971.got - 2010.06.03 18:47:42.
