data_PCOD9274465
_publ_section_title
;
Structure prediction by ZEFSAII (Michael W. Deem and Ramdas Pophale) SiO2 
 PCOD9274465
Probable space group: C 2/C
;
_chemical_formula_sum "Si O2"
_cell_formula_units_Z 56
_cell_length_a 14.206170
_cell_length_b 25.852917
_cell_length_c 8.348529
_cell_angle_alpha 90.000000
_cell_angle_beta 123.004696
_cell_angle_gamma 90.000000
_cell_volume 2571.371369
_symmetry_space_group_name_H-M "C 2/C"
_symmetry_group_IT_number 15
_symmetry_cell_setting 'monoclinic'
loop_
_space_group_symop_operation_xyz
x,y,z
-x,y,1/2-z
-x,-y,-z
x,-y,1/2+z
1/2+x,1/2+y,z
1/2-x,1/2+y,1/2-z
1/2-x,1/2-y,-z
1/2+x,1/2-y,1/2+z
loop_
_atom_site_type_symbol
_atom_site_label
_atom_site_fract_x
_atom_site_fract_y
_atom_site_fract_z
Si Si1 0.195315 0.954099 0.175760
Si Si2 0.108429 0.148698 0.741930
Si Si3 0.785574 0.153889 0.335309
Si Si4 0.522173 0.728760 0.084974
Si Si5 0.555630 0.949580 0.976855
Si Si6 0.880231 0.944808 0.730610
Si Si7 0.476426 0.160140 0.419189
O O1 0.134184 0.900502 0.159025
O O2 0.311507 0.955463 0.380157
O O3 0.125035 0.003866 0.166493
O O4 0.207842 0.953731 0.996186
O O5 0.073534 0.198953 0.608048
O O6 0.000000 0.137081 0.750000
O O7 0.206045 0.153447 0.963485
O O8 0.842872 0.103788 0.304501
O O9 0.656378 0.157812 0.172412
O O10 0.860622 0.202147 0.351509
O O11 0.500000 0.719857 0.250000
O O12 0.523890 0.788877 0.045679
O O13 0.500000 0.946226 0.750000
O O14 0.526947 0.893927 0.026406
O O15 0.500000 0.000000 0.000000
O O16 0.000000 0.938593 0.750000
O O17 0.500000 0.165069 0.250000
#
# Coordination Sequence:
#
# PCOD9274465 Si02
#       7
#     8   8   8   8   8   8   8
#     4  12  23  38  65  95 133 178 219 273 332 387
#     4  10  20  38  63  91 127 168 213 267 328 390
#     4  11  23  43  67  93 132 175 219 275 336 390
#     4  11  25  43  65  97 132 168 217 275 332 399
#     4  11  24  43  64  92 129 167 218 267 319 386
#     4  12  24  41  66 101 140 176 223 271 332 404
#     4  11  25  44  68  95 127 173 223 271 328 397
#
# _framework density 21.778262000000002
#
# number of rings (size 3 to 8) (size 9 to 14) (size 15 to 20)
#    0.000    0.857    0.000    9.429    0.000    5.714 
#    0.000    0.000    0.000    0.000    0.000    0.000 
#    0.000    0.000    0.000    0.000    0.000    0.000 
#
# Total GULP energy -156627.420851 kJ/mol
# GULP energy per Si atom -5593.836459 kJ/mol
# Density = 2.172869 g / cm^3
# Si number density = 21.778262 Si / 1000 Ang^3
#
#
#
# Elastic Constant Matrix: (Units=GPa)
#
#
# Indices 1 2 3 4 5 6 
#
# 1 64.9242 63.9707 29.5050 0.0000 10.7412 0.0000
# 2 63.9707 186.3634 35.0242 0.0000 -1.2066 0.0000
# 3 29.5050 35.0242 96.9468 0.0000 -3.8088 0.0000
# 4 0.0000 0.0000 0.0000 50.7456 0.0000 -31.5632
# 5 10.7412 -1.2066 -3.8088 0.0000 38.7085 0.0000
# 6 0.0000 0.0000 0.0000 -31.5632 0.0000 71.0503
#
#
#
# Elastic Compliance Matrix: (Units=1/GPa)
#
#
# Indices 1 2 3 4 5 6 
#
# 1 0.027822 -0.008530 -0.005722 0.000000 -0.008549 0.000000
# 2 -0.008530 0.008372 -0.000327 0.000000 0.002596 0.000000
# 3 -0.005722 -0.000327 0.012284 0.000000 0.002786 0.000000
# 4 0.000000 0.000000 0.000000 0.027230 0.000000 0.012097
# 5 -0.008549 0.002596 0.002786 0.000000 0.028562 0.000000
# 6 0.000000 0.000000 0.000000 0.012097 0.000000 0.019448
#
#
# Mechanical properties :
#
#
# Convention : Reuss Voigt Hill
#
# Bulk Modulus (GPa) = 51.75653 67.24826 59.50240
# Shear Modulus (GPa) = 31.38439 46.74984 39.06711
#
# Velocity S-wave (km/s) = 3.80028 4.63820 4.23999
# Velocity P-wave (km/s) = 6.56300 7.72201 7.16598
#
# Compressibility (1/GPa) = 0.01932123
#
# Stress axis : x y z
#
# Youngs Moduli (GPa) = 35.94264 119.44440 81.40886
#
# Poissons Ratio (x) = 1.01889 0.46579
# Poissons Ratio (y) = 0.30660 0.02658
# Poissons Ratio (z) = 0.20565 0.03900
#
# Static dielectric constant tensor:
#      x y z
#    x 1.304140 0.000000 -0.795230 
#    y 0.000000 1.766020 0.000000 
#    z -0.795230 0.000000 0.429690 
# 
# From -- ./inp_files/42756.got.cif
#   From: 2010.05.17/outbox.cif.g08.bks.cpg/sg15_22_cif.got.tgz:42756.got - 2010.06.03 18:47:42.
