data_PCOD9274449
_publ_section_title
;
Structure prediction by ZEFSAII (Michael W. Deem and Ramdas Pophale) SiO2 
 PCOD9274449
Probable space group: C 2/C
;
_chemical_formula_sum "Si O2"
_cell_formula_units_Z 56
_cell_length_a 33.536525
_cell_length_b 11.123131
_cell_length_c 13.306379
_cell_angle_alpha 90.000000
_cell_angle_beta 26.767764
_cell_angle_gamma 90.000000
_cell_volume 2235.525072
_symmetry_space_group_name_H-M "C 2/C"
_symmetry_group_IT_number 15
_symmetry_cell_setting 'monoclinic'
loop_
_space_group_symop_operation_xyz
x,y,z
-x,y,1/2-z
-x,-y,-z
x,-y,1/2+z
1/2+x,1/2+y,z
1/2-x,1/2+y,1/2-z
1/2-x,1/2-y,-z
1/2+x,1/2-y,1/2+z
loop_
_atom_site_type_symbol
_atom_site_label
_atom_site_fract_x
_atom_site_fract_y
_atom_site_fract_z
Si Si1 0.647277 0.737643 0.767241
Si Si2 0.086248 0.594679 0.010191
Si Si3 0.345792 0.245174 0.014233
Si Si4 0.844052 0.164997 0.057099
Si Si5 0.016909 0.266628 0.471854
Si Si6 0.402439 0.460836 0.615514
Si Si7 0.281375 0.477987 0.061069
O O1 0.750000 0.750000 0.500000
O O2 0.602785 0.604125 0.871684
O O3 0.639760 0.774704 0.900815
O O4 0.581682 0.804965 0.838166
O O5 0.110966 0.705481 0.030771
O O6 0.060032 0.653419 0.962698
O O7 0.176288 0.521641 0.798258
O O8 0.000000 0.531842 0.250000
O O9 0.425632 0.222888 0.759080
O O10 0.257761 0.174836 0.177430
O O11 0.315779 0.383328 0.065649
O O12 0.896427 0.081688 0.015454
O O13 0.829703 0.101407 0.982872
O O14 0.026437 0.128255 0.492408
O O15 0.315281 0.430651 0.878051
#
# Coordination Sequence:
#
# PCOD9274449 Si02
#       7
#     8   8   8   8   8   8   8
#     4  12  24  38  63  94 131 164 209 267 328 372
#     4  10  23  39  64  96 127 168 213 266 318 371
#     4  10  21  40  63  89 126 169 207 259 320 380
#     4  10  20  39  63  91 123 164 210 256 315 379
#     4  10  23  41  62  90 128 166 215 261 315 381
#     4  10  21  39  61  93 120 168 210 258 317 379
#     4  10  20  38  63  90 126 166 210 258 313 384
#
# _framework density 25.050042999999999
#
# number of rings (size 3 to 8) (size 9 to 14) (size 15 to 20)
#    0.000    1.714    1.429    2.571    6.000    3.429 
#    2.571    2.857    0.000    6.000    0.000    0.000 
#    0.000    0.000    0.000    0.000    0.000    0.000 
#
# Total GULP energy -156493.861902 kJ/mol
# GULP energy per Si atom -5589.066497 kJ/mol
# Density = 2.499303 g / cm^3
# Si number density = 25.050043 Si / 1000 Ang^3
#
#
#
# Elastic Constant Matrix: (Units=GPa)
#
#
# Indices 1 2 3 4 5 6 
#
# 1 177.2936 35.9313 77.0174 0.0000 -1.1288 0.0000
# 2 35.9313 54.5708 6.3014 0.0000 1.2336 0.0000
# 3 77.0174 6.3014 162.0923 0.0000 -23.2344 0.0000
# 4 0.0000 0.0000 0.0000 17.6868 0.0000 -0.4716
# 5 -1.1288 1.2336 -23.2344 0.0000 34.3756 0.0000
# 6 0.0000 0.0000 0.0000 -0.4716 0.0000 14.9347
#
#
#
# Elastic Compliance Matrix: (Units=1/GPa)
#
#
# Indices 1 2 3 4 5 6 
#
# 1 0.008451 -0.005031 -0.004157 0.000000 -0.002352 0.000000
# 2 -0.005031 0.021453 0.001575 0.000000 0.000130 0.000000
# 3 -0.004157 0.001575 0.008920 0.000000 0.005836 0.000000
# 4 0.000000 0.000000 0.000000 0.056587 0.000000 0.001787
# 5 -0.002352 0.000130 0.005836 0.000000 0.032953 0.000000
# 6 0.000000 0.000000 0.000000 0.001787 0.000000 0.067015
#
#
# Mechanical properties :
#
#
# Convention : Reuss Voigt Hill
#
# Bulk Modulus (GPa) = 42.37748 70.27299 56.32523
# Shear Modulus (GPa) = 22.88652 31.71319 27.29986
#
# Velocity S-wave (km/s) = 3.02591 3.56194 3.30481
# Velocity P-wave (km/s) = 5.40019 6.71048 6.09067
#
# Compressibility (1/GPa) = 0.02359744
#
# Stress axis : x y z
#
# Youngs Moduli (GPa) = 118.33227 46.61423 112.11145
#
# Poissons Ratio (x) = 0.23452 0.46603
# Poissons Ratio (y) = 0.59535 -0.17659
# Poissons Ratio (z) = 0.49189 -0.07342
#
# Static dielectric constant tensor:
#      x y z
#    x 1.941450 0.000000 -0.002400 
#    y 0.000000 2.052110 0.000000 
#    z -0.002400 0.000000 1.944010 
# 
# From -- ./inp_files/126995.got.cif
#   From: 2010.05.17/outbox.cif.g08.bks.cpg/sg15_64_cif.got.tgz:126995.got - 2010.06.03 18:47:42.
