data_PCOD9274935
_publ_section_title
;
Structure prediction by ZEFSAII (Michael W. Deem and Ramdas Pophale) SiO2 
 PCOD9274935
Probable space group: C 2/C
;
_chemical_formula_sum "Si O2"
_cell_formula_units_Z 60
_cell_length_a 23.344928
_cell_length_b 22.067956
_cell_length_c 8.887413
_cell_angle_alpha 90.000000
_cell_angle_beta 36.199892
_cell_angle_gamma 90.000000
_cell_volume 2704.123375
_symmetry_space_group_name_H-M "C 2/C"
_symmetry_group_IT_number 15
_symmetry_cell_setting 'monoclinic'
loop_
_space_group_symop_operation_xyz
x,y,z
-x,y,1/2-z
-x,-y,-z
x,-y,1/2+z
1/2+x,1/2+y,z
1/2-x,1/2+y,1/2-z
1/2-x,1/2-y,-z
1/2+x,1/2-y,1/2+z
loop_
_atom_site_type_symbol
_atom_site_label
_atom_site_fract_x
_atom_site_fract_y
_atom_site_fract_z
Si Si1 0.066700 0.584822 0.471718
Si Si2 0.405812 0.874187 0.112065
Si Si3 0.652074 0.813094 0.968374
Si Si4 0.608589 0.682875 0.041341
Si Si5 0.500000 0.238331 0.250000
Si Si6 0.278983 0.427196 0.122958
Si Si7 0.353223 0.322358 0.385569
Si Si8 0.711477 0.450891 0.046713
O O1 0.090890 0.654703 0.466054
O O2 0.173174 0.556540 0.234257
O O3 0.002202 0.589523 0.458748
O O4 0.000000 0.560184 0.750000
O O5 0.352206 0.858905 0.383155
O O6 0.333806 0.914029 0.166554
O O7 0.430714 0.810183 0.981772
O O8 0.758975 0.802840 0.678845
O O9 0.607220 0.749654 0.110944
O O10 0.500000 0.659576 0.250000
O O11 0.667755 0.636360 0.016163
O O12 0.654543 0.689220 0.776997
O O13 0.441451 0.283161 0.263278
O O14 0.297550 0.443316 0.256447
O O15 0.316416 0.482470 0.945319
O O16 0.348334 0.396054 0.403940
#
# Coordination Sequence:
#
# PCOD9274935 Si02
#       8
#     8   8   8   8   4   8   8   8
#     4   9  19  37  63  94 126 164 207 255 320 389
#     4  11  23  38  62 102 130 163 205 270 325 385
#     4  10  20  38  66  94 133 165 203 257 328 392
#     4  11  22  42  64  95 124 166 208 263 322 378
#     4  12  22  38  62 100 130 160 212 268 330 390
#     4  11  26  43  65  88 129 167 220 263 317 371
#     4  10  23  40  64  93 127 172 210 258 323 378
#     4  10  24  46  61  88 125 178 215 263 310 380
#
# _framework density 22.188336
#
# number of rings (size 3 to 8) (size 9 to 14) (size 15 to 20)
#    0.000    1.600    0.000    4.800    5.600    5.867 
#    2.400    1.333    0.000    0.000    0.000    0.000 
#    0.000    0.000    0.000    0.000    0.000    0.000 
#
# Total GULP energy -167650.914940 kJ/mol
# GULP energy per Si atom -5588.363831 kJ/mol
# Density = 2.213783 g / cm^3
# Si number density = 22.188336 Si / 1000 Ang^3
#
#
#
# Elastic Constant Matrix: (Units=GPa)
#
#
# Indices 1 2 3 4 5 6 
#
# 1 58.5445 39.8529 -21.1308 0.0000 6.2645 0.0000
# 2 39.8529 63.5046 -7.3360 0.0000 -1.0087 0.0000
# 3 -21.1308 -7.3360 39.0529 0.0000 5.8916 0.0000
# 4 0.0000 0.0000 0.0000 23.6127 0.0000 11.2424
# 5 6.2645 -1.0087 5.8916 0.0000 12.8145 0.0000
# 6 0.0000 0.0000 0.0000 11.2424 0.0000 7.5250
#
#
#
# Elastic Compliance Matrix: (Units=1/GPa)
#
#
# Indices 1 2 3 4 5 6 
#
# 1 0.052680 -0.030362 0.029062 0.000000 -0.041504 0.000000
# 2 -0.030362 0.033595 -0.013706 0.000000 0.023788 0.000000
# 3 0.029062 -0.013706 0.044123 0.000000 -0.035572 0.000000
# 4 0.000000 0.000000 0.000000 0.146704 0.000000 -0.219177
# 5 -0.041504 0.023788 -0.035572 0.000000 0.116554 0.000000
# 6 0.000000 0.000000 0.000000 -0.219177 0.000000 0.460342
#
#
# Mechanical properties :
#
#
# Convention : Reuss Voigt Hill
#
# Bulk Modulus (GPa) = 9.96151 20.43046 15.19599
# Shear Modulus (GPa) = 5.44976 18.77150 12.11063
#
# Velocity S-wave (km/s) = 1.56891 2.91178 2.33879
# Velocity P-wave (km/s) = 2.78949 4.53126 3.76255
#
# Compressibility (1/GPa) = 0.10038639
#
# Stress axis : x y z
#
# Youngs Moduli (GPa) = 18.98267 29.76628 22.66395
#
# Poissons Ratio (x) = 0.90375 -0.65866
# Poissons Ratio (y) = 0.57634 0.31063
# Poissons Ratio (z) = -0.55167 0.40798
#
# Static dielectric constant tensor:
#      x y z
#    x 1.821940 0.000000 -0.016750 
#    y 0.000000 1.828460 0.000000 
#    z -0.016750 0.000000 1.847220 
# 
# From -- ./inp_files/63503.got.cif
#   From: 2010.05.17/outbox.cif.g08.bks.cpg/sg15_32_cif.got.tgz:63503.got - 2010.06.03 18:47:42.
