data_PCOD9274139
_publ_section_title
;
Structure prediction by ZEFSAII (Michael W. Deem and Ramdas Pophale) SiO2 
 PCOD9274139
Probable space group: C 2/C
;
_chemical_formula_sum "Si O2"
_cell_formula_units_Z 52
_cell_length_a 14.472913
_cell_length_b 25.767091
_cell_length_c 10.237841
_cell_angle_alpha 90.000000
_cell_angle_beta 44.424091
_cell_angle_gamma 90.000000
_cell_volume 2672.423215
_symmetry_space_group_name_H-M "C 2/C"
_symmetry_group_IT_number 15
_symmetry_cell_setting 'monoclinic'
loop_
_space_group_symop_operation_xyz
x,y,z
-x,y,1/2-z
-x,-y,-z
x,-y,1/2+z
1/2+x,1/2+y,z
1/2-x,1/2+y,1/2-z
1/2-x,1/2-y,-z
1/2+x,1/2-y,1/2+z
loop_
_atom_site_type_symbol
_atom_site_label
_atom_site_fract_x
_atom_site_fract_y
_atom_site_fract_z
Si Si1 0.023961 0.062218 0.467830
Si Si2 0.500000 0.374617 0.250000
Si Si3 0.013071 0.297418 0.581801
Si Si4 0.488196 0.879931 0.405659
Si Si5 0.272803 0.966714 0.573852
Si Si6 0.741497 0.944674 0.199842
Si Si7 0.691887 0.288001 0.170505
O O1 0.047609 0.088816 0.583130
O O2 0.883626 0.082360 0.560282
O O3 0.144839 0.066047 0.247634
O O4 0.000000 0.000000 0.500000
O O5 0.620570 0.338236 0.179253
O O6 0.945124 0.340408 0.560180
O O7 0.170687 0.296754 0.390569
O O8 0.000000 0.309949 0.750000
O O9 0.930954 0.244141 0.644023
O O10 0.500000 0.855004 0.250000
O O11 0.395187 0.929798 0.481250
O O12 0.627882 0.902985 0.306904
O O13 0.265980 0.977598 0.426831
O O14 0.276692 0.018231 0.657254
O O15 0.750000 0.250000 0.000000
#
# Coordination Sequence:
#
# PCOD9274139 Si02
#       7
#     8   4   8   8   8   8   8
#     4  10  24  35  59  89 124 160 210 244 308 370
#     4  12  22  38  66  92 128 174 194 270 320 356
#     4  10  21  37  62  88 123 144 204 263 305 366
#     4  10  22  39  56  87 121 163 197 252 318 373
#     4  10  22  35  61  80 123 162 211 252 303 367
#     4  10  21  39  55  84 122 163 206 259 300 369
#     4  10  20  38  61  94 122 149 207 266 309 360
#
# _framework density 19.457995
#
# number of rings (size 3 to 8) (size 9 to 14) (size 15 to 20)
#    0.000    1.846    2.308    1.846   12.923    1.231 
#    0.000    0.769    0.000    1.846    0.000    0.000 
#    0.000    0.000    0.000    0.000    0.000    0.000 
#
# Total GULP energy -144894.938084 kJ/mol
# GULP energy per Si atom -5572.882234 kJ/mol
# Density = 1.941371 g / cm^3
# Si number density = 19.457995 Si / 1000 Ang^3
#
#
#
# Elastic Constant Matrix: (Units=GPa)
#
#
# Indices 1 2 3 4 5 6 
#
# 1 74.9187 21.4938 15.9078 0.0000 -17.1425 0.0000
# 2 21.4938 59.2203 24.0400 0.0000 7.8758 0.0000
# 3 15.9078 24.0400 57.3207 0.0000 4.0763 0.0000
# 4 0.0000 0.0000 0.0000 17.7885 0.0000 6.0966
# 5 -17.1425 7.8758 4.0763 0.0000 47.6589 0.0000
# 6 0.0000 0.0000 0.0000 6.0966 0.0000 20.0657
#
#
#
# Elastic Compliance Matrix: (Units=1/GPa)
#
#
# Indices 1 2 3 4 5 6 
#
# 1 0.017442 -0.006207 -0.002773 0.000000 0.007537 0.000000
# 2 -0.006207 0.022898 -0.007498 0.000000 -0.005375 0.000000
# 3 -0.002773 -0.007498 0.021474 0.000000 -0.001595 0.000000
# 4 0.000000 0.000000 0.000000 0.062750 0.000000 -0.019066
# 5 0.007537 -0.005375 -0.001595 0.000000 0.024718 0.000000
# 6 0.000000 0.000000 0.000000 -0.019066 0.000000 0.055629
#
#
# Mechanical properties :
#
#
# Convention : Reuss Voigt Hill
#
# Bulk Modulus (GPa) = 34.65499 34.92698 34.79099
# Shear Modulus (GPa) = 20.20312 25.77050 22.98681
#
# Velocity S-wave (km/s) = 3.22575 3.64320 3.44081
# Velocity P-wave (km/s) = 5.63230 5.97379 5.80555
#
# Compressibility (1/GPa) = 0.02885587
#
# Stress axis : x y z
#
# Youngs Moduli (GPa) = 57.33315 43.67264 46.56897
#
# Poissons Ratio (x) = 0.27108 0.12915
# Poissons Ratio (y) = 0.35587 0.34919
# Poissons Ratio (z) = 0.15900 0.32747
#
# Static dielectric constant tensor:
#      x y z
#    x 1.752610 0.000000 -0.034360 
#    y 0.000000 1.689500 0.000000 
#    z -0.034360 0.000000 1.713010 
# 
# From -- ./inp_files/43412.got.cif
#   From: 2010.05.17/outbox.cif.g08.bks.cpg/sg15_22_cif.got.tgz:43412.got - 2010.06.03 18:47:42.
