data_PCOD9274352
_publ_section_title
;
Structure prediction by ZEFSAII (Michael W. Deem and Ramdas Pophale) SiO2 
 PCOD9274352
Probable space group: C 2/C
;
_chemical_formula_sum "Si O2"
_cell_formula_units_Z 60
_cell_length_a 18.075176
_cell_length_b 19.109563
_cell_length_c 9.194595
_cell_angle_alpha 90.000000
_cell_angle_beta 59.723831
_cell_angle_gamma 90.000000
_cell_volume 2742.718309
_symmetry_space_group_name_H-M "C 2/C"
_symmetry_group_IT_number 15
_symmetry_cell_setting 'monoclinic'
loop_
_space_group_symop_operation_xyz
x,y,z
-x,y,1/2-z
-x,-y,-z
x,-y,1/2+z
1/2+x,1/2+y,z
1/2-x,1/2+y,1/2-z
1/2-x,1/2-y,-z
1/2+x,1/2-y,1/2+z
loop_
_atom_site_type_symbol
_atom_site_label
_atom_site_fract_x
_atom_site_fract_y
_atom_site_fract_z
Si Si1 0.065951 0.986730 0.066223
Si Si2 0.602261 0.771974 0.903733
Si Si3 0.254690 0.159773 0.075848
Si Si4 0.096412 0.623547 0.157616
Si Si5 0.000000 0.637457 0.750000
Si Si6 0.589280 0.648195 0.092456
Si Si7 0.257640 0.043816 0.300571
Si Si8 0.653615 0.895742 0.280429
O O1 0.000000 0.955702 0.250000
O O2 0.096463 0.064955 0.079182
O O3 0.157153 0.949302 0.946412
O O4 0.000000 0.000000 0.000000
O O5 0.698230 0.790530 0.858968
O O6 0.586747 0.806059 0.763447
O O7 0.545853 0.814468 0.081062
O O8 0.592665 0.689550 0.937558
O O9 0.158111 0.177001 0.137301
O O10 0.264070 0.083371 0.139820
O O11 0.296914 0.156524 0.875301
O O12 0.171259 0.579263 0.164437
O O13 0.000000 0.591370 0.250000
O O14 0.126579 0.633716 0.962834
O O15 0.932101 0.590823 0.729153
O O16 0.500000 0.664608 0.250000
O O17 0.287541 0.963813 0.256260
#
# Coordination Sequence:
#
# PCOD9274352 Si02
#       8
#     8   8   8   8   4   8   8   8
#     4  11  25  43  68  96 129 169 227 277 328 385
#     4  10  21  41  61  92 128 162 220 262 320 389
#     4  10  22  40  63  96 122 176 216 267 319 389
#     4  11  24  40  62  98 136 175 206 269 335 403
#     4  10  20  38  62  94 126 174 214 258 308 400
#     4  11  21  39  69  96 120 169 224 272 323 382
#     4  11  23  41  64  95 139 167 218 272 331 390
#     4  11  22  37  65  92 138 171 216 261 328 393
#
# _framework density 21.876106
#
# number of rings (size 3 to 8) (size 9 to 14) (size 15 to 20)
#    0.000    1.333    3.333    2.800    2.800    0.533 
#    0.000    1.333    0.000    1.600    0.000    0.000 
#    0.000    0.000    0.000    0.000    0.000    0.000 
#
# Total GULP energy -167391.185348 kJ/mol
# GULP energy per Si atom -5579.706178 kJ/mol
# Density = 2.182632 g / cm^3
# Si number density = 21.876106 Si / 1000 Ang^3
#
#
#
# Elastic Constant Matrix: (Units=GPa)
#
#
# Indices 1 2 3 4 5 6 
#
# 1 153.7771 3.6746 57.3827 0.0000 -15.6942 0.0000
# 2 3.6746 34.6011 -2.7893 0.0000 0.4104 0.0000
# 3 57.3827 -2.7893 118.2364 0.0000 7.6794 0.0000
# 4 0.0000 0.0000 0.0000 50.1500 0.0000 -24.1242
# 5 -15.6942 0.4104 7.6794 0.0000 36.8773 0.0000
# 6 0.0000 0.0000 0.0000 -24.1242 0.0000 44.8396
#
#
#
# Elastic Compliance Matrix: (Units=1/GPa)
#
#
# Indices 1 2 3 4 5 6 
#
# 1 0.008716 -0.001349 -0.004565 0.000000 0.004675 0.000000
# 2 -0.001349 0.029173 0.001421 0.000000 -0.001195 0.000000
# 3 -0.004565 0.001421 0.010983 0.000000 -0.004246 0.000000
# 4 0.000000 0.000000 0.000000 0.026903 0.000000 0.014474
# 5 0.004675 -0.001195 -0.004246 0.000000 0.030004 0.000000
# 6 0.000000 0.000000 0.000000 0.014474 0.000000 0.030089
#
#
# Mechanical properties :
#
#
# Convention : Reuss Voigt Hill
#
# Bulk Modulus (GPa) = 25.07321 47.01674 36.04497
# Shear Modulus (GPa) = 31.61563 42.92981 37.27272
#
# Velocity S-wave (km/s) = 3.80572 4.43471 4.13220
# Velocity P-wave (km/s) = 5.54957 6.91094 6.26733
#
# Compressibility (1/GPa) = 0.03988321
#
# Stress axis : x y z
#
# Youngs Moduli (GPa) = 114.73253 34.27856 91.05272
#
# Poissons Ratio (x) = 0.04625 0.41570
# Poissons Ratio (y) = 0.15479 -0.12935
# Poissons Ratio (z) = 0.52381 -0.04869
#
# Static dielectric constant tensor:
#      x y z
#    x 1.869840 0.000000 -0.028580 
#    y 0.000000 1.848010 0.000000 
#    z -0.028580 0.000000 1.828640 
# 
# From -- ./inp_files/50647.got.cif
#   From: 2010.05.17/outbox.cif.g08.bks.cpg/sg15_26_cif.got.tgz:50647.got - 2010.06.03 18:47:42.
