data_PCOD9274770
_publ_section_title
;
Structure prediction by ZEFSAII (Michael W. Deem and Ramdas Pophale) SiO2 
 PCOD9274770
Probable space group: C 2/C
;
_chemical_formula_sum "Si O2"
_cell_formula_units_Z 56
_cell_length_a 15.713810
_cell_length_b 35.625576
_cell_length_c 5.208381
_cell_angle_alpha 90.000000
_cell_angle_beta 114.200227
_cell_angle_gamma 90.000000
_cell_volume 2659.484105
_symmetry_space_group_name_H-M "C 2/C"
_symmetry_group_IT_number 15
_symmetry_cell_setting 'monoclinic'
loop_
_space_group_symop_operation_xyz
x,y,z
-x,y,1/2-z
-x,-y,-z
x,-y,1/2+z
1/2+x,1/2+y,z
1/2-x,1/2+y,1/2-z
1/2-x,1/2-y,-z
1/2+x,1/2-y,1/2+z
loop_
_atom_site_type_symbol
_atom_site_label
_atom_site_fract_x
_atom_site_fract_y
_atom_site_fract_z
Si Si1 0.604626 0.983189 0.605658
Si Si2 0.934530 0.327626 0.918574
Si Si3 0.934107 0.246361 0.918193
Si Si4 0.433811 0.335997 0.418569
Si Si5 0.887723 0.978901 0.605960
Si Si6 0.825341 0.403027 0.877078
Si Si7 0.292630 0.404966 0.267255
O O1 0.606617 0.939041 0.558709
O O2 0.500000 0.000000 0.500000
O O3 0.651157 0.005070 0.428832
O O4 0.883786 0.286775 0.855231
O O5 0.870128 0.363826 0.850014
O O6 0.000000 0.329620 0.750000
O O7 0.000000 0.328837 0.250000
O O8 0.886605 0.205566 0.856531
O O9 0.000000 0.246597 0.750000
O O10 0.000000 0.246398 0.250000
O O11 0.500000 0.339737 0.250000
O O12 0.358659 0.368721 0.338781
O O13 0.500000 0.338153 0.750000
O O14 0.847979 0.940299 0.448691
O O15 0.000000 0.976360 0.750000
O O16 0.860467 0.010276 0.361438
O O17 0.746283 0.411200 0.566646
O O18 0.788853 0.399439 0.122357
#
# Coordination Sequence:
#
# PCOD9274770 Si02
#       7
#     8   8   8   8   8   8   8
#     4  10  23  40  61  82 109 149 207 247 294 351
#     4  10  21  38  64  84 117 156 206 250 298 350
#     4   8  16  33  58  90 111 150 202 249 283 344
#     4  10  20  38  65  89 121 159 203 239 289 365
#     4  10  22  40  63  85 112 155 201 238 287 360
#     4  12  26  39  59  89 125 156 198 253 307 358
#     4  12  25  40  58  92 128 155 192 250 312 349
#
# _framework density 21.056716000000002
#
# number of rings (size 3 to 8) (size 9 to 14) (size 15 to 20)
#    0.000    1.714    0.000    3.857    4.000    5.143 
#    0.000    1.429    0.000    0.000    0.000    0.000 
#    0.000    0.000    0.000    0.000    0.000    0.000 
#
# Total GULP energy -156356.563682 kJ/mol
# GULP energy per Si atom -5584.162989 kJ/mol
# Density = 2.100879 g / cm^3
# Si number density = 21.056716 Si / 1000 Ang^3
#
#
#
# Elastic Constant Matrix: (Units=GPa)
#
#
# Indices 1 2 3 4 5 6 
#
# 1 47.0175 40.6164 25.0067 0.0000 -11.3802 0.0000
# 2 40.6164 193.1045 -1.0902 0.0000 9.9801 0.0000
# 3 25.0067 -1.0902 83.3830 0.0000 -27.8127 0.0000
# 4 0.0000 0.0000 0.0000 -5.0369 0.0000 -24.7689
# 5 -11.3802 9.9801 -27.8127 0.0000 39.0070 0.0000
# 6 0.0000 0.0000 0.0000 -24.7689 0.0000 -2.8638
#
#
#
# Elastic Compliance Matrix: (Units=1/GPa)
#
#
# Indices 1 2 3 4 5 6 
#
# 1 0.033384 -0.007367 -0.008175 0.000000 0.005796 0.000000
# 2 -0.007367 0.006890 0.001305 0.000000 -0.002982 0.000000
# 3 -0.008175 0.001305 0.017784 0.000000 0.009962 0.000000
# 4 0.000000 0.000000 0.000000 0.004780 0.000000 -0.041345
# 5 0.005796 -0.002982 0.009962 0.000000 0.035193 0.000000
# 6 0.000000 0.000000 0.000000 -0.041345 0.000000 0.008408
#
#
# Mechanical properties :
#
#
# Convention : Reuss Voigt Hill
#
# Bulk Modulus (GPa) = 33.80320 50.28565 42.04443
# Shear Modulus (GPa) = 34.53642 23.48608 29.01125
#
# Velocity S-wave (km/s) = 4.05428 3.34334 3.71586
# Velocity P-wave (km/s) = 6.16478 6.23192 6.19844
#
# Compressibility (1/GPa) = 0.02958299
#
# Stress axis : x y z
#
# Youngs Moduli (GPa) = 29.95462 145.14576 56.22926
#
# Poissons Ratio (x) = 1.06935 0.45967
# Poissons Ratio (y) = 0.22069 -0.07338
# Poissons Ratio (z) = 0.24488 -0.18942
#
# Static dielectric constant tensor:
#      x y z
#    x 1.692520 0.000000 -0.044140 
#    y 0.000000 1.785110 0.000000 
#    z -0.044140 0.000000 1.777160 
# 
# From -- ./inp_files/12219.got.cif
#   From: 2010.05.17/outbox.cif.g08.bks.cpg/sg15_7_cif.got.tgz:12219.got - 2010.06.03 18:47:42.
