data_PCOD9274274
_publ_section_title
;
Structure prediction by ZEFSAII (Michael W. Deem and Ramdas Pophale) SiO2 
 PCOD9274274
Probable space group: C 2/C
;
_chemical_formula_sum "Si O2"
_cell_formula_units_Z 52
_cell_length_a 8.204892
_cell_length_b 25.245936
_cell_length_c 12.142679
_cell_angle_alpha 90.000000
_cell_angle_beta 129.181540
_cell_angle_gamma 90.000000
_cell_volume 1949.680895
_symmetry_space_group_name_H-M "C 2/C"
_symmetry_group_IT_number 15
_symmetry_cell_setting 'monoclinic'
loop_
_space_group_symop_operation_xyz
x,y,z
-x,y,1/2-z
-x,-y,-z
x,-y,1/2+z
1/2+x,1/2+y,z
1/2-x,1/2+y,1/2-z
1/2-x,1/2-y,-z
1/2+x,1/2-y,1/2+z
loop_
_atom_site_type_symbol
_atom_site_label
_atom_site_fract_x
_atom_site_fract_y
_atom_site_fract_z
Si Si1 0.500000 0.859015 0.750000
Si Si2 0.595466 0.543919 0.665729
Si Si3 0.195445 0.065711 0.261908
Si Si4 0.478179 0.084198 0.933654
Si Si5 0.812433 0.231216 0.831232
Si Si6 0.152797 0.147330 0.954060
Si Si7 0.882378 0.694784 0.533198
O O1 0.651528 0.896781 0.742121
O O2 0.321554 0.827903 0.609548
O O3 0.500000 0.541708 0.750000
O O4 0.600488 0.481022 0.644249
O O5 0.841268 0.556670 0.783149
O O6 0.484773 0.595900 0.567363
O O7 0.366444 0.047913 0.428382
O O8 0.000000 0.088089 0.250000
O O9 0.303528 0.118636 0.928975
O O10 0.615154 0.132112 0.948991
O O11 0.604088 0.219126 0.672398
O O12 0.786128 0.211103 0.946719
O O13 0.997298 0.195348 0.862532
O O14 0.842240 0.291438 0.886924
#
# Coordination Sequence:
#
# PCOD9274274 Si02
#       7
#     4   8   8   8   8   8   8
#     4  10  24  40  56  96 128 160 216 266 312 384
#     4   9  18  37  63  85 121 162 204 256 313 371
#     4  10  22  39  60  90 127 168 206 259 319 372
#     4  10  20  38  62  90 116 160 207 256 311 379
#     4  10  22  41  61  90 127 163 207 265 318 382
#     4  10  21  39  62  84 125 161 204 264 315 371
#     4  10  22  39  62  93 123 163 212 257 320 388
#
# _framework density 26.671030999999999
#
# number of rings (size 3 to 8) (size 9 to 14) (size 15 to 20)
#    0.000    2.154    1.538    0.462    2.154    4.923 
#    5.538    0.000    0.000    0.000    0.000    0.000 
#    0.000    0.000    0.000    0.000    0.000    0.000 
#
# Total GULP energy -144868.358693 kJ/mol
# GULP energy per Si atom -5571.859950 kJ/mol
# Density = 2.661033 g / cm^3
# Si number density = 26.671031 Si / 1000 Ang^3
#
#
#
# Elastic Constant Matrix: (Units=GPa)
#
#
# Indices 1 2 3 4 5 6 
#
# 1 115.1441 27.0851 33.2346 0.0000 26.2145 0.0000
# 2 27.0851 70.8925 7.6950 0.0000 -0.0654 0.0000
# 3 33.2346 7.6950 108.1746 0.0000 13.9021 0.0000
# 4 0.0000 0.0000 0.0000 47.4299 0.0000 6.6539
# 5 26.2145 -0.0654 13.9021 0.0000 23.3472 0.0000
# 6 0.0000 0.0000 0.0000 6.6539 0.0000 25.2478
#
#
#
# Elastic Compliance Matrix: (Units=1/GPa)
#
#
# Indices 1 2 3 4 5 6 
#
# 1 0.013673 -0.005017 -0.002024 0.000000 -0.014161 0.000000
# 2 -0.005017 0.016067 -0.000359 0.000000 0.005892 0.000000
# 3 -0.002024 -0.000359 0.010395 0.000000 -0.003918 0.000000
# 4 0.000000 0.000000 0.000000 0.021893 0.000000 -0.005770
# 5 -0.014161 0.005892 -0.003918 0.000000 0.061082 0.000000
# 6 0.000000 0.000000 0.000000 -0.005770 0.000000 0.041128
#
#
# Mechanical properties :
#
#
# Convention : Reuss Voigt Hill
#
# Bulk Modulus (GPa) = 39.47016 47.80451 43.63734
# Shear Modulus (GPa) = 26.66892 34.28474 30.47683
#
# Velocity S-wave (km/s) = 3.16558 3.58923 3.38404
# Velocity P-wave (km/s) = 5.30964 5.92785 5.62724
#
# Compressibility (1/GPa) = 0.02533559
#
# Stress axis : x y z
#
# Youngs Moduli (GPa) = 73.13535 62.23870 96.19809
#
# Poissons Ratio (x) = 0.31227 0.19470
# Poissons Ratio (y) = 0.36695 0.03451
# Poissons Ratio (z) = 0.14802 0.02232
#
# Static dielectric constant tensor:
#      x y z
#    x 2.221800 0.000000 -0.109990 
#    y 0.000000 2.432350 0.000000 
#    z -0.109990 0.000000 2.217380 
# 
# From -- ./inp_files/139898.got.cif
#   From: 2010.05.17/outbox.cif.g08.bks.cpg/sg15_70_cif.got.tgz:139898.got - 2010.06.03 18:47:42.
