data_PCOD9274118
_publ_section_title
;
Structure prediction by ZEFSAII (Michael W. Deem and Ramdas Pophale) SiO2 
 PCOD9274118
Probable space group: C 2/C
;
_chemical_formula_sum "Si O2"
_cell_formula_units_Z 56
_cell_length_a 23.039622
_cell_length_b 14.597606
_cell_length_c 8.307979
_cell_angle_alpha 90.000000
_cell_angle_beta 117.743927
_cell_angle_gamma 90.000000
_cell_volume 2472.941239
_symmetry_space_group_name_H-M "C 2/C"
_symmetry_group_IT_number 15
_symmetry_cell_setting 'monoclinic'
loop_
_space_group_symop_operation_xyz
x,y,z
-x,y,1/2-z
-x,-y,-z
x,-y,1/2+z
1/2+x,1/2+y,z
1/2-x,1/2+y,1/2-z
1/2-x,1/2-y,-z
1/2+x,1/2-y,1/2+z
loop_
_atom_site_type_symbol
_atom_site_label
_atom_site_fract_x
_atom_site_fract_y
_atom_site_fract_z
Si Si1 0.882521 0.879748 0.190390
Si Si2 0.578922 0.270957 0.823813
Si Si3 0.111966 0.677452 0.196434
Si Si4 0.632862 0.124672 0.676124
Si Si5 0.735022 0.851931 0.041817
Si Si6 0.070611 0.039961 0.422835
Si Si7 0.569385 0.984661 0.803779
O O1 0.895052 0.770248 0.204672
O O2 0.805968 0.897518 0.131397
O O3 0.925844 0.922236 0.391463
O O4 0.898420 0.940142 0.055894
O O5 0.500000 0.270092 0.750000
O O6 0.600643 0.219242 0.691826
O O7 0.603227 0.375753 0.866349
O O8 0.610010 0.217284 0.015977
O O9 0.178484 0.625284 0.338146
O O10 0.059495 0.598459 0.163009
O O11 0.701769 0.141504 0.674879
O O12 0.592274 0.069970 0.489703
O O13 0.623356 0.057350 0.815765
O O14 0.750000 0.750000 0.000000
O O15 0.000000 0.033200 0.250000
O O16 0.500000 0.031340 0.750000
#
# Coordination Sequence:
#
# PCOD9274118 Si02
#       7
#     8   8   8   8   8   8   8
#     4  10  21  39  60  85 119 158 198 254 309 364
#     4  10  20  38  61  91 127 165 207 259 317 369
#     4   9  20  38  58  83 123 163 205 258 303 362
#     4  11  22  36  58  84 119 161 201 257 306 359
#     4   9  21  41  59  83 116 155 205 250 299 366
#     4  10  22  38  62  92 120 153 202 252 310 377
#     4  11  21  34  55  86 117 157 205 250 307 369
#
# _framework density 22.645099999999999
#
# number of rings (size 3 to 8) (size 9 to 14) (size 15 to 20)
#    0.000    2.000    0.000    3.000    0.000    6.286 
#    0.000    9.286    0.000    0.000    0.000    0.000 
#    0.000    0.000    0.000    0.000    0.000    0.000 
#
# Total GULP energy -156081.962777 kJ/mol
# GULP energy per Si atom -5574.355813 kJ/mol
# Density = 2.259356 g / cm^3
# Si number density = 22.645100 Si / 1000 Ang^3
#
#
#
# Elastic Constant Matrix: (Units=GPa)
#
#
# Indices 1 2 3 4 5 6 
#
# 1 65.7241 21.5659 3.5228 0.0000 2.9299 0.0000
# 2 21.5659 116.4136 7.3486 0.0000 -17.5743 0.0000
# 3 3.5228 7.3486 61.7525 0.0000 1.0213 0.0000
# 4 0.0000 0.0000 0.0000 25.5625 0.0000 -22.3648
# 5 2.9299 -17.5743 1.0213 0.0000 25.0896 0.0000
# 6 0.0000 0.0000 0.0000 -22.3648 0.0000 29.8647
#
#
#
# Elastic Compliance Matrix: (Units=1/GPa)
#
#
# Indices 1 2 3 4 5 6 
#
# 1 0.016671 -0.003749 -0.000430 0.000000 -0.004555 0.000000
# 2 -0.003749 0.010547 -0.001171 0.000000 0.007873 0.000000
# 3 -0.000430 -0.001171 0.016381 0.000000 -0.001437 0.000000
# 4 0.000000 0.000000 0.000000 0.113453 0.000000 0.084962
# 5 -0.004555 0.007873 -0.001437 0.000000 0.045963 0.000000
# 6 0.000000 0.000000 0.000000 0.084962 0.000000 0.097110
#
#
# Mechanical properties :
#
#
# Convention : Reuss Voigt Hill
#
# Bulk Modulus (GPa) = 30.39535 34.30720 32.35127
# Shear Modulus (GPa) = 15.53799 30.20023 22.86911
#
# Velocity S-wave (km/s) = 2.62229 3.65585 3.18133
# Velocity P-wave (km/s) = 4.75607 5.74484 5.27368
#
# Compressibility (1/GPa) = 0.03289977
#
# Stress axis : x y z
#
# Youngs Moduli (GPa) = 59.98307 94.81274 61.04497
#
# Poissons Ratio (x) = 0.35545 0.02622
# Poissons Ratio (y) = 0.22488 0.07151
# Poissons Ratio (z) = 0.02577 0.11107
#
# Static dielectric constant tensor:
#      x y z
#    x 1.990350 0.000000 -0.022130 
#    y 0.000000 1.901550 0.000000 
#    z -0.022130 0.000000 1.900930 
# 
# From -- ./inp_files/61610.got.cif
#   From: 2010.05.17/outbox.cif.g08.bks.cpg/sg15_31_cif.got.tgz:61610.got - 2010.06.03 18:47:42.
