data_PCOD9274908
_publ_section_title
;
Structure prediction by ZEFSAII (Michael W. Deem and Ramdas Pophale) SiO2 
 PCOD9274908
Probable space group: C 2/C
;
_chemical_formula_sum "Si O2"
_cell_formula_units_Z 60
_cell_length_a 7.804305
_cell_length_b 14.155014
_cell_length_c 23.646638
_cell_angle_alpha 90.000000
_cell_angle_beta 97.223409
_cell_angle_gamma 90.000000
_cell_volume 2591.512886
_symmetry_space_group_name_H-M "C 2/C"
_symmetry_group_IT_number 15
_symmetry_cell_setting 'monoclinic'
loop_
_space_group_symop_operation_xyz
x,y,z
-x,y,1/2-z
-x,-y,-z
x,-y,1/2+z
1/2+x,1/2+y,z
1/2-x,1/2+y,1/2-z
1/2-x,1/2-y,-z
1/2+x,1/2-y,1/2+z
loop_
_atom_site_type_symbol
_atom_site_label
_atom_site_fract_x
_atom_site_fract_y
_atom_site_fract_z
Si Si1 0.201107 0.833551 0.392840
Si Si2 0.954505 0.792116 0.476204
Si Si3 0.500324 0.069842 0.054109
Si Si4 0.404100 0.209598 0.585449
Si Si5 0.763235 0.501872 0.833338
Si Si6 0.500000 0.988824 0.750000
Si Si7 0.560543 0.323157 0.810636
Si Si8 0.709944 0.876295 0.854551
O O1 0.410977 0.842017 0.403027
O O2 0.136743 0.918646 0.351691
O O3 0.156412 0.732540 0.364209
O O4 0.117038 0.836187 0.451216
O O5 0.964315 0.678296 0.463826
O O6 0.773235 0.832848 0.445981
O O7 0.949338 0.794299 0.543370
O O8 0.329233 0.072429 0.087153
O O9 0.642391 0.039069 0.106593
O O10 0.500000 0.000000 0.000000
O O11 0.355621 0.247891 0.644589
O O12 0.681121 0.410573 0.801542
O O13 0.878506 0.545954 0.787963
O O14 0.600995 0.924879 0.800259
O O15 0.500000 0.278877 0.750000
O O16 0.403161 0.367084 0.840041
#
# Coordination Sequence:
#
# PCOD9274908 Si02
#       8
#     8   8   8   8   8   4   8   8
#     4  10  22  40  61  92 125 162 205 265 312 372
#     4  10  20  40  65  91 130 165 209 258 311 386
#     4  10  20  38  66  92 125 165 203 259 321 374
#     4  10  21  39  64  93 122 170 211 250 312 375
#     4  11  22  40  60  92 126 155 209 261 314 368
#     4  10  20  42  62  82 120 168 206 254 310 382
#     4  11  21  40  63  87 123 165 211 258 308 373
#     4   9  21  40  65  86 119 169 209 247 317 375
#
# _framework density 23.152498999999999
#
# number of rings (size 3 to 8) (size 9 to 14) (size 15 to 20)
#    0.000    1.867    2.667    1.200    0.000    2.133 
#   15.600    1.333    0.000    0.000    0.000    0.000 
#    0.000    0.000    0.000    0.000    0.000    0.000 
#
# Total GULP energy -167385.265869 kJ/mol
# GULP energy per Si atom -5579.508862 kJ/mol
# Density = 2.309980 g / cm^3
# Si number density = 23.152499 Si / 1000 Ang^3
#
#
#
# Elastic Constant Matrix: (Units=GPa)
#
#
# Indices 1 2 3 4 5 6 
#
# 1 44.0192 -4.8268 13.2012 0.0000 -16.9534 0.0000
# 2 -4.8268 34.9991 23.0535 0.0000 -0.5479 0.0000
# 3 13.2012 23.0535 159.1057 0.0000 -12.4836 0.0000
# 4 0.0000 0.0000 0.0000 26.3376 0.0000 -5.5484
# 5 -16.9534 -0.5479 -12.4836 0.0000 35.1553 0.0000
# 6 0.0000 0.0000 0.0000 -5.5484 0.0000 12.7953
#
#
#
# Elastic Compliance Matrix: (Units=1/GPa)
#
#
# Indices 1 2 3 4 5 6 
#
# 1 0.029144 0.005672 -0.002191 0.000000 0.013365 0.000000
# 2 0.005672 0.032737 -0.005102 0.000000 0.001434 0.000000
# 3 -0.002191 -0.005102 0.007321 0.000000 0.001463 0.000000
# 4 0.000000 0.000000 0.000000 0.041786 0.000000 0.018119
# 5 0.013365 0.001434 0.001463 0.000000 0.035432 0.000000
# 6 0.000000 0.000000 0.000000 0.018119 0.000000 0.086011
#
#
# Mechanical properties :
#
#
# Convention : Reuss Voigt Hill
#
# Bulk Modulus (GPa) = 15.16075 33.44219 24.30147
# Shear Modulus (GPa) = 19.40548 28.63737 24.02143
#
# Velocity S-wave (km/s) = 2.89824 3.52078 3.22457
# Velocity P-wave (km/s) = 4.21452 5.56808 4.93790
#
# Compressibility (1/GPa) = 0.06595979
#
# Stress axis : x y z
#
# Youngs Moduli (GPa) = 34.31274 30.54638 136.59437
#
# Poissons Ratio (x) = -0.17325 0.29932
# Poissons Ratio (y) = -0.19462 0.69684
# Poissons Ratio (z) = 0.07519 0.15583
#
# Static dielectric constant tensor:
#      x y z
#    x 1.957200 0.000000 -0.008870 
#    y 0.000000 1.903130 0.000000 
#    z -0.008870 0.000000 1.889420 
# 
# From -- ./inp_files/264329.got.cif
#   From: 2010.05.17/outbox.cif.g08.bks.cpg/sg15_133_cif.got.tgz:264329.got - 2010.06.03 18:47:42.
