data_PCOD9274061
_publ_section_title
;
Structure prediction by ZEFSAII (Michael W. Deem and Ramdas Pophale) SiO2 
 PCOD9274061
Probable space group: C 2/C
;
_chemical_formula_sum "Si O2"
_cell_formula_units_Z 32
_cell_length_a 21.178118
_cell_length_b 12.896403
_cell_length_c 15.044317
_cell_angle_alpha 90.000000
_cell_angle_beta 19.666672
_cell_angle_gamma 90.000000
_cell_volume 1382.849403
_symmetry_space_group_name_H-M "C 2/C"
_symmetry_group_IT_number 15
_symmetry_cell_setting 'monoclinic'
loop_
_space_group_symop_operation_xyz
x,y,z
-x,y,1/2-z
-x,-y,-z
x,-y,1/2+z
1/2+x,1/2+y,z
1/2-x,1/2+y,1/2-z
1/2-x,1/2-y,-z
1/2+x,1/2-y,1/2+z
loop_
_atom_site_type_symbol
_atom_site_label
_atom_site_fract_x
_atom_site_fract_y
_atom_site_fract_z
Si Si1 0.200298 0.300522 0.347769
Si Si2 0.784253 0.174335 0.538315
Si Si3 0.614318 0.336921 0.221705
Si Si4 0.586380 0.987687 0.730410
O O1 0.261843 0.280004 0.166555
O O2 0.360965 0.329203 0.204514
O O3 0.094232 0.197680 0.523908
O O4 0.050570 0.396213 0.553022
O O5 0.750000 0.250000 0.500000
O O6 0.628909 0.083967 0.736078
O O7 0.000000 0.137426 0.250000
O O8 0.750000 0.250000 0.000000
O O9 0.707876 0.441303 0.064688
O O10 0.500000 0.020975 0.750000
#
# Coordination Sequence:
#
# PCOD9274061 Si02
#       4
#     8   8   8   8
#     4  10  20  38  61  87 116 151 187 234 288 337
#     4  12  25  40  56  82 119 158 193 230 280 343
#     4   9  18  35  62  90 113 141 187 240 286 333
#     4   9  20  39  61  85 114 146 190 242 286 333
#
# _framework density 23.140626000000001
#
# number of rings (size 3 to 8) (size 9 to 14) (size 15 to 20)
#    0.000    2.000    0.000    5.250    0.000    4.000 
#    0.000   16.250    0.000    0.000    0.000    0.000 
#    0.000    0.000    0.000    0.000    0.000    0.000 
#
# Total GULP energy -89346.439859 kJ/mol
# GULP energy per Si atom -5584.152491 kJ/mol
# Density = 2.308796 g / cm^3
# Si number density = 23.140626 Si / 1000 Ang^3
#
#
#
# Elastic Constant Matrix: (Units=GPa)
#
#
# Indices 1 2 3 4 5 6 
#
# 1 122.2259 17.6620 15.7673 -0.0002 18.1361 0.0002
# 2 17.6620 27.1915 -7.4032 -0.0006 -16.0429 0.0001
# 3 15.7673 -7.4032 51.9276 -0.0007 -4.6033 0.0003
# 4 -0.0002 -0.0006 -0.0007 13.3351 0.0001 -4.9765
# 5 18.1361 -16.0429 -4.6033 0.0001 38.5517 -0.0001
# 6 0.0002 0.0001 0.0003 -4.9765 -0.0001 29.7339
#
#
#
# Elastic Compliance Matrix: (Units=1/GPa)
#
#
# Indices 1 2 3 4 5 6 
#
# 1 0.015527 -0.023475 -0.009677 -0.000001 -0.018229 0.000000
# 2 -0.023475 0.088612 0.024266 0.000005 0.050816 0.000001
# 3 -0.009677 0.024266 0.027243 0.000002 0.017904 0.000000
# 4 -0.000001 0.000005 0.000002 0.079986 0.000003 0.013387
# 5 -0.018229 0.050816 0.017904 0.000003 0.057799 0.000001
# 6 0.000000 0.000001 0.000000 0.013387 0.000001 0.035872
#
#
# Mechanical properties :
#
#
# Convention : Reuss Voigt Hill
#
# Bulk Modulus (GPa) = 8.80214 28.15525 18.47870
# Shear Modulus (GPa) = 13.86260 28.01207 20.93733
#
# Velocity S-wave (km/s) = 2.45022 3.48302 3.01123
# Velocity P-wave (km/s) = 3.43756 5.32622 4.48249
#
# Compressibility (1/GPa) = 0.11360869
#
# Stress axis : x y z
#
# Youngs Moduli (GPa) = 64.40370 11.28512 36.70710
#
# Poissons Ratio (x) = 0.26492 0.35523
# Poissons Ratio (y) = 1.51189 -0.89073
# Poissons Ratio (z) = 0.62326 -0.27384
#
# Static dielectric constant tensor:
#      x y z
#    x 1.867890 0.000000 -0.006420 
#    y 0.000000 1.851870 0.000000 
#    z -0.006420 0.000000 1.878950 
# 
# From -- ./inp_files/27613.got.cif
#   From: 2010.05.17/outbox.cif.g08.bks.cpg/sg15_14_cif.got.tgz:27613.got - 2010.06.03 18:47:42.
