data_PCOD9274318
_publ_section_title
;
Structure prediction by ZEFSAII (Michael W. Deem and Ramdas Pophale) SiO2 
 PCOD9274318
Probable space group: C 2/C
;
_chemical_formula_sum "Si O2"
_cell_formula_units_Z 48
_cell_length_a 15.781171
_cell_length_b 18.964736
_cell_length_c 8.566655
_cell_angle_alpha 90.000000
_cell_angle_beta 91.901293
_cell_angle_gamma 90.000000
_cell_volume 2562.466198
_symmetry_space_group_name_H-M "C 2/C"
_symmetry_group_IT_number 15
_symmetry_cell_setting 'monoclinic'
loop_
_space_group_symop_operation_xyz
x,y,z
-x,y,1/2-z
-x,-y,-z
x,-y,1/2+z
1/2+x,1/2+y,z
1/2-x,1/2+y,1/2-z
1/2-x,1/2-y,-z
1/2+x,1/2-y,1/2+z
loop_
_atom_site_type_symbol
_atom_site_label
_atom_site_fract_x
_atom_site_fract_y
_atom_site_fract_z
Si Si1 0.025180 0.597888 0.434968
Si Si2 0.152823 0.576028 0.974719
Si Si3 0.684649 0.305921 0.574672
Si Si4 0.989931 0.237402 0.564955
Si Si5 0.795783 0.560508 0.156846
Si Si6 0.338653 0.760689 0.090618
O O1 0.121769 0.574792 0.446307
O O2 0.000000 0.592337 0.250000
O O3 0.949282 0.561789 0.526435
O O4 0.027410 0.680600 0.476107
O O5 0.183738 0.574466 0.158446
O O6 0.210598 0.522985 0.877456
O O7 0.153637 0.654823 0.907935
O O8 0.750000 0.250000 0.500000
O O9 0.592871 0.306248 0.487428
O O10 0.726065 0.383302 0.597267
O O11 0.667614 0.273822 0.742663
O O12 0.080988 0.225324 0.491060
O O13 0.000000 0.232407 0.750000
O O14 0.250000 0.750000 0.000000
#
# Coordination Sequence:
#
# PCOD9274318 Si02
#       6
#     8   8   8   8   8   8
#     4   8  16  33  54  82 123 159 192 240 299 368
#     4  10  22  36  58  85 126 164 202 252 306 369
#     4  12  23  37  62  93 126 166 209 252 306 377
#     4  10  20  38  62  92 123 157 206 262 311 361
#     4  11  21  37  55  90 125 164 202 245 310 372
#     4  11  22  41  62  91 121 160 208 260 310 358
#
# _framework density 18.731954000000002
#
# number of rings (size 3 to 8) (size 9 to 14) (size 15 to 20)
#    0.000    1.667    3.333    3.000    2.333    0.000 
#    0.000    1.667    0.000    1.000    0.000    0.000 
#    0.000    0.000    0.000    0.000    0.000    0.000 
#
# Total GULP energy -133778.671251 kJ/mol
# GULP energy per Si atom -5574.111302 kJ/mol
# Density = 1.868932 g / cm^3
# Si number density = 18.731954 Si / 1000 Ang^3
#
#
#
# Elastic Constant Matrix: (Units=GPa)
#
#
# Indices 1 2 3 4 5 6 
#
# 1 128.5106 51.4176 33.4860 0.0000 -0.2985 0.0000
# 2 51.4176 96.5924 25.9982 0.0000 -3.2536 0.0000
# 3 33.4860 25.9982 47.8134 0.0000 -11.2385 0.0000
# 4 0.0000 0.0000 0.0000 22.9610 0.0000 -6.3146
# 5 -0.2985 -3.2536 -11.2385 0.0000 33.8181 0.0000
# 6 0.0000 0.0000 0.0000 -6.3146 0.0000 33.4862
#
#
#
# Elastic Compliance Matrix: (Units=1/GPa)
#
#
# Indices 1 2 3 4 5 6 
#
# 1 0.011067 -0.004378 -0.005908 0.000000 -0.002287 0.000000
# 2 -0.004378 0.013898 -0.004540 0.000000 -0.000210 0.000000
# 3 -0.005908 -0.004540 0.029728 0.000000 0.009390 0.000000
# 4 0.000000 0.000000 0.000000 0.045934 0.000000 0.008662
# 5 -0.002287 -0.000210 0.009390 0.000000 0.032650 0.000000
# 6 0.000000 0.000000 0.000000 0.008662 0.000000 0.031496
#
#
# Mechanical properties :
#
#
# Convention : Reuss Voigt Hill
#
# Bulk Modulus (GPa) = 39.93441 54.96889 47.45165
# Shear Modulus (GPa) = 24.65793 28.85402 26.75597
#
# Velocity S-wave (km/s) = 3.63210 3.92900 3.78347
# Velocity P-wave (km/s) = 6.24137 7.07046 6.66881
#
# Compressibility (1/GPa) = 0.02504106
#
# Stress axis : x y z
#
# Youngs Moduli (GPa) = 90.35628 71.95117 33.63815
#
# Poissons Ratio (x) = 0.31502 0.19873
# Poissons Ratio (y) = 0.39560 0.15273
# Poissons Ratio (z) = 0.53381 0.32668
#
# Static dielectric constant tensor:
#      x y z
#    x 1.702250 0.000000 -0.019230 
#    y 0.000000 1.729920 0.000000 
#    z -0.019230 0.000000 1.655090 
# 
# From -- ./inp_files/39652.got.cif
#   From: 2010.05.17/outbox.cif.g08.bks.cpg/sg15_20_cif.got.tgz:39652.got - 2010.06.03 18:47:42.
