data_PCOD9274035
_publ_section_title
;
Structure prediction by ZEFSAII (Michael W. Deem and Ramdas Pophale) SiO2 
 PCOD9274035
Probable space group: C 2/C
;
_chemical_formula_sum "Si O2"
_cell_formula_units_Z 48
_cell_length_a 10.806409
_cell_length_b 15.937992
_cell_length_c 14.997556
_cell_angle_alpha 90.000000
_cell_angle_beta 89.055404
_cell_angle_gamma 90.000000
_cell_volume 2582.714938
_symmetry_space_group_name_H-M "C 2/C"
_symmetry_group_IT_number 15
_symmetry_cell_setting 'monoclinic'
loop_
_space_group_symop_operation_xyz
x,y,z
-x,y,1/2-z
-x,-y,-z
x,-y,1/2+z
1/2+x,1/2+y,z
1/2-x,1/2+y,1/2-z
1/2-x,1/2-y,-z
1/2+x,1/2-y,1/2+z
loop_
_atom_site_type_symbol
_atom_site_label
_atom_site_fract_x
_atom_site_fract_y
_atom_site_fract_z
Si Si1 0.624287 0.823024 0.926235
Si Si2 0.575258 0.061429 0.157764
Si Si3 0.000000 0.002726 0.750000
Si Si4 0.159941 0.622317 0.621333
Si Si5 0.000000 0.725935 0.750000
Si Si6 0.070329 0.838690 0.334405
Si Si7 0.204735 0.860650 0.744781
O O1 0.517973 0.890897 0.906196
O O2 0.566724 0.730305 0.911682
O O3 0.729497 0.836814 0.849423
O O4 0.676039 0.839619 0.023175
O O5 0.500000 0.041454 0.250000
O O6 0.687008 0.121168 0.186811
O O7 0.630977 0.975976 0.118711
O O8 0.880918 0.943576 0.761082
O O9 0.989718 0.068208 0.666878
O O10 0.283961 0.640696 0.676720
O O11 0.045925 0.668432 0.669354
O O12 0.886592 0.786395 0.726275
O O13 0.000000 0.798009 0.250000
#
# Coordination Sequence:
#
# PCOD9274035 Si02
#       7
#     8   8   4   8   4   8   8
#     4  11  23  36  63  88 118 149 195 241 285 336
#     4  10  20  38  61  85 118 157 190 230 284 352
#     4   9  20  36  61  82 114 154 197 230 280 351
#     4  12  22  40  59  90 117 150 194 242 288 340
#     4  11  24  36  61  80 120 150 191 238 296 337
#     4  10  20  38  61  85 113 156 197 229 285 350
#     4  10  20  40  58  86 113 157 194 231 288 347
#
# _framework density 18.585094999999999
#
# number of rings (size 3 to 8) (size 9 to 14) (size 15 to 20)
#    0.500    1.000    4.167    2.500    0.000    0.000 
#    0.000    3.333    0.000    0.000    0.000    0.000 
#    0.000    0.000    0.000    0.000    0.000    0.000 
#
# Total GULP energy -133755.207830 kJ/mol
# GULP energy per Si atom -5573.133660 kJ/mol
# Density = 1.854279 g / cm^3
# Si number density = 18.585095 Si / 1000 Ang^3
#
#
#
# Elastic Constant Matrix: (Units=GPa)
#
#
# Indices 1 2 3 4 5 6 
#
# 1 95.5139 20.9693 29.1808 0.0000 14.9083 0.0000
# 2 20.9693 85.1972 12.6553 0.0000 1.8955 0.0000
# 3 29.1808 12.6553 55.4964 0.0000 12.5099 0.0000
# 4 0.0000 0.0000 0.0000 -14.1372 0.0000 0.4332
# 5 14.9083 1.8955 12.5099 0.0000 18.8397 0.0000
# 6 0.0000 0.0000 0.0000 0.4332 0.0000 12.6872
#
#
#
# Elastic Compliance Matrix: (Units=1/GPa)
#
#
# Indices 1 2 3 4 5 6 
#
# 1 0.013667 -0.002461 -0.004990 0.000000 -0.007254 0.000000
# 2 -0.002461 0.012601 -0.002038 0.000000 0.002033 0.000000
# 3 -0.004990 -0.002038 0.023722 0.000000 -0.011598 0.000000
# 4 0.000000 0.000000 0.000000 -0.070661 0.000000 0.002413
# 5 -0.007254 0.002033 -0.011598 0.000000 0.066317 0.000000
# 6 0.000000 0.000000 0.000000 0.002413 0.000000 0.078737
#
#
# Mechanical properties :
#
#
# Convention : Reuss Voigt Hill
#
# Bulk Modulus (GPa) = 32.24515 40.20205 36.22360
# Shear Modulus (GPa) = 32.53171 15.03807 23.78489
#
# Velocity S-wave (km/s) = 4.18834 2.84764 3.58129
# Velocity P-wave (km/s) = 6.38571 5.70003 6.05259
#
# Compressibility (1/GPa) = 0.03101242
#
# Stress axis : x y z
#
# Youngs Moduli (GPa) = 73.17075 79.36093 42.15502
#
# Poissons Ratio (x) = 0.19532 0.21034
# Poissons Ratio (y) = 0.18008 0.08589
# Poissons Ratio (z) = 0.36510 0.16170
#
# Static dielectric constant tensor:
#      x y z
#    x 1.635760 0.000000 0.010300 
#    y 0.000000 1.670910 0.000000 
#    z 0.010300 0.000000 1.618150 
# 
# From -- ./inp_files/143695.got.cif
#   From: 2010.05.17/outbox.cif.g08.bks.cpg/sg15_72_cif.got.tgz:143695.got - 2010.06.03 18:47:42.
