data_PCOD9274599
_publ_section_title
;
Structure prediction by ZEFSAII (Michael W. Deem and Ramdas Pophale) SiO2 
 PCOD9274599
Probable space group: C 2/C
;
_chemical_formula_sum "Si O2"
_cell_formula_units_Z 32
_cell_length_a 15.624521
_cell_length_b 13.829930
_cell_length_c 8.538564
_cell_angle_alpha 90.000000
_cell_angle_beta 49.308084
_cell_angle_gamma 90.000000
_cell_volume 1398.976426
_symmetry_space_group_name_H-M "C 2/C"
_symmetry_group_IT_number 15
_symmetry_cell_setting 'monoclinic'
loop_
_space_group_symop_operation_xyz
x,y,z
-x,y,1/2-z
-x,-y,-z
x,-y,1/2+z
1/2+x,1/2+y,z
1/2-x,1/2+y,1/2-z
1/2-x,1/2-y,-z
1/2+x,1/2-y,1/2+z
loop_
_atom_site_type_symbol
_atom_site_label
_atom_site_fract_x
_atom_site_fract_y
_atom_site_fract_z
Si Si1 0.300385 0.882103 0.518816
Si Si2 0.445643 0.405427 0.144381
Si Si3 0.094937 0.248350 0.338727
Si Si4 0.800945 0.428037 0.168891
O O1 0.197219 0.829635 0.727754
O O2 0.382972 0.799685 0.354578
O O3 0.261537 0.927340 0.397854
O O4 0.350930 0.968626 0.560230
O O5 0.500000 0.396822 0.250000
O O6 0.311186 0.412874 0.298726
O O7 0.500000 0.500000 0.000000
O O8 0.483959 0.311379 0.002486
O O9 0.115955 0.336391 0.434718
#
# Coordination Sequence:
#
# PCOD9274599 Si02
#       4
#     8   8   8   8
#     4   9  19  39  60  93 124 168 199 254 319 367
#     4  12  24  37  64  98 123 159 215 262 308 368
#     4   9  22  38  58  98 129 160 208 256 327 355
#     4  10  20  38  64  88 127 163 208 255 310 367
#
# _framework density 22.873866
#
# number of rings (size 3 to 8) (size 9 to 14) (size 15 to 20)
#    1.500    0.500    2.500    1.500    0.000    1.000 
#    0.000    0.000    0.000    6.000    0.000    0.000 
#    0.000    0.000    0.000    0.000    0.000    0.000 
#
# Total GULP energy -89275.047743 kJ/mol
# GULP energy per Si atom -5579.690484 kJ/mol
# Density = 2.282180 g / cm^3
# Si number density = 22.873866 Si / 1000 Ang^3
#
#
#
# Elastic Constant Matrix: (Units=GPa)
#
#
# Indices 1 2 3 4 5 6 
#
# 1 48.9767 23.7899 10.5479 0.0000 11.4566 0.0000
# 2 23.7899 167.6888 35.1783 0.0000 12.8960 0.0000
# 3 10.5479 35.1783 37.6406 0.0000 8.0843 0.0000
# 4 0.0000 0.0000 0.0000 47.0964 0.0000 19.7935
# 5 11.4566 12.8960 8.0843 0.0000 26.7116 0.0000
# 6 0.0000 0.0000 0.0000 19.7935 0.0000 38.8912
#
#
#
# Elastic Compliance Matrix: (Units=1/GPa)
#
#
# Indices 1 2 3 4 5 6 
#
# 1 0.024057 -0.002154 -0.002926 0.000000 -0.008393 0.000000
# 2 -0.002154 0.007674 -0.006386 0.000000 -0.000848 0.000000
# 3 -0.002926 -0.006386 0.034678 0.000000 -0.006157 0.000000
# 4 0.000000 0.000000 0.000000 0.027010 0.000000 -0.013747
# 5 -0.008393 -0.000848 -0.006157 0.000000 0.043310 0.000000
# 6 0.000000 0.000000 0.000000 -0.013747 0.000000 0.032709
#
#
# Mechanical properties :
#
#
# Convention : Reuss Voigt Hill
#
# Bulk Modulus (GPa) = 23.00054 43.70424 33.35239
# Shear Modulus (GPa) = 24.17059 34.85920 29.51489
#
# Velocity S-wave (km/s) = 3.25420 3.90805 3.59602
# Velocity P-wave (km/s) = 4.91904 6.28585 5.64397
#
# Compressibility (1/GPa) = 0.04347725
#
# Stress axis : x y z
#
# Youngs Moduli (GPa) = 41.56719 130.31134 28.83679
#
# Poissons Ratio (x) = 0.28065 0.08438
# Poissons Ratio (y) = 0.08952 0.18416
# Poissons Ratio (z) = 0.12163 0.83219
#
# Static dielectric constant tensor:
#      x y z
#    x 1.886690 0.000000 -0.015930 
#    y 0.000000 1.924350 0.000000 
#    z -0.015930 0.000000 1.898520 
# 
# From -- ./inp_files/27894.got.cif
#   From: 2010.05.17/outbox.cif.g08.bks.cpg/sg15_14_cif.got.tgz:27894.got - 2010.06.03 18:47:42.
