data_PCOD9274647
_publ_section_title
;
Structure prediction by ZEFSAII (Michael W. Deem and Ramdas Pophale) SiO2 
 PCOD9274647
Probable space group: C 2/C
;
_chemical_formula_sum "Si O2"
_cell_formula_units_Z 48
_cell_length_a 16.909156
_cell_length_b 11.701375
_cell_length_c 12.676834
_cell_angle_alpha 90.000000
_cell_angle_beta 100.027780
_cell_angle_gamma 90.000000
_cell_volume 2469.925815
_symmetry_space_group_name_H-M "C 2/C"
_symmetry_group_IT_number 15
_symmetry_cell_setting 'monoclinic'
loop_
_space_group_symop_operation_xyz
x,y,z
-x,y,1/2-z
-x,-y,-z
x,-y,1/2+z
1/2+x,1/2+y,z
1/2-x,1/2+y,1/2-z
1/2-x,1/2-y,-z
1/2+x,1/2-y,1/2+z
loop_
_atom_site_type_symbol
_atom_site_label
_atom_site_fract_x
_atom_site_fract_y
_atom_site_fract_z
Si Si1 0.930191 0.018271 0.648567
Si Si2 0.373412 0.306943 0.504117
Si Si3 0.772574 0.148207 0.653253
Si Si4 0.338630 0.118864 0.074509
Si Si5 0.704330 0.127326 0.862606
Si Si6 0.993750 0.258902 0.621276
O O1 0.918972 0.911816 0.569677
O O2 0.000000 0.996685 0.750000
O O3 0.845205 0.056488 0.681323
O O4 0.955811 0.133339 0.593630
O O5 0.352204 0.215682 0.589372
O O6 0.291337 0.357784 0.437702
O O7 0.423276 0.245998 0.422397
O O8 0.718133 0.115493 0.540854
O O9 0.810033 0.272609 0.637369
O O10 0.718914 0.154051 0.744276
O O11 0.430679 0.147107 0.067708
O O12 0.327957 0.000344 0.131455
O O13 0.000000 0.270685 0.750000
#
# Coordination Sequence:
#
# PCOD9274647 Si02
#       6
#     8   8   8   8   8   8
#     4  10  20  38  64  91 124 165 206 272 319 375
#     4  11  23  39  59  96 127 165 222 259 324 378
#     4  10  22  40  62  95 125 164 218 258 327 379
#     4  10  22  41  64  90 126 173 212 261 321 394
#     4  11  24  39  65  90 130 171 208 274 313 390
#     4  10  22  41  63  89 126 171 210 266 328 378
#
# _framework density 19.433782999999998
#
# number of rings (size 3 to 8) (size 9 to 14) (size 15 to 20)
#    0.000    1.667    1.667    3.500    2.333    3.333 
#    0.000    0.833    0.000    0.000    0.000    0.000 
#    0.000    0.000    0.000    0.000    0.000    0.000 
#
# Total GULP energy -134039.093544 kJ/mol
# GULP energy per Si atom -5584.962231 kJ/mol
# Density = 1.938955 g / cm^3
# Si number density = 19.433783 Si / 1000 Ang^3
#
#
#
# Elastic Constant Matrix: (Units=GPa)
#
#
# Indices 1 2 3 4 5 6 
#
# 1 96.6494 31.3687 35.1555 0.0000 -8.9473 0.0000
# 2 31.3687 58.7006 39.7428 0.0000 5.0133 0.0000
# 3 35.1555 39.7428 89.1992 0.0000 -19.3869 0.0000
# 4 0.0000 0.0000 0.0000 13.9462 0.0000 0.2348
# 5 -8.9473 5.0133 -19.3869 0.0000 34.9432 0.0000
# 6 0.0000 0.0000 0.0000 0.2348 0.0000 13.1350
#
#
#
# Elastic Compliance Matrix: (Units=1/GPa)
#
#
# Indices 1 2 3 4 5 6 
#
# 1 0.013308 -0.006205 -0.001758 0.000000 0.003322 0.000000
# 2 -0.006205 0.031523 -0.014700 0.000000 -0.014267 0.000000
# 3 -0.001758 -0.014700 0.021394 0.000000 0.013528 0.000000
# 4 0.000000 0.000000 0.000000 0.071725 0.000000 -0.001282
# 5 0.003322 -0.014267 0.013528 0.000000 0.039021 0.000000
# 6 0.000000 0.000000 0.000000 -0.001282 0.000000 0.076155
#
#
# Mechanical properties :
#
#
# Convention : Reuss Voigt Hill
#
# Bulk Modulus (GPa) = 47.85286 50.78703 49.31994
# Shear Modulus (GPa) = 16.37098 21.62370 18.99734
#
# Velocity S-wave (km/s) = 2.90556 3.33931 3.12996
# Velocity P-wave (km/s) = 5.99444 6.40766 6.20449
#
# Compressibility (1/GPa) = 0.02089739
#
# Stress axis : x y z
#
# Youngs Moduli (GPa) = 75.14507 31.72337 46.74224
#
# Poissons Ratio (x) = 0.19683 0.08219
# Poissons Ratio (y) = 0.46625 0.68713
# Poissons Ratio (z) = 0.13213 0.46634
#
# Static dielectric constant tensor:
#      x y z
#    x 1.713560 0.000000 0.003710 
#    y 0.000000 1.650230 0.000000 
#    z 0.003710 0.000000 1.664280 
# 
# From -- ./inp_files/103763.got.cif
#   From: 2010.05.17/outbox.cif.g08.bks.cpg/sg15_52_cif.got.tgz:103763.got - 2010.06.03 18:47:42.
