data_PCOD9274674
_publ_section_title
;
Structure prediction by ZEFSAII (Michael W. Deem and Ramdas Pophale) SiO2 
 PCOD9274674
Probable space group: C 2/C
;
_chemical_formula_sum "Si O2"
_cell_formula_units_Z 24
_cell_length_a 21.092923
_cell_length_b 7.735377
_cell_length_c 14.111695
_cell_angle_alpha 90.000000
_cell_angle_beta 21.691625
_cell_angle_gamma 90.000000
_cell_volume 851.024869
_symmetry_space_group_name_H-M "C 2/C"
_symmetry_group_IT_number 15
_symmetry_cell_setting 'monoclinic'
loop_
_space_group_symop_operation_xyz
x,y,z
-x,y,1/2-z
-x,-y,-z
x,-y,1/2+z
1/2+x,1/2+y,z
1/2-x,1/2+y,1/2-z
1/2-x,1/2-y,-z
1/2+x,1/2-y,1/2+z
loop_
_atom_site_type_symbol
_atom_site_label
_atom_site_fract_x
_atom_site_fract_y
_atom_site_fract_z
Si Si1 0.821080 0.094600 0.960637
Si Si2 0.265284 0.065723 0.208017
Si Si3 0.969166 0.202688 0.122736
O O1 0.000000 0.164905 0.750000
O O2 0.867434 0.922958 0.836654
O O3 0.750000 0.250000 0.000000
O O4 0.725872 0.059527 0.190125
O O5 0.144596 0.197891 0.314316
O O6 0.462492 0.125897 0.917747
O O7 0.150606 0.895027 0.345466
#
# Coordination Sequence:
#
# PCOD9274674 Si02
#       3
#     8   8   8
#     4  10  20  38  64  93 123 164 214 259 316 381
#     4  10  20  40  63  92 129 166 213 265 319 378
#     4  10  22  39  65  95 127 170 213 262 321 381
#
# _framework density 28.201288999999999
#
# number of rings (size 3 to 8) (size 9 to 14) (size 15 to 20)
#    0.000    2.000    0.000    6.000    0.000    1.333 
#    0.000   33.333    0.000   18.000    0.000    0.000 
#    0.000    0.000    0.000    0.000    0.000    0.000 
#
# Total GULP energy -66975.418762 kJ/mol
# GULP energy per Si atom -5581.284897 kJ/mol
# Density = 2.813710 g / cm^3
# Si number density = 28.201289 Si / 1000 Ang^3
#
#
#
# Elastic Constant Matrix: (Units=GPa)
#
#
# Indices 1 2 3 4 5 6 
#
# 1 197.5706 58.7622 65.9870 0.0000 -23.1845 0.0000
# 2 58.7622 127.1747 45.4681 0.0000 1.7468 0.0000
# 3 65.9870 45.4681 98.5176 0.0000 -21.7967 0.0000
# 4 0.0000 0.0000 0.0000 102.3103 0.0000 -44.1903
# 5 -23.1845 1.7468 -21.7967 0.0000 63.5244 0.0000
# 6 0.0000 0.0000 0.0000 -44.1903 0.0000 68.9435
#
#
#
# Elastic Compliance Matrix: (Units=1/GPa)
#
#
# Indices 1 2 3 4 5 6 
#
# 1 0.006972 -0.002017 -0.003424 0.000000 0.001425 0.000000
# 2 -0.002017 0.010216 -0.003884 0.000000 -0.002350 0.000000
# 3 -0.003424 -0.003884 0.015132 0.000000 0.004049 0.000000
# 4 0.000000 0.000000 0.000000 0.013516 0.000000 0.008663
# 5 0.001425 -0.002350 0.004049 0.000000 0.017716 0.000000
# 6 0.000000 0.000000 0.000000 0.008663 0.000000 0.020058
#
#
# Mechanical properties :
#
#
# Convention : Reuss Voigt Hill
#
# Bulk Modulus (GPa) = 73.14651 84.85526 79.00089
# Shear Modulus (GPa) = 46.80948 63.82535 55.31741
#
# Velocity S-wave (km/s) = 4.07853 4.76248 4.43371
# Velocity P-wave (km/s) = 6.94066 7.77149 7.36780
#
# Compressibility (1/GPa) = 0.01367119
#
# Stress axis : x y z
#
# Youngs Moduli (GPa) = 143.42798 97.88551 66.08521
#
# Poissons Ratio (x) = 0.19744 0.22625
# Poissons Ratio (y) = 0.28931 0.25666
# Poissons Ratio (z) = 0.49105 0.38016
#
# Static dielectric constant tensor:
#      x y z
#    x 2.120610 0.000000 0.064740 
#    y 0.000000 2.459190 0.000000 
#    z 0.064740 0.000000 2.232580 
# 
# From -- ./inp_files/202907.got.cif
#   From: 2010.05.17/outbox.cif.g08.bks.cpg/sg15_102_cif.got.tgz:202907.got - 2010.06.03 18:47:42.
