data_PCOD9274182
_publ_section_title
;
Structure prediction by ZEFSAII (Michael W. Deem and Ramdas Pophale) SiO2 
 PCOD9274182
Probable space group: C 2/C
;
_chemical_formula_sum "Si O2"
_cell_formula_units_Z 64
_cell_length_a 25.726015
_cell_length_b 13.260133
_cell_length_c 9.040598
_cell_angle_alpha 90.000000
_cell_angle_beta 80.181374
_cell_angle_gamma 90.000000
_cell_volume 3038.849457
_symmetry_space_group_name_H-M "C 2/C"
_symmetry_group_IT_number 15
_symmetry_cell_setting 'monoclinic'
loop_
_space_group_symop_operation_xyz
x,y,z
-x,y,1/2-z
-x,-y,-z
x,-y,1/2+z
1/2+x,1/2+y,z
1/2-x,1/2+y,1/2-z
1/2-x,1/2-y,-z
1/2+x,1/2-y,1/2+z
loop_
_atom_site_type_symbol
_atom_site_label
_atom_site_fract_x
_atom_site_fract_y
_atom_site_fract_z
Si Si1 0.886010 0.616871 0.497016
Si Si2 0.634797 0.685792 0.334448
Si Si3 0.713677 0.985231 0.982144
Si Si4 0.133249 0.687564 0.539088
Si Si5 0.786689 0.011761 0.195305
Si Si6 0.437591 0.528648 0.294993
Si Si7 0.612291 0.382041 0.384437
Si Si8 0.062441 0.527293 0.735424
O O1 0.883948 0.734609 0.534708
O O2 0.826536 0.574469 0.535609
O O3 0.919445 0.562369 0.611163
O O4 0.910556 0.576329 0.332520
O O5 0.648428 0.748723 0.178774
O O6 0.683667 0.615721 0.356782
O O7 0.588917 0.610005 0.303273
O O8 0.769681 0.987129 0.873807
O O9 0.682032 0.882425 0.970006
O O10 0.731015 0.995951 0.142965
O O11 0.114321 0.765060 0.424114
O O12 0.087036 0.612726 0.615370
O O13 0.828085 0.923582 0.145336
O O14 0.500000 0.529689 0.250000
O O15 0.414317 0.421570 0.252866
O O16 0.418592 0.562730 0.465903
O O17 0.000000 0.521879 0.750000
#
# Coordination Sequence:
#
# PCOD9274182 Si02
#       8
#     8   8   8   8   8   8   8   8
#     4  10  21  38  57  84 117 147 191 242 285 342
#     4   9  20  36  56  85 116 147 192 240 282 345
#     4  11  22  38  59  82 113 155 195 237 289 341
#     4   9  20  37  59  85 114 150 196 234 279 352
#     4  11  22  37  58  82 113 154 193 236 290 340
#     4  10  20  38  62  86 116 154 190 232 290 344
#     4  10  21  38  59  87 118 149 192 242 282 339
#     4  10  20  38  62  85 113 152 191 236 290 344
#
# _framework density 21.060601999999999
#
# number of rings (size 3 to 8) (size 9 to 14) (size 15 to 20)
#    0.000    2.000    0.000    5.250    0.000    8.000 
#    0.000   10.000    0.000    6.000    0.000    0.000 
#    0.000    0.000    0.000    0.000    0.000    0.000 
#
# Total GULP energy -178741.992289 kJ/mol
# GULP energy per Si atom -5585.687259 kJ/mol
# Density = 2.101267 g / cm^3
# Si number density = 21.060602 Si / 1000 Ang^3
#
#
#
# Elastic Constant Matrix: (Units=GPa)
#
#
# Indices 1 2 3 4 5 6 
#
# 1 93.0067 0.2034 9.5549 0.0000 -12.2616 0.0000
# 2 0.2034 68.2240 12.9698 0.0000 -8.2051 0.0000
# 3 9.5549 12.9698 20.8567 0.0000 -10.6552 0.0000
# 4 0.0000 0.0000 0.0000 30.2326 0.0000 5.9052
# 5 -12.2616 -8.2051 -10.6552 0.0000 20.1832 0.0000
# 6 0.0000 0.0000 0.0000 5.9052 0.0000 6.4947
#
#
#
# Elastic Compliance Matrix: (Units=1/GPa)
#
#
# Indices 1 2 3 4 5 6 
#
# 1 0.011873 0.001292 -0.003135 0.000000 0.006083 0.000000
# 2 0.001292 0.016810 -0.009795 0.000000 0.002448 0.000000
# 3 -0.003135 -0.009795 0.071842 0.000000 0.032041 0.000000
# 4 0.000000 0.000000 0.000000 0.040220 0.000000 -0.036568
# 5 0.006083 0.002448 0.032041 0.000000 0.071153 0.000000
# 6 0.000000 0.000000 0.000000 -0.036568 0.000000 0.187219
#
#
# Mechanical properties :
#
#
# Convention : Reuss Voigt Hill
#
# Bulk Modulus (GPa) = 12.94490 25.28262 19.11376
# Shear Modulus (GPa) = 11.15715 22.00605 16.58160
#
# Velocity S-wave (km/s) = 2.30416 3.23599 2.80898
# Velocity P-wave (km/s) = 3.63850 5.09832 4.42897
#
# Compressibility (1/GPa) = 0.07725051
#
# Stress axis : x y z
#
# Youngs Moduli (GPa) = 84.22346 59.48763 13.91934
#
# Poissons Ratio (x) = -0.07687 0.04364
# Poissons Ratio (y) = -0.10884 0.13634
# Poissons Ratio (z) = 0.26405 0.58267
#
# Static dielectric constant tensor:
#      x y z
#    x 1.694440 0.000000 0.015350 
#    y 0.000000 1.748120 0.000000 
#    z 0.015350 0.000000 1.779170 
# 
# From -- ./inp_files/66222.got.cif
#   From: 2010.05.17/outbox.cif.g08.bks.cpg/sg15_34_cif.got.tgz:66222.got - 2010.06.03 18:47:42.
