data_PCOD9274498
_publ_section_title
;
Structure prediction by ZEFSAII (Michael W. Deem and Ramdas Pophale) SiO2 
 PCOD9274498
Probable space group: C 2/C
;
_chemical_formula_sum "Si O2"
_cell_formula_units_Z 64
_cell_length_a 33.230374
_cell_length_b 16.935393
_cell_length_c 9.923309
_cell_angle_alpha 90.000000
_cell_angle_beta 147.386298
_cell_angle_gamma 90.000000
_cell_volume 3009.909370
_symmetry_space_group_name_H-M "C 2/C"
_symmetry_group_IT_number 15
_symmetry_cell_setting 'monoclinic'
loop_
_space_group_symop_operation_xyz
x,y,z
-x,y,1/2-z
-x,-y,-z
x,-y,1/2+z
1/2+x,1/2+y,z
1/2-x,1/2+y,1/2-z
1/2-x,1/2-y,-z
1/2+x,1/2-y,1/2+z
loop_
_atom_site_type_symbol
_atom_site_label
_atom_site_fract_x
_atom_site_fract_y
_atom_site_fract_z
Si Si1 0.498272 0.415342 0.079231
Si Si2 0.834271 0.396435 0.340102
Si Si3 0.284061 0.489495 0.894979
Si Si4 0.829586 0.630035 0.528743
Si Si5 0.878995 0.150236 0.766627
Si Si6 0.549652 0.033799 0.761398
Si Si7 0.771367 0.726896 0.858366
Si Si8 0.372747 0.382424 0.531911
O O1 0.500000 0.422722 0.250000
O O2 0.565475 0.363376 0.203048
O O3 0.500000 0.500000 0.000000
O O4 0.422873 0.372981 0.807691
O O5 0.755102 0.443057 0.126360
O O6 0.895108 0.461934 0.546548
O O7 0.824754 0.324039 0.413551
O O8 0.852274 0.362678 0.245841
O O9 0.220234 0.448660 0.627317
O O10 0.321209 0.422568 0.089309
O O11 0.344496 0.528058 0.967567
O O12 0.901440 0.610097 0.641724
O O13 0.775814 0.701315 0.338206
O O14 0.829432 0.229891 0.621715
O O15 0.915591 0.137496 0.015664
O O16 0.500000 0.052278 0.750000
O O17 0.500000 0.000000 0.500000
O O18 0.704130 0.666871 0.702196
#
# Coordination Sequence:
#
# PCOD9274498 Si02
#       8
#     8   8   8   8   8   8   8   8
#     4  12  26  42  66  98 131 169 217 270 329 389
#     4  10  20  38  63  94 128 168 217 275 329 392
#     4   9  20  33  64  95 124 163 221 271 327 381
#     4  10  20  38  63  94 128 167 220 273 328 394
#     4  11  22  42  66  96 134 172 218 271 328 396
#     4  11  22  42  66  95 127 169 220 276 333 392
#     4  10  24  42  64  99 131 178 218 271 333 398
#     4  11  22  42  66  96 135 172 219 270 330 393
#
# _framework density 21.263097999999999
#
# number of rings (size 3 to 8) (size 9 to 14) (size 15 to 20)
#    0.000    1.500    2.500    2.625    0.000    5.000 
#    6.750    0.625    0.000    0.000    0.000    0.000 
#    0.000    0.000    0.000    0.000    0.000    0.000 
#
# Total GULP energy -178311.247183 kJ/mol
# GULP energy per Si atom -5572.226474 kJ/mol
# Density = 2.121470 g / cm^3
# Si number density = 21.263098 Si / 1000 Ang^3
#
#
#
# Elastic Constant Matrix: (Units=GPa)
#
#
# Indices 1 2 3 4 5 6 
#
# 1 122.5292 17.7367 39.1608 0.0000 -15.8198 0.0000
# 2 17.7367 54.1656 -4.9392 0.0000 -1.7308 0.0000
# 3 39.1608 -4.9392 59.8267 0.0000 -6.5164 0.0000
# 4 0.0000 0.0000 0.0000 15.8896 0.0000 3.5356
# 5 -15.8198 -1.7308 -6.5164 0.0000 38.0429 0.0000
# 6 0.0000 0.0000 0.0000 3.5356 0.0000 21.3385
#
#
#
# Elastic Compliance Matrix: (Units=1/GPa)
#
#
# Indices 1 2 3 4 5 6 
#
# 1 0.011674 -0.004413 -0.007642 0.000000 0.003345 0.000000
# 2 -0.004413 0.020318 0.004552 0.000000 -0.000131 0.000000
# 3 -0.007642 0.004552 0.022183 0.000000 0.000829 0.000000
# 4 0.000000 0.000000 0.000000 0.065343 0.000000 -0.010827
# 5 0.003345 -0.000131 0.000829 0.000000 0.027813 0.000000
# 6 0.000000 0.000000 0.000000 -0.010827 0.000000 0.048657
#
#
# Mechanical properties :
#
#
# Convention : Reuss Voigt Hill
#
# Bulk Modulus (GPa) = 25.53006 37.82645 31.67825
# Shear Modulus (GPa) = 22.31639 27.35842 24.83740
#
# Velocity S-wave (km/s) = 3.24317 3.59090 3.42145
# Velocity P-wave (km/s) = 5.10461 5.91786 5.52621
#
# Compressibility (1/GPa) = 0.03916951
#
# Stress axis : x y z
#
# Youngs Moduli (GPa) = 85.65877 49.21811 45.07957
#
# Poissons Ratio (x) = 0.21718 0.34448
# Poissons Ratio (y) = 0.37799 -0.20518
# Poissons Ratio (z) = 0.65457 -0.22402
#
# Static dielectric constant tensor:
#      x y z
#    x 1.838660 0.000000 0.019650 
#    y 0.000000 1.753540 0.000000 
#    z 0.019650 0.000000 1.791640 
# 
# From -- ./inp_files/70622.got.cif
#   From: 2010.05.17/outbox.cif.g08.bks.cpg/sg15_36_cif.got.tgz:70622.got - 2010.06.03 18:47:42.
