data_PCOD9274059
_publ_section_title
;
Structure prediction by ZEFSAII (Michael W. Deem and Ramdas Pophale) SiO2 
 PCOD9274059
Probable space group: C 2/C
;
_chemical_formula_sum "Si O2"
_cell_formula_units_Z 48
_cell_length_a 14.945822
_cell_length_b 13.034001
_cell_length_c 22.991076
_cell_angle_alpha 90.000000
_cell_angle_beta 142.882091
_cell_angle_gamma 90.000000
_cell_volume 2702.734399
_symmetry_space_group_name_H-M "C 2/C"
_symmetry_group_IT_number 15
_symmetry_cell_setting 'monoclinic'
loop_
_space_group_symop_operation_xyz
x,y,z
-x,y,1/2-z
-x,-y,-z
x,-y,1/2+z
1/2+x,1/2+y,z
1/2-x,1/2+y,1/2-z
1/2-x,1/2-y,-z
1/2+x,1/2-y,1/2+z
loop_
_atom_site_type_symbol
_atom_site_label
_atom_site_fract_x
_atom_site_fract_y
_atom_site_fract_z
Si Si1 0.089617 0.034122 0.631052
Si Si2 0.900320 0.491775 0.641672
Si Si3 0.513913 0.828909 0.502122
Si Si4 0.117731 0.506449 0.145740
Si Si5 0.669876 0.686026 0.008114
Si Si6 0.644881 0.374053 0.033206
O O1 0.220971 0.011922 0.743423
O O2 0.152828 0.079088 0.602959
O O3 0.968905 0.119274 0.587653
O O4 0.996048 0.931876 0.568065
O O5 0.788465 0.396391 0.592783
O O6 0.793300 0.589718 0.578480
O O7 0.000000 0.504833 0.750000
O O8 0.002894 0.475357 0.638952
O O9 0.434636 0.906790 0.417277
O O10 0.394778 0.760828 0.476161
O O11 0.616285 0.746017 0.523042
O O12 0.604830 0.897503 0.595392
O O13 0.750000 0.750000 0.000000
#
# Coordination Sequence:
#
# PCOD9274059 Si02
#       6
#     8   8   8   8   8   8
#     4   9  19  35  59  85 116 150 191 239 292 342
#     4  11  21  36  60  87 112 148 200 244 283 341
#     4  10  23  38  59  84 123 154 190 236 301 346
#     4  11  22  38  59  86 119 153 189 243 295 343
#     4  10  20  38  61  87 114 152 199 245 286 344
#     4   9  19  37  57  82 116 151 191 235 286 350
#
# _framework density 17.759792000000001
#
# number of rings (size 3 to 8) (size 9 to 14) (size 15 to 20)
#    0.000    2.000    3.333    1.000    0.000    4.667 
#    0.000    0.000    0.000    0.000    0.000    0.000 
#    0.000    0.000    0.000    0.000    0.000    0.000 
#
# Total GULP energy -133925.677105 kJ/mol
# GULP energy per Si atom -5580.236546 kJ/mol
# Density = 1.771937 g / cm^3
# Si number density = 17.759792 Si / 1000 Ang^3
#
#
#
# Elastic Constant Matrix: (Units=GPa)
#
#
# Indices 1 2 3 4 5 6 
#
# 1 27.4329 20.9389 23.3602 0.0000 9.1089 0.0000
# 2 20.9389 120.9413 53.2353 0.0000 3.9982 0.0000
# 3 23.3602 53.2353 143.4229 0.0000 7.9342 0.0000
# 4 0.0000 0.0000 0.0000 9.5163 0.0000 -2.8640
# 5 9.1089 3.9982 7.9342 0.0000 22.0440 0.0000
# 6 0.0000 0.0000 0.0000 -2.8640 0.0000 30.5531
#
#
#
# Elastic Compliance Matrix: (Units=1/GPa)
#
#
# Indices 1 2 3 4 5 6 
#
# 1 0.051539 -0.006058 -0.005131 0.000000 -0.018351 0.000000
# 2 -0.006058 0.010600 -0.003041 0.000000 0.001675 0.000000
# 3 -0.005131 -0.003041 0.008967 0.000000 -0.000556 0.000000
# 4 0.000000 0.000000 0.000000 0.108134 0.000000 0.010136
# 5 -0.018351 0.001675 -0.000556 0.000000 0.052843 0.000000
# 6 0.000000 0.000000 0.000000 0.010136 0.000000 0.033680
#
#
# Mechanical properties :
#
#
# Convention : Reuss Voigt Hill
#
# Bulk Modulus (GPa) = 23.44775 54.09622 38.77199
# Shear Modulus (GPa) = 16.21074 25.37353 20.79213
#
# Velocity S-wave (km/s) = 3.02450 3.78392 3.42532
# Velocity P-wave (km/s) = 5.04263 7.04392 6.12556
#
# Compressibility (1/GPa) = 0.04264802
#
# Stress axis : x y z
#
# Youngs Moduli (GPa) = 19.40288 94.33678 111.51516
#
# Poissons Ratio (x) = 0.57149 0.57215
# Poissons Ratio (y) = 0.11754 0.33907
# Poissons Ratio (z) = 0.09955 0.28684
#
# Static dielectric constant tensor:
#      x y z
#    x 1.619170 0.000000 0.008180 
#    y 0.000000 1.614280 0.000000 
#    z 0.008180 0.000000 1.572260 
# 
# From -- ./inp_files/152203.got.cif
#   From: 2010.05.17/outbox.cif.g08.bks.cpg/sg15_77_cif.got.tgz:152203.got - 2010.06.03 18:47:42.
