data_PCOD9274338
_publ_section_title
;
Structure prediction by ZEFSAII (Michael W. Deem and Ramdas Pophale) SiO2 
 PCOD9274338
Probable space group: C 2/C
;
_chemical_formula_sum "Si O2"
_cell_formula_units_Z 28
_cell_length_a 11.744266
_cell_length_b 6.688031
_cell_length_c 12.676508
_cell_angle_alpha 90.000000
_cell_angle_beta 103.948654
_cell_angle_gamma 90.000000
_cell_volume 966.328442
_symmetry_space_group_name_H-M "C 2/C"
_symmetry_group_IT_number 15
_symmetry_cell_setting 'monoclinic'
loop_
_space_group_symop_operation_xyz
x,y,z
-x,y,1/2-z
-x,-y,-z
x,-y,1/2+z
1/2+x,1/2+y,z
1/2-x,1/2+y,1/2-z
1/2-x,1/2-y,-z
1/2+x,1/2-y,1/2+z
loop_
_atom_site_type_symbol
_atom_site_label
_atom_site_fract_x
_atom_site_fract_y
_atom_site_fract_z
Si Si1 0.750000 0.750000 0.500000
Si Si2 0.336084 0.544584 0.173950
Si Si3 0.886568 0.372682 0.600902
Si Si4 0.032966 0.261393 0.109120
O O1 0.784991 0.633478 0.391589
O O2 0.781128 0.530018 0.570110
O O3 0.359270 0.311874 0.171301
O O4 0.403353 0.651446 0.084732
O O5 0.391099 0.643964 0.288247
O O6 0.914780 0.272215 0.494040
O O7 0.996621 0.520037 0.640880
#
# Coordination Sequence:
#
# PCOD9274338 Si02
#       4
#     4   8   8   8
#     4  10  22  38  58  92 128 172 206 268 326 376
#     4  10  20  38  62  93 125 165 213 275 318 381
#     4  10  20  41  64  91 133 164 220 269 318 397
#     4   9  21  38  65  95 118 173 219 260 331 377
#
# _framework density 28.975656000000001
#
# number of rings (size 3 to 8) (size 9 to 14) (size 15 to 20)
#    0.000    2.286    0.000    1.714    0.000    9.143 
#    5.143    0.000    6.286    0.000    0.000    0.000 
#    0.000    0.000    0.000    0.000    0.000    0.000 
#
# Total GULP energy -78041.890690 kJ/mol
# GULP energy per Si atom -5574.420764 kJ/mol
# Density = 2.890971 g / cm^3
# Si number density = 28.975656 Si / 1000 Ang^3
#
#
#
# Elastic Constant Matrix: (Units=GPa)
#
#
# Indices 1 2 3 4 5 6 
#
# 1 109.4272 61.3270 38.4268 0.0000 4.3232 0.0000
# 2 61.3270 297.2373 114.6107 0.0000 7.7973 0.0000
# 3 38.4268 114.6107 168.4752 0.0000 15.9848 0.0000
# 4 0.0000 0.0000 0.0000 68.9920 0.0000 19.4378
# 5 4.3232 7.7973 15.9848 0.0000 34.0127 0.0000
# 6 0.0000 0.0000 0.0000 19.4378 0.0000 36.5849
#
#
#
# Elastic Compliance Matrix: (Units=1/GPa)
#
#
# Indices 1 2 3 4 5 6 
#
# 1 0.010529 -0.001695 -0.001212 0.000000 -0.000380 0.000000
# 2 -0.001695 0.004840 -0.002952 0.000000 0.000494 0.000000
# 3 -0.001212 -0.002952 0.008522 0.000000 -0.003174 0.000000
# 4 0.000000 0.000000 0.000000 0.017046 0.000000 -0.009057
# 5 -0.000380 0.000494 -0.003174 0.000000 0.030828 0.000000
# 6 0.000000 0.000000 0.000000 -0.009057 0.000000 0.032146
#
#
# Mechanical properties :
#
#
# Convention : Reuss Voigt Hill
#
# Bulk Modulus (GPa) = 82.16433 111.54097 96.85265
# Shear Modulus (GPa) = 41.77585 51.96960 46.87273
#
# Velocity S-wave (km/s) = 3.80117 4.23964 4.02638
# Velocity P-wave (km/s) = 6.90529 7.90850 7.42386
#
# Compressibility (1/GPa) = 0.01217073
#
# Stress axis : x y z
#
# Youngs Moduli (GPa) = 94.97412 206.63277 117.34612
#
# Poissons Ratio (x) = 0.35023 0.14228
# Poissons Ratio (y) = 0.16097 0.34646
# Poissons Ratio (z) = 0.11515 0.61008
#
# Static dielectric constant tensor:
#      x y z
#    x 2.928460 0.000000 0.512320 
#    y 0.000000 2.347950 0.000000 
#    z 0.512320 0.000000 2.783060 
# 
# From -- ./inp_files/158087.got.cif
#   From: 2010.05.17/outbox.cif.g08.bks.cpg/sg15_80_cif.got.tgz:158087.got - 2010.06.03 18:47:42.
