data_PCOD9274815
_publ_section_title
;
Structure prediction by ZEFSAII (Michael W. Deem and Ramdas Pophale) SiO2 
 PCOD9274815
Probable space group: C 2/C
;
_chemical_formula_sum "Si O2"
_cell_formula_units_Z 24
_cell_length_a 12.328354
_cell_length_b 7.966110
_cell_length_c 9.188406
_cell_angle_alpha 90.000000
_cell_angle_beta 98.086024
_cell_angle_gamma 90.000000
_cell_volume 893.412879
_symmetry_space_group_name_H-M "C 2/C"
_symmetry_group_IT_number 15
_symmetry_cell_setting 'monoclinic'
loop_
_space_group_symop_operation_xyz
x,y,z
-x,y,1/2-z
-x,-y,-z
x,-y,1/2+z
1/2+x,1/2+y,z
1/2-x,1/2+y,1/2-z
1/2-x,1/2-y,-z
1/2+x,1/2-y,1/2+z
loop_
_atom_site_type_symbol
_atom_site_label
_atom_site_fract_x
_atom_site_fract_y
_atom_site_fract_z
Si Si1 0.251580 0.504594 0.119747
Si Si2 0.869104 0.156082 0.873779
Si Si3 0.539110 0.830769 0.089505
O O1 0.181372 0.660024 0.171517
O O2 0.359560 0.457795 0.230449
O O3 0.169390 0.347139 0.106281
O O4 0.284563 0.568062 0.968159
O O5 0.980432 0.189078 0.982302
O O6 0.500000 0.827673 0.250000
O O7 0.500000 0.000000 0.000000
#
# Coordination Sequence:
#
# PCOD9274815 Si02
#       3
#     8   8   8
#     4  10  20  40  65  93 131 171 214 271 327 385
#     4  10  22  39  65  97 130 170 219 270 324 390
#     4  10  20  38  65  94 126 170 217 262 322 388
#
# _framework density 26.863281000000001
#
# number of rings (size 3 to 8) (size 9 to 14) (size 15 to 20)
#    0.000    2.000    0.000    6.000    0.000    1.333 
#    0.000   13.333    0.000   14.000    0.000   21.000 
#    0.000    0.000    0.000    0.000    0.000    0.000 
#
# Total GULP energy -67225.100168 kJ/mol
# GULP energy per Si atom -5602.091681 kJ/mol
# Density = 2.680214 g / cm^3
# Si number density = 26.863281 Si / 1000 Ang^3
#
#
#
# Elastic Constant Matrix: (Units=GPa)
#
#
# Indices 1 2 3 4 5 6 
#
# 1 100.8321 51.2151 58.9140 0.0000 16.9135 0.0000
# 2 51.2151 119.2562 58.6137 0.0000 14.9659 0.0000
# 3 58.9140 58.6137 142.6081 0.0000 36.4526 0.0000
# 4 0.0000 0.0000 0.0000 44.2702 0.0000 24.8364
# 5 16.9135 14.9659 36.4526 0.0000 42.8712 0.0000
# 6 0.0000 0.0000 0.0000 24.8364 0.0000 42.7536
#
#
#
# Elastic Compliance Matrix: (Units=1/GPa)
#
#
# Indices 1 2 3 4 5 6 
#
# 1 0.014550 -0.004128 -0.004108 0.000000 -0.000806 0.000000
# 2 -0.004128 0.011679 -0.003155 0.000000 0.000234 0.000000
# 3 -0.004108 -0.003155 0.011896 0.000000 -0.007393 0.000000
# 4 0.000000 0.000000 0.000000 0.033510 0.000000 -0.019466
# 5 -0.000806 0.000234 -0.007393 0.000000 0.029848 0.000000
# 6 0.000000 0.000000 0.000000 -0.019466 0.000000 0.034698
#
#
# Mechanical properties :
#
#
# Convention : Reuss Voigt Hill
#
# Bulk Modulus (GPa) = 65.17679 77.79799 71.48739
# Shear Modulus (GPa) = 30.47361 38.90925 34.69143
#
# Velocity S-wave (km/s) = 3.37173 3.80994 3.59751
# Velocity P-wave (km/s) = 6.28277 6.95541 6.62763
#
# Compressibility (1/GPa) = 0.01534288
#
# Stress axis : x y z
#
# Youngs Moduli (GPa) = 68.72989 85.62106 84.06482
#
# Poissons Ratio (x) = 0.35347 0.34533
# Poissons Ratio (y) = 0.28373 0.26520
# Poissons Ratio (z) = 0.28234 0.27011
#
# Static dielectric constant tensor:
#      x y z
#    x 2.146260 0.000000 0.078670 
#    y 0.000000 2.115090 0.000000 
#    z 0.078670 0.000000 2.048250 
# 
# From -- ./inp_files/36078.got.cif
#   From: 2010.05.17/outbox.cif.g08.bks.cpg/sg15_19_cif.got.tgz:36078.got - 2010.06.03 18:47:42.
