data_PCOD9274284
_publ_section_title
;
Structure prediction by ZEFSAII (Michael W. Deem and Ramdas Pophale) SiO2 
 PCOD9274284
Probable space group: C 2/C
;
_chemical_formula_sum "Si O2"
_cell_formula_units_Z 56
_cell_length_a 22.558702
_cell_length_b 15.297405
_cell_length_c 9.158447
_cell_angle_alpha 90.000000
_cell_angle_beta 63.464421
_cell_angle_gamma 90.000000
_cell_volume 2827.550225
_symmetry_space_group_name_H-M "C 2/C"
_symmetry_group_IT_number 15
_symmetry_cell_setting 'monoclinic'
loop_
_space_group_symop_operation_xyz
x,y,z
-x,y,1/2-z
-x,-y,-z
x,-y,1/2+z
1/2+x,1/2+y,z
1/2-x,1/2+y,1/2-z
1/2-x,1/2-y,-z
1/2+x,1/2-y,1/2+z
loop_
_atom_site_type_symbol
_atom_site_label
_atom_site_fract_x
_atom_site_fract_y
_atom_site_fract_z
Si Si1 0.524015 0.761833 0.981546
Si Si2 0.633838 0.433694 0.617487
Si Si3 0.101187 0.254865 0.203742
Si Si4 0.560492 0.565063 0.895707
Si Si5 0.288248 0.892948 0.428274
Si Si6 0.564394 0.924588 0.754825
Si Si7 0.645940 0.982381 0.410476
O O1 0.532313 0.663312 0.911473
O O2 0.547195 0.830840 0.837618
O O3 0.569264 0.768426 0.078348
O O4 0.450666 0.788251 0.118624
O O5 0.601175 0.349070 0.728635
O O6 0.603730 0.521579 0.719544
O O7 0.610039 0.432202 0.477794
O O8 0.711228 0.410749 0.541425
O O9 0.173324 0.300006 0.128000
O O10 0.500000 0.500000 0.000000
O O11 0.302781 0.938938 0.256764
O O12 0.324772 0.939347 0.524466
O O13 0.500000 0.965846 0.750000
O O14 0.617880 0.919553 0.566706
O O15 0.590374 0.982161 0.860509
#
# Coordination Sequence:
#
# PCOD9274284 Si02
#       7
#     8   8   8   8   8   8   8
#     4  10  21  38  62  93 129 159 210 261 324 368
#     4  11  23  39  66  91 120 169 210 257 321 379
#     4  10  20  38  62  90 122 166 205 262 306 383
#     4  11  22  42  65  93 126 160 214 271 324 375
#     4  11  21  41  61  89 126 166 213 252 311 384
#     4  11  21  37  59  92 122 161 203 255 313 367
#     4  10  23  38  60  85 127 162 204 252 303 371
#
# _framework density 19.805129999999998
#
# number of rings (size 3 to 8) (size 9 to 14) (size 15 to 20)
#    0.000    1.429    2.857    3.000    0.000    2.286 
#    2.571    0.000    0.000    3.429    0.000    0.000 
#    0.000    0.000    0.000    0.000    0.000    0.000 
#
# Total GULP energy -156186.738484 kJ/mol
# GULP energy per Si atom -5578.097803 kJ/mol
# Density = 1.976005 g / cm^3
# Si number density = 19.805130 Si / 1000 Ang^3
#
#
#
# Elastic Constant Matrix: (Units=GPa)
#
#
# Indices 1 2 3 4 5 6 
#
# 1 83.3049 4.0212 24.0678 0.0000 -4.7596 0.0000
# 2 4.0212 41.3546 27.1922 0.0000 9.9604 0.0000
# 3 24.0678 27.1922 95.2505 0.0000 6.1760 0.0000
# 4 0.0000 0.0000 0.0000 33.1655 0.0000 0.7805
# 5 -4.7596 9.9604 6.1760 0.0000 26.6862 0.0000
# 6 0.0000 0.0000 0.0000 0.7805 0.0000 19.2588
#
#
#
# Elastic Compliance Matrix: (Units=1/GPa)
#
#
# Indices 1 2 3 4 5 6 
#
# 1 0.013214 0.000374 -0.003644 0.000000 0.003060 0.000000
# 2 0.000374 0.032232 -0.008650 0.000000 -0.009962 0.000000
# 3 -0.003644 -0.008650 0.013931 0.000000 -0.000645 0.000000
# 4 0.000000 0.000000 0.000000 0.030181 0.000000 -0.001223
# 5 0.003060 -0.009962 -0.000645 0.000000 0.041886 0.000000
# 6 0.000000 0.000000 0.000000 -0.001223 0.000000 0.051974
#
#
# Mechanical properties :
#
#
# Convention : Reuss Voigt Hill
#
# Bulk Modulus (GPa) = 28.14048 36.71915 32.42982
# Shear Modulus (GPa) = 22.82039 26.79734 24.80887
#
# Velocity S-wave (km/s) = 3.39816 3.68237 3.54312
# Velocity P-wave (km/s) = 5.44391 6.05478 5.75745
#
# Compressibility (1/GPa) = 0.03553600
#
# Stress axis : x y z
#
# Youngs Moduli (GPa) = 75.67898 31.02520 71.78381
#
# Poissons Ratio (x) = -0.01161 0.26158
# Poissons Ratio (y) = -0.02831 0.62094
# Poissons Ratio (z) = 0.27578 0.26837
#
# Static dielectric constant tensor:
#      x y z
#    x 1.715500 0.000000 -0.027880 
#    y 0.000000 1.713460 0.000000 
#    z -0.027880 0.000000 1.694170 
# 
# From -- ./inp_files/61836.got.cif
#   From: 2010.05.17/outbox.cif.g08.bks.cpg/sg15_31_cif.got.tgz:61836.got - 2010.06.03 18:47:42.
