data_PCOD9274132
_publ_section_title
;
Structure prediction by ZEFSAII (Michael W. Deem and Ramdas Pophale) SiO2 
 PCOD9274132
Probable space group: C 2/C
;
_chemical_formula_sum "Si O2"
_cell_formula_units_Z 56
_cell_length_a 23.932039
_cell_length_b 11.735279
_cell_length_c 11.223982
_cell_angle_alpha 90.000000
_cell_angle_beta 50.063072
_cell_angle_gamma 90.000000
_cell_volume 2416.989455
_symmetry_space_group_name_H-M "C 2/C"
_symmetry_group_IT_number 15
_symmetry_cell_setting 'monoclinic'
loop_
_space_group_symop_operation_xyz
x,y,z
-x,y,1/2-z
-x,-y,-z
x,-y,1/2+z
1/2+x,1/2+y,z
1/2-x,1/2+y,1/2-z
1/2-x,1/2-y,-z
1/2+x,1/2-y,1/2+z
loop_
_atom_site_type_symbol
_atom_site_label
_atom_site_fract_x
_atom_site_fract_y
_atom_site_fract_z
Si Si1 0.860656 0.959319 0.761841
Si Si2 0.547635 0.627959 0.580257
Si Si3 0.688592 0.668235 0.526009
Si Si4 0.783677 0.419371 0.686728
Si Si5 0.667915 0.761920 0.065431
Si Si6 0.611296 0.045618 0.819158
Si Si7 0.021236 0.356895 0.855942
O O1 0.918331 0.942919 0.575298
O O2 0.779896 0.941537 0.819318
O O3 0.870282 0.857703 0.846949
O O4 0.851700 0.083659 0.828314
O O5 0.500000 0.566594 0.750000
O O6 0.618170 0.699105 0.537901
O O7 0.490380 0.722733 0.615187
O O8 0.750000 0.750000 0.500000
O O9 0.739847 0.597122 0.367836
O O10 0.827169 0.309099 0.576501
O O11 0.834859 0.525891 0.644060
O O12 0.636021 0.865937 0.186153
O O13 0.750000 0.750000 0.000000
O O14 0.596023 0.920012 0.785571
O O15 0.537922 0.094462 0.973008
O O16 0.000000 0.388084 0.750000
#
# Coordination Sequence:
#
# PCOD9274132 Si02
#       7
#     8   8   8   8   8   8   8
#     4  10  22  42  64  95 136 184 222 287 355 412
#     4  10  23  44  69  94 136 184 230 289 346 410
#     4  11  26  41  68  99 126 175 238 289 349 419
#     4  10  22  35  63  98 133 168 222 281 338 419
#     4  10  20  38  61  92 140 180 212 278 357 411
#     4  11  21  37  64  99 132 183 221 280 343 411
#     4  10  22  37  64  93 136 176 225 276 343 403
#
# _framework density 23.169319000000002
#
# number of rings (size 3 to 8) (size 9 to 14) (size 15 to 20)
#    0.000    1.714    1.429    2.571    6.000    2.857 
#    0.000    0.000    3.143    0.000    0.000    0.000 
#    0.000    0.000    0.000    0.000    0.000    0.000 
#
# Total GULP energy -156052.314172 kJ/mol
# GULP energy per Si atom -5573.296935 kJ/mol
# Density = 2.311658 g / cm^3
# Si number density = 23.169319 Si / 1000 Ang^3
#
#
#
# Elastic Constant Matrix: (Units=GPa)
#
#
# Indices 1 2 3 4 5 6 
#
# 1 46.9604 36.8152 22.2516 0.0000 -13.2066 0.0000
# 2 36.8152 100.3450 50.5527 0.0000 -7.8262 0.0000
# 3 22.2516 50.5527 136.8189 0.0000 -14.4068 0.0000
# 4 0.0000 0.0000 0.0000 -99.4308 0.0000 221.7512
# 5 -13.2066 -7.8262 -14.4068 0.0000 29.3581 0.0000
# 6 0.0000 0.0000 0.0000 221.7512 0.0000 -415.4882
#
#
#
# Elastic Compliance Matrix: (Units=1/GPa)
#
#
# Indices 1 2 3 4 5 6 
#
# 1 0.033627 -0.011403 0.000018 0.000000 0.012096 0.000000
# 2 -0.011403 0.016146 -0.004427 0.000000 -0.002998 0.000000
# 3 0.000018 -0.004427 0.009299 0.000000 0.003391 0.000000
# 4 0.000000 0.000000 0.000000 0.052853 0.000000 0.028208
# 5 0.012096 -0.002998 0.003391 0.000000 0.040369 0.000000
# 6 0.000000 0.000000 0.000000 0.028208 0.000000 0.012648
#
#
# Mechanical properties :
#
#
# Convention : Reuss Voigt Hill
#
# Bulk Modulus (GPa) = 36.43240 55.92925 46.18083
# Shear Modulus (GPa) = 24.30561 -85.47853 -30.58646
#
# Velocity S-wave (km/s) = 3.24241 -6.08055 -3.63730
# Velocity P-wave (km/s) = 5.45675 5.01056 1.52815
#
# Compressibility (1/GPa) = 0.02744809
#
# Stress axis : x y z
#
# Youngs Moduli (GPa) = 29.73765 61.93657 107.54199
#
# Poissons Ratio (x) = 0.70627 -0.00193
# Poissons Ratio (y) = 0.33910 0.47606
# Poissons Ratio (z) = -0.00053 0.27417
#
# Static dielectric constant tensor:
#      x y z
#    x 1.973100 0.000000 0.000620 
#    y 0.000000 1.946860 0.000000 
#    z 0.000620 0.000000 1.873000 
# 
# From -- ./inp_files/122624.got.cif
#   From: 2010.05.17/outbox.cif.g08.bks.cpg/sg15_62_cif.got.tgz:122624.got - 2010.06.03 18:47:42.
