data_PCOD9274431
_publ_section_title
;
Structure prediction by ZEFSAII (Michael W. Deem and Ramdas Pophale) SiO2 
 PCOD9274431
Probable space group: C 2/C
;
_chemical_formula_sum "Si O2"
_cell_formula_units_Z 40
_cell_length_a 12.311339
_cell_length_b 6.322727
_cell_length_c 21.833740
_cell_angle_alpha 90.000000
_cell_angle_beta 92.385723
_cell_angle_gamma 90.000000
_cell_volume 1698.092171
_symmetry_space_group_name_H-M "C 2/C"
_symmetry_group_IT_number 15
_symmetry_cell_setting 'monoclinic'
loop_
_space_group_symop_operation_xyz
x,y,z
-x,y,1/2-z
-x,-y,-z
x,-y,1/2+z
1/2+x,1/2+y,z
1/2-x,1/2+y,1/2-z
1/2-x,1/2-y,-z
1/2+x,1/2-y,1/2+z
loop_
_atom_site_type_symbol
_atom_site_label
_atom_site_fract_x
_atom_site_fract_y
_atom_site_fract_z
Si Si1 0.883279 0.324683 0.765399
Si Si2 0.712865 0.076139 0.841917
Si Si3 0.528339 0.192462 0.456178
Si Si4 0.514667 0.134586 0.644665
Si Si5 0.142255 0.066803 0.052771
O O1 0.812710 0.193800 0.811547
O O2 0.816254 0.380143 0.703026
O O3 0.000000 0.226201 0.750000
O O4 0.914269 0.550057 0.797690
O O5 0.604465 0.221921 0.841321
O O6 0.749065 0.008913 0.910970
O O7 0.431422 0.360340 0.457340
O O8 0.632606 0.312133 0.487547
O O9 0.500000 0.000000 0.500000
O O10 0.521500 0.083842 0.390263
O O11 0.581681 0.283469 0.601273
#
# Coordination Sequence:
#
# PCOD9274431 Si02
#       5
#     8   8   8   8   8
#     4  10  22  39  59  87 124 154 201 257 296 357
#     4  11  22  38  62  90 116 163 204 242 310 360
#     4   9  19  39  63  88 127 157 196 254 292 352
#     4  10  21  40  60  89 125 153 202 254 291 361
#     4  10  20  38  63  89 121 162 197 246 305 350
#
# _framework density 23.555847
#
# number of rings (size 3 to 8) (size 9 to 14) (size 15 to 20)
#    0.000    2.000    2.000    1.200    0.000    2.400 
#    3.600    9.000    0.000    0.000    0.000    0.000 
#    0.000    0.000    0.000    0.000    0.000    0.000 
#
# Total GULP energy -111661.355362 kJ/mol
# GULP energy per Si atom -5583.067768 kJ/mol
# Density = 2.350223 g / cm^3
# Si number density = 23.555847 Si / 1000 Ang^3
#
#
#
# Elastic Constant Matrix: (Units=GPa)
#
#
# Indices 1 2 3 4 5 6 
#
# 1 71.7242 5.3543 -16.8615 0.0000 16.3715 0.0000
# 2 5.3543 56.9244 10.1057 0.0000 9.0784 0.0000
# 3 -16.8615 10.1057 80.6323 0.0000 27.6461 0.0000
# 4 0.0000 0.0000 0.0000 37.1075 0.0000 -4.3324
# 5 16.3715 9.0784 27.6461 0.0000 53.7065 0.0000
# 6 0.0000 0.0000 0.0000 -4.3324 0.0000 20.8063
#
#
#
# Elastic Compliance Matrix: (Units=1/GPa)
#
#
# Indices 1 2 3 4 5 6 
#
# 1 0.017634 -0.001494 0.006838 0.000000 -0.008643 0.000000
# 2 -0.001494 0.018327 -0.002068 0.000000 -0.001578 0.000000
# 3 0.006838 -0.002068 0.017834 0.000000 -0.010915 0.000000
# 4 0.000000 0.000000 0.000000 0.027620 0.000000 0.005751
# 5 -0.008643 -0.001578 -0.010915 0.000000 0.027140 0.000000
# 6 0.000000 0.000000 0.000000 0.005751 0.000000 0.049260
#
#
# Mechanical properties :
#
#
# Convention : Reuss Voigt Hill
#
# Bulk Modulus (GPa) = 16.57122 22.94197 19.75660
# Shear Modulus (GPa) = 29.17524 36.36955 32.77239
#
# Velocity S-wave (km/s) = 3.52313 3.93360 3.73401
# Velocity P-wave (km/s) = 4.85799 5.51285 5.19575
#
# Compressibility (1/GPa) = 0.06034560
#
# Stress axis : x y z
#
# Youngs Moduli (GPa) = 56.70770 54.56574 56.07394
#
# Poissons Ratio (x) = 0.08154 -0.38345
# Poissons Ratio (y) = 0.08474 0.11599
# Poissons Ratio (z) = -0.38778 0.11287
#
# Static dielectric constant tensor:
#      x y z
#    x 1.988040 0.000000 0.002220 
#    y 0.000000 1.870810 0.000000 
#    z 0.002220 0.000000 1.915560 
# 
# From -- ./inp_files/271985.got.cif
#   From: 2010.05.17/outbox.cif.g08.bks.cpg/sg15_136_cif.got.tgz:271985.got - 2010.06.03 18:47:42.
