data_PCOD9274396
_publ_section_title
;
Structure prediction by ZEFSAII (Michael W. Deem and Ramdas Pophale) SiO2 
 PCOD9274396
Probable space group: C 2/C
;
_chemical_formula_sum "Si O2"
_cell_formula_units_Z 48
_cell_length_a 14.518770
_cell_length_b 9.978559
_cell_length_c 22.732732
_cell_angle_alpha 90.000000
_cell_angle_beta 33.770309
_cell_angle_gamma 90.000000
_cell_volume 1830.705785
_symmetry_space_group_name_H-M "C 2/C"
_symmetry_group_IT_number 15
_symmetry_cell_setting 'monoclinic'
loop_
_space_group_symop_operation_xyz
x,y,z
-x,y,1/2-z
-x,-y,-z
x,-y,1/2+z
1/2+x,1/2+y,z
1/2-x,1/2+y,1/2-z
1/2-x,1/2-y,-z
1/2+x,1/2-y,1/2+z
loop_
_atom_site_type_symbol
_atom_site_label
_atom_site_fract_x
_atom_site_fract_y
_atom_site_fract_z
Si Si1 0.432544 0.294327 0.200761
Si Si2 0.437788 0.677099 0.521705
Si Si3 0.600923 0.053070 0.528929
Si Si4 0.264458 0.762630 0.074513
Si Si5 0.664230 0.833443 0.249488
Si Si6 0.957246 0.090785 0.382938
O O1 0.616473 0.230012 0.107021
O O2 0.333212 0.262119 0.312084
O O3 0.308999 0.268134 0.212991
O O4 0.472313 0.452745 0.178852
O O5 0.415807 0.832828 0.512567
O O6 0.579904 0.667499 0.496045
O O7 0.264196 0.622800 0.638994
O O8 0.498443 0.610246 0.429501
O O9 0.436397 0.060676 0.656942
O O10 0.759963 0.094518 0.482776
O O11 0.656284 0.909744 0.475531
O O12 0.535653 0.714575 0.306366
#
# Coordination Sequence:
#
# PCOD9274396 Si02
#       6
#     8   8   8   8   8   8
#     4  10  21  38  61  89 117 155 204 245 302 354
#     4  11  21  35  60  87 120 157 195 248 304 356
#     4  10  21  37  58  89 118 152 202 252 295 348
#     4  10  20  38  63  86 116 156 207 251 285 358
#     4  11  22  34  60  88 116 159 196 245 307 360
#     4  10  22  38  57  89 124 151 197 257 297 351
#
# _framework density 26.219394999999999
#
# number of rings (size 3 to 8) (size 9 to 14) (size 15 to 20)
#    0.000    1.667    3.333    3.500    2.333    5.333 
#    0.000    0.000    0.000    0.000    0.000    0.000 
#    0.000    0.000    0.000    0.000    0.000    0.000 
#
# Total GULP energy -134430.921824 kJ/mol
# GULP energy per Si atom -5601.288409 kJ/mol
# Density = 2.615972 g / cm^3
# Si number density = 26.219395 Si / 1000 Ang^3
#
#
#
# Elastic Constant Matrix: (Units=GPa)
#
#
# Indices 1 2 3 4 5 6 
#
# 1 84.6708 6.4307 -3.3567 0.0000 -36.0359 0.0000
# 2 6.4307 51.2302 13.3592 0.0000 -6.6025 0.0000
# 3 -3.3567 13.3592 190.6430 -0.0002 -15.2387 0.0000
# 4 0.0000 0.0000 -0.0002 38.0357 0.0000 -5.6117
# 5 -36.0359 -6.6025 -15.2387 0.0000 31.7061 0.0000
# 6 0.0000 0.0000 0.0000 -5.6117 0.0000 24.0226
#
#
#
# Elastic Compliance Matrix: (Units=1/GPa)
#
#
# Indices 1 2 3 4 5 6 
#
# 1 0.024165 -0.000037 0.002728 0.000000 0.028769 0.000000
# 2 -0.000037 0.020288 -0.001131 0.000000 0.003639 0.000000
# 3 0.002728 -0.001131 0.005825 0.000000 0.005664 0.000000
# 4 0.000000 0.000000 0.000000 0.027230 0.000000 0.006361
# 5 0.028769 0.003639 0.005664 0.000000 0.067717 0.000000
# 6 0.000000 0.000000 0.000000 0.006361 0.000000 0.043113
#
#
# Mechanical properties :
#
#
# Convention : Reuss Voigt Hill
#
# Bulk Modulus (GPa) = 18.72742 39.93449 29.33095
# Shear Modulus (GPa) = 24.62812 39.42694 32.02753
#
# Velocity S-wave (km/s) = 3.06814 3.88201 3.49882
# Velocity P-wave (km/s) = 4.43953 5.94620 5.24722
#
# Compressibility (1/GPa) = 0.05339764
#
# Stress axis : x y z
#
# Youngs Moduli (GPa) = 41.38168 49.28918 171.65944
#
# Poissons Ratio (x) = 0.00182 -0.46822
# Poissons Ratio (y) = 0.00153 0.19423
# Poissons Ratio (z) = -0.11287 0.05577
#
# Static dielectric constant tensor:
#      x y z
#    x 2.093470 0.000000 -0.003260 
#    y 0.000000 2.055520 0.000000 
#    z -0.003260 0.000000 2.024060 
# 
# From -- ./inp_files/154094.got.cif
#   From: 2010.05.17/outbox.cif.g08.bks.cpg/sg15_78_cif.got.tgz:154094.got - 2010.06.03 18:47:42.
