data_PCOD9274930
_publ_section_title
;
Structure prediction by ZEFSAII (Michael W. Deem and Ramdas Pophale) SiO2 
 PCOD9274930
Probable space group: C 2/C
;
_chemical_formula_sum "Si O2"
_cell_formula_units_Z 44
_cell_length_a 12.054563
_cell_length_b 13.131459
_cell_length_c 16.844038
_cell_angle_alpha 90.000000
_cell_angle_beta 125.580929
_cell_angle_gamma 90.000000
_cell_volume 2168.495316
_symmetry_space_group_name_H-M "C 2/C"
_symmetry_group_IT_number 15
_symmetry_cell_setting 'monoclinic'
loop_
_space_group_symop_operation_xyz
x,y,z
-x,y,1/2-z
-x,-y,-z
x,-y,1/2+z
1/2+x,1/2+y,z
1/2-x,1/2+y,1/2-z
1/2-x,1/2-y,-z
1/2+x,1/2-y,1/2+z
loop_
_atom_site_type_symbol
_atom_site_label
_atom_site_fract_x
_atom_site_fract_y
_atom_site_fract_z
Si Si1 0.951167 0.940218 0.818214
Si Si2 0.559162 0.671923 0.632586
Si Si3 0.750000 0.750000 0.000000
Si Si4 0.343092 0.126605 0.254680
Si Si5 0.125885 0.448693 0.911892
Si Si6 0.302802 0.649459 0.978397
O O1 0.802877 0.893620 0.769860
O O2 0.000000 0.921378 0.750000
O O3 0.941437 0.059933 0.831672
O O4 0.060189 0.891797 0.923316
O O5 0.404905 0.705322 0.549384
O O6 0.614675 0.756642 0.716303
O O7 0.655491 0.670932 0.595116
O O8 0.805411 0.632422 0.001184
O O9 0.339254 0.101148 0.159897
O O10 0.461791 0.058689 0.344992
O O11 0.190520 0.559858 0.940009
O O12 0.250000 0.750000 0.000000
#
# Coordination Sequence:
#
# PCOD9274930 Si02
#       6
#     8   8   4   8   8   8
#     4  12  25  43  65  99 139 176 229 278 340 407
#     4  11  23  42  69  97 133 178 226 283 338 402
#     4  10  20  38  66  94 124 176 234 272 336 384
#     4  10  23  41  65  98 133 170 228 275 343 387
#     4  10  21  42  67  95 133 176 222 285 329 408
#     4  12  25  46  69  98 140 186 224 277 350 410
#
# _framework density 20.290566999999999
#
# number of rings (size 3 to 8) (size 9 to 14) (size 15 to 20)
#    0.000    1.091    3.636    2.727    5.091    1.455 
#    6.545    2.727    0.000    0.000    0.000    0.000 
#    0.000    0.000    0.000    0.000    0.000    0.000 
#
# Total GULP energy -122485.794307 kJ/mol
# GULP energy per Si atom -5567.536105 kJ/mol
# Density = 2.024438 g / cm^3
# Si number density = 20.290567 Si / 1000 Ang^3
#
#
#
# Elastic Constant Matrix: (Units=GPa)
#
#
# Indices 1 2 3 4 5 6 
#
# 1 90.4497 26.5006 24.4494 0.0000 28.2248 0.0000
# 2 26.5006 131.4495 34.1013 0.0000 23.9378 0.0000
# 3 24.4494 34.1013 39.9698 0.0000 10.7949 0.0000
# 4 0.0000 0.0000 0.0000 29.5188 0.0000 -3.4977
# 5 28.2248 23.9378 10.7949 0.0000 35.2797 0.0000
# 6 0.0000 0.0000 0.0000 -3.4977 0.0000 35.2003
#
#
#
# Elastic Compliance Matrix: (Units=1/GPa)
#
#
# Indices 1 2 3 4 5 6 
#
# 1 0.016430 0.000721 -0.007612 0.000000 -0.011304 0.000000
# 2 0.000721 0.010486 -0.007969 0.000000 -0.005254 0.000000
# 3 -0.007612 -0.007969 0.036375 0.000000 0.000367 0.000000
# 4 0.000000 0.000000 0.000000 0.034280 0.000000 0.003406
# 5 -0.011304 -0.005254 0.000367 0.000000 0.040841 0.000000
# 6 0.000000 0.000000 0.000000 0.003406 0.000000 0.028747
#
#
# Mechanical properties :
#
#
# Convention : Reuss Voigt Hill
#
# Bulk Modulus (GPa) = 29.78751 47.99683 38.89217
# Shear Modulus (GPa) = 24.03041 31.78760 27.90901
#
# Velocity S-wave (km/s) = 3.44512 3.96235 3.71275
# Velocity P-wave (km/s) = 5.52607 6.68130 6.13095
#
# Compressibility (1/GPa) = 0.03357111
#
# Stress axis : x y z
#
# Youngs Moduli (GPa) = 60.86502 95.36427 27.49153
#
# Poissons Ratio (x) = -0.06877 0.20927
# Poissons Ratio (y) = -0.04389 0.21907
# Poissons Ratio (z) = 0.46332 0.75993
#
# Static dielectric constant tensor:
#      x y z
#    x 1.661050 0.000000 -0.032840 
#    y 0.000000 1.720230 0.000000 
#    z -0.032840 0.000000 1.800880 
# 
# From -- ./inp_files/196671.got.cif
#   From: 2010.05.17/outbox.cif.g08.bks.cpg/sg15_99_cif.got.tgz:196671.got - 2010.06.03 18:47:42.
