data_PCOD9274955
_publ_section_title
;
Structure prediction by ZEFSAII (Michael W. Deem and Ramdas Pophale) SiO2 
 PCOD9274955
Probable space group: C 2/C
;
_chemical_formula_sum "Si O2"
_cell_formula_units_Z 40
_cell_length_a 23.693120
_cell_length_b 9.241067
_cell_length_c 8.557109
_cell_angle_alpha 90.000000
_cell_angle_beta 73.766134
_cell_angle_gamma 90.000000
_cell_volume 1798.874435
_symmetry_space_group_name_H-M "C 2/C"
_symmetry_group_IT_number 15
_symmetry_cell_setting 'monoclinic'
loop_
_space_group_symop_operation_xyz
x,y,z
-x,y,1/2-z
-x,-y,-z
x,-y,1/2+z
1/2+x,1/2+y,z
1/2-x,1/2+y,1/2-z
1/2-x,1/2-y,-z
1/2+x,1/2-y,1/2+z
loop_
_atom_site_type_symbol
_atom_site_label
_atom_site_fract_x
_atom_site_fract_y
_atom_site_fract_z
Si Si1 0.191198 0.441241 0.892614
Si Si2 0.500000 0.500000 0.500000
Si Si3 0.130562 0.084599 0.463909
Si Si4 0.375378 0.852711 0.256748
Si Si5 0.000000 0.257682 0.250000
Si Si6 0.199168 0.852633 0.220979
O O1 0.135005 0.519742 0.859327
O O2 0.211080 0.308633 0.769080
O O3 0.242014 0.559980 0.862571
O O4 0.173069 0.379799 0.073494
O O5 0.562260 0.547835 0.537594
O O6 0.498825 0.652788 0.401431
O O7 0.135836 0.201152 0.321339
O O8 0.158131 0.145345 0.600556
O O9 0.164475 0.940766 0.382178
O O10 0.440130 0.848139 0.280133
#
# Coordination Sequence:
#
# PCOD9274955 Si02
#       6
#     8   4   8   8   4   8
#     4  12  26  45  66  97 134 177 223 277 334 399
#     4  10  20  38  66  96 130 166 214 262 320 388
#     4  11  23  42  67  98 130 173 219 273 329 396
#     4  11  25  44  67  96 134 172 223 274 334 398
#     4  10  22  42  68 100 134 174 218 274 330 396
#     4  12  25  42  67  94 132 174 221 273 334 394
#
# _framework density 22.236127
#
# number of rings (size 3 to 8) (size 9 to 14) (size 15 to 20)
#    0.000    0.800    0.000    8.400    0.000    5.600 
#    0.000    4.000    0.000    0.000    0.000    0.000 
#    0.000    0.000    0.000    0.000    0.000    0.000 
#
# Total GULP energy -111554.848895 kJ/mol
# GULP energy per Si atom -5577.742445 kJ/mol
# Density = 2.218552 g / cm^3
# Si number density = 22.236127 Si / 1000 Ang^3
#
#
#
# Elastic Constant Matrix: (Units=GPa)
#
#
# Indices 1 2 3 4 5 6 
#
# 1 105.1779 36.1988 12.0225 0.0000 7.6295 0.0000
# 2 36.1988 96.4755 4.4632 0.0000 -6.8186 0.0000
# 3 12.0225 4.4632 37.0830 0.0000 10.4800 0.0000
# 4 0.0000 0.0000 0.0000 28.3573 0.0000 -1.8510
# 5 7.6295 -6.8186 10.4800 0.0000 17.6595 0.0000
# 6 0.0000 0.0000 0.0000 -1.8510 0.0000 27.1857
#
#
#
# Elastic Compliance Matrix: (Units=1/GPa)
#
#
# Indices 1 2 3 4 5 6 
#
# 1 0.011760 -0.004766 -0.001542 0.000000 -0.006006 0.000000
# 2 -0.004766 0.012861 -0.002389 0.000000 0.008442 0.000000
# 3 -0.001542 -0.002389 0.033434 0.000000 -0.020097 0.000000
# 4 0.000000 0.000000 0.000000 0.035422 0.000000 0.002412
# 5 -0.006006 0.008442 -0.020097 0.000000 0.074408 0.000000
# 6 0.000000 0.000000 0.000000 0.002412 0.000000 0.036948
#
#
# Mechanical properties :
#
#
# Convention : Reuss Voigt Hill
#
# Bulk Modulus (GPa) = 24.59298 38.23394 31.41346
# Shear Modulus (GPa) = 21.20645 27.04396 24.12520
#
# Velocity S-wave (km/s) = 3.09154 3.49121 3.29744
# Velocity P-wave (km/s) = 4.88134 5.78647 5.35307
#
# Compressibility (1/GPa) = 0.04066200
#
# Stress axis : x y z
#
# Youngs Moduli (GPa) = 85.03606 77.75702 29.91007
#
# Poissons Ratio (x) = 0.37055 0.04611
# Poissons Ratio (y) = 0.40524 0.07144
# Poissons Ratio (z) = 0.13110 0.18573
#
# Static dielectric constant tensor:
#      x y z
#    x 1.816160 0.000000 -0.020540 
#    y 0.000000 1.783520 0.000000 
#    z -0.020540 0.000000 1.852490 
# 
# From -- ./inp_files/59971.got.cif
#   From: 2010.05.17/outbox.cif.g08.bks.cpg/sg15_30_cif.got.tgz:59971.got - 2010.06.03 18:47:42.
