data_PCOD9274592
_publ_section_title
;
Structure prediction by ZEFSAII (Michael W. Deem and Ramdas Pophale) SiO2 
 PCOD9274592
Probable space group: C 2/C
;
_chemical_formula_sum "Si O2"
_cell_formula_units_Z 44
_cell_length_a 5.354591
_cell_length_b 23.595172
_cell_length_c 15.698259
_cell_angle_alpha 90.000000
_cell_angle_beta 71.856815
_cell_angle_gamma 90.000000
_cell_volume 1884.747274
_symmetry_space_group_name_H-M "C 2/C"
_symmetry_group_IT_number 15
_symmetry_cell_setting 'monoclinic'
loop_
_space_group_symop_operation_xyz
x,y,z
-x,y,1/2-z
-x,-y,-z
x,-y,1/2+z
1/2+x,1/2+y,z
1/2-x,1/2+y,1/2-z
1/2-x,1/2-y,-z
1/2+x,1/2-y,1/2+z
loop_
_atom_site_type_symbol
_atom_site_label
_atom_site_fract_x
_atom_site_fract_y
_atom_site_fract_z
Si Si1 0.943931 0.747712 0.061887
Si Si2 0.726023 0.452963 0.485521
Si Si3 0.500000 0.055021 0.250000
Si Si4 0.473120 0.876445 0.588974
Si Si5 0.055211 0.867016 0.098586
Si Si6 0.342178 0.049645 0.688728
O O1 0.880309 0.687953 0.113393
O O2 0.939492 0.804094 0.120624
O O3 0.750000 0.750000 0.000000
O O4 0.250000 0.750000 0.000000
O O5 0.500000 0.500000 0.500000
O O6 0.764356 0.419643 0.569363
O O7 0.659213 0.402150 0.428918
O O8 0.993400 0.473604 0.411358
O O9 0.424546 0.094459 0.336512
O O10 0.722635 0.009199 0.254632
O O11 0.696790 0.868824 0.493176
O O12 0.151630 0.905318 0.166110
O O13 0.500000 0.079039 0.750000
#
# Coordination Sequence:
#
# PCOD9274592 Si02
#       6
#     8   8   4   8   8   8
#     4  10  20  39  69  96 122 164 225 280 326 396
#     4  11  20  34  62  88 116 167 224 254 332 399
#     4  10  20  40  58  84 140 166 212 272 350 388
#     4  10  21  38  60  91 124 170 215 276 328 399
#     4  10  20  38  64  88 122 168 220 271 324 402
#     4   9  22  39  55  88 131 165 209 277 335 391
#
# _framework density 23.345303000000001
#
# number of rings (size 3 to 8) (size 9 to 14) (size 15 to 20)
#    0.545    1.455    1.818    2.182    0.000    3.636 
#    0.000    4.545    0.000    0.000    0.000    0.000 
#    0.000    0.000    0.000    0.000    0.000    0.000 
#
# Total GULP energy -122559.099314 kJ/mol
# GULP energy per Si atom -5570.868151 kJ/mol
# Density = 2.329217 g / cm^3
# Si number density = 23.345303 Si / 1000 Ang^3
#
#
#
# Elastic Constant Matrix: (Units=GPa)
#
#
# Indices 1 2 3 4 5 6 
#
# 1 80.2435 44.7904 27.0881 0.0000 21.5915 0.0000
# 2 44.7904 243.7340 65.0334 0.0000 33.8958 0.0000
# 3 27.0881 65.0334 110.1970 0.0000 26.2301 0.0000
# 4 0.0000 0.0000 0.0000 26.0450 0.0000 11.5007
# 5 21.5915 33.8958 26.2301 0.0000 38.1663 0.0000
# 6 0.0000 0.0000 0.0000 11.5007 0.0000 22.4492
#
#
#
# Elastic Compliance Matrix: (Units=1/GPa)
#
#
# Indices 1 2 3 4 5 6 
#
# 1 0.015544 -0.001602 -0.001340 0.000000 -0.006450 0.000000
# 2 -0.001602 0.005300 -0.002187 0.000000 -0.002298 0.000000
# 3 -0.001340 -0.002187 0.012018 0.000000 -0.005559 0.000000
# 4 0.000000 0.000000 0.000000 0.049620 0.000000 -0.025420
# 5 -0.006450 -0.002298 -0.005559 0.000000 0.035711 0.000000
# 6 0.000000 0.000000 0.000000 -0.025420 0.000000 0.057568
#
#
# Mechanical properties :
#
#
# Convention : Reuss Voigt Hill
#
# Bulk Modulus (GPa) = 44.24098 78.66649 61.45373
# Shear Modulus (GPa) = 25.83240 37.14960 31.49100
#
# Velocity S-wave (km/s) = 3.33007 3.99345 3.67675
# Velocity P-wave (km/s) = 5.81186 7.41846 6.66376
#
# Compressibility (1/GPa) = 0.02260348
#
# Stress axis : x y z
#
# Youngs Moduli (GPa) = 64.33279 188.66518 83.20745
#
# Poissons Ratio (x) = 0.30222 0.11153
# Poissons Ratio (y) = 0.10305 0.18200
# Poissons Ratio (z) = 0.08623 0.41267
#
# Static dielectric constant tensor:
#      x y z
#    x 2.083130 0.000000 0.112080 
#    y 0.000000 1.306490 0.000000 
#    z 0.112080 0.000000 2.126370 
# 
# From -- ./inp_files/185099.got.cif
#   From: 2010.05.17/outbox.cif.g08.bks.cpg/sg15_93_cif.got.tgz:185099.got - 2010.06.03 18:47:42.
