data_PCOD9274720
_publ_section_title
;
Structure prediction by ZEFSAII (Michael W. Deem and Ramdas Pophale) SiO2 
 PCOD9274720
Probable space group: C 2/C
;
_chemical_formula_sum "Si O2"
_cell_formula_units_Z 52
_cell_length_a 25.033469
_cell_length_b 11.461151
_cell_length_c 14.392397
_cell_angle_alpha 90.000000
_cell_angle_beta 143.345953
_cell_angle_gamma 90.000000
_cell_volume 2465.151237
_symmetry_space_group_name_H-M "C 2/C"
_symmetry_group_IT_number 15
_symmetry_cell_setting 'monoclinic'
loop_
_space_group_symop_operation_xyz
x,y,z
-x,y,1/2-z
-x,-y,-z
x,-y,1/2+z
1/2+x,1/2+y,z
1/2-x,1/2+y,1/2-z
1/2-x,1/2-y,-z
1/2+x,1/2-y,1/2+z
loop_
_atom_site_type_symbol
_atom_site_label
_atom_site_fract_x
_atom_site_fract_y
_atom_site_fract_z
Si Si1 0.784003 0.532535 0.913895
Si Si2 0.421101 0.980471 0.769380
Si Si3 0.146340 0.369354 0.644806
Si Si4 0.091982 0.927667 0.639620
Si Si5 0.835969 0.216665 0.435576
Si Si6 0.000000 0.298349 0.750000
Si Si7 0.488543 0.755094 0.341842
O O1 0.829474 0.428492 0.919224
O O2 0.678878 0.508388 0.776468
O O3 0.805979 0.648412 0.885465
O O4 0.834165 0.538660 0.082498
O O5 0.402901 0.951489 0.850457
O O6 0.490667 0.885801 0.824316
O O7 0.452978 0.112240 0.799732
O O8 0.241854 0.343145 0.824136
O O9 0.082207 0.261293 0.529563
O O10 0.117740 0.847350 0.586589
O O11 0.076248 0.837311 0.701115
O O12 0.000000 0.000000 0.500000
O O13 0.911889 0.220866 0.619935
O O14 0.500000 0.726989 0.250000
#
# Coordination Sequence:
#
# PCOD9274720 Si02
#       7
#     8   8   8   8   8   4   8
#     4  10  22  43  60  96 132 162 232 266 318 404
#     4  11  21  39  67  95 126 169 220 277 323 386
#     4  11  22  38  64  93 128 173 216 270 330 389
#     4  11  25  43  63  95 135 174 216 271 326 396
#     4  10  22  41  65  90 129 173 212 272 324 382
#     4  10  20  38  64  96 130 164 228 268 318 402
#     4  12  22  42  66  95 129 171 215 269 334 384
#
# _framework density 21.09404
#
# number of rings (size 3 to 8) (size 9 to 14) (size 15 to 20)
#    0.000    1.231    2.308    4.154    0.000    4.308 
#    9.692    0.000    0.000    0.000    0.000    0.000 
#    0.000    0.000    0.000    0.000    0.000    0.000 
#
# Total GULP energy -145195.276086 kJ/mol
# GULP energy per Si atom -5584.433696 kJ/mol
# Density = 2.104603 g / cm^3
# Si number density = 21.094040 Si / 1000 Ang^3
#
#
#
# Elastic Constant Matrix: (Units=GPa)
#
#
# Indices 1 2 3 4 5 6 
#
# 1 103.4796 29.1958 46.0643 0.0000 15.3509 0.0000
# 2 29.1958 54.0045 32.2454 0.0000 11.3358 0.0000
# 3 46.0643 32.2454 114.0682 0.0000 27.0670 0.0000
# 4 0.0000 0.0000 0.0000 36.6425 0.0000 8.8004
# 5 15.3509 11.3358 27.0670 0.0000 34.7981 0.0000
# 6 0.0000 0.0000 0.0000 8.8004 0.0000 32.6812
#
#
#
# Elastic Compliance Matrix: (Units=1/GPa)
#
#
# Indices 1 2 3 4 5 6 
#
# 1 0.012705 -0.004463 -0.003537 0.000000 -0.001400 0.000000
# 2 -0.004463 0.024085 -0.004429 0.000000 -0.002432 0.000000
# 3 -0.003537 -0.004429 0.013164 0.000000 -0.007236 0.000000
# 4 0.000000 0.000000 0.000000 0.029178 0.000000 -0.007857
# 5 -0.001400 -0.002432 -0.007236 0.000000 0.035776 0.000000
# 6 0.000000 0.000000 0.000000 -0.007857 0.000000 0.032714
#
#
# Mechanical properties :
#
#
# Convention : Reuss Voigt Hill
#
# Bulk Modulus (GPa) = 39.84681 54.06259 46.95470
# Shear Modulus (GPa) = 27.64801 31.76081 29.70441
#
# Velocity S-wave (km/s) = 3.62429 3.88451 3.75666
# Velocity P-wave (km/s) = 6.03697 6.76788 6.41285
#
# Compressibility (1/GPa) = 0.02509611
#
# Stress axis : x y z
#
# Youngs Moduli (GPa) = 78.70891 41.52007 75.96383
#
# Poissons Ratio (x) = 0.18530 0.26868
# Poissons Ratio (y) = 0.35127 0.33645
# Poissons Ratio (z) = 0.27839 0.18389
#
# Static dielectric constant tensor:
#      x y z
#    x 1.717850 0.000000 0.025410 
#    y 0.000000 1.753600 0.000000 
#    z 0.025410 0.000000 1.814860 
# 
# From -- ./inp_files/173190.got.cif
#   From: 2010.05.17/outbox.cif.g08.bks.cpg/sg15_87_cif.got.tgz:173190.got - 2010.06.03 18:47:42.
