data_PCOD9274227
_publ_section_title
;
Structure prediction by ZEFSAII (Michael W. Deem and Ramdas Pophale) SiO2 
 PCOD9274227
Probable space group: C 2/C
;
_chemical_formula_sum "Si O2"
_cell_formula_units_Z 44
_cell_length_a 15.266735
_cell_length_b 13.178984
_cell_length_c 12.193784
_cell_angle_alpha 90.000000
_cell_angle_beta 46.626849
_cell_angle_gamma 90.000000
_cell_volume 1783.360778
_symmetry_space_group_name_H-M "C 2/C"
_symmetry_group_IT_number 15
_symmetry_cell_setting 'monoclinic'
loop_
_space_group_symop_operation_xyz
x,y,z
-x,y,1/2-z
-x,-y,-z
x,-y,1/2+z
1/2+x,1/2+y,z
1/2-x,1/2+y,1/2-z
1/2-x,1/2-y,-z
1/2+x,1/2-y,1/2+z
loop_
_atom_site_type_symbol
_atom_site_label
_atom_site_fract_x
_atom_site_fract_y
_atom_site_fract_z
Si Si1 0.631889 0.873618 0.675549
Si Si2 0.398339 0.315168 0.652412
Si Si3 0.775361 0.170871 0.833772
Si Si4 0.242900 0.871313 0.521425
Si Si5 0.500000 0.827511 0.250000
Si Si6 0.829871 0.001031 0.612762
O O1 0.500000 0.901548 0.750000
O O2 0.721571 0.869022 0.493902
O O3 0.627311 0.758500 0.726461
O O4 0.701258 0.943262 0.703122
O O5 0.329186 0.231898 0.640393
O O6 0.481418 0.247773 0.661212
O O7 0.425675 0.409855 0.548828
O O8 0.310793 0.375714 0.812109
O O9 0.817152 0.081391 0.720481
O O10 0.250000 0.750000 0.500000
O O11 0.382644 0.894916 0.377198
O O12 0.159814 0.931264 0.507026
#
# Coordination Sequence:
#
# PCOD9274227 Si02
#       6
#     8   8   8   8   4   8
#     4  10  24  40  63  93 122 159 208 248 298 368
#     4  10  22  39  63  88 122 159 199 252 300 353
#     4  10  21  43  61  86 131 160 193 255 311 349
#     4  10  20  39  60  86 124 156 195 250 300 350
#     4  10  20  38  62  88 116 160 206 242 288 366
#     4  11  21  39  63  89 121 163 197 252 305 351
#
# _framework density 24.672518
#
# number of rings (size 3 to 8) (size 9 to 14) (size 15 to 20)
#    0.000    1.818    3.636    1.091    1.273    3.636 
#    1.636    3.636    0.000    0.000    0.000    0.000 
#    0.000    0.000    0.000    0.000    0.000    0.000 
#
# Total GULP energy -122931.036438 kJ/mol
# GULP energy per Si atom -5587.774384 kJ/mol
# Density = 2.461636 g / cm^3
# Si number density = 24.672518 Si / 1000 Ang^3
#
#
#
# Elastic Constant Matrix: (Units=GPa)
#
#
# Indices 1 2 3 4 5 6 
#
# 1 107.9775 51.4397 27.3834 0.0000 23.1332 0.0000
# 2 51.4397 146.1430 36.7232 0.0000 16.2361 0.0000
# 3 27.3834 36.7232 46.8084 0.0000 4.3343 0.0000
# 4 0.0000 0.0000 0.0000 26.7156 0.0000 7.8757
# 5 23.1332 16.2361 4.3343 0.0000 38.4331 0.0000
# 6 0.0000 0.0000 0.0000 7.8757 0.0000 52.9792
#
#
#
# Elastic Compliance Matrix: (Units=1/GPa)
#
#
# Indices 1 2 3 4 5 6 
#
# 1 0.013137 -0.002674 -0.005012 0.000000 -0.006212 0.000000
# 2 -0.002674 0.009394 -0.005646 0.000000 -0.001722 0.000000
# 3 -0.005012 -0.005646 0.028523 0.000000 0.002185 0.000000
# 4 0.000000 0.000000 0.000000 0.039147 0.000000 -0.005819
# 5 -0.006212 -0.001722 0.002185 0.000000 0.030240 0.000000
# 6 0.000000 0.000000 0.000000 -0.005819 0.000000 0.019740
#
#
# Mechanical properties :
#
#
# Convention : Reuss Voigt Hill
#
# Bulk Modulus (GPa) = 41.00144 59.11348 50.05746
# Shear Modulus (GPa) = 28.57540 35.98442 32.27991
#
# Velocity S-wave (km/s) = 3.40691 3.82315 3.62101
# Velocity P-wave (km/s) = 5.66837 6.59545 6.14940
#
# Compressibility (1/GPa) = 0.02438939
#
# Stress axis : x y z
#
# Youngs Moduli (GPa) = 76.11923 106.45061 35.05958
#
# Poissons Ratio (x) = 0.28470 0.17572
# Poissons Ratio (y) = 0.20358 0.19795
# Poissons Ratio (z) = 0.38151 0.60102
#
# Static dielectric constant tensor:
#      x y z
#    x 1.974740 0.000000 -0.037080 
#    y 0.000000 2.020410 0.000000 
#    z -0.037080 0.000000 2.046150 
# 
# From -- ./inp_files/96125.got.cif
#   From: 2010.05.17/outbox.cif.g08.bks.cpg/sg15_49_cif.got.tgz:96125.got - 2010.06.03 18:47:42.
