data_PCOD9274342
_publ_section_title
;
Structure prediction by ZEFSAII (Michael W. Deem and Ramdas Pophale) SiO2 
 PCOD9274342
Probable space group: C 2/C
;
_chemical_formula_sum "Si O2"
_cell_formula_units_Z 52
_cell_length_a 28.782026
_cell_length_b 17.102082
_cell_length_c 14.859098
_cell_angle_alpha 90.000000
_cell_angle_beta 20.440336
_cell_angle_gamma 90.000000
_cell_volume 2554.327503
_symmetry_space_group_name_H-M "C 2/C"
_symmetry_group_IT_number 15
_symmetry_cell_setting 'monoclinic'
loop_
_space_group_symop_operation_xyz
x,y,z
-x,y,1/2-z
-x,-y,-z
x,-y,1/2+z
1/2+x,1/2+y,z
1/2-x,1/2+y,1/2-z
1/2-x,1/2-y,-z
1/2+x,1/2-y,1/2+z
loop_
_atom_site_type_symbol
_atom_site_label
_atom_site_fract_x
_atom_site_fract_y
_atom_site_fract_z
Si Si1 0.696704 0.636983 0.033553
Si Si2 0.172360 0.314392 0.877390
Si Si3 0.830932 0.814651 0.408980
Si Si4 0.000000 0.823426 0.750000
Si Si5 0.036579 0.479212 0.084001
Si Si6 0.710144 0.017459 0.097796
Si Si7 0.630680 0.270743 0.824234
O O1 0.702352 0.558064 0.078898
O O2 0.831526 0.678511 0.751793
O O3 0.599370 0.626491 0.127528
O O4 0.637297 0.699535 0.210377
O O5 0.280586 0.312551 0.602657
O O6 0.252995 0.310601 0.825749
O O7 0.085464 0.235894 0.033921
O O8 0.075156 0.387791 0.033818
O O9 0.750000 0.750000 0.500000
O O10 0.785654 0.900427 0.455522
O O11 0.986063 0.793318 0.122358
O O12 0.000000 0.511424 0.250000
O O13 0.912669 0.505428 0.247105
O O14 0.158810 0.498205 0.794083
#
# Coordination Sequence:
#
# PCOD9274342 Si02
#       7
#     8   8   8   4   8   8   8
#     4  10  22  40  63  92 123 165 209 261 313 381
#     4  10  20  38  65  90 120 162 213 251 311 375
#     4  11  24  41  61  90 127 169 204 268 319 377
#     4  10  20  38  62  94 116 160 206 256 304 380
#     4  10  20  39  65  88 121 165 210 253 308 379
#     4  10  24  40  60  95 127 163 210 263 317 378
#     4  10  22  39  66  90 122 167 212 257 315 382
#
# _framework density 20.357607999999999
#
# number of rings (size 3 to 8) (size 9 to 14) (size 15 to 20)
#    0.000    1.846    0.769    2.308   10.769    0.615 
#   13.846    0.000    0.000    0.000    0.000    0.000 
#    0.000    0.000    0.000    0.000    0.000    0.000 
#
# Total GULP energy -144774.584534 kJ/mol
# GULP energy per Si atom -5568.253251 kJ/mol
# Density = 2.031127 g / cm^3
# Si number density = 20.357608 Si / 1000 Ang^3
#
#
#
# Elastic Constant Matrix: (Units=GPa)
#
#
# Indices 1 2 3 4 5 6 
#
# 1 80.9386 17.9834 17.4230 0.0000 -0.4948 0.0000
# 2 17.9834 85.9615 19.9834 0.0001 -23.3665 0.0000
# 3 17.4230 19.9834 98.1681 0.0001 -5.5884 0.0000
# 4 0.0000 0.0001 0.0001 11.9104 -0.0001 2.0680
# 5 -0.4948 -23.3665 -5.5884 -0.0001 36.1649 0.0000
# 6 0.0000 0.0000 0.0000 2.0680 0.0000 26.0333
#
#
#
# Elastic Compliance Matrix: (Units=1/GPa)
#
#
# Indices 1 2 3 4 5 6 
#
# 1 0.013396 -0.002900 -0.001900 0.000000 -0.001984 0.000000
# 2 -0.002900 0.015310 -0.002059 0.000000 0.009534 0.000000
# 3 -0.001900 -0.002059 0.010962 0.000000 0.000338 0.000000
# 4 0.000000 0.000000 0.000000 0.085134 0.000000 -0.006763
# 5 -0.001984 0.009534 0.000338 0.000000 0.033836 0.000000
# 6 0.000000 0.000000 0.000000 -0.006763 0.000000 0.038950
#
#
# Mechanical properties :
#
#
# Convention : Reuss Voigt Hill
#
# Bulk Modulus (GPa) = 38.53593 41.76085 40.14839
# Shear Modulus (GPa) = 22.73165 28.80027 25.76596
#
# Velocity S-wave (km/s) = 3.34521 3.76535 3.56148
# Velocity P-wave (km/s) = 5.82161 6.28188 6.05612
#
# Compressibility (1/GPa) = 0.02594981
#
# Stress axis : x y z
#
# Youngs Moduli (GPa) = 74.64731 65.31610 91.22233
#
# Poissons Ratio (x) = 0.18943 0.17334
# Poissons Ratio (y) = 0.21649 0.18784
# Poissons Ratio (z) = 0.14184 0.13449
#
# Static dielectric constant tensor:
#      x y z
#    x 1.738270 0.000000 -0.003040 
#    y 0.000000 1.766620 0.000000 
#    z -0.003040 0.000000 1.779500 
# 
# From -- ./inp_files/182853.got.cif
#   From: 2010.05.17/outbox.cif.g08.bks.cpg/sg15_92_cif.got.tgz:182853.got - 2010.06.03 18:47:42.
