data_PCOD9274639
_publ_section_title
;
Structure prediction by ZEFSAII (Michael W. Deem and Ramdas Pophale) SiO2 
 PCOD9274639
Probable space group: C 2/C
;
_chemical_formula_sum "Si O2"
_cell_formula_units_Z 32
_cell_length_a 25.813341
_cell_length_b 4.784055
_cell_length_c 13.119235
_cell_angle_alpha 90.000000
_cell_angle_beta 43.290760
_cell_angle_gamma 90.000000
_cell_volume 1110.922243
_symmetry_space_group_name_H-M "C 2/C"
_symmetry_group_IT_number 15
_symmetry_cell_setting 'monoclinic'
loop_
_space_group_symop_operation_xyz
x,y,z
-x,y,1/2-z
-x,-y,-z
x,-y,1/2+z
1/2+x,1/2+y,z
1/2-x,1/2+y,1/2-z
1/2-x,1/2-y,-z
1/2+x,1/2-y,1/2+z
loop_
_atom_site_type_symbol
_atom_site_label
_atom_site_fract_x
_atom_site_fract_y
_atom_site_fract_z
Si Si1 0.752296 0.250966 0.118730
Si Si2 0.969849 0.324451 0.896515
Si Si3 0.388112 0.891219 0.201455
Si Si4 0.151416 0.751634 0.517993
O O1 0.674342 0.100485 0.255344
O O2 0.750000 0.250000 0.000000
O O3 0.774401 0.564628 0.114265
O O4 0.824255 0.061397 0.046442
O O5 0.920522 0.589747 0.925079
O O6 0.000000 0.171563 0.750000
O O7 0.045214 0.427398 0.844549
O O8 0.923148 0.207360 0.060352
O O9 0.356883 0.739804 0.346840
#
# Coordination Sequence:
#
# PCOD9274639 Si02
#       4
#     8   8   8   8
#     4  10  20  38  64  91 120 155 198 248 302 359
#     4   9  19  37  60  87 121 160 203 247 297 359
#     4   9  18  36  60  86 120 160 198 247 304 354
#     4  10  21  39  62  91 121 154 200 249 299 359
#
# _framework density 28.804895999999999
#
# number of rings (size 3 to 8) (size 9 to 14) (size 15 to 20)
#    0.000    2.500    0.000    3.000    0.000    2.000 
#    0.000   26.250    0.000   64.500    0.000    0.000 
#    0.000    0.000    0.000    0.000    0.000    0.000 
#
# Total GULP energy -89571.629224 kJ/mol
# GULP energy per Si atom -5598.226827 kJ/mol
# Density = 2.873933 g / cm^3
# Si number density = 28.804896 Si / 1000 Ang^3
#
#
#
# Elastic Constant Matrix: (Units=GPa)
#
#
# Indices 1 2 3 4 5 6 
#
# 1 186.5320 19.7411 35.2714 -0.0053 1.4316 0.0045
# 2 19.7411 104.9006 20.3234 -0.0223 -6.1720 0.0033
# 3 35.2714 20.3234 208.8034 -0.0042 33.5318 0.0010
# 4 -0.0053 -0.0223 -0.0042 4.4965 -0.0014 -3.5693
# 5 1.4316 -6.1720 33.5318 -0.0014 57.9127 0.0006
# 6 0.0045 0.0033 0.0010 -3.5693 0.0006 31.2449
#
#
#
# Elastic Compliance Matrix: (Units=1/GPa)
#
#
# Indices 1 2 3 4 5 6 
#
# 1 0.005623 -0.000864 -0.000914 0.000001 0.000298 -0.000001
# 2 -0.000864 0.010011 -0.001106 0.000052 0.001729 0.000005
# 3 -0.000914 -0.001106 0.005586 -0.000002 -0.003330 0.000000
# 4 0.000001 0.000052 -0.000002 0.244574 0.000012 0.027939
# 5 0.000298 0.001729 -0.003330 0.000012 0.019372 0.000001
# 6 -0.000001 0.000005 0.000000 0.027939 0.000001 0.035197
#
#
# Mechanical properties :
#
#
# Convention : Reuss Voigt Hill
#
# Bulk Modulus (GPa) = 64.71098 72.32307 68.51703
# Shear Modulus (GPa) = 15.09293 47.05749 31.07521
#
# Velocity S-wave (km/s) = 2.29152 4.04624 3.28810
# Velocity P-wave (km/s) = 5.43282 6.85506 6.18496
#
# Compressibility (1/GPa) = 0.01545333
#
# Stress axis : x y z
#
# Youngs Moduli (GPa) = 177.84481 99.88615 179.02266
#
# Poissons Ratio (x) = 0.08626 0.16356
# Poissons Ratio (y) = 0.15359 0.19803
# Poissons Ratio (z) = 0.16248 0.11049
#
# Static dielectric constant tensor:
#      x y z
#    x 2.145310 0.000000 -0.002980 
#    y 0.000000 2.128560 0.000000 
#    z -0.002980 0.000000 2.309130 
# 
# From -- ./inp_files/170382.got.cif
#   From: 2010.05.17/outbox.cif.g08.bks.cpg/sg15_86_cif.got.tgz:170382.got - 2010.06.03 18:47:42.
