data_PCOD9274666
_publ_section_title
;
Structure prediction by ZEFSAII (Michael W. Deem and Ramdas Pophale) SiO2 
 PCOD9274666
Probable space group: C 2/C
;
_chemical_formula_sum "Si O2"
_cell_formula_units_Z 36
_cell_length_a 6.224361
_cell_length_b 17.138376
_cell_length_c 18.680402
_cell_angle_alpha 90.000000
_cell_angle_beta 48.601053
_cell_angle_gamma 90.000000
_cell_volume 1494.800618
_symmetry_space_group_name_H-M "C 2/C"
_symmetry_group_IT_number 15
_symmetry_cell_setting 'monoclinic'
loop_
_space_group_symop_operation_xyz
x,y,z
-x,y,1/2-z
-x,-y,-z
x,-y,1/2+z
1/2+x,1/2+y,z
1/2-x,1/2+y,1/2-z
1/2-x,1/2-y,-z
1/2+x,1/2-y,1/2+z
loop_
_atom_site_type_symbol
_atom_site_label
_atom_site_fract_x
_atom_site_fract_y
_atom_site_fract_z
Si Si1 0.159914 0.041879 0.837687
Si Si2 0.740017 0.111393 0.257184
Si Si3 0.431363 0.773633 0.059497
Si Si4 0.213552 0.383155 0.531276
Si Si5 0.000000 0.840473 0.250000
O O1 0.500000 0.046828 0.750000
O O2 0.053367 0.105632 0.805232
O O3 0.094321 0.954760 0.824723
O O4 0.993760 0.067629 0.946438
O O5 0.500000 0.141545 0.250000
O O6 0.519107 0.077103 0.365921
O O7 0.000000 0.150099 0.250000
O O8 0.286802 0.698542 0.054571
O O9 0.276782 0.791231 0.168158
O O10 0.425594 0.849950 0.010697
O O11 0.750000 0.750000 0.000000
#
# Coordination Sequence:
#
# PCOD9274666 Si02
#       5
#     8   8   8   8   4
#     4  10  21  42  63  93 134 173 223 272 342 402
#     4  11  26  44  68 101 138 180 223 278 338 401
#     4  10  22  40  65  95 132 175 227 279 336 397
#     4  10  24  41  64 100 131 178 226 280 339 402
#     4  10  20  38  64  92 128 172 224 276 336 404
#
# _framework density 24.083480999999999
#
# number of rings (size 3 to 8) (size 9 to 14) (size 15 to 20)
#    0.000    1.778    1.111    1.333    4.667    4.444 
#    0.000    2.222    0.000    0.000    0.000    0.000 
#    0.000    0.000    0.000    0.000    0.000    0.000 
#
# Total GULP energy -100202.454620 kJ/mol
# GULP energy per Si atom -5566.803034 kJ/mol
# Density = 2.402867 g / cm^3
# Si number density = 24.083481 Si / 1000 Ang^3
#
#
#
# Elastic Constant Matrix: (Units=GPa)
#
#
# Indices 1 2 3 4 5 6 
#
# 1 120.1474 0.3222 23.3875 0.0000 -12.1512 0.0000
# 2 0.3222 47.8441 11.3711 0.0000 8.7758 0.0000
# 3 23.3875 11.3711 129.7223 0.0000 10.1842 0.0000
# 4 0.0000 0.0000 0.0000 80.5551 0.0000 24.2299
# 5 -12.1512 8.7758 10.1842 0.0000 30.2265 0.0000
# 6 0.0000 0.0000 0.0000 24.2299 0.0000 29.7195
#
#
#
# Elastic Compliance Matrix: (Units=1/GPa)
#
#
# Indices 1 2 3 4 5 6 
#
# 1 0.009158 -0.000413 -0.001965 0.000000 0.004464 0.000000
# 2 -0.000413 0.022372 -0.001401 0.000000 -0.006190 0.000000
# 3 -0.001965 -0.001401 0.008439 0.000000 -0.003227 0.000000
# 4 0.000000 0.000000 0.000000 0.016447 0.000000 -0.013409
# 5 0.004464 -0.006190 -0.003227 0.000000 0.037762 0.000000
# 6 0.000000 0.000000 0.000000 -0.013409 0.000000 0.044580
#
#
# Mechanical properties :
#
#
# Convention : Reuss Voigt Hill
#
# Bulk Modulus (GPa) = 30.85367 40.87504 35.86436
# Shear Modulus (GPa) = 31.82244 45.60908 38.71576
#
# Velocity S-wave (km/s) = 3.63897 4.35649 4.01379
# Velocity P-wave (km/s) = 5.52223 6.50496 6.03363
#
# Compressibility (1/GPa) = 0.03241106
#
# Stress axis : x y z
#
# Youngs Moduli (GPa) = 109.19130 44.69824 118.49452
#
# Poissons Ratio (x) = 0.01848 0.23288
# Poissons Ratio (y) = 0.04513 0.16597
# Poissons Ratio (z) = 0.21460 0.06261
#
# Static dielectric constant tensor:
#      x y z
#    x 1.939010 0.000000 -0.040710 
#    y 0.000000 2.038510 0.000000 
#    z -0.040710 0.000000 1.819440 
# 
# From -- ./inp_files/72589.got.cif
#   From: 2010.05.17/outbox.cif.g08.bks.cpg/sg15_37_cif.got.tgz:72589.got - 2010.06.03 18:47:42.
