data_PCOD9274528
_publ_section_title
;
Structure prediction by ZEFSAII (Michael W. Deem and Ramdas Pophale) SiO2 
 PCOD9274528
Probable space group: C 2/C
;
_chemical_formula_sum "Si O2"
_cell_formula_units_Z 44
_cell_length_a 6.253259
_cell_length_b 19.108877
_cell_length_c 18.114751
_cell_angle_alpha 90.000000
_cell_angle_beta 120.693341
_cell_angle_gamma 90.000000
_cell_volume 1861.348780
_symmetry_space_group_name_H-M "C 2/C"
_symmetry_group_IT_number 15
_symmetry_cell_setting 'monoclinic'
loop_
_space_group_symop_operation_xyz
x,y,z
-x,y,1/2-z
-x,-y,-z
x,-y,1/2+z
1/2+x,1/2+y,z
1/2-x,1/2+y,1/2-z
1/2-x,1/2-y,-z
1/2+x,1/2-y,1/2+z
loop_
_atom_site_type_symbol
_atom_site_label
_atom_site_fract_x
_atom_site_fract_y
_atom_site_fract_z
Si Si1 0.500000 0.061848 0.750000
Si Si2 0.213087 0.496368 0.434916
Si Si3 0.295800 0.854103 0.995480
Si Si4 0.797309 0.411188 0.848028
Si Si5 0.000000 0.043359 0.750000
Si Si6 0.000000 0.666120 0.250000
Si Si7 0.656119 0.270294 0.563748
O O1 0.360476 0.021149 0.661528
O O2 0.766459 0.084356 0.750260
O O3 0.500000 0.500000 0.500000
O O4 0.122077 0.430760 0.466456
O O5 0.074802 0.568625 0.421982
O O6 0.231518 0.853686 0.896900
O O7 0.033223 0.833899 0.983725
O O8 0.489668 0.796646 0.056643
O O9 0.644995 0.484187 0.825843
O O10 0.815157 0.381322 0.768250
O O11 0.149606 0.710081 0.338014
O O12 0.750000 0.250000 0.500000
#
# Coordination Sequence:
#
# PCOD9274528 Si02
#       7
#     4   8   8   8   4   4   8
#     4  10  23  42  60 101 150 189 241 280 362 468
#     4  11  23  42  70 109 147 189 233 308 384 444
#     4  11  24  44  69  99 144 183 238 299 363 438
#     4  11  21  40  72 108 139 185 241 297 376 446
#     4  10  20  38  63  99 145 179 238 296 348 448
#     4  12  23  44  79  98 139 192 245 308 356 432
#     4  11  25  49  67 103 137 189 253 298 353 432
#
# _framework density 23.638771999999999
#
# number of rings (size 3 to 8) (size 9 to 14) (size 15 to 20)
#    0.000    1.091    1.818    6.000    0.000    1.455 
#    3.273    0.909    0.000    0.000    0.000    0.000 
#    0.000    0.000    0.000    0.000    0.000    0.000 
#
# Total GULP energy -122483.995512 kJ/mol
# GULP energy per Si atom -5567.454341 kJ/mol
# Density = 2.358497 g / cm^3
# Si number density = 23.638772 Si / 1000 Ang^3
#
#
#
# Elastic Constant Matrix: (Units=GPa)
#
#
# Indices 1 2 3 4 5 6 
#
# 1 119.1999 18.4400 46.6824 0.0000 -1.2894 0.0000
# 2 18.4400 51.0288 25.7497 0.0000 1.4766 0.0000
# 3 46.6824 25.7497 153.9310 0.0000 3.0651 0.0000
# 4 0.0000 0.0000 0.0000 13.4073 0.0000 18.6365
# 5 -1.2894 1.4766 3.0651 0.0000 54.7509 0.0000
# 6 0.0000 0.0000 0.0000 18.6365 0.0000 19.4251
#
#
#
# Elastic Compliance Matrix: (Units=1/GPa)
#
#
# Indices 1 2 3 4 5 6 
#
# 1 0.009755 -0.002229 -0.002594 0.000000 0.000435 0.000000
# 2 -0.002229 0.021920 -0.002982 0.000000 -0.000477 0.000000
# 3 -0.002594 -0.002982 0.007790 0.000000 -0.000417 0.000000
# 4 0.000000 0.000000 0.000000 -0.223576 0.000000 0.214500
# 5 0.000435 -0.000477 -0.000417 0.000000 0.018311 0.000000
# 6 0.000000 0.000000 0.000000 0.214500 0.000000 -0.154313
#
#
# Mechanical properties :
#
#
# Convention : Reuss Voigt Hill
#
# Bulk Modulus (GPa) = 41.91674 56.21154 49.06414
# Shear Modulus (GPa) = -16.86045 33.06915 8.10435
#
# Velocity S-wave (km/s) = -2.67358 3.74429 1.85361
# Velocity P-wave (km/s) = 2.87054 6.52104 5.03805
#
# Compressibility (1/GPa) = 0.02385682
#
# Stress axis : x y z
#
# Youngs Moduli (GPa) = 102.51494 45.61967 128.36661
#
# Poissons Ratio (x) = 0.10167 0.33300
# Poissons Ratio (y) = 0.22846 0.38273
# Poissons Ratio (z) = 0.26594 0.13602
#
# Static dielectric constant tensor:
#      x y z
#    x 2.100670 0.000000 0.002650 
#    y 0.000000 1.946860 0.000000 
#    z 0.002650 0.000000 1.913300 
# 
# From -- ./inp_files/227435.got.cif
#   From: 2010.05.17/outbox.cif.g08.bks.cpg/sg15_114_cif.got.tgz:227435.got - 2010.06.03 18:47:42.
