data_PCOD9274573
_publ_section_title
;
Structure prediction by ZEFSAII (Michael W. Deem and Ramdas Pophale) SiO2 
 PCOD9274573
Probable space group: C 2/C
;
_chemical_formula_sum "Si O2"
_cell_formula_units_Z 36
_cell_length_a 7.523725
_cell_length_b 16.357091
_cell_length_c 15.968046
_cell_angle_alpha 90.000000
_cell_angle_beta 58.982722
_cell_angle_gamma 90.000000
_cell_volume 1684.137843
_symmetry_space_group_name_H-M "C 2/C"
_symmetry_group_IT_number 15
_symmetry_cell_setting 'monoclinic'
loop_
_space_group_symop_operation_xyz
x,y,z
-x,y,1/2-z
-x,-y,-z
x,-y,1/2+z
1/2+x,1/2+y,z
1/2-x,1/2+y,1/2-z
1/2-x,1/2-y,-z
1/2+x,1/2-y,1/2+z
loop_
_atom_site_type_symbol
_atom_site_label
_atom_site_fract_x
_atom_site_fract_y
_atom_site_fract_z
Si Si1 0.741638 0.781424 0.159054
Si Si2 0.280905 0.452958 0.064240
Si Si3 0.241425 0.923384 0.792323
Si Si4 0.500000 0.772378 0.750000
Si Si5 0.251615 0.901147 0.601693
O O1 0.500000 0.782719 0.250000
O O2 0.795081 0.859905 0.091525
O O3 0.900303 0.778615 0.199224
O O4 0.777829 0.696904 0.100051
O O5 0.194217 0.503804 0.163114
O O6 0.500000 0.500000 0.000000
O O7 0.167921 0.444651 0.001834
O O8 0.318565 0.838083 0.814215
O O9 0.319565 0.929707 0.677466
O O10 0.994658 0.917266 0.844049
#
# Coordination Sequence:
#
# PCOD9274573 Si02
#       5
#     8   8   8   4   8
#     4  11  21  39  64  90 120 168 206 248 311 369
#     4  10  22  36  64  92 123 163 205 256 308 366
#     4   9  18  36  61  87 121 158 201 256 305 350
#     4  10  20  38  64  86 120 160 206 254 296 366
#     4   9  17  39  62  83 125 163 202 249 306 363
#
# _framework density 21.375921000000002
#
# number of rings (size 3 to 8) (size 9 to 14) (size 15 to 20)
#    0.000    2.222    4.444    0.667    1.556    3.556 
#    0.000    8.889   14.667    0.000    0.000    0.000 
#    0.000    0.000    0.000    0.000    0.000    0.000 
#
# Total GULP energy -100259.033181 kJ/mol
# GULP energy per Si atom -5569.946288 kJ/mol
# Density = 2.132727 g / cm^3
# Si number density = 21.375921 Si / 1000 Ang^3
#
#
#
# Elastic Constant Matrix: (Units=GPa)
#
#
# Indices 1 2 3 4 5 6 
#
# 1 120.7554 33.6552 48.6862 0.0000 37.2123 0.0000
# 2 33.6552 114.3356 87.3719 0.0000 28.4198 0.0000
# 3 48.6862 87.3719 126.1045 0.0000 37.6967 0.0000
# 4 0.0000 0.0000 0.0000 42.1605 0.0000 15.3515
# 5 37.2123 28.4198 37.6967 0.0000 34.8525 0.0000
# 6 0.0000 0.0000 0.0000 15.3515 0.0000 15.7979
#
#
#
# Elastic Compliance Matrix: (Units=1/GPa)
#
#
# Indices 1 2 3 4 5 6 
#
# 1 0.012486 0.000533 -0.001588 0.000000 -0.012048 0.000000
# 2 0.000533 0.018688 -0.012456 0.000000 -0.002336 0.000000
# 3 -0.001588 -0.012456 0.020143 0.000000 -0.009934 0.000000
# 4 0.000000 0.000000 0.000000 0.036707 0.000000 -0.035670
# 5 -0.012048 -0.002336 -0.009934 0.000000 0.054205 0.000000
# 6 0.000000 0.000000 0.000000 -0.035670 0.000000 0.097961
#
#
# Mechanical properties :
#
#
# Convention : Reuss Voigt Hill
#
# Bulk Modulus (GPa) = 41.16099 77.84689 59.50394
# Shear Modulus (GPa) = 18.16135 31.32767 24.74451
#
# Velocity S-wave (km/s) = 2.91798 3.83241 3.40603
# Velocity P-wave (km/s) = 5.53628 7.48868 6.58524
#
# Compressibility (1/GPa) = 0.02429485
#
# Stress axis : x y z
#
# Youngs Moduli (GPa) = 80.09155 53.50979 49.64591
#
# Poissons Ratio (x) = -0.02854 0.07886
# Poissons Ratio (y) = -0.04272 0.61837
# Poissons Ratio (z) = 0.12722 0.66650
#
# Static dielectric constant tensor:
#      x y z
#    x 1.754110 0.000000 -0.004330 
#    y 0.000000 1.767710 0.000000 
#    z -0.004330 0.000000 1.873290 
# 
# From -- ./inp_files/133767.got.cif
#   From: 2010.05.17/outbox.cif.g08.bks.cpg/sg15_67_cif.got.tgz:133767.got - 2010.06.03 18:47:42.
