data_PCOD9274511
_publ_section_title
;
Structure prediction by ZEFSAII (Michael W. Deem and Ramdas Pophale) SiO2 
 PCOD9274511
Probable space group: C 2/C
;
_chemical_formula_sum "Si O2"
_cell_formula_units_Z 60
_cell_length_a 24.754842
_cell_length_b 11.156477
_cell_length_c 21.282816
_cell_angle_alpha 90.000000
_cell_angle_beta 150.673284
_cell_angle_gamma 90.000000
_cell_volume 2878.892023
_symmetry_space_group_name_H-M "C 2/C"
_symmetry_group_IT_number 15
_symmetry_cell_setting 'monoclinic'
loop_
_space_group_symop_operation_xyz
x,y,z
-x,y,1/2-z
-x,-y,-z
x,-y,1/2+z
1/2+x,1/2+y,z
1/2-x,1/2+y,1/2-z
1/2-x,1/2-y,-z
1/2+x,1/2-y,1/2+z
loop_
_atom_site_type_symbol
_atom_site_label
_atom_site_fract_x
_atom_site_fract_y
_atom_site_fract_z
Si Si1 0.274423 0.562886 0.001612
Si Si2 0.312700 0.326573 0.268283
Si Si3 0.896203 0.412101 0.383771
Si Si4 0.959987 0.774187 0.534102
Si Si5 0.000000 0.052608 0.750000
Si Si6 0.742981 0.920903 0.845724
Si Si7 0.511420 0.546858 0.902181
Si Si8 0.896690 0.303380 0.098033
O O1 0.244985 0.465471 0.919386
O O2 0.174847 0.588165 0.947266
O O3 0.387796 0.520642 0.147432
O O4 0.311894 0.690251 0.009860
O O5 0.193149 0.388347 0.152183
O O6 0.356340 0.289996 0.382188
O O7 0.305800 0.208169 0.218803
O O8 0.408132 0.409040 0.336644
O O9 0.825818 0.478731 0.259640
O O10 0.000000 0.500000 0.500000
O O11 0.943571 0.284772 0.409062
O O12 0.937856 0.683875 0.569050
O O13 0.988470 0.901556 0.595299
O O14 0.986298 0.104488 0.665825
O O15 0.869046 0.920501 0.948954
O O16 0.000000 0.282607 0.250000
#
# Coordination Sequence:
#
# PCOD9274511 Si02
#       8
#     8   8   8   8   4   8   8   8
#     4  10  20  38  63  96 136 171 220 282 339 406
#     4  12  26  43  70  98 138 191 227 289 347 420
#     4  12  26  41  62 101 141 174 231 285 344 409
#     4  12  23  40  69 102 138 181 224 285 350 416
#     4  10  20  42  68  96 126 176 228 286 322 416
#     4  11  23  45  65  97 142 177 232 290 341 417
#     4  11  24  46  72 100 134 185 239 278 356 419
#     4  11  20  36  65 102 135 175 218 278 353 395
#
# _framework density 20.841351
#
# number of rings (size 3 to 8) (size 9 to 14) (size 15 to 20)
#    0.000    0.800    6.000    2.000    1.867    4.267 
#    0.000    2.667    4.400    0.000    0.000    0.000 
#    0.000    0.000    0.000    0.000    0.000    0.000 
#
# Total GULP energy -167397.644057 kJ/mol
# GULP energy per Si atom -5579.921469 kJ/mol
# Density = 2.079392 g / cm^3
# Si number density = 20.841351 Si / 1000 Ang^3
#
#
#
# Elastic Constant Matrix: (Units=GPa)
#
#
# Indices 1 2 3 4 5 6 
#
# 1 109.8398 26.1751 48.7149 0.0000 15.8729 0.0000
# 2 26.1751 61.5841 31.6390 0.0000 6.1458 0.0000
# 3 48.7149 31.6390 108.2659 0.0000 4.1271 0.0000
# 4 0.0000 0.0000 0.0000 29.2350 0.0000 10.8410
# 5 15.8729 6.1458 4.1271 0.0000 35.4915 0.0000
# 6 0.0000 0.0000 0.0000 10.8410 0.0000 25.6828
#
#
#
# Elastic Compliance Matrix: (Units=1/GPa)
#
#
# Indices 1 2 3 4 5 6 
#
# 1 0.012433 -0.002402 -0.004717 0.000000 -0.004596 0.000000
# 2 -0.002402 0.019826 -0.004644 0.000000 -0.001819 0.000000
# 3 -0.004717 -0.004644 0.012661 0.000000 0.001441 0.000000
# 4 0.000000 0.000000 0.000000 0.040553 0.000000 -0.017118
# 5 -0.004596 -0.001819 0.001441 0.000000 0.030379 0.000000
# 6 0.000000 0.000000 0.000000 -0.017118 0.000000 0.046162
#
#
# Mechanical properties :
#
#
# Convention : Reuss Voigt Hill
#
# Bulk Modulus (GPa) = 46.74162 54.74973 50.74568
# Shear Modulus (GPa) = 25.95091 29.62591 27.78841
#
# Velocity S-wave (km/s) = 3.53252 3.77436 3.65544
# Velocity P-wave (km/s) = 6.25414 6.73210 6.49752
#
# Compressibility (1/GPa) = 0.02139421
#
# Stress axis : x y z
#
# Youngs Moduli (GPa) = 80.43227 50.43830 78.98246
#
# Poissons Ratio (x) = 0.12117 0.37256
# Poissons Ratio (y) = 0.19322 0.36677
# Poissons Ratio (z) = 0.37940 0.23422
#
# Static dielectric constant tensor:
#      x y z
#    x 1.796080 0.000000 -0.029330 
#    y 0.000000 1.753720 0.000000 
#    z -0.029330 0.000000 1.773950 
# 
# From -- ./inp_files/255581.got.cif
#   From: 2010.05.17/outbox.cif.g08.bks.cpg/sg15_128_cif.got.tgz:255581.got - 2010.06.03 18:47:42.
