data_PCOD9274904
_publ_section_title
;
Structure prediction by ZEFSAII (Michael W. Deem and Ramdas Pophale) SiO2 
 PCOD9274904
Probable space group: C 2/C
;
_chemical_formula_sum "Si O2"
_cell_formula_units_Z 48
_cell_length_a 24.488104
_cell_length_b 10.262130
_cell_length_c 14.923366
_cell_angle_alpha 90.000000
_cell_angle_beta 32.633684
_cell_angle_gamma 90.000000
_cell_volume 2022.378670
_symmetry_space_group_name_H-M "C 2/C"
_symmetry_group_IT_number 15
_symmetry_cell_setting 'monoclinic'
loop_
_space_group_symop_operation_xyz
x,y,z
-x,y,1/2-z
-x,-y,-z
x,-y,1/2+z
1/2+x,1/2+y,z
1/2-x,1/2+y,1/2-z
1/2-x,1/2-y,-z
1/2+x,1/2-y,1/2+z
loop_
_atom_site_type_symbol
_atom_site_label
_atom_site_fract_x
_atom_site_fract_y
_atom_site_fract_z
Si Si1 0.396003 0.424133 0.165116
Si Si2 0.439836 0.075330 0.711039
Si Si3 0.636906 0.202206 0.523803
Si Si4 0.691938 0.615873 0.344764
Si Si5 0.981104 0.686100 0.467322
Si Si6 0.881273 0.997590 0.887651
O O1 0.325468 0.479125 0.184535
O O2 0.424589 0.272962 0.128912
O O3 0.365886 0.469567 0.305575
O O4 0.500000 0.500000 0.000000
O O5 0.532624 0.163481 0.618800
O O6 0.424024 0.120867 0.631015
O O7 0.478380 0.927577 0.652386
O O8 0.354182 0.105915 0.902251
O O9 0.720773 0.181713 0.332975
O O10 0.634265 0.346465 0.567365
O O11 0.596232 0.712906 0.469351
O O12 0.695205 0.578861 0.444014
O O13 0.000000 0.025906 0.750000
#
# Coordination Sequence:
#
# PCOD9274904 Si02
#       6
#     8   8   8   8   8   8
#     4  10  20  38  66  92 120 162 217 259 307 371
#     4  10  22  40  64  85 133 172 199 251 334 379
#     4  11  24  41  60  94 128 165 207 262 317 379
#     4  11  25  40  66  97 126 161 220 268 301 371
#     4  10  21  40  64  92 121 170 211 255 314 381
#     4  12  21  40  67  92 123 170 211 258 316 372
#
# _framework density 23.734428000000001
#
# number of rings (size 3 to 8) (size 9 to 14) (size 15 to 20)
#    0.000    1.333    5.000    3.000    2.333    5.333 
#    3.000    0.833    0.000    0.000    0.000    0.000 
#    0.000    0.000    0.000    0.000    0.000    0.000 
#
# Total GULP energy -134232.646160 kJ/mol
# GULP energy per Si atom -5593.026923 kJ/mol
# Density = 2.368041 g / cm^3
# Si number density = 23.734428 Si / 1000 Ang^3
#
#
#
# Elastic Constant Matrix: (Units=GPa)
#
#
# Indices 1 2 3 4 5 6 
#
# 1 34.3233 13.3142 35.0808 0.0000 26.1780 0.0000
# 2 13.3142 110.5461 67.2079 0.0000 16.0718 0.0000
# 3 35.0808 67.2079 162.2715 0.0000 44.5606 0.0000
# 4 0.0000 0.0000 0.0000 32.3191 0.0000 9.3984
# 5 26.1780 16.0718 44.5606 0.0000 44.2942 0.0000
# 6 0.0000 0.0000 0.0000 9.3984 0.0000 21.9934
#
#
#
# Elastic Compliance Matrix: (Units=1/GPa)
#
#
# Indices 1 2 3 4 5 6 
#
# 1 0.054942 -0.000010 -0.004087 0.000000 -0.028356 0.000000
# 2 -0.000010 0.012116 -0.005265 0.000000 0.000906 0.000000
# 3 -0.004087 -0.005265 0.011107 0.000000 -0.006848 0.000000
# 4 0.000000 0.000000 0.000000 0.035332 0.000000 -0.015098
# 5 -0.028356 0.000906 -0.006848 0.000000 0.045895 0.000000
# 6 0.000000 0.000000 0.000000 -0.015098 0.000000 0.051920
#
#
# Mechanical properties :
#
#
# Convention : Reuss Voigt Hill
#
# Bulk Modulus (GPa) = 16.82306 59.81632 38.31969
# Shear Modulus (GPa) = 20.01190 32.49054 26.25122
#
# Velocity S-wave (km/s) = 2.90687 3.70391 3.32933
# Velocity P-wave (km/s) = 4.28602 6.59916 5.56412
#
# Compressibility (1/GPa) = 0.05944222
#
# Stress axis : x y z
#
# Youngs Moduli (GPa) = 18.20087 82.53340 90.03190
#
# Poissons Ratio (x) = 0.00083 0.36795
# Poissons Ratio (y) = 0.00018 0.47401
# Poissons Ratio (z) = 0.07439 0.43453
#
# Static dielectric constant tensor:
#      x y z
#    x 1.966360 0.000000 -0.025630 
#    y 0.000000 1.892100 0.000000 
#    z -0.025630 0.000000 1.946690 
# 
# From -- ./inp_files/181716.got.cif
#   From: 2010.05.17/outbox.cif.g08.bks.cpg/sg15_91_cif.got.tgz:181716.got - 2010.06.03 18:47:42.
