data_PCOD9274235
_publ_section_title
;
Structure prediction by ZEFSAII (Michael W. Deem and Ramdas Pophale) SiO2 
 PCOD9274235
Probable space group: C 2/C
;
_chemical_formula_sum "Si O2"
_cell_formula_units_Z 36
_cell_length_a 15.262469
_cell_length_b 14.599591
_cell_length_c 11.786229
_cell_angle_alpha 90.000000
_cell_angle_beta 39.444918
_cell_angle_gamma 90.000000
_cell_volume 1668.567971
_symmetry_space_group_name_H-M "C 2/C"
_symmetry_group_IT_number 15
_symmetry_cell_setting 'monoclinic'
loop_
_space_group_symop_operation_xyz
x,y,z
-x,y,1/2-z
-x,-y,-z
x,-y,1/2+z
1/2+x,1/2+y,z
1/2-x,1/2+y,1/2-z
1/2-x,1/2-y,-z
1/2+x,1/2-y,1/2+z
loop_
_atom_site_type_symbol
_atom_site_label
_atom_site_fract_x
_atom_site_fract_y
_atom_site_fract_z
Si Si1 0.901712 0.384750 0.664744
Si Si2 0.410801 0.096641 0.728688
Si Si3 0.000000 0.750001 0.250000
Si Si4 0.098289 0.115249 0.468167
Si Si5 0.089199 0.903358 0.550290
O O1 0.919746 0.486587 0.698395
O O2 0.750001 0.382345 0.761733
O O3 0.018226 0.364459 0.455459
O O4 0.911580 0.314393 0.757156
O O5 0.500000 0.120315 0.750000
O O6 0.250000 0.121266 0.900573
O O7 0.911578 0.814394 0.419685
O O8 0.981775 0.135543 0.491910
O O9 0.080253 0.013413 0.537886
O O10 0.000000 0.879686 0.750000
#
# Coordination Sequence:
#
# PCOD9274235 Si02
#       5
#     8   8   4   8   8
#     4  10  22  37  59  90 124 161 201 247 303 360
#     4  10  20  38  62  88 120 161 206 250 295 359
#     4  12  22  40  62  94 126 158 196 256 302 364
#     4  10  22  37  59  90 124 161 201 247 303 360
#     4  10  20  38  62  88 120 161 206 250 295 359
#
# _framework density 21.575388
#
# number of rings (size 3 to 8) (size 9 to 14) (size 15 to 20)
#    0.000    1.778    2.222    2.000    0.000    5.333 
#    0.000    1.111    0.000    5.333    0.000    0.000 
#    0.000    0.000    0.000    0.000    0.000    0.000 
#
# Total GULP energy -100634.739020 kJ/mol
# GULP energy per Si atom -5590.818834 kJ/mol
# Density = 2.152628 g / cm^3
# Si number density = 21.575388 Si / 1000 Ang^3
#
#
#
# Elastic Constant Matrix: (Units=GPa)
#
#
# Indices 1 2 3 4 5 6 
#
# 1 157.9598 16.0886 79.0665 0.0000 -10.4428 0.0000
# 2 16.0886 58.2467 13.5033 0.0000 5.6045 0.0000
# 3 79.0665 13.5033 166.0495 0.0000 -7.0836 0.0000
# 4 0.0000 0.0000 0.0000 7.8946 0.0000 21.4260
# 5 -10.4428 5.6045 -7.0836 0.0000 34.5748 0.0000
# 6 0.0000 0.0000 0.0000 21.4260 0.0000 17.7815
#
#
#
# Elastic Compliance Matrix: (Units=1/GPa)
#
#
# Indices 1 2 3 4 5 6 
#
# 1 0.008568 -0.001672 -0.003855 0.000000 0.002069 0.000000
# 2 -0.001672 0.018173 -0.000836 0.000000 -0.003622 0.000000
# 3 -0.003855 -0.000836 0.007952 0.000000 0.000600 0.000000
# 4 0.000000 0.000000 0.000000 -0.055795 0.000000 0.067230
# 5 0.002069 -0.003622 0.000600 0.000000 0.030258 0.000000
# 6 0.000000 0.000000 0.000000 0.067230 0.000000 -0.024772
#
#
# Mechanical properties :
#
#
# Convention : Reuss Voigt Hill
#
# Bulk Modulus (GPa) = 45.52708 66.61920 56.07314
# Shear Modulus (GPa) = 1128.30004 30.29002 579.29503
#
# Velocity S-wave (km/s) = 22.89306 3.75095 16.40369
# Velocity P-wave (km/s) = 26.83164 7.05010 19.61684
#
# Compressibility (1/GPa) = 0.02196495
#
# Stress axis : x y z
#
# Youngs Moduli (GPa) = 116.71945 55.02820 125.75953
#
# Poissons Ratio (x) = 0.09199 0.48485
# Poissons Ratio (y) = 0.19513 0.10517
# Poissons Ratio (z) = 0.44999 0.04602
#
# Static dielectric constant tensor:
#      x y z
#    x 1.749610 0.000000 -0.027180 
#    y 0.000000 1.795960 0.000000 
#    z -0.027180 0.000000 1.762140 
# 
# From -- ./inp_files/45865.got.cif
#   From: 2010.05.17/outbox.cif.g08.bks.cpg/sg15_23_cif.got.tgz:45865.got - 2010.06.03 18:47:42.
