data_PCOD9274970
_publ_section_title
;
Structure prediction by ZEFSAII (Michael W. Deem and Ramdas Pophale) SiO2 
 PCOD9274970
Probable space group: C 2/C
;
_chemical_formula_sum "Si O2"
_cell_formula_units_Z 60
_cell_length_a 12.107822
_cell_length_b 29.265217
_cell_length_c 9.266028
_cell_angle_alpha 90.000000
_cell_angle_beta 109.696191
_cell_angle_gamma 90.000000
_cell_volume 3091.209633
_symmetry_space_group_name_H-M "C 2/C"
_symmetry_group_IT_number 15
_symmetry_cell_setting 'monoclinic'
loop_
_space_group_symop_operation_xyz
x,y,z
-x,y,1/2-z
-x,-y,-z
x,-y,1/2+z
1/2+x,1/2+y,z
1/2-x,1/2+y,1/2-z
1/2-x,1/2-y,-z
1/2+x,1/2-y,1/2+z
loop_
_atom_site_type_symbol
_atom_site_label
_atom_site_fract_x
_atom_site_fract_y
_atom_site_fract_z
Si Si1 0.711552 0.944030 0.648739
Si Si2 0.312274 0.160489 0.761128
Si Si3 0.000000 0.263722 0.250000
Si Si4 0.825084 0.205014 0.046674
Si Si5 0.276492 0.967902 0.513974
Si Si6 0.376764 0.621534 0.612833
Si Si7 0.119315 0.860891 0.712849
Si Si8 0.470659 0.070869 0.889960
O O1 0.805527 0.904804 0.712847
O O2 0.592545 0.922896 0.529061
O O3 0.757485 0.982003 0.556521
O O4 0.696272 0.964755 0.803660
O O5 0.401900 0.203053 0.778208
O O6 0.221486 0.167918 0.587600
O O7 0.222485 0.152929 0.854193
O O8 0.397200 0.116103 0.809938
O O9 0.047423 0.228856 0.393752
O O10 0.810811 0.182491 0.196475
O O11 0.750000 0.250000 0.000000
O O12 0.181048 0.928980 0.431562
O O13 0.389250 0.956449 0.464795
O O14 0.500000 0.619644 0.750000
O O15 0.401024 0.639801 0.464453
O O16 0.000000 0.862839 0.750000
O O17 0.500000 0.047155 0.750000
#
# Coordination Sequence:
#
# PCOD9274970 Si02
#       8
#     8   8   4   8   8   8   8   8
#     4  11  23  38  60  88 126 164 210 261 314 371
#     4  10  21  39  63  95 127 162 211 255 319 376
#     4  10  20  38  66  98 126 160 208 260 320 382
#     4  10  21  38  65  90 125 161 205 257 308 384
#     4  10  23  40  57  92 127 165 212 260 308 368
#     4  10  23  41  66  90 130 171 212 261 310 376
#     4  11  23  41  64  90 120 169 215 256 316 374
#     4  11  20  35  61  89 122 164 208 254 312 374
#
# _framework density 19.409877000000002
#
# number of rings (size 3 to 8) (size 9 to 14) (size 15 to 20)
#    0.000    1.600    1.333    3.200    1.867    3.733 
#    0.000    5.333    2.933    0.000    0.000    0.000 
#    0.000    0.000    0.000    0.000    0.000    0.000 
#
# Total GULP energy -167116.234481 kJ/mol
# GULP energy per Si atom -5570.541149 kJ/mol
# Density = 1.936570 g / cm^3
# Si number density = 19.409877 Si / 1000 Ang^3
#
#
#
# Elastic Constant Matrix: (Units=GPa)
#
#
# Indices 1 2 3 4 5 6 
#
# 1 103.0056 27.4797 61.1427 0.0000 -3.5867 0.0000
# 2 27.4797 85.8647 49.7076 0.0000 7.1117 0.0000
# 3 61.1427 49.7076 155.5535 0.0000 6.8777 0.0000
# 4 0.0000 0.0000 0.0000 25.7821 0.0000 0.3814
# 5 -3.5867 7.1117 6.8777 0.0000 29.3183 0.0000
# 6 0.0000 0.0000 0.0000 0.3814 0.0000 26.5180
#
#
#
# Elastic Compliance Matrix: (Units=1/GPa)
#
#
# Indices 1 2 3 4 5 6 
#
# 1 0.013083 -0.001704 -0.004736 0.000000 0.003125 0.000000
# 2 -0.001704 0.014684 -0.003896 0.000000 -0.002856 0.000000
# 3 -0.004736 -0.003896 0.009619 0.000000 -0.001891 0.000000
# 4 0.000000 0.000000 0.000000 0.038795 0.000000 -0.000558
# 5 0.003125 -0.002856 -0.001891 0.000000 0.035627 0.000000
# 6 0.000000 0.000000 0.000000 -0.000558 0.000000 0.037718
#
#
# Mechanical properties :
#
#
# Convention : Reuss Voigt Hill
#
# Bulk Modulus (GPa) = 59.83393 69.00931 64.42162
# Shear Modulus (GPa) = 28.44643 30.06327 29.25485
#
# Velocity S-wave (km/s) = 3.83242 3.93983 3.88650
# Velocity P-wave (km/s) = 7.10470 7.50515 7.30767
#
# Compressibility (1/GPa) = 0.01671292
#
# Stress axis : x y z
#
# Youngs Moduli (GPa) = 76.43575 68.10300 103.96250
#
# Poissons Ratio (x) = 0.11605 0.49237
# Poissons Ratio (y) = 0.13025 0.40505
# Poissons Ratio (z) = 0.36200 0.26534
#
# Static dielectric constant tensor:
#      x y z
#    x 1.712960 0.000000 0.044220 
#    y 0.000000 1.715180 0.000000 
#    z 0.044220 0.000000 1.702660 
# 
# From -- ./inp_files/35714.got.cif
#   From: 2010.05.17/outbox.cif.g08.bks.cpg/sg15_18_cif.got.tgz:35714.got - 2010.06.03 18:47:42.
