data_PCOD9274873
_publ_section_title
;
Structure prediction by ZEFSAII (Michael W. Deem and Ramdas Pophale) SiO2 
 PCOD9274873
Probable space group: C 2/C
;
_chemical_formula_sum "Si O2"
_cell_formula_units_Z 36
_cell_length_a 26.104164
_cell_length_b 11.333843
_cell_length_c 13.908574
_cell_angle_alpha 90.000000
_cell_angle_beta 159.074950
_cell_angle_gamma 90.000000
_cell_volume 1469.656598
_symmetry_space_group_name_H-M "C 2/C"
_symmetry_group_IT_number 15
_symmetry_cell_setting 'monoclinic'
loop_
_space_group_symop_operation_xyz
x,y,z
-x,y,1/2-z
-x,-y,-z
x,-y,1/2+z
1/2+x,1/2+y,z
1/2-x,1/2+y,1/2-z
1/2-x,1/2-y,-z
1/2+x,1/2-y,1/2+z
loop_
_atom_site_type_symbol
_atom_site_label
_atom_site_fract_x
_atom_site_fract_y
_atom_site_fract_z
Si Si1 0.496703 0.665253 0.926571
Si Si2 0.500000 0.164090 0.250000
Si Si3 0.106577 0.763027 0.809399
Si Si4 0.206671 0.547124 0.097315
Si Si5 0.150844 0.980279 0.464313
O O1 0.527723 0.762623 0.897449
O O2 0.356605 0.594338 0.646003
O O3 0.488189 0.715867 0.019457
O O4 0.632989 0.574106 0.162543
O O5 0.634385 0.079845 0.460230
O O6 0.135801 0.880701 0.921580
O O7 0.250000 0.750000 0.000000
O O8 0.108614 0.645739 0.875680
O O9 0.227258 0.557670 0.248667
O O10 0.000000 0.948711 0.250000
#
# Coordination Sequence:
#
# PCOD9274873 Si02
#       5
#     8   4   8   8   8
#     4  10  21  42  62  89 126 168 205 266 309 369
#     4  12  22  40  66  88 132 164 214 254 316 374
#     4  10  21  37  62  91 128 158 210 260 309 369
#     4  10  21  36  61  91 118 168 204 252 315 363
#     4  10  20  38  66  87 121 169 213 248 317 375
#
# _framework density 24.495518000000001
#
# number of rings (size 3 to 8) (size 9 to 14) (size 15 to 20)
#    0.000    1.778    3.333    3.333    1.556    0.889 
#    0.000    0.000    0.000    9.333    0.000    0.000 
#    0.000    0.000    0.000    0.000    0.000    0.000 
#
# Total GULP energy -100466.671798 kJ/mol
# GULP energy per Si atom -5581.481767 kJ/mol
# Density = 2.443977 g / cm^3
# Si number density = 24.495518 Si / 1000 Ang^3
#
#
#
# Elastic Constant Matrix: (Units=GPa)
#
#
# Indices 1 2 3 4 5 6 
#
# 1 79.9915 42.6095 41.1669 0.0000 -30.0290 0.0000
# 2 42.6095 138.2694 38.6986 0.0000 -37.9566 0.0000
# 3 41.1669 38.6986 85.6028 0.0000 -37.2107 0.0000
# 4 0.0000 0.0000 0.0000 38.2939 0.0000 -8.0580
# 5 -30.0290 -37.9566 -37.2107 0.0000 53.3286 0.0000
# 6 0.0000 0.0000 0.0000 -8.0580 0.0000 93.6215
#
#
#
# Elastic Compliance Matrix: (Units=1/GPa)
#
#
# Indices 1 2 3 4 5 6 
#
# 1 0.018676 -0.002936 -0.005729 0.000000 0.004429 0.000000
# 2 -0.002936 0.009657 -0.000983 0.000000 0.004534 0.000000
# 3 -0.005729 -0.000983 0.018911 0.000000 0.009270 0.000000
# 4 0.000000 0.000000 0.000000 0.026596 0.000000 0.002289
# 5 0.004429 0.004534 0.009270 0.000000 0.030941 0.000000
# 6 0.000000 0.000000 0.000000 0.002289 0.000000 0.010878
#
#
# Mechanical properties :
#
#
# Convention : Reuss Voigt Hill
#
# Bulk Modulus (GPa) = 35.77967 60.97932 48.37949
# Shear Modulus (GPa) = 34.65720 49.14138 41.89929
#
# Velocity S-wave (km/s) = 3.76551 4.48385 4.14029
# Velocity P-wave (km/s) = 5.79170 7.19407 6.53064
#
# Compressibility (1/GPa) = 0.02794883
#
# Stress axis : x y z
#
# Youngs Moduli (GPa) = 53.54348 103.55426 52.88038
#
# Poissons Ratio (x) = 0.30404 0.30294
# Poissons Ratio (y) = 0.15721 0.05196
# Poissons Ratio (z) = 0.30674 0.10175
#
# Static dielectric constant tensor:
#      x y z
#    x 2.028160 0.000000 -0.088510 
#    y 0.000000 2.018540 0.000000 
#    z -0.088510 0.000000 1.992820 
# 
# From -- ./inp_files/141331.got.cif
#   From: 2010.05.17/outbox.cif.g08.bks.cpg/sg15_71_cif.got.tgz:141331.got - 2010.06.03 18:47:42.
