data_PCOD9274461
_publ_section_title
;
Structure prediction by ZEFSAII (Michael W. Deem and Ramdas Pophale) SiO2 
 PCOD9274461
Probable space group: C 2/C
;
_chemical_formula_sum "Si O2"
_cell_formula_units_Z 56
_cell_length_a 27.285385
_cell_length_b 14.028434
_cell_length_c 11.848339
_cell_angle_alpha 90.000000
_cell_angle_beta 36.571963
_cell_angle_gamma 90.000000
_cell_volume 2702.218990
_symmetry_space_group_name_H-M "C 2/C"
_symmetry_group_IT_number 15
_symmetry_cell_setting 'monoclinic'
loop_
_space_group_symop_operation_xyz
x,y,z
-x,y,1/2-z
-x,-y,-z
x,-y,1/2+z
1/2+x,1/2+y,z
1/2-x,1/2+y,1/2-z
1/2-x,1/2-y,-z
1/2+x,1/2-y,1/2+z
loop_
_atom_site_type_symbol
_atom_site_label
_atom_site_fract_x
_atom_site_fract_y
_atom_site_fract_z
Si Si1 0.064810 0.015117 0.226146
Si Si2 0.915214 0.327748 0.977212
Si Si3 0.554540 0.363637 0.963549
Si Si4 0.234292 0.353509 0.404500
Si Si5 0.459085 0.973481 0.453268
Si Si6 0.326831 0.173788 0.228250
Si Si7 0.794289 0.042308 0.181567
O O1 0.059470 0.095221 0.330181
O O2 0.000000 0.042755 0.250000
O O3 0.029502 0.911647 0.332821
O O4 0.157443 0.004213 0.012911
O O5 0.899986 0.434198 0.050599
O O6 0.000000 0.329371 0.750000
O O7 0.932720 0.247789 0.038457
O O8 0.839422 0.308278 0.033824
O O9 0.630788 0.410675 0.889018
O O10 0.313846 0.286462 0.240500
O O11 0.206653 0.350760 0.585086
O O12 0.252772 0.459848 0.331298
O O13 0.500000 0.969162 0.250000
O O14 0.415645 0.872482 0.551579
O O15 0.500000 0.000000 0.500000
O O16 0.270483 0.119032 0.241802
#
# Coordination Sequence:
#
# PCOD9274461 Si02
#       7
#     8   8   8   8   8   8   8
#     4   9  20  38  57  89 128 162 205 260 335 389
#     4  11  21  40  66  92 125 168 223 264 326 399
#     4  10  20  38  63  91 122 168 209 265 329 398
#     4  11  24  41  65  98 127 172 222 273 341 405
#     4  11  25  48  69  96 135 182 230 280 332 399
#     4  11  23  42  67  94 130 175 221 276 332 403
#     4  11  20  39  62  91 131 158 214 276 330 396
#
# _framework density 20.723711000000002
#
# number of rings (size 3 to 8) (size 9 to 14) (size 15 to 20)
#    0.000    1.429    2.857    3.857    0.000    0.000 
#   15.429    0.714    0.000    0.000    0.000    0.000 
#    0.000    0.000    0.000    0.000    0.000    0.000 
#
# Total GULP energy -156156.073493 kJ/mol
# GULP energy per Si atom -5577.002625 kJ/mol
# Density = 2.067654 g / cm^3
# Si number density = 20.723711 Si / 1000 Ang^3
#
#
#
# Elastic Constant Matrix: (Units=GPa)
#
#
# Indices 1 2 3 4 5 6 
#
# 1 56.5475 3.7861 3.0883 0.0000 9.6377 0.0000
# 2 3.7861 75.1039 -1.8215 0.0000 9.7101 0.0000
# 3 3.0883 -1.8215 29.6055 0.0000 5.7915 0.0000
# 4 0.0000 0.0000 0.0000 38.4528 0.0000 -13.9938
# 5 9.6377 9.7101 5.7915 0.0000 27.1824 0.0000
# 6 0.0000 0.0000 0.0000 -13.9938 0.0000 34.4177
#
#
#
# Elastic Compliance Matrix: (Units=1/GPa)
#
#
# Indices 1 2 3 4 5 6 
#
# 1 0.018836 -0.000129 -0.000705 0.000000 -0.006482 0.000000
# 2 -0.000129 0.014065 0.001933 0.000000 -0.005391 0.000000
# 3 -0.000705 0.001933 0.035537 0.000000 -0.008012 0.000000
# 4 0.000000 0.000000 0.000000 0.030522 0.000000 0.012410
# 5 -0.006482 -0.005391 -0.008012 0.000000 0.042720 0.000000
# 6 0.000000 0.000000 0.000000 0.012410 0.000000 0.034101
#
#
# Mechanical properties :
#
#
# Convention : Reuss Voigt Hill
#
# Bulk Modulus (GPa) = 14.15648 19.04028 16.59838
# Shear Modulus (GPa) = 25.36431 30.42416 27.89424
#
# Velocity S-wave (km/s) = 3.50226 3.83572 3.67278
# Velocity P-wave (km/s) = 4.81667 5.36885 5.10024
#
# Compressibility (1/GPa) = 0.07063903
#
# Stress axis : x y z
#
# Youngs Moduli (GPa) = 53.08932 71.09736 28.13936
#
# Poissons Ratio (x) = 0.00914 0.01983
# Poissons Ratio (y) = 0.00682 -0.05440
# Poissons Ratio (z) = 0.03741 -0.13745
#
# Static dielectric constant tensor:
#      x y z
#    x 1.768050 0.000000 0.008850 
#    y 0.000000 1.740130 0.000000 
#    z 0.008850 0.000000 1.778830 
# 
# From -- ./inp_files/123317.got.cif
#   From: 2010.05.17/outbox.cif.g08.bks.cpg/sg15_62_cif.got.tgz:123317.got - 2010.06.03 18:47:42.
