data_PCOD9274652
_publ_section_title
;
Structure prediction by ZEFSAII (Michael W. Deem and Ramdas Pophale) SiO2 
 PCOD9274652
Probable space group: C 2/C
;
_chemical_formula_sum "Si O2"
_cell_formula_units_Z 40
_cell_length_a 5.029747
_cell_length_b 29.492700
_cell_length_c 13.513818
_cell_angle_alpha 90.000000
_cell_angle_beta 73.400169
_cell_angle_gamma 90.000000
_cell_volume 1921.103838
_symmetry_space_group_name_H-M "C 2/C"
_symmetry_group_IT_number 15
_symmetry_cell_setting 'monoclinic'
loop_
_space_group_symop_operation_xyz
x,y,z
-x,y,1/2-z
-x,-y,-z
x,-y,1/2+z
1/2+x,1/2+y,z
1/2-x,1/2+y,1/2-z
1/2-x,1/2-y,-z
1/2+x,1/2-y,1/2+z
loop_
_atom_site_type_symbol
_atom_site_label
_atom_site_fract_x
_atom_site_fract_y
_atom_site_fract_z
Si Si1 0.180279 0.561078 0.319099
Si Si2 0.000000 0.198398 0.250000
Si Si3 0.179842 0.642953 0.451207
Si Si4 0.000000 0.525191 0.750000
Si Si5 0.000000 0.238214 0.750000
Si Si6 0.000000 0.913110 0.250000
Si Si7 0.092527 0.838889 0.082183
O O1 0.500000 0.557499 0.250000
O O2 0.154689 0.590864 0.419167
O O3 0.000000 0.584455 0.250000
O O4 0.047249 0.510778 0.334617
O O5 0.144155 0.167389 0.152596
O O6 0.231464 0.230501 0.272804
O O7 0.343621 0.648696 0.535646
O O8 0.878156 0.665209 0.492414
O O9 0.270186 0.556153 0.721270
O O10 0.980707 0.205480 0.847164
O O11 0.863079 0.879865 0.344898
#
# Coordination Sequence:
#
# PCOD9274652 Si02
#       7
#     8   4   8   4   4   4   8
#     4  10  20  38  64  91 130 165 202 268 316 365
#     4  12  26  40  74  93 130 161 220 254 338 374
#     4  12  24  42  67 101 121 177 204 268 318 391
#     4  10  20  38  70  89 128 171 216 262 318 360
#     4  11  26  47  62  99 126 175 204 277 304 381
#     4  11  22  45  64  91 124 189 206 261 314 379
#     4  11  26  43  67  89 138 164 223 252 322 379
#
# _framework density 20.821362000000001
#
# number of rings (size 3 to 8) (size 9 to 14) (size 15 to 20)
#    0.600    0.400    2.000    4.800    1.400    8.000 
#    0.000    6.000    0.000    0.000    0.000    0.000 
#    0.000    0.000    0.000    0.000    0.000    0.000 
#
# Total GULP energy -111779.091544 kJ/mol
# GULP energy per Si atom -5588.954577 kJ/mol
# Density = 2.077397 g / cm^3
# Si number density = 20.821362 Si / 1000 Ang^3
#
#
#
# Elastic Constant Matrix: (Units=GPa)
#
#
# Indices 1 2 3 4 5 6 
#
# 1 116.8499 23.2100 2.5380 0.0000 8.4081 0.0000
# 2 23.2100 100.7522 25.9646 0.0000 -1.4969 0.0000
# 3 2.5380 25.9646 42.4305 0.0000 1.3716 0.0000
# 4 0.0000 0.0000 0.0000 196.4315 0.0000 -259.4677
# 5 8.4081 -1.4969 1.3716 0.0000 36.7372 0.0000
# 6 0.0000 0.0000 0.0000 -259.4677 0.0000 390.0311
#
#
#
# Elastic Compliance Matrix: (Units=1/GPa)
#
#
# Indices 1 2 3 4 5 6 
#
# 1 0.009174 -0.002403 0.000994 0.000000 -0.002235 0.000000
# 2 -0.002403 0.012434 -0.007508 0.000000 0.001337 0.000000
# 3 0.000994 -0.007508 0.028154 0.000000 -0.001584 0.000000
# 4 0.000000 0.000000 0.000000 0.041980 0.000000 0.027927
# 5 -0.002235 0.001337 -0.001584 0.000000 0.027845 0.000000
# 6 0.000000 0.000000 0.000000 0.027927 0.000000 0.021142
#
#
# Mechanical properties :
#
#
# Convention : Reuss Voigt Hill
#
# Bulk Modulus (GPa) = 31.32028 40.38419 35.85224
# Shear Modulus (GPa) = 29.54966 138.52797 84.03882
#
# Velocity S-wave (km/s) = 3.77131 8.16554 6.35999
# Velocity P-wave (km/s) = 5.83428 10.40861 8.43735
#
# Compressibility (1/GPa) = 0.03192819
#
# Stress axis : x y z
#
# Youngs Moduli (GPa) = 108.99800 80.42722 35.51879
#
# Poissons Ratio (x) = 0.19325 -0.03530
# Poissons Ratio (y) = 0.26190 0.26668
# Poissons Ratio (z) = -0.10832 0.60385
#
# Static dielectric constant tensor:
#      x y z
#    x 1.724790 0.000000 0.001460 
#    y 0.000000 1.745030 0.000000 
#    z 0.001460 0.000000 1.740260 
# 
# From -- ./inp_files/73665.got.cif
#   From: 2010.05.17/outbox.cif.g08.bks.cpg/sg15_37_cif.got.tgz:73665.got - 2010.06.03 18:47:42.
