data_PCOD9274991
_publ_section_title
;
Structure prediction by ZEFSAII (Michael W. Deem and Ramdas Pophale) SiO2 
 PCOD9274991
Probable space group: C 2/C
;
_chemical_formula_sum "Si O2"
_cell_formula_units_Z 48
_cell_length_a 14.603050
_cell_length_b 13.147457
_cell_length_c 13.235683
_cell_angle_alpha 90.000000
_cell_angle_beta 107.692620
_cell_angle_gamma 90.000000
_cell_volume 2420.962948
_symmetry_space_group_name_H-M "C 2/C"
_symmetry_group_IT_number 15
_symmetry_cell_setting 'monoclinic'
loop_
_space_group_symop_operation_xyz
x,y,z
-x,y,1/2-z
-x,-y,-z
x,-y,1/2+z
1/2+x,1/2+y,z
1/2-x,1/2+y,1/2-z
1/2-x,1/2-y,-z
1/2+x,1/2-y,1/2+z
loop_
_atom_site_type_symbol
_atom_site_label
_atom_site_fract_x
_atom_site_fract_y
_atom_site_fract_z
Si Si1 0.895020 0.298473 0.595363
Si Si2 0.491539 0.011073 0.615675
Si Si3 0.846431 0.981320 0.923323
Si Si4 0.154874 0.597196 0.799673
Si Si5 0.202298 0.242790 0.146642
Si Si6 0.480227 0.586752 0.630174
O O1 0.941028 0.406636 0.632118
O O2 0.847737 0.297770 0.467037
O O3 0.812847 0.269591 0.648811
O O4 0.971693 0.208154 0.622471
O O5 0.595319 0.029779 0.698858
O O6 0.422794 0.102004 0.634657
O O7 0.500000 0.000000 0.500000
O O8 0.839164 0.871744 0.866238
O O9 0.747660 0.040638 0.874903
O O10 0.880762 0.955163 0.048713
O O11 0.931406 0.047796 0.905637
O O12 0.184841 0.695970 0.744245
O O13 0.500000 0.553239 0.750000
#
# Coordination Sequence:
#
# PCOD9274991 Si02
#       6
#     8   8   8   8   8   8
#     4  10  20  38  67  93 123 170 224 269 322 399
#     4  11  23  40  62  97 131 175 222 275 325 396
#     4  10  22  41  60  96 130 162 217 274 323 392
#     4  11  23  38  64  95 129 174 216 274 327 392
#     4  10  20  39  65  92 127 170 218 270 332 386
#     4  10  22  38  64  93 123 169 215 268 325 393
#
# _framework density 19.826820999999999
#
# number of rings (size 3 to 8) (size 9 to 14) (size 15 to 20)
#    0.000    1.667    3.333    1.000    2.333    2.667 
#    3.000    0.000    0.000    3.000    0.000    0.000 
#    0.000    0.000    0.000    0.000    0.000    0.000 
#
# Total GULP energy -133893.186425 kJ/mol
# GULP energy per Si atom -5578.882768 kJ/mol
# Density = 1.978169 g / cm^3
# Si number density = 19.826821 Si / 1000 Ang^3
#
#
#
# Elastic Constant Matrix: (Units=GPa)
#
#
# Indices 1 2 3 4 5 6 
#
# 1 84.9057 45.1180 42.3432 0.0000 7.2083 0.0000
# 2 45.1180 90.3933 21.9623 0.0000 -0.1836 0.0000
# 3 42.3432 21.9623 120.9714 0.0000 -3.3564 0.0000
# 4 0.0000 0.0000 0.0000 24.4912 0.0000 -6.0332
# 5 7.2083 -0.1836 -3.3564 0.0000 40.6127 0.0000
# 6 0.0000 0.0000 0.0000 -6.0332 0.0000 2.4267
#
#
#
# Elastic Compliance Matrix: (Units=1/GPa)
#
#
# Indices 1 2 3 4 5 6 
#
# 1 0.019153 -0.008278 -0.005309 0.000000 -0.003876 0.000000
# 2 -0.008278 0.015152 0.000190 0.000000 0.001553 0.000000
# 3 -0.005309 0.000190 0.010140 0.000000 0.001781 0.000000
# 4 0.000000 0.000000 0.000000 0.105352 0.000000 0.261918
# 5 -0.003876 0.001553 0.001781 0.000000 0.025465 0.000000
# 6 0.000000 0.000000 0.000000 0.261918 0.000000 1.063234
#
#
# Mechanical properties :
#
#
# Convention : Reuss Voigt Hill
#
# Bulk Modulus (GPa) = 56.65552 57.23525 56.94539
# Shear Modulus (GPa) = 3.93337 25.96258 14.94798
#
# Velocity S-wave (km/s) = 1.41003 3.62258 2.74875
# Velocity P-wave (km/s) = 5.59358 6.81379 6.23361
#
# Compressibility (1/GPa) = 0.01765053
#
# Stress axis : x y z
#
# Youngs Moduli (GPa) = 52.21066 65.99972 98.62340
#
# Poissons Ratio (x) = 0.54634 0.52357
# Poissons Ratio (y) = 0.43220 -0.01872
# Poissons Ratio (z) = 0.27718 -0.01253
#
# Static dielectric constant tensor:
#      x y z
#    x 1.712060 0.000000 0.002170 
#    y 0.000000 1.694450 0.000000 
#    z 0.002170 0.000000 1.742070 
# 
# From -- ./inp_files/152181.got.cif
#   From: 2010.05.17/outbox.cif.g08.bks.cpg/sg15_77_cif.got.tgz:152181.got - 2010.06.03 18:47:42.
