data_PCOD9274115
_publ_section_title
;
Structure prediction by ZEFSAII (Michael W. Deem and Ramdas Pophale) SiO2 
 PCOD9274115
Probable space group: C 2/C
;
_chemical_formula_sum "Si O2"
_cell_formula_units_Z 64
_cell_length_a 17.363726
_cell_length_b 12.169442
_cell_length_c 14.981289
_cell_angle_alpha 90.000000
_cell_angle_beta 97.305972
_cell_angle_gamma 90.000000
_cell_volume 3139.947791
_symmetry_space_group_name_H-M "C 2/C"
_symmetry_group_IT_number 15
_symmetry_cell_setting 'monoclinic'
loop_
_space_group_symop_operation_xyz
x,y,z
-x,y,1/2-z
-x,-y,-z
x,-y,1/2+z
1/2+x,1/2+y,z
1/2-x,1/2+y,1/2-z
1/2-x,1/2-y,-z
1/2+x,1/2-y,1/2+z
loop_
_atom_site_type_symbol
_atom_site_label
_atom_site_fract_x
_atom_site_fract_y
_atom_site_fract_z
Si Si1 0.038046 0.897976 0.406528
Si Si2 0.623462 0.471350 0.067415
Si Si3 0.711576 0.978723 0.634825
Si Si4 0.481058 0.176651 0.453011
Si Si5 0.777342 0.427086 0.655176
Si Si6 0.677723 0.252077 0.125541
Si Si7 0.101720 0.509827 0.959539
Si Si8 0.821897 0.179000 0.676272
O O1 0.088983 0.851893 0.332483
O O2 0.952414 0.949109 0.381410
O O3 0.023935 0.791672 0.467651
O O4 0.089181 0.981798 0.471245
O O5 0.687251 0.550293 0.120719
O O6 0.664623 0.353759 0.058578
O O7 0.703090 0.958205 0.739778
O O8 0.729196 0.852498 0.606729
O O9 0.638073 0.012540 0.563292
O O10 0.772052 0.077337 0.631686
O O11 0.408972 0.200258 0.376690
O O12 0.539497 0.083715 0.428283
O O13 0.441510 0.125781 0.535382
O O14 0.828853 0.503598 0.599165
O O15 0.799950 0.300349 0.637122
O O16 0.698000 0.307543 0.222304
#
# Coordination Sequence:
#
# PCOD9274115 Si02
#       8
#     8   8   8   8   8   8   8   8
#     4  10  21  37  60  92 115 167 210 257 310 382
#     4  10  21  38  58  86 128 154 201 257 316 374
#     4  10  22  38  60  95 124 160 215 267 312 379
#     4   9  19  37  58  90 122 157 207 260 308 377
#     4  11  22  39  63  93 122 168 206 266 327 368
#     4   9  20  40  59  86 125 165 198 266 307 378
#     4  10  20  38  61  91 124 161 208 265 319 373
#     4  11  21  38  65  91 120 160 220 259 315 375
#
# _framework density 20.382504000000001
#
# number of rings (size 3 to 8) (size 9 to 14) (size 15 to 20)
#    0.000    2.000    2.500    0.750    1.750    3.000 
#    2.250   13.125    0.000    0.000    0.000    0.000 
#    0.000    0.000    0.000    0.000    0.000    0.000 
#
# Total GULP energy -178222.668845 kJ/mol
# GULP energy per Si atom -5569.458401 kJ/mol
# Density = 2.033611 g / cm^3
# Si number density = 20.382504 Si / 1000 Ang^3
#
#
#
# Elastic Constant Matrix: (Units=GPa)
#
#
# Indices 1 2 3 4 5 6 
#
# 1 77.3180 26.6444 25.3527 0.0000 -11.1194 0.0000
# 2 26.6444 94.8975 10.9814 0.0000 -7.6081 0.0000
# 3 25.3527 10.9814 38.7824 0.0000 0.4719 0.0000
# 4 0.0000 0.0000 0.0000 23.2319 0.0000 10.7023
# 5 -11.1194 -7.6081 0.4719 0.0000 21.1183 0.0000
# 6 0.0000 0.0000 0.0000 10.7023 0.0000 45.1957
#
#
#
# Elastic Compliance Matrix: (Units=1/GPa)
#
#
# Indices 1 2 3 4 5 6 
#
# 1 0.019255 -0.003307 -0.011763 0.000000 0.009210 0.000000
# 2 -0.003307 0.011810 -0.001213 0.000000 0.002541 0.000000
# 3 -0.011763 -0.001213 0.033908 0.000000 -0.007388 0.000000
# 4 0.000000 0.000000 0.000000 0.048315 0.000000 -0.011441
# 5 0.009210 0.002541 -0.007388 0.000000 0.053282 0.000000
# 6 0.000000 0.000000 0.000000 -0.011441 0.000000 0.024835
#
#
# Mechanical properties :
#
#
# Convention : Reuss Voigt Hill
#
# Bulk Modulus (GPa) = 30.85751 37.43942 34.14846
# Shear Modulus (GPa) = 21.29715 27.77712 24.53713
#
# Velocity S-wave (km/s) = 3.23596 3.69561 3.47339
# Velocity P-wave (km/s) = 5.39759 6.05131 5.73377
#
# Compressibility (1/GPa) = 0.03240702
#
# Stress axis : x y z
#
# Youngs Moduli (GPa) = 51.93551 84.67251 29.49158
#
# Poissons Ratio (x) = 0.27998 0.34691
# Poissons Ratio (y) = 0.17173 0.03579
# Poissons Ratio (z) = 0.61091 0.10275
#
# Static dielectric constant tensor:
#      x y z
#    x 1.755270 0.000000 0.000020 
#    y 0.000000 1.772970 0.000000 
#    z 0.000020 0.000000 1.713930 
# 
# From -- ./inp_files/161361.got.cif
#   From: 2010.05.17/outbox.cif.g08.bks.cpg/sg15_81_cif.got.tgz:161361.got - 2010.06.03 18:47:42.
