data_PCOD9274399
_publ_section_title
;
Structure prediction by ZEFSAII (Michael W. Deem and Ramdas Pophale) SiO2 
 PCOD9274399
Probable space group: C 2/C
;
_chemical_formula_sum "Si O2"
_cell_formula_units_Z 60
_cell_length_a 19.417861
_cell_length_b 17.935116
_cell_length_c 8.952847
_cell_angle_alpha 90.000000
_cell_angle_beta 76.764490
_cell_angle_gamma 90.000000
_cell_volume 3035.111678
_symmetry_space_group_name_H-M "C 2/C"
_symmetry_group_IT_number 15
_symmetry_cell_setting 'monoclinic'
loop_
_space_group_symop_operation_xyz
x,y,z
-x,y,1/2-z
-x,-y,-z
x,-y,1/2+z
1/2+x,1/2+y,z
1/2-x,1/2+y,1/2-z
1/2-x,1/2-y,-z
1/2+x,1/2-y,1/2+z
loop_
_atom_site_type_symbol
_atom_site_label
_atom_site_fract_x
_atom_site_fract_y
_atom_site_fract_z
Si Si1 0.771236 0.961551 0.001426
Si Si2 0.918529 0.926083 0.052303
Si Si3 0.273583 0.901436 0.181292
Si Si4 0.716162 0.301740 0.650585
Si Si5 0.967357 0.766784 0.102627
Si Si6 0.826440 0.759283 0.299820
Si Si7 0.615800 0.225587 0.909104
Si Si8 0.500000 0.499004 0.250000
O O1 0.846416 0.967462 0.047469
O O2 0.784082 0.887274 0.896604
O O3 0.746662 0.033872 0.924561
O O4 0.718695 0.938304 0.160082
O O5 0.972860 0.953483 0.900288
O O6 0.931268 0.838105 0.043154
O O7 0.938733 0.949364 0.209697
O O8 0.208730 0.840424 0.220716
O O9 0.344563 0.854379 0.113102
O O10 0.750000 0.250000 0.500000
O O11 0.764936 0.294055 0.772904
O O12 0.641886 0.268535 0.746962
O O13 0.895241 0.725367 0.181819
O O14 0.000000 0.787042 0.250000
O O15 0.031461 0.730613 0.978275
O O16 0.849318 0.762123 0.459821
#
# Coordination Sequence:
#
# PCOD9274399 Si02
#       8
#     8   8   8   8   8   8   8   4
#     4  12  25  36  64  89 133 166 212 263 330 382
#     4  11  21  39  50  88 118 172 200 248 307 397
#     4  11  23  41  58  97 127 167 210 265 320 389
#     4  11  20  40  60  89 124 165 209 277 317 366
#     4  10  20  38  63  86 117 168 215 262 306 376
#     4  10  21  41  62  89 125 165 218 265 314 384
#     4  10  23  39  66  88 126 169 222 258 316 385
#     4  10  24  34  52  72 134 166 194 242 316 384
#
# _framework density 19.768629000000001
#
# number of rings (size 3 to 8) (size 9 to 14) (size 15 to 20)
#    0.000    1.333    4.667    2.400    5.600    1.067 
#    0.000    0.000    0.000    0.800    0.000    0.000 
#    0.000    0.000    0.000    0.000    0.000    0.000 
#
# Total GULP energy -167052.664478 kJ/mol
# GULP energy per Si atom -5568.422149 kJ/mol
# Density = 1.972363 g / cm^3
# Si number density = 19.768629 Si / 1000 Ang^3
#
#
#
# Elastic Constant Matrix: (Units=GPa)
#
#
# Indices 1 2 3 4 5 6 
#
# 1 69.2814 24.6773 31.8993 0.0000 -26.5235 0.0000
# 2 24.6773 78.8448 28.3450 0.0000 0.2728 0.0000
# 3 31.8993 28.3450 84.5502 0.0000 -25.7855 0.0000
# 4 0.0000 0.0000 0.0000 -24.0304 0.0000 11.4754
# 5 -26.5235 0.2728 -25.7855 0.0000 40.3921 0.0000
# 6 0.0000 0.0000 0.0000 11.4754 0.0000 22.4480
#
#
#
# Elastic Compliance Matrix: (Units=1/GPa)
#
#
# Indices 1 2 3 4 5 6 
#
# 1 0.023036 -0.006401 -0.002383 0.000000 0.013649 0.000000
# 2 -0.006401 0.016727 -0.005599 0.000000 -0.007890 0.000000
# 3 -0.002383 -0.005599 0.017556 0.000000 0.009680 0.000000
# 4 0.000000 0.000000 0.000000 -0.033449 0.000000 0.017099
# 5 0.013649 -0.007890 0.009680 0.000000 0.039953 0.000000
# 6 0.000000 0.000000 0.000000 0.017099 0.000000 0.035806
#
#
# Mechanical properties :
#
#
# Convention : Reuss Voigt Hill
#
# Bulk Modulus (GPa) = 35.02204 44.72439 39.87321
# Shear Modulus (GPa) = 36.25518 17.61225 26.93372
#
# Velocity S-wave (km/s) = 4.28714 2.98806 3.69514
# Velocity P-wave (km/s) = 6.50081 5.88028 6.19832
#
# Compressibility (1/GPa) = 0.02855345
#
# Stress axis : x y z
#
# Youngs Moduli (GPa) = 43.41020 59.78517 56.96208
#
# Poissons Ratio (x) = 0.38266 0.13573
# Poissons Ratio (y) = 0.27785 0.31893
# Poissons Ratio (z) = 0.10344 0.33473
#
# Static dielectric constant tensor:
#      x y z
#    x 1.747810 0.000000 -0.018080 
#    y 0.000000 1.740460 0.000000 
#    z -0.018080 0.000000 1.802450 
# 
# From -- ./inp_files/56562.got.cif
#   From: 2010.05.17/outbox.cif.g08.bks.cpg/sg15_29_cif.got.tgz:56562.got - 2010.06.03 18:47:42.
