data_PCOD9274136
_publ_section_title
;
Structure prediction by ZEFSAII (Michael W. Deem and Ramdas Pophale) SiO2 
 PCOD9274136
Probable space group: C 2/C
;
_chemical_formula_sum "Si O2"
_cell_formula_units_Z 60
_cell_length_a 10.509764
_cell_length_b 29.493075
_cell_length_c 16.973223
_cell_angle_alpha 90.000000
_cell_angle_beta 31.453332
_cell_angle_gamma 90.000000
_cell_volume 2745.267465
_symmetry_space_group_name_H-M "C 2/C"
_symmetry_group_IT_number 15
_symmetry_cell_setting 'monoclinic'
loop_
_space_group_symop_operation_xyz
x,y,z
-x,y,1/2-z
-x,-y,-z
x,-y,1/2+z
1/2+x,1/2+y,z
1/2-x,1/2+y,1/2-z
1/2-x,1/2-y,-z
1/2+x,1/2-y,1/2+z
loop_
_atom_site_type_symbol
_atom_site_label
_atom_site_fract_x
_atom_site_fract_y
_atom_site_fract_z
Si Si1 0.993460 0.381630 0.059957
Si Si2 0.079050 0.289293 0.331179
Si Si3 0.000000 0.907612 0.750000
Si Si4 0.790308 0.541997 0.232551
Si Si5 0.094001 0.892788 0.962262
Si Si6 0.586084 0.294996 0.490230
Si Si7 0.323892 0.048030 0.778959
Si Si8 0.784134 0.071783 0.926929
O O1 0.864797 0.336706 0.157735
O O2 0.942665 0.423145 0.146195
O O3 0.878462 0.392952 0.036718
O O4 0.283745 0.377393 0.899383
O O5 0.280321 0.280200 0.159790
O O6 0.816205 0.299345 0.428687
O O7 0.065443 0.246457 0.395043
O O8 0.131271 0.938587 0.745414
O O9 0.774172 0.579142 0.310654
O O10 0.680563 0.494042 0.317702
O O11 0.074615 0.534690 0.058018
O O12 0.135429 0.904804 0.033194
O O13 0.061558 0.841040 0.951353
O O14 0.832193 0.916547 0.088303
O O15 0.500000 0.026173 0.750000
O O16 0.000000 0.059469 0.750000
#
# Coordination Sequence:
#
# PCOD9274136 Si02
#       8
#     8   8   4   8   8   8   8   8
#     4  11  23  42  64  94 129 172 213 269 325 384
#     4  10  20  38  61  93 126 160 214 264 326 380
#     4  10  24  42  66  96 134 168 218 274 326 374
#     4  11  26  41  65  98 130 172 224 266 317 385
#     4  12  23  43  66  92 132 170 218 266 323 385
#     4  10  21  36  64  92 123 165 207 267 323 386
#     4  12  23  40  66  95 131 172 219 265 324 379
#     4  11  23  44  64  90 131 179 215 263 320 383
#
# _framework density 21.855793999999999
#
# number of rings (size 3 to 8) (size 9 to 14) (size 15 to 20)
#    0.000    1.067    2.667    4.000    0.000    8.533 
#    1.200    0.667    0.000    1.600    0.000    0.000 
#    0.000    0.000    0.000    0.000    0.000    0.000 
#
# Total GULP energy -167557.981415 kJ/mol
# GULP energy per Si atom -5585.266047 kJ/mol
# Density = 2.180605 g / cm^3
# Si number density = 21.855794 Si / 1000 Ang^3
#
#
#
# Elastic Constant Matrix: (Units=GPa)
#
#
# Indices 1 2 3 4 5 6 
#
# 1 91.7004 34.6626 28.2883 -0.0002 19.6451 -0.0001
# 2 34.6626 134.4612 43.5778 -0.0001 31.5816 0.0000
# 3 28.2883 43.5778 104.9673 -0.0010 10.7329 -0.0004
# 4 -0.0002 -0.0001 -0.0010 177.6763 0.0005 58.7007
# 5 19.6451 31.5816 10.7329 0.0005 28.9408 0.0002
# 6 -0.0001 0.0000 -0.0004 58.7007 0.0002 41.5104
#
#
#
# Elastic Compliance Matrix: (Units=1/GPa)
#
#
# Indices 1 2 3 4 5 6 
#
# 1 0.013603 -0.000998 -0.002514 0.000000 -0.007212 0.000000
# 2 -0.000998 0.011191 -0.003324 0.000000 -0.010303 0.000000
# 3 -0.002514 -0.003324 0.011474 0.000000 0.001079 0.000000
# 4 0.000000 0.000000 0.000000 0.010563 0.000000 -0.014938
# 5 -0.007212 -0.010303 0.001079 0.000000 0.050292 0.000000
# 6 0.000000 0.000000 0.000000 -0.014938 0.000000 0.045214
#
#
# Mechanical properties :
#
#
# Convention : Reuss Voigt Hill
#
# Bulk Modulus (GPa) = 44.25447 60.46515 52.35981
# Shear Modulus (GPa) = 30.57322 64.59884 47.58603
#
# Velocity S-wave (km/s) = 3.74419 5.44252 4.67119
# Velocity P-wave (km/s) = 6.24374 8.19880 7.28713
#
# Compressibility (1/GPa) = 0.02259658
#
# Stress axis : x y z
#
# Youngs Moduli (GPa) = 73.51321 89.35478 87.15387
#
# Poissons Ratio (x) = 0.08916 0.21912
# Poissons Ratio (y) = 0.07335 0.28968
# Poissons Ratio (z) = 0.18483 0.29700
#
# Static dielectric constant tensor:
#      x y z
#    x 1.836950 0.000000 -0.020660 
#    y 0.000000 1.732810 0.000000 
#    z -0.020660 0.000000 1.884390 
# 
# From -- ./inp_files/201385.got.cif
#   From: 2010.05.17/outbox.cif.g08.bks.cpg/sg15_101_cif.got.tgz:201385.got - 2010.06.03 18:47:42.
