data_PCOD9274721
_publ_section_title
;
Structure prediction by ZEFSAII (Michael W. Deem and Ramdas Pophale) SiO2 
 PCOD9274721
Probable space group: C 2/C
;
_chemical_formula_sum "Si O2"
_cell_formula_units_Z 52
_cell_length_a 24.762146
_cell_length_b 19.651607
_cell_length_c 13.500772
_cell_angle_alpha 90.000000
_cell_angle_beta 22.390395
_cell_angle_gamma 90.000000
_cell_volume 2502.496408
_symmetry_space_group_name_H-M "C 2/C"
_symmetry_group_IT_number 15
_symmetry_cell_setting 'monoclinic'
loop_
_space_group_symop_operation_xyz
x,y,z
-x,y,1/2-z
-x,-y,-z
x,-y,1/2+z
1/2+x,1/2+y,z
1/2-x,1/2+y,1/2-z
1/2-x,1/2-y,-z
1/2+x,1/2-y,1/2+z
loop_
_atom_site_type_symbol
_atom_site_label
_atom_site_fract_x
_atom_site_fract_y
_atom_site_fract_z
Si Si1 0.295310 0.542960 0.363789
Si Si2 0.523059 0.566429 0.822635
Si Si3 0.915070 0.734656 0.692280
Si Si4 0.161955 0.183788 0.680976
Si Si5 0.763113 0.368758 0.345904
Si Si6 0.162992 0.421119 0.481166
Si Si7 0.500000 0.732304 0.250000
O O1 0.396546 0.492197 0.253737
O O2 0.253483 0.596570 0.518611
O O3 0.181193 0.492352 0.507943
O O4 0.379842 0.575875 0.128916
O O5 0.500000 0.545217 0.750000
O O6 0.617476 0.634470 0.666839
O O7 0.901546 0.677963 0.630228
O O8 0.013975 0.793870 0.482137
O O9 0.991910 0.720796 0.666478
O O10 0.750000 0.750000 0.000000
O O11 0.250000 0.250000 0.500000
O O12 0.249077 0.136473 0.609263
O O13 0.633828 0.318905 0.533744
O O14 0.779586 0.421786 0.228843
O O15 0.000000 0.402104 0.750000
#
# Coordination Sequence:
#
# PCOD9274721 Si02
#       7
#     8   8   8   8   8   8   4
#     4  10  23  39  65  95 123 170 228 262 326 391
#     4  10  21  39  64  94 127 163 219 275 321 393
#     4  10  21  39  64  97 129 168 223 265 325 398
#     4  11  23  42  64  97 132 174 219 268 339 405
#     4  11  22  39  67  94 133 173 214 274 328 391
#     4  11  24  43  66  94 133 178 217 275 338 391
#     4  10  20  38  64  96 130 170 216 266 332 384
#
# _framework density 20.779250999999999
#
# number of rings (size 3 to 8) (size 9 to 14) (size 15 to 20)
#    0.000    1.538    1.538    3.692    5.385    2.462 
#    4.154    0.000    0.000    0.000    0.000    0.000 
#    0.000    0.000    0.000    0.000    0.000    0.000 
#
# Total GULP energy -144949.191318 kJ/mol
# GULP energy per Si atom -5574.968897 kJ/mol
# Density = 2.073196 g / cm^3
# Si number density = 20.779251 Si / 1000 Ang^3
#
#
#
# Elastic Constant Matrix: (Units=GPa)
#
#
# Indices 1 2 3 4 5 6 
#
# 1 125.6303 25.5982 25.2435 -0.0004 2.8720 0.0004
# 2 25.5982 65.3272 21.2700 -0.0010 -15.6068 0.0008
# 3 25.2435 21.2700 73.3696 -0.0012 -6.8190 0.0009
# 4 -0.0004 -0.0010 -0.0012 25.9741 0.0009 8.2552
# 5 2.8720 -15.6068 -6.8190 0.0009 27.4614 -0.0006
# 6 0.0004 0.0008 0.0009 8.2552 -0.0006 18.3388
#
#
#
# Elastic Compliance Matrix: (Units=1/GPa)
#
#
# Indices 1 2 3 4 5 6 
#
# 1 0.009299 -0.003726 -0.002463 0.000000 -0.003702 0.000000
# 2 -0.003726 0.020637 -0.003659 0.000000 0.011209 0.000000
# 3 -0.002463 -0.003659 0.015732 0.000001 0.002085 -0.000001
# 4 0.000000 0.000000 0.000001 0.044928 -0.000002 -0.020224
# 5 -0.003702 0.011209 0.002085 -0.000002 0.043690 0.000002
# 6 0.000000 0.000000 -0.000001 -0.020224 0.000002 0.063633
#
#
# Mechanical properties :
#
#
# Convention : Reuss Voigt Hill
#
# Bulk Modulus (GPa) = 38.50455 45.39451 41.94953
# Shear Modulus (GPa) = 22.09746 27.16923 24.63335
#
# Velocity S-wave (km/s) = 3.26458 3.61988 3.44681
# Velocity P-wave (km/s) = 5.72542 6.27415 6.00606
#
# Compressibility (1/GPa) = 0.02597096
#
# Stress axis : x y z
#
# Youngs Moduli (GPa) = 107.54295 48.45707 63.56652
#
# Poissons Ratio (x) = 0.18055 0.15657
# Poissons Ratio (y) = 0.40070 0.23258
# Poissons Ratio (z) = 0.26489 0.17730
#
# Static dielectric constant tensor:
#      x y z
#    x 1.762630 0.000000 0.031220 
#    y 0.000000 1.782440 0.000000 
#    z 0.031220 0.000000 1.804800 
# 
# From -- ./inp_files/114378.got.cif
#   From: 2010.05.17/outbox.cif.g08.bks.cpg/sg15_58_cif.got.tgz:114378.got - 2010.06.03 18:47:42.
