data_PCOD9274467
_publ_section_title
;
Structure prediction by ZEFSAII (Michael W. Deem and Ramdas Pophale) SiO2 
 PCOD9274467
Probable space group: C 2/C
;
_chemical_formula_sum "Si O2"
_cell_formula_units_Z 56
_cell_length_a 28.160019
_cell_length_b 18.338680
_cell_length_c 18.791309
_cell_angle_alpha 90.000000
_cell_angle_beta 162.146619
_cell_angle_gamma 90.000000
_cell_volume 2975.123869
_symmetry_space_group_name_H-M "C 2/C"
_symmetry_group_IT_number 15
_symmetry_cell_setting 'monoclinic'
loop_
_space_group_symop_operation_xyz
x,y,z
-x,y,1/2-z
-x,-y,-z
x,-y,1/2+z
1/2+x,1/2+y,z
1/2-x,1/2+y,1/2-z
1/2-x,1/2-y,-z
1/2+x,1/2-y,1/2+z
loop_
_atom_site_type_symbol
_atom_site_label
_atom_site_fract_x
_atom_site_fract_y
_atom_site_fract_z
Si Si1 0.002309 0.400179 0.837282
Si Si2 0.707550 0.794449 0.213919
Si Si3 0.357093 0.163746 0.718038
Si Si4 0.201488 0.827917 0.464116
Si Si5 0.038070 0.800003 0.724780
Si Si6 0.159422 0.148893 0.068935
Si Si7 0.582821 0.967068 0.547559
O O1 0.830438 0.385357 0.622391
O O2 0.000000 0.407781 0.750000
O O3 0.103399 0.330551 0.005081
O O4 0.079953 0.468839 0.986437
O O5 0.636784 0.814189 0.189968
O O6 0.715137 0.708633 0.206497
O O7 0.879969 0.827560 0.464618
O O8 0.181084 0.146304 0.443213
O O9 0.406159 0.234323 0.744289
O O10 0.470059 0.098095 0.863828
O O11 0.250000 0.750000 0.500000
O O12 0.202895 0.822877 0.551785
O O13 0.027580 0.851858 0.194364
O O14 0.000000 0.771495 0.750000
O O15 0.250631 0.072178 0.205475
O O16 0.500000 0.000000 0.500000
#
# Coordination Sequence:
#
# PCOD9274467 Si02
#       7
#     8   8   8   8   8   8   8
#     4  12  26  44  66  96 137 178 223 282 339 407
#     4  11  20  37  65  94 126 166 222 271 327 388
#     4  10  20  38  63  91 128 167 213 277 328 393
#     4  11  22  40  66  99 133 168 229 286 331 391
#     4   9  20  36  60  95 120 159 221 272 320 380
#     4  11  23  39  67 100 130 180 224 275 335 403
#     4  12  23  45  66  91 136 182 220 266 349 415
#
# _framework density 18.822745999999999
#
# number of rings (size 3 to 8) (size 9 to 14) (size 15 to 20)
#    0.000    1.143    5.714    0.857    0.000    1.714 
#    5.143    0.714    0.000    0.000    0.000    0.000 
#    0.000    0.000    0.000    0.000    0.000    0.000 
#
# Total GULP energy -156220.473602 kJ/mol
# GULP energy per Si atom -5579.302629 kJ/mol
# Density = 1.877990 g / cm^3
# Si number density = 18.822746 Si / 1000 Ang^3
#
#
#
# Elastic Constant Matrix: (Units=GPa)
#
#
# Indices 1 2 3 4 5 6 
#
# 1 62.7090 17.7668 32.1346 0.0000 3.0827 0.0000
# 2 17.7668 72.2445 29.1135 0.0000 5.1003 0.0000
# 3 32.1346 29.1135 116.8905 0.0000 10.2488 0.0000
# 4 0.0000 0.0000 0.0000 38.6149 0.0000 -0.0170
# 5 3.0827 5.1003 10.2488 0.0000 24.1751 0.0000
# 6 0.0000 0.0000 0.0000 -0.0170 0.0000 29.1413
#
#
#
# Elastic Compliance Matrix: (Units=1/GPa)
#
#
# Indices 1 2 3 4 5 6 
#
# 1 0.019081 -0.002870 -0.004539 0.000000 0.000097 0.000000
# 2 -0.002870 0.015884 -0.003018 0.000000 -0.001706 0.000000
# 3 -0.004539 -0.003018 0.010851 0.000000 -0.003385 0.000000
# 4 0.000000 0.000000 0.000000 0.025897 0.000000 0.000015
# 5 0.000097 -0.001706 -0.003385 0.000000 0.043147 0.000000
# 6 0.000000 0.000000 0.000000 0.000015 0.000000 0.034316
#
#
# Mechanical properties :
#
#
# Convention : Reuss Voigt Hill
#
# Bulk Modulus (GPa) = 40.05988 45.54153 42.80070
# Shear Modulus (GPa) = 28.03457 29.90822 28.97139
#
# Velocity S-wave (km/s) = 3.86346 3.99048 3.92748
# Velocity P-wave (km/s) = 6.42111 6.74384 6.58445
#
# Compressibility (1/GPa) = 0.02496263
#
# Stress axis : x y z
#
# Youngs Moduli (GPa) = 52.40760 62.95554 92.15499
#
# Poissons Ratio (x) = 0.18069 0.41832
# Poissons Ratio (y) = 0.15042 0.27809
# Poissons Ratio (z) = 0.23789 0.18998
#
# Static dielectric constant tensor:
#      x y z
#    x 1.640610 0.000000 0.018180 
#    y 0.000000 1.628320 0.000000 
#    z 0.018180 0.000000 1.718470 
# 
# From -- ./inp_files/222964.got.cif
#   From: 2010.05.17/outbox.cif.g08.bks.cpg/sg15_112_cif.got.tgz:222964.got - 2010.06.03 18:47:42.
