data_PCOD9274650
_publ_section_title
;
Structure prediction by ZEFSAII (Michael W. Deem and Ramdas Pophale) SiO2 
 PCOD9274650
Probable space group: C 2/C
;
_chemical_formula_sum "Si O2"
_cell_formula_units_Z 32
_cell_length_a 22.560641
_cell_length_b 8.715978
_cell_length_c 29.116459
_cell_angle_alpha 90.000000
_cell_angle_beta 17.184436
_cell_angle_gamma 90.000000
_cell_volume 1691.562201
_symmetry_space_group_name_H-M "C 2/C"
_symmetry_group_IT_number 15
_symmetry_cell_setting 'monoclinic'
loop_
_space_group_symop_operation_xyz
x,y,z
-x,y,1/2-z
-x,-y,-z
x,-y,1/2+z
1/2+x,1/2+y,z
1/2-x,1/2+y,1/2-z
1/2-x,1/2-y,-z
1/2+x,1/2-y,1/2+z
loop_
_atom_site_type_symbol
_atom_site_label
_atom_site_fract_x
_atom_site_fract_y
_atom_site_fract_z
Si Si1 0.335247 0.291829 0.146269
Si Si2 0.021754 0.212975 0.682401
Si Si3 0.214797 0.032496 0.389307
Si Si4 0.358632 0.528155 0.717471
O O1 0.228624 0.399652 0.187815
O O2 0.279671 0.346311 0.238973
O O3 0.288917 0.115873 0.171743
O O4 0.567789 0.345390 0.972108
O O5 0.250000 0.250000 0.500000
O O6 0.000000 0.149945 0.750000
O O7 0.898766 0.372051 0.771981
O O8 0.920328 0.102744 0.719752
O O9 0.067100 0.973071 0.538675
#
# Coordination Sequence:
#
# PCOD9274650 Si02
#       4
#     8   8   8   8
#     4   9  19  38  63  96 121 152 200 265 338 346
#     4  12  23  43  63  86 125 178 214 247 305 374
#     4   9  21  39  61  94 126 154 202 275 302 375
#     4  10  20  38  64  91 126 158 204 262 313 378
#
# _framework density 18.917424
#
# number of rings (size 3 to 8) (size 9 to 14) (size 15 to 20)
#    1.500    0.500    2.500    1.500    0.000    1.000 
#    4.500    2.500    0.000    0.000    0.000    0.000 
#    0.000    0.000    0.000    0.000    0.000    0.000 
#
# Total GULP energy -89115.428936 kJ/mol
# GULP energy per Si atom -5569.714308 kJ/mol
# Density = 1.887437 g / cm^3
# Si number density = 18.917424 Si / 1000 Ang^3
#
#
#
# Elastic Constant Matrix: (Units=GPa)
#
#
# Indices 1 2 3 4 5 6 
#
# 1 126.0624 42.5928 3.3710 0.0205 30.9365 -0.0071
# 2 42.5928 69.9568 15.1288 0.0393 1.7787 0.0026
# 3 3.3710 15.1288 42.6392 0.0107 6.3395 0.0185
# 4 0.0205 0.0393 0.0107 22.6642 0.0122 6.2888
# 5 30.9365 1.7787 6.3395 0.0122 32.6497 -0.0024
# 6 -0.0071 0.0026 0.0185 6.2888 -0.0024 34.5789
#
#
#
# Elastic Compliance Matrix: (Units=1/GPa)
#
#
# Indices 1 2 3 4 5 6 
#
# 1 0.014396 -0.009328 0.004247 0.000009 -0.013957 -0.000001
# 2 -0.009328 0.021529 -0.008280 -0.000032 0.009274 0.000007
# 3 0.004247 -0.008280 0.027376 0.000007 -0.008888 -0.000015
# 4 0.000009 -0.000032 0.000007 0.046467 -0.000026 -0.008451
# 5 -0.013957 0.009274 -0.008888 -0.000026 0.045073 0.000009
# 6 -0.000001 0.000007 -0.000015 -0.008451 0.000009 0.030456
#
#
# Mechanical properties :
#
#
# Convention : Reuss Voigt Hill
#
# Bulk Modulus (GPa) = 27.33901 40.09374 33.71638
# Shear Modulus (GPa) = 22.30013 29.81628 26.05820
#
# Velocity S-wave (km/s) = 3.43711 3.97435 3.71546
# Velocity P-wave (km/s) = 5.49862 6.50390 6.02227
#
# Compressibility (1/GPa) = 0.03657777
#
# Stress axis : x y z
#
# Youngs Moduli (GPa) = 69.46408 46.44913 36.52815
#
# Poissons Ratio (x) = 0.43330 -0.15513
# Poissons Ratio (y) = 0.64799 0.30245
# Poissons Ratio (z) = -0.29500 0.38460
#
# Static dielectric constant tensor:
#      x y z
#    x 1.670850 0.000000 0.014310 
#    y 0.000000 1.651480 0.000000 
#    z 0.014310 0.000000 1.692440 
# 
# From -- ./inp_files/318342.got.cif
#   From: 2010.05.17/outbox.cif.g08.bks.cpg/sg15_160_cif.got.tgz:318342.got - 2010.06.03 18:47:42.
