data_PCOD9274106
_publ_section_title
;
Structure prediction by ZEFSAII (Michael W. Deem and Ramdas Pophale) SiO2 
 PCOD9274106
Probable space group: C 2/C
;
_chemical_formula_sum "Si O2"
_cell_formula_units_Z 64
_cell_length_a 14.365752
_cell_length_b 14.145334
_cell_length_c 16.286903
_cell_angle_alpha 90.000000
_cell_angle_beta 53.600633
_cell_angle_gamma 90.000000
_cell_volume 2663.926261
_symmetry_space_group_name_H-M "C 2/C"
_symmetry_group_IT_number 15
_symmetry_cell_setting 'monoclinic'
loop_
_space_group_symop_operation_xyz
x,y,z
-x,y,1/2-z
-x,-y,-z
x,-y,1/2+z
1/2+x,1/2+y,z
1/2-x,1/2+y,1/2-z
1/2-x,1/2-y,-z
1/2+x,1/2-y,1/2+z
loop_
_atom_site_type_symbol
_atom_site_label
_atom_site_fract_x
_atom_site_fract_y
_atom_site_fract_z
Si Si1 0.418167 0.892966 0.857333
Si Si2 0.665012 0.237742 0.969843
Si Si3 0.890834 0.238132 0.360842
Si Si4 0.337067 0.438024 0.580761
Si Si5 0.697909 0.617437 0.226309
Si Si6 0.155332 0.850508 0.454366
Si Si7 0.739873 0.823192 0.265260
Si Si8 0.574779 0.999464 0.878502
O O1 0.500000 0.839518 0.750000
O O2 0.297241 0.918362 0.876872
O O3 0.489217 0.984321 0.847452
O O4 0.417077 0.838673 0.945419
O O5 0.608643 0.337980 0.975668
O O6 0.750477 0.196163 0.855940
O O7 0.750000 0.250000 0.000000
O O8 0.851488 0.136697 0.338899
O O9 0.914877 0.212990 0.443679
O O10 0.786984 0.314619 0.408707
O O11 0.000000 0.268894 0.250000
O O12 0.352909 0.443470 0.671376
O O13 0.368452 0.537742 0.523921
O O14 0.688695 0.723459 0.264194
O O15 0.829055 0.581663 0.156425
O O16 0.158678 0.836756 0.353861
O O17 0.650199 0.909155 0.314457
O O18 0.500000 0.000000 0.000000
#
# Coordination Sequence:
#
# PCOD9274106 Si02
#       8
#     8   8   8   8   8   8   8   8
#     4  11  20  35  60  98 132 164 223 279 334 417
#     4   9  20  35  57  84 134 177 204 264 338 399
#     4  10  24  45  68  96 131 176 231 292 352 414
#     4  10  20  38  61  90 131 173 210 269 347 409
#     4  10  22  41  61  92 139 170 215 287 345 415
#     4  10  21  42  69  95 125 173 227 285 350 412
#     4  10  20  40  59  94 135 176 214 277 347 405
#     4  12  23  38  66 104 130 176 234 287 350 406
#
# _framework density 24.024688999999999
#
# number of rings (size 3 to 8) (size 9 to 14) (size 15 to 20)
#    0.000    1.750    3.750    0.000    1.750    2.500 
#    9.000    1.250    2.750    0.000    0.000    0.000 
#    0.000    0.000    0.000    0.000    0.000    0.000 
#
# Total GULP energy -178183.872514 kJ/mol
# GULP energy per Si atom -5568.246016 kJ/mol
# Density = 2.397001 g / cm^3
# Si number density = 24.024689 Si / 1000 Ang^3
#
#
#
# Elastic Constant Matrix: (Units=GPa)
#
#
# Indices 1 2 3 4 5 6 
#
# 1 57.5904 13.8846 36.7535 0.0000 8.6771 0.0000
# 2 13.8846 87.6242 25.2713 0.0000 4.6170 0.0000
# 3 36.7535 25.2713 160.1316 0.0000 21.5013 0.0000
# 4 0.0000 0.0000 0.0000 24.3137 0.0000 6.7006
# 5 8.6771 4.6170 21.5013 0.0000 49.0583 0.0000
# 6 0.0000 0.0000 0.0000 6.7006 0.0000 30.0938
#
#
#
# Elastic Compliance Matrix: (Units=1/GPa)
#
#
# Indices 1 2 3 4 5 6 
#
# 1 0.020795 -0.001986 -0.004240 0.000000 -0.001633 0.000000
# 2 -0.001986 0.012151 -0.001440 0.000000 -0.000161 0.000000
# 3 -0.004240 -0.001440 0.007785 0.000000 -0.002526 0.000000
# 4 0.000000 0.000000 0.000000 0.043818 0.000000 -0.009756
# 5 -0.001633 -0.000161 -0.002526 0.000000 0.021795 0.000000
# 6 0.000000 0.000000 0.000000 -0.009756 0.000000 0.035402
#
#
# Mechanical properties :
#
#
# Convention : Reuss Voigt Hill
#
# Bulk Modulus (GPa) = 39.37401 50.79611 45.08506
# Shear Modulus (GPa) = 30.20349 35.98895 33.09622
#
# Velocity S-wave (km/s) = 3.54953 3.87460 3.71562
# Velocity P-wave (km/s) = 5.76398 6.41918 6.10038
#
# Compressibility (1/GPa) = 0.02539747
#
# Stress axis : x y z
#
# Youngs Moduli (GPa) = 48.08880 82.29832 128.45955
#
# Poissons Ratio (x) = 0.16346 0.54469
# Poissons Ratio (y) = 0.09551 0.18500
# Poissons Ratio (z) = 0.20390 0.11852
#
# Static dielectric constant tensor:
#      x y z
#    x 1.962430 0.000000 0.154770 
#    y 0.000000 2.014790 0.000000 
#    z 0.154770 0.000000 1.680930 
# 
# From -- ./inp_files/205698.got.cif
#   From: 2010.05.17/outbox.cif.g08.bks.cpg/sg15_103_cif.got.tgz:205698.got - 2010.06.03 18:47:42.
