data_PCOD9274529
_publ_section_title
;
Structure prediction by ZEFSAII (Michael W. Deem and Ramdas Pophale) SiO2 
 PCOD9274529
Probable space group: C 2/C
;
_chemical_formula_sum "Si O2"
_cell_formula_units_Z 44
_cell_length_a 15.117559
_cell_length_b 8.049767
_cell_length_c 13.695542
_cell_angle_alpha 90.000000
_cell_angle_beta 80.675436
_cell_angle_gamma 90.000000
_cell_volume 1644.626699
_symmetry_space_group_name_H-M "C 2/C"
_symmetry_group_IT_number 15
_symmetry_cell_setting 'monoclinic'
loop_
_space_group_symop_operation_xyz
x,y,z
-x,y,1/2-z
-x,-y,-z
x,-y,1/2+z
1/2+x,1/2+y,z
1/2-x,1/2+y,1/2-z
1/2-x,1/2-y,-z
1/2+x,1/2-y,1/2+z
loop_
_atom_site_type_symbol
_atom_site_label
_atom_site_fract_x
_atom_site_fract_y
_atom_site_fract_z
Si Si1 0.000000 0.125633 0.250000
Si Si2 0.235147 0.932221 0.547998
Si Si3 0.429779 0.117864 0.063877
Si Si4 0.436674 0.626095 0.928071
Si Si5 0.319655 0.226686 0.762791
Si Si6 0.847313 0.360041 0.794930
O O1 0.922533 0.242827 0.219591
O O2 0.972569 0.006459 0.343309
O O3 0.250000 0.750000 0.500000
O O4 0.338541 0.974862 0.542843
O O5 0.200451 0.879392 0.661371
O O6 0.158427 0.049271 0.515280
O O7 0.475787 0.300233 0.030632
O O8 0.402489 0.139894 0.183058
O O9 0.500000 0.000000 0.000000
O O10 0.405634 0.784628 0.869760
O O11 0.241007 0.245381 0.699201
O O12 0.315617 0.048661 0.815166
#
# Coordination Sequence:
#
# PCOD9274529 Si02
#       6
#     4   8   8   8   8   8
#     4  10  20  38  64 100 122 180 232 282 342 404
#     4  10  25  46  63 100 141 176 229 288 353 422
#     4  11  25  41  68 100 138 179 233 285 354 420
#     4  11  23  45  72  93 140 186 232 290 347 418
#     4  10  23  38  69  96 133 172 232 286 340 411
#     4  11  22  44  67 101 131 180 234 290 337 415
#
# _framework density 26.753793000000002
#
# number of rings (size 3 to 8) (size 9 to 14) (size 15 to 20)
#    0.000    1.455    1.818    3.273    7.636    2.909 
#    3.273    0.000    0.000    0.000    0.000    0.000 
#    0.000    0.000    0.000    0.000    0.000    0.000 
#
# Total GULP energy -122760.297966 kJ/mol
# GULP energy per Si atom -5580.013544 kJ/mol
# Density = 2.669290 g / cm^3
# Si number density = 26.753793 Si / 1000 Ang^3
#
#
#
# Elastic Constant Matrix: (Units=GPa)
#
#
# Indices 1 2 3 4 5 6 
#
# 1 175.0270 72.9466 37.8928 0.0000 -35.4076 0.0000
# 2 72.9466 138.4680 24.8062 0.0000 -13.5229 0.0000
# 3 37.8928 24.8062 78.1916 0.0000 -15.7926 0.0000
# 4 0.0000 0.0000 0.0000 45.7644 0.0000 -14.6173
# 5 -35.4076 -13.5229 -15.7926 0.0000 39.9077 0.0000
# 6 0.0000 0.0000 0.0000 -14.6173 0.0000 63.8234
#
#
#
# Elastic Compliance Matrix: (Units=1/GPa)
#
#
# Indices 1 2 3 4 5 6 
#
# 1 0.008881 -0.003762 -0.001931 0.000000 0.005841 0.000000
# 2 -0.003762 0.009368 -0.001285 0.000000 -0.000672 0.000000
# 3 -0.001931 -0.001285 0.014888 0.000000 0.003744 0.000000
# 4 0.000000 0.000000 0.000000 0.023576 0.000000 0.005399
# 5 0.005841 -0.000672 0.003744 0.000000 0.031494 0.000000
# 6 0.000000 0.000000 0.000000 0.005399 0.000000 0.016905
#
#
# Mechanical properties :
#
#
# Convention : Reuss Voigt Hill
#
# Bulk Modulus (GPa) = 52.13015 73.66419 62.89717
# Shear Modulus (GPa) = 39.85302 46.96851 43.41076
#
# Velocity S-wave (km/s) = 3.86375 4.19451 4.03252
# Velocity P-wave (km/s) = 6.27950 7.14510 6.72624
#
# Compressibility (1/GPa) = 0.01918276
#
# Stress axis : x y z
#
# Youngs Moduli (GPa) = 112.60035 106.74142 67.16680
#
# Poissons Ratio (x) = 0.40160 0.12967
# Poissons Ratio (y) = 0.42364 0.08628
# Poissons Ratio (z) = 0.21739 0.13711
#
# Static dielectric constant tensor:
#      x y z
#    x 1.887690 0.000000 -0.115090 
#    y 0.000000 2.088200 0.000000 
#    z -0.115090 0.000000 2.085960 
# 
# From -- ./inp_files/202560.got.cif
#   From: 2010.05.17/outbox.cif.g08.bks.cpg/sg15_102_cif.got.tgz:202560.got - 2010.06.03 18:47:42.
