data_PCOD9274288
_publ_section_title
;
Structure prediction by ZEFSAII (Michael W. Deem and Ramdas Pophale) SiO2 
 PCOD9274288
Probable space group: C 2/C
;
_chemical_formula_sum "Si O2"
_cell_formula_units_Z 44
_cell_length_a 10.635474
_cell_length_b 22.468349
_cell_length_c 12.540904
_cell_angle_alpha 90.000000
_cell_angle_beta 49.022804
_cell_angle_gamma 90.000000
_cell_volume 2262.491283
_symmetry_space_group_name_H-M "C 2/C"
_symmetry_group_IT_number 15
_symmetry_cell_setting 'monoclinic'
loop_
_space_group_symop_operation_xyz
x,y,z
-x,y,1/2-z
-x,-y,-z
x,-y,1/2+z
1/2+x,1/2+y,z
1/2-x,1/2+y,1/2-z
1/2-x,1/2-y,-z
1/2+x,1/2-y,1/2+z
loop_
_atom_site_type_symbol
_atom_site_label
_atom_site_fract_x
_atom_site_fract_y
_atom_site_fract_z
Si Si1 0.617008 0.339765 0.083972
Si Si2 0.181972 0.393033 0.839041
Si Si3 0.021399 0.289840 0.609881
Si Si4 0.843610 0.576866 0.902072
Si Si5 0.980655 0.930237 0.538297
Si Si6 0.000000 0.539920 0.250000
O O1 0.500000 0.351549 0.250000
O O2 0.549888 0.279049 0.065851
O O3 0.806646 0.324577 0.011296
O O4 0.604530 0.394193 0.010446
O O5 0.364709 0.415550 0.704347
O O6 0.136185 0.323423 0.852210
O O7 0.066334 0.422950 0.812305
O O8 0.141529 0.412105 0.981038
O O9 0.000000 0.290731 0.750000
O O10 0.861648 0.506159 0.869378
O O11 0.000000 0.603476 0.750000
O O12 0.664998 0.595148 0.957057
O O13 0.000000 0.000000 0.500000
#
# Coordination Sequence:
#
# PCOD9274288 Si02
#       6
#     8   8   8   8   8   4
#     4  10  23  38  67  99 129 164 221 280 320 378
#     4  12  21  41  67  88 131 173 215 267 326 389
#     4  10  20  41  66  97 124 166 220 275 329 379
#     4  10  25  39  56  93 131 171 211 265 321 401
#     4  12  23  42  60  95 131 171 220 258 328 395
#     4  10  20  38  62  90 124 168 216 254 328 372
#
# _framework density 19.447589000000001
#
# number of rings (size 3 to 8) (size 9 to 14) (size 15 to 20)
#    0.545    0.727    4.545    1.091    2.545    1.455 
#    0.000    0.909    0.000    0.000    0.000    0.000 
#    0.000    0.000    0.000    0.000    0.000    0.000 
#
# Total GULP energy -122726.330603 kJ/mol
# GULP energy per Si atom -5578.469573 kJ/mol
# Density = 1.940333 g / cm^3
# Si number density = 19.447589 Si / 1000 Ang^3
#
#
#
# Elastic Constant Matrix: (Units=GPa)
#
#
# Indices 1 2 3 4 5 6 
#
# 1 53.7159 11.1112 29.7696 0.0000 -5.8787 0.0000
# 2 11.1112 95.5751 27.1150 0.0000 4.5971 0.0000
# 3 29.7696 27.1150 148.8244 0.0000 -5.1925 0.0000
# 4 0.0000 0.0000 0.0000 21.2255 0.0000 -9.8975
# 5 -5.8787 4.5971 -5.1925 0.0000 36.7556 0.0000
# 6 0.0000 0.0000 0.0000 -9.8975 0.0000 18.2376
#
#
#
# Elastic Compliance Matrix: (Units=1/GPa)
#
#
# Indices 1 2 3 4 5 6 
#
# 1 0.021431 -0.001532 -0.003901 0.000000 0.003068 0.000000
# 2 -0.001532 0.011246 -0.001809 0.000000 -0.001907 0.000000
# 3 -0.003901 -0.001809 0.007854 0.000000 0.000712 0.000000
# 4 0.000000 0.000000 0.000000 0.063075 0.000000 0.034231
# 5 0.003068 -0.001907 0.000712 0.000000 0.028037 0.000000
# 6 0.000000 0.000000 0.000000 0.034231 0.000000 0.073409
#
#
# Mechanical properties :
#
#
# Convention : Reuss Voigt Hill
#
# Bulk Modulus (GPa) = 38.39216 48.23411 43.31314
# Shear Modulus (GPa) = 21.90888 30.58505 26.24697
#
# Velocity S-wave (km/s) = 3.36007 3.97002 3.67771
# Velocity P-wave (km/s) = 5.90234 6.77279 6.35249
#
# Compressibility (1/GPa) = 0.02604698
#
# Stress axis : x y z
#
# Youngs Moduli (GPa) = 46.66139 88.91988 127.32368
#
# Poissons Ratio (x) = 0.13626 0.49664
# Poissons Ratio (y) = 0.07151 0.23033
# Poissons Ratio (z) = 0.18201 0.16085
#
# Static dielectric constant tensor:
#      x y z
#    x 1.681700 0.000000 -0.050440 
#    y 0.000000 1.703990 0.000000 
#    z -0.050440 0.000000 1.699640 
# 
# From -- ./inp_files/79707.got.cif
#   From: 2010.05.17/outbox.cif.g08.bks.cpg/sg15_40_cif.got.tgz:79707.got - 2010.06.03 18:47:42.
