data_PCOD9274333
_publ_section_title
;
Structure prediction by ZEFSAII (Michael W. Deem and Ramdas Pophale) SiO2 
 PCOD9274333
Probable space group: C 2/C
;
_chemical_formula_sum "Si O2"
_cell_formula_units_Z 56
_cell_length_a 11.526399
_cell_length_b 16.537730
_cell_length_c 17.047281
_cell_angle_alpha 90.000000
_cell_angle_beta 58.390108
_cell_angle_gamma 90.000000
_cell_volume 2767.444439
_symmetry_space_group_name_H-M "C 2/C"
_symmetry_group_IT_number 15
_symmetry_cell_setting 'monoclinic'
loop_
_space_group_symop_operation_xyz
x,y,z
-x,y,1/2-z
-x,-y,-z
x,-y,1/2+z
1/2+x,1/2+y,z
1/2-x,1/2+y,1/2-z
1/2-x,1/2-y,-z
1/2+x,1/2-y,1/2+z
loop_
_atom_site_type_symbol
_atom_site_label
_atom_site_fract_x
_atom_site_fract_y
_atom_site_fract_z
Si Si1 0.398515 0.295419 0.116748
Si Si2 0.617264 0.634647 0.650267
Si Si3 0.148612 0.385168 0.156905
Si Si4 0.098991 0.424775 0.481461
Si Si5 0.026050 0.279364 0.072512
Si Si6 0.631201 0.930180 0.647637
Si Si7 0.254714 0.786469 0.800325
O O1 0.536228 0.333995 0.102626
O O2 0.272274 0.357725 0.168001
O O3 0.345943 0.221125 0.189557
O O4 0.419719 0.272559 0.019213
O O5 0.500000 0.603471 0.750000
O O6 0.738921 0.571504 0.593491
O O7 0.681684 0.715110 0.667604
O O8 0.132633 0.318728 0.094186
O O9 0.177046 0.476904 0.120438
O O10 0.000000 0.385557 0.250000
O O11 0.093957 0.400164 0.574276
O O12 0.000000 0.500000 0.500000
O O13 0.043225 0.355743 0.445035
O O14 0.903303 0.232601 0.159130
O O15 0.500000 0.931422 0.750000
O O16 0.731404 0.869421 0.656823
#
# Coordination Sequence:
#
# PCOD9274333 Si02
#       7
#     8   8   8   8   8   8   8
#     4  11  21  38  63  86 124 162 217 256 310 379
#     4   9  20  36  62  91 120 160 208 264 317 369
#     4  11  23  40  59  87 125 171 206 254 324 391
#     4  11  21  38  63  92 127 158 206 264 321 384
#     4  11  21  38  63  88 118 167 208 256 314 379
#     4  11  22  36  61  94 125 158 209 263 324 365
#     4  10  20  38  62  93 121 152 211 266 311 374
#
# _framework density 20.235275000000001
#
# number of rings (size 3 to 8) (size 9 to 14) (size 15 to 20)
#    0.000    1.429    2.857    4.286    0.000    2.286 
#    0.000    2.857    0.000    0.857    0.000    0.000 
#    0.000    0.000    0.000    0.000    0.000    0.000 
#
# Total GULP energy -156226.119406 kJ/mol
# GULP energy per Si atom -5579.504264 kJ/mol
# Density = 2.018922 g / cm^3
# Si number density = 20.235275 Si / 1000 Ang^3
#
#
#
# Elastic Constant Matrix: (Units=GPa)
#
#
# Indices 1 2 3 4 5 6 
#
# 1 101.5760 28.5334 21.8477 0.0000 -18.0250 0.0000
# 2 28.5334 48.2156 10.2466 0.0000 -19.9892 0.0000
# 3 21.8477 10.2466 72.5982 0.0000 -15.7459 0.0000
# 4 0.0000 0.0000 0.0000 16.3429 0.0000 0.5474
# 5 -18.0250 -19.9892 -15.7459 0.0000 30.6136 0.0000
# 6 0.0000 0.0000 0.0000 0.5474 0.0000 31.8041
#
#
#
# Elastic Compliance Matrix: (Units=1/GPa)
#
#
# Indices 1 2 3 4 5 6 
#
# 1 0.012420 -0.005924 -0.002425 0.000000 0.002198 0.000000
# 2 -0.005924 0.031264 0.001172 0.000000 0.017529 0.000000
# 3 -0.002425 0.001172 0.015977 0.000000 0.007555 0.000000
# 4 0.000000 0.000000 0.000000 0.061224 0.000000 -0.001054
# 5 0.002198 0.017529 0.007555 0.000000 0.049291 0.000000
# 6 0.000000 0.000000 0.000000 -0.001054 0.000000 0.031461
#
#
# Mechanical properties :
#
#
# Convention : Reuss Voigt Hill
#
# Bulk Modulus (GPa) = 22.07120 38.18280 30.12700
# Shear Modulus (GPa) = 21.63628 26.53625 24.08627
#
# Velocity S-wave (km/s) = 3.27346 3.62523 3.45383
# Velocity P-wave (km/s) = 5.02179 6.03602 5.55211
#
# Compressibility (1/GPa) = 0.04530791
#
# Stress axis : x y z
#
# Youngs Moduli (GPa) = 80.51224 31.98592 62.58804
#
# Poissons Ratio (x) = 0.18948 0.15178
# Poissons Ratio (y) = 0.47693 -0.07335
# Poissons Ratio (z) = 0.19524 -0.03748
#
# Static dielectric constant tensor:
#      x y z
#    x 1.830650 0.000000 0.021510 
#    y 0.000000 1.725250 0.000000 
#    z 0.021510 0.000000 1.767280 
# 
# From -- ./inp_files/145537.got.cif
#   From: 2010.05.17/outbox.cif.g08.bks.cpg/sg15_73_cif.got.tgz:145537.got - 2010.06.03 18:47:42.
