data_PCOD9274867
_publ_section_title
;
Structure prediction by ZEFSAII (Michael W. Deem and Ramdas Pophale) SiO2 
 PCOD9274867
Probable space group: C 2/C
;
_chemical_formula_sum "Si O2"
_cell_formula_units_Z 24
_cell_length_a 6.898513
_cell_length_b 12.964621
_cell_length_c 13.482997
_cell_angle_alpha 90.000000
_cell_angle_beta 64.413693
_cell_angle_gamma 90.000000
_cell_volume 1087.620434
_symmetry_space_group_name_H-M "C 2/C"
_symmetry_group_IT_number 15
_symmetry_cell_setting 'monoclinic'
loop_
_space_group_symop_operation_xyz
x,y,z
-x,y,1/2-z
-x,-y,-z
x,-y,1/2+z
1/2+x,1/2+y,z
1/2-x,1/2+y,1/2-z
1/2-x,1/2-y,-z
1/2+x,1/2-y,1/2+z
loop_
_atom_site_type_symbol
_atom_site_label
_atom_site_fract_x
_atom_site_fract_y
_atom_site_fract_z
Si Si1 0.092953 0.134895 0.084662
Si Si2 0.799559 0.440613 0.722056
Si Si3 0.512066 0.859601 0.129766
O O1 0.247256 0.142451 0.148362
O O2 0.982795 0.246045 0.090534
O O3 0.909137 0.057740 0.161573
O O4 0.252767 0.107458 0.961195
O O5 0.000000 0.419618 0.750000
O O6 0.849306 0.545862 0.650642
O O7 0.500000 0.846169 0.250000
#
# Coordination Sequence:
#
# PCOD9274867 Si02
#       3
#     8   8   8
#     4  10  21  42  60  89 129 151 199 259 286 356
#     4  10  21  38  63  90 119 158 203 240 303 358
#     4  10  20  38  66  85 122 165 192 247 308 343
#
# _framework density 22.066523
#
# number of rings (size 3 to 8) (size 9 to 14) (size 15 to 20)
#    0.000    2.000    3.333    1.000    0.000    5.333 
#    6.000    6.667    0.000    0.000    0.000    0.000 
#    0.000    0.000    0.000    0.000    0.000    0.000 
#
# Total GULP energy -66817.002164 kJ/mol
# GULP energy per Si atom -5568.083514 kJ/mol
# Density = 2.201630 g / cm^3
# Si number density = 22.066523 Si / 1000 Ang^3
#
#
#
# Elastic Constant Matrix: (Units=GPa)
#
#
# Indices 1 2 3 4 5 6 
#
# 1 86.7147 16.1235 31.5888 0.0000 -9.4492 0.0000
# 2 16.1235 94.6734 43.9305 0.0000 -23.6581 0.0000
# 3 31.5888 43.9305 208.4929 0.0000 -50.5776 0.0000
# 4 0.0000 0.0000 0.0000 59.1671 0.0000 -31.7622
# 5 -9.4492 -23.6581 -50.5776 0.0000 41.5383 0.0000
# 6 0.0000 0.0000 0.0000 -31.7622 0.0000 46.5271
#
#
#
# Elastic Compliance Matrix: (Units=1/GPa)
#
#
# Indices 1 2 3 4 5 6 
#
# 1 0.012365 -0.001347 -0.001552 0.000000 0.000156 0.000000
# 2 -0.001347 0.012703 -0.001124 0.000000 0.005560 0.000000
# 3 -0.001552 -0.001124 0.007135 0.000000 0.007694 0.000000
# 4 0.000000 0.000000 0.000000 0.026678 0.000000 0.018212
# 5 0.000156 0.005560 0.007694 0.000000 0.036645 0.000000
# 6 0.000000 0.000000 0.000000 0.018212 0.000000 0.033925
#
#
# Mechanical properties :
#
#
# Convention : Reuss Voigt Hill
#
# Bulk Modulus (GPa) = 41.39362 63.68516 52.53939
# Shear Modulus (GPa) = 34.35292 49.32904 41.84098
#
# Velocity S-wave (km/s) = 3.94990 4.73320 4.35918
# Velocity P-wave (km/s) = 6.29297 7.66773 7.01412
#
# Compressibility (1/GPa) = 0.02415831
#
# Stress axis : x y z
#
# Youngs Moduli (GPa) = 80.87491 78.72230 140.15915
#
# Poissons Ratio (x) = 0.10602 0.21748
# Poissons Ratio (y) = 0.10891 0.15749
# Poissons Ratio (z) = 0.12549 0.08846
#
# Static dielectric constant tensor:
#      x y z
#    x 1.804760 0.000000 -0.000260 
#    y 0.000000 1.928100 0.000000 
#    z -0.000260 0.000000 1.808540 
# 
# From -- ./inp_files/71469.got.cif
#   From: 2010.05.17/outbox.cif.g08.bks.cpg/sg15_36_cif.got.tgz:71469.got - 2010.06.03 18:47:42.
