data_PCOD9274907
_publ_section_title
;
Structure prediction by ZEFSAII (Michael W. Deem and Ramdas Pophale) SiO2 
 PCOD9274907
Probable space group: C 2/C
;
_chemical_formula_sum "Si O2"
_cell_formula_units_Z 64
_cell_length_a 18.661203
_cell_length_b 11.129131
_cell_length_c 14.192469
_cell_angle_alpha 90.000000
_cell_angle_beta 73.352876
_cell_angle_gamma 90.000000
_cell_volume 2823.994981
_symmetry_space_group_name_H-M "C 2/C"
_symmetry_group_IT_number 15
_symmetry_cell_setting 'monoclinic'
loop_
_space_group_symop_operation_xyz
x,y,z
-x,y,1/2-z
-x,-y,-z
x,-y,1/2+z
1/2+x,1/2+y,z
1/2-x,1/2+y,1/2-z
1/2-x,1/2-y,-z
1/2+x,1/2-y,1/2+z
loop_
_atom_site_type_symbol
_atom_site_label
_atom_site_fract_x
_atom_site_fract_y
_atom_site_fract_z
Si Si1 0.842679 0.922670 0.430406
Si Si2 0.587393 0.031977 0.731976
Si Si3 0.913452 0.753148 0.267955
Si Si4 0.603673 0.717531 0.282224
Si Si5 0.755777 0.932492 0.802894
Si Si6 0.047636 0.139161 0.095674
Si Si7 0.150384 0.763658 0.405933
Si Si8 0.734985 0.032559 0.607364
O O1 0.870143 0.797504 0.377185
O O2 0.800553 0.989012 0.360440
O O3 0.914563 0.007252 0.427805
O O4 0.781417 0.930010 0.535928
O O5 0.500000 0.053878 0.750000
O O6 0.603820 0.140183 0.798827
O O7 0.646880 0.050516 0.623616
O O8 0.590954 0.889309 0.747511
O O9 0.876441 0.807559 0.187512
O O10 0.000000 0.788095 0.250000
O O11 0.686769 0.668169 0.256523
O O12 0.577270 0.691711 0.184216
O O13 0.542064 0.646916 0.366731
O O14 0.687577 0.865750 0.879255
O O15 0.733463 0.003652 0.718755
O O16 0.080567 0.220909 0.000636
O O17 0.215463 0.848717 0.423761
#
# Coordination Sequence:
#
# PCOD9274907 Si02
#       8
#     8   8   8   8   8   8   8   8
#     4  10  24  39  67  99 124 170 208 272 323 373
#     4  11  22  40  64  89 126 179 203 259 317 380
#     4  11  25  42  62  88 137 172 206 253 325 389
#     4  10  20  38  66  92 125 159 213 267 314 372
#     4  11  22  38  67  95 126 164 215 273 311 372
#     4   9  21  37  67  96 123 157 210 267 322 369
#     4  11  22  41  64  97 127 165 212 267 318 380
#     4  11  23  41  67  96 129 166 220 259 324 381
#
# _framework density 22.662928999999998
#
# number of rings (size 3 to 8) (size 9 to 14) (size 15 to 20)
#    0.000    1.500    5.000    0.000    5.250    3.000 
#    0.000    3.125    8.250    0.000    0.000    0.000 
#    0.000    0.000    0.000    0.000    0.000    0.000 
#
# Total GULP energy -178606.065507 kJ/mol
# GULP energy per Si atom -5581.439547 kJ/mol
# Density = 2.261135 g / cm^3
# Si number density = 22.662929 Si / 1000 Ang^3
#
#
#
# Elastic Constant Matrix: (Units=GPa)
#
#
# Indices 1 2 3 4 5 6 
#
# 1 75.5157 11.3419 13.9737 0.0000 -21.7240 0.0000
# 2 11.3419 30.1562 -10.5397 0.0000 9.1468 0.0000
# 3 13.9737 -10.5397 69.6858 0.0000 -15.4945 0.0000
# 4 0.0000 0.0000 0.0000 18.5327 0.0000 -9.3700
# 5 -21.7240 9.1468 -15.4945 0.0000 25.3288 0.0000
# 6 0.0000 0.0000 0.0000 -9.3700 0.0000 24.7246
#
#
#
# Elastic Compliance Matrix: (Units=1/GPa)
#
#
# Indices 1 2 3 4 5 6 
#
# 1 0.023324 -0.016971 -0.001659 0.000000 0.025118 0.000000
# 2 -0.016971 0.050160 0.004312 0.000000 -0.030031 0.000000
# 3 -0.001659 0.004312 0.016982 0.000000 0.007409 0.000000
# 4 0.000000 0.000000 0.000000 0.066748 0.000000 0.025296
# 5 0.025118 -0.030031 0.007409 0.000000 0.076402 0.000000
# 6 0.000000 0.000000 0.000000 0.025296 0.000000 0.050032
#
#
# Mechanical properties :
#
#
# Convention : Reuss Voigt Hill
#
# Bulk Modulus (GPa) = 16.17319 22.76772 19.47045
# Shear Modulus (GPa) = 15.01983 24.42267 19.72125
#
# Velocity S-wave (km/s) = 2.57718 3.28632 2.95311
# Velocity P-wave (km/s) = 4.00097 4.94650 4.49865
#
# Compressibility (1/GPa) = 0.06183073
#
# Stress axis : x y z
#
# Youngs Moduli (GPa) = 42.87417 19.93640 58.88502
#
# Poissons Ratio (x) = 0.33834 0.09767
# Poissons Ratio (y) = 0.72761 -0.25391
# Poissons Ratio (z) = 0.07112 -0.08597
#
# Static dielectric constant tensor:
#      x y z
#    x 1.923210 0.000000 -0.003040 
#    y 0.000000 1.857560 0.000000 
#    z -0.003040 0.000000 1.828720 
# 
# From -- ./inp_files/167635.got.cif
#   From: 2010.05.17/outbox.cif.g08.bks.cpg/sg15_84_cif.got.tgz:167635.got - 2010.06.03 18:47:42.
