data_PCOD9274789
_publ_section_title
;
Structure prediction by ZEFSAII (Michael W. Deem and Ramdas Pophale) SiO2 
 PCOD9274789
Probable space group: C 2/C
;
_chemical_formula_sum "Si O2"
_cell_formula_units_Z 40
_cell_length_a 9.320634
_cell_length_b 16.926158
_cell_length_c 12.005472
_cell_angle_alpha 90.000000
_cell_angle_beta 84.629564
_cell_angle_gamma 90.000000
_cell_volume 1885.699582
_symmetry_space_group_name_H-M "C 2/C"
_symmetry_group_IT_number 15
_symmetry_cell_setting 'monoclinic'
loop_
_space_group_symop_operation_xyz
x,y,z
-x,y,1/2-z
-x,-y,-z
x,-y,1/2+z
1/2+x,1/2+y,z
1/2-x,1/2+y,1/2-z
1/2-x,1/2-y,-z
1/2+x,1/2-y,1/2+z
loop_
_atom_site_type_symbol
_atom_site_label
_atom_site_fract_x
_atom_site_fract_y
_atom_site_fract_z
Si Si1 0.000000 0.125372 0.750000
Si Si2 0.915247 0.452254 0.910509
Si Si3 0.356528 0.478865 0.443700
Si Si4 0.186958 0.639458 0.416275
Si Si5 0.000000 0.411153 0.250000
Si Si6 0.771618 0.301588 0.333798
O O1 0.892160 0.174099 0.679608
O O2 0.902043 0.071687 0.835477
O O3 0.905952 0.521934 0.821267
O O4 0.026870 0.381166 0.881758
O O5 0.758696 0.433525 0.969372
O O6 0.000000 0.500000 0.000000
O O7 0.500000 0.500000 0.500000
O O8 0.278362 0.559206 0.411038
O O9 0.178758 0.668545 0.546312
O O10 0.267798 0.707087 0.341018
O O11 0.126195 0.346331 0.262601
#
# Coordination Sequence:
#
# PCOD9274789 Si02
#       6
#     4   8   8   8   4   8
#     4  12  24  40  66  94 128 170 218 266 324 380
#     4  10  20  38  65  91 123 168 218 257 308 390
#     4  11  21  41  67  99 126 167 220 272 311 381
#     4  10  22  42  60  89 131 167 206 266 324 374
#     4  12  20  40  70  92 118 178 216 256 320 390
#     4  11  23  39  63  91 130 165 211 268 322 385
#
# _framework density 21.212285999999999
#
# number of rings (size 3 to 8) (size 9 to 14) (size 15 to 20)
#    0.000    1.200    6.000    2.400    0.000    1.600 
#    0.000    3.000    0.000    0.000    0.000    0.000 
#    0.000    0.000    0.000    0.000    0.000    0.000 
#
# Total GULP energy -111353.363709 kJ/mol
# GULP energy per Si atom -5567.668185 kJ/mol
# Density = 2.116401 g / cm^3
# Si number density = 21.212286 Si / 1000 Ang^3
#
#
#
# Elastic Constant Matrix: (Units=GPa)
#
#
# Indices 1 2 3 4 5 6 
#
# 1 146.3143 44.1259 21.3625 0.0000 -9.7964 0.0000
# 2 44.1259 103.3171 13.6233 0.0000 -3.0691 0.0000
# 3 21.3625 13.6233 36.8094 0.0000 -8.2222 0.0000
# 4 0.0000 0.0000 0.0000 3.8232 0.0000 -1.7548
# 5 -9.7964 -3.0691 -8.2222 0.0000 27.1759 0.0000
# 6 0.0000 0.0000 0.0000 -1.7548 0.0000 27.4538
#
#
#
# Elastic Compliance Matrix: (Units=1/GPa)
#
#
# Indices 1 2 3 4 5 6 
#
# 1 0.008363 -0.003082 -0.003343 0.000000 0.001655 0.000000
# 2 -0.003082 0.011311 -0.002532 0.000000 -0.000599 0.000000
# 3 -0.003343 -0.002532 0.031865 0.000000 0.008150 0.000000
# 4 0.000000 0.000000 0.000000 0.269466 0.000000 0.017224
# 5 0.001655 -0.000599 0.008150 0.000000 0.039792 0.000000
# 6 0.000000 0.000000 0.000000 0.017224 0.000000 0.037526
#
#
# Mechanical properties :
#
#
# Convention : Reuss Voigt Hill
#
# Bulk Modulus (GPa) = 29.73937 49.40713 39.57325
# Shear Modulus (GPa) = 11.69743 25.51252 18.60498
#
# Velocity S-wave (km/s) = 2.35084 3.47179 2.96477
# Velocity P-wave (km/s) = 4.62805 6.27801 5.51509
#
# Compressibility (1/GPa) = 0.03362546
#
# Stress axis : x y z
#
# Youngs Moduli (GPa) = 119.57510 88.40833 31.38273
#
# Poissons Ratio (x) = 0.27245 0.10492
# Poissons Ratio (y) = 0.36850 0.07945
# Poissons Ratio (z) = 0.39976 0.22382
#
# Static dielectric constant tensor:
#      x y z
#    x 1.794090 0.000000 0.022560 
#    y 0.000000 1.765230 0.000000 
#    z 0.022560 0.000000 1.983990 
# 
# From -- ./inp_files/76742.got.cif
#   From: 2010.05.17/outbox.cif.g08.bks.cpg/sg15_39_cif.got.tgz:76742.got - 2010.06.03 18:47:42.
