data_PCOD9274679
_publ_section_title
;
Structure prediction by ZEFSAII (Michael W. Deem and Ramdas Pophale) SiO2 
 PCOD9274679
Probable space group: C 2/C
;
_chemical_formula_sum "Si O2"
_cell_formula_units_Z 60
_cell_length_a 15.359580
_cell_length_b 15.012797
_cell_length_c 18.531764
_cell_angle_alpha 90.000000
_cell_angle_beta 43.043154
_cell_angle_gamma 90.000000
_cell_volume 2916.698596
_symmetry_space_group_name_H-M "C 2/C"
_symmetry_group_IT_number 15
_symmetry_cell_setting 'monoclinic'
loop_
_space_group_symop_operation_xyz
x,y,z
-x,y,1/2-z
-x,-y,-z
x,-y,1/2+z
1/2+x,1/2+y,z
1/2-x,1/2+y,1/2-z
1/2-x,1/2-y,-z
1/2+x,1/2-y,1/2+z
loop_
_atom_site_type_symbol
_atom_site_label
_atom_site_fract_x
_atom_site_fract_y
_atom_site_fract_z
Si Si1 0.731749 0.657725 0.663117
Si Si2 0.652270 0.842063 0.656736
Si Si3 0.500000 0.740738 0.250000
Si Si4 0.131105 0.898608 0.879332
Si Si5 0.470451 0.217393 0.609964
Si Si6 0.473746 0.573573 0.620512
Si Si7 0.761549 0.330271 0.549876
Si Si8 0.268489 0.530469 0.963920
O O1 0.706488 0.740824 0.624358
O O2 0.853986 0.672659 0.639122
O O3 0.609162 0.647034 0.788849
O O4 0.749630 0.570465 0.604282
O O5 0.500000 0.840138 0.750000
O O6 0.723863 0.879338 0.685115
O O7 0.696915 0.905626 0.564393
O O8 0.513754 0.800011 0.314150
O O9 0.372732 0.680282 0.328517
O O10 0.063751 0.821840 0.874244
O O11 0.115897 0.993201 0.851061
O O12 0.049975 0.896548 0.003086
O O13 0.605068 0.191623 0.491837
O O14 0.582236 0.537187 0.607634
O O15 0.750000 0.250000 0.500000
O O16 0.770806 0.427690 0.509719
#
# Coordination Sequence:
#
# PCOD9274679 Si02
#       8
#     8   8   4   8   8   8   8   8
#     4  11  24  39  66  98 129 175 219 268 327 386
#     4  10  22  43  62  93 135 181 219 261 328 387
#     4  10  22  42  68  88 124 170 216 262 332 396
#     4   9  21  39  62  92 128 167 218 273 318 382
#     4  10  23  42  59  96 127 165 212 267 332 382
#     4  10  20  38  64  93 126 167 220 264 319 386
#     4  10  23  42  65  95 126 163 211 268 324 387
#     4  11  23  40  66  96 132 169 217 273 318 394
#
# _framework density 20.571204000000002
#
# number of rings (size 3 to 8) (size 9 to 14) (size 15 to 20)
#    0.000    1.867    0.000    3.200    5.600    3.733 
#   12.000    0.000    0.000    0.000    0.000    0.000 
#    0.000    0.000    0.000    0.000    0.000    0.000 
#
# Total GULP energy -167374.281518 kJ/mol
# GULP energy per Si atom -5579.142717 kJ/mol
# Density = 2.052438 g / cm^3
# Si number density = 20.571204 Si / 1000 Ang^3
#
#
#
# Elastic Constant Matrix: (Units=GPa)
#
#
# Indices 1 2 3 4 5 6 
#
# 1 100.4679 37.1249 53.9127 0.0000 -23.7052 0.0000
# 2 37.1249 98.2329 34.1557 0.0000 -1.1182 0.0000
# 3 53.9127 34.1557 70.6028 0.0000 -19.8718 0.0000
# 4 0.0000 0.0000 0.0000 23.6161 0.0000 1.6542
# 5 -23.7052 -1.1182 -19.8718 0.0000 43.0607 0.0000
# 6 0.0000 0.0000 0.0000 1.6542 0.0000 22.4331
#
#
#
# Elastic Compliance Matrix: (Units=1/GPa)
#
#
# Indices 1 2 3 4 5 6 
#
# 1 0.018101 -0.002944 -0.011050 0.000000 0.004789 0.000000
# 2 -0.002944 0.013013 -0.005066 0.000000 -0.003621 0.000000
# 3 -0.011050 -0.005066 0.026782 0.000000 0.006145 0.000000
# 4 0.000000 0.000000 0.000000 0.042564 0.000000 -0.003139
# 5 0.004789 -0.003621 0.006145 0.000000 0.028601 0.000000
# 6 0.000000 0.000000 0.000000 -0.003139 0.000000 0.044808
#
#
# Mechanical properties :
#
#
# Convention : Reuss Voigt Hill
#
# Bulk Modulus (GPa) = 50.56817 57.74334 54.15576
# Shear Modulus (GPa) = 22.87490 27.42935 25.15212
#
# Velocity S-wave (km/s) = 3.33826 3.65552 3.50049
# Velocity P-wave (km/s) = 6.28443 6.77849 6.53613
#
# Compressibility (1/GPa) = 0.01977528
#
# Stress axis : x y z
#
# Youngs Moduli (GPa) = 55.24641 76.84685 37.33905
#
# Poissons Ratio (x) = 0.22626 0.41258
# Poissons Ratio (y) = 0.16266 0.18916
# Poissons Ratio (z) = 0.61045 0.38931
#
# Static dielectric constant tensor:
#      x y z
#    x 1.737650 0.000000 0.002620 
#    y 0.000000 1.733990 0.000000 
#    z 0.002620 0.000000 1.778800 
# 
# From -- ./inp_files/244693.got.cif
#   From: 2010.05.17/outbox.cif.g08.bks.cpg/sg15_123_cif.got.tgz:244693.got - 2010.06.03 18:47:42.
