data_PCOD9274414
_publ_section_title
;
Structure prediction by ZEFSAII (Michael W. Deem and Ramdas Pophale) SiO2 
 PCOD9274414
Probable space group: C 2/C
;
_chemical_formula_sum "Si O2"
_cell_formula_units_Z 32
_cell_length_a 13.434567
_cell_length_b 7.725774
_cell_length_c 19.356748
_cell_angle_alpha 90.000000
_cell_angle_beta 103.151767
_cell_angle_gamma 90.000000
_cell_volume 1956.387197
_symmetry_space_group_name_H-M "C 2/C"
_symmetry_group_IT_number 15
_symmetry_cell_setting 'monoclinic'
loop_
_space_group_symop_operation_xyz
x,y,z
-x,y,1/2-z
-x,-y,-z
x,-y,1/2+z
1/2+x,1/2+y,z
1/2-x,1/2+y,1/2-z
1/2-x,1/2-y,-z
1/2+x,1/2-y,1/2+z
loop_
_atom_site_type_symbol
_atom_site_label
_atom_site_fract_x
_atom_site_fract_y
_atom_site_fract_z
Si Si1 0.726727 0.135000 0.928882
Si Si2 0.033898 0.557581 0.428857
Si Si3 0.527518 0.744797 0.334146
Si Si4 0.047093 0.060393 0.580722
O O1 0.649742 0.242729 0.867478
O O2 0.831635 0.080437 0.910458
O O3 0.655660 0.973773 0.940812
O O4 0.750000 0.250000 0.000000
O O5 0.988759 0.418720 0.367221
O O6 0.000000 0.500000 0.500000
O O7 0.998953 0.751381 0.410182
O O8 0.500000 0.744258 0.250000
O O9 0.483032 0.580155 0.367135
O O10 0.000000 0.000000 0.500000
#
# Coordination Sequence:
#
# PCOD9274414 Si02
#       4
#     8   8   8   8
#     4  10  20  39  62  90 117 157 205 242 292 365
#     4  10  20  38  63  88 118 157 198 247 291 355
#     4  10  24  44  56  89 130 149 199 262 293 350
#     4  12  20  39  66  90 115 161 205 240 299 365
#
# _framework density 16.356680000000001
#
# number of rings (size 3 to 8) (size 9 to 14) (size 15 to 20)
#    1.500    0.000    7.500    0.000    0.000    2.000 
#    9.000    0.000    0.000    0.000    0.000    0.000 
#    0.000    0.000    0.000    0.000    0.000    0.000 
#
# Total GULP energy -89080.980016 kJ/mol
# GULP energy per Si atom -5567.561251 kJ/mol
# Density = 1.631945 g / cm^3
# Si number density = 16.356680 Si / 1000 Ang^3
#
#
#
# Elastic Constant Matrix: (Units=GPa)
#
#
# Indices 1 2 3 4 5 6 
#
# 1 160.3194 70.7863 53.4483 0.0000 5.4571 0.0000
# 2 70.7863 165.6496 72.2089 0.0000 -13.5950 0.0000
# 3 53.4483 72.2089 168.7330 0.0000 -0.6784 0.0000
# 4 0.0000 0.0000 0.0000 24.5556 0.0000 -6.9936
# 5 5.4571 -13.5950 -0.6784 0.0000 21.8497 0.0000
# 6 0.0000 0.0000 0.0000 -6.9936 0.0000 36.1693
#
#
#
# Elastic Compliance Matrix: (Units=1/GPa)
#
#
# Indices 1 2 3 4 5 6 
#
# 1 0.008259 -0.003350 -0.001199 0.000000 -0.004184 0.000000
# 2 -0.003350 0.009255 -0.002873 0.000000 0.006506 0.000000
# 3 -0.001199 -0.002873 0.007531 0.000000 -0.001254 0.000000
# 4 0.000000 0.000000 0.000000 0.043097 0.000000 0.008333
# 5 -0.004184 0.006506 -0.001254 0.000000 0.050821 0.000000
# 6 0.000000 0.000000 0.000000 0.008333 0.000000 0.029259
#
#
# Mechanical properties :
#
#
# Convention : Reuss Voigt Hill
#
# Bulk Modulus (GPa) = 98.04240 98.62102 98.33171
# Shear Modulus (GPa) = 30.03598 36.39881 33.21740
#
# Velocity S-wave (km/s) = 4.28987 4.72245 4.51135
# Velocity P-wave (km/s) = 9.19825 9.49527 9.34794
#
# Compressibility (1/GPa) = 0.01019967
#
# Stress axis : x y z
#
# Youngs Moduli (GPa) = 121.08174 108.05270 132.78406
#
# Poissons Ratio (x) = 0.36196 0.15926
# Poissons Ratio (y) = 0.40560 0.38153
# Poissons Ratio (z) = 0.14522 0.31047
#
# Static dielectric constant tensor:
#      x y z
#    x 1.553820 0.000000 0.009910 
#    y 0.000000 1.545400 0.000000 
#    z 0.009910 0.000000 1.521480 
# 
# From -- ./inp_files/201983.got.cif
#   From: 2010.05.17/outbox.cif.g08.bks.cpg/sg15_101_cif.got.tgz:201983.got - 2010.06.03 18:47:42.
