data_PCOD9274772
_publ_section_title
;
Structure prediction by ZEFSAII (Michael W. Deem and Ramdas Pophale) SiO2 
 PCOD9274772
Probable space group: C 2/C
;
_chemical_formula_sum "Si O2"
_cell_formula_units_Z 52
_cell_length_a 7.408941
_cell_length_b 26.098582
_cell_length_c 12.233525
_cell_angle_alpha 90.000000
_cell_angle_beta 57.757498
_cell_angle_gamma 90.000000
_cell_volume 2000.742207
_symmetry_space_group_name_H-M "C 2/C"
_symmetry_group_IT_number 15
_symmetry_cell_setting 'monoclinic'
loop_
_space_group_symop_operation_xyz
x,y,z
-x,y,1/2-z
-x,-y,-z
x,-y,1/2+z
1/2+x,1/2+y,z
1/2-x,1/2+y,1/2-z
1/2-x,1/2-y,-z
1/2+x,1/2-y,1/2+z
loop_
_atom_site_type_symbol
_atom_site_label
_atom_site_fract_x
_atom_site_fract_y
_atom_site_fract_z
Si Si1 0.153853 0.442493 0.298423
Si Si2 0.902497 0.398048 0.550736
Si Si3 0.583554 0.210456 0.501572
Si Si4 0.000000 0.859603 0.250000
Si Si5 0.328691 0.361489 0.531893
Si Si6 0.189715 0.224272 0.277688
Si Si7 0.744442 0.449103 0.800419
O O1 0.988806 0.445631 0.453122
O O2 0.302742 0.397174 0.289000
O O3 0.290280 0.491699 0.217715
O O4 0.000000 0.427597 0.250000
O O5 0.096256 0.374017 0.558375
O O6 0.840834 0.347767 0.501835
O O7 0.734155 0.417499 0.691739
O O8 0.750000 0.250000 0.500000
O O9 0.601821 0.222604 0.366218
O O10 0.365470 0.224436 0.635717
O O11 0.957067 0.839234 0.386921
O O12 0.314657 0.321230 0.633930
O O13 0.386840 0.417362 0.566340
O O14 0.000000 0.216686 0.250000
O O15 0.000000 0.449932 0.750000
#
# Coordination Sequence:
#
# PCOD9274772 Si02
#       7
#     8   8   8   4   8   8   8
#     4  10  22  39  64  95 131 176 219 270 337 394
#     4  10  20  38  65  89 124 174 215 272 329 392
#     4  10  22  38  59  89 125 163 217 271 331 399
#     4  10  24  42  60  98 138 166 222 284 320 410
#     4  10  21  40  64  90 129 171 217 271 334 392
#     4  10  22  40  62  90 124 164 215 276 335 401
#     4   9  18  37  64  91 124 167 225 265 325 406
#
# _framework density 25.990352999999999
#
# number of rings (size 3 to 8) (size 9 to 14) (size 15 to 20)
#    0.000    2.154    1.538    0.462    0.000    9.231 
#    1.385    0.000    0.000    0.000    0.000    0.000 
#    0.000    0.000    0.000    0.000    0.000    0.000 
#
# Total GULP energy -145159.951730 kJ/mol
# GULP energy per Si atom -5583.075067 kJ/mol
# Density = 2.593120 g / cm^3
# Si number density = 25.990353 Si / 1000 Ang^3
#
#
#
# Elastic Constant Matrix: (Units=GPa)
#
#
# Indices 1 2 3 4 5 6 
#
# 1 52.0356 16.3969 23.0091 0.0000 14.3203 0.0000
# 2 16.3969 115.7811 43.9320 0.0000 24.8534 0.0000
# 3 23.0091 43.9320 199.7051 0.0000 23.9826 0.0000
# 4 0.0000 0.0000 0.0000 42.1335 0.0000 7.6854
# 5 14.3203 24.8534 23.9826 0.0000 26.0595 0.0000
# 6 0.0000 0.0000 0.0000 7.6854 0.0000 20.4041
#
#
#
# Elastic Compliance Matrix: (Units=1/GPa)
#
#
# Indices 1 2 3 4 5 6 
#
# 1 0.022939 -0.000403 -0.001222 0.000000 -0.011097 0.000000
# 2 -0.000403 0.011170 -0.001302 0.000000 -0.009233 0.000000
# 3 -0.001222 -0.001302 0.005852 0.000000 -0.003472 0.000000
# 4 0.000000 0.000000 0.000000 0.025485 0.000000 -0.009599
# 5 -0.011097 -0.009233 -0.003472 0.000000 0.056473 0.000000
# 6 0.000000 0.000000 0.000000 -0.009599 0.000000 0.052625
#
#
# Mechanical properties :
#
#
# Convention : Reuss Voigt Hill
#
# Bulk Modulus (GPa) = 29.31947 59.35530 44.33739
# Shear Modulus (GPa) = 26.07342 36.66499 31.36921
#
# Velocity S-wave (km/s) = 3.17076 3.76002 3.47790
# Velocity P-wave (km/s) = 4.97095 6.46045 5.76402
#
# Compressibility (1/GPa) = 0.03410703
#
# Stress axis : x y z
#
# Youngs Moduli (GPa) = 43.59462 89.52453 170.89583
#
# Poissons Ratio (x) = 0.03608 0.20877
# Poissons Ratio (y) = 0.01757 0.22250
# Poissons Ratio (z) = 0.05326 0.11656
#
# Static dielectric constant tensor:
#      x y z
#    x 2.123940 0.000000 -0.072200 
#    y 0.000000 2.134420 0.000000 
#    z -0.072200 0.000000 2.189640 
# 
# From -- ./inp_files/81201.got.cif
#   From: 2010.05.17/outbox.cif.g08.bks.cpg/sg15_41_cif.got.tgz:81201.got - 2010.06.03 18:47:42.
