data_PCOD9274558
_publ_section_title
;
Structure prediction by ZEFSAII (Michael W. Deem and Ramdas Pophale) SiO2 
 PCOD9274558
Probable space group: C 2/C
;
_chemical_formula_sum "Si O2"
_cell_formula_units_Z 56
_cell_length_a 18.862723
_cell_length_b 11.003127
_cell_length_c 13.318053
_cell_angle_alpha 90.000000
_cell_angle_beta 62.491338
_cell_angle_gamma 90.000000
_cell_volume 2451.636004
_symmetry_space_group_name_H-M "C 2/C"
_symmetry_group_IT_number 15
_symmetry_cell_setting 'monoclinic'
loop_
_space_group_symop_operation_xyz
x,y,z
-x,y,1/2-z
-x,-y,-z
x,-y,1/2+z
1/2+x,1/2+y,z
1/2-x,1/2+y,1/2-z
1/2-x,1/2-y,-z
1/2+x,1/2-y,1/2+z
loop_
_atom_site_type_symbol
_atom_site_label
_atom_site_fract_x
_atom_site_fract_y
_atom_site_fract_z
Si Si1 0.418134 0.242215 0.358364
Si Si2 0.761200 0.434954 0.417344
Si Si3 0.472745 0.637900 0.009192
Si Si4 0.882957 0.496758 0.993660
Si Si5 0.369031 0.756506 0.553386
Si Si6 0.274128 0.187413 0.307418
Si Si7 0.870775 0.327916 0.178097
O O1 0.500000 0.270403 0.250000
O O2 0.415816 0.335767 0.452025
O O3 0.423450 0.105761 0.399378
O O4 0.340471 0.238385 0.340005
O O5 0.794027 0.483536 0.502531
O O6 0.686049 0.342544 0.467440
O O7 0.745271 0.555404 0.362055
O O8 0.833413 0.366688 0.309031
O O9 0.558481 0.698583 0.934491
O O10 0.500000 0.500000 0.000000
O O11 0.430908 0.712864 0.128245
O O12 0.910905 0.634940 0.965529
O O13 0.897959 0.445293 0.096079
O O14 0.312237 0.820512 0.671934
O O15 0.204394 0.283759 0.339838
#
# Coordination Sequence:
#
# PCOD9274558 Si02
#       7
#     8   8   8   8   8   8   8
#     4  10  21  39  61  92 117 158 209 246 298 367
#     4  10  21  38  61  89 124 157 203 245 303 359
#     4  11  24  40  61  86 123 156 199 252 307 360
#     4  10  22  37  62  90 120 159 203 249 296 362
#     4  11  21  37  60  88 122 159 195 251 306 349
#     4  10  20  38  64  84 120 161 201 250 294 354
#     4  10  22  39  60  92 120 158 206 247 299 365
#
# _framework density 22.841889999999999
#
# number of rings (size 3 to 8) (size 9 to 14) (size 15 to 20)
#    0.000    1.714    2.857    1.286    0.000   10.857 
#    0.000    1.429    0.000    0.000    0.000    0.000 
#    0.000    0.000    0.000    0.000    0.000    0.000 
#
# Total GULP energy -156103.184672 kJ/mol
# GULP energy per Si atom -5575.113738 kJ/mol
# Density = 2.278990 g / cm^3
# Si number density = 22.841890 Si / 1000 Ang^3
#
#
#
# Elastic Constant Matrix: (Units=GPa)
#
#
# Indices 1 2 3 4 5 6 
#
# 1 55.1742 34.7305 24.8932 0.0000 6.0670 0.0000
# 2 34.7305 124.9000 16.4838 0.0000 7.3582 0.0000
# 3 24.8932 16.4838 47.2520 0.0000 -1.8452 0.0000
# 4 0.0000 0.0000 0.0000 20.7180 0.0000 -3.0023
# 5 6.0670 7.3582 -1.8452 0.0000 29.9996 0.0000
# 6 0.0000 0.0000 0.0000 -3.0023 0.0000 41.8214
#
#
#
# Elastic Compliance Matrix: (Units=1/GPa)
#
#
# Indices 1 2 3 4 5 6 
#
# 1 0.028237 -0.005831 -0.013040 0.000000 -0.005082 0.000000
# 2 -0.005831 0.009751 -0.000378 0.000000 -0.001235 0.000000
# 3 -0.013040 -0.000378 0.028339 0.000000 0.004473 0.000000
# 4 0.000000 0.000000 0.000000 0.048775 0.000000 0.003501
# 5 -0.005082 -0.001235 0.004473 0.000000 0.034940 0.000000
# 6 0.000000 0.000000 0.000000 0.003501 0.000000 0.024163
#
#
# Mechanical properties :
#
#
# Convention : Reuss Voigt Hill
#
# Bulk Modulus (GPa) = 35.93394 42.17124 39.05259
# Shear Modulus (GPa) = 22.52468 28.58905 25.55687
#
# Velocity S-wave (km/s) = 3.14365 3.54164 3.34856
# Velocity P-wave (km/s) = 5.37982 5.93520 5.66432
#
# Compressibility (1/GPa) = 0.02782884
#
# Stress axis : x y z
#
# Youngs Moduli (GPa) = 35.41409 102.55824 35.28676
#
# Poissons Ratio (x) = 0.59806 0.46014
# Poissons Ratio (y) = 0.20652 0.01332
# Poissons Ratio (z) = 0.46180 0.03873
#
# Static dielectric constant tensor:
#      x y z
#    x 1.853810 0.000000 0.011410 
#    y 0.000000 1.897670 0.000000 
#    z 0.011410 0.000000 1.942280 
# 
# From -- ./inp_files/160829.got.cif
#   From: 2010.05.17/outbox.cif.g08.bks.cpg/sg15_81_cif.got.tgz:160829.got - 2010.06.03 18:47:42.
