data_PCOD9274718
_publ_section_title
;
Structure prediction by ZEFSAII (Michael W. Deem and Ramdas Pophale) SiO2 
 PCOD9274718
Probable space group: C 2/C
;
_chemical_formula_sum "Si O2"
_cell_formula_units_Z 60
_cell_length_a 20.212795
_cell_length_b 20.436891
_cell_length_c 8.297530
_cell_angle_alpha 90.000000
_cell_angle_beta 60.483970
_cell_angle_gamma 90.000000
_cell_volume 2982.758145
_symmetry_space_group_name_H-M "C 2/C"
_symmetry_group_IT_number 15
_symmetry_cell_setting 'monoclinic'
loop_
_space_group_symop_operation_xyz
x,y,z
-x,y,1/2-z
-x,-y,-z
x,-y,1/2+z
1/2+x,1/2+y,z
1/2-x,1/2+y,1/2-z
1/2-x,1/2-y,-z
1/2+x,1/2-y,1/2+z
loop_
_atom_site_type_symbol
_atom_site_label
_atom_site_fract_x
_atom_site_fract_y
_atom_site_fract_z
Si Si1 0.562958 0.229454 0.318389
Si Si2 0.167747 0.602149 0.165645
Si Si3 0.806306 0.052212 0.492039
Si Si4 0.372403 0.661331 0.231895
Si Si5 0.698330 0.004818 0.872720
Si Si6 0.443488 0.460594 0.454446
Si Si7 0.192894 0.193116 0.519415
Si Si8 0.500000 0.745684 0.250000
O O1 0.500000 0.231927 0.250000
O O2 0.614079 0.164716 0.229335
O O3 0.618065 0.292869 0.218187
O O4 0.532785 0.224095 0.540278
O O5 0.164094 0.560319 0.334674
O O6 0.149364 0.549549 0.048866
O O7 0.255565 0.627205 0.033162
O O8 0.822721 0.126288 0.426885
O O9 0.732503 0.049211 0.691982
O O10 0.774749 0.016905 0.371978
O O11 0.879099 0.010801 0.465544
O O12 0.433214 0.702869 0.253750
O O13 0.408856 0.600199 0.091320
O O14 0.330163 0.699871 0.140664
O O15 0.500000 0.434437 0.250000
O O16 0.500000 0.500000 0.500000
O O17 0.250000 0.250000 0.500000
#
# Coordination Sequence:
#
# PCOD9274718 Si02
#       8
#     8   8   8   8   8   8   8   4
#     4  11  25  51  70  95 139 183 228 282 344 402
#     4  10  22  44  70 102 132 172 218 283 350 409
#     4  11  19  35  54  89 133 167 209 264 328 396
#     4  12  22  38  58  92 133 175 232 271 322 402
#     4  10  20  38  64  96 126 162 212 275 342 404
#     4  12  22  33  49  84 132 181 213 251 321 398
#     4  10  22  43  68  93 132 183 225 274 341 396
#     4  12  28  42  66 100 128 184 238 280 328 396
#
# _framework density 20.115608999999999
#
# number of rings (size 3 to 8) (size 9 to 14) (size 15 to 20)
#    0.000    1.067    5.333    1.600    3.733    0.000 
#    4.800    3.333    0.000    0.000    0.000    0.000 
#    0.000    0.000    0.000    0.000    0.000    0.000 
#
# Total GULP energy -167149.418375 kJ/mol
# GULP energy per Si atom -5571.647279 kJ/mol
# Density = 2.006983 g / cm^3
# Si number density = 20.115609 Si / 1000 Ang^3
#
#
#
# Elastic Constant Matrix: (Units=GPa)
#
#
# Indices 1 2 3 4 5 6 
#
# 1 87.8989 37.6791 34.5838 0.0000 17.3422 0.0000
# 2 37.6791 76.6118 27.4286 0.0000 6.8056 0.0000
# 3 34.5838 27.4286 74.0665 0.0000 5.3453 0.0000
# 4 0.0000 0.0000 0.0000 33.4726 0.0000 -2.1642
# 5 17.3422 6.8056 5.3453 0.0000 24.1630 0.0000
# 6 0.0000 0.0000 0.0000 -2.1642 0.0000 26.0732
#
#
#
# Elastic Compliance Matrix: (Units=1/GPa)
#
#
# Indices 1 2 3 4 5 6 
#
# 1 0.018121 -0.006050 -0.005493 0.000000 -0.010087 0.000000
# 2 -0.006050 0.017293 -0.003598 0.000000 0.000267 0.000000
# 3 -0.005493 -0.003598 0.017318 0.000000 0.001125 0.000000
# 4 0.000000 0.000000 0.000000 0.030036 0.000000 0.002493
# 5 -0.010087 0.000267 0.001125 0.000000 0.048301 0.000000
# 6 0.000000 0.000000 0.000000 0.002493 0.000000 0.038561
#
#
# Mechanical properties :
#
#
# Convention : Reuss Voigt Hill
#
# Bulk Modulus (GPa) = 44.54480 48.66224 46.60352
# Shear Modulus (GPa) = 24.10854 26.00079 25.05466
#
# Velocity S-wave (km/s) = 3.46569 3.59913 3.53304
# Velocity P-wave (km/s) = 6.18119 6.44325 6.31358
#
# Compressibility (1/GPa) = 0.02244931
#
# Stress axis : x y z
#
# Youngs Moduli (GPa) = 55.18335 57.82769 57.74455
#
# Poissons Ratio (x) = 0.34984 0.31720
# Poissons Ratio (y) = 0.33385 0.20779
# Poissons Ratio (z) = 0.30313 0.20809
#
# Static dielectric constant tensor:
#      x y z
#    x 1.709800 0.000000 0.013870 
#    y 0.000000 1.680190 0.000000 
#    z 0.013870 0.000000 1.888160 
# 
# From -- ./inp_files/50174.got.cif
#   From: 2010.05.17/outbox.cif.g08.bks.cpg/sg15_26_cif.got.tgz:50174.got - 2010.06.03 18:47:42.
