data_PCOD9274568
_publ_section_title
;
Structure prediction by ZEFSAII (Michael W. Deem and Ramdas Pophale) SiO2 
 PCOD9274568
Probable space group: C 2/C
;
_chemical_formula_sum "Si O2"
_cell_formula_units_Z 52
_cell_length_a 8.059026
_cell_length_b 22.742073
_cell_length_c 15.108873
_cell_angle_alpha 90.000000
_cell_angle_beta 110.802767
_cell_angle_gamma 90.000000
_cell_volume 2588.614274
_symmetry_space_group_name_H-M "C 2/C"
_symmetry_group_IT_number 15
_symmetry_cell_setting 'monoclinic'
loop_
_space_group_symop_operation_xyz
x,y,z
-x,y,1/2-z
-x,-y,-z
x,-y,1/2+z
1/2+x,1/2+y,z
1/2-x,1/2+y,1/2-z
1/2-x,1/2-y,-z
1/2+x,1/2-y,1/2+z
loop_
_atom_site_type_symbol
_atom_site_label
_atom_site_fract_x
_atom_site_fract_y
_atom_site_fract_z
Si Si1 0.337685 0.818305 0.083408
Si Si2 0.760054 0.420813 0.834324
Si Si3 0.316240 0.156722 0.181855
Si Si4 0.000000 0.591283 0.750000
Si Si5 0.191801 0.947652 0.319072
Si Si6 0.408166 0.878255 0.504595
Si Si7 0.928588 0.189337 0.112889
O O1 0.385762 0.867165 0.163545
O O2 0.485350 0.829869 0.033827
O O3 0.352261 0.752759 0.123740
O O4 0.147274 0.822796 0.000080
O O5 0.800687 0.402261 0.740330
O O6 0.670342 0.483044 0.832381
O O7 0.645774 0.365872 0.847410
O O8 0.937652 0.420738 0.927722
O O9 0.500000 0.184963 0.250000
O O10 0.138028 0.192543 0.162305
O O11 0.327498 0.146157 0.079644
O O12 0.853177 0.556472 0.778496
O O13 0.267075 0.911577 0.416843
O O14 0.000000 0.924939 0.250000
#
# Coordination Sequence:
#
# PCOD9274568 Si02
#       7
#     8   8   8   4   8   8   8
#     4   9  21  40  61  86 117 164 208 247 310 379
#     4  10  21  40  61  91 120 159 207 255 308 368
#     4  10  21  35  59  91 122 154 201 252 315 362
#     4  10  24  40  62  88 126 170 204 254 318 366
#     4  11  23  40  63  91 126 164 210 258 307 378
#     4   9  21  40  58  86 127 159 198 256 314 364
#     4  10  20  38  64  85 121 157 207 256 303 379
#
# _framework density 20.087966999999999
#
# number of rings (size 3 to 8) (size 9 to 14) (size 15 to 20)
#    0.000    2.154    0.000    1.846    7.538    0.615 
#    0.000    4.615    0.000    0.000    0.000    0.000 
#    0.000    0.000    0.000    0.000    0.000    0.000 
#
# Total GULP energy -144969.675415 kJ/mol
# GULP energy per Si atom -5575.756747 kJ/mol
# Density = 2.004225 g / cm^3
# Si number density = 20.087967 Si / 1000 Ang^3
#
#
#
# Elastic Constant Matrix: (Units=GPa)
#
#
# Indices 1 2 3 4 5 6 
#
# 1 68.3305 12.8083 45.3236 0.0000 15.2362 0.0000
# 2 12.8083 70.8688 28.8480 0.0000 0.7889 0.0000
# 3 45.3236 28.8480 113.4540 0.0000 13.0931 0.0000
# 4 0.0000 0.0000 0.0000 23.3006 0.0000 27.1275
# 5 15.2362 0.7889 13.0931 0.0000 43.9361 0.0000
# 6 0.0000 0.0000 0.0000 27.1275 0.0000 68.3078
#
#
#
# Elastic Compliance Matrix: (Units=1/GPa)
#
#
# Indices 1 2 3 4 5 6 
#
# 1 0.020917 -0.000621 -0.007624 0.000000 -0.004970 0.000000
# 2 -0.000621 0.015796 -0.003894 0.000000 0.001092 0.000000
# 3 -0.007624 -0.003894 0.012984 0.000000 -0.001155 0.000000
# 4 0.000000 0.000000 0.000000 0.079826 0.000000 -0.031702
# 5 -0.004970 0.001092 -0.001155 0.000000 0.024809 0.000000
# 6 0.000000 0.000000 0.000000 -0.031702 0.000000 0.027229
#
#
# Mechanical properties :
#
#
# Convention : Reuss Voigt Hill
#
# Bulk Modulus (GPa) = 39.34518 47.40146 43.37332
# Shear Modulus (GPa) = 23.33046 38.15379 30.74213
#
# Velocity S-wave (km/s) = 3.41165 4.36286 3.91625
# Velocity P-wave (km/s) = 5.92858 7.00197 6.48752
#
# Compressibility (1/GPa) = 0.02541607
#
# Stress axis : x y z
#
# Youngs Moduli (GPa) = 47.80846 63.30749 77.02063
#
# Poissons Ratio (x) = 0.03934 0.58724
# Poissons Ratio (y) = 0.02971 0.29994
# Poissons Ratio (z) = 0.36451 0.24654
#
# Static dielectric constant tensor:
#      x y z
#    x 1.751110 0.000000 -0.006000 
#    y 0.000000 1.675810 0.000000 
#    z -0.006000 0.000000 1.738900 
# 
# From -- ./inp_files/136109.got.cif
#   From: 2010.05.17/outbox.cif.g08.bks.cpg/sg15_69_cif.got.tgz:136109.got - 2010.06.03 18:47:42.
