data_PCOD9274983
_publ_section_title
;
Structure prediction by ZEFSAII (Michael W. Deem and Ramdas Pophale) SiO2 
 PCOD9274983
Probable space group: C 2/C
;
_chemical_formula_sum "Si O2"
_cell_formula_units_Z 40
_cell_length_a 5.581060
_cell_length_b 13.836512
_cell_length_c 23.897991
_cell_angle_alpha 90.000000
_cell_angle_beta 60.804811
_cell_angle_gamma 90.000000
_cell_volume 1611.018638
_symmetry_space_group_name_H-M "C 2/C"
_symmetry_group_IT_number 15
_symmetry_cell_setting 'monoclinic'
loop_
_space_group_symop_operation_xyz
x,y,z
-x,y,1/2-z
-x,-y,-z
x,-y,1/2+z
1/2+x,1/2+y,z
1/2-x,1/2+y,1/2-z
1/2-x,1/2-y,-z
1/2+x,1/2-y,1/2+z
loop_
_atom_site_type_symbol
_atom_site_label
_atom_site_fract_x
_atom_site_fract_y
_atom_site_fract_z
Si Si1 0.678531 0.635741 0.184224
Si Si2 0.288717 0.921374 0.944520
Si Si3 0.478816 0.330917 0.187308
Si Si4 0.564202 0.382773 0.425430
Si Si5 0.991822 0.226816 0.400629
O O1 0.500000 0.578961 0.250000
O O2 0.467608 0.667713 0.160853
O O3 0.924804 0.591905 0.120027
O O4 0.805452 0.731263 0.199947
O O5 0.072312 0.847497 0.939599
O O6 0.211633 0.031117 0.941196
O O7 0.245910 0.894278 0.014740
O O8 0.500000 0.357438 0.250000
O O9 0.375791 0.397569 0.147668
O O10 0.780739 0.308891 0.129150
O O11 0.699118 0.279813 0.427264
#
# Coordination Sequence:
#
# PCOD9274983 Si02
#       5
#     8   8   8   8   8
#     4  10  20  38  67  90 124 167 211 264 322 386
#     4  10  23  41  62  94 132 168 215 270 327 395
#     4  10  20  38  67  90 124 167 211 264 322 386
#     4  10  23  41  62  94 132 168 215 270 327 395
#     4  10  21  38  66  90 121 168 212 264 325 386
#
# _framework density 24.829014000000001
#
# number of rings (size 3 to 8) (size 9 to 14) (size 15 to 20)
#    0.000    2.000    2.000    0.600    0.000   10.400 
#    0.000   10.000    0.000    0.000    0.000    0.000 
#    0.000    0.000    0.000    0.000    0.000    0.000 
#
# Total GULP energy -111524.695207 kJ/mol
# GULP energy per Si atom -5576.234760 kJ/mol
# Density = 2.477250 g / cm^3
# Si number density = 24.829014 Si / 1000 Ang^3
#
#
#
# Elastic Constant Matrix: (Units=GPa)
#
#
# Indices 1 2 3 4 5 6 
#
# 1 33.7948 -0.1050 22.0785 0.0000 3.0569 0.0000
# 2 -0.1050 72.5502 38.5381 0.0000 -0.3165 0.0000
# 3 22.0785 38.5381 186.6530 0.0000 -0.3563 0.0000
# 4 0.0000 0.0000 0.0000 -12.7522 0.0000 0.4708
# 5 3.0569 -0.3165 -0.3563 0.0000 42.5671 0.0000
# 6 0.0000 0.0000 0.0000 0.4708 0.0000 6.2991
#
#
#
# Elastic Compliance Matrix: (Units=1/GPa)
#
#
# Indices 1 2 3 4 5 6 
#
# 1 0.032655 0.002349 -0.004352 0.000000 -0.002364 0.000000
# 2 0.002349 0.015651 -0.003509 0.000000 -0.000082 0.000000
# 3 -0.004352 -0.003509 0.006598 0.000000 0.000342 0.000000
# 4 0.000000 0.000000 0.000000 -0.078202 0.000000 0.005845
# 5 -0.002364 -0.000082 0.000342 0.000000 0.023664 0.000000
# 6 0.000000 0.000000 0.000000 0.005845 0.000000 0.158316
#
#
# Mechanical properties :
#
#
# Convention : Reuss Voigt Hill
#
# Bulk Modulus (GPa) = 22.79068 46.00236 34.39652
# Shear Modulus (GPa) = 27.12490 22.72189 24.92340
#
# Velocity S-wave (km/s) = 3.30884 3.02840 3.17172
# Velocity P-wave (km/s) = 4.87820 5.54943 5.22461
#
# Compressibility (1/GPa) = 0.04387758
#
# Stress axis : x y z
#
# Youngs Moduli (GPa) = 30.62348 63.89465 151.57136
#
# Poissons Ratio (x) = -0.15007 0.65965
# Poissons Ratio (y) = -0.07193 0.53192
# Poissons Ratio (z) = 0.13327 0.22423
#
# Static dielectric constant tensor:
#      x y z
#    x 2.204490 0.000000 -0.066000 
#    y 0.000000 1.974010 0.000000 
#    z -0.066000 0.000000 2.111590 
# 
# From -- ./inp_files/226825.got.cif
#   From: 2010.05.17/outbox.cif.g08.bks.cpg/sg15_114_cif.got.tgz:226825.got - 2010.06.03 18:47:42.
