data_PCOD9274807
_publ_section_title
;
Structure prediction by ZEFSAII (Michael W. Deem and Ramdas Pophale) SiO2 
 PCOD9274807
Probable space group: C 2/C
;
_chemical_formula_sum "Si O2"
_cell_formula_units_Z 64
_cell_length_a 7.677487
_cell_length_b 13.390675
_cell_length_c 25.706032
_cell_angle_alpha 90.000000
_cell_angle_beta 116.103471
_cell_angle_gamma 90.000000
_cell_volume 2373.194788
_symmetry_space_group_name_H-M "C 2/C"
_symmetry_group_IT_number 15
_symmetry_cell_setting 'monoclinic'
loop_
_space_group_symop_operation_xyz
x,y,z
-x,y,1/2-z
-x,-y,-z
x,-y,1/2+z
1/2+x,1/2+y,z
1/2-x,1/2+y,1/2-z
1/2-x,1/2-y,-z
1/2+x,1/2-y,1/2+z
loop_
_atom_site_type_symbol
_atom_site_label
_atom_site_fract_x
_atom_site_fract_y
_atom_site_fract_z
Si Si1 0.239820 0.899915 0.004971
Si Si2 0.314305 0.635166 0.197105
Si Si3 0.772275 0.096789 0.432942
Si Si4 0.772601 0.802900 0.103361
Si Si5 0.742074 0.480108 0.900620
Si Si6 0.223943 0.979139 0.161477
Si Si7 0.094506 0.295164 0.379609
Si Si8 0.137403 0.175483 0.719417
O O1 0.308638 0.811020 0.051141
O O2 0.295957 0.005568 0.040247
O O3 0.005711 0.902043 0.970508
O O4 0.305376 0.905343 0.953985
O O5 0.500000 0.589685 0.250000
O O6 0.199243 0.549838 0.150300
O O7 0.364892 0.704661 0.153843
O O8 0.239560 0.716667 0.229212
O O9 0.719281 0.211185 0.434702
O O10 0.709157 0.074222 0.364300
O O11 0.698060 0.909156 0.073682
O O12 0.630941 0.787416 0.134296
O O13 0.989614 0.815369 0.151693
O O14 0.506207 0.492323 0.868211
O O15 0.319054 0.890653 0.139242
O O16 0.257995 0.926159 0.222450
O O17 0.000000 0.163034 0.750000
#
# Coordination Sequence:
#
# PCOD9274807 Si02
#       8
#     8   8   8   8   8   8   8   8
#     4   9  19  37  61  91 125 171 216 261 318 377
#     4  11  24  43  67  91 119 165 218 263 325 399
#     4   9  18  36  62  89 126 170 215 260 315 382
#     4  11  23  37  58  92 131 169 207 264 325 381
#     4  10  22  39  59  91 131 168 211 262 323 382
#     4   8  18  37  61  87 121 165 208 259 316 377
#     4  10  20  38  65  93 126 165 214 262 311 388
#     4  10  22  41  63  90 125 160 210 276 337 391
#
# _framework density 26.967866999999998
#
# number of rings (size 3 to 8) (size 9 to 14) (size 15 to 20)
#    0.000    2.250    0.000    3.000    0.000    7.000 
#    0.000    0.000    0.000    6.750    0.000    0.000 
#    0.000    0.000    0.000    0.000    0.000    0.000 
#
# Total GULP energy -178421.244677 kJ/mol
# GULP energy per Si atom -5575.663896 kJ/mol
# Density = 2.690649 g / cm^3
# Si number density = 26.967867 Si / 1000 Ang^3
#
#
#
# Elastic Constant Matrix: (Units=GPa)
#
#
# Indices 1 2 3 4 5 6 
#
# 1 80.2792 4.8775 10.0974 0.0000 0.3038 0.0000
# 2 4.8775 134.3522 51.6603 0.0000 -2.0997 0.0000
# 3 10.0974 51.6603 124.0746 0.0000 -13.2825 0.0000
# 4 0.0000 0.0000 0.0000 5.8838 0.0000 -0.1973
# 5 0.3038 -2.0997 -13.2825 0.0000 27.1733 0.0000
# 6 0.0000 0.0000 0.0000 -0.1973 0.0000 25.1960
#
#
#
# Elastic Compliance Matrix: (Units=1/GPa)
#
#
# Indices 1 2 3 4 5 6 
#
# 1 0.012597 -0.000055 -0.001074 0.000000 -0.000670 0.000000
# 2 -0.000055 0.008898 -0.003827 0.000000 -0.001182 0.000000
# 3 -0.001074 -0.003827 0.010246 0.000000 0.004725 0.000000
# 4 0.000000 0.000000 0.000000 0.170003 0.000000 0.001331
# 5 -0.000670 -0.001182 0.004725 0.000000 0.039026 0.000000
# 6 0.000000 0.000000 0.000000 0.001331 0.000000 0.039699
#
#
# Mechanical properties :
#
#
# Convention : Reuss Voigt Hill
#
# Bulk Modulus (GPa) = 45.80828 52.44181 49.12504
# Shear Modulus (GPa) = 16.79772 29.78867 23.29319
#
# Velocity S-wave (km/s) = 2.49846 3.32716 2.94213
# Velocity P-wave (km/s) = 5.03450 5.85220 5.45868
#
# Compressibility (1/GPa) = 0.02183011
#
# Stress axis : x y z
#
# Youngs Moduli (GPa) = 79.38087 112.38266 97.59610
#
# Poissons Ratio (x) = 0.00616 0.10483
# Poissons Ratio (y) = 0.00435 0.37350
# Poissons Ratio (z) = 0.08526 0.43009
#
# Static dielectric constant tensor:
#      x y z
#    x 2.217070 0.000000 -0.079120 
#    y 0.000000 2.258030 0.000000 
#    z -0.079120 0.000000 2.229250 
# 
# From -- ./inp_files/288813.got.cif
#   From: 2010.05.17/outbox.cif.g08.bks.cpg/sg15_145_cif.got.tgz:288813.got - 2010.06.03 18:47:42.
