data_PCOD9274622
_publ_section_title
;
Structure prediction by ZEFSAII (Michael W. Deem and Ramdas Pophale) SiO2 
 PCOD9274622
Probable space group: C 2/C
;
_chemical_formula_sum "Si O2"
_cell_formula_units_Z 56
_cell_length_a 8.330763
_cell_length_b 27.396610
_cell_length_c 11.823146
_cell_angle_alpha 90.000000
_cell_angle_beta 102.755649
_cell_angle_gamma 90.000000
_cell_volume 2631.855477
_symmetry_space_group_name_H-M "C 2/C"
_symmetry_group_IT_number 15
_symmetry_cell_setting 'monoclinic'
loop_
_space_group_symop_operation_xyz
x,y,z
-x,y,1/2-z
-x,-y,-z
x,-y,1/2+z
1/2+x,1/2+y,z
1/2-x,1/2+y,1/2-z
1/2-x,1/2-y,-z
1/2+x,1/2-y,1/2+z
loop_
_atom_site_type_symbol
_atom_site_label
_atom_site_fract_x
_atom_site_fract_y
_atom_site_fract_z
Si Si1 0.629207 0.559383 0.373105
Si Si2 0.821463 0.473817 0.491229
Si Si3 0.314623 0.095749 0.203442
Si Si4 0.691155 0.197260 0.241571
Si Si5 0.746727 0.347383 0.994000
Si Si6 0.314654 0.693951 0.770030
Si Si7 0.421428 0.109273 0.852603
O O1 0.500000 0.554036 0.250000
O O2 0.676059 0.512825 0.453272
O O3 0.783666 0.570132 0.317645
O O4 0.619333 0.608287 0.446519
O O5 0.796546 0.443428 0.602489
O O6 0.818129 0.432480 0.395683
O O7 0.000000 0.500000 0.500000
O O8 0.500000 0.110483 0.250000
O O9 0.232155 0.149675 0.182376
O O10 0.500000 0.203336 0.250000
O O11 0.721237 0.183563 0.114575
O O12 0.755799 0.252062 0.267767
O O13 0.691252 0.317175 0.095757
O O14 0.922762 0.372628 0.050421
O O15 0.500000 0.689008 0.750000
O O16 0.194647 0.654323 0.695881
O O17 0.500000 0.088897 0.750000
#
# Coordination Sequence:
#
# PCOD9274622 Si02
#       7
#     8   8   8   8   8   8   8
#     4  11  25  40  60  93 129 161 209 265 322 378
#     4  12  22  38  66  91 117 168 212 257 320 377
#     4  10  20  38  64  90 122 162 217 259 304 387
#     4   9  18  37  63  93 128 165 216 267 318 381
#     4  10  20  42  63  90 125 172 217 258 317 391
#     4  10  22  39  63  94 132 167 208 273 331 373
#     4  10  22  38  64  91 123 162 218 263 311 393
#
# _framework density 21.277766
#
# number of rings (size 3 to 8) (size 9 to 14) (size 15 to 20)
#    0.000    1.714    2.857    2.143    2.000    2.286 
#    0.000   17.857    0.000    0.000    0.000    0.000 
#    0.000    0.000    0.000    0.000    0.000    0.000 
#
# Total GULP energy -155998.493342 kJ/mol
# GULP energy per Si atom -5571.374762 kJ/mol
# Density = 2.122934 g / cm^3
# Si number density = 21.277766 Si / 1000 Ang^3
#
#
#
# Elastic Constant Matrix: (Units=GPa)
#
#
# Indices 1 2 3 4 5 6 
#
# 1 46.3380 13.4000 25.6430 0.0000 -8.1928 0.0000
# 2 13.4000 140.3667 59.4993 0.0000 -11.9296 0.0000
# 3 25.6430 59.4993 78.5052 0.0000 -7.1483 0.0000
# 4 0.0000 0.0000 0.0000 31.5599 0.0000 -10.0776
# 5 -8.1928 -11.9296 -7.1483 0.0000 32.5429 0.0000
# 6 0.0000 0.0000 0.0000 -10.0776 0.0000 27.3619
#
#
#
# Elastic Compliance Matrix: (Units=1/GPa)
#
#
# Indices 1 2 3 4 5 6 
#
# 1 0.027526 0.002119 -0.010097 0.000000 0.005489 0.000000
# 2 0.002119 0.010808 -0.008647 0.000000 0.002596 0.000000
# 3 -0.010097 -0.008647 0.022520 0.000000 -0.000765 0.000000
# 4 0.000000 0.000000 0.000000 0.035909 0.000000 0.013226
# 5 0.005489 0.002596 -0.000765 0.000000 0.032894 0.000000
# 6 0.000000 0.000000 0.000000 0.013226 0.000000 0.041418
#
#
# Mechanical properties :
#
#
# Convention : Reuss Voigt Hill
#
# Bulk Modulus (GPa) = 36.22783 51.36604 43.79693
# Shear Modulus (GPa) = 23.41623 29.40410 26.41017
#
# Velocity S-wave (km/s) = 3.32098 3.72145 3.52690
# Velocity P-wave (km/s) = 5.63634 6.53136 6.10029
#
# Compressibility (1/GPa) = 0.02760309
#
# Stress axis : x y z
#
# Youngs Moduli (GPa) = 36.32936 92.52486 44.40480
#
# Poissons Ratio (x) = -0.19604 0.44836
# Poissons Ratio (y) = -0.07697 0.38397
# Poissons Ratio (z) = 0.36682 0.80007
#
# Static dielectric constant tensor:
#      x y z
#    x 1.801040 0.000000 0.011220 
#    y 0.000000 1.808150 0.000000 
#    z 0.011220 0.000000 1.795350 
# 
# From -- ./inp_files/81445.got.cif
#   From: 2010.05.17/outbox.cif.g08.bks.cpg/sg15_41_cif.got.tgz:81445.got - 2010.06.03 18:47:42.
