data_PCOD9274067
_publ_section_title
;
Structure prediction by ZEFSAII (Michael W. Deem and Ramdas Pophale) SiO2 
 PCOD9274067
Probable space group: C 2/C
;
_chemical_formula_sum "Si O2"
_cell_formula_units_Z 36
_cell_length_a 12.295391
_cell_length_b 26.157497
_cell_length_c 5.391436
_cell_angle_alpha 90.000000
_cell_angle_beta 54.406743
_cell_angle_gamma 90.000000
_cell_volume 1410.015664
_symmetry_space_group_name_H-M "C 2/C"
_symmetry_group_IT_number 15
_symmetry_cell_setting 'monoclinic'
loop_
_space_group_symop_operation_xyz
x,y,z
-x,y,1/2-z
-x,-y,-z
x,-y,1/2+z
1/2+x,1/2+y,z
1/2-x,1/2+y,1/2-z
1/2-x,1/2-y,-z
1/2+x,1/2-y,1/2+z
loop_
_atom_site_type_symbol
_atom_site_label
_atom_site_fract_x
_atom_site_fract_y
_atom_site_fract_z
Si Si1 0.715567 0.031989 0.731740
Si Si2 0.500000 0.534773 0.250000
Si Si3 0.500000 0.344335 0.250000
Si Si4 0.131413 0.764226 0.437106
Si Si5 0.000000 0.406364 0.250000
Si Si6 0.739818 0.834677 0.810464
O O1 0.579547 0.061388 0.850770
O O2 0.717933 0.988836 0.509297
O O3 0.856052 0.061856 0.486245
O O4 0.500000 0.500000 0.500000
O O5 0.560792 0.306832 0.369461
O O6 0.367523 0.367016 0.546033
O O7 0.223352 0.800155 0.495058
O O8 0.193417 0.714950 0.214947
O O9 0.000000 0.741103 0.750000
O O10 0.882997 0.372009 0.513672
#
# Coordination Sequence:
#
# PCOD9274067 Si02
#       6
#     8   4   4   8   4   8
#     4  10  22  46  72 101 137 182 221 281 358 417
#     4   8  16  36  69  95 122 168 222 259 328 425
#     4  10  20  38  61  87 120 178 227 268 332 399
#     4   9  18  38  63  81 127 172 226 273 334 398
#     4  12  24  42  64  98 136 170 225 283 338 408
#     4  10  21  39  58  92 124 175 218 281 332 394
#
# _framework density 25.531628999999999
#
# number of rings (size 3 to 8) (size 9 to 14) (size 15 to 20)
#    0.000    2.222    1.111    1.333    0.000    0.000 
#   14.000    4.444    0.000    0.000    0.000    0.000 
#    0.000    0.000    0.000    0.000    0.000    0.000 
#
# Total GULP energy -100296.298663 kJ/mol
# GULP energy per Si atom -5572.016592 kJ/mol
# Density = 2.547352 g / cm^3
# Si number density = 25.531629 Si / 1000 Ang^3
#
#
#
# Elastic Constant Matrix: (Units=GPa)
#
#
# Indices 1 2 3 4 5 6 
#
# 1 84.5339 14.7351 35.3790 0.0000 -56.4268 0.0000
# 2 14.7351 44.4512 35.3294 0.0000 -15.3422 0.0000
# 3 35.3790 35.3294 109.7586 0.0000 -42.1531 0.0000
# 4 0.0000 0.0000 0.0000 42.9077 0.0000 -19.8033
# 5 -56.4268 -15.3422 -42.1531 0.0000 67.5761 0.0000
# 6 0.0000 0.0000 0.0000 -19.8033 0.0000 10.1416
#
#
#
# Elastic Compliance Matrix: (Units=1/GPa)
#
#
# Indices 1 2 3 4 5 6 
#
# 1 0.026802 -0.001517 0.000410 0.000000 0.022291 0.000000
# 2 -0.001517 0.030372 -0.009370 0.000000 -0.000216 0.000000
# 3 0.000410 -0.009370 0.014872 0.000000 0.007492 0.000000
# 4 0.000000 0.000000 0.000000 0.235951 0.000000 0.460739
# 5 0.022291 -0.000216 0.007492 0.000000 0.038036 0.000000
# 6 0.000000 0.000000 0.000000 0.460739 0.000000 0.998282
#
#
# Mechanical properties :
#
#
# Convention : Reuss Voigt Hill
#
# Bulk Modulus (GPa) = 19.57236 45.51450 32.54343
# Shear Modulus (GPa) = 3.61716 34.34509 18.98112
#
# Velocity S-wave (km/s) = 1.19156 3.67167 2.72956
# Velocity P-wave (km/s) = 3.09445 5.98668 4.76529
#
# Compressibility (1/GPa) = 0.05109247
#
# Stress axis : x y z
#
# Youngs Moduli (GPa) = 37.31084 32.92473 67.23933
#
# Poissons Ratio (x) = 0.04994 -0.02757
# Poissons Ratio (y) = 0.05659 0.63006
# Poissons Ratio (z) = -0.01530 0.30852
#
# Static dielectric constant tensor:
#      x y z
#    x 1.220840 0.000000 0.611920 
#    y 0.000000 2.042530 0.000000 
#    z 0.611920 0.000000 2.160410 
# 
# From -- ./inp_files/7927.got.cif
#   From: 2010.05.17/outbox.cif.g08.bks.cpg/sg15_4_cif.got.tgz:7927.got - 2010.06.03 18:47:42.
