data_PCOD9274145
_publ_section_title
;
Structure prediction by ZEFSAII (Michael W. Deem and Ramdas Pophale) SiO2 
 PCOD9274145
Probable space group: C 2/C
;
_chemical_formula_sum "Si O2"
_cell_formula_units_Z 40
_cell_length_a 5.208795
_cell_length_b 12.916697
_cell_length_c 23.713947
_cell_angle_alpha 90.000000
_cell_angle_beta 87.489135
_cell_angle_gamma 90.000000
_cell_volume 1593.952701
_symmetry_space_group_name_H-M "C 2/C"
_symmetry_group_IT_number 15
_symmetry_cell_setting 'monoclinic'
loop_
_space_group_symop_operation_xyz
x,y,z
-x,y,1/2-z
-x,-y,-z
x,-y,1/2+z
1/2+x,1/2+y,z
1/2-x,1/2+y,1/2-z
1/2-x,1/2-y,-z
1/2+x,1/2-y,1/2+z
loop_
_atom_site_type_symbol
_atom_site_label
_atom_site_fract_x
_atom_site_fract_y
_atom_site_fract_z
Si Si1 0.167767 0.045386 0.591388
Si Si2 0.294326 0.273107 0.090776
Si Si3 0.568923 0.035138 0.308349
Si Si4 0.560578 0.849230 0.503852
Si Si5 0.940766 0.132502 0.155426
O O1 0.393821 0.032318 0.635628
O O2 0.278988 0.059025 0.527300
O O3 0.007005 0.147524 0.609795
O O4 0.977954 0.948424 0.602671
O O5 0.166094 0.328414 0.038449
O O6 0.063970 0.238521 0.133209
O O7 0.433468 0.167533 0.066258
O O8 0.500000 0.981045 0.250000
O O9 0.345130 0.119696 0.320015
O O10 0.846998 0.088424 0.303381
O O11 0.750000 0.750000 0.500000
#
# Coordination Sequence:
#
# PCOD9274145 Si02
#       5
#     8   8   8   8   8
#     4   9  21  37  64  93 125 172 212 261 327 391
#     4  10  20  38  61  94 133 169 211 264 323 399
#     4  10  22  43  67  90 122 169 218 278 333 386
#     4   9  19  35  59  91 133 170 208 262 321 392
#     4  10  23  38  68  91 125 168 212 271 328 387
#
# _framework density 25.094847000000001
#
# number of rings (size 3 to 8) (size 9 to 14) (size 15 to 20)
#    1.200    1.200    0.000    1.800    5.600    0.800 
#    0.000   10.000    8.800    0.000    0.000    0.000 
#    0.000    0.000    0.000    0.000    0.000    0.000 
#
# Total GULP energy -111594.569117 kJ/mol
# GULP energy per Si atom -5579.728456 kJ/mol
# Density = 2.503773 g / cm^3
# Si number density = 25.094847 Si / 1000 Ang^3
#
#
#
# Elastic Constant Matrix: (Units=GPa)
#
#
# Indices 1 2 3 4 5 6 
#
# 1 151.6407 21.2943 36.1756 0.0000 -2.7189 0.0000
# 2 21.2943 65.9564 19.0949 0.0000 -0.9162 0.0000
# 3 36.1756 19.0949 70.0970 0.0000 12.4245 0.0000
# 4 0.0000 0.0000 0.0000 10.4848 0.0000 3.0155
# 5 -2.7189 -0.9162 12.4245 0.0000 47.9861 0.0000
# 6 0.0000 0.0000 0.0000 3.0155 0.0000 43.6480
#
#
#
# Elastic Compliance Matrix: (Units=1/GPa)
#
#
# Indices 1 2 3 4 5 6 
#
# 1 0.007734 -0.001356 -0.003873 0.000000 0.001415 0.000000
# 2 -0.001356 0.016808 -0.004111 0.000000 0.001308 0.000000
# 3 -0.003873 -0.004111 0.018276 0.000000 -0.005030 0.000000
# 4 0.000000 0.000000 0.000000 0.097310 0.000000 -0.006723
# 5 0.001415 0.001308 -0.005030 0.000000 0.022247 0.000000
# 6 0.000000 0.000000 0.000000 -0.006723 0.000000 0.023375
#
#
# Mechanical properties :
#
#
# Convention : Reuss Voigt Hill
#
# Bulk Modulus (GPa) = 41.42734 48.98040 45.20387
# Shear Modulus (GPa) = 23.53219 34.49905 29.01562
#
# Velocity S-wave (km/s) = 3.06556 3.71178 3.40404
# Velocity P-wave (km/s) = 5.39206 6.15875 5.78812
#
# Compressibility (1/GPa) = 0.02413865
#
# Stress axis : x y z
#
# Youngs Moduli (GPa) = 129.29475 59.49694 54.71675
#
# Poissons Ratio (x) = 0.08069 0.21191
# Poissons Ratio (y) = 0.17534 0.22492
# Poissons Ratio (z) = 0.50074 0.24456
#
# Static dielectric constant tensor:
#      x y z
#    x 2.008560 0.000000 -0.028540 
#    y 0.000000 2.052350 0.000000 
#    z -0.028540 0.000000 2.057150 
# 
# From -- ./inp_files/260183.got.cif
#   From: 2010.05.17/outbox.cif.g08.bks.cpg/sg15_131_cif.got.tgz:260183.got - 2010.06.03 18:47:42.
