data_PCOD9274665
_publ_section_title
;
Structure prediction by ZEFSAII (Michael W. Deem and Ramdas Pophale) SiO2 
 PCOD9274665
Probable space group: C 2/C
;
_chemical_formula_sum "Si O2"
_cell_formula_units_Z 60
_cell_length_a 18.770402
_cell_length_b 14.731353
_cell_length_c 18.496839
_cell_angle_alpha 90.000000
_cell_angle_beta 142.200001
_cell_angle_gamma 90.000000
_cell_volume 3134.789160
_symmetry_space_group_name_H-M "C 2/C"
_symmetry_group_IT_number 15
_symmetry_cell_setting 'monoclinic'
loop_
_space_group_symop_operation_xyz
x,y,z
-x,y,1/2-z
-x,-y,-z
x,-y,1/2+z
1/2+x,1/2+y,z
1/2-x,1/2+y,1/2-z
1/2-x,1/2-y,-z
1/2+x,1/2-y,1/2+z
loop_
_atom_site_type_symbol
_atom_site_label
_atom_site_fract_x
_atom_site_fract_y
_atom_site_fract_z
Si Si1 0.185689 0.845324 0.729062
Si Si2 0.396228 0.873748 0.720095
Si Si3 0.355430 0.623652 0.468495
Si Si4 0.231000 0.148437 0.690085
Si Si5 0.060939 0.932997 0.938737
Si Si6 0.112293 0.522771 0.137784
Si Si7 0.422749 0.326613 0.288333
Si Si8 0.000000 0.017160 0.750000
O O1 0.174154 0.836669 0.632867
O O2 0.208347 0.744757 0.775275
O O3 0.293205 0.913838 0.827600
O O4 0.065525 0.889006 0.657461
O O5 0.500000 0.896863 0.750000
O O6 0.266327 0.903354 0.593087
O O7 0.420527 0.919243 0.817298
O O8 0.385690 0.765032 0.719633
O O9 0.429638 0.532097 0.516639
O O10 0.440893 0.686282 0.582109
O O11 0.153851 0.124001 0.558296
O O12 0.148539 0.159990 0.694797
O O13 0.320292 0.067491 0.780896
O O14 0.074950 0.956955 0.865287
O O15 0.000000 0.500000 0.000000
O O16 0.421849 0.414837 0.236218
#
# Coordination Sequence:
#
# PCOD9274665 Si02
#       8
#     8   8   8   8   8   8   8   4
#     4  11  22  39  70  98 123 175 221 279 321 388
#     4  11  23  42  59  96 140 170 207 268 349 403
#     4  10  20  38  64  92 128 169 215 265 326 385
#     4  12  23  40  75  95 132 178 221 281 330 397
#     4  11  22  45  67  96 130 170 234 274 328 401
#     4  11  25  42  58 101 139 172 225 271 330 401
#     4  11  21  39  65 102 129 164 220 269 337 399
#     4  10  24  38  66  96 130 172 218 282 324 388
#
# _framework density 19.140042999999999
#
# number of rings (size 3 to 8) (size 9 to 14) (size 15 to 20)
#    0.000    1.067    7.333    2.000    3.733    0.533 
#    9.600    0.667    1.467    0.000    0.000    0.000 
#    0.000    0.000    0.000    0.000    0.000    0.000 
#
# Total GULP energy -167376.788816 kJ/mol
# GULP energy per Si atom -5579.226294 kJ/mol
# Density = 1.909648 g / cm^3
# Si number density = 19.140043 Si / 1000 Ang^3
#
#
#
# Elastic Constant Matrix: (Units=GPa)
#
#
# Indices 1 2 3 4 5 6 
#
# 1 74.0452 27.5167 50.3728 0.0000 6.0919 0.0000
# 2 27.5167 117.4794 51.9934 0.0000 5.6762 0.0000
# 3 50.3728 51.9934 121.5944 0.0000 1.2958 0.0000
# 4 0.0000 0.0000 0.0000 35.3923 0.0000 4.4909
# 5 6.0919 5.6762 1.2958 0.0000 26.4020 0.0000
# 6 0.0000 0.0000 0.0000 4.4909 0.0000 28.0499
#
#
#
# Elastic Compliance Matrix: (Units=1/GPa)
#
#
# Indices 1 2 3 4 5 6 
#
# 1 0.019322 -0.001004 -0.007534 0.000000 -0.003873 0.000000
# 2 -0.001004 0.010662 -0.004123 0.000000 -0.001858 0.000000
# 3 -0.007534 -0.004123 0.013087 0.000000 0.001982 0.000000
# 4 0.000000 0.000000 0.000000 0.028841 0.000000 -0.004618
# 5 -0.003873 -0.001858 0.001982 0.000000 0.039072 0.000000
# 6 0.000000 0.000000 0.000000 -0.004618 0.000000 0.036390
#
#
# Mechanical properties :
#
#
# Convention : Reuss Voigt Hill
#
# Bulk Modulus (GPa) = 56.34262 63.65386 59.99824
# Shear Modulus (GPa) = 27.99350 30.18460 29.08905
#
# Velocity S-wave (km/s) = 3.82849 3.97550 3.90269
# Velocity P-wave (km/s) = 7.00315 7.37577 7.19187
#
# Compressibility (1/GPa) = 0.01774855
#
# Stress axis : x y z
#
# Youngs Moduli (GPa) = 51.75327 93.79142 76.41134
#
# Poissons Ratio (x) = 0.09420 0.57568
# Poissons Ratio (y) = 0.05198 0.31506
# Poissons Ratio (z) = 0.38991 0.38672
#
# Static dielectric constant tensor:
#      x y z
#    x 1.705320 0.000000 0.004140 
#    y 0.000000 1.677290 0.000000 
#    z 0.004140 0.000000 1.695970 
# 
# From -- ./inp_files/253063.got.cif
#   From: 2010.05.17/outbox.cif.g08.bks.cpg/sg15_127_cif.got.tgz:253063.got - 2010.06.03 18:47:42.
