data_PCOD9274567
_publ_section_title
;
Structure prediction by ZEFSAII (Michael W. Deem and Ramdas Pophale) SiO2 
 PCOD9274567
Probable space group: C 2/C
;
_chemical_formula_sum "Si O2"
_cell_formula_units_Z 60
_cell_length_a 15.508361
_cell_length_b 9.267327
_cell_length_c 22.659223
_cell_angle_alpha 90.000000
_cell_angle_beta 70.187393
_cell_angle_gamma 90.000000
_cell_volume 3063.836456
_symmetry_space_group_name_H-M "C 2/C"
_symmetry_group_IT_number 15
_symmetry_cell_setting 'monoclinic'
loop_
_space_group_symop_operation_xyz
x,y,z
-x,y,1/2-z
-x,-y,-z
x,-y,1/2+z
1/2+x,1/2+y,z
1/2-x,1/2+y,1/2-z
1/2-x,1/2-y,-z
1/2+x,1/2-y,1/2+z
loop_
_atom_site_type_symbol
_atom_site_label
_atom_site_fract_x
_atom_site_fract_y
_atom_site_fract_z
Si Si1 0.437441 0.975427 0.349412
Si Si2 0.090425 0.426148 0.006541
Si Si3 0.500000 0.277336 0.750000
Si Si4 0.991043 0.845721 0.530970
Si Si5 0.720205 0.159367 0.175184
Si Si6 0.563412 0.241089 0.292333
Si Si7 0.300053 0.811991 0.046536
Si Si8 0.083765 0.951698 0.832480
O O1 0.351654 0.053280 0.339124
O O2 0.521900 0.090713 0.326336
O O3 0.416375 0.944496 0.421793
O O4 0.456828 0.832729 0.307393
O O5 0.076798 0.257530 0.996853
O O6 0.176531 0.518703 0.964776
O O7 0.000000 0.500000 0.000000
O O8 0.565847 0.379680 0.773053
O O9 0.897829 0.769673 0.529852
O O10 0.977300 0.872061 0.603902
O O11 0.000000 0.000000 0.500000
O O12 0.665908 0.222779 0.243639
O O13 0.745872 0.275931 0.118994
O O14 0.811991 0.078243 0.173014
O O15 0.500000 0.273611 0.250000
O O16 0.560030 0.378852 0.335421
O O17 0.250000 0.750000 0.000000
#
# Coordination Sequence:
#
# PCOD9274567 Si02
#       8
#     8   8   4   8   8   8   8   8
#     4  11  21  40  67  87 122 167 211 258 306 388
#     4  10  21  38  63  93 118 166 216 247 310 382
#     4  12  22  40  62  90 126 164 208 254 314 374
#     4  10  23  40  61  88 126 163 208 261 308 367
#     4  10  22  39  60  89 126 157 205 256 314 367
#     4  10  22  39  60  89 116 161 210 241 311 373
#     4  10  20  38  64  85 119 162 204 256 311 368
#     4  11  24  39  60  91 128 160 202 260 317 365
#
# _framework density 19.583290999999999
#
# number of rings (size 3 to 8) (size 9 to 14) (size 15 to 20)
#    0.000    1.600    5.333    0.000    5.600    0.000 
#    0.000    0.667    0.000    0.000    0.000    0.000 
#    0.000    0.000    0.000    0.000    0.000    0.000 
#
# Total GULP energy -167408.350511 kJ/mol
# GULP energy per Si atom -5580.278350 kJ/mol
# Density = 1.953872 g / cm^3
# Si number density = 19.583291 Si / 1000 Ang^3
#
#
#
# Elastic Constant Matrix: (Units=GPa)
#
#
# Indices 1 2 3 4 5 6 
#
# 1 42.9788 23.9252 19.7944 0.0000 3.2371 0.0000
# 2 23.9252 116.3195 24.8307 0.0000 -2.9041 0.0000
# 3 19.7944 24.8307 42.4921 0.0000 8.6863 0.0000
# 4 0.0000 0.0000 0.0000 34.7027 0.0000 6.1039
# 5 3.2371 -2.9041 8.6863 0.0000 30.5414 0.0000
# 6 0.0000 0.0000 0.0000 6.1039 0.0000 18.9541
#
#
#
# Elastic Compliance Matrix: (Units=1/GPa)
#
#
# Indices 1 2 3 4 5 6 
#
# 1 0.031001 -0.003777 -0.012199 0.000000 -0.000176 0.000000
# 2 -0.003777 0.010501 -0.004951 0.000000 0.002807 0.000000
# 3 -0.012199 -0.004951 0.033913 0.000000 -0.008823 0.000000
# 4 0.000000 0.000000 0.000000 0.030546 0.000000 -0.009837
# 5 -0.000176 0.002807 -0.008823 0.000000 0.035537 0.000000
# 6 0.000000 0.000000 0.000000 -0.009837 0.000000 0.055927
#
#
# Mechanical properties :
#
#
# Convention : Reuss Voigt Hill
#
# Bulk Modulus (GPa) = 29.79491 37.65453 33.72472
# Shear Modulus (GPa) = 19.96288 25.72231 22.84260
#
# Velocity S-wave (km/s) = 3.19624 3.62813 3.41901
# Velocity P-wave (km/s) = 5.37297 6.06801 5.73103
#
# Compressibility (1/GPa) = 0.03356278
#
# Stress axis : x y z
#
# Youngs Moduli (GPa) = 32.25685 95.23153 29.48741
#
# Poissons Ratio (x) = 0.35967 0.35970
# Poissons Ratio (y) = 0.12183 0.14598
# Poissons Ratio (z) = 0.39349 0.47145
#
# Static dielectric constant tensor:
#      x y z
#    x 1.665930 0.000000 -0.004530 
#    y 0.000000 1.706980 0.000000 
#    z -0.004530 0.000000 1.732120 
# 
# From -- ./inp_files/273114.got.cif
#   From: 2010.05.17/outbox.cif.g08.bks.cpg/sg15_137_cif.got.tgz:273114.got - 2010.06.03 18:47:42.
