data_PCOD9274628
_publ_section_title
;
Structure prediction by ZEFSAII (Michael W. Deem and Ramdas Pophale) SiO2 
 PCOD9274628
Probable space group: C 2/C
;
_chemical_formula_sum "Si O2"
_cell_formula_units_Z 40
_cell_length_a 8.617221
_cell_length_b 22.387155
_cell_length_c 8.939301
_cell_angle_alpha 90.000000
_cell_angle_beta 86.115248
_cell_angle_gamma 90.000000
_cell_volume 1720.563442
_symmetry_space_group_name_H-M "C 2/C"
_symmetry_group_IT_number 15
_symmetry_cell_setting 'monoclinic'
loop_
_space_group_symop_operation_xyz
x,y,z
-x,y,1/2-z
-x,-y,-z
x,-y,1/2+z
1/2+x,1/2+y,z
1/2-x,1/2+y,1/2-z
1/2-x,1/2-y,-z
1/2+x,1/2-y,1/2+z
loop_
_atom_site_type_symbol
_atom_site_label
_atom_site_fract_x
_atom_site_fract_y
_atom_site_fract_z
Si Si1 0.279423 0.670064 0.623784
Si Si2 0.814974 0.209013 0.280948
Si Si3 0.000000 0.916769 0.250000
Si Si4 0.313626 0.420709 0.733748
Si Si5 0.723464 0.983940 0.437924
Si Si6 0.500000 0.087594 0.750000
O O1 0.274861 0.728560 0.732116
O O2 0.280937 0.690944 0.453978
O O3 0.425768 0.627559 0.635524
O O4 0.132546 0.630397 0.677828
O O5 0.772320 0.148014 0.196975
O O6 0.000000 0.220166 0.250000
O O7 0.129798 0.955655 0.161194
O O8 0.500000 0.421278 0.750000
O O9 0.255545 0.464403 0.605177
O O10 0.234298 0.447034 0.889035
O O11 0.572459 0.953599 0.375467
#
# Coordination Sequence:
#
# PCOD9274628 Si02
#       6
#     8   8   4   8   8   4
#     4  10  21  42  64  92 128 174 210 273 323 392
#     4  10  21  40  65  92 128 170 216 266 324 386
#     4  10  20  38  64  90 124 168 222 262 324 380
#     4  11  23  40  67  96 129 171 225 273 316 392
#     4  11  24  41  66  96 131 176 218 273 326 386
#     4  10  24  44  64  92 140 170 218 266 338 392
#
# _framework density 23.248199
#
# number of rings (size 3 to 8) (size 9 to 14) (size 15 to 20)
#    0.000    1.600    2.000    3.000    5.600    0.800 
#    7.200    3.000    0.000    0.000    0.000    0.000 
#    0.000    0.000    0.000    0.000    0.000    0.000 
#
# Total GULP energy -111858.461204 kJ/mol
# GULP energy per Si atom -5592.923060 kJ/mol
# Density = 2.319529 g / cm^3
# Si number density = 23.248199 Si / 1000 Ang^3
#
#
#
# Elastic Constant Matrix: (Units=GPa)
#
#
# Indices 1 2 3 4 5 6 
#
# 1 52.3419 26.0866 13.8658 0.0000 12.0264 0.0000
# 2 26.0866 128.8688 18.8401 0.0000 0.3788 0.0000
# 3 13.8658 18.8401 79.8404 0.0000 7.7000 0.0000
# 4 0.0000 0.0000 0.0000 46.0583 0.0000 -9.1228
# 5 12.0264 0.3788 7.7000 0.0000 26.8645 0.0000
# 6 0.0000 0.0000 0.0000 -9.1228 0.0000 17.4012
#
#
#
# Elastic Compliance Matrix: (Units=1/GPa)
#
#
# Indices 1 2 3 4 5 6 
#
# 1 0.024298 -0.004573 -0.002157 0.000000 -0.010195 0.000000
# 2 -0.004573 0.008903 -0.001534 0.000000 0.002362 0.000000
# 3 -0.002157 -0.001534 0.013541 0.000000 -0.002894 0.000000
# 4 0.000000 0.000000 0.000000 0.024227 0.000000 0.012702
# 5 -0.010195 0.002362 -0.002894 0.000000 0.042584 0.000000
# 6 0.000000 0.000000 0.000000 0.012702 0.000000 0.064126
#
#
# Mechanical properties :
#
#
# Convention : Reuss Voigt Hill
#
# Bulk Modulus (GPa) = 33.09957 42.07066 37.58512
# Shear Modulus (GPa) = 24.47613 31.54870 28.01242
#
# Velocity S-wave (km/s) = 3.24824 3.68780 3.47497
# Velocity P-wave (km/s) = 5.32320 6.02235 5.68354
#
# Compressibility (1/GPa) = 0.03021187
#
# Stress axis : x y z
#
# Youngs Moduli (GPa) = 41.15508 112.32215 73.85079
#
# Poissons Ratio (x) = 0.51368 0.15933
# Poissons Ratio (y) = 0.18821 0.11331
# Poissons Ratio (z) = 0.08879 0.17234
#
# Static dielectric constant tensor:
#      x y z
#    x 1.853770 0.000000 0.000510 
#    y 0.000000 1.956090 0.000000 
#    z 0.000510 0.000000 1.867100 
# 
# From -- ./inp_files/23539.got.cif
#   From: 2010.05.17/outbox.cif.g08.bks.cpg/sg15_12_cif.got.tgz:23539.got - 2010.06.03 18:47:42.
