data_PCOD9274825
_publ_section_title
;
Structure prediction by ZEFSAII (Michael W. Deem and Ramdas Pophale) SiO2 
 PCOD9274825
Probable space group: C 2/C
;
_chemical_formula_sum "Si O2"
_cell_formula_units_Z 48
_cell_length_a 14.556291
_cell_length_b 18.253892
_cell_length_c 17.470449
_cell_angle_alpha 90.000000
_cell_angle_beta 29.077617
_cell_angle_gamma 90.000000
_cell_volume 2256.010821
_symmetry_space_group_name_H-M "C 2/C"
_symmetry_group_IT_number 15
_symmetry_cell_setting 'monoclinic'
loop_
_space_group_symop_operation_xyz
x,y,z
-x,y,1/2-z
-x,-y,-z
x,-y,1/2+z
1/2+x,1/2+y,z
1/2-x,1/2+y,1/2-z
1/2-x,1/2-y,-z
1/2+x,1/2-y,1/2+z
loop_
_atom_site_type_symbol
_atom_site_label
_atom_site_fract_x
_atom_site_fract_y
_atom_site_fract_z
Si Si1 0.931124 0.337440 0.715409
Si Si2 0.154015 0.428118 0.191040
Si Si3 0.017056 0.876533 0.829148
Si Si4 0.526422 0.730924 0.523944
Si Si5 0.146283 0.465379 0.834363
Si Si6 0.099809 0.291827 0.316823
O O1 0.706881 0.319194 0.878631
O O2 0.960451 0.405310 0.639067
O O3 0.000000 0.348592 0.750000
O O4 0.032166 0.268520 0.601928
O O5 0.213761 0.475714 0.221361
O O6 0.038283 0.357569 0.308124
O O7 0.000000 0.468746 0.250000
O O8 0.330240 0.401962 0.011399
O O9 0.000000 0.886521 0.750000
O O10 0.186554 0.924917 0.741263
O O11 0.054803 0.789484 0.817801
O O12 0.323798 0.694413 0.662390
O O13 0.523011 0.791351 0.458768
O O14 0.000000 0.500000 0.000000
#
# Coordination Sequence:
#
# PCOD9274825 Si02
#       6
#     8   8   8   8   8   8
#     4  11  22  40  66  98 135 177 227 276 339 405
#     4  12  26  41  68 102 137 180 223 277 346 409
#     4  12  26  44  69  99 134 176 234 284 337 409
#     4  10  20  38  65  95 131 175 218 284 334 389
#     4  12  25  46  68  96 140 180 224 283 348 413
#     4  11  21  41  67  99 136 176 224 280 342 394
#
# _framework density 21.276492999999999
#
# number of rings (size 3 to 8) (size 9 to 14) (size 15 to 20)
#    0.000    0.667    5.000    4.000    2.333    1.333 
#    0.000    0.000    0.000    5.000    0.000    0.000 
#    0.000    0.000    0.000    0.000    0.000    0.000 
#
# Total GULP energy -134127.017061 kJ/mol
# GULP energy per Si atom -5588.625711 kJ/mol
# Density = 2.122807 g / cm^3
# Si number density = 21.276493 Si / 1000 Ang^3
#
#
#
# Elastic Constant Matrix: (Units=GPa)
#
#
# Indices 1 2 3 4 5 6 
#
# 1 163.1048 46.7384 28.8236 -0.0034 33.1302 -0.0018
# 2 46.7384 82.2338 15.2768 -0.0168 13.5340 0.0046
# 3 28.8236 15.2768 62.7677 -0.0450 15.8161 0.0026
# 4 -0.0034 -0.0168 -0.0450 23.0663 0.0122 12.0433
# 5 33.1302 13.5340 15.8161 0.0122 31.7809 0.0010
# 6 -0.0018 0.0046 0.0026 12.0433 0.0010 28.9996
#
#
#
# Elastic Compliance Matrix: (Units=1/GPa)
#
#
# Indices 1 2 3 4 5 6 
#
# 1 0.008830 -0.003609 -0.001423 -0.000002 -0.006960 0.000002
# 2 -0.003609 0.014783 -0.001489 0.000012 -0.001792 -0.000007
# 3 -0.001423 -0.001489 0.018768 0.000051 -0.007223 -0.000022
# 4 -0.000002 0.000012 0.000051 0.055356 -0.000049 -0.022989
# 5 -0.006960 -0.001792 -0.007223 -0.000049 0.043079 0.000020
# 6 0.000002 -0.000007 -0.000022 -0.022989 0.000020 0.044030
#
#
# Mechanical properties :
#
#
# Convention : Reuss Voigt Hill
#
# Bulk Modulus (GPa) = 34.08395 54.42044 44.25219
# Shear Modulus (GPa) = 24.07683 31.25387 27.66535
#
# Velocity S-wave (km/s) = 3.36760 3.83683 3.60985
# Velocity P-wave (km/s) = 5.58348 6.72768 6.18211
#
# Compressibility (1/GPa) = 0.02933932
#
# Stress axis : x y z
#
# Youngs Moduli (GPa) = 113.24463 67.64401 53.28354
#
# Poissons Ratio (x) = 0.24413 0.07581
# Poissons Ratio (y) = 0.40870 0.07935
# Poissons Ratio (z) = 0.16112 0.10073
#
# Static dielectric constant tensor:
#      x y z
#    x 1.778430 0.000000 0.016860 
#    y 0.000000 1.798950 0.000020 
#    z 0.016860 0.000020 1.759190 
# 
# From -- ./inp_files/63191.got.cif
#   From: 2010.05.17/outbox.cif.g08.bks.cpg/sg15_32_cif.got.tgz:63191.got - 2010.06.03 18:47:42.
