data_PCOD9274640
_publ_section_title
;
Structure prediction by ZEFSAII (Michael W. Deem and Ramdas Pophale) SiO2 
 PCOD9274640
Probable space group: C 2/C
;
_chemical_formula_sum "Si O2"
_cell_formula_units_Z 56
_cell_length_a 24.240644
_cell_length_b 9.764756
_cell_length_c 14.822569
_cell_angle_alpha 90.000000
_cell_angle_beta 54.573896
_cell_angle_gamma 90.000000
_cell_volume 2858.999303
_symmetry_space_group_name_H-M "C 2/C"
_symmetry_group_IT_number 15
_symmetry_cell_setting 'monoclinic'
loop_
_space_group_symop_operation_xyz
x,y,z
-x,y,1/2-z
-x,-y,-z
x,-y,1/2+z
1/2+x,1/2+y,z
1/2-x,1/2+y,1/2-z
1/2-x,1/2-y,-z
1/2+x,1/2-y,1/2+z
loop_
_atom_site_type_symbol
_atom_site_label
_atom_site_fract_x
_atom_site_fract_y
_atom_site_fract_z
Si Si1 0.088972 0.868475 0.891911
Si Si2 0.510380 0.415895 0.348118
Si Si3 0.248834 0.401095 0.572080
Si Si4 0.208829 0.938201 0.304972
Si Si5 0.424164 0.056103 0.564392
Si Si6 0.126263 0.288021 0.796831
Si Si7 0.812840 0.374046 0.049267
O O1 0.083552 0.706088 0.884895
O O2 0.048332 0.951504 0.853810
O O3 0.164967 0.928393 0.817702
O O4 0.053847 0.899352 0.023159
O O5 0.500000 0.426323 0.250000
O O6 0.560153 0.286642 0.320500
O O7 0.264987 0.526715 0.621210
O O8 0.184148 0.314442 0.668677
O O9 0.228244 0.445578 0.492118
O O10 0.307643 0.286685 0.527237
O O11 0.156805 0.813121 0.343532
O O12 0.270100 0.903438 0.180185
O O13 0.388525 0.076874 0.500162
O O14 0.500000 0.000000 0.500000
O O15 0.385625 0.935725 0.651328
#
# Coordination Sequence:
#
# PCOD9274640 Si02
#       7
#     8   8   8   8   8   8   8
#     4  10  22  39  65  90 119 166 205 255 317 365
#     4  10  22  41  64  91 124 161 212 251 302 381
#     4  10  20  38  64  91 120 160 212 255 302 371
#     4  10  20  39  64  87 123 159 208 265 303 364
#     4  12  22  39  63  89 128 164 199 257 319 381
#     4  10  22  36  62  92 125 164 205 249 316 372
#     4  10  22  37  63  93 119 163 210 252 313 368
#
# _framework density 19.587274000000001
#
# number of rings (size 3 to 8) (size 9 to 14) (size 15 to 20)
#    0.000    1.714    4.286    0.000    2.000    2.286 
#    0.000    2.857    0.000    0.000    0.000    0.000 
#    0.000    0.000    0.000    0.000    0.000    0.000 
#
# Total GULP energy -156056.133203 kJ/mol
# GULP energy per Si atom -5573.433329 kJ/mol
# Density = 1.954269 g / cm^3
# Si number density = 19.587274 Si / 1000 Ang^3
#
#
#
# Elastic Constant Matrix: (Units=GPa)
#
#
# Indices 1 2 3 4 5 6 
#
# 1 117.2715 33.4950 35.0222 0.0000 24.0197 0.0000
# 2 33.4950 119.7165 21.1342 0.0000 17.7276 0.0000
# 3 35.0222 21.1342 51.6119 0.0000 32.2120 0.0000
# 4 0.0000 0.0000 0.0000 19.9511 0.0000 5.3190
# 5 24.0197 17.7276 32.2120 0.0000 39.2882 0.0000
# 6 0.0000 0.0000 0.0000 5.3190 0.0000 24.1874
#
#
#
# Elastic Compliance Matrix: (Units=1/GPa)
#
#
# Indices 1 2 3 4 5 6 
#
# 1 0.011098 -0.001881 -0.006258 0.000000 -0.000806 0.000000
# 2 -0.001881 0.009411 -0.001320 0.000000 -0.002014 0.000000
# 3 -0.006258 -0.001320 0.043832 0.000000 -0.031516 0.000000
# 4 0.000000 0.000000 0.000000 0.053244 0.000000 -0.011709
# 5 -0.000806 -0.002014 -0.031516 0.000000 0.052694 0.000000
# 6 0.000000 0.000000 0.000000 -0.011709 0.000000 0.043919
#
#
# Mechanical properties :
#
#
# Convention : Reuss Voigt Hill
#
# Bulk Modulus (GPa) = 22.01542 51.98919 37.00231
# Shear Modulus (GPa) = 20.14041 29.94856 25.04448
#
# Velocity S-wave (km/s) = 3.21010 3.91446 3.57964
# Velocity P-wave (km/s) = 5.00037 6.85789 6.00143
#
# Compressibility (1/GPa) = 0.04542270
#
# Stress axis : x y z
#
# Youngs Moduli (GPa) = 90.10304 106.26265 22.81430
#
# Poissons Ratio (x) = 0.19989 0.14277
# Poissons Ratio (y) = 0.16950 0.03012
# Poissons Ratio (z) = 0.56386 0.14028
#
# Static dielectric constant tensor:
#      x y z
#    x 1.769160 0.000000 -0.036050 
#    y 0.000000 1.687320 0.000000 
#    z -0.036050 0.000000 1.726040 
# 
# From -- ./inp_files/171805.got.cif
#   From: 2010.05.17/outbox.cif.g08.bks.cpg/sg15_86_cif.got.tgz:171805.got - 2010.06.03 18:47:42.
