data_PCOD9274079
_publ_section_title
;
Structure prediction by ZEFSAII (Michael W. Deem and Ramdas Pophale) SiO2 
 PCOD9274079
Probable space group: C 2/C
;
_chemical_formula_sum "Si O2"
_cell_formula_units_Z 52
_cell_length_a 15.947565
_cell_length_b 12.977734
_cell_length_c 17.267909
_cell_angle_alpha 90.000000
_cell_angle_beta 142.826042
_cell_angle_gamma 90.000000
_cell_volume 2159.435947
_symmetry_space_group_name_H-M "C 2/C"
_symmetry_group_IT_number 15
_symmetry_cell_setting 'monoclinic'
loop_
_space_group_symop_operation_xyz
x,y,z
-x,y,1/2-z
-x,-y,-z
x,-y,1/2+z
1/2+x,1/2+y,z
1/2-x,1/2+y,1/2-z
1/2-x,1/2-y,-z
1/2+x,1/2-y,1/2+z
loop_
_atom_site_type_symbol
_atom_site_label
_atom_site_fract_x
_atom_site_fract_y
_atom_site_fract_z
Si Si1 0.249833 0.827734 0.859311
Si Si2 0.534515 0.788747 0.111356
Si Si3 0.000000 0.900957 0.750000
Si Si4 0.000000 0.250484 0.750000
Si Si5 0.804773 0.526060 0.818536
Si Si6 0.497552 0.423849 0.119674
Si Si7 0.801967 0.429213 0.655093
Si Si8 0.500000 0.095949 0.750000
O O1 0.154615 0.793700 0.716691
O O2 0.302146 0.944548 0.885855
O O3 0.139184 0.834084 0.846838
O O4 0.383347 0.756927 0.970238
O O5 0.510568 0.841547 0.177889
O O6 0.597231 0.875736 0.101418
O O7 0.991271 0.975381 0.669969
O O8 0.983032 0.175322 0.664375
O O9 0.871182 0.325238 0.674337
O O10 0.649101 0.570173 0.693702
O O11 0.848066 0.460463 0.775243
O O12 0.363348 0.424600 0.967676
O O13 0.865628 0.521115 0.649614
#
# Coordination Sequence:
#
# PCOD9274079 Si02
#       8
#     8   8   4   4   8   8   8   4
#     4  11  24  42  65  94 127 168 212 262 320 384
#     4  11  24  42  65  94 127 168 212 262 320 384
#     4   9  21  39  63  90 124 162 210 256 320 378
#     4  10  22  36  58  94 122 166 220 272 332 380
#     4  10  24  42  60  90 127 172 213 262 327 382
#     4  10  20  38  61  88 124 167 215 267 320 384
#     4  10  20  38  61  88 124 167 215 267 320 384
#     4   9  21  39  63  90 124 162 210 256 320 378
#
# _framework density 24.080362000000001
#
# number of rings (size 3 to 8) (size 9 to 14) (size 15 to 20)
#    0.000    1.846    0.000    2.769    2.154    8.615 
#    0.000    3.077    0.000    0.000    0.000    0.000 
#    0.000    0.000    0.000    0.000    0.000    0.000 
#
# Total GULP energy -145400.911761 kJ/mol
# GULP energy per Si atom -5592.342760 kJ/mol
# Density = 2.402555 g / cm^3
# Si number density = 24.080362 Si / 1000 Ang^3
#
#
#
# Elastic Constant Matrix: (Units=GPa)
#
#
# Indices 1 2 3 4 5 6 
#
# 1 63.1114 20.9359 12.7349 0.0000 18.8709 0.0000
# 2 20.9359 65.0563 19.7670 0.0000 7.4924 0.0000
# 3 12.7349 19.7670 125.3476 0.0000 37.2719 0.0000
# 4 0.0000 0.0000 0.0000 7.5833 0.0000 -2.7839
# 5 18.8709 7.4924 37.2719 0.0000 40.3899 0.0000
# 6 0.0000 0.0000 0.0000 -2.7839 0.0000 38.5301
#
#
#
# Elastic Compliance Matrix: (Units=1/GPa)
#
#
# Indices 1 2 3 4 5 6 
#
# 1 0.020509 -0.006001 0.001903 0.000000 -0.010225 0.000000
# 2 -0.006001 0.017924 -0.002842 0.000000 0.002101 0.000000
# 3 0.001903 -0.002842 0.011494 0.000000 -0.010969 0.000000
# 4 0.000000 0.000000 0.000000 0.135463 0.000000 0.009788
# 5 -0.010225 0.002101 -0.010969 0.000000 0.039268 0.000000
# 6 0.000000 0.000000 0.000000 0.009788 0.000000 0.026661
#
#
# Mechanical properties :
#
#
# Convention : Reuss Voigt Hill
#
# Bulk Modulus (GPa) = 27.74029 40.04342 33.89186
# Shear Modulus (GPa) = 18.03663 30.63915 24.33789
#
# Velocity S-wave (km/s) = 2.73979 3.57090 3.18259
# Velocity P-wave (km/s) = 4.64257 5.80232 5.25454
#
# Compressibility (1/GPa) = 0.03604865
#
# Stress axis : x y z
#
# Youngs Moduli (GPa) = 48.75905 55.79162 87.00067
#
# Poissons Ratio (x) = 0.33479 -0.16557
# Poissons Ratio (y) = 0.29259 0.24722
# Poissons Ratio (z) = -0.09279 0.15854
#
# Static dielectric constant tensor:
#      x y z
#    x 1.905050 0.000000 0.020760 
#    y 0.000000 1.944290 0.000000 
#    z 0.020760 0.000000 1.935670 
# 
# From -- ./inp_files/249143.got.cif
#   From: 2010.05.17/outbox.cif.g08.bks.cpg/sg15_125_cif.got.tgz:249143.got - 2010.06.03 18:47:42.
