data_PCOD9274109
_publ_section_title
;
Structure prediction by ZEFSAII (Michael W. Deem and Ramdas Pophale) SiO2 
 PCOD9274109
Probable space group: C 2/C
;
_chemical_formula_sum "Si O2"
_cell_formula_units_Z 48
_cell_length_a 9.979129
_cell_length_b 20.891758
_cell_length_c 12.397145
_cell_angle_alpha 90.000000
_cell_angle_beta 99.485551
_cell_angle_gamma 90.000000
_cell_volume 2549.237572
_symmetry_space_group_name_H-M "C 2/C"
_symmetry_group_IT_number 15
_symmetry_cell_setting 'monoclinic'
loop_
_space_group_symop_operation_xyz
x,y,z
-x,y,1/2-z
-x,-y,-z
x,-y,1/2+z
1/2+x,1/2+y,z
1/2-x,1/2+y,1/2-z
1/2-x,1/2-y,-z
1/2+x,1/2-y,1/2+z
loop_
_atom_site_type_symbol
_atom_site_label
_atom_site_fract_x
_atom_site_fract_y
_atom_site_fract_z
Si Si1 0.880538 0.551213 0.471149
Si Si2 0.661680 0.441863 0.773211
Si Si3 0.718403 0.801905 0.750339
Si Si4 0.380491 0.174086 0.821791
Si Si5 0.343238 0.048043 0.707270
Si Si6 0.483124 0.826122 0.580074
O O1 0.739853 0.536008 0.392949
O O2 0.844669 0.575031 0.586030
O O3 0.000000 0.500000 0.500000
O O4 0.953896 0.603381 0.407076
O O5 0.500000 0.451757 0.750000
O O6 0.693598 0.365999 0.761324
O O7 0.741458 0.488096 0.700118
O O8 0.798028 0.737356 0.783787
O O9 0.613725 0.786747 0.638524
O O10 0.632049 0.816953 0.846548
O O11 0.500000 0.172398 0.750000
O O12 0.310486 0.104960 0.788227
O O13 0.431017 0.181004 0.951503
O O14 0.500000 0.027394 0.750000
#
# Coordination Sequence:
#
# PCOD9274109 Si02
#       6
#     8   8   8   8   8   8
#     4  11  19  37  67  90 118 164 212 255 300 376
#     4  11  24  40  59  96 132 158 204 263 322 365
#     4  10  23  38  61  89 124 164 203 256 318 370
#     4  11  21  40  61  90 119 161 213 258 305 366
#     4  11  21  39  66  92 117 166 215 253 301 373
#     4  10  20  38  61  91 116 159 218 252 299 377
#
# _framework density 18.829159000000001
#
# number of rings (size 3 to 8) (size 9 to 14) (size 15 to 20)
#    0.000    1.333    5.000    2.000    2.333    1.333 
#    6.000    0.000    0.000    0.000    0.000    0.000 
#    0.000    0.000    0.000    0.000    0.000    0.000 
#
# Total GULP energy -133659.828459 kJ/mol
# GULP energy per Si atom -5569.159519 kJ/mol
# Density = 1.878630 g / cm^3
# Si number density = 18.829159 Si / 1000 Ang^3
#
#
#
# Elastic Constant Matrix: (Units=GPa)
#
#
# Indices 1 2 3 4 5 6 
#
# 1 93.3837 45.6078 20.8994 0.0000 24.3071 0.0000
# 2 45.6078 90.6062 23.0176 0.0000 18.6308 0.0000
# 3 20.8994 23.0176 109.6188 0.0000 12.4773 0.0000
# 4 0.0000 0.0000 0.0000 24.7884 0.0000 9.3961
# 5 24.3071 18.6308 12.4773 0.0000 29.5541 0.0000
# 6 0.0000 0.0000 0.0000 9.3961 0.0000 13.2013
#
#
#
# Elastic Compliance Matrix: (Units=1/GPa)
#
#
# Indices 1 2 3 4 5 6 
#
# 1 0.016251 -0.006093 -0.000772 0.000000 -0.009199 0.000000
# 2 -0.006093 0.015329 -0.001605 0.000000 -0.003975 0.000000
# 3 -0.000772 -0.001605 0.009895 0.000000 -0.002531 0.000000
# 4 0.000000 0.000000 0.000000 0.055247 0.000000 -0.039323
# 5 -0.009199 -0.003975 -0.002531 0.000000 0.044977 0.000000
# 6 0.000000 0.000000 0.000000 -0.039323 0.000000 0.103738
#
#
# Mechanical properties :
#
#
# Convention : Reuss Voigt Hill
#
# Bulk Modulus (GPa) = 40.75618 52.51759 46.63689
# Shear Modulus (GPa) = 18.48061 27.11433 22.79747
#
# Velocity S-wave (km/s) = 3.13627 3.79887 3.48336
# Velocity P-wave (km/s) = 5.89976 6.86980 6.40317
#
# Compressibility (1/GPa) = 0.02453615
#
# Stress axis : x y z
#
# Youngs Moduli (GPa) = 61.53311 65.23793 101.06388
#
# Poissons Ratio (x) = 0.39747 0.07802
# Poissons Ratio (y) = 0.37490 0.16217
# Poissons Ratio (z) = 0.04750 0.10468
#
# Static dielectric constant tensor:
#      x y z
#    x 1.662890 0.000000 0.034080 
#    y 0.000000 1.700930 0.000000 
#    z 0.034080 0.000000 1.737540 
# 
# From -- ./inp_files/79882.got.cif
#   From: 2010.05.17/outbox.cif.g08.bks.cpg/sg15_40_cif.got.tgz:79882.got - 2010.06.03 18:47:42.
