data_PCOD9274595
_publ_section_title
;
Structure prediction by ZEFSAII (Michael W. Deem and Ramdas Pophale) SiO2 
 PCOD9274595
Probable space group: C 2/C
;
_chemical_formula_sum "Si O2"
_cell_formula_units_Z 48
_cell_length_a 13.643600
_cell_length_b 16.016000
_cell_length_c 26.999610
_cell_angle_alpha 90.000000
_cell_angle_beta 158.945589
_cell_angle_gamma 90.000000
_cell_volume 2119.544706
_symmetry_space_group_name_H-M "C 2/C"
_symmetry_group_IT_number 15
_symmetry_cell_setting 'monoclinic'
loop_
_space_group_symop_operation_xyz
x,y,z
-x,y,1/2-z
-x,-y,-z
x,-y,1/2+z
1/2+x,1/2+y,z
1/2-x,1/2+y,1/2-z
1/2-x,1/2-y,-z
1/2+x,1/2-y,1/2+z
loop_
_atom_site_type_symbol
_atom_site_label
_atom_site_fract_x
_atom_site_fract_y
_atom_site_fract_z
Si Si1 0.410715 0.459747 0.009948
Si Si2 0.931668 0.583203 0.814023
Si Si3 0.286140 0.278835 0.913643
Si Si4 0.263282 0.400512 0.097197
Si Si5 0.692890 0.751547 0.414254
Si Si6 0.310294 0.078372 0.461518
O O1 0.659416 0.456754 0.165223
O O2 0.500000 0.500000 0.000000
O O3 0.326124 0.364112 0.961699
O O4 0.171353 0.519309 0.914551
O O5 0.987469 0.671116 0.812018
O O6 0.969937 0.595859 0.890934
O O7 0.258688 0.193791 0.933166
O O8 0.000000 0.286558 0.750000
O O9 0.537637 0.267973 0.992623
O O10 0.500000 0.398743 0.250000
O O11 0.974448 0.414895 0.988022
O O12 0.304857 0.485590 0.086750
O O13 0.750000 0.750000 0.500000
O O14 0.601910 0.656065 0.361966
#
# Coordination Sequence:
#
# PCOD9274595 Si02
#       6
#     8   8   8   8   8   8
#     4  12  24  40  62  92 125 169 211 258 313 373
#     4  11  24  40  63  93 127 161 215 259 311 375
#     4  10  20  38  64  88 124 163 206 260 319 377
#     4   9  19  38  64  89 122 160 202 254 320 376
#     4   9  19  39  63  88 120 162 209 257 311 367
#     4   9  20  40  61  92 120 164 202 259 310 375
#
# _framework density 22.646373000000001
#
# number of rings (size 3 to 8) (size 9 to 14) (size 15 to 20)
#    0.000    2.000    1.667    1.500    2.333    0.000 
#    9.000    2.500    0.000    0.000    0.000    0.000 
#    0.000    0.000    0.000    0.000    0.000    0.000 
#
# Total GULP energy -133910.726709 kJ/mol
# GULP energy per Si atom -5579.613613 kJ/mol
# Density = 2.259483 g / cm^3
# Si number density = 22.646373 Si / 1000 Ang^3
#
#
#
# Elastic Constant Matrix: (Units=GPa)
#
#
# Indices 1 2 3 4 5 6 
#
# 1 52.7970 26.8191 9.8912 -0.0017 8.2888 0.0009
# 2 26.8191 192.9626 38.7525 0.0072 -0.2983 0.0091
# 3 9.8912 38.7525 79.1978 0.0039 -2.3026 0.0048
# 4 -0.0017 0.0072 0.0039 13.2775 0.0033 -31.4795
# 5 8.2888 -0.2983 -2.3026 0.0033 21.2098 0.0016
# 6 0.0009 0.0091 0.0048 -31.4795 0.0016 -2.3719
#
#
#
# Elastic Compliance Matrix: (Units=1/GPa)
#
#
# Indices 1 2 3 4 5 6 
#
# 1 0.022031 -0.002741 -0.001667 -0.000001 -0.008829 -0.000003
# 2 -0.002741 0.006089 -0.002612 0.000001 0.000873 0.000002
# 3 -0.001667 -0.002612 0.014175 0.000001 0.002154 0.000002
# 4 -0.000001 0.000001 0.000001 0.002320 0.000002 -0.030788
# 5 -0.008829 0.000873 0.002154 0.000002 0.050845 0.000007
# 6 -0.000003 0.000002 0.000002 -0.030788 0.000007 -0.012986
#
#
# Mechanical properties :
#
#
# Convention : Reuss Voigt Hill
#
# Bulk Modulus (GPa) = 35.39037 52.87589 44.13313
# Shear Modulus (GPa) = 47.19979 23.05606 35.12792
#
# Velocity S-wave (km/s) = 4.57027 3.19421 3.94274
# Velocity P-wave (km/s) = 6.59630 6.08303 6.34485
#
# Compressibility (1/GPa) = 0.02825627
#
# Stress axis : x y z
#
# Youngs Moduli (GPa) = 45.39011 164.22597 70.54465
#
# Poissons Ratio (x) = 0.45012 0.11760
# Poissons Ratio (y) = 0.12441 0.18425
# Poissons Ratio (z) = 0.07567 0.42893
#
# Static dielectric constant tensor:
#      x y z
#    x 1.870610 0.000000 -0.019050 
#    y 0.000000 1.906080 0.000000 
#    z -0.019050 0.000000 1.767020 
# 
# From -- ./inp_files/205302.got.cif
#   From: 2010.05.17/outbox.cif.g08.bks.cpg/sg15_103_cif.got.tgz:205302.got - 2010.06.03 18:47:42.
