data_PCOD9274149
_publ_section_title
;
Structure prediction by ZEFSAII (Michael W. Deem and Ramdas Pophale) SiO2 
 PCOD9274149
Probable space group: C 2/C
;
_chemical_formula_sum "Si O2"
_cell_formula_units_Z 52
_cell_length_a 15.290535
_cell_length_b 9.189133
_cell_length_c 24.497381
_cell_angle_alpha 90.000000
_cell_angle_beta 43.513338
_cell_angle_gamma 90.000000
_cell_volume 2369.930398
_symmetry_space_group_name_H-M "C 2/C"
_symmetry_group_IT_number 15
_symmetry_cell_setting 'monoclinic'
loop_
_space_group_symop_operation_xyz
x,y,z
-x,y,1/2-z
-x,-y,-z
x,-y,1/2+z
1/2+x,1/2+y,z
1/2-x,1/2+y,1/2-z
1/2-x,1/2-y,-z
1/2+x,1/2-y,1/2+z
loop_
_atom_site_type_symbol
_atom_site_label
_atom_site_fract_x
_atom_site_fract_y
_atom_site_fract_z
Si Si1 0.514280 0.559428 0.431933
Si Si2 0.194455 0.303204 0.309706
Si Si3 0.125869 0.756216 0.717587
Si Si4 0.497189 0.056095 0.428489
Si Si5 0.860753 0.309746 0.535932
Si Si6 0.000000 0.957795 0.250000
Si Si7 0.510568 0.690360 0.843302
O O1 0.500000 0.500000 0.500000
O O2 0.638913 0.656481 0.362512
O O3 0.405047 0.681364 0.476389
O O4 0.503822 0.430000 0.393781
O O5 0.167654 0.301371 0.256757
O O6 0.114331 0.441457 0.368208
O O7 0.345605 0.303550 0.245008
O O8 0.234200 0.762545 0.623364
O O9 0.000000 0.682488 0.750000
O O10 0.086178 0.925268 0.743229
O O11 0.538176 0.159204 0.460471
O O12 0.479957 0.155784 0.383820
O O13 0.373124 0.961142 0.498277
O O14 0.931697 0.862245 0.326658
#
# Coordination Sequence:
#
# PCOD9274149 Si02
#       7
#     8   8   8   8   8   4   8
#     4  11  20  36  64  99 124 162 221 264 314 385
#     4  11  21  38  66  92 123 174 217 259 309 394
#     4  10  20  41  65  88 124 171 219 257 315 380
#     4  10  21  34  62  94 128 160 213 260 332 371
#     4  10  20  38  61  95 128 163 205 277 317 384
#     4  10  24  40  64  90 134 158 218 266 318 366
#     4  12  21  41  64  95 127 172 217 262 321 389
#
# _framework density 21.941573000000002
#
# number of rings (size 3 to 8) (size 9 to 14) (size 15 to 20)
#    0.462    0.923    4.615    1.846    0.000    0.000 
#    1.385    7.692    3.385    0.000    0.000    0.000 
#    0.000    0.000    0.000    0.000    0.000    0.000 
#
# Total GULP energy -145090.897496 kJ/mol
# GULP energy per Si atom -5580.419134 kJ/mol
# Density = 2.189163 g / cm^3
# Si number density = 21.941573 Si / 1000 Ang^3
#
#
#
# Elastic Constant Matrix: (Units=GPa)
#
#
# Indices 1 2 3 4 5 6 
#
# 1 23.9747 1.9903 4.7874 0.0000 10.4597 0.0000
# 2 1.9903 79.9401 26.6179 0.0000 14.7314 0.0001
# 3 4.7874 26.6179 120.2102 0.0000 3.1528 0.0000
# 4 0.0000 0.0000 0.0000 42.6694 0.0000 17.1115
# 5 10.4597 14.7314 3.1528 0.0000 31.8910 0.0000
# 6 0.0000 0.0001 0.0000 17.1115 0.0000 11.1513
#
#
#
# Elastic Compliance Matrix: (Units=1/GPa)
#
#
# Indices 1 2 3 4 5 6 
#
# 1 0.049425 0.002643 -0.002102 0.000000 -0.017224 0.000000
# 2 0.002643 0.014879 -0.003205 0.000000 -0.007423 0.000000
# 3 -0.002102 -0.003205 0.009079 0.000000 0.001272 0.000000
# 4 0.000000 0.000000 0.000000 0.060930 0.000000 -0.093496
# 5 -0.017224 -0.007423 0.001272 0.000000 0.040309 0.000000
# 6 0.000000 0.000000 0.000000 -0.093496 0.000000 0.233144
#
#
# Mechanical properties :
#
#
# Convention : Reuss Voigt Hill
#
# Bulk Modulus (GPa) = 14.69392 32.32403 23.50897
# Shear Modulus (GPa) = 11.47372 29.85765 20.66569
#
# Velocity S-wave (km/s) = 2.28923 3.69288 3.07229
# Velocity P-wave (km/s) = 3.70119 5.73995 4.82938
#
# Compressibility (1/GPa) = 0.06805538
#
# Stress axis : x y z
#
# Youngs Moduli (GPa) = 20.23251 67.21027 110.14663
#
# Poissons Ratio (x) = -0.17766 0.23153
# Poissons Ratio (y) = -0.05348 0.35304
# Poissons Ratio (z) = 0.04253 0.21542
#
# Static dielectric constant tensor:
#      x y z
#    x 1.854510 0.000000 -0.025410 
#    y 0.000000 1.820580 0.000000 
#    z -0.025410 0.000000 1.834130 
# 
# From -- ./inp_files/298338.got.cif
#   From: 2010.05.17/outbox.cif.g08.bks.cpg/sg15_150_cif.got.tgz:298338.got - 2010.06.03 18:47:42.
