data_PCOD9274582
_publ_section_title
;
Structure prediction by ZEFSAII (Michael W. Deem and Ramdas Pophale) SiO2 
 PCOD9274582
Probable space group: C 2/C
;
_chemical_formula_sum "Si O2"
_cell_formula_units_Z 44
_cell_length_a 21.001419
_cell_length_b 15.925537
_cell_length_c 9.420556
_cell_angle_alpha 90.000000
_cell_angle_beta 39.756104
_cell_angle_gamma 90.000000
_cell_volume 2014.995160
_symmetry_space_group_name_H-M "C 2/C"
_symmetry_group_IT_number 15
_symmetry_cell_setting 'monoclinic'
loop_
_space_group_symop_operation_xyz
x,y,z
-x,y,1/2-z
-x,-y,-z
x,-y,1/2+z
1/2+x,1/2+y,z
1/2-x,1/2+y,1/2-z
1/2-x,1/2-y,-z
1/2+x,1/2-y,1/2+z
loop_
_atom_site_type_symbol
_atom_site_label
_atom_site_fract_x
_atom_site_fract_y
_atom_site_fract_z
Si Si1 0.333312 0.953856 0.644022
Si Si2 0.000000 0.965868 0.250000
Si Si3 0.081812 0.445122 0.723950
Si Si4 0.177014 0.095779 0.995504
Si Si5 0.728835 0.198779 0.892836
Si Si6 0.843876 0.155859 0.155637
O O1 0.424936 0.942847 0.595180
O O2 0.250193 0.883898 0.767173
O O3 0.378149 0.969252 0.412635
O O4 0.272613 0.035290 0.805997
O O5 0.939960 0.902070 0.456090
O O6 0.914906 0.030001 0.341203
O O7 0.172948 0.382032 0.546171
O O8 0.000000 0.417300 0.750000
O O9 0.177132 0.146734 0.141809
O O10 0.180216 0.161614 0.858200
O O11 0.657271 0.251347 0.908581
O O12 0.750000 0.250000 0.000000
#
# Coordination Sequence:
#
# PCOD9274582 Si02
#       6
#     8   4   8   8   8   8
#     4  10  20  38  64  87 117 166 210 259 318 382
#     4  10  24  38  72 104 124 166 232 278 318 394
#     4  11  22  39  61  91 120 160 215 261 312 379
#     4  10  22  41  64  94 128 169 216 266 327 394
#     4  11  24  40  63  89 133 173 207 261 337 392
#     4  11  21  40  65  91 131 167 212 264 332 385
#
# _framework density 21.836279999999999
#
# number of rings (size 3 to 8) (size 9 to 14) (size 15 to 20)
#    0.000    1.455    3.636    1.636    1.273    1.455 
#    0.000    0.000    2.000    0.000    0.000    0.000 
#    0.000    0.000    0.000    0.000    0.000    0.000 
#
# Total GULP energy -122505.553305 kJ/mol
# GULP energy per Si atom -5568.434241 kJ/mol
# Density = 2.178658 g / cm^3
# Si number density = 21.836280 Si / 1000 Ang^3
#
#
#
# Elastic Constant Matrix: (Units=GPa)
#
#
# Indices 1 2 3 4 5 6 
#
# 1 73.5443 -7.7210 25.8982 0.0000 8.9944 0.0000
# 2 -7.7210 36.6998 7.8039 0.0000 7.0323 0.0000
# 3 25.8982 7.8039 66.2612 0.0000 2.3621 0.0000
# 4 0.0000 0.0000 0.0000 21.8139 0.0000 -2.9976
# 5 8.9944 7.0323 2.3621 0.0000 31.0639 0.0000
# 6 0.0000 0.0000 0.0000 -2.9976 0.0000 21.4742
#
#
#
# Elastic Compliance Matrix: (Units=1/GPa)
#
#
# Indices 1 2 3 4 5 6 
#
# 1 0.017623 0.006437 -0.007433 0.000000 -0.005995 0.000000
# 2 0.006437 0.031499 -0.005921 0.000000 -0.008544 0.000000
# 3 -0.007433 -0.005921 0.018620 0.000000 0.002077 0.000000
# 4 0.000000 0.000000 0.000000 0.046739 0.000000 0.006524
# 5 -0.005995 -0.008544 0.002077 0.000000 0.035704 0.000000
# 6 0.000000 0.000000 0.000000 0.006524 0.000000 0.047478
#
#
# Mechanical properties :
#
#
# Convention : Reuss Voigt Hill
#
# Bulk Modulus (GPa) = 18.54985 25.38528 21.96757
# Shear Modulus (GPa) = 21.78972 24.90535 23.34754
#
# Velocity S-wave (km/s) = 3.16233 3.38087 3.27342
# Velocity P-wave (km/s) = 4.67410 5.18564 4.93650
#
# Compressibility (1/GPa) = 0.05390878
#
# Stress axis : x y z
#
# Youngs Moduli (GPa) = 56.74243 31.74750 53.70541
#
# Poissons Ratio (x) = -0.20435 0.39917
# Poissons Ratio (y) = -0.36524 0.31799
# Poissons Ratio (z) = 0.42174 0.18798
#
# Static dielectric constant tensor:
#      x y z
#    x 1.833030 0.000000 0.016390 
#    y 0.000000 1.810810 0.000000 
#    z 0.016390 0.000000 1.860190 
# 
# From -- ./inp_files/39152.got.cif
#   From: 2010.05.17/outbox.cif.g08.bks.cpg/sg15_20_cif.got.tgz:39152.got - 2010.06.03 18:47:42.
