data_PCOD9274490
_publ_section_title
;
Structure prediction by ZEFSAII (Michael W. Deem and Ramdas Pophale) SiO2 
 PCOD9274490
Probable space group: C 2/C
;
_chemical_formula_sum "Si O2"
_cell_formula_units_Z 40
_cell_length_a 11.326432
_cell_length_b 13.867967
_cell_length_c 16.962761
_cell_angle_alpha 90.000000
_cell_angle_beta 46.113928
_cell_angle_gamma 90.000000
_cell_volume 1920.298873
_symmetry_space_group_name_H-M "C 2/C"
_symmetry_group_IT_number 15
_symmetry_cell_setting 'monoclinic'
loop_
_space_group_symop_operation_xyz
x,y,z
-x,y,1/2-z
-x,-y,-z
x,-y,1/2+z
1/2+x,1/2+y,z
1/2-x,1/2+y,1/2-z
1/2-x,1/2-y,-z
1/2+x,1/2-y,1/2+z
loop_
_atom_site_type_symbol
_atom_site_label
_atom_site_fract_x
_atom_site_fract_y
_atom_site_fract_z
Si Si1 0.831444 0.320999 0.852023
Si Si2 0.630898 0.589481 0.933338
Si Si3 0.401319 0.622383 0.906884
Si Si4 0.500000 0.865001 0.250000
Si Si5 0.939894 0.803516 0.653594
Si Si6 0.000000 0.042107 0.250000
O O1 0.873301 0.217889 0.870313
O O2 0.714225 0.301154 0.832877
O O3 0.000000 0.368844 0.750000
O O4 0.737726 0.379627 0.962447
O O5 0.570811 0.631571 0.876952
O O6 0.826764 0.578882 0.838776
O O7 0.500000 0.500000 0.000000
O O8 0.584504 0.659329 0.027985
O O9 0.398403 0.529641 0.852679
O O10 0.520031 0.793089 0.316586
O O11 0.907381 0.886690 0.733542
#
# Coordination Sequence:
#
# PCOD9274490 Si02
#       6
#     8   8   8   4   8   4
#     4  10  20  38  63  93 127 173 220 267 330 395
#     4  11  22  44  67  98 134 173 221 282 324 390
#     4  10  21  37  66  87 126 173 214 272 326 386
#     4  11  24  40  70  95 130 182 218 269 336 404
#     4  10  23  40  65  96 130 171 222 269 329 397
#     4  11  20  40  64  85 126 174 210 275 332 380
#
# _framework density 20.830092
#
# number of rings (size 3 to 8) (size 9 to 14) (size 15 to 20)
#    0.000    1.600    3.000    1.800    0.000    0.000 
#    7.200    1.000    0.000    0.000    0.000    0.000 
#    0.000    0.000    0.000    0.000    0.000    0.000 
#
# Total GULP energy -111590.819731 kJ/mol
# GULP energy per Si atom -5579.540987 kJ/mol
# Density = 2.078268 g / cm^3
# Si number density = 20.830092 Si / 1000 Ang^3
#
#
#
# Elastic Constant Matrix: (Units=GPa)
#
#
# Indices 1 2 3 4 5 6 
#
# 1 154.0528 52.0801 89.9194 0.0000 0.7382 0.0000
# 2 52.0801 95.3223 48.4995 0.0000 -0.1594 0.0000
# 3 89.9194 48.4995 141.0117 0.0000 -22.4982 0.0000
# 4 0.0000 0.0000 0.0000 23.7197 0.0000 3.0783
# 5 0.7382 -0.1594 -22.4982 0.0000 47.6110 0.0000
# 6 0.0000 0.0000 0.0000 3.0783 0.0000 25.5002
#
#
#
# Elastic Compliance Matrix: (Units=1/GPa)
#
#
# Indices 1 2 3 4 5 6 
#
# 1 0.011482 -0.002755 -0.006926 0.000000 -0.003460 0.000000
# 2 -0.002755 0.013592 -0.003141 0.000000 -0.001396 0.000000
# 3 -0.006926 -0.003141 0.013632 0.000000 0.006538 0.000000
# 4 0.000000 0.000000 0.000000 0.042830 0.000000 -0.005170
# 5 -0.003460 -0.001396 0.006538 0.000000 0.024142 0.000000
# 6 0.000000 0.000000 0.000000 -0.005170 0.000000 0.039840
#
#
# Mechanical properties :
#
#
# Convention : Reuss Voigt Hill
#
# Bulk Modulus (GPa) = 76.56101 85.70942 81.13521
# Shear Modulus (GPa) = 28.48762 32.69202 30.58982
#
# Velocity S-wave (km/s) = 3.70214 3.96594 3.83631
# Velocity P-wave (km/s) = 7.42356 7.88719 7.65889
#
# Compressibility (1/GPa) = 0.01306148
#
# Stress axis : x y z
#
# Youngs Moduli (GPa) = 87.09216 73.57525 73.35845
#
# Poissons Ratio (x) = 0.20270 0.50810
# Poissons Ratio (y) = 0.23994 0.23039
# Poissons Ratio (z) = 0.60323 0.23107
#
# Static dielectric constant tensor:
#      x y z
#    x 1.748510 0.000000 0.001510 
#    y 0.000000 1.807410 0.000000 
#    z 0.001510 0.000000 1.797400 
# 
# From -- ./inp_files/85749.got.cif
#   From: 2010.05.17/outbox.cif.g08.bks.cpg/sg15_43_cif.got.tgz:85749.got - 2010.06.03 18:47:42.
