data_PCOD9274120
_publ_section_title
;
Structure prediction by ZEFSAII (Michael W. Deem and Ramdas Pophale) SiO2 
 PCOD9274120
Probable space group: C 2/C
;
_chemical_formula_sum "Si O2"
_cell_formula_units_Z 48
_cell_length_a 14.576740
_cell_length_b 9.886055
_cell_length_c 18.573467
_cell_angle_alpha 90.000000
_cell_angle_beta 120.403369
_cell_angle_gamma 90.000000
_cell_volume 2308.486885
_symmetry_space_group_name_H-M "C 2/C"
_symmetry_group_IT_number 15
_symmetry_cell_setting 'monoclinic'
loop_
_space_group_symop_operation_xyz
x,y,z
-x,y,1/2-z
-x,-y,-z
x,-y,1/2+z
1/2+x,1/2+y,z
1/2-x,1/2+y,1/2-z
1/2-x,1/2-y,-z
1/2+x,1/2-y,1/2+z
loop_
_atom_site_type_symbol
_atom_site_label
_atom_site_fract_x
_atom_site_fract_y
_atom_site_fract_z
Si Si1 0.399879 0.212748 0.253537
Si Si2 0.013132 0.698756 0.449088
Si Si3 0.044300 0.599791 0.930826
Si Si4 0.172091 0.579616 0.839906
Si Si5 0.170471 0.279526 0.192353
Si Si6 0.113000 0.067742 0.058800
O O1 0.500000 0.269526 0.250000
O O2 0.439032 0.218215 0.351128
O O3 0.287759 0.289407 0.205272
O O4 0.378450 0.059797 0.214406
O O5 0.941003 0.690406 0.492639
O O6 0.067886 0.554048 0.459705
O O7 0.105023 0.807741 0.499824
O O8 0.103734 0.630389 0.880480
O O9 0.917337 0.613717 0.868297
O O10 0.177857 0.692457 0.780083
O O11 0.288376 0.531313 0.911042
O O12 0.126565 0.136816 0.143451
O O13 0.000000 0.000000 0.000000
#
# Coordination Sequence:
#
# PCOD9274120 Si02
#       6
#     8   8   8   8   8   8
#     4  11  20  37  62  93 125 164 212 266 321 375
#     4  10  20  38  61  91 130 158 214 266 313 381
#     4  10  20  38  63  96 121 163 219 259 316 384
#     4  11  20  40  67  92 125 170 214 259 324 382
#     4  10  21  37  64  92 125 167 210 260 315 383
#     4  10  23  40  60  94 135 167 204 269 325 368
#
# _framework density 20.792840999999999
#
# number of rings (size 3 to 8) (size 9 to 14) (size 15 to 20)
#    0.000    1.667    3.333    1.500    0.000    0.667 
#    6.000    9.167    0.000   24.000    0.000    0.000 
#    0.000    0.000    0.000    0.000    0.000    0.000 
#
# Total GULP energy -133779.145685 kJ/mol
# GULP energy per Si atom -5574.131070 kJ/mol
# Density = 2.074552 g / cm^3
# Si number density = 20.792841 Si / 1000 Ang^3
#
#
#
# Elastic Constant Matrix: (Units=GPa)
#
#
# Indices 1 2 3 4 5 6 
#
# 1 149.8809 34.6253 84.0071 0.0000 -0.1150 0.0000
# 2 34.6253 36.8134 25.2020 0.0000 3.6819 0.0000
# 3 84.0071 25.2020 132.9200 0.0000 5.9813 0.0000
# 4 0.0000 0.0000 0.0000 36.3889 0.0000 8.4974
# 5 -0.1150 3.6819 5.9813 0.0000 35.6166 0.0000
# 6 0.0000 0.0000 0.0000 8.4974 0.0000 22.6468
#
#
#
# Elastic Compliance Matrix: (Units=1/GPa)
#
#
# Indices 1 2 3 4 5 6 
#
# 1 0.011758 -0.007006 -0.006184 0.000000 0.001801 0.000000
# 2 -0.007006 0.035570 -0.002166 0.000000 -0.003336 0.000000
# 3 -0.006184 -0.002166 0.011923 0.000000 -0.001798 0.000000
# 4 0.000000 0.000000 0.000000 0.030120 0.000000 -0.011301
# 5 0.001801 -0.003336 -0.001798 0.000000 0.028729 0.000000
# 6 0.000000 0.000000 0.000000 -0.011301 0.000000 0.048397
#
#
# Mechanical properties :
#
#
# Convention : Reuss Voigt Hill
#
# Bulk Modulus (GPa) = 35.03942 67.47592 51.25767
# Shear Modulus (GPa) = 24.18709 30.64912 27.41811
#
# Velocity S-wave (km/s) = 3.41433 3.84347 3.63524
# Velocity P-wave (km/s) = 5.69489 7.22622 6.50577
#
# Compressibility (1/GPa) = 0.02853928
#
# Stress axis : x y z
#
# Youngs Moduli (GPa) = 85.05041 28.11363 83.86988
#
# Poissons Ratio (x) = 0.19695 0.51863
# Poissons Ratio (y) = 0.59583 0.18170
# Poissons Ratio (z) = 0.52593 0.06091
#
# Static dielectric constant tensor:
#      x y z
#    x 1.751810 0.000000 -0.000330 
#    y 0.000000 1.810240 0.000000 
#    z -0.000330 0.000000 1.794680 
# 
# From -- ./inp_files/196601.got.cif
#   From: 2010.05.17/outbox.cif.g08.bks.cpg/sg15_99_cif.got.tgz:196601.got - 2010.06.03 18:47:42.
