data_PCOD9274936
_publ_section_title
;
Structure prediction by ZEFSAII (Michael W. Deem and Ramdas Pophale) SiO2 
 PCOD9274936
Probable space group: C 2/C
;
_chemical_formula_sum "Si O2"
_cell_formula_units_Z 60
_cell_length_a 20.279618
_cell_length_b 16.706479
_cell_length_c 9.339909
_cell_angle_alpha 90.000000
_cell_angle_beta 122.393853
_cell_angle_gamma 90.000000
_cell_volume 2671.948377
_symmetry_space_group_name_H-M "C 2/C"
_symmetry_group_IT_number 15
_symmetry_cell_setting 'monoclinic'
loop_
_space_group_symop_operation_xyz
x,y,z
-x,y,1/2-z
-x,-y,-z
x,-y,1/2+z
1/2+x,1/2+y,z
1/2-x,1/2+y,1/2-z
1/2-x,1/2-y,-z
1/2+x,1/2-y,1/2+z
loop_
_atom_site_type_symbol
_atom_site_label
_atom_site_fract_x
_atom_site_fract_y
_atom_site_fract_z
Si Si1 0.579780 0.545530 0.614222
Si Si2 0.310669 0.105255 0.746581
Si Si3 0.677422 0.491379 0.971113
Si Si4 0.910391 0.326592 0.117062
Si Si5 0.000000 0.163354 0.750000
Si Si6 0.341214 0.680052 0.502024
Si Si7 0.441245 0.990246 0.561646
Si Si8 0.799926 0.763811 0.268839
O O1 0.500000 0.500000 0.500000
O O2 0.616451 0.557370 0.500410
O O3 0.550960 0.614458 0.690755
O O4 0.643977 0.492197 0.772135
O O5 0.359948 0.164782 0.703263
O O6 0.240108 0.152162 0.739112
O O7 0.264403 0.040548 0.595780
O O8 0.368599 0.063346 0.926699
O O9 0.671416 0.584814 0.004582
O O10 0.915030 0.419765 0.071670
O O11 0.000000 0.301226 0.250000
O O12 0.865896 0.270627 0.950605
O O13 0.068689 0.202511 0.922840
O O14 0.275248 0.706810 0.315878
O O15 0.326527 0.725929 0.635862
O O16 0.500000 0.955836 0.750000
O O17 0.500000 0.000000 0.500000
#
# Coordination Sequence:
#
# PCOD9274936 Si02
#       8
#     8   8   8   8   4   8   8   8
#     4  11  19  37  59  97 133 167 217 277 333 397
#     4  12  25  43  69 106 137 181 240 282 370 417
#     4  11  24  38  69  98 133 177 228 295 334 413
#     4  11  25  47  70 100 144 185 233 297 352 426
#     4  10  20  38  66  94 134 168 226 264 336 406
#     4  10  23  43  66  96 134 183 227 283 344 409
#     4  11  23  44  74 107 137 180 237 307 351 406
#     4  11  26  45  65  99 142 182 229 283 356 430
#
# _framework density 22.455524
#
# number of rings (size 3 to 8) (size 9 to 14) (size 15 to 20)
#    0.000    1.067    5.333    2.800    5.600    3.200 
#    1.200    4.000    0.000    0.000    0.000    0.000 
#    0.000    0.000    0.000    0.000    0.000    0.000 
#
# Total GULP energy -167303.004360 kJ/mol
# GULP energy per Si atom -5576.766812 kJ/mol
# Density = 2.240441 g / cm^3
# Si number density = 22.455524 Si / 1000 Ang^3
#
#
#
# Elastic Constant Matrix: (Units=GPa)
#
#
# Indices 1 2 3 4 5 6 
#
# 1 65.3700 7.8003 37.4501 0.0000 29.6063 0.0000
# 2 7.8003 44.7118 29.0798 0.0000 30.6374 0.0000
# 3 37.4501 29.0798 147.8024 0.0000 51.4450 0.0000
# 4 0.0000 0.0000 0.0000 41.6604 0.0000 10.1886
# 5 29.6063 30.6374 51.4450 0.0000 61.8920 0.0000
# 6 0.0000 0.0000 0.0000 10.1886 0.0000 27.9028
#
#
#
# Elastic Compliance Matrix: (Units=1/GPa)
#
#
# Indices 1 2 3 4 5 6 
#
# 1 0.020908 0.005186 -0.002734 0.000000 -0.010296 0.000000
# 2 0.005186 0.035275 -0.001848 0.000000 -0.018406 0.000000
# 3 -0.002734 -0.001848 0.009918 0.000000 -0.006021 0.000000
# 4 0.000000 0.000000 0.000000 0.026357 0.000000 -0.009624
# 5 -0.010296 -0.018406 -0.006021 0.000000 0.035198 0.000000
# 6 0.000000 0.000000 0.000000 -0.009624 0.000000 0.039353
#
#
# Mechanical properties :
#
#
# Convention : Reuss Voigt Hill
#
# Bulk Modulus (GPa) = 14.85704 45.17163 30.01433
# Shear Modulus (GPa) = 26.56206 38.52797 32.54502
#
# Velocity S-wave (km/s) = 3.44302 4.14665 3.81111
# Velocity P-wave (km/s) = 4.73671 6.56399 5.72374
#
# Compressibility (1/GPa) = 0.06730817
#
# Stress axis : x y z
#
# Youngs Moduli (GPa) = 47.82806 28.34889 100.82742
#
# Poissons Ratio (x) = -0.14701 0.27570
# Poissons Ratio (y) = -0.24802 0.18628
# Poissons Ratio (z) = 0.13078 0.05238
#
# Static dielectric constant tensor:
#      x y z
#    x 1.865430 0.000000 -0.047600 
#    y 0.000000 1.958340 0.000000 
#    z -0.047600 0.000000 2.058730 
# 
# From -- ./inp_files/57029.got.cif
#   From: 2010.05.17/outbox.cif.g08.bks.cpg/sg15_29_cif.got.tgz:57029.got - 2010.06.03 18:47:42.
