data_PCOD9274707
_publ_section_title
;
Structure prediction by ZEFSAII (Michael W. Deem and Ramdas Pophale) SiO2 
 PCOD9274707
Probable space group: C 2/C
;
_chemical_formula_sum "Si O2"
_cell_formula_units_Z 48
_cell_length_a 9.456489
_cell_length_b 15.873848
_cell_length_c 22.406233
_cell_angle_alpha 90.000000
_cell_angle_beta 43.429121
_cell_angle_gamma 90.000000
_cell_volume 2312.205030
_symmetry_space_group_name_H-M "C 2/C"
_symmetry_group_IT_number 15
_symmetry_cell_setting 'monoclinic'
loop_
_space_group_symop_operation_xyz
x,y,z
-x,y,1/2-z
-x,-y,-z
x,-y,1/2+z
1/2+x,1/2+y,z
1/2-x,1/2+y,1/2-z
1/2-x,1/2-y,-z
1/2+x,1/2-y,1/2+z
loop_
_atom_site_type_symbol
_atom_site_label
_atom_site_fract_x
_atom_site_fract_y
_atom_site_fract_z
Si Si1 0.666371 0.177044 0.751969
Si Si2 0.592325 0.767553 0.995339
Si Si3 0.922371 0.176054 0.948441
Si Si4 0.192999 0.003777 0.061635
Si Si5 0.036881 0.147055 0.170946
Si Si6 0.892473 0.584814 0.610210
O O1 0.500000 0.158559 0.750000
O O2 0.594034 0.268208 0.799256
O O3 0.662195 0.106258 0.805006
O O4 0.892191 0.187788 0.655436
O O5 0.522657 0.684984 0.983022
O O6 0.725551 0.822680 0.907774
O O7 0.750000 0.750000 0.000000
O O8 0.403898 0.823735 0.074983
O O9 0.847555 0.082226 0.959897
O O10 0.750000 0.250000 0.000000
O O11 0.258718 0.975108 0.108881
O O12 0.016703 0.072553 0.129155
O O13 0.377575 0.049153 0.969661
O O14 0.000000 0.120228 0.250000
#
# Coordination Sequence:
#
# PCOD9274707 Si02
#       6
#     8   8   8   8   8   8
#     4  11  22  42  71  94 131 187 232 275 339 439
#     4  11  19  39  68  89 128 181 222 265 349 421
#     4  12  24  42  64 104 137 172 223 291 348 391
#     4  10  24  38  66 102 133 173 222 302 339 402
#     4  10  20  38  64  95 124 177 229 267 334 422
#     4  10  21  41  66  96 135 178 227 276 355 411
#
# _framework density 20.759405000000001
#
# number of rings (size 3 to 8) (size 9 to 14) (size 15 to 20)
#    0.000    1.333    6.667    0.000    2.333    0.000 
#    0.000    7.500    0.000    0.000    0.000    0.000 
#    0.000    0.000    0.000    0.000    0.000    0.000 
#
# Total GULP energy -133830.340276 kJ/mol
# GULP energy per Si atom -5576.264178 kJ/mol
# Density = 2.071216 g / cm^3
# Si number density = 20.759405 Si / 1000 Ang^3
#
#
#
# Elastic Constant Matrix: (Units=GPa)
#
#
# Indices 1 2 3 4 5 6 
#
# 1 67.6529 37.7168 39.8771 -0.0001 17.0423 0.0003
# 2 37.7168 102.4197 37.6578 -0.0001 17.0994 0.0002
# 3 39.8771 37.6578 119.1377 -0.0004 8.8297 0.0007
# 4 -0.0001 -0.0001 -0.0004 39.6095 0.0000 10.5459
# 5 17.0423 17.0994 8.8297 0.0000 26.3638 -0.0002
# 6 0.0003 0.0002 0.0007 10.5459 -0.0002 35.6645
#
#
#
# Elastic Compliance Matrix: (Units=1/GPa)
#
#
# Indices 1 2 3 4 5 6 
#
# 1 0.023270 -0.004869 -0.005506 0.000000 -0.010041 0.000000
# 2 -0.004869 0.013132 -0.002177 0.000000 -0.004641 0.000000
# 3 -0.005506 -0.002177 0.010825 0.000000 0.001346 0.000000
# 4 0.000000 0.000000 0.000000 0.027404 0.000000 -0.008103
# 5 -0.010041 -0.004641 0.001346 0.000000 0.046981 0.000000
# 6 0.000000 0.000000 0.000000 -0.008103 0.000000 0.030435
#
#
# Mechanical properties :
#
#
# Convention : Reuss Voigt Hill
#
# Bulk Modulus (GPa) = 45.20033 57.74596 51.47315
# Shear Modulus (GPa) = 27.09651 31.92478 29.51064
#
# Velocity S-wave (km/s) = 3.61676 3.92579 3.77444
# Velocity P-wave (km/s) = 6.26594 6.95890 6.62149
#
# Compressibility (1/GPa) = 0.02212373
#
# Stress axis : x y z
#
# Youngs Moduli (GPa) = 42.97317 76.14958 92.37881
#
# Poissons Ratio (x) = 0.37075 0.50862
# Poissons Ratio (y) = 0.20922 0.20113
# Poissons Ratio (z) = 0.23660 0.16580
#
# Static dielectric constant tensor:
#      x y z
#    x 1.801320 0.000000 0.012140 
#    y 0.000000 1.784970 0.000000 
#    z 0.012140 0.000000 1.773510 
# 
# From -- ./inp_files/232490.got.cif
#   From: 2010.05.17/outbox.cif.g08.bks.cpg/sg15_117_cif.got.tgz:232490.got - 2010.06.03 18:47:42.
