data_PCOD9274301
_publ_section_title
;
Structure prediction by ZEFSAII (Michael W. Deem and Ramdas Pophale) SiO2 
 PCOD9274301
Probable space group: C 2/C
;
_chemical_formula_sum "Si O2"
_cell_formula_units_Z 56
_cell_length_a 15.309340
_cell_length_b 18.008983
_cell_length_c 17.800097
_cell_angle_alpha 90.000000
_cell_angle_beta 34.584778
_cell_angle_gamma 90.000000
_cell_volume 2785.669378
_symmetry_space_group_name_H-M "C 2/C"
_symmetry_group_IT_number 15
_symmetry_cell_setting 'monoclinic'
loop_
_space_group_symop_operation_xyz
x,y,z
-x,y,1/2-z
-x,-y,-z
x,-y,1/2+z
1/2+x,1/2+y,z
1/2-x,1/2+y,1/2-z
1/2-x,1/2-y,-z
1/2+x,1/2-y,1/2+z
loop_
_atom_site_type_symbol
_atom_site_label
_atom_site_fract_x
_atom_site_fract_y
_atom_site_fract_z
Si Si1 0.635075 0.027884 0.016095
Si Si2 0.120728 0.856832 0.832790
Si Si3 0.591355 0.457815 0.607286
Si Si4 0.303929 0.001595 0.198673
Si Si5 0.031494 0.911232 0.410337
Si Si6 0.798593 0.767009 0.271644
Si Si7 0.627708 0.802388 0.543781
O O1 0.460501 0.002398 0.132443
O O2 0.684951 0.033568 0.892505
O O3 0.651742 0.109891 0.039292
O O4 0.733522 0.968180 0.992200
O O5 0.197393 0.776006 0.780439
O O6 0.973937 0.884323 0.888047
O O7 0.253898 0.914488 0.716718
O O8 0.076102 0.877992 0.949734
O O9 0.500000 0.463463 0.750000
O O10 0.549319 0.531024 0.588478
O O11 0.172138 0.961846 0.340336
O O12 0.115649 0.841922 0.312776
O O13 0.677516 0.785361 0.422820
O O14 0.948375 0.716570 0.187034
O O15 0.750000 0.750000 0.500000
#
# Coordination Sequence:
#
# PCOD9274301 Si02
#       7
#     8   8   8   8   8   8   8
#     4  11  21  36  65  95 119 161 206 262 308 375
#     4  11  23  40  60  92 124 170 207 255 317 378
#     4  11  20  39  64  92 124 159 211 260 316 374
#     4  10  20  38  62  91 120 160 215 251 312 368
#     4  11  22  41  62  88 127 166 212 255 315 382
#     4  12  23  41  61  89 129 171 207 252 317 387
#     4  12  24  40  61  96 135 162 205 258 324 384
#
# _framework density 20.102886999999999
#
# number of rings (size 3 to 8) (size 9 to 14) (size 15 to 20)
#    0.000    0.857    7.143    3.000    0.000    0.000 
#    0.000    2.857    0.000    3.429    0.000    0.000 
#    0.000    0.000    0.000    0.000    0.000    0.000 
#
# Total GULP energy -156114.233552 kJ/mol
# GULP energy per Si atom -5575.508341 kJ/mol
# Density = 2.005713 g / cm^3
# Si number density = 20.102887 Si / 1000 Ang^3
#
#
#
# Elastic Constant Matrix: (Units=GPa)
#
#
# Indices 1 2 3 4 5 6 
#
# 1 88.4719 18.4270 -4.4812 -0.0009 -28.4333 0.0005
# 2 18.4270 44.8158 -14.2139 -0.0012 -1.8499 0.0008
# 3 -4.4812 -14.2139 31.9715 -0.0025 -5.8086 0.0013
# 4 -0.0009 -0.0012 -0.0025 19.5760 0.0013 6.0050
# 5 -28.4333 -1.8499 -5.8086 0.0013 39.0936 -0.0008
# 6 0.0005 0.0008 0.0013 6.0050 -0.0008 27.2646
#
#
#
# Elastic Compliance Matrix: (Units=1/GPa)
#
#
# Indices 1 2 3 4 5 6 
#
# 1 0.016424 -0.005633 0.001973 0.000000 0.011972 0.000000
# 2 -0.005633 0.028262 0.011586 0.000004 -0.001038 -0.000002
# 3 0.001973 0.011586 0.038094 0.000006 0.007643 -0.000003
# 4 0.000000 0.000004 0.000006 0.054784 -0.000001 -0.012066
# 5 0.011972 -0.001038 0.007643 -0.000001 0.035373 0.000001
# 6 0.000000 -0.000002 -0.000003 -0.012066 0.000001 0.039335
#
#
# Mechanical properties :
#
#
# Convention : Reuss Voigt Hill
#
# Bulk Modulus (GPa) = 10.13879 18.30257 14.22068
# Shear Modulus (GPa) = 21.80574 28.22199 25.01386
#
# Velocity S-wave (km/s) = 3.29706 3.75090 3.53128
# Velocity P-wave (km/s) = 4.42137 5.28046 4.86990
#
# Compressibility (1/GPa) = 0.09863113
#
# Stress axis : x y z
#
# Youngs Moduli (GPa) = 60.88760 35.38360 26.25084
#
# Poissons Ratio (x) = 0.19932 -0.05178
# Poissons Ratio (y) = 0.34299 -0.30415
# Poissons Ratio (z) = -0.12011 -0.40997
#
# Static dielectric constant tensor:
#      x y z
#    x 1.770450 0.000000 0.019040 
#    y 0.000000 1.779130 0.000000 
#    z 0.019040 0.000000 1.765190 
# 
# From -- ./inp_files/206242.got.cif
#   From: 2010.05.17/outbox.cif.g08.bks.cpg/sg15_104_cif.got.tgz:206242.got - 2010.06.03 18:47:42.
