data_PCOD9274378
_publ_section_title
;
Structure prediction by ZEFSAII (Michael W. Deem and Ramdas Pophale) SiO2 
 PCOD9274378
Probable space group: C 2/C
;
_chemical_formula_sum "Si O2"
_cell_formula_units_Z 40
_cell_length_a 22.387068
_cell_length_b 5.150081
_cell_length_c 14.062920
_cell_angle_alpha 90.000000
_cell_angle_beta 70.758043
_cell_angle_gamma 90.000000
_cell_volume 1530.809033
_symmetry_space_group_name_H-M "C 2/C"
_symmetry_group_IT_number 15
_symmetry_cell_setting 'monoclinic'
loop_
_space_group_symop_operation_xyz
x,y,z
-x,y,1/2-z
-x,-y,-z
x,-y,1/2+z
1/2+x,1/2+y,z
1/2-x,1/2+y,1/2-z
1/2-x,1/2-y,-z
1/2+x,1/2-y,1/2+z
loop_
_atom_site_type_symbol
_atom_site_label
_atom_site_fract_x
_atom_site_fract_y
_atom_site_fract_z
Si Si1 0.621956 0.446982 0.693662
Si Si2 0.789063 0.609443 0.713824
Si Si3 0.560667 0.555335 0.405780
Si Si4 0.642473 0.746626 0.505576
Si Si5 0.525793 0.934668 0.142414
O O1 0.663591 0.235751 0.731140
O O2 0.584306 0.586807 0.798843
O O3 0.660214 0.622646 0.597636
O O4 0.567344 0.307758 0.660064
O O5 0.766410 0.325675 0.756086
O O6 0.813730 0.597656 0.591143
O O7 0.500000 0.500000 0.500000
O O8 0.619394 0.525146 0.445242
O O9 0.536079 0.835681 0.380124
O O10 0.577500 0.900706 0.560222
O O11 0.500000 0.069583 0.250000
#
# Coordination Sequence:
#
# PCOD9274378 Si02
#       5
#     8   8   8   8   8
#     4  10  24  42  65 103 132 178 237 280 339 426
#     4  11  29  51  72  99 136 180 239 306 354 391
#     4  10  20  38  62  98 145 179 215 271 342 417
#     4  11  24  41  71  97 135 184 227 283 341 424
#     4  10  22  38  64 103 143 177 222 271 343 425
#
# _framework density 26.129971999999999
#
# number of rings (size 3 to 8) (size 9 to 14) (size 15 to 20)
#    0.000    1.600    2.000    0.600    8.400    1.600 
#    0.000    0.000    0.000    0.000    0.000    0.000 
#    0.000    0.000    0.000    0.000    0.000    0.000 
#
# Total GULP energy -111523.614850 kJ/mol
# GULP energy per Si atom -5576.180743 kJ/mol
# Density = 2.607050 g / cm^3
# Si number density = 26.129972 Si / 1000 Ang^3
#
#
#
# Elastic Constant Matrix: (Units=GPa)
#
#
# Indices 1 2 3 4 5 6 
#
# 1 81.4483 9.7340 27.9549 0.0000 13.2565 0.0000
# 2 9.7340 55.1553 53.5786 0.0000 -0.2330 0.0000
# 3 27.9549 53.5786 242.0023 0.0000 -4.2886 0.0000
# 4 0.0000 0.0000 0.0000 37.3381 0.0000 -8.1973
# 5 13.2565 -0.2330 -4.2886 0.0000 46.1384 0.0000
# 6 0.0000 0.0000 0.0000 -8.1973 0.0000 45.4224
#
#
#
# Elastic Compliance Matrix: (Units=1/GPa)
#
#
# Indices 1 2 3 4 5 6 
#
# 1 0.013540 -0.001042 -0.001405 0.000000 -0.004026 0.000000
# 2 -0.001042 0.023184 -0.005013 0.000000 -0.000050 0.000000
# 3 -0.001405 -0.005013 0.005420 0.000000 0.000882 0.000000
# 4 0.000000 0.000000 0.000000 0.027887 0.000000 0.005033
# 5 -0.004026 -0.000050 0.000882 0.000000 0.022912 0.000000
# 6 0.000000 0.000000 0.000000 0.005033 0.000000 0.022924
#
#
# Mechanical properties :
#
#
# Convention : Reuss Voigt Hill
#
# Bulk Modulus (GPa) = 36.73253 62.34899 49.54076
# Shear Modulus (GPa) = 35.74939 44.93568 40.34254
#
# Velocity S-wave (km/s) = 3.70285 4.15142 3.93354
# Velocity P-wave (km/s) = 5.68943 6.84777 6.29530
#
# Compressibility (1/GPa) = 0.02722383
#
# Stress axis : x y z
#
# Youngs Moduli (GPa) = 73.85719 43.13234 184.49989
#
# Poissons Ratio (x) = 0.04494 0.25916
# Poissons Ratio (y) = 0.07696 0.92499
# Poissons Ratio (z) = 0.10375 0.21624
#
# Static dielectric constant tensor:
#      x y z
#    x 1.987800 0.000000 -0.027840 
#    y 0.000000 2.205460 0.000000 
#    z -0.027840 0.000000 2.095230 
# 
# From -- ./inp_files/170725.got.cif
#   From: 2010.05.17/outbox.cif.g08.bks.cpg/sg15_86_cif.got.tgz:170725.got - 2010.06.03 18:47:42.
