data_PCOD9274174
_publ_section_title
;
Structure prediction by ZEFSAII (Michael W. Deem and Ramdas Pophale) SiO2 
 PCOD9274174
Probable space group: C 2/C
;
_chemical_formula_sum "Si O2"
_cell_formula_units_Z 56
_cell_length_a 7.845676
_cell_length_b 16.794888
_cell_length_c 26.508228
_cell_angle_alpha 90.000000
_cell_angle_beta 43.836290
_cell_angle_gamma 90.000000
_cell_volume 2419.194469
_symmetry_space_group_name_H-M "C 2/C"
_symmetry_group_IT_number 15
_symmetry_cell_setting 'monoclinic'
loop_
_space_group_symop_operation_xyz
x,y,z
-x,y,1/2-z
-x,-y,-z
x,-y,1/2+z
1/2+x,1/2+y,z
1/2-x,1/2+y,1/2-z
1/2-x,1/2-y,-z
1/2+x,1/2-y,1/2+z
loop_
_atom_site_type_symbol
_atom_site_label
_atom_site_fract_x
_atom_site_fract_y
_atom_site_fract_z
Si Si1 0.726993 0.353582 0.957181
Si Si2 0.872640 0.294292 0.548733
Si Si3 0.529948 0.203271 0.687607
Si Si4 0.966144 0.926331 0.100081
Si Si5 0.623267 0.068887 0.176484
Si Si6 0.784636 0.441545 0.196387
Si Si7 0.453781 0.927923 0.048971
O O1 0.811174 0.377055 0.884330
O O2 0.964687 0.331658 0.940386
O O3 0.537962 0.280276 0.996441
O O4 0.588139 0.422588 0.018534
O O5 0.618060 0.265506 0.626905
O O6 0.861494 0.358070 0.506403
O O7 0.500000 0.238095 0.750000
O O8 0.753443 0.139424 0.645677
O O9 0.313384 0.146588 0.713893
O O10 0.178170 0.900093 0.093117
O O11 0.858739 0.012221 0.136426
O O12 0.500000 0.112124 0.250000
O O13 0.415522 0.005005 0.204246
O O14 0.500000 0.460815 0.250000
O O15 0.937946 0.446023 0.111182
O O16 0.500000 0.000000 0.000000
#
# Coordination Sequence:
#
# PCOD9274174 Si02
#       7
#     8   8   8   8   8   8   8
#     4   9  18  35  60  85 114 153 193 242 293 343
#     4   9  20  38  59  84 115 150 195 241 292 356
#     4  10  20  38  62  84 114 159 198 235 292 355
#     4   9  18  36  60  86 115 153 199 237 288 356
#     4  11  21  36  60  90 120 153 199 246 293 349
#     4  11  22  37  59  88 123 160 199 242 290 349
#     4  11  22  38  61  88 117 150 194 250 304 349
#
# _framework density 23.148202000000001
#
# number of rings (size 3 to 8) (size 9 to 14) (size 15 to 20)
#    0.000    2.000    0.000    6.429    0.000    2.857 
#    0.000    6.429    0.000    0.000    0.000    0.000 
#    0.000    0.000    0.000    0.000    0.000    0.000 
#
# Total GULP energy -156619.145692 kJ/mol
# GULP energy per Si atom -5593.540918 kJ/mol
# Density = 2.309552 g / cm^3
# Si number density = 23.148202 Si / 1000 Ang^3
#
#
#
# Elastic Constant Matrix: (Units=GPa)
#
#
# Indices 1 2 3 4 5 6 
#
# 1 33.5166 -11.1879 10.7507 -0.0026 -1.4760 -0.0003
# 2 -11.1879 31.5156 29.1598 0.0001 10.7062 0.0003
# 3 10.7507 29.1598 149.1798 0.0059 38.7624 -0.0033
# 4 -0.0026 0.0001 0.0059 15.7191 -0.0004 6.4713
# 5 -1.4760 10.7062 38.7624 -0.0004 44.2707 0.0015
# 6 -0.0003 0.0003 -0.0033 6.4713 0.0015 14.2271
#
#
#
# Elastic Compliance Matrix: (Units=1/GPa)
#
#
# Indices 1 2 3 4 5 6 
#
# 1 0.038923 0.019666 -0.007444 0.000012 0.003060 -0.000007
# 2 0.019666 0.049106 -0.010486 0.000010 -0.002039 -0.000007
# 3 -0.007444 -0.010486 0.011256 -0.000009 -0.007568 0.000007
# 4 0.000012 0.000010 -0.000009 0.078275 0.000007 -0.035604
# 5 0.003060 -0.002039 -0.007568 0.000007 0.029809 -0.000008
# 6 -0.000007 -0.000007 0.000007 -0.035604 -0.000008 0.086483
#
#
# Mechanical properties :
#
#
# Convention : Reuss Voigt Hill
#
# Bulk Modulus (GPa) = 9.73179 30.18412 19.95795
# Shear Modulus (GPa) = 15.40200 27.20934 21.30567
#
# Velocity S-wave (km/s) = 2.58226 3.43219 3.03711
# Velocity P-wave (km/s) = 3.61995 5.36418 4.57594
#
# Compressibility (1/GPa) = 0.10275603
#
# Stress axis : x y z
#
# Youngs Moduli (GPa) = 25.69184 20.36391 88.84299
#
# Poissons Ratio (x) = -0.40047 0.66134
# Poissons Ratio (y) = -0.50525 0.93163
# Poissons Ratio (z) = 0.19125 0.21354
#
# Static dielectric constant tensor:
#      x y z
#    x 1.871850 0.000000 0.003200 
#    y 0.000000 1.880390 0.000000 
#    z 0.003200 0.000000 1.891190 
# 
# From -- ./inp_files/289670.got.cif
#   From: 2010.05.17/outbox.cif.g08.bks.cpg/sg15_145_cif.got.tgz:289670.got - 2010.06.03 18:47:42.
