data_PCOD9274054
_publ_section_title
;
Structure prediction by ZEFSAII (Michael W. Deem and Ramdas Pophale) SiO2 
 PCOD9274054
Probable space group: C 2/C
;
_chemical_formula_sum "Si O2"
_cell_formula_units_Z 60
_cell_length_a 7.846293
_cell_length_b 26.999800
_cell_length_c 17.965545
_cell_angle_alpha 90.000000
_cell_angle_beta 51.106320
_cell_angle_gamma 90.000000
_cell_volume 2962.234401
_symmetry_space_group_name_H-M "C 2/C"
_symmetry_group_IT_number 15
_symmetry_cell_setting 'monoclinic'
loop_
_space_group_symop_operation_xyz
x,y,z
-x,y,1/2-z
-x,-y,-z
x,-y,1/2+z
1/2+x,1/2+y,z
1/2-x,1/2+y,1/2-z
1/2-x,1/2-y,-z
1/2+x,1/2-y,1/2+z
loop_
_atom_site_type_symbol
_atom_site_label
_atom_site_fract_x
_atom_site_fract_y
_atom_site_fract_z
Si Si1 0.695290 0.496199 0.552406
Si Si2 0.016504 0.685316 0.589535
Si Si3 0.708779 0.750987 0.238725
Si Si4 0.776421 0.469683 0.861694
Si Si5 0.000000 0.312863 0.750000
Si Si6 0.024688 0.226512 0.975866
Si Si7 0.291447 0.866957 0.927075
Si Si8 0.966717 0.416357 0.026927
O O1 0.433263 0.494535 0.620375
O O2 0.787103 0.506120 0.442238
O O3 0.791220 0.538710 0.580332
O O4 0.803644 0.444490 0.546414
O O5 0.960061 0.722833 0.536537
O O6 0.260780 0.702806 0.543870
O O7 0.871491 0.698651 0.701106
O O8 0.993161 0.627652 0.578388
O O9 0.500000 0.730346 0.250000
O O10 0.790539 0.719701 0.286759
O O11 0.902876 0.758583 0.127271
O O12 0.704695 0.413163 0.901978
O O13 0.000000 0.471462 0.750000
O O14 0.011692 0.346800 0.675546
O O15 0.859124 0.180748 0.019920
O O16 0.381013 0.888302 0.978088
#
# Coordination Sequence:
#
# PCOD9274054 Si02
#       8
#     8   8   8   8   4   8   8   8
#     4   9  21  42  63  90 125 159 206 273 325 380
#     4  10  20  38  61  86 122 170 209 259 309 379
#     4  10  23  39  57  88 128 168 216 255 308 377
#     4  10  20  41  69  90 120 163 209 263 324 388
#     4  12  22  38  60  90 128 166 208 264 300 382
#     4  10  21  38  60  87 130 170 205 258 316 364
#     4  11  22  37  61  94 121 164 209 249 320 381
#     4  10  21  39  62  89 125 166 209 259 330 380
#
# _framework density 20.254981999999998
#
# number of rings (size 3 to 8) (size 9 to 14) (size 15 to 20)
#    0.000    1.867    2.000    1.600    1.867    1.067 
#    2.400   13.333    0.000    0.000    0.000    0.000 
#    0.000    0.000    0.000    0.000    0.000    0.000 
#
# Total GULP energy -167087.124540 kJ/mol
# GULP energy per Si atom -5569.570818 kJ/mol
# Density = 2.020888 g / cm^3
# Si number density = 20.254982 Si / 1000 Ang^3
#
#
#
# Elastic Constant Matrix: (Units=GPa)
#
#
# Indices 1 2 3 4 5 6 
#
# 1 61.4780 24.8953 0.3827 0.0000 2.5523 0.0000
# 2 24.8953 90.0428 7.9305 0.0000 4.7556 0.0000
# 3 0.3827 7.9305 60.2213 0.0000 -4.9828 0.0000
# 4 0.0000 0.0000 0.0000 20.7614 0.0000 18.3198
# 5 2.5523 4.7556 -4.9828 0.0000 15.6542 0.0000
# 6 0.0000 0.0000 0.0000 18.3198 0.0000 48.0318
#
#
#
# Elastic Compliance Matrix: (Units=1/GPa)
#
#
# Indices 1 2 3 4 5 6 
#
# 1 0.018361 -0.005045 0.000438 0.000000 -0.001321 0.000000
# 2 -0.005045 0.012871 -0.001970 0.000000 -0.003714 0.000000
# 3 0.000438 -0.001970 0.017363 0.000000 0.006054 0.000000
# 4 0.000000 0.000000 0.000000 0.072600 0.000000 -0.027690
# 5 -0.001321 -0.003714 0.006054 0.000000 0.067151 0.000000
# 6 0.000000 0.000000 0.000000 -0.027690 0.000000 0.031381
#
#
# Mechanical properties :
#
#
# Convention : Reuss Voigt Hill
#
# Bulk Modulus (GPa) = 28.21641 30.90656 29.56148
# Shear Modulus (GPa) = 20.43361 28.79173 24.61267
#
# Velocity S-wave (km/s) = 3.17964 3.77432 3.48967
# Velocity P-wave (km/s) = 5.23841 5.85541 5.55549
#
# Compressibility (1/GPa) = 0.03544037
#
# Stress axis : x y z
#
# Youngs Moduli (GPa) = 54.46262 77.69704 57.59381
#
# Poissons Ratio (x) = 0.39201 -0.02525
# Poissons Ratio (y) = 0.27479 0.11347
# Poissons Ratio (z) = -0.02388 0.15308
#
# Static dielectric constant tensor:
#      x y z
#    x 1.735840 0.000000 -0.029690 
#    y 0.000000 1.754800 0.000000 
#    z -0.029690 0.000000 1.735910 
# 
# From -- ./inp_files/193719.got.cif
#   From: 2010.05.17/outbox.cif.g08.bks.cpg/sg15_97_cif.got.tgz:193719.got - 2010.06.03 18:47:42.
