data_PCOD9274279
_publ_section_title
;
Structure prediction by ZEFSAII (Michael W. Deem and Ramdas Pophale) SiO2 
 PCOD9274279
Probable space group: C 2/C
;
_chemical_formula_sum "Si O2"
_cell_formula_units_Z 64
_cell_length_a 11.131744
_cell_length_b 20.487006
_cell_length_c 25.698775
_cell_angle_alpha 90.000000
_cell_angle_beta 146.930087
_cell_angle_gamma 90.000000
_cell_volume 3197.995333
_symmetry_space_group_name_H-M "C 2/C"
_symmetry_group_IT_number 15
_symmetry_cell_setting 'monoclinic'
loop_
_space_group_symop_operation_xyz
x,y,z
-x,y,1/2-z
-x,-y,-z
x,-y,1/2+z
1/2+x,1/2+y,z
1/2-x,1/2+y,1/2-z
1/2-x,1/2-y,-z
1/2+x,1/2-y,1/2+z
loop_
_atom_site_type_symbol
_atom_site_label
_atom_site_fract_x
_atom_site_fract_y
_atom_site_fract_z
Si Si1 0.242856 0.989951 0.840966
Si Si2 0.438580 0.225216 0.286177
Si Si3 0.098854 0.400347 0.178126
Si Si4 0.379286 0.547077 0.997042
Si Si5 0.784067 0.545785 0.971718
Si Si6 0.507294 0.764076 0.089773
Si Si7 0.533853 0.660447 0.623023
Si Si8 0.378188 0.670119 0.450562
O O1 0.265394 0.046115 0.805361
O O2 0.270286 0.021941 0.907680
O O3 0.000000 0.959419 0.750000
O O4 0.464460 0.947601 0.917340
O O5 0.500000 0.252020 0.250000
O O6 0.174223 0.219760 0.185513
O O7 0.480687 0.273911 0.348835
O O8 0.611980 0.166509 0.356544
O O9 0.054280 0.337989 0.124342
O O10 0.240214 0.374373 0.277608
O O11 0.865175 0.430801 0.108725
O O12 0.337570 0.507178 0.035129
O O13 0.523957 0.612979 0.050096
O O14 0.500000 0.500000 0.000000
O O15 0.661156 0.613430 0.930341
O O16 0.570278 0.740787 0.055031
O O17 0.250000 0.750000 0.000000
O O18 0.499227 0.666994 0.549337
#
# Coordination Sequence:
#
# PCOD9274279 Si02
#       8
#     8   8   8   8   8   8   8   8
#     4  10  20  38  62  90 119 160 216 258 305 368
#     4   9  22  39  63  92 118 166 208 251 316 374
#     4  10  22  38  69  90 123 166 218 258 315 382
#     4  11  22  42  58  91 131 169 207 255 322 380
#     4  10  22  36  61  91 121 164 207 259 306 367
#     4  10  20  40  62  90 117 164 208 252 308 374
#     4  11  21  38  63  98 124 158 212 266 314 375
#     4  11  22  39  64  90 130 160 205 262 322 374
#
# _framework density 20.012537999999999
#
# number of rings (size 3 to 8) (size 9 to 14) (size 15 to 20)
#    0.000    1.750    3.750    0.375    5.250    0.500 
#    0.000    7.500    0.000    0.000    0.000    0.000 
#    0.000    0.000    0.000    0.000    0.000    0.000 
#
# Total GULP energy -178337.282197 kJ/mol
# GULP energy per Si atom -5573.040069 kJ/mol
# Density = 1.996699 g / cm^3
# Si number density = 20.012538 Si / 1000 Ang^3
#
#
#
# Elastic Constant Matrix: (Units=GPa)
#
#
# Indices 1 2 3 4 5 6 
#
# 1 59.7205 15.8863 30.6903 0.0003 8.7914 -0.0003
# 2 15.8863 32.9943 26.1156 -0.0001 12.4218 -0.0001
# 3 30.6903 26.1156 110.2536 0.0021 24.7719 -0.0010
# 4 0.0003 -0.0001 0.0021 24.5867 0.0008 9.5285
# 5 8.7914 12.4218 24.7719 0.0008 38.6077 -0.0005
# 6 -0.0003 -0.0001 -0.0010 9.5285 -0.0005 15.5809
#
#
#
# Elastic Compliance Matrix: (Units=1/GPa)
#
#
# Indices 1 2 3 4 5 6 
#
# 1 0.020658 -0.006674 -0.004201 0.000000 0.000138 0.000000
# 2 -0.006674 0.041359 -0.006182 0.000002 -0.007821 -0.000002
# 3 -0.004201 -0.006182 0.012902 -0.000001 -0.005333 0.000001
# 4 0.000000 0.000002 -0.000001 0.053306 -0.000001 -0.032599
# 5 0.000138 -0.007821 -0.005333 -0.000001 0.031808 0.000001
# 6 0.000000 -0.000002 0.000001 -0.032599 0.000001 0.084117
#
#
# Mechanical properties :
#
#
# Convention : Reuss Voigt Hill
#
# Bulk Modulus (GPa) = 24.50595 38.70588 31.60591
# Shear Modulus (GPa) = 17.13118 24.44013 20.78566
#
# Velocity S-wave (km/s) = 2.92896 3.49842 3.22628
# Velocity P-wave (km/s) = 4.86932 5.97506 5.45031
#
# Compressibility (1/GPa) = 0.04080642
#
# Stress axis : x y z
#
# Youngs Moduli (GPa) = 48.40653 24.17860 77.50896
#
# Poissons Ratio (x) = 0.16136 0.32560
# Poissons Ratio (y) = 0.32306 0.47914
# Poissons Ratio (z) = 0.20335 0.14946
#
# Static dielectric constant tensor:
#      x y z
#    x 1.748240 0.000000 0.038770 
#    y 0.000000 1.710410 0.000000 
#    z 0.038770 0.000000 1.745230 
# 
# From -- ./inp_files/293770.got.cif
#   From: 2010.05.17/outbox.cif.g08.bks.cpg/sg15_147_cif.got.tgz:293770.got - 2010.06.03 18:47:42.
