data_PCOD9274537
_publ_section_title
;
Structure prediction by ZEFSAII (Michael W. Deem and Ramdas Pophale) SiO2 
 PCOD9274537
Probable space group: C 2/C
;
_chemical_formula_sum "Si O2"
_cell_formula_units_Z 44
_cell_length_a 14.909575
_cell_length_b 21.941020
_cell_length_c 8.760579
_cell_angle_alpha 90.000000
_cell_angle_beta 137.125890
_cell_angle_gamma 90.000000
_cell_volume 1949.901505
_symmetry_space_group_name_H-M "C 2/C"
_symmetry_group_IT_number 15
_symmetry_cell_setting 'monoclinic'
loop_
_space_group_symop_operation_xyz
x,y,z
-x,y,1/2-z
-x,-y,-z
x,-y,1/2+z
1/2+x,1/2+y,z
1/2-x,1/2+y,1/2-z
1/2-x,1/2-y,-z
1/2+x,1/2-y,1/2+z
loop_
_atom_site_type_symbol
_atom_site_label
_atom_site_fract_x
_atom_site_fract_y
_atom_site_fract_z
Si Si1 0.500000 0.041060 0.750000
Si Si2 0.840022 0.805320 0.750654
Si Si3 0.241563 0.153917 0.029575
Si Si4 0.271087 0.418961 0.480196
Si Si5 0.259528 0.967975 0.379853
Si Si6 0.385067 0.747718 0.863989
O O1 0.404929 0.996984 0.532597
O O2 0.389303 0.080885 0.697372
O O3 0.842883 0.840766 0.919888
O O4 0.827680 0.855751 0.606265
O O5 0.711363 0.763959 0.616890
O O6 0.030439 0.765819 0.595703
O O7 0.268910 0.085352 0.016049
O O8 0.371008 0.193016 0.236821
O O9 0.172744 0.191849 0.807899
O O10 0.316809 0.474275 0.646567
O O11 0.298486 0.438599 0.343225
#
# Coordination Sequence:
#
# PCOD9274537 Si02
#       6
#     4   8   8   8   8   8
#     4   8  22  36  60  96 128 170 228 274 344 392
#     4  10  20  41  67  96 139 179 233 276 337 411
#     4   9  20  37  67  98 132 176 230 279 333 408
#     4  10  21  38  64 100 139 173 226 287 351 400
#     4  10  20  38  64 101 131 176 225 289 343 405
#     4   9  21  39  68  98 134 186 233 274 342 401
#
# _framework density 22.565242999999999
#
# number of rings (size 3 to 8) (size 9 to 14) (size 15 to 20)
#    2.182    0.364    0.000    2.182    0.000    1.455 
#    3.273    2.727    4.000    0.000    0.000    0.000 
#    0.000    0.000    0.000    0.000    0.000    0.000 
#
# Total GULP energy -122730.521209 kJ/mol
# GULP energy per Si atom -5578.660055 kJ/mol
# Density = 2.251388 g / cm^3
# Si number density = 22.565243 Si / 1000 Ang^3
#
#
#
# Elastic Constant Matrix: (Units=GPa)
#
#
# Indices 1 2 3 4 5 6 
#
# 1 89.2176 37.8132 33.3227 0.0000 12.2565 0.0000
# 2 37.8132 104.5098 33.7641 0.0000 9.3820 0.0000
# 3 33.3227 33.7641 93.4442 0.0000 -1.4959 0.0000
# 4 0.0000 0.0000 0.0000 35.8293 0.0000 4.3756
# 5 12.2565 9.3820 -1.4959 0.0000 20.8436 0.0000
# 6 0.0000 0.0000 0.0000 4.3756 0.0000 3.1961
#
#
#
# Elastic Compliance Matrix: (Units=1/GPa)
#
#
# Indices 1 2 3 4 5 6 
#
# 1 0.015371 -0.003454 -0.004358 0.000000 -0.007797 0.000000
# 2 -0.003454 0.012194 -0.003234 0.000000 -0.003690 0.000000
# 3 -0.004358 -0.003234 0.013504 0.000000 0.004987 0.000000
# 4 0.000000 0.000000 0.000000 0.033513 0.000000 -0.045881
# 5 -0.007797 -0.003690 0.004987 0.000000 0.054580 0.000000
# 6 0.000000 0.000000 0.000000 -0.045881 0.000000 0.375696
#
#
# Mechanical properties :
#
#
# Convention : Reuss Voigt Hill
#
# Bulk Modulus (GPa) = 52.69197 55.21907 53.95552
# Shear Modulus (GPa) = 9.37602 24.12523 16.75062
#
# Velocity S-wave (km/s) = 2.04061 3.27331 2.72751
# Velocity P-wave (km/s) = 5.38087 6.22977 5.82081
#
# Compressibility (1/GPa) = 0.01897822
#
# Stress axis : x y z
#
# Youngs Moduli (GPa) = 65.05644 82.00796 74.05191
#
# Poissons Ratio (x) = 0.28322 0.32275
# Poissons Ratio (y) = 0.22467 0.23945
# Poissons Ratio (z) = 0.28354 0.26518
#
# Static dielectric constant tensor:
#      x y z
#    x 1.830230 0.000000 -0.019760 
#    y 0.000000 1.809690 0.000000 
#    z -0.019760 0.000000 1.935670 
# 
# From -- ./inp_files/65723.got.cif
#   From: 2010.05.17/outbox.cif.g08.bks.cpg/sg15_33_cif.got.tgz:65723.got - 2010.06.03 18:47:42.
