data_PCOD9274219
_publ_section_title
;
Structure prediction by ZEFSAII (Michael W. Deem and Ramdas Pophale) SiO2 
 PCOD9274219
Probable space group: C 2/C
;
_chemical_formula_sum "Si O2"
_cell_formula_units_Z 56
_cell_length_a 11.188588
_cell_length_b 11.914360
_cell_length_c 25.619739
_cell_angle_alpha 90.000000
_cell_angle_beta 40.346528
_cell_angle_gamma 90.000000
_cell_volume 2211.054102
_symmetry_space_group_name_H-M "C 2/C"
_symmetry_group_IT_number 15
_symmetry_cell_setting 'monoclinic'
loop_
_space_group_symop_operation_xyz
x,y,z
-x,y,1/2-z
-x,-y,-z
x,-y,1/2+z
1/2+x,1/2+y,z
1/2-x,1/2+y,1/2-z
1/2-x,1/2-y,-z
1/2+x,1/2-y,1/2+z
loop_
_atom_site_type_symbol
_atom_site_label
_atom_site_fract_x
_atom_site_fract_y
_atom_site_fract_z
Si Si1 0.384910 0.122721 0.341043
Si Si2 0.549693 0.694204 0.289768
Si Si3 0.781328 0.948416 0.945502
Si Si4 0.114869 0.541268 0.903046
Si Si5 0.146912 0.577980 0.781290
Si Si6 0.544022 0.205069 0.382497
Si Si7 0.080043 0.051091 0.902474
O O1 0.500000 0.160489 0.250000
O O2 0.518483 0.028372 0.319801
O O3 0.200173 0.048636 0.389902
O O4 0.383126 0.207420 0.391629
O O5 0.500000 0.644452 0.250000
O O6 0.433146 0.636291 0.372782
O O7 0.511038 0.825719 0.305641
O O8 0.769981 0.701005 0.215431
O O9 0.739929 0.035024 0.912115
O O10 0.873396 0.006268 0.964393
O O11 0.581423 0.898010 0.024281
O O12 0.204997 0.592331 0.821661
O O13 0.057634 0.410290 0.910889
O O14 0.320527 0.556574 0.687307
O O15 0.563370 0.312853 0.414890
#
# Coordination Sequence:
#
# PCOD9274219 Si02
#       7
#     8   8   8   8   8   8   8
#     4   9  17  34  57  84 120 146 188 257 302 355
#     4  11  19  34  64  89 113 157 203 248 304 366
#     4  11  23  37  58  85 121 161 195 238 305 364
#     4  10  22  40  57  82 122 160 194 247 296 358
#     4   9  19  35  60  88 113 148 202 250 297 352
#     4  10  20  38  62  87 118 154 202 256 303 358
#     4  10  21  37  60  90 113 158 201 249 309 363
#
# _framework density 25.327285
#
# number of rings (size 3 to 8) (size 9 to 14) (size 15 to 20)
#    0.000    2.000    1.429    4.714    0.000    1.143 
#    7.714    2.857    0.000    0.000    0.000    0.000 
#    0.000    0.000    0.000    0.000    0.000    0.000 
#
# Total GULP energy -156037.714594 kJ/mol
# GULP energy per Si atom -5572.775521 kJ/mol
# Density = 2.526964 g / cm^3
# Si number density = 25.327285 Si / 1000 Ang^3
#
#
#
# Elastic Constant Matrix: (Units=GPa)
#
#
# Indices 1 2 3 4 5 6 
#
# 1 95.9044 10.8441 1.5135 0.0000 -6.3285 0.0000
# 2 10.8441 59.8577 -4.5444 0.0000 -7.3010 0.0000
# 3 1.5135 -4.5444 34.2262 0.0000 7.7625 0.0000
# 4 0.0000 0.0000 0.0000 11.8775 0.0000 2.7888
# 5 -6.3285 -7.3010 7.7625 0.0000 35.8508 0.0000
# 6 0.0000 0.0000 0.0000 2.7888 0.0000 22.5087
#
#
#
# Elastic Compliance Matrix: (Units=1/GPa)
#
#
# Indices 1 2 3 4 5 6 
#
# 1 0.010767 -0.001819 -0.001120 0.000000 0.001773 0.000000
# 2 -0.001819 0.017519 0.001756 0.000000 0.002866 0.000000
# 3 -0.001120 0.001756 0.030985 0.000000 -0.006549 0.000000
# 4 0.000000 0.000000 0.000000 0.086715 0.000000 -0.010744
# 5 0.001773 0.002866 -0.006549 0.000000 0.030208 0.000000
# 6 0.000000 0.000000 0.000000 -0.010744 0.000000 0.045758
#
#
# Mechanical properties :
#
#
# Convention : Reuss Voigt Hill
#
# Bulk Modulus (GPa) = 17.57277 22.84607 20.20942
# Shear Modulus (GPa) = 20.55180 26.19241 23.37210
#
# Velocity S-wave (km/s) = 2.85168 3.21932 3.04106
# Velocity P-wave (km/s) = 4.21855 4.78107 4.50859
#
# Compressibility (1/GPa) = 0.05690623
#
# Stress axis : x y z
#
# Youngs Moduli (GPa) = 92.87269 57.08134 32.27320
#
# Poissons Ratio (x) = 0.10386 0.03614
# Poissons Ratio (y) = 0.16898 -0.05669
# Poissons Ratio (z) = 0.10399 -0.10026
#
# Static dielectric constant tensor:
#      x y z
#    x 2.063860 0.000000 0.028930 
#    y 0.000000 2.296280 0.000000 
#    z 0.028930 0.000000 2.058730 
# 
# From -- ./inp_files/292849.got.cif
#   From: 2010.05.17/outbox.cif.g08.bks.cpg/sg15_147_cif.got.tgz:292849.got - 2010.06.03 18:47:42.
