data_PCOD9274843
_publ_section_title
;
Structure prediction by ZEFSAII (Michael W. Deem and Ramdas Pophale) SiO2 
 PCOD9274843
Probable space group: C 2/C
;
_chemical_formula_sum "Si O2"
_cell_formula_units_Z 28
_cell_length_a 9.541956
_cell_length_b 19.668282
_cell_length_c 10.016390
_cell_angle_alpha 90.000000
_cell_angle_beta 34.309050
_cell_angle_gamma 90.000000
_cell_volume 1059.569874
_symmetry_space_group_name_H-M "C 2/C"
_symmetry_group_IT_number 15
_symmetry_cell_setting 'monoclinic'
loop_
_space_group_symop_operation_xyz
x,y,z
-x,y,1/2-z
-x,-y,-z
x,-y,1/2+z
1/2+x,1/2+y,z
1/2-x,1/2+y,1/2-z
1/2-x,1/2-y,-z
1/2+x,1/2-y,1/2+z
loop_
_atom_site_type_symbol
_atom_site_label
_atom_site_fract_x
_atom_site_fract_y
_atom_site_fract_z
Si Si1 0.000000 0.801516 0.250000
Si Si2 0.257660 0.773826 0.688467
Si Si3 0.861522 0.461128 0.230463
Si Si4 0.864254 0.897182 0.558862
O O1 0.869517 0.760073 0.236083
O O2 0.809979 0.851741 0.473402
O O3 0.470476 0.752687 0.415165
O O4 0.238152 0.855116 0.733319
O O5 0.661008 0.406150 0.341402
O O6 0.722073 0.527148 0.400389
O O7 0.000000 0.431722 0.250000
O O8 0.000000 0.500000 0.000000
#
# Coordination Sequence:
#
# PCOD9274843 Si02
#       4
#     4   8   8   8
#     4  10  20  38  66 100 134 168 226 290 344 392
#     4  10  21  34  61  99 130 170 218 289 348 392
#     4  11  25  41  66  92 133 184 224 281 335 407
#     4  10  22  37  59  96 130 169 221 281 338 404
#
# _framework density 26.425816000000001
#
# number of rings (size 3 to 8) (size 9 to 14) (size 15 to 20)
#    0.000    1.714    0.000    5.143   14.000    3.429 
#    0.000    0.000    0.000    6.857    0.000    0.000 
#    0.000    0.000    0.000    0.000    0.000    0.000 
#
# Total GULP energy -78209.563653 kJ/mol
# GULP energy per Si atom -5586.397404 kJ/mol
# Density = 2.636567 g / cm^3
# Si number density = 26.425816 Si / 1000 Ang^3
#
#
#
# Elastic Constant Matrix: (Units=GPa)
#
#
# Indices 1 2 3 4 5 6 
#
# 1 119.1073 0.6361 52.6641 0.0000 -0.7485 0.0000
# 2 0.6361 97.5457 6.5860 0.0000 0.5043 0.0000
# 3 52.6641 6.5860 137.1391 0.0001 -0.3973 0.0000
# 4 0.0000 0.0000 0.0001 35.4470 0.0000 -19.2658
# 5 -0.7485 0.5043 -0.3973 0.0000 40.9561 0.0000
# 6 0.0000 0.0000 0.0000 -19.2658 0.0000 10.1948
#
#
#
# Elastic Compliance Matrix: (Units=1/GPa)
#
#
# Indices 1 2 3 4 5 6 
#
# 1 0.010118 0.000196 -0.003894 0.000000 0.000145 -0.000001
# 2 0.000196 0.010289 -0.000570 -0.000001 -0.000129 -0.000001
# 3 -0.003894 -0.000570 0.008815 0.000001 0.000021 0.000002
# 4 0.000000 -0.000001 0.000001 -1.040828 -0.000001 -1.966919
# 5 0.000145 -0.000129 0.000021 -0.000001 0.024421 -0.000002
# 6 -0.000001 -0.000001 0.000002 -1.966919 -0.000002 -3.618923
#
#
# Mechanical properties :
#
#
# Convention : Reuss Voigt Hill
#
# Bulk Modulus (GPa) = 48.34229 52.61829 50.48029
# Shear Modulus (GPa) = -1.08916 36.91330 17.91207
#
# Velocity S-wave (km/s) = -0.64269 3.74152 2.60633
# Velocity P-wave (km/s) = 4.21694 6.21452 5.31050
#
# Compressibility (1/GPa) = 0.02068582
#
# Stress axis : x y z
#
# Youngs Moduli (GPa) = 98.83801 97.18681 113.44550
#
# Poissons Ratio (x) = -0.01907 0.44180
# Poissons Ratio (y) = -0.01939 0.06465
# Poissons Ratio (z) = 0.38491 0.05538
#
# Static dielectric constant tensor:
#      x y z
#    x 2.131230 0.000000 -0.066540 
#    y 0.000000 2.009460 0.000000 
#    z -0.066540 0.000000 2.274270 
# 
# From -- ./inp_files/77510.got.cif
#   From: 2010.05.17/outbox.cif.g08.bks.cpg/sg15_39_cif.got.tgz:77510.got - 2010.06.03 18:47:42.
