data_PCOD9274973
_publ_section_title
;
Structure prediction by ZEFSAII (Michael W. Deem and Ramdas Pophale) SiO2 
 PCOD9274973
Probable space group: C 2/C
;
_chemical_formula_sum "Si O2"
_cell_formula_units_Z 52
_cell_length_a 13.027071
_cell_length_b 28.601679
_cell_length_c 8.595621
_cell_angle_alpha 90.000000
_cell_angle_beta 123.763441
_cell_angle_gamma 90.000000
_cell_volume 2662.525993
_symmetry_space_group_name_H-M "C 2/C"
_symmetry_group_IT_number 15
_symmetry_cell_setting 'monoclinic'
loop_
_space_group_symop_operation_xyz
x,y,z
-x,y,1/2-z
-x,-y,-z
x,-y,1/2+z
1/2+x,1/2+y,z
1/2-x,1/2+y,1/2-z
1/2-x,1/2-y,-z
1/2+x,1/2-y,1/2+z
loop_
_atom_site_type_symbol
_atom_site_label
_atom_site_fract_x
_atom_site_fract_y
_atom_site_fract_z
Si Si1 0.886036 0.618966 0.068282
Si Si2 0.710906 0.445317 0.248210
Si Si3 0.000000 0.886772 0.250000
Si Si4 0.743850 0.771954 0.663499
Si Si5 0.535968 0.776147 0.952528
Si Si6 0.143215 0.041936 0.336843
Si Si7 0.323127 0.367278 0.847807
O O1 0.928906 0.668895 0.036743
O O2 0.787585 0.627869 0.122252
O O3 0.000000 0.595430 0.250000
O O4 0.828555 0.585087 0.893532
O O5 0.599168 0.419237 0.245188
O O6 0.709053 0.497688 0.313777
O O7 0.695156 0.446331 0.050430
O O8 0.062116 0.857542 0.440593
O O9 0.750000 0.750000 0.500000
O O10 0.597580 0.770880 0.578992
O O11 0.789805 0.825384 0.706174
O O12 0.843420 0.747003 0.864455
O O13 0.500000 0.758217 0.750000
O O14 0.151934 0.085626 0.226948
O O15 0.000000 0.030125 0.250000
#
# Coordination Sequence:
#
# PCOD9274973 Si02
#       7
#     8   8   4   8   8   8   8
#     4  10  22  45  69  92 132 175 230 272 333 403
#     4  11  22  39  68  99 133 180 219 273 334 407
#     4  10  20  38  66  98 132 174 222 274 330 404
#     4  12  27  45  71 103 143 177 233 289 351 408
#     4  11  24  47  73  98 133 186 227 286 339 419
#     4  12  23  41  65 102 145 174 220 277 346 398
#     4  11  24  41  66 101 135 174 226 280 339 404
#
# _framework density 19.530325999999999
#
# number of rings (size 3 to 8) (size 9 to 14) (size 15 to 20)
#    0.000    0.923    5.385    3.231    3.231    2.462 
#    0.000    3.846    0.000    0.000    0.000    0.000 
#    0.000    0.000    0.000    0.000    0.000    0.000 
#
# Total GULP energy -145101.443470 kJ/mol
# GULP energy per Si atom -5580.824749 kJ/mol
# Density = 1.948587 g / cm^3
# Si number density = 19.530326 Si / 1000 Ang^3
#
#
#
# Elastic Constant Matrix: (Units=GPa)
#
#
# Indices 1 2 3 4 5 6 
#
# 1 86.7606 31.1089 37.2173 0.0000 0.5437 0.0000
# 2 31.1089 75.1572 44.9994 0.0000 1.9150 0.0000
# 3 37.2173 44.9994 147.7484 0.0000 5.8729 0.0000
# 4 0.0000 0.0000 0.0000 8.0232 0.0000 15.2882
# 5 0.5437 1.9150 5.8729 0.0000 36.7133 0.0000
# 6 0.0000 0.0000 0.0000 15.2882 0.0000 22.7085
#
#
#
# Elastic Compliance Matrix: (Units=1/GPa)
#
#
# Indices 1 2 3 4 5 6 
#
# 1 0.014085 -0.004533 -0.002182 0.000000 0.000377 0.000000
# 2 -0.004533 0.017732 -0.004252 0.000000 -0.000178 0.000000
# 3 -0.002182 -0.004252 0.008658 0.000000 -0.001131 0.000000
# 4 0.000000 0.000000 0.000000 -0.440652 0.000000 0.296663
# 5 0.000377 -0.000178 -0.001131 0.000000 0.027423 0.000000
# 6 0.000000 0.000000 0.000000 0.296663 0.000000 -0.155688
#
#
# Mechanical properties :
#
#
# Convention : Reuss Voigt Hill
#
# Bulk Modulus (GPa) = 53.93508 59.59082 56.76295
# Shear Modulus (GPa) = -9.99344 26.57839 8.29247
#
# Velocity S-wave (km/s) = -2.26451 3.69301 2.06281
# Velocity P-wave (km/s) = 4.56494 6.98302 5.89921
#
# Compressibility (1/GPa) = 0.01854081
#
# Stress axis : x y z
#
# Youngs Moduli (GPa) = 70.99684 56.39559 115.50201
#
# Poissons Ratio (x) = 0.25564 0.25207
# Poissons Ratio (y) = 0.32183 0.49107
# Poissons Ratio (z) = 0.15494 0.23977
#
# Static dielectric constant tensor:
#      x y z
#    x 1.709260 0.000000 0.027540 
#    y 0.000000 1.681130 0.000000 
#    z 0.027540 0.000000 1.687390 
# 
# From -- ./inp_files/43658.got.cif
#   From: 2010.05.17/outbox.cif.g08.bks.cpg/sg15_22_cif.got.tgz:43658.got - 2010.06.03 18:47:42.
