data_PCOD9274356
_publ_section_title
;
Structure prediction by ZEFSAII (Michael W. Deem and Ramdas Pophale) SiO2 
 PCOD9274356
Probable space group: C 2/C
;
_chemical_formula_sum "Si O2"
_cell_formula_units_Z 40
_cell_length_a 9.964562
_cell_length_b 16.646036
_cell_length_c 14.599908
_cell_angle_alpha 90.000000
_cell_angle_beta 40.583130
_cell_angle_gamma 90.000000
_cell_volume 1575.434186
_symmetry_space_group_name_H-M "C 2/C"
_symmetry_group_IT_number 15
_symmetry_cell_setting 'monoclinic'
loop_
_space_group_symop_operation_xyz
x,y,z
-x,y,1/2-z
-x,-y,-z
x,-y,1/2+z
1/2+x,1/2+y,z
1/2-x,1/2+y,1/2-z
1/2-x,1/2-y,-z
1/2+x,1/2-y,1/2+z
loop_
_atom_site_type_symbol
_atom_site_label
_atom_site_fract_x
_atom_site_fract_y
_atom_site_fract_z
Si Si1 0.750000 0.250000 0.500000
Si Si2 0.631940 0.589223 0.826977
Si Si3 0.724916 0.929331 0.731262
Si Si4 0.416384 0.718505 0.043800
Si Si5 0.806269 0.610039 0.541671
Si Si6 0.000000 0.131264 0.250000
O O1 0.509205 0.249725 0.590328
O O2 0.685885 0.317166 0.610989
O O3 0.712388 0.514466 0.844998
O O4 0.780073 0.590219 0.662316
O O5 0.403754 0.586364 0.900613
O O6 0.609688 0.669621 0.899173
O O7 0.753079 0.851186 0.652861
O O8 0.895127 0.919591 0.723394
O O9 0.500808 0.928637 0.891627
O O10 0.336702 0.793431 0.028201
#
# Coordination Sequence:
#
# PCOD9274356 Si02
#       6
#     4   8   8   8   8   4
#     4  10  22  36  64  96 126 172 216 274 318 386
#     4  11  25  42  66 101 134 175 222 280 339 404
#     4  11  23  42  67  96 138 174 219 279 341 396
#     4  11  23  43  67  99 133 175 229 276 329 400
#     4  11  23  43  69  97 130 181 223 273 336 401
#     4  10  20  38  62  94 128 164 222 260 330 392
#
# _framework density 25.389825999999999
#
# number of rings (size 3 to 8) (size 9 to 14) (size 15 to 20)
#    0.000    1.200    2.000    4.200    2.800    2.400 
#    0.000    0.000    0.000    0.000    0.000    0.000 
#    0.000    0.000    0.000    0.000    0.000    0.000 
#
# Total GULP energy -111424.939804 kJ/mol
# GULP energy per Si atom -5571.246990 kJ/mol
# Density = 2.533204 g / cm^3
# Si number density = 25.389826 Si / 1000 Ang^3
#
#
#
# Elastic Constant Matrix: (Units=GPa)
#
#
# Indices 1 2 3 4 5 6 
#
# 1 41.3338 13.5655 -7.3666 -0.0001 -12.7158 0.0013
# 2 13.5655 163.4734 55.6306 -0.0011 -24.0845 0.0009
# 3 -7.3666 55.6306 141.8673 -0.0027 -12.4555 0.0006
# 4 -0.0001 -0.0011 -0.0027 39.7829 0.0005 21.5384
# 5 -12.7158 -24.0845 -12.4555 0.0005 24.2429 -0.0010
# 6 0.0013 0.0009 0.0006 21.5384 -0.0010 8.2248
#
#
#
# Elastic Compliance Matrix: (Units=1/GPa)
#
#
# Indices 1 2 3 4 5 6 
#
# 1 0.030295 -0.001294 0.003522 -0.000004 0.016414 0.000007
# 2 -0.001294 0.008009 -0.002690 0.000000 0.005895 -0.000001
# 3 0.003522 -0.002690 0.008602 -0.000002 0.003594 0.000004
# 4 -0.000004 0.000000 -0.000002 -0.060169 0.000005 0.157565
# 5 0.016414 0.005895 0.003594 0.000005 0.057562 -0.000010
# 6 0.000007 -0.000001 0.000004 0.157565 -0.000010 -0.291035
#
#
# Mechanical properties :
#
#
# Convention : Reuss Voigt Hill
#
# Bulk Modulus (GPa) = 21.74811 52.25924 37.00368
# Shear Modulus (GPa) = -21.69351 33.43978 5.87314
#
# Velocity S-wave (km/s) = -2.92621 3.63306 1.52257
# Velocity P-wave (km/s) = 1.68306 6.18274 4.20676
#
# Compressibility (1/GPa) = 0.04598100
#
# Stress axis : x y z
#
# Youngs Moduli (GPa) = 33.00849 124.86608 116.25035
#
# Poissons Ratio (x) = 0.16160 -0.40940
# Poissons Ratio (y) = 0.04272 0.31272
# Poissons Ratio (z) = -0.11625 0.33589
#
# Static dielectric constant tensor:
#      x y z
#    x 2.077190 0.000000 0.100980 
#    y 0.000000 2.205080 0.000000 
#    z 0.100980 0.000000 1.979820 
# 
# From -- ./inp_files/85574.got.cif
#   From: 2010.05.17/outbox.cif.g08.bks.cpg/sg15_43_cif.got.tgz:85574.got - 2010.06.03 18:47:42.
