data_PCOD9274965
_publ_section_title
;
Structure prediction by ZEFSAII (Michael W. Deem and Ramdas Pophale) SiO2 
 PCOD9274965
Probable space group: C 2/C
;
_chemical_formula_sum "Si O2"
_cell_formula_units_Z 48
_cell_length_a 12.002774
_cell_length_b 16.034751
_cell_length_c 12.037620
_cell_angle_alpha 90.000000
_cell_angle_beta 118.338613
_cell_angle_gamma 90.000000
_cell_volume 2039.130163
_symmetry_space_group_name_H-M "C 2/C"
_symmetry_group_IT_number 15
_symmetry_cell_setting 'monoclinic'
loop_
_space_group_symop_operation_xyz
x,y,z
-x,y,1/2-z
-x,-y,-z
x,-y,1/2+z
1/2+x,1/2+y,z
1/2-x,1/2+y,1/2-z
1/2-x,1/2-y,-z
1/2+x,1/2-y,1/2+z
loop_
_atom_site_type_symbol
_atom_site_label
_atom_site_fract_x
_atom_site_fract_y
_atom_site_fract_z
Si Si1 0.795130 0.906524 0.338696
Si Si2 0.805386 0.570678 0.933952
Si Si3 0.403285 0.112805 0.443817
Si Si4 0.513029 0.400966 0.874301
Si Si5 0.731603 0.910370 0.833056
Si Si6 0.374088 0.223461 0.633116
O O1 0.799043 0.905084 0.206969
O O2 0.910340 0.926196 0.477781
O O3 0.733505 0.819588 0.344745
O O4 0.709337 0.989293 0.315235
O O5 0.825045 0.470106 0.943070
O O6 0.775193 0.607253 0.040305
O O7 0.946987 0.600732 0.970101
O O8 0.369288 0.128375 0.299345
O O9 0.361132 0.184821 0.505509
O O10 0.500000 0.450800 0.750000
O O11 0.369719 0.388405 0.848980
O O12 0.590972 0.319734 0.869422
O O13 0.500000 0.187756 0.750000
#
# Coordination Sequence:
#
# PCOD9274965 Si02
#       6
#     8   8   8   8   8   8
#     4  11  22  40  66  95 129 174 223 278 334 399
#     4  10  21  36  68  99 127 164 224 286 334 385
#     4  10  20  38  66  97 130 166 219 281 331 391
#     4  11  26  42  63  92 136 182 224 270 339 417
#     4  11  23  40  64 100 132 171 222 284 343 390
#     4  11  21  41  68  94 125 174 232 274 327 404
#
# _framework density 23.539449000000001
#
# number of rings (size 3 to 8) (size 9 to 14) (size 15 to 20)
#    0.000    1.333    3.333    2.500    2.333    2.000 
#    0.000    0.833    3.667    0.000    0.000    0.000 
#    0.000    0.000    0.000    0.000    0.000    0.000 
#
# Total GULP energy -133866.504434 kJ/mol
# GULP energy per Si atom -5577.771018 kJ/mol
# Density = 2.348587 g / cm^3
# Si number density = 23.539449 Si / 1000 Ang^3
#
#
#
# Elastic Constant Matrix: (Units=GPa)
#
#
# Indices 1 2 3 4 5 6 
#
# 1 72.3545 22.1041 34.5695 0.0000 0.0820 0.0000
# 2 22.1041 66.2614 12.3497 0.0000 -3.3812 0.0000
# 3 34.5695 12.3497 234.5804 0.0000 -8.8407 0.0000
# 4 0.0000 0.0000 0.0000 27.0995 0.0000 6.8486
# 5 0.0820 -3.3812 -8.8407 0.0000 46.4372 0.0000
# 6 0.0000 0.0000 0.0000 6.8486 0.0000 15.3905
#
#
#
# Elastic Compliance Matrix: (Units=1/GPa)
#
#
# Indices 1 2 3 4 5 6 
#
# 1 0.016427 -0.005115 -0.002182 0.000000 -0.000817 0.000000
# 2 -0.005115 0.016877 -0.000089 0.000000 0.001221 0.000000
# 3 -0.002182 -0.000089 0.004622 0.000000 0.000877 0.000000
# 4 0.000000 0.000000 0.000000 0.041577 0.000000 -0.018501
# 5 -0.000817 0.001221 0.000877 0.000000 0.021792 0.000000
# 6 0.000000 0.000000 0.000000 -0.018501 0.000000 0.073208
#
#
# Mechanical properties :
#
#
# Convention : Reuss Voigt Hill
#
# Bulk Modulus (GPa) = 43.18836 56.80476 49.99656
# Shear Modulus (GPa) = 25.38168 38.06364 31.72266
#
# Velocity S-wave (km/s) = 3.28725 4.02558 3.67500
# Velocity P-wave (km/s) = 5.72670 6.76691 6.26842
#
# Compressibility (1/GPa) = 0.02315439
#
# Stress axis : x y z
#
# Youngs Moduli (GPa) = 60.87544 59.25284 216.34391
#
# Poissons Ratio (x) = 0.30307 0.47213
# Poissons Ratio (y) = 0.31137 0.01920
# Poissons Ratio (z) = 0.13285 0.00526
#
# Static dielectric constant tensor:
#      x y z
#    x 1.906190 0.000000 0.045770 
#    y 0.000000 1.917460 0.000000 
#    z 0.045770 0.000000 2.013340 
# 
# From -- ./inp_files/87897.got.cif
#   From: 2010.05.17/outbox.cif.g08.bks.cpg/sg15_44_cif.got.tgz:87897.got - 2010.06.03 18:47:42.
