data_PCOD9274549
_publ_section_title
;
Structure prediction by ZEFSAII (Michael W. Deem and Ramdas Pophale) SiO2 
 PCOD9274549
Probable space group: C 2/C
;
_chemical_formula_sum "Si O2"
_cell_formula_units_Z 56
_cell_length_a 15.276999
_cell_length_b 9.170968
_cell_length_c 25.798468
_cell_angle_alpha 90.000000
_cell_angle_beta 117.959339
_cell_angle_gamma 90.000000
_cell_volume 3192.609542
_symmetry_space_group_name_H-M "C 2/C"
_symmetry_group_IT_number 15
_symmetry_cell_setting 'monoclinic'
loop_
_space_group_symop_operation_xyz
x,y,z
-x,y,1/2-z
-x,-y,-z
x,-y,1/2+z
1/2+x,1/2+y,z
1/2-x,1/2+y,1/2-z
1/2-x,1/2-y,-z
1/2+x,1/2-y,1/2+z
loop_
_atom_site_type_symbol
_atom_site_label
_atom_site_fract_x
_atom_site_fract_y
_atom_site_fract_z
Si Si1 0.923975 0.249153 0.376127
Si Si2 0.393369 0.647937 0.693828
Si Si3 0.293875 0.015208 0.306857
Si Si4 0.605243 0.417411 0.892625
Si Si5 0.772572 0.765819 0.381798
Si Si6 0.438347 0.632555 0.006419
Si Si7 0.277685 0.930132 0.680404
O O1 0.881114 0.402661 0.345958
O O2 0.829964 0.143792 0.356654
O O3 0.001419 0.171186 0.358632
O O4 0.985997 0.249411 0.446935
O O5 0.500000 0.637219 0.750000
O O6 0.309034 0.563093 0.704039
O O7 0.398291 0.567526 0.639784
O O8 0.357005 0.814466 0.681106
O O9 0.302111 0.163857 0.341662
O O10 0.293782 0.047019 0.246069
O O11 0.692882 0.323259 0.892857
O O12 0.618004 0.428652 0.958087
O O13 0.865465 0.802884 0.443846
O O14 0.724607 0.914992 0.348123
O O15 0.500000 0.500000 0.000000
#
# Coordination Sequence:
#
# PCOD9274549 Si02
#       7
#     8   8   8   8   8   8   8
#     4   9  20  38  58  82 112 150 197 226 292 347
#     4  10  21  37  57  82 120 153 191 240 296 348
#     4  10  22  37  60  87 117 153 195 242 290 358
#     4   9  21  37  58  84 113 147 191 242 291 338
#     4  11  20  37  60  86 116 150 188 247 293 333
#     4  10  20  38  64  80 114 155 197 236 288 358
#     4  11  21  36  58  85 117 151 194 230 290 357
#
# _framework density 17.540510000000001
#
# number of rings (size 3 to 8) (size 9 to 14) (size 15 to 20)
#    0.857    1.143    1.429    3.000    0.000    4.000 
#    0.000    1.429    0.000    0.000    0.000    0.000 
#    0.000    0.000    0.000    0.000    0.000    0.000 
#
# Total GULP energy -156075.905078 kJ/mol
# GULP energy per Si atom -5574.139467 kJ/mol
# Density = 1.750059 g / cm^3
# Si number density = 17.540510 Si / 1000 Ang^3
#
#
#
# Elastic Constant Matrix: (Units=GPa)
#
#
# Indices 1 2 3 4 5 6 
#
# 1 54.8374 32.6694 43.5144 0.0000 4.5117 0.0000
# 2 32.6694 118.9432 65.2711 0.0000 -4.1619 0.0000
# 3 43.5144 65.2711 135.8432 0.0000 -1.3209 0.0000
# 4 0.0000 0.0000 0.0000 -0.6196 0.0000 -6.5177
# 5 4.5117 -4.1619 -1.3209 0.0000 23.5859 0.0000
# 6 0.0000 0.0000 0.0000 -6.5177 0.0000 18.2086
#
#
#
# Elastic Compliance Matrix: (Units=1/GPa)
#
#
# Indices 1 2 3 4 5 6 
#
# 1 0.026267 -0.003772 -0.006661 0.000000 -0.006063 0.000000
# 2 -0.003772 0.012029 -0.004546 0.000000 0.002589 0.000000
# 3 -0.006661 -0.004546 0.011690 0.000000 0.001127 0.000000
# 4 0.000000 0.000000 0.000000 -0.338679 0.000000 -0.121230
# 5 -0.006063 0.002589 0.001127 0.000000 0.044078 0.000000
# 6 0.000000 0.000000 0.000000 -0.121230 0.000000 0.011525
#
#
# Mechanical properties :
#
#
# Convention : Reuss Voigt Hill
#
# Bulk Modulus (GPa) = 49.92829 65.83707 57.88268
# Shear Modulus (GPa) = -25.45092 19.44623 -3.00235
#
# Velocity S-wave (km/s) = -3.81330 3.33325 -1.30973
# Velocity P-wave (km/s) = 3.02291 7.24084 5.54832
#
# Compressibility (1/GPa) = 0.02002873
#
# Stress axis : x y z
#
# Youngs Moduli (GPa) = 38.07075 83.13429 85.53957
#
# Poissons Ratio (x) = 0.31354 0.56976
# Poissons Ratio (y) = 0.14359 0.38889
# Poissons Ratio (z) = 0.25358 0.37796
#
# Static dielectric constant tensor:
#      x y z
#    x 1.592070 0.000000 -0.000300 
#    y 0.000000 1.584510 0.000000 
#    z -0.000300 0.000000 1.585750 
# 
# From -- ./inp_files/295248.got.cif
#   From: 2010.05.17/outbox.cif.g08.bks.cpg/sg15_148_cif.got.tgz:295248.got - 2010.06.03 18:47:42.
