data_PCOD9274099
_publ_section_title
;
Structure prediction by ZEFSAII (Michael W. Deem and Ramdas Pophale) SiO2 
 PCOD9274099
Probable space group: C 2/C
;
_chemical_formula_sum "Si O2"
_cell_formula_units_Z 60
_cell_length_a 17.765943
_cell_length_b 8.040133
_cell_length_c 23.052312
_cell_angle_alpha 90.000000
_cell_angle_beta 121.417500
_cell_angle_gamma 90.000000
_cell_volume 2810.052036
_symmetry_space_group_name_H-M "C 2/C"
_symmetry_group_IT_number 15
_symmetry_cell_setting 'monoclinic'
loop_
_space_group_symop_operation_xyz
x,y,z
-x,y,1/2-z
-x,-y,-z
x,-y,1/2+z
1/2+x,1/2+y,z
1/2-x,1/2+y,1/2-z
1/2-x,1/2-y,-z
1/2+x,1/2-y,1/2+z
loop_
_atom_site_type_symbol
_atom_site_label
_atom_site_fract_x
_atom_site_fract_y
_atom_site_fract_z
Si Si1 0.358495 0.526071 0.270246
Si Si2 0.952365 0.693850 0.856923
Si Si3 0.055238 0.348545 0.884905
Si Si4 0.587477 0.671521 0.596802
Si Si5 0.187015 0.476811 0.128628
Si Si6 0.718311 0.996498 0.011438
Si Si7 0.500000 0.664645 0.750000
Si Si8 0.883787 0.145914 0.022943
O O1 0.386326 0.719486 0.285203
O O2 0.369084 0.450970 0.338944
O O3 0.263828 0.481498 0.206825
O O4 0.429246 0.442223 0.256451
O O5 0.891792 0.647967 0.887439
O O6 0.000089 0.522350 0.859095
O O7 0.029062 0.823713 0.904022
O O8 0.152640 0.387162 0.946600
O O9 0.049302 0.270310 0.819130
O O10 0.004419 0.233213 0.911614
O O11 0.644820 0.839881 0.614853
O O12 0.587782 0.606165 0.531273
O O13 0.223877 0.439133 0.079965
O O14 0.668191 0.176340 0.995827
O O15 0.813690 0.019863 0.021658
#
# Coordination Sequence:
#
# PCOD9274099 Si02
#       8
#     8   8   8   8   8   8   4   8
#     4  11  23  38  59  87 125 157 199 257 305 353
#     4  10  21  37  64  89 117 159 210 245 304 366
#     4   9  19  41  61  86 112 164 204 244 305 373
#     4   9  19  38  60  81 122 158 198 249 302 363
#     4  10  20  38  61  90 118 165 201 246 296 374
#     4   9  18  35  61  89 122 152 201 252 301 359
#     4  10  24  42  58  84 124 162 196 254 310 364
#     4   9  18  35  58  94 118 154 198 256 303 355
#
# _framework density 21.351918000000001
#
# number of rings (size 3 to 8) (size 9 to 14) (size 15 to 20)
#    0.000    2.400    0.000    1.600    1.867    4.267 
#   16.800    0.667    0.000    0.000    0.000    0.000 
#    0.000    0.000    0.000    0.000    0.000    0.000 
#
# Total GULP energy -167633.108721 kJ/mol
# GULP energy per Si atom -5587.770291 kJ/mol
# Density = 2.130332 g / cm^3
# Si number density = 21.351918 Si / 1000 Ang^3
#
#
#
# Elastic Constant Matrix: (Units=GPa)
#
#
# Indices 1 2 3 4 5 6 
#
# 1 88.1990 32.8594 33.3083 0.0000 -3.6262 0.0000
# 2 32.8594 60.2319 20.3229 0.0000 -6.4716 0.0000
# 3 33.3083 20.3229 54.9686 0.0000 -9.8120 0.0000
# 4 0.0000 0.0000 0.0000 23.4058 0.0000 5.3223
# 5 -3.6262 -6.4716 -9.8120 0.0000 38.9737 0.0000
# 6 0.0000 0.0000 0.0000 5.3223 0.0000 11.1404
#
#
#
# Elastic Compliance Matrix: (Units=1/GPa)
#
#
# Indices 1 2 3 4 5 6 
#
# 1 0.016753 -0.006612 -0.007983 0.000000 -0.001549 0.000000
# 2 -0.006612 0.021657 -0.003631 0.000000 0.002067 0.000000
# 3 -0.007983 -0.003631 0.025268 0.000000 0.005016 0.000000
# 4 0.000000 0.000000 0.000000 0.047932 0.000000 -0.022899
# 5 -0.001549 0.002067 0.005016 0.000000 0.027120 0.000000
# 6 0.000000 0.000000 0.000000 -0.022899 0.000000 0.100704
#
#
# Mechanical properties :
#
#
# Convention : Reuss Voigt Hill
#
# Bulk Modulus (GPa) = 36.73270 41.82005 39.27638
# Shear Modulus (GPa) = 17.54628 22.49790 20.02209
#
# Velocity S-wave (km/s) = 2.86976 3.24955 3.06554
# Velocity P-wave (km/s) = 5.31239 5.80586 5.56460
#
# Compressibility (1/GPa) = 0.02722370
#
# Stress axis : x y z
#
# Youngs Moduli (GPa) = 59.69241 46.17421 39.57651
#
# Poissons Ratio (x) = 0.30531 0.31594
# Poissons Ratio (y) = 0.39470 0.14372
# Poissons Ratio (z) = 0.47653 0.16768
#
# Static dielectric constant tensor:
#      x y z
#    x 1.739190 0.000000 0.009350 
#    y 0.000000 1.809280 0.000000 
#    z 0.009350 0.000000 1.739790 
# 
# From -- ./inp_files/247857.got.cif
#   From: 2010.05.17/outbox.cif.g08.bks.cpg/sg15_124_cif.got.tgz:247857.got - 2010.06.03 18:47:42.
