data_PCOD9274837
_publ_section_title
;
Structure prediction by ZEFSAII (Michael W. Deem and Ramdas Pophale) SiO2 
 PCOD9274837
Probable space group: C 2/C
;
_chemical_formula_sum "Si O2"
_cell_formula_units_Z 60
_cell_length_a 21.796168
_cell_length_b 14.582594
_cell_length_c 9.141689
_cell_angle_alpha 90.000000
_cell_angle_beta 99.407697
_cell_angle_gamma 90.000000
_cell_volume 2866.556908
_symmetry_space_group_name_H-M "C 2/C"
_symmetry_group_IT_number 15
_symmetry_cell_setting 'monoclinic'
loop_
_space_group_symop_operation_xyz
x,y,z
-x,y,1/2-z
-x,-y,-z
x,-y,1/2+z
1/2+x,1/2+y,z
1/2-x,1/2+y,1/2-z
1/2-x,1/2-y,-z
1/2+x,1/2-y,1/2+z
loop_
_atom_site_type_symbol
_atom_site_label
_atom_site_fract_x
_atom_site_fract_y
_atom_site_fract_z
Si Si1 0.530552 0.396518 0.526341
Si Si2 0.797596 0.757966 0.386177
Si Si3 0.232374 0.568935 0.749361
Si Si4 0.637721 0.516702 0.226542
Si Si5 0.104932 0.628903 0.192340
Si Si6 0.402251 0.382039 0.515258
Si Si7 0.500000 0.270170 0.250000
Si Si8 0.643452 0.999830 0.463432
O O1 0.500000 0.500000 0.500000
O O2 0.596822 0.405617 0.628600
O O3 0.471192 0.354599 0.586502
O O4 0.532053 0.337176 0.380821
O O5 0.750000 0.750000 0.500000
O O6 0.767028 0.833712 0.268459
O O7 0.826572 0.674446 0.306728
O O8 0.857307 0.797337 0.495064
O O9 0.289161 0.494967 0.771607
O O10 0.188048 0.553415 0.594255
O O11 0.189982 0.557455 0.876711
O O12 0.624424 0.538689 0.389747
O O13 0.606004 0.424473 0.151021
O O14 0.051979 0.705320 0.194857
O O15 0.107790 0.567215 0.339373
O O16 0.099734 0.564050 0.047299
#
# Coordination Sequence:
#
# PCOD9274837 Si02
#       8
#     8   8   8   8   8   8   4   8
#     4  10  23  37  63  91 143 178 221 265 335 423
#     4  11  21  38  63  97 136 173 218 287 352 399
#     4  10  20  38  65  98 138 172 225 273 343 422
#     4  10  21  33  60  94 132 179 218 256 323 415
#     4  11  25  46  74  96 134 179 234 296 348 412
#     4  10  21  36  58  91 131 180 219 260 323 404
#     4  12  26  48  68 102 136 184 236 292 344 402
#     4  10  23  44  68  99 131 182 232 292 353 400
#
# _framework density 20.931035000000001
#
# number of rings (size 3 to 8) (size 9 to 14) (size 15 to 20)
#    0.000    1.600    2.667    2.000    9.333    2.133 
#    2.400    0.000    0.000    0.000    0.000    0.000 
#    0.000    0.000    0.000    0.000    0.000    0.000 
#
# Total GULP energy -167151.965360 kJ/mol
# GULP energy per Si atom -5571.732179 kJ/mol
# Density = 2.088339 g / cm^3
# Si number density = 20.931035 Si / 1000 Ang^3
#
#
#
# Elastic Constant Matrix: (Units=GPa)
#
#
# Indices 1 2 3 4 5 6 
#
# 1 75.4332 21.5232 28.3819 0.0000 -18.5897 0.0000
# 2 21.5232 76.8110 44.6377 0.0000 -10.1667 0.0000
# 3 28.3819 44.6377 109.6655 0.0000 -16.6776 0.0000
# 4 0.0000 0.0000 0.0000 29.4527 0.0000 -10.8591
# 5 -18.5897 -10.1667 -16.6776 0.0000 25.4098 0.0000
# 6 0.0000 0.0000 0.0000 -10.8591 0.0000 40.7957
#
#
#
# Elastic Compliance Matrix: (Units=1/GPa)
#
#
# Indices 1 2 3 4 5 6 
#
# 1 0.017206 -0.002327 -0.001925 0.000000 0.010393 0.000000
# 2 -0.002327 0.017514 -0.006354 0.000000 0.001135 0.000000
# 3 -0.001925 -0.006354 0.012889 0.000000 0.004509 0.000000
# 4 0.000000 0.000000 0.000000 0.037648 0.000000 0.010021
# 5 0.010393 0.001135 0.004509 0.000000 0.050372 0.000000
# 6 0.000000 0.000000 0.000000 0.010021 0.000000 0.027180
#
#
# Mechanical properties :
#
#
# Convention : Reuss Voigt Hill
#
# Bulk Modulus (GPa) = 37.88352 50.11059 43.99706
# Shear Modulus (GPa) = 25.93101 30.28945 28.11023
#
# Velocity S-wave (km/s) = 3.52359 3.80821 3.66866
# Velocity P-wave (km/s) = 5.89005 6.58251 6.24589
#
# Compressibility (1/GPa) = 0.02639670
#
# Stress axis : x y z
#
# Youngs Moduli (GPa) = 58.11777 57.09834 77.58631
#
# Poissons Ratio (x) = 0.13286 0.14938
# Poissons Ratio (y) = 0.13523 0.49298
# Poissons Ratio (z) = 0.11190 0.36280
#
# Static dielectric constant tensor:
#      x y z
#    x 2.320360 0.000000 0.063030 
#    y 0.000000 1.846990 0.000000 
#    z 0.063030 0.000000 1.789010 
# 
# From -- ./inp_files/61575.got.cif
#   From: 2010.05.17/outbox.cif.g08.bks.cpg/sg15_31_cif.got.tgz:61575.got - 2010.06.03 18:47:42.
