data_PCOD9274840
_publ_section_title
;
Structure prediction by ZEFSAII (Michael W. Deem and Ramdas Pophale) SiO2 
 PCOD9274840
Probable space group: C 2/C
;
_chemical_formula_sum "Si O2"
_cell_formula_units_Z 52
_cell_length_a 8.510481
_cell_length_b 27.869079
_cell_length_c 10.775562
_cell_angle_alpha 90.000000
_cell_angle_beta 87.702962
_cell_angle_gamma 90.000000
_cell_volume 2553.686282
_symmetry_space_group_name_H-M "C 2/C"
_symmetry_group_IT_number 15
_symmetry_cell_setting 'monoclinic'
loop_
_space_group_symop_operation_xyz
x,y,z
-x,y,1/2-z
-x,-y,-z
x,-y,1/2+z
1/2+x,1/2+y,z
1/2-x,1/2+y,1/2-z
1/2-x,1/2-y,-z
1/2+x,1/2-y,1/2+z
loop_
_atom_site_type_symbol
_atom_site_label
_atom_site_fract_x
_atom_site_fract_y
_atom_site_fract_z
Si Si1 0.175221 0.232198 0.375283
Si Si2 0.804276 0.048197 0.587397
Si Si3 0.675600 0.226800 0.621961
Si Si4 0.500000 0.621461 0.750000
Si Si5 0.566826 0.449243 0.876778
Si Si6 0.210146 0.138544 0.511014
Si Si7 0.447566 0.122279 0.891820
O O1 0.250000 0.250000 0.500000
O O2 0.251091 0.252444 0.246398
O O3 0.175210 0.175655 0.400703
O O4 0.002050 0.253906 0.374931
O O5 0.883232 0.086421 0.678541
O O6 0.641090 0.074492 0.559321
O O7 0.909876 0.041106 0.462008
O O8 0.824933 0.996137 0.649521
O O9 0.750000 0.250000 0.500000
O O10 0.665270 0.169274 0.611178
O O11 0.602092 0.647821 0.638228
O O12 0.500000 0.429557 0.750000
O O13 0.662960 0.412752 0.958535
O O14 0.393730 0.137404 0.541455
O O15 0.500000 0.112267 0.750000
#
# Coordination Sequence:
#
# PCOD9274840 Si02
#       7
#     8   8   8   4   8   8   8
#     4  11  23  44  63  95 136 175 219 277 333 393
#     4  10  22  39  68  92 128 173 222 276 337 396
#     4  11  26  42  65  96 136 179 221 271 339 408
#     4  10  20  38  66 100 118 178 226 260 328 410
#     4  10  23  43  64  95 134 172 226 277 334 416
#     4  11  24  39  68  98 137 177 224 278 342 406
#     4  12  22  43  66  99 137 168 226 288 328 405
#
# _framework density 20.362721000000001
#
# number of rings (size 3 to 8) (size 9 to 14) (size 15 to 20)
#    0.000    1.231    5.385    0.000    6.462    1.231 
#    0.000    2.308    0.000    0.000    0.000    0.000 
#    0.000    0.000    0.000    0.000    0.000    0.000 
#
# Total GULP energy -144965.598122 kJ/mol
# GULP energy per Si atom -5575.599928 kJ/mol
# Density = 2.031637 g / cm^3
# Si number density = 20.362721 Si / 1000 Ang^3
#
#
#
# Elastic Constant Matrix: (Units=GPa)
#
#
# Indices 1 2 3 4 5 6 
#
# 1 50.6173 40.8783 28.0900 0.0000 1.6731 0.0000
# 2 40.8783 108.2110 27.3415 0.0000 -9.4019 0.0000
# 3 28.0900 27.3415 126.8122 0.0000 -0.5826 0.0000
# 4 0.0000 0.0000 0.0000 16.9679 0.0000 4.9356
# 5 1.6731 -9.4019 -0.5826 0.0000 31.6728 0.0000
# 6 0.0000 0.0000 0.0000 4.9356 0.0000 31.4970
#
#
#
# Elastic Compliance Matrix: (Units=1/GPa)
#
#
# Indices 1 2 3 4 5 6 
#
# 1 0.031500 -0.011180 -0.004590 0.000000 -0.005067 0.000000
# 2 -0.011180 0.014008 -0.000522 0.000000 0.004739 0.000000
# 3 -0.004590 -0.000522 0.009016 0.000000 0.000253 0.000000
# 4 0.000000 0.000000 0.000000 0.061749 0.000000 -0.009676
# 5 -0.005067 0.004739 0.000253 0.000000 0.033252 0.000000
# 6 0.000000 0.000000 0.000000 -0.009676 0.000000 0.033265
#
#
# Mechanical properties :
#
#
# Convention : Reuss Voigt Hill
#
# Bulk Modulus (GPa) = 45.57945 53.14002 49.35974
# Shear Modulus (GPa) = 22.45287 28.64960 25.55123
#
# Velocity S-wave (km/s) = 3.32421 3.75502 3.54617
# Velocity P-wave (km/s) = 6.09641 6.70474 6.40780
#
# Compressibility (1/GPa) = 0.02193971
#
# Stress axis : x y z
#
# Youngs Moduli (GPa) = 31.74615 71.38629 110.91168
#
# Poissons Ratio (x) = 0.79810 0.50912
# Poissons Ratio (y) = 0.35492 0.05790
# Poissons Ratio (z) = 0.14572 0.03727
#
# Static dielectric constant tensor:
#      x y z
#    x 1.756990 0.000000 -0.009490 
#    y 0.000000 1.810090 0.000000 
#    z -0.009490 0.000000 1.757690 
# 
# From -- ./inp_files/80741.got.cif
#   From: 2010.05.17/outbox.cif.g08.bks.cpg/sg15_41_cif.got.tgz:80741.got - 2010.06.03 18:47:42.
