data_PCOD9274048
_publ_section_title
;
Structure prediction by ZEFSAII (Michael W. Deem and Ramdas Pophale) SiO2 
 PCOD9274048
Probable space group: C 2/C
;
_chemical_formula_sum "Si O2"
_cell_formula_units_Z 56
_cell_length_a 6.514871
_cell_length_b 22.964207
_cell_length_c 19.887159
_cell_angle_alpha 90.000000
_cell_angle_beta 73.555804
_cell_angle_gamma 90.000000
_cell_volume 2853.593154
_symmetry_space_group_name_H-M "C 2/C"
_symmetry_group_IT_number 15
_symmetry_cell_setting 'monoclinic'
loop_
_space_group_symop_operation_xyz
x,y,z
-x,y,1/2-z
-x,-y,-z
x,-y,1/2+z
1/2+x,1/2+y,z
1/2-x,1/2+y,1/2-z
1/2-x,1/2-y,-z
1/2+x,1/2-y,1/2+z
loop_
_atom_site_type_symbol
_atom_site_label
_atom_site_fract_x
_atom_site_fract_y
_atom_site_fract_z
Si Si1 0.475787 0.713284 0.561268
Si Si2 0.672817 0.983388 0.179064
Si Si3 0.867813 0.360209 0.065749
Si Si4 0.635576 0.147784 0.676964
Si Si5 0.113251 0.516067 0.920593
Si Si6 0.544995 0.426469 0.666509
Si Si7 0.739253 0.668916 0.055409
O O1 0.718502 0.692628 0.554038
O O2 0.341797 0.679825 0.630412
O O3 0.408135 0.691686 0.492634
O O4 0.377326 0.778103 0.573765
O O5 0.500000 0.003636 0.250000
O O6 0.850621 0.032790 0.159800
O O7 0.717000 0.916033 0.194661
O O8 0.574439 0.973815 0.115179
O O9 0.757157 0.423611 0.079662
O O10 0.970843 0.350296 0.129222
O O11 0.071987 0.367910 0.997647
O O12 0.500000 0.174619 0.750000
O O13 0.254476 0.467377 0.871217
O O14 0.000000 0.500000 0.000000
O O15 0.500000 0.416948 0.750000
O O16 0.596885 0.367488 0.620883
#
# Coordination Sequence:
#
# PCOD9274048 Si02
#       7
#     8   8   8   8   8   8   8
#     4  10  21  40  61  86 116 164 211 264 321 363
#     4  10  21  39  59  87 129 165 202 257 321 392
#     4  10  20  38  61  86 118 158 204 254 312 375
#     4   9  20  37  59  88 122 153 202 260 308 371
#     4  11  22  37  60  94 125 158 213 260 314 396
#     4  12  24  39  62  90 129 173 204 258 335 392
#     4  10  23  39  59  87 120 159 212 266 309 379
#
# _framework density 19.624382000000001
#
# number of rings (size 3 to 8) (size 9 to 14) (size 15 to 20)
#    0.000    1.714    2.857    1.286    2.000    1.714 
#    0.000    0.000    0.000    1.714    0.000    0.000 
#    0.000    0.000    0.000    0.000    0.000    0.000 
#
# Total GULP energy -155907.419537 kJ/mol
# GULP energy per Si atom -5568.122126 kJ/mol
# Density = 1.957972 g / cm^3
# Si number density = 19.624382 Si / 1000 Ang^3
#
#
#
# Elastic Constant Matrix: (Units=GPa)
#
#
# Indices 1 2 3 4 5 6 
#
# 1 57.9679 19.6851 23.1803 0.0000 -0.1547 0.0000
# 2 19.6851 86.0817 31.1098 0.0000 1.9122 0.0000
# 3 23.1803 31.1098 136.8784 0.0000 -8.8265 0.0000
# 4 0.0000 0.0000 0.0000 3.3307 0.0000 0.9400
# 5 -0.1547 1.9122 -8.8265 0.0000 19.8998 0.0000
# 6 0.0000 0.0000 0.0000 0.9400 0.0000 28.6136
#
#
#
# Elastic Compliance Matrix: (Units=1/GPa)
#
#
# Indices 1 2 3 4 5 6 
#
# 1 0.019458 -0.003519 -0.002536 0.000000 -0.000636 0.000000
# 2 -0.003519 0.013421 -0.002614 0.000000 -0.002477 0.000000
# 3 -0.002536 -0.002614 0.008590 0.000000 0.004042 0.000000
# 4 0.000000 0.000000 0.000000 0.303045 0.000000 -0.009956
# 5 -0.000636 -0.002477 0.004042 0.000000 0.052278 0.000000
# 6 0.000000 0.000000 0.000000 -0.009956 0.000000 0.035276
#
#
# Mechanical properties :
#
#
# Convention : Reuss Voigt Hill
#
# Bulk Modulus (GPa) = 41.44098 47.65314 44.54706
# Shear Modulus (GPa) = 10.93014 24.16567 17.54791
#
# Velocity S-wave (km/s) = 2.36258 3.51295 2.99354
# Velocity P-wave (km/s) = 5.34839 6.38669 5.89046
#
# Compressibility (1/GPa) = 0.02413071
#
# Stress axis : x y z
#
# Youngs Moduli (GPa) = 51.39144 74.50813 116.41341
#
# Poissons Ratio (x) = 0.26219 0.29528
# Poissons Ratio (y) = 0.18084 0.30433
# Poissons Ratio (z) = 0.13035 0.19478
#
# Static dielectric constant tensor:
#      x y z
#    x 1.731880 0.000000 -0.014350 
#    y 0.000000 1.756930 0.000000 
#    z -0.014350 0.000000 1.684450 
# 
# From -- ./inp_files/228096.got.cif
#   From: 2010.05.17/outbox.cif.g08.bks.cpg/sg15_115_cif.got.tgz:228096.got - 2010.06.03 18:47:42.
