data_PCOD9274008
_publ_section_title
;
Structure prediction by ZEFSAII (Michael W. Deem and Ramdas Pophale) SiO2 
 PCOD9274008
Probable space group: C 2/C
;
_chemical_formula_sum "Si O2"
_cell_formula_units_Z 56
_cell_length_a 23.196534
_cell_length_b 16.553598
_cell_length_c 8.985911
_cell_angle_alpha 90.000000
_cell_angle_beta 131.354389
_cell_angle_gamma 90.000000
_cell_volume 2590.047585
_symmetry_space_group_name_H-M "C 2/C"
_symmetry_group_IT_number 15
_symmetry_cell_setting 'monoclinic'
loop_
_space_group_symop_operation_xyz
x,y,z
-x,y,1/2-z
-x,-y,-z
x,-y,1/2+z
1/2+x,1/2+y,z
1/2-x,1/2+y,1/2-z
1/2-x,1/2-y,-z
1/2+x,1/2-y,1/2+z
loop_
_atom_site_type_symbol
_atom_site_label
_atom_site_fract_x
_atom_site_fract_y
_atom_site_fract_z
Si Si1 0.212636 0.390258 0.336996
Si Si2 0.500000 0.267817 0.750000
Si Si3 0.500000 0.341068 0.250000
Si Si4 0.081955 0.974047 0.209033
Si Si5 0.634751 0.388412 0.022094
Si Si6 0.831871 0.534741 0.440235
Si Si7 0.052315 0.699107 0.539560
Si Si8 0.065175 0.565031 0.152342
O O1 0.287749 0.346154 0.402534
O O2 0.214620 0.474856 0.248007
O O3 0.211114 0.410409 0.510773
O O4 0.133458 0.345486 0.161200
O O5 0.565785 0.325743 0.928631
O O6 0.539638 0.215197 0.691911
O O7 0.562160 0.399576 0.281865
O O8 0.542980 0.283343 0.439733
O O9 0.112023 0.049916 0.351969
O O10 0.138172 0.941622 0.177454
O O11 0.000000 0.000000 0.000000
O O12 0.885566 0.581078 0.412890
O O13 0.883807 0.476533 0.633712
O O14 0.979983 0.643413 0.372390
O O15 0.000000 0.500000 0.000000
#
# Coordination Sequence:
#
# PCOD9274008 Si02
#       8
#     8   4   4   8   8   8   8   8
#     4  11  24  39  63  95 134 163 209 269 333 369
#     4  12  25  42  65  90 122 172 218 252 327 392
#     4  12  23  40  67 100 124 172 212 268 329 382
#     4  12  21  44  73  97 117 160 229 279 312 375
#     4  12  24  44  70  94 124 164 216 278 319 388
#     4  10  20  38  60  98 120 168 219 264 309 368
#     4  12  24  38  62  95 135 169 209 264 322 392
#     4  11  20  35  66  87 127 175 227 257 296 377
#
# _framework density 21.621224999999999
#
# number of rings (size 3 to 8) (size 9 to 14) (size 15 to 20)
#    0.000    0.571    7.143    3.000    0.000    0.571 
#    0.000    0.714    3.143    0.000    0.000    0.000 
#    0.000    0.000    0.000    0.000    0.000    0.000 
#
# Total GULP energy -156580.250958 kJ/mol
# GULP energy per Si atom -5592.151820 kJ/mol
# Density = 2.157201 g / cm^3
# Si number density = 21.621225 Si / 1000 Ang^3
#
#
#
# Elastic Constant Matrix: (Units=GPa)
#
#
# Indices 1 2 3 4 5 6 
#
# 1 157.4669 15.4217 22.6274 0.0000 -2.5395 0.0000
# 2 15.4217 35.0866 -8.1619 0.0000 6.2451 0.0000
# 3 22.6274 -8.1619 34.6354 0.0000 -14.7978 0.0000
# 4 0.0000 0.0000 0.0000 19.7717 0.0000 -19.7902
# 5 -2.5395 6.2451 -14.7978 0.0000 34.3547 0.0000
# 6 0.0000 0.0000 0.0000 -19.7902 0.0000 32.8519
#
#
#
# Elastic Compliance Matrix: (Units=1/GPa)
#
#
# Indices 1 2 3 4 5 6 
#
# 1 0.007773 -0.004739 -0.006840 0.000000 -0.001510 0.000000
# 2 -0.004739 0.033292 0.010057 0.000000 -0.002070 0.000000
# 3 -0.006840 0.010057 0.042543 0.000000 0.015991 0.000000
# 4 0.000000 0.000000 0.000000 0.127390 0.000000 0.076741
# 5 -0.001510 -0.002070 0.015991 0.000000 0.036261 0.000000
# 6 0.000000 0.000000 0.000000 0.076741 0.000000 0.076669
#
#
# Mechanical properties :
#
#
# Convention : Reuss Voigt Hill
#
# Bulk Modulus (GPa) = 12.41272 31.88483 22.14878
# Shear Modulus (GPa) = 14.13122 30.54911 22.34017
#
# Velocity S-wave (km/s) = 2.55930 3.76296 3.21791
# Velocity P-wave (km/s) = 3.80615 5.80163 4.90641
#
# Compressibility (1/GPa) = 0.08056249
#
# Stress axis : x y z
#
# Youngs Moduli (GPa) = 128.64688 30.03753 23.50575
#
# Poissons Ratio (x) = 0.14235 0.16079
# Poissons Ratio (y) = 0.60965 -0.23639
# Poissons Ratio (z) = 0.87998 -0.30208
#
# Static dielectric constant tensor:
#      x y z
#    x 1.836040 0.000000 0.009230 
#    y 0.000000 1.797330 0.000000 
#    z 0.009230 0.000000 1.816390 
# 
# From -- ./inp_files/62811.got.cif
#   From: 2010.05.17/outbox.cif.g08.bks.cpg/sg15_32_cif.got.tgz:62811.got - 2010.06.03 18:47:42.
