data_PCOD9274633
_publ_section_title
;
Structure prediction by ZEFSAII (Michael W. Deem and Ramdas Pophale) SiO2 
 PCOD9274633
Probable space group: C 2/C
;
_chemical_formula_sum "Si O2"
_cell_formula_units_Z 48
_cell_length_a 8.611488
_cell_length_b 17.670667
_cell_length_c 18.339215
_cell_angle_alpha 90.000000
_cell_angle_beta 127.263352
_cell_angle_gamma 90.000000
_cell_volume 2221.002606
_symmetry_space_group_name_H-M "C 2/C"
_symmetry_group_IT_number 15
_symmetry_cell_setting 'monoclinic'
loop_
_space_group_symop_operation_xyz
x,y,z
-x,y,1/2-z
-x,-y,-z
x,-y,1/2+z
1/2+x,1/2+y,z
1/2-x,1/2+y,1/2-z
1/2-x,1/2-y,-z
1/2+x,1/2-y,1/2+z
loop_
_atom_site_type_symbol
_atom_site_label
_atom_site_fract_x
_atom_site_fract_y
_atom_site_fract_z
Si Si1 0.175580 0.703802 0.746934
Si Si2 0.621725 0.058583 0.486857
Si Si3 0.681963 0.463823 0.596348
Si Si4 0.341798 0.197524 0.415602
Si Si5 0.045155 0.062121 0.681700
Si Si6 0.502177 0.693414 0.077514
O O1 0.259377 0.775404 0.815253
O O2 0.339251 0.641124 0.781672
O O3 0.094595 0.736533 0.648152
O O4 0.000000 0.675333 0.750000
O O5 0.641777 0.028483 0.409872
O O6 0.512120 0.138061 0.456113
O O7 0.836906 0.069214 0.582089
O O8 0.500000 0.000000 0.500000
O O9 0.500000 0.500000 0.500000
O O10 0.679546 0.506660 0.672007
O O11 0.642386 0.375462 0.599138
O O12 0.411613 0.272650 0.478209
O O13 0.170482 0.164346 0.418336
O O14 0.000000 0.033761 0.750000
#
# Coordination Sequence:
#
# PCOD9274633 Si02
#       6
#     8   8   8   8   8   8
#     4  10  23  41  63  93 126 166 217 268 329 395
#     4  11  24  41  64  94 129 171 218 265 323 395
#     4  10  22  40  63  90 125 168 214 263 319 382
#     4  10  20  38  64  90 127 168 204 265 331 383
#     4  11  24  41  65  93 129 170 214 270 326 391
#     4  10  21  39  64  93 126 167 216 268 325 392
#
# _framework density 21.611861000000001
#
# number of rings (size 3 to 8) (size 9 to 14) (size 15 to 20)
#    0.000    1.667    0.000    5.000    0.000   11.333 
#    0.000    1.667    0.000    0.000    0.000    0.000 
#    0.000    0.000    0.000    0.000    0.000    0.000 
#
# Total GULP energy -134203.790651 kJ/mol
# GULP energy per Si atom -5591.824610 kJ/mol
# Density = 2.156267 g / cm^3
# Si number density = 21.611861 Si / 1000 Ang^3
#
#
#
# Elastic Constant Matrix: (Units=GPa)
#
#
# Indices 1 2 3 4 5 6 
#
# 1 132.0795 46.1979 29.2314 0.0000 -21.6470 0.0000
# 2 46.1979 39.3014 -2.0979 0.0000 -6.1062 0.0000
# 3 29.2314 -2.0979 62.3230 0.0000 -7.0413 0.0000
# 4 0.0000 0.0000 0.0000 16.6557 0.0000 2.3396
# 5 -21.6470 -6.1062 -7.0413 0.0000 39.9110 0.0000
# 6 0.0000 0.0000 0.0000 2.3396 0.0000 24.0520
#
#
#
# Elastic Compliance Matrix: (Units=1/GPa)
#
#
# Indices 1 2 3 4 5 6 
#
# 1 0.017062 -0.019744 -0.008125 0.000000 0.004800 0.000000
# 2 -0.019744 0.049024 0.010763 0.000000 -0.001309 0.000000
# 3 -0.008125 0.010763 0.020312 0.000000 0.000823 0.000000
# 4 0.000000 0.000000 0.000000 0.060871 0.000000 -0.005921
# 5 0.004800 -0.001309 0.000823 0.000000 0.027604 0.000000
# 6 0.000000 0.000000 0.000000 -0.005921 0.000000 0.042153
#
#
# Mechanical properties :
#
#
# Convention : Reuss Voigt Hill
#
# Bulk Modulus (GPa) = 19.16242 42.26295 30.71269
# Shear Modulus (GPa) = 18.61281 26.81525 22.71403
#
# Velocity S-wave (km/s) = 2.93786 3.52627 3.24543
# Velocity P-wave (km/s) = 4.51596 6.01476 5.31842
#
# Compressibility (1/GPa) = 0.05218547
#
# Stress axis : x y z
#
# Youngs Moduli (GPa) = 58.61005 20.39820 49.23306
#
# Poissons Ratio (x) = 0.40274 0.40001
# Poissons Ratio (y) = 1.15719 -0.52988
# Poissons Ratio (z) = 0.47620 -0.21954
#
# Static dielectric constant tensor:
#      x y z
#    x 1.790050 0.000000 0.018840 
#    y 0.000000 1.736030 0.000000 
#    z 0.018840 0.000000 1.758150 
# 
# From -- ./inp_files/190630.got.cif
#   From: 2010.05.17/outbox.cif.g08.bks.cpg/sg15_96_cif.got.tgz:190630.got - 2010.06.03 18:47:42.
