data_PCOD9274890
_publ_section_title
;
Structure prediction by ZEFSAII (Michael W. Deem and Ramdas Pophale) SiO2 
 PCOD9274890
Probable space group: C 2/C
;
_chemical_formula_sum "Si O2"
_cell_formula_units_Z 44
_cell_length_a 29.572442
_cell_length_b 15.138507
_cell_length_c 14.995282
_cell_angle_alpha 90.000000
_cell_angle_beta 18.047170
_cell_angle_gamma 90.000000
_cell_volume 2079.725898
_symmetry_space_group_name_H-M "C 2/C"
_symmetry_group_IT_number 15
_symmetry_cell_setting 'monoclinic'
loop_
_space_group_symop_operation_xyz
x,y,z
-x,y,1/2-z
-x,-y,-z
x,-y,1/2+z
1/2+x,1/2+y,z
1/2-x,1/2+y,1/2-z
1/2-x,1/2-y,-z
1/2+x,1/2-y,1/2+z
loop_
_atom_site_type_symbol
_atom_site_label
_atom_site_fract_x
_atom_site_fract_y
_atom_site_fract_z
Si Si1 0.738672 0.137687 0.792963
Si Si2 0.000000 0.496582 0.250000
Si Si3 0.500000 0.463122 0.750000
Si Si4 0.081628 0.903631 0.237324
Si Si5 0.500000 0.735650 0.750000
Si Si6 0.579111 0.074456 0.410165
Si Si7 0.391141 0.727559 0.674287
O O1 0.830197 0.188481 0.696541
O O2 0.856332 0.095021 0.508029
O O3 0.635643 0.059577 0.023534
O O4 0.619165 0.204306 0.977173
O O5 0.050513 0.443461 0.068454
O O6 0.513238 0.522616 0.635768
O O7 0.084496 0.825614 0.159214
O O8 0.028790 0.853613 0.425208
O O9 0.248045 0.934643 0.934984
O O10 0.534552 0.176580 0.474445
O O11 0.500000 0.000000 0.500000
O O12 0.250000 0.750000 0.000000
#
# Coordination Sequence:
#
# PCOD9274890 Si02
#       7
#     8   4   4   8   4   8   8
#     4  11  22  38  64  93 126 173 213 268 326 394
#     4  11  22  38  64  97 128 170 223 278 320 380
#     4  11  24  40  62  99 132 162 221 274 332 388
#     4  10  21  41  63  90 132 175 212 265 331 409
#     4  10  20  38  66  90 118 176 220 248 336 398
#     4  11  22  38  66 100 128 169 228 271 318 388
#     4  10  20  39  60  91 124 177 209 267 328 398
#
# _framework density 21.156634
#
# number of rings (size 3 to 8) (size 9 to 14) (size 15 to 20)
#    0.000    1.455    5.455    2.182    2.545    1.455 
#    0.000    0.000    0.000    3.273    0.000    0.000 
#    0.000    0.000    0.000    0.000    0.000    0.000 
#
# Total GULP energy -122639.944757 kJ/mol
# GULP energy per Si atom -5574.542944 kJ/mol
# Density = 2.110848 g / cm^3
# Si number density = 21.156634 Si / 1000 Ang^3
#
#
#
# Elastic Constant Matrix: (Units=GPa)
#
#
# Indices 1 2 3 4 5 6 
#
# 1 87.0232 53.3336 3.8305 0.0000 -6.5665 0.0000
# 2 53.3336 121.1062 41.6708 0.0000 -4.9478 0.0000
# 3 3.8305 41.6708 48.7797 0.0000 -15.0243 0.0000
# 4 0.0000 0.0000 0.0000 17.5319 0.0000 -8.7540
# 5 -6.5665 -4.9478 -15.0243 0.0000 28.5641 0.0000
# 6 0.0000 0.0000 0.0000 -8.7540 0.0000 30.4151
#
#
#
# Elastic Compliance Matrix: (Units=1/GPa)
#
#
# Indices 1 2 3 4 5 6 
#
# 1 0.018832 -0.011774 0.011079 0.000000 0.008117 0.000000
# 2 -0.011774 0.019423 -0.018455 0.000000 -0.009049 0.000000
# 3 0.011079 -0.018455 0.041999 0.000000 0.021441 0.000000
# 4 0.000000 0.000000 0.000000 0.066612 0.000000 0.019172
# 5 0.008117 -0.009049 0.021441 0.000000 0.046585 0.000000
# 6 0.000000 0.000000 0.000000 0.019172 0.000000 0.038396
#
#
# Mechanical properties :
#
#
# Convention : Reuss Voigt Hill
#
# Bulk Modulus (GPa) = 23.83475 50.50877 37.17176
# Shear Modulus (GPa) = 17.59754 25.84050 21.71902
#
# Velocity S-wave (km/s) = 2.88718 3.49863 3.20751
# Velocity P-wave (km/s) = 4.73336 6.34398 5.59691
#
# Compressibility (1/GPa) = 0.04195555
#
# Stress axis : x y z
#
# Youngs Moduli (GPa) = 53.10148 51.48659 23.80989
#
# Poissons Ratio (x) = 0.60620 -0.26380
# Poissons Ratio (y) = 0.62521 0.43940
# Poissons Ratio (z) = -0.58833 0.95016
#
# Static dielectric constant tensor:
#      x y z
#    x 1.845920 0.000000 -0.015860 
#    y 0.000000 1.840570 0.000000 
#    z -0.015860 0.000000 1.745850 
# 
# From -- ./inp_files/182278.got.cif
#   From: 2010.05.17/outbox.cif.g08.bks.cpg/sg15_92_cif.got.tgz:182278.got - 2010.06.03 18:47:42.
