data_PCOD9274919
_publ_section_title
;
Structure prediction by ZEFSAII (Michael W. Deem and Ramdas Pophale) SiO2 
 PCOD9274919
Probable space group: C 2/C
;
_chemical_formula_sum "Si O2"
_cell_formula_units_Z 32
_cell_length_a 18.908006
_cell_length_b 11.649294
_cell_length_c 14.538429
_cell_angle_alpha 90.000000
_cell_angle_beta 26.227774
_cell_angle_gamma 90.000000
_cell_volume 1415.229460
_symmetry_space_group_name_H-M "C 2/C"
_symmetry_group_IT_number 15
_symmetry_cell_setting 'monoclinic'
loop_
_space_group_symop_operation_xyz
x,y,z
-x,y,1/2-z
-x,-y,-z
x,-y,1/2+z
1/2+x,1/2+y,z
1/2-x,1/2+y,1/2-z
1/2-x,1/2-y,-z
1/2+x,1/2-y,1/2+z
loop_
_atom_site_type_symbol
_atom_site_label
_atom_site_fract_x
_atom_site_fract_y
_atom_site_fract_z
Si Si1 0.527735 0.142445 0.325529
Si Si2 0.847068 0.596318 0.863918
Si Si3 0.640616 0.332421 0.758423
Si Si4 0.196197 0.215427 0.777409
O O1 0.500000 0.165111 0.250000
O O2 0.354077 0.141399 0.576214
O O3 0.630336 0.237747 0.257728
O O4 0.615931 0.021064 0.229914
O O5 0.830807 0.704313 0.816551
O O6 0.000000 0.621971 0.750000
O O7 0.702445 0.586242 0.105416
O O8 0.748242 0.324036 0.724434
O O9 0.455064 0.345745 0.998922
#
# Coordination Sequence:
#
# PCOD9274919 Si02
#       4
#     8   8   8   8
#     4  10  22  41  65  87 129 167 207 249 320 369
#     4  10  20  38  66  93 126 162 206 256 322 357
#     4  10  20  39  66  93 127 158 208 265 308 358
#     4  10  21  37  67  90 126 163 207 256 302 368
#
# _framework density 22.611174999999999
#
# number of rings (size 3 to 8) (size 9 to 14) (size 15 to 20)
#    0.000    2.000    2.500    0.750    0.000    4.000 
#    0.000    5.000   44.000    0.000    0.000    0.000 
#    0.000    0.000    0.000    0.000    0.000    0.000 
#
# Total GULP energy -89445.182970 kJ/mol
# GULP energy per Si atom -5590.323936 kJ/mol
# Density = 2.255971 g / cm^3
# Si number density = 22.611175 Si / 1000 Ang^3
#
#
#
# Elastic Constant Matrix: (Units=GPa)
#
#
# Indices 1 2 3 4 5 6 
#
# 1 34.5138 6.8593 13.0185 0.0001 7.8985 -0.0001
# 2 6.8593 58.7401 35.7715 0.0000 7.5319 0.0000
# 3 13.0185 35.7715 170.8573 0.0002 6.5746 -0.0002
# 4 0.0001 0.0000 0.0002 20.5859 -0.0001 1.8359
# 5 7.8985 7.5319 6.5746 -0.0001 31.6278 0.0001
# 6 -0.0001 0.0000 -0.0002 1.8359 0.0001 14.3067
#
#
#
# Elastic Compliance Matrix: (Units=1/GPa)
#
#
# Indices 1 2 3 4 5 6 
#
# 1 0.031612 -0.001694 -0.001780 0.000000 -0.007121 0.000000
# 2 -0.001694 0.020074 -0.003937 0.000000 -0.003539 0.000000
# 3 -0.001780 -0.003937 0.006814 0.000000 -0.000034 0.000000
# 4 0.000000 0.000000 0.000000 0.049139 0.000000 -0.006306
# 5 -0.007121 -0.003539 -0.000034 0.000000 0.034246 0.000000
# 6 0.000000 0.000000 0.000000 -0.006306 0.000000 0.070706
#
#
# Mechanical properties :
#
#
# Convention : Reuss Voigt Hill
#
# Bulk Modulus (GPa) = 22.89591 41.71221 32.30406
# Shear Modulus (GPa) = 20.66345 27.20155 23.93250
#
# Velocity S-wave (km/s) = 3.02629 3.47221 3.25689
# Velocity P-wave (km/s) = 4.72855 5.87900 5.33488
#
# Compressibility (1/GPa) = 0.04367592
#
# Stress axis : x y z
#
# Youngs Moduli (GPa) = 31.63391 49.81673 146.75375
#
# Poissons Ratio (x) = 0.08441 0.26121
# Poissons Ratio (y) = 0.05360 0.57783
# Poissons Ratio (z) = 0.05631 0.19615
#
# Static dielectric constant tensor:
#      x y z
#    x 1.838880 0.000000 0.027980 
#    y 0.000000 1.824810 0.000000 
#    z 0.027980 0.000000 1.873020 
# 
# From -- ./inp_files/36718.got.cif
#   From: 2010.05.17/outbox.cif.g08.bks.cpg/sg15_19_cif.got.tgz:36718.got - 2010.06.03 18:47:42.
