data_PCOD9274026
_publ_section_title
;
Structure prediction by ZEFSAII (Michael W. Deem and Ramdas Pophale) SiO2 
 PCOD9274026
Probable space group: C 2/C
;
_chemical_formula_sum "Si O2"
_cell_formula_units_Z 56
_cell_length_a 12.822679
_cell_length_b 26.600278
_cell_length_c 15.253524
_cell_angle_alpha 90.000000
_cell_angle_beta 30.192184
_cell_angle_gamma 90.000000
_cell_volume 2616.486719
_symmetry_space_group_name_H-M "C 2/C"
_symmetry_group_IT_number 15
_symmetry_cell_setting 'monoclinic'
loop_
_space_group_symop_operation_xyz
x,y,z
-x,y,1/2-z
-x,-y,-z
x,-y,1/2+z
1/2+x,1/2+y,z
1/2-x,1/2+y,1/2-z
1/2-x,1/2-y,-z
1/2+x,1/2-y,1/2+z
loop_
_atom_site_type_symbol
_atom_site_label
_atom_site_fract_x
_atom_site_fract_y
_atom_site_fract_z
Si Si1 0.842089 0.311573 0.025750
Si Si2 0.000000 0.870802 0.750000
Si Si3 0.697430 0.347974 0.777018
Si Si4 0.644663 0.439466 0.908688
Si Si5 0.187239 0.460691 0.971943
Si Si6 0.434634 0.307064 0.437501
Si Si7 0.000000 0.465825 0.750000
Si Si8 0.262216 0.534820 0.765356
O O1 0.661990 0.315976 0.230183
O O2 0.733131 0.326784 0.012566
O O3 0.902019 0.253125 0.968150
O O4 0.056471 0.338176 0.898289
O O5 0.917547 0.835845 0.730285
O O6 0.187070 0.910862 0.594549
O O7 0.639251 0.407090 0.826012
O O8 0.604758 0.326359 0.935145
O O9 0.695180 0.496893 0.846565
O O10 0.856119 0.427829 0.802342
O O11 0.452964 0.428578 0.111402
O O12 0.133656 0.496326 0.092983
O O13 0.970072 0.446526 0.080388
O O14 0.288990 0.500978 0.831376
#
# Coordination Sequence:
#
# PCOD9274026 Si02
#       8
#     8   4   8   8   8   8   4   8
#     4  10  21  43  75 105 126 165 212 269 354 413
#     4  12  26  42  60  92 137 188 223 268 324 392
#     4  12  25  41  65 100 141 172 221 278 326 401
#     4  10  21  37  56  89 125 160 213 275 330 375
#     4  10  20  38  61  83 118 179 232 271 316 388
#     4  10  21  43  76 101 129 166 209 273 347 420
#     4  10  22  34  62  86 117 168 215 282 338 378
#     4   9  19  39  60  81 120 175 226 269 316 382
#
# _framework density 21.402747000000002
#
# number of rings (size 3 to 8) (size 9 to 14) (size 15 to 20)
#    0.000    1.714    2.857    1.286    6.000    1.143 
#    0.000    0.714    0.000    0.000    0.000    0.000 
#    0.000    0.000    0.000    0.000    0.000    0.000 
#
# Total GULP energy -155996.329087 kJ/mol
# GULP energy per Si atom -5571.297467 kJ/mol
# Density = 2.135403 g / cm^3
# Si number density = 21.402747 Si / 1000 Ang^3
#
#
#
# Elastic Constant Matrix: (Units=GPa)
#
#
# Indices 1 2 3 4 5 6 
#
# 1 147.4178 16.0747 66.4583 -0.0025 8.7226 -0.0030
# 2 16.0747 35.0183 23.6224 -0.0018 5.8133 -0.0010
# 3 66.4583 23.6224 135.7283 -0.0015 6.2533 -0.0047
# 4 -0.0025 -0.0018 -0.0015 5.6174 0.0012 6.4224
# 5 8.7226 5.8133 6.2533 0.0012 24.5227 0.0049
# 6 -0.0030 -0.0010 -0.0047 6.4224 0.0049 30.7470
#
#
#
# Elastic Compliance Matrix: (Units=1/GPa)
#
#
# Indices 1 2 3 4 5 6 
#
# 1 0.008836 -0.001003 -0.004066 0.000003 -0.001868 0.000000
# 2 -0.001003 0.033463 -0.005043 0.000012 -0.006290 -0.000001
# 3 -0.004066 -0.005043 0.010235 -0.000002 0.000032 0.000002
# 4 0.000003 0.000012 -0.000002 0.233868 -0.000005 -0.048850
# 5 -0.001868 -0.006290 0.000032 -0.000005 0.042926 -0.000006
# 6 0.000000 -0.000001 0.000002 -0.048850 -0.000006 0.042727
#
#
# Mechanical properties :
#
#
# Convention : Reuss Voigt Hill
#
# Bulk Modulus (GPa) = 30.95034 58.94170 44.94602
# Shear Modulus (GPa) = 12.40540 26.31135 19.35837
#
# Velocity S-wave (km/s) = 2.41014 3.51000 3.01072
# Velocity P-wave (km/s) = 4.71565 6.63520 5.75601
#
# Compressibility (1/GPa) = 0.03230982
#
# Stress axis : x y z
#
# Youngs Moduli (GPa) = 113.16819 29.88372 97.70626
#
# Poissons Ratio (x) = 0.02998 0.39727
# Poissons Ratio (y) = 0.11354 0.49273
# Poissons Ratio (z) = 0.46014 0.15070
#
# Static dielectric constant tensor:
#      x y z
#    x 1.927360 0.000000 -0.101770 
#    y 0.000000 1.858820 0.000000 
#    z -0.101770 0.000000 1.901830 
# 
# From -- ./inp_files/149286.got.cif
#   From: 2010.05.17/outbox.cif.g08.bks.cpg/sg15_75_cif.got.tgz:149286.got - 2010.06.03 18:47:42.
