data_PCOD9274643
_publ_section_title
;
Structure prediction by ZEFSAII (Michael W. Deem and Ramdas Pophale) SiO2 
 PCOD9274643
Probable space group: C 2/C
;
_chemical_formula_sum "Si O2"
_cell_formula_units_Z 52
_cell_length_a 14.361308
_cell_length_b 12.987540
_cell_length_c 15.076306
_cell_angle_alpha 90.000000
_cell_angle_beta 81.016868
_cell_angle_gamma 90.000000
_cell_volume 2777.512336
_symmetry_space_group_name_H-M "C 2/C"
_symmetry_group_IT_number 15
_symmetry_cell_setting 'monoclinic'
loop_
_space_group_symop_operation_xyz
x,y,z
-x,y,1/2-z
-x,-y,-z
x,-y,1/2+z
1/2+x,1/2+y,z
1/2-x,1/2+y,1/2-z
1/2-x,1/2-y,-z
1/2+x,1/2-y,1/2+z
loop_
_atom_site_type_symbol
_atom_site_label
_atom_site_fract_x
_atom_site_fract_y
_atom_site_fract_z
Si Si1 0.547878 0.478099 0.899020
Si Si2 0.229121 0.454775 0.624896
Si Si3 0.799198 0.232606 0.780518
Si Si4 0.193876 0.658751 0.958744
Si Si5 0.525407 0.236481 0.878898
Si Si6 0.644485 0.836126 0.189975
Si Si7 0.500000 0.632011 0.750000
O O1 0.661293 0.486777 0.887213
O O2 0.528716 0.359577 0.876568
O O3 0.506312 0.557038 0.833810
O O4 0.500000 0.500000 0.000000
O O5 0.216982 0.347032 0.679094
O O6 0.200400 0.434038 0.526765
O O7 0.166209 0.543936 0.676230
O O8 0.749897 0.152512 0.857537
O O9 0.743773 0.219119 0.696385
O O10 0.907438 0.202260 0.761936
O O11 0.087689 0.694726 0.951742
O O12 0.250000 0.750000 0.000000
O O13 0.418096 0.200514 0.883726
O O14 0.582331 0.193499 0.785196
#
# Coordination Sequence:
#
# PCOD9274643 Si02
#       7
#     8   8   8   8   8   8   4
#     4  12  24  39  67  96 120 164 221 256 307 376
#     4  11  21  39  63  90 124 164 207 256 310 382
#     4  10  21  38  61  88 129 161 205 262 314 367
#     4   9  17  35  61  83 119 165 199 249 308 371
#     4  10  21  39  63  88 123 168 199 255 318 370
#     4  10  20  38  64  91 122 162 207 254 309 372
#     4  12  24  36  64  98 120 164 214 266 310 362
#
# _framework density 18.721789000000001
#
# number of rings (size 3 to 8) (size 9 to 14) (size 15 to 20)
#    0.000    1.538    6.154    1.846    2.154    1.846 
#    0.000    0.769    6.769    0.000    0.000    0.000 
#    0.000    0.000    0.000    0.000    0.000    0.000 
#
# Total GULP energy -144933.932532 kJ/mol
# GULP energy per Si atom -5574.382020 kJ/mol
# Density = 1.867918 g / cm^3
# Si number density = 18.721789 Si / 1000 Ang^3
#
#
#
# Elastic Constant Matrix: (Units=GPa)
#
#
# Indices 1 2 3 4 5 6 
#
# 1 169.3711 44.0288 37.1916 0.0000 25.8205 0.0000
# 2 44.0288 82.7024 27.4554 0.0000 -10.3939 0.0000
# 3 37.1916 27.4554 59.0935 0.0000 3.7783 0.0000
# 4 0.0000 0.0000 0.0000 25.8201 0.0000 -1.6596
# 5 25.8205 -10.3939 3.7783 0.0000 31.9064 0.0000
# 6 0.0000 0.0000 0.0000 -1.6596 0.0000 26.9606
#
#
#
# Elastic Compliance Matrix: (Units=1/GPa)
#
#
# Indices 1 2 3 4 5 6 
#
# 1 0.009171 -0.005021 -0.002882 0.000000 -0.008716 0.000000
# 2 -0.005021 0.018067 -0.005915 0.000000 0.010649 0.000000
# 3 -0.002882 -0.005915 0.021622 0.000000 -0.002155 0.000000
# 4 0.000000 0.000000 0.000000 0.038883 0.000000 0.002394
# 5 -0.008716 0.010649 -0.002155 0.000000 0.042120 0.000000
# 6 0.000000 0.000000 0.000000 0.002394 0.000000 0.037238
#
#
# Mechanical properties :
#
#
# Convention : Reuss Voigt Hill
#
# Bulk Modulus (GPa) = 47.11587 58.72430 52.92008
# Shear Modulus (GPa) = 24.77565 30.43682 27.60624
#
# Velocity S-wave (km/s) = 3.64175 4.03643 3.84415
# Velocity P-wave (km/s) = 6.55012 7.29099 6.93046
#
# Compressibility (1/GPa) = 0.02122427
#
# Stress axis : x y z
#
# Youngs Moduli (GPa) = 109.03860 55.35064 46.24954
#
# Poissons Ratio (x) = 0.27793 0.13328
# Poissons Ratio (y) = 0.54750 0.27355
# Poissons Ratio (z) = 0.31423 0.32738
#
# Static dielectric constant tensor:
#      x y z
#    x 1.686220 0.000000 0.038240 
#    y 0.000000 1.630170 0.000000 
#    z 0.038240 0.000000 1.687550 
# 
# From -- ./inp_files/203548.got.cif
#   From: 2010.05.17/outbox.cif.g08.bks.cpg/sg15_102_cif.got.tgz:203548.got - 2010.06.03 18:47:42.
