data_PCOD9274727
_publ_section_title
;
Structure prediction by ZEFSAII (Michael W. Deem and Ramdas Pophale) SiO2 
 PCOD9274727
Probable space group: C 2/C
;
_chemical_formula_sum "Si O2"
_cell_formula_units_Z 60
_cell_length_a 12.161569
_cell_length_b 9.199305
_cell_length_c 23.574231
_cell_angle_alpha 90.000000
_cell_angle_beta 81.295048
_cell_angle_gamma 90.000000
_cell_volume 2607.056261
_symmetry_space_group_name_H-M "C 2/C"
_symmetry_group_IT_number 15
_symmetry_cell_setting 'monoclinic'
loop_
_space_group_symop_operation_xyz
x,y,z
-x,y,1/2-z
-x,-y,-z
x,-y,1/2+z
1/2+x,1/2+y,z
1/2-x,1/2+y,1/2-z
1/2-x,1/2-y,-z
1/2+x,1/2-y,1/2+z
loop_
_atom_site_type_symbol
_atom_site_label
_atom_site_fract_x
_atom_site_fract_y
_atom_site_fract_z
Si Si1 0.500000 0.074996 0.750000
Si Si2 0.382094 0.413149 0.280019
Si Si3 0.166461 0.834235 0.633473
Si Si4 0.231262 0.540064 0.686867
Si Si5 0.742792 0.230332 0.118847
Si Si6 0.667498 0.864627 0.975428
Si Si7 0.435315 0.124306 0.444875
Si Si8 0.471496 0.853739 0.126014
O O1 0.610549 0.995531 0.720688
O O2 0.539165 0.157214 0.804488
O O3 0.500000 0.355838 0.250000
O O4 0.391523 0.546702 0.322925
O O5 0.318496 0.470001 0.229929
O O6 0.308454 0.299063 0.320119
O O7 0.218541 0.706361 0.667915
O O8 0.262672 0.898796 0.587010
O O9 0.072965 0.752941 0.604007
O O10 0.260923 0.439478 0.631687
O O11 0.861759 0.303797 0.102576
O O12 0.649531 0.235927 0.077548
O O13 0.542809 0.809745 0.968295
O O14 0.750000 0.750000 0.000000
O O15 0.637174 0.011517 0.011902
O O16 0.491070 0.015933 0.393648
#
# Coordination Sequence:
#
# PCOD9274727 Si02
#       8
#     4   8   8   8   8   8   8   8
#     4  10  20  38  64  96 140 186 226 268 354 412
#     4  12  27  39  61 107 146 184 232 289 348 434
#     4  11  24  45  72  97 144 189 233 298 359 424
#     4  11  23  40  68  98 138 192 230 281 349 433
#     4  12  24  43  69 105 140 184 244 291 348 432
#     4  11  23  48  77 101 135 188 240 305 367 415
#     4  11  25  46  76 104 138 183 247 298 360 427
#     4  11  22  44  69 100 142 192 226 290 353 421
#
# _framework density 23.014464
#
# number of rings (size 3 to 8) (size 9 to 14) (size 15 to 20)
#    0.000    0.800    5.333    2.400    8.400    0.000 
#    2.400    6.667    0.000    0.000    0.000    0.000 
#    0.000    0.000    0.000    0.000    0.000    0.000 
#
# Total GULP energy -167691.404212 kJ/mol
# GULP energy per Si atom -5589.713474 kJ/mol
# Density = 2.296208 g / cm^3
# Si number density = 23.014464 Si / 1000 Ang^3
#
#
#
# Elastic Constant Matrix: (Units=GPa)
#
#
# Indices 1 2 3 4 5 6 
#
# 1 167.8877 21.0612 42.3494 0.0000 25.0281 0.0000
# 2 21.0612 42.9406 7.4433 0.0000 -0.6094 0.0000
# 3 42.3494 7.4433 78.6272 0.0000 4.4185 0.0000
# 4 0.0000 0.0000 0.0000 22.7168 0.0000 13.6091
# 5 25.0281 -0.6094 4.4185 0.0000 45.7130 0.0000
# 6 0.0000 0.0000 0.0000 13.6091 0.0000 32.3318
#
#
#
# Elastic Compliance Matrix: (Units=1/GPa)
#
#
# Indices 1 2 3 4 5 6 
#
# 1 0.007906 -0.003290 -0.003721 0.000000 -0.004013 0.000000
# 2 -0.003290 0.025058 -0.000724 0.000000 0.002205 0.000000
# 3 -0.003721 -0.000724 0.014757 0.000000 0.000601 0.000000
# 4 0.000000 0.000000 0.000000 0.058864 0.000000 -0.024777
# 5 -0.004013 0.002205 0.000601 0.000000 0.024044 0.000000
# 6 0.000000 0.000000 0.000000 -0.024777 0.000000 0.041358
#
#
# Mechanical properties :
#
#
# Convention : Reuss Voigt Hill
#
# Bulk Modulus (GPa) = 31.00657 47.90704 39.45680
# Shear Modulus (GPa) = 25.22600 34.72574 29.97587
#
# Velocity S-wave (km/s) = 3.31432 3.88863 3.61290
# Velocity P-wave (km/s) = 5.30549 6.40493 5.88096
#
# Compressibility (1/GPa) = 0.03225123
#
# Stress axis : x y z
#
# Youngs Moduli (GPa) = 126.48746 39.90703 67.76285
#
# Poissons Ratio (x) = 0.13128 0.25217
# Poissons Ratio (y) = 0.41609 0.04908
# Poissons Ratio (z) = 0.47070 0.02890
#
# Static dielectric constant tensor:
#      x y z
#    x 1.848880 0.000000 0.010350 
#    y 0.000000 1.876130 0.000000 
#    z 0.010350 0.000000 1.902570 
# 
# From -- ./inp_files/291584.got.cif
#   From: 2010.05.17/outbox.cif.g08.bks.cpg/sg15_146_cif.got.tgz:291584.got - 2010.06.03 18:47:42.
