data_PCOD9274427
_publ_section_title
;
Structure prediction by ZEFSAII (Michael W. Deem and Ramdas Pophale) SiO2 
 PCOD9274427
Probable space group: C 2/C
;
_chemical_formula_sum "Si O2"
_cell_formula_units_Z 40
_cell_length_a 7.788450
_cell_length_b 21.322048
_cell_length_c 12.858582
_cell_angle_alpha 90.000000
_cell_angle_beta 77.355424
_cell_angle_gamma 90.000000
_cell_volume 2083.579835
_symmetry_space_group_name_H-M "C 2/C"
_symmetry_group_IT_number 15
_symmetry_cell_setting 'monoclinic'
loop_
_space_group_symop_operation_xyz
x,y,z
-x,y,1/2-z
-x,-y,-z
x,-y,1/2+z
1/2+x,1/2+y,z
1/2-x,1/2+y,1/2-z
1/2-x,1/2-y,-z
1/2+x,1/2-y,1/2+z
loop_
_atom_site_type_symbol
_atom_site_label
_atom_site_fract_x
_atom_site_fract_y
_atom_site_fract_z
Si Si1 0.624774 0.509811 0.331241
Si Si2 0.500000 0.707692 0.250000
Si Si3 0.557747 0.259680 0.976326
Si Si4 0.927904 0.099409 0.514491
Si Si5 0.160848 0.646930 0.397176
Si Si6 0.500000 0.064599 0.250000
O O1 0.500000 0.519913 0.250000
O O2 0.563364 0.559393 0.426851
O O3 0.598216 0.440001 0.378322
O O4 0.825438 0.523605 0.278407
O O5 0.451650 0.743414 0.148973
O O6 0.327944 0.667033 0.303501
O O7 0.750000 0.250000 0.000000
O O8 0.493887 0.329567 0.014794
O O9 0.426763 0.208237 0.041608
O O10 0.745049 0.104035 0.475551
O O11 0.022192 0.609508 0.346608
#
# Coordination Sequence:
#
# PCOD9274427 Si02
#       6
#     8   4   8   8   8   4
#     4  11  23  44  63  91 126 171 216 262 311 377
#     4  10  20  38  63  88 131 166 198 258 326 386
#     4  11  23  41  64  99 130 166 212 267 326 389
#     4  10  22  42  64  88 132 163 210 270 311 371
#     4  11  21  40  66  96 125 163 216 260 323 392
#     4  12  22  40  73  88 121 176 218 250 326 386
#
# _framework density 19.197728999999999
#
# number of rings (size 3 to 8) (size 9 to 14) (size 15 to 20)
#    0.000    1.200    2.000    7.200    1.400    0.800 
#   12.600    1.000    0.000    0.000    0.000    0.000 
#    0.000    0.000    0.000    0.000    0.000    0.000 
#
# Total GULP energy -111745.356752 kJ/mol
# GULP energy per Si atom -5587.267838 kJ/mol
# Density = 1.915403 g / cm^3
# Si number density = 19.197729 Si / 1000 Ang^3
#
#
#
# Elastic Constant Matrix: (Units=GPa)
#
#
# Indices 1 2 3 4 5 6 
#
# 1 128.9942 31.9195 48.3702 0.0000 9.0536 0.0000
# 2 31.9195 83.3283 45.4772 0.0000 -5.7307 0.0000
# 3 48.3702 45.4772 92.0988 0.0000 -0.7088 0.0000
# 4 0.0000 0.0000 0.0000 17.0342 0.0000 -1.5354
# 5 9.0536 -5.7307 -0.7088 0.0000 29.2642 0.0000
# 6 0.0000 0.0000 0.0000 -1.5354 0.0000 3.5307
#
#
#
# Elastic Compliance Matrix: (Units=1/GPa)
#
#
# Indices 1 2 3 4 5 6 
#
# 1 0.010105 -0.001648 -0.004521 0.000000 -0.003559 0.000000
# 2 -0.001648 0.016968 -0.007485 0.000000 0.003652 0.000000
# 3 -0.004521 -0.007485 0.016931 0.000000 0.000343 0.000000
# 4 0.000000 0.000000 0.000000 0.061100 0.000000 0.026571
# 5 -0.003559 0.003652 0.000343 0.000000 0.035996 0.000000
# 6 0.000000 0.000000 0.000000 0.026571 0.000000 0.294789
#
#
# Mechanical properties :
#
#
# Convention : Reuss Voigt Hill
#
# Bulk Modulus (GPa) = 59.89359 61.77278 60.83318
# Shear Modulus (GPa) = 10.66640 21.87612 16.27126
#
# Velocity S-wave (km/s) = 2.35969 3.37933 2.91445
# Velocity P-wave (km/s) = 6.22014 6.89010 6.56368
#
# Compressibility (1/GPa) = 0.01669628
#
# Stress axis : x y z
#
# Youngs Moduli (GPa) = 98.96016 58.93378 59.06438
#
# Poissons Ratio (x) = 0.09715 0.26701
# Poissons Ratio (y) = 0.16313 0.44209
# Poissons Ratio (z) = 0.44736 0.44111
#
# Static dielectric constant tensor:
#      x y z
#    x 1.661730 0.000000 0.006740 
#    y 0.000000 1.655250 0.000000 
#    z 0.006740 0.000000 1.683070 
# 
# From -- ./inp_files/77786.got.cif
#   From: 2010.05.17/outbox.cif.g08.bks.cpg/sg15_39_cif.got.tgz:77786.got - 2010.06.03 18:47:42.
