data_PCOD9274822
_publ_section_title
;
Structure prediction by ZEFSAII (Michael W. Deem and Ramdas Pophale) SiO2 
 PCOD9274822
Probable space group: C 2/C
;
_chemical_formula_sum "Si O2"
_cell_formula_units_Z 48
_cell_length_a 8.105429
_cell_length_b 24.956196
_cell_length_c 10.868000
_cell_angle_alpha 90.000000
_cell_angle_beta 103.977479
_cell_angle_gamma 90.000000
_cell_volume 2133.293785
_symmetry_space_group_name_H-M "C 2/C"
_symmetry_group_IT_number 15
_symmetry_cell_setting 'monoclinic'
loop_
_space_group_symop_operation_xyz
x,y,z
-x,y,1/2-z
-x,-y,-z
x,-y,1/2+z
1/2+x,1/2+y,z
1/2-x,1/2+y,1/2-z
1/2-x,1/2-y,-z
1/2+x,1/2-y,1/2+z
loop_
_atom_site_type_symbol
_atom_site_label
_atom_site_fract_x
_atom_site_fract_y
_atom_site_fract_z
Si Si1 0.914524 0.119990 0.562240
Si Si2 0.313173 0.587608 0.279281
Si Si3 0.599852 0.521258 0.639756
Si Si4 0.120244 0.364997 0.170431
Si Si5 0.344863 0.827209 0.927511
Si Si6 0.354194 0.709039 0.871904
O O1 0.839400 0.117056 0.413425
O O2 0.767255 0.101276 0.629434
O O3 0.088254 0.084386 0.602885
O O4 0.968214 0.178805 0.612158
O O5 0.500000 0.586043 0.250000
O O6 0.263842 0.525981 0.307320
O O7 0.200396 0.622619 0.167040
O O8 0.500000 0.520743 0.750000
O O9 0.500000 0.500000 0.500000
O O10 0.208380 0.316569 0.260739
O O11 0.000000 0.393773 0.250000
O O12 0.003626 0.342649 0.040610
O O13 0.372172 0.772096 0.859704
O O14 0.198055 0.809085 0.997989
#
# Coordination Sequence:
#
# PCOD9274822 Si02
#       6
#     8   8   8   8   8   8
#     4  11  21  39  66  95 125 173 226 264 321 397
#     4  10  20  38  65  95 128 164 217 275 321 391
#     4   9  19  35  62  98 120 160 220 278 312 382
#     4  10  23  40  58  90 134 173 212 270 329 378
#     4  10  22  38  60  95 133 170 212 270 339 389
#     4  10  21  37  63  89 130 177 217 264 323 403
#
# _framework density 22.500416999999999
#
# number of rings (size 3 to 8) (size 9 to 14) (size 15 to 20)
#    0.000    2.000    1.667    1.500    2.333    2.000 
#    3.000    0.000    0.000    9.000   13.000    0.000 
#    0.000    0.000    0.000    0.000    0.000    0.000 
#
# Total GULP energy -133638.598425 kJ/mol
# GULP energy per Si atom -5568.274934 kJ/mol
# Density = 2.244921 g / cm^3
# Si number density = 22.500417 Si / 1000 Ang^3
#
#
#
# Elastic Constant Matrix: (Units=GPa)
#
#
# Indices 1 2 3 4 5 6 
#
# 1 66.1889 18.4711 22.1468 0.0000 -8.1007 0.0000
# 2 18.4711 125.9139 41.0212 0.0000 17.6235 0.0000
# 3 22.1468 41.0212 152.3605 0.0000 4.2441 0.0000
# 4 0.0000 0.0000 0.0000 15.9921 0.0000 -0.8310
# 5 -8.1007 17.6235 4.2441 0.0000 29.8011 0.0000
# 6 0.0000 0.0000 0.0000 -0.8310 0.0000 14.1466
#
#
#
# Elastic Compliance Matrix: (Units=1/GPa)
#
#
# Indices 1 2 3 4 5 6 
#
# 1 0.017372 -0.002851 -0.001944 0.000000 0.006685 0.000000
# 2 -0.002851 0.009927 -0.002081 0.000000 -0.006349 0.000000
# 3 -0.001944 -0.002081 0.007416 0.000000 -0.000354 0.000000
# 4 0.000000 0.000000 0.000000 0.062722 0.000000 0.003684
# 5 0.006685 -0.006349 -0.000354 0.000000 0.039178 0.000000
# 6 0.000000 0.000000 0.000000 0.003684 0.000000 0.070905
#
#
# Mechanical properties :
#
#
# Convention : Reuss Voigt Hill
#
# Bulk Modulus (GPa) = 47.70270 56.41573 52.05921
# Shear Modulus (GPa) = 21.90477 29.50957 25.70717
#
# Velocity S-wave (km/s) = 3.12352 3.62541 3.38378
# Velocity P-wave (km/s) = 5.85281 6.53088 6.20112
#
# Compressibility (1/GPa) = 0.02096317
#
# Stress axis : x y z
#
# Youngs Moduli (GPa) = 57.56245 100.73656 134.84008
#
# Poissons Ratio (x) = 0.28718 0.26211
# Poissons Ratio (y) = 0.16410 0.28066
# Poissons Ratio (z) = 0.11189 0.20968
#
# Static dielectric constant tensor:
#      x y z
#    x 2.020620 0.000000 -0.001960 
#    y 0.000000 1.895050 0.000000 
#    z -0.001960 0.000000 1.838160 
# 
# From -- ./inp_files/79886.got.cif
#   From: 2010.05.17/outbox.cif.g08.bks.cpg/sg15_40_cif.got.tgz:79886.got - 2010.06.03 18:47:42.
