data_PCOD9274902
_publ_section_title
;
Structure prediction by ZEFSAII (Michael W. Deem and Ramdas Pophale) SiO2 
 PCOD9274902
Probable space group: C 2/C
;
_chemical_formula_sum "Si O2"
_cell_formula_units_Z 64
_cell_length_a 27.839858
_cell_length_b 10.920308
_cell_length_c 14.130679
_cell_angle_alpha 90.000000
_cell_angle_beta 137.005034
_cell_angle_gamma 90.000000
_cell_volume 2929.593359
_symmetry_space_group_name_H-M "C 2/C"
_symmetry_group_IT_number 15
_symmetry_cell_setting 'monoclinic'
loop_
_space_group_symop_operation_xyz
x,y,z
-x,y,1/2-z
-x,-y,-z
x,-y,1/2+z
1/2+x,1/2+y,z
1/2-x,1/2+y,1/2-z
1/2-x,1/2-y,-z
1/2+x,1/2-y,1/2+z
loop_
_atom_site_type_symbol
_atom_site_label
_atom_site_fract_x
_atom_site_fract_y
_atom_site_fract_z
Si Si1 0.240596 0.490983 0.805741
Si Si2 0.951736 0.120057 0.456939
Si Si3 0.046804 0.633559 0.662800
Si Si4 0.818176 0.178367 0.563463
Si Si5 0.691976 0.510111 0.786606
Si Si6 0.906191 0.521668 0.444089
Si Si7 0.931973 0.290665 0.600829
Si Si8 0.700525 0.132743 0.930602
O O1 0.279341 0.552017 0.773262
O O2 0.170798 0.417783 0.671249
O O3 0.209631 0.583935 0.837162
O O4 0.293957 0.408856 0.942653
O O5 0.965390 0.238831 0.410979
O O6 0.955291 0.174267 0.569421
O O7 0.869681 0.086459 0.322097
O O8 0.000000 0.000000 0.500000
O O9 0.068356 0.519639 0.624255
O O10 0.117169 0.649765 0.827551
O O11 0.968853 0.596398 0.583718
O O12 0.750000 0.250000 0.500000
O O13 0.842336 0.106148 0.691083
O O14 0.878318 0.259474 0.606227
O O15 0.759994 0.458486 0.940742
O O16 0.898000 0.392821 0.485783
O O17 0.000000 0.343249 0.750000
O O18 0.750000 0.250000 0.000000
#
# Coordination Sequence:
#
# PCOD9274902 Si02
#       8
#     8   8   8   8   8   8   8   8
#     4  10  22  39  62  96 130 166 227 275 330 413
#     4  11  22  39  65  93 134 181 216 271 342 404
#     4   9  19  38  61  94 125 167 222 266 332 396
#     4  11  24  40  65  99 133 175 227 283 339 407
#     4  11  22  39  65  92 127 174 218 271 338 401
#     4   9  20  37  64  88 128 172 212 279 333 386
#     4  11  23  41  65  95 137 174 226 285 341 407
#     4  10  20  38  66  91 125 172 214 274 333 392
#
# _framework density 21.846035000000001
#
# number of rings (size 3 to 8) (size 9 to 14) (size 15 to 20)
#    0.000    1.750    2.500    1.500    0.000    8.000 
#    0.000    0.000    0.000    2.250    0.000    0.000 
#    0.000    0.000    0.000    0.000    0.000    0.000 
#
# Total GULP energy -178509.803478 kJ/mol
# GULP energy per Si atom -5578.431359 kJ/mol
# Density = 2.179631 g / cm^3
# Si number density = 21.846035 Si / 1000 Ang^3
#
#
#
# Elastic Constant Matrix: (Units=GPa)
#
#
# Indices 1 2 3 4 5 6 
#
# 1 93.8421 6.7263 20.8113 0.0000 -1.3960 0.0000
# 2 6.7263 30.0314 -1.0271 0.0000 2.4912 0.0000
# 3 20.8113 -1.0271 88.6176 0.0000 8.7122 0.0000
# 4 0.0000 0.0000 0.0000 24.4316 0.0000 13.2962
# 5 -1.3960 2.4912 8.7122 0.0000 36.8575 0.0000
# 6 0.0000 0.0000 0.0000 13.2962 0.0000 16.6076
#
#
#
# Elastic Compliance Matrix: (Units=1/GPa)
#
#
# Indices 1 2 3 4 5 6 
#
# 1 0.011510 -0.002784 -0.002863 0.000000 0.001301 0.000000
# 2 -0.002784 0.034193 0.001318 0.000000 -0.002728 0.000000
# 3 -0.002863 0.001318 0.012277 0.000000 -0.003099 0.000000
# 4 0.000000 0.000000 0.000000 0.072534 0.000000 -0.058072
# 5 0.001301 -0.002728 -0.003099 0.000000 0.028098 0.000000
# 6 0.000000 0.000000 0.000000 -0.058072 0.000000 0.106706
#
#
# Mechanical properties :
#
#
# Convention : Reuss Voigt Hill
#
# Bulk Modulus (GPa) = 20.27460 29.50135 24.88798
# Shear Modulus (GPa) = 17.21663 27.97804 22.59734
#
# Velocity S-wave (km/s) = 2.81034 3.58256 3.21968
# Velocity P-wave (km/s) = 4.45326 5.53593 5.02384
#
# Compressibility (1/GPa) = 0.04932279
#
# Stress axis : x y z
#
# Youngs Moduli (GPa) = 86.88055 29.24539 81.45412
#
# Poissons Ratio (x) = 0.08141 0.23322
# Poissons Ratio (y) = 0.24186 -0.10738
# Poissons Ratio (z) = 0.24876 -0.03855
#
# Static dielectric constant tensor:
#      x y z
#    x 1.794780 0.000000 -0.010510 
#    y 0.000000 1.842910 0.000000 
#    z -0.010510 0.000000 1.886470 
# 
# From -- ./inp_files/177854.got.cif
#   From: 2010.05.17/outbox.cif.g08.bks.cpg/sg15_89_cif.got.tgz:177854.got - 2010.06.03 18:47:42.
