data_PCOD9274730
_publ_section_title
;
Structure prediction by ZEFSAII (Michael W. Deem and Ramdas Pophale) SiO2 
 PCOD9274730
Probable space group: C 2/C
;
_chemical_formula_sum "Si O2"
_cell_formula_units_Z 56
_cell_length_a 8.956968
_cell_length_b 23.459738
_cell_length_c 17.235367
_cell_angle_alpha 90.000000
_cell_angle_beta 49.353180
_cell_angle_gamma 90.000000
_cell_volume 2747.876913
_symmetry_space_group_name_H-M "C 2/C"
_symmetry_group_IT_number 15
_symmetry_cell_setting 'monoclinic'
loop_
_space_group_symop_operation_xyz
x,y,z
-x,y,1/2-z
-x,-y,-z
x,-y,1/2+z
1/2+x,1/2+y,z
1/2-x,1/2+y,1/2-z
1/2-x,1/2-y,-z
1/2+x,1/2-y,1/2+z
loop_
_atom_site_type_symbol
_atom_site_label
_atom_site_fract_x
_atom_site_fract_y
_atom_site_fract_z
Si Si1 0.441231 0.314838 0.990938
Si Si2 0.125433 0.022019 0.330903
Si Si3 0.808947 0.581655 0.853704
Si Si4 0.683967 0.882052 0.630002
Si Si5 0.835213 0.532594 0.006126
Si Si6 0.345222 0.895989 0.636511
Si Si7 0.320225 0.282263 0.856829
O O1 0.329528 0.370209 0.063423
O O2 0.357325 0.260529 0.065107
O O3 0.670635 0.329069 0.923955
O O4 0.395623 0.304116 0.915496
O O5 0.188987 0.065634 0.378316
O O6 0.219957 0.055510 0.225009
O O7 0.891205 0.014214 0.406661
O O8 0.211421 0.960699 0.324118
O O9 0.000000 0.608163 0.750000
O O10 0.874913 0.540692 0.902532
O O11 0.500000 0.872459 0.750000
O O12 0.568457 0.897410 0.591091
O O13 0.841182 0.593238 0.046698
O O14 0.000000 0.500000 0.000000
O O15 0.246754 0.834338 0.676146
O O16 0.500000 0.253565 0.750000
#
# Coordination Sequence:
#
# PCOD9274730 Si02
#       7
#     8   8   8   8   8   8   8
#     4  11  24  41  67  95 131 177 213 268 331 381
#     4  11  22  40  64  93 130 173 214 263 324 397
#     4  12  24  41  60  93 134 174 214 261 327 396
#     4  10  20  38  64  97 127 170 218 261 326 388
#     4  12  23  36  61  94 125 166 213 267 321 378
#     4  11  22  39  67  95 126 165 222 269 315 378
#     4  11  22  43  68  97 127 168 227 271 314 384
#
# _framework density 20.379370000000002
#
# number of rings (size 3 to 8) (size 9 to 14) (size 15 to 20)
#    0.000    0.857    2.857    6.857    2.000    0.571 
#    0.000    0.000    0.000    0.000    0.000    0.000 
#    0.000    0.000    0.000    0.000    0.000    0.000 
#
# Total GULP energy -156289.890000 kJ/mol
# GULP energy per Si atom -5581.781786 kJ/mol
# Density = 2.033299 g / cm^3
# Si number density = 20.379370 Si / 1000 Ang^3
#
#
#
# Elastic Constant Matrix: (Units=GPa)
#
#
# Indices 1 2 3 4 5 6 
#
# 1 102.2938 24.1307 45.7573 0.0000 -19.2401 0.0000
# 2 24.1307 73.4903 42.6126 0.0000 -7.4575 0.0000
# 3 45.7573 42.6126 93.9015 0.0000 -19.8759 0.0000
# 4 0.0000 0.0000 0.0000 30.0710 0.0000 -5.1954
# 5 -19.2401 -7.4575 -19.8759 0.0000 37.2499 0.0000
# 6 0.0000 0.0000 0.0000 -5.1954 0.0000 33.2043
#
#
#
# Elastic Compliance Matrix: (Units=1/GPa)
#
#
# Indices 1 2 3 4 5 6 
#
# 1 0.012993 -0.000917 -0.005111 0.000000 0.003800 0.000000
# 2 -0.000917 0.018556 -0.008216 0.000000 -0.001143 0.000000
# 3 -0.005111 -0.008216 0.017993 0.000000 0.005316 0.000000
# 4 0.000000 0.000000 0.000000 0.034179 0.000000 0.005348
# 5 0.003800 -0.001143 0.005316 0.000000 0.031417 0.000000
# 6 0.000000 0.000000 0.000000 0.005348 0.000000 0.030953
#
#
# Mechanical properties :
#
#
# Convention : Reuss Voigt Hill
#
# Bulk Modulus (GPa) = 47.49364 54.96520 51.22942
# Shear Modulus (GPa) = 27.53345 30.58405 29.05875
#
# Velocity S-wave (km/s) = 3.67964 3.87814 3.78019
# Velocity P-wave (km/s) = 6.43494 6.86169 6.65174
#
# Compressibility (1/GPa) = 0.02105545
#
# Stress axis : x y z
#
# Youngs Moduli (GPa) = 76.96431 53.89014 55.57569
#
# Poissons Ratio (x) = 0.04943 0.28403
# Poissons Ratio (y) = 0.07059 0.45659
# Poissons Ratio (z) = 0.39334 0.44275
#
# Static dielectric constant tensor:
#      x y z
#    x 1.749580 0.000000 0.011990 
#    y 0.000000 1.764110 0.000000 
#    z 0.011990 0.000000 1.757530 
# 
# From -- ./inp_files/193174.got.cif
#   From: 2010.05.17/outbox.cif.g08.bks.cpg/sg15_97_cif.got.tgz:193174.got - 2010.06.03 18:47:42.
