data_PCOD9274297
_publ_section_title
;
Structure prediction by ZEFSAII (Michael W. Deem and Ramdas Pophale) SiO2 
 PCOD9274297
Probable space group: C 2/C
;
_chemical_formula_sum "Si O2"
_cell_formula_units_Z 36
_cell_length_a 9.701300
_cell_length_b 22.848826
_cell_length_c 10.569305
_cell_angle_alpha 90.000000
_cell_angle_beta 40.665035
_cell_angle_gamma 90.000000
_cell_volume 1526.669667
_symmetry_space_group_name_H-M "C 2/C"
_symmetry_group_IT_number 15
_symmetry_cell_setting 'monoclinic'
loop_
_space_group_symop_operation_xyz
x,y,z
-x,y,1/2-z
-x,-y,-z
x,-y,1/2+z
1/2+x,1/2+y,z
1/2-x,1/2+y,1/2-z
1/2-x,1/2-y,-z
1/2+x,1/2-y,1/2+z
loop_
_atom_site_type_symbol
_atom_site_label
_atom_site_fract_x
_atom_site_fract_y
_atom_site_fract_z
Si Si1 0.369717 0.619280 0.110685
Si Si2 0.352824 0.130357 0.727626
Si Si3 0.224289 0.505902 0.638694
Si Si4 0.000000 0.077488 0.250000
Si Si5 0.744082 0.682488 0.544466
O O1 0.356098 0.549959 0.089977
O O2 0.340687 0.618082 0.280654
O O3 0.608162 0.644225 0.934267
O O4 0.224623 0.649817 0.110397
O O5 0.500000 0.141563 0.750000
O O6 0.337897 0.059171 0.722788
O O7 0.378700 0.162928 0.574065
O O8 0.345945 0.536934 0.438893
O O9 0.000000 0.481794 0.750000
O O10 0.500000 0.667219 0.750000
O O11 0.750000 0.750000 0.500000
#
# Coordination Sequence:
#
# PCOD9274297 Si02
#       5
#     8   8   8   4   8
#     4  10  22  39  63  93 133 175 211 277 320 391
#     4   9  19  41  66  92 130 170 211 272 331 381
#     4  10  22  38  63 101 133 176 214 265 332 392
#     4  10  20  38  62  90 136 170 218 264 336 384
#     4  10  23  45  65  90 129 171 222 272 326 384
#
# _framework density 23.580739000000001
#
# number of rings (size 3 to 8) (size 9 to 14) (size 15 to 20)
#    0.000    2.222    0.000    2.667    7.778    1.778 
#   22.000    2.222    0.000    0.000    0.000    0.000 
#    0.000    0.000    0.000    0.000    0.000    0.000 
#
# Total GULP energy -100261.408828 kJ/mol
# GULP energy per Si atom -5570.078268 kJ/mol
# Density = 2.352707 g / cm^3
# Si number density = 23.580739 Si / 1000 Ang^3
#
#
#
# Elastic Constant Matrix: (Units=GPa)
#
#
# Indices 1 2 3 4 5 6 
#
# 1 249.4599 79.3695 68.9000 0.0000 16.6890 0.0000
# 2 79.3695 112.6807 13.9150 0.0000 34.5080 0.0000
# 3 68.9000 13.9150 62.4495 0.0000 2.2088 0.0000
# 4 0.0000 0.0000 0.0000 13.8650 0.0000 1.2553
# 5 16.6890 34.5080 2.2088 0.0000 50.4449 0.0000
# 6 0.0000 0.0000 0.0000 1.2553 0.0000 24.0135
#
#
#
# Elastic Compliance Matrix: (Units=1/GPa)
#
#
# Indices 1 2 3 4 5 6 
#
# 1 0.007394 -0.004643 -0.007160 0.000000 0.001044 0.000000
# 2 -0.004643 0.014463 0.002199 0.000000 -0.008454 0.000000
# 3 -0.007160 0.002199 0.023428 0.000000 -0.000162 0.000000
# 4 0.000000 0.000000 0.000000 0.072467 0.000000 -0.003788
# 5 0.001044 -0.008454 -0.000162 0.000000 0.025268 0.000000
# 6 0.000000 0.000000 0.000000 -0.003788 0.000000 0.041841
#
#
# Mechanical properties :
#
#
# Convention : Reuss Voigt Hill
#
# Bulk Modulus (GPa) = 38.34822 83.21769 60.78295
# Shear Modulus (GPa) = 23.50063 35.15838 29.32951
#
# Velocity S-wave (km/s) = 3.16033 3.86551 3.53057
# Velocity P-wave (km/s) = 5.44194 7.43573 6.51555
#
# Compressibility (1/GPa) = 0.02607683
#
# Stress axis : x y z
#
# Youngs Moduli (GPa) = 135.25062 69.14377 42.68447
#
# Poissons Ratio (x) = 0.32107 0.30561
# Poissons Ratio (y) = 0.62803 -0.09388
# Poissons Ratio (z) = 0.96835 -0.15208
#
# Static dielectric constant tensor:
#      x y z
#    x 2.178780 0.000000 -0.031060 
#    y 0.000000 1.872720 0.000000 
#    z -0.031060 0.000000 2.080370 
# 
# From -- ./inp_files/78951.got.cif
#   From: 2010.05.17/outbox.cif.g08.bks.cpg/sg15_40_cif.got.tgz:78951.got - 2010.06.03 18:47:42.
