data_PCOD9274653
_publ_section_title
;
Structure prediction by ZEFSAII (Michael W. Deem and Ramdas Pophale) SiO2 
 PCOD9274653
Probable space group: C 2/C
;
_chemical_formula_sum "Si O2"
_cell_formula_units_Z 36
_cell_length_a 14.441486
_cell_length_b 20.582346
_cell_length_c 5.865783
_cell_angle_alpha 90.000000
_cell_angle_beta 126.616511
_cell_angle_gamma 90.000000
_cell_volume 1399.447448
_symmetry_space_group_name_H-M "C 2/C"
_symmetry_group_IT_number 15
_symmetry_cell_setting 'monoclinic'
loop_
_space_group_symop_operation_xyz
x,y,z
-x,y,1/2-z
-x,-y,-z
x,-y,1/2+z
1/2+x,1/2+y,z
1/2-x,1/2+y,1/2-z
1/2-x,1/2-y,-z
1/2+x,1/2-y,1/2+z
loop_
_atom_site_type_symbol
_atom_site_label
_atom_site_fract_x
_atom_site_fract_y
_atom_site_fract_z
Si Si1 0.000000 0.196842 0.250000
Si Si2 0.397061 0.965392 0.193359
Si Si3 0.809668 0.148708 0.656492
Si Si4 0.151899 0.996341 0.348806
Si Si5 0.878884 0.265018 0.441724
O O1 0.068306 0.154098 0.531957
O O2 0.907748 0.243623 0.231000
O O3 0.500000 0.917592 0.250000
O O4 0.410033 0.987357 0.480903
O O5 0.259500 0.953105 0.993013
O O6 0.793046 0.075692 0.559012
O O7 0.822039 0.201247 0.473632
O O8 0.704285 0.174604 0.651335
O O9 0.096775 0.002587 0.517019
O O10 0.000000 0.276886 0.750000
#
# Coordination Sequence:
#
# PCOD9274653 Si02
#       5
#     4   8   8   8   8
#     4  10  20  38  64  92 120 158 210 266 328 378
#     4   8  14  27  47  68 101 145 192 238 287 344
#     4  10  21  38  64  89 127 162 209 264 320 378
#     4  10  22  38  57  87 125 170 213 254 308 379
#     4   9  20  39  64  96 120 156 207 269 330 380
#
# _framework density 25.724440000000001
#
# number of rings (size 3 to 8) (size 9 to 14) (size 15 to 20)
#    0.000    2.667    0.000    0.667    3.111    0.889 
#    0.000    1.111    7.333    0.000    0.000    0.000 
#    0.000    0.000    0.000    0.000    0.000    0.000 
#
# Total GULP energy -100280.917167 kJ/mol
# GULP energy per Si atom -5571.162065 kJ/mol
# Density = 2.566589 g / cm^3
# Si number density = 25.724440 Si / 1000 Ang^3
#
#
#
# Elastic Constant Matrix: (Units=GPa)
#
#
# Indices 1 2 3 4 5 6 
#
# 1 164.2993 18.9903 29.4310 0.0000 -38.1236 0.0000
# 2 18.9903 105.7362 2.7628 0.0000 -6.6830 0.0000
# 3 29.4310 2.7628 159.8767 0.0000 -27.8552 0.0000
# 4 0.0000 0.0000 0.0000 -13.4237 0.0000 -20.2975
# 5 -38.1236 -6.6830 -27.8552 0.0000 44.8196 0.0000
# 6 0.0000 0.0000 0.0000 -20.2975 0.0000 -18.6979
#
#
#
# Elastic Compliance Matrix: (Units=1/GPa)
#
#
# Indices 1 2 3 4 5 6 
#
# 1 0.007696 -0.000982 -0.000319 0.000000 0.006201 0.000000
# 2 -0.000982 0.009674 0.000134 0.000000 0.000690 0.000000
# 3 -0.000319 0.000134 0.007029 0.000000 0.004117 0.000000
# 4 0.000000 0.000000 0.000000 0.116141 0.000000 -0.126077
# 5 0.006201 0.000690 0.004117 0.000000 0.030248 0.000000
# 6 0.000000 0.000000 0.000000 -0.126077 0.000000 0.083381
#
#
# Mechanical properties :
#
#
# Convention : Reuss Voigt Hill
#
# Bulk Modulus (GPa) = 45.32282 59.14227 52.23254
# Shear Modulus (GPa) = 18.94962 27.78811 23.36886
#
# Velocity S-wave (km/s) = 2.71705 3.29024 3.01729
# Velocity P-wave (km/s) = 5.24404 6.12167 5.69977
#
# Compressibility (1/GPa) = 0.02206394
#
# Stress axis : x y z
#
# Youngs Moduli (GPa) = 129.93565 103.36989 142.27760
#
# Poissons Ratio (x) = 0.10150 0.04543
# Poissons Ratio (y) = 0.12759 -0.01905
# Poissons Ratio (z) = 0.04149 -0.01384
#
# Static dielectric constant tensor:
#      x y z
#    x 2.172260 0.000000 0.141180 
#    y 0.000000 2.061490 0.000000 
#    z 0.141180 0.000000 2.223530 
# 
# From -- ./inp_files/7441.got.cif
#   From: 2010.05.17/outbox.cif.g08.bks.cpg/sg15_4_cif.got.tgz:7441.got - 2010.06.03 18:47:42.
