data_PCOD9274344
_publ_section_title
;
Structure prediction by ZEFSAII (Michael W. Deem and Ramdas Pophale) SiO2 
 PCOD9274344
Probable space group: C 2/C
;
_chemical_formula_sum "Si O2"
_cell_formula_units_Z 48
_cell_length_a 15.175657
_cell_length_b 7.851205
_cell_length_c 19.147540
_cell_angle_alpha 90.000000
_cell_angle_beta 65.756454
_cell_angle_gamma 90.000000
_cell_volume 2080.177273
_symmetry_space_group_name_H-M "C 2/C"
_symmetry_group_IT_number 15
_symmetry_cell_setting 'monoclinic'
loop_
_space_group_symop_operation_xyz
x,y,z
-x,y,1/2-z
-x,-y,-z
x,-y,1/2+z
1/2+x,1/2+y,z
1/2-x,1/2+y,1/2-z
1/2-x,1/2-y,-z
1/2+x,1/2-y,1/2+z
loop_
_atom_site_type_symbol
_atom_site_label
_atom_site_fract_x
_atom_site_fract_y
_atom_site_fract_z
Si Si1 0.000000 0.850722 0.250000
Si Si2 0.309146 0.119220 0.756335
Si Si3 0.054158 0.219198 0.491337
Si Si4 0.611783 0.944797 0.641536
Si Si5 0.074592 0.453425 0.892645
Si Si6 0.250000 0.250000 0.500000
Si Si7 0.892596 0.036101 0.162841
O O1 0.964466 0.962248 0.197102
O O2 0.917435 0.723154 0.304656
O O3 0.367302 0.088971 0.808694
O O4 0.339447 0.973562 0.689995
O O5 0.197999 0.091481 0.811266
O O6 0.344285 0.290355 0.708103
O O7 0.089592 0.400572 0.445421
O O8 0.137748 0.183383 0.519760
O O9 0.055600 0.089476 0.426337
O O10 0.954273 0.277912 0.559936
O O11 0.521714 0.992360 0.621734
O O12 0.705191 0.895453 0.566921
#
# Coordination Sequence:
#
# PCOD9274344 Si02
#       7
#     4   8   8   8   8   4   8
#     4  12  26  40  62  98 128 166 208 266 308 378
#     4  11  21  40  64  92 122 167 212 260 310 375
#     4   9  19  37  59  92 124 160 208 252 310 373
#     4  11  21  40  66  89 125 165 210 254 320 365
#     4   9  19  34  64  89 119 162 208 251 306 372
#     4  10  20  38  62  94 120 172 198 262 312 378
#     4  11  25  39  63  93 128 162 212 259 314 372
#
# _framework density 23.074957000000001
#
# number of rings (size 3 to 8) (size 9 to 14) (size 15 to 20)
#    0.000    1.667    3.333    1.000    7.000    0.000 
#    0.000    5.000    0.000    2.000    0.000    0.000 
#    0.000    0.000    0.000    0.000    0.000    0.000 
#
# Total GULP energy -133646.159216 kJ/mol
# GULP energy per Si atom -5568.589967 kJ/mol
# Density = 2.302244 g / cm^3
# Si number density = 23.074957 Si / 1000 Ang^3
#
#
#
# Elastic Constant Matrix: (Units=GPa)
#
#
# Indices 1 2 3 4 5 6 
#
# 1 38.7578 12.6367 30.0977 0.0000 -6.9165 0.0000
# 2 12.6367 71.2631 1.0557 0.0000 2.5320 0.0000
# 3 30.0977 1.0557 104.1489 0.0000 -12.3817 0.0000
# 4 0.0000 0.0000 0.0000 40.3101 0.0000 1.4812
# 5 -6.9165 2.5320 -12.3817 0.0000 46.3657 0.0000
# 6 0.0000 0.0000 0.0000 1.4812 0.0000 8.2236
#
#
#
# Elastic Compliance Matrix: (Units=1/GPa)
#
#
# Indices 1 2 3 4 5 6 
#
# 1 0.036227 -0.006384 -0.010039 0.000000 0.003072 0.000000
# 2 -0.006384 0.015191 0.001528 0.000000 -0.001374 0.000000
# 3 -0.010039 0.001528 0.012703 0.000000 0.001811 0.000000
# 4 0.000000 0.000000 0.000000 0.024973 0.000000 -0.004498
# 5 0.003072 -0.001374 0.001811 0.000000 0.022585 0.000000
# 6 0.000000 0.000000 0.000000 -0.004498 0.000000 0.122411
#
#
# Mechanical properties :
#
#
# Convention : Reuss Voigt Hill
#
# Bulk Modulus (GPa) = 29.13018 33.52778 31.32898
# Shear Modulus (GPa) = 18.16044 30.33854 24.24949
#
# Velocity S-wave (km/s) = 2.80843 3.62993 3.24528
# Velocity P-wave (km/s) = 4.81331 5.66833 5.25823
#
# Compressibility (1/GPa) = 0.03432866
#
# Stress axis : x y z
#
# Youngs Moduli (GPa) = 27.60364 65.82926 78.72358
#
# Poissons Ratio (x) = 0.42028 0.79033
# Poissons Ratio (y) = 0.17623 -0.12026
# Poissons Ratio (z) = 0.27712 -0.10057
#
# Static dielectric constant tensor:
#      x y z
#    x 1.856380 0.000000 -0.003390 
#    y 0.000000 1.794660 0.000000 
#    z -0.003390 0.000000 1.894360 
# 
# From -- ./inp_files/242359.got.cif
#   From: 2010.05.17/outbox.cif.g08.bks.cpg/sg15_122_cif.got.tgz:242359.got - 2010.06.03 18:47:42.
