data_PCOD9274453
_publ_section_title
;
Structure prediction by ZEFSAII (Michael W. Deem and Ramdas Pophale) SiO2 
 PCOD9274453
Probable space group: C 2/C
;
_chemical_formula_sum "Si O2"
_cell_formula_units_Z 60
_cell_length_a 21.582194
_cell_length_b 11.986771
_cell_length_c 16.060504
_cell_angle_alpha 90.000000
_cell_angle_beta 36.165982
_cell_angle_gamma 90.000000
_cell_volume 2451.896034
_symmetry_space_group_name_H-M "C 2/C"
_symmetry_group_IT_number 15
_symmetry_cell_setting 'monoclinic'
loop_
_space_group_symop_operation_xyz
x,y,z
-x,y,1/2-z
-x,-y,-z
x,-y,1/2+z
1/2+x,1/2+y,z
1/2-x,1/2+y,1/2-z
1/2-x,1/2-y,-z
1/2+x,1/2-y,1/2+z
loop_
_atom_site_type_symbol
_atom_site_label
_atom_site_fract_x
_atom_site_fract_y
_atom_site_fract_z
Si Si1 0.152280 0.607853 0.017574
Si Si2 0.835326 0.367032 0.475269
Si Si3 0.104119 0.136449 0.173380
Si Si4 0.905721 0.585774 0.603460
Si Si5 0.558232 0.331131 0.908858
Si Si6 0.721246 0.878237 0.765054
Si Si7 0.000000 0.221351 0.750000
Si Si8 0.619117 0.327834 0.279457
O O1 0.111679 0.487176 0.088927
O O2 0.105900 0.629189 0.977111
O O3 0.277129 0.610789 0.866567
O O4 0.104029 0.702539 0.126244
O O5 0.890891 0.258826 0.377371
O O6 0.728671 0.387434 0.537245
O O7 0.814475 0.355116 0.598756
O O8 0.081187 0.118969 0.295309
O O9 0.000000 0.079073 0.250000
O O10 0.931666 0.697737 0.623578
O O11 0.807217 0.505654 0.728237
O O12 0.000000 0.500000 0.500000
O O13 0.654763 0.360041 0.864761
O O14 0.446826 0.364595 0.067905
O O15 0.664211 0.792900 0.763512
O O16 0.032347 0.165294 0.800967
#
# Coordination Sequence:
#
# PCOD9274453 Si02
#       8
#     8   8   8   8   8   8   4   8
#     4  11  24  41  65  90 130 167 215 275 320 394
#     4   9  22  40  61  96 123 166 214 263 328 383
#     4  10  21  39  65  90 130 166 206 267 326 383
#     4  11  20  37  63  95 118 163 219 270 315 384
#     4  11  22  39  66  94 124 174 213 267 334 385
#     4  10  20  38  63  90 130 164 214 274 321 387
#     4  12  24  40  64  94 118 174 218 254 334 382
#     4  12  22  42  62  91 133 169 212 269 330 390
#
# _framework density 24.470859000000001
#
# number of rings (size 3 to 8) (size 9 to 14) (size 15 to 20)
#    0.000    1.333    4.000    1.200    2.800    1.067 
#    1.200    6.000    0.000    0.000    0.000    0.000 
#    0.000    0.000    0.000    0.000    0.000    0.000 
#
# Total GULP energy -167330.150925 kJ/mol
# GULP energy per Si atom -5577.671697 kJ/mol
# Density = 2.441516 g / cm^3
# Si number density = 24.470859 Si / 1000 Ang^3
#
#
#
# Elastic Constant Matrix: (Units=GPa)
#
#
# Indices 1 2 3 4 5 6 
#
# 1 98.8496 0.4262 5.9730 0.0000 -15.0045 0.0000
# 2 0.4262 63.2018 18.0239 0.0000 1.7327 0.0000
# 3 5.9730 18.0239 116.6563 0.0000 -13.1765 0.0000
# 4 0.0000 0.0000 0.0000 18.5846 0.0000 -5.0972
# 5 -15.0045 1.7327 -13.1765 0.0000 25.8825 0.0000
# 6 0.0000 0.0000 0.0000 -5.0972 0.0000 22.4353
#
#
#
# Elastic Compliance Matrix: (Units=1/GPa)
#
#
# Indices 1 2 3 4 5 6 
#
# 1 0.011102 -0.000319 0.000223 0.000000 0.006571 0.000000
# 2 -0.000319 0.016722 -0.002880 0.000000 -0.002770 0.000000
# 3 0.000223 -0.002880 0.009594 0.000000 0.005206 0.000000
# 4 0.000000 0.000000 0.000000 0.057384 0.000000 0.013037
# 5 0.006571 -0.002770 0.005206 0.000000 0.045281 0.000000
# 6 0.000000 0.000000 0.000000 0.013037 0.000000 0.047535
#
#
# Mechanical properties :
#
#
# Convention : Reuss Voigt Hill
#
# Bulk Modulus (GPa) = 31.78070 36.39488 34.08779
# Shear Modulus (GPa) = 24.50298 30.33279 27.41789
#
# Velocity S-wave (km/s) = 3.16779 3.52454 3.35091
# Velocity P-wave (km/s) = 5.13762 5.60965 5.37882
#
# Compressibility (1/GPa) = 0.03146563
#
# Stress axis : x y z
#
# Youngs Moduli (GPa) = 90.07671 59.80217 104.23379
#
# Poissons Ratio (x) = 0.01905 -0.02324
# Poissons Ratio (y) = 0.02870 0.30021
# Poissons Ratio (z) = -0.02008 0.17224
#
# Static dielectric constant tensor:
#      x y z
#    x 2.009240 0.000000 -0.016480 
#    y 0.000000 2.143020 0.000000 
#    z -0.016480 0.000000 1.813740 
# 
# From -- ./inp_files/219585.got.cif
#   From: 2010.05.17/outbox.cif.g08.bks.cpg/sg15_110_cif.got.tgz:219585.got - 2010.06.03 18:47:42.
