data_PCOD9274272
_publ_section_title
;
Structure prediction by ZEFSAII (Michael W. Deem and Ramdas Pophale) SiO2 
 PCOD9274272
Probable space group: C 2/C
;
_chemical_formula_sum "Si O2"
_cell_formula_units_Z 56
_cell_length_a 17.233558
_cell_length_b 11.062885
_cell_length_c 22.152900
_cell_angle_alpha 90.000000
_cell_angle_beta 145.820221
_cell_angle_gamma 90.000000
_cell_volume 2372.734025
_symmetry_space_group_name_H-M "C 2/C"
_symmetry_group_IT_number 15
_symmetry_cell_setting 'monoclinic'
loop_
_space_group_symop_operation_xyz
x,y,z
-x,y,1/2-z
-x,-y,-z
x,-y,1/2+z
1/2+x,1/2+y,z
1/2-x,1/2+y,1/2-z
1/2-x,1/2-y,-z
1/2+x,1/2-y,1/2+z
loop_
_atom_site_type_symbol
_atom_site_label
_atom_site_fract_x
_atom_site_fract_y
_atom_site_fract_z
Si Si1 0.471139 0.839377 0.364616
Si Si2 0.750000 0.250000 0.000000
Si Si3 0.911381 0.417928 0.872156
Si Si4 0.291353 0.163441 0.631794
Si Si5 0.771510 0.787924 0.833183
Si Si6 0.000000 0.877579 0.750000
Si Si7 0.854163 0.955367 0.248148
Si Si8 0.464383 0.656009 0.943128
O O1 0.608135 0.763737 0.447960
O O2 0.407586 0.860490 0.257124
O O3 0.354817 0.767322 0.328521
O O4 0.498736 0.963418 0.417226
O O5 0.780041 0.385814 0.057308
O O6 0.849637 0.371476 0.769318
O O7 0.778270 0.460773 0.824182
O O8 0.980491 0.300869 0.943930
O O9 0.359851 0.295337 0.648067
O O10 0.155824 0.148653 0.584984
O O11 0.702456 0.668992 0.818342
O O12 0.881959 0.873173 0.936920
O O13 0.040092 0.963715 0.721005
O O14 0.917715 0.911509 0.352796
#
# Coordination Sequence:
#
# PCOD9274272 Si02
#       8
#     8   4   8   8   8   4   8   8
#     4  11  21  39  61  93 131 167 213 269 336 377
#     4  12  24  36  60  94 132 162 200 276 326 380
#     4  10  20  38  62  89 126 171 213 270 327 384
#     4  12  22  38  62  91 134 159 209 270 326 387
#     4  10  21  38  63  92 126 168 222 267 317 399
#     4  12  22  40  64  90 130 172 210 272 342 376
#     4  10  22  38  64  90 125 169 219 270 328 385
#     4  11  21  40  64  94 124 170 223 271 310 408
#
# _framework density 23.601465999999999
#
# number of rings (size 3 to 8) (size 9 to 14) (size 15 to 20)
#    0.000    1.143    8.571    0.000    0.000    4.000 
#    2.571    0.714   12.571    0.000    0.000    0.000 
#    0.000    0.000    0.000    0.000    0.000    0.000 
#
# Total GULP energy -155946.309324 kJ/mol
# GULP energy per Si atom -5569.511047 kJ/mol
# Density = 2.354775 g / cm^3
# Si number density = 23.601466 Si / 1000 Ang^3
#
#
#
# Elastic Constant Matrix: (Units=GPa)
#
#
# Indices 1 2 3 4 5 6 
#
# 1 71.9818 55.4153 -2.7528 0.0000 -16.7270 0.0000
# 2 55.4153 93.6033 16.2472 0.0002 7.3136 0.0000
# 3 -2.7528 16.2472 65.9627 0.0004 1.3031 0.0001
# 4 0.0000 0.0002 0.0004 18.2750 0.0001 1.9626
# 5 -16.7270 7.3136 1.3031 0.0001 30.0207 0.0000
# 6 0.0000 0.0000 0.0001 1.9626 0.0000 25.0502
#
#
#
# Elastic Compliance Matrix: (Units=1/GPa)
#
#
# Indices 1 2 3 4 5 6 
#
# 1 0.046074 -0.031414 0.009010 0.000000 0.032934 0.000000
# 2 -0.031414 0.032786 -0.008891 0.000000 -0.025105 0.000000
# 3 0.009010 -0.008891 0.017599 0.000000 0.006422 0.000000
# 4 0.000000 0.000000 0.000000 0.055184 0.000000 -0.004323
# 5 0.032934 -0.025105 0.006422 0.000000 0.057498 0.000000
# 6 0.000000 0.000000 0.000000 -0.004323 0.000000 0.040259
#
#
# Mechanical properties :
#
#
# Convention : Reuss Voigt Hill
#
# Bulk Modulus (GPa) = 29.52510 41.04081 35.28295
# Shear Modulus (GPa) = 15.46651 25.51171 20.48911
#
# Velocity S-wave (km/s) = 2.56270 3.29133 2.94960
# Velocity P-wave (km/s) = 4.61450 5.64541 5.15578
#
# Compressibility (1/GPa) = 0.03386949
#
# Stress axis : x y z
#
# Youngs Moduli (GPa) = 21.70407 30.50082 56.82131
#
# Poissons Ratio (x) = 0.95816 -0.51195
# Poissons Ratio (y) = 0.68182 0.50517
# Poissons Ratio (z) = -0.19555 0.27117
#
# Static dielectric constant tensor:
#      x y z
#    x 1.700850 0.000000 0.142640 
#    y 0.000000 1.964610 0.000000 
#    z 0.142640 0.000000 1.793340 
# 
# From -- ./inp_files/277156.got.cif
#   From: 2010.05.17/outbox.cif.g08.bks.cpg/sg15_139_cif.got.tgz:277156.got - 2010.06.03 18:47:42.
