data_PCOD9274854
_publ_section_title
;
Structure prediction by ZEFSAII (Michael W. Deem and Ramdas Pophale) SiO2 
 PCOD9274854
Probable space group: C 2/C
;
_chemical_formula_sum "Si O2"
_cell_formula_units_Z 64
_cell_length_a 16.351359
_cell_length_b 14.272994
_cell_length_c 15.207126
_cell_angle_alpha 90.000000
_cell_angle_beta 53.056583
_cell_angle_gamma 90.000000
_cell_volume 2836.531162
_symmetry_space_group_name_H-M "C 2/C"
_symmetry_group_IT_number 15
_symmetry_cell_setting 'monoclinic'
loop_
_space_group_symop_operation_xyz
x,y,z
-x,y,1/2-z
-x,-y,-z
x,-y,1/2+z
1/2+x,1/2+y,z
1/2-x,1/2+y,1/2-z
1/2-x,1/2-y,-z
1/2+x,1/2-y,1/2+z
loop_
_atom_site_type_symbol
_atom_site_label
_atom_site_fract_x
_atom_site_fract_y
_atom_site_fract_z
Si Si1 0.930323 0.384508 0.005369
Si Si2 0.391508 0.996728 0.187732
Si Si3 0.888392 0.234608 0.586943
Si Si4 0.362079 0.518804 0.892792
Si Si5 0.389584 0.717825 0.786194
Si Si6 0.316806 0.093694 0.398350
Si Si7 0.218802 0.117705 0.204506
Si Si8 0.504733 0.422561 0.920483
O O1 0.851569 0.376493 0.975265
O O2 0.999424 0.467376 0.917900
O O3 0.014275 0.304463 0.966510
O O4 0.880616 0.404370 0.133249
O O5 0.384352 0.020911 0.295865
O O6 0.301135 0.060995 0.208306
O O7 0.883845 0.193426 0.687771
O O8 0.782537 0.289311 0.637318
O O9 0.921529 0.156680 0.496715
O O10 0.373863 0.621666 0.845871
O O11 0.307870 0.445873 0.862692
O O12 0.467554 0.477897 0.859296
O O13 0.288973 0.539180 0.023118
O O14 0.500000 0.755009 0.750000
O O15 0.315207 0.805583 0.851420
O O16 0.114485 0.123714 0.328280
O O17 0.500000 0.500000 0.000000
#
# Coordination Sequence:
#
# PCOD9274854 Si02
#       8
#     8   8   8   8   8   8   8   8
#     4  10  20  39  67 104 147 181 234 299 365 430
#     4  10  20  38  66 102 146 188 229 292 360 440
#     4  11  25  45  74 107 141 190 242 306 371 441
#     4  12  27  43  70 100 141 195 245 295 370 442
#     4  12  22  41  68 104 142 179 231 303 364 434
#     4  12  21  39  69 107 142 187 238 298 367 435
#     4  11  23  47  69 100 144 188 244 301 358 438
#     4  12  27  48  71 102 146 195 249 304 367 445
#
# _framework density 22.562771000000001
#
# number of rings (size 3 to 8) (size 9 to 14) (size 15 to 20)
#    0.000    0.750    5.000    4.125    0.000    1.500 
#    4.500    0.000    0.000    0.000    0.000    0.000 
#    0.000    0.000    0.000    0.000    0.000    0.000 
#
# Total GULP energy -178541.027670 kJ/mol
# GULP energy per Si atom -5579.407115 kJ/mol
# Density = 2.251142 g / cm^3
# Si number density = 22.562771 Si / 1000 Ang^3
#
#
#
# Elastic Constant Matrix: (Units=GPa)
#
#
# Indices 1 2 3 4 5 6 
#
# 1 83.9699 24.5002 24.3002 0.0000 -3.1967 0.0000
# 2 24.5002 42.8704 62.7462 0.0000 -1.4233 0.0000
# 3 24.3002 62.7462 118.1423 0.0000 -4.0146 0.0000
# 4 0.0000 0.0000 0.0000 30.0595 0.0000 2.6674
# 5 -3.1967 -1.4233 -4.0146 0.0000 38.7083 0.0000
# 6 0.0000 0.0000 0.0000 2.6674 0.0000 27.0032
#
#
#
# Elastic Compliance Matrix: (Units=1/GPa)
#
#
# Indices 1 2 3 4 5 6 
#
# 1 0.015476 -0.018894 0.006896 0.000000 0.001298 0.000000
# 2 -0.018894 0.127973 -0.064201 0.000000 -0.003513 0.000000
# 3 0.006896 -0.064201 0.041228 0.000000 0.002485 0.000000
# 4 0.000000 0.000000 0.000000 0.033562 0.000000 -0.003315
# 5 0.001298 -0.003513 0.002485 0.000000 0.026070 0.000000
# 6 0.000000 0.000000 0.000000 -0.003315 0.000000 0.037360
#
#
# Mechanical properties :
#
#
# Convention : Reuss Voigt Hill
#
# Bulk Modulus (GPa) = 30.97993 52.00843 41.49418
# Shear Modulus (GPa) = 11.24036 28.04991 19.64514
#
# Velocity S-wave (km/s) = 2.23442 3.52972 2.95394
# Velocity P-wave (km/s) = 4.51854 6.30179 5.48314
#
# Compressibility (1/GPa) = 0.03227897
#
# Stress axis : x y z
#
# Youngs Moduli (GPa) = 64.61763 7.81415 24.25542
#
# Poissons Ratio (x) = 0.14764 -0.16726
# Poissons Ratio (y) = 1.22088 1.55721
# Poissons Ratio (z) = -0.44558 0.50167
#
# Static dielectric constant tensor:
#      x y z
#    x 1.888470 0.000000 -0.007870 
#    y 0.000000 1.847630 0.000000 
#    z -0.007870 0.000000 1.906780 
# 
# From -- ./inp_files/162557.got.cif
#   From: 2010.05.17/outbox.cif.g08.bks.cpg/sg15_82_cif.got.tgz:162557.got - 2010.06.03 18:47:42.
