data_PCOD9274428
_publ_section_title
;
Structure prediction by ZEFSAII (Michael W. Deem and Ramdas Pophale) SiO2 
 PCOD9274428
Probable space group: C 2/C
;
_chemical_formula_sum "Si O2"
_cell_formula_units_Z 44
_cell_length_a 8.505605
_cell_length_b 12.971118
_cell_length_c 16.455719
_cell_angle_alpha 90.000000
_cell_angle_beta 94.533419
_cell_angle_gamma 90.000000
_cell_volume 1809.833489
_symmetry_space_group_name_H-M "C 2/C"
_symmetry_group_IT_number 15
_symmetry_cell_setting 'monoclinic'
loop_
_space_group_symop_operation_xyz
x,y,z
-x,y,1/2-z
-x,-y,-z
x,-y,1/2+z
1/2+x,1/2+y,z
1/2-x,1/2+y,1/2-z
1/2-x,1/2-y,-z
1/2+x,1/2-y,1/2+z
loop_
_atom_site_type_symbol
_atom_site_label
_atom_site_fract_x
_atom_site_fract_y
_atom_site_fract_z
Si Si1 0.673355 0.246511 0.792781
Si Si2 0.785871 0.120658 0.346352
Si Si3 0.368720 0.327516 0.085693
Si Si4 0.092721 0.832595 0.953215
Si Si5 0.175524 0.508159 0.478324
Si Si6 0.500000 0.363472 0.250000
O O1 0.500000 0.210254 0.750000
O O2 0.696573 0.358401 0.748407
O O3 0.656764 0.254121 0.888747
O O4 0.837355 0.190329 0.777365
O O5 0.710060 0.227755 0.376672
O O6 0.686937 0.028812 0.381782
O O7 0.955298 0.111842 0.395469
O O8 0.248631 0.392887 0.027397
O O9 0.433144 0.400498 0.160739
O O10 0.504146 0.291166 0.029204
O O11 0.220989 0.912840 0.988368
O O12 0.000000 0.500000 0.500000
#
# Coordination Sequence:
#
# PCOD9274428 Si02
#       6
#     8   8   8   8   8   4
#     4   9  20  38  63  93 120 162 209 255 315 376
#     4   9  19  41  65  85 123 161 207 257 308 374
#     4  10  21  42  64  89 123 165 208 258 311 372
#     4  10  20  38  63  89 120 162 204 250 315 370
#     4  11  23  38  59  93 125 159 210 255 310 379
#     4  10  22  40  64  90 132 156 210 262 310 366
#
# _framework density 24.311630999999998
#
# number of rings (size 3 to 8) (size 9 to 14) (size 15 to 20)
#    0.000    2.182    0.000    4.364    5.091    0.727 
#   18.000    0.000    0.000    0.000    0.000    0.000 
#    0.000    0.000    0.000    0.000    0.000    0.000 
#
# Total GULP energy -122708.392761 kJ/mol
# GULP energy per Si atom -5577.654216 kJ/mol
# Density = 2.425630 g / cm^3
# Si number density = 24.311631 Si / 1000 Ang^3
#
#
#
# Elastic Constant Matrix: (Units=GPa)
#
#
# Indices 1 2 3 4 5 6 
#
# 1 163.7525 43.6471 24.5387 0.0000 -33.4563 0.0000
# 2 43.6471 49.1478 25.2218 0.0000 -3.9343 0.0000
# 3 24.5387 25.2218 127.2562 0.0000 -24.5757 0.0000
# 4 0.0000 0.0000 0.0000 21.2468 0.0000 -5.4977
# 5 -33.4563 -3.9343 -24.5757 0.0000 39.1269 0.0000
# 6 0.0000 0.0000 0.0000 -5.4977 0.0000 28.2356
#
#
#
# Elastic Compliance Matrix: (Units=1/GPa)
#
#
# Indices 1 2 3 4 5 6 
#
# 1 0.010045 -0.009007 0.001516 0.000000 0.008635 0.000000
# 2 -0.009007 0.030741 -0.005970 0.000000 -0.008361 0.000000
# 3 0.001516 -0.005970 0.010110 0.000000 0.007046 0.000000
# 4 0.000000 0.000000 0.000000 0.049563 0.000000 0.009650
# 5 0.008635 -0.008361 0.007046 0.000000 0.036527 0.000000
# 6 0.000000 0.000000 0.000000 0.009650 0.000000 0.037295
#
#
# Mechanical properties :
#
#
# Convention : Reuss Voigt Hill
#
# Bulk Modulus (GPa) = 41.71580 58.55240 50.13410
# Shear Modulus (GPa) = 23.90126 34.17179 29.03653
#
# Velocity S-wave (km/s) = 3.13888 3.75317 3.45968
# Velocity P-wave (km/s) = 5.50752 6.55119 6.05189
#
# Compressibility (1/GPa) = 0.02397173
#
# Stress axis : x y z
#
# Youngs Moduli (GPa) = 99.55481 32.53037 98.91309
#
# Poissons Ratio (x) = 0.29301 -0.14995
# Poissons Ratio (y) = 0.89671 0.59056
# Poissons Ratio (z) = -0.15092 0.19422
#
# Static dielectric constant tensor:
#      x y z
#    x 1.957220 0.000000 -0.032010 
#    y 0.000000 2.002850 0.000000 
#    z -0.032010 0.000000 1.999820 
# 
# From -- ./inp_files/188896.got.cif
#   From: 2010.05.17/outbox.cif.g08.bks.cpg/sg15_95_cif.got.tgz:188896.got - 2010.06.03 18:47:42.
