data_PCOD9274671
_publ_section_title
;
Structure prediction by ZEFSAII (Michael W. Deem and Ramdas Pophale) SiO2 
 PCOD9274671
Probable space group: C 2/C
;
_chemical_formula_sum "Si O2"
_cell_formula_units_Z 36
_cell_length_a 11.130233
_cell_length_b 8.688455
_cell_length_c 15.170037
_cell_angle_alpha 90.000000
_cell_angle_beta 108.476133
_cell_angle_gamma 90.000000
_cell_volume 1391.395278
_symmetry_space_group_name_H-M "C 2/C"
_symmetry_group_IT_number 15
_symmetry_cell_setting 'monoclinic'
loop_
_space_group_symop_operation_xyz
x,y,z
-x,y,1/2-z
-x,-y,-z
x,-y,1/2+z
1/2+x,1/2+y,z
1/2-x,1/2+y,1/2-z
1/2-x,1/2-y,-z
1/2+x,1/2-y,1/2+z
loop_
_atom_site_type_symbol
_atom_site_label
_atom_site_fract_x
_atom_site_fract_y
_atom_site_fract_z
Si Si1 0.341944 0.625008 0.975711
Si Si2 0.909192 0.042650 0.643716
Si Si3 0.759137 0.313207 0.804582
Si Si4 0.500000 0.880547 0.250000
Si Si5 0.350930 0.882044 0.629333
O O1 0.353489 0.703548 0.882550
O O2 0.261636 0.470469 0.943597
O O3 0.250000 0.750000 0.000000
O O4 0.446440 0.573659 0.072076
O O5 0.886635 0.214660 0.605469
O O6 0.000000 0.045062 0.750000
O O7 0.779453 0.967601 0.652110
O O8 0.625689 0.220282 0.766302
O O9 0.809583 0.352396 0.720791
O O10 0.535171 0.994215 0.338956
#
# Coordination Sequence:
#
# PCOD9274671 Si02
#       5
#     8   8   8   4   8
#     4   9  21  39  65  91 130 174 208 268 337 383
#     4  11  20  37  65  90 129 173 214 269 333 378
#     4  10  21  40  65  91 128 174 216 269 330 389
#     4  10  20  38  64  92 134 166 218 266 328 384
#     4  11  21  39  66  95 124 173 221 268 326 395
#
# _framework density 25.873308000000002
#
# number of rings (size 3 to 8) (size 9 to 14) (size 15 to 20)
#    0.000    1.778    2.222    3.333    0.000    0.000 
#    0.000    4.444    0.000   18.667    0.000    0.000 
#    0.000    0.000    0.000    0.000    0.000    0.000 
#
# Total GULP energy -100691.433852 kJ/mol
# GULP energy per Si atom -5593.968547 kJ/mol
# Density = 2.581442 g / cm^3
# Si number density = 25.873308 Si / 1000 Ang^3
#
#
#
# Elastic Constant Matrix: (Units=GPa)
#
#
# Indices 1 2 3 4 5 6 
#
# 1 85.1007 40.8171 27.5513 0.0000 -1.9385 0.0000
# 2 40.8171 167.7623 43.2896 0.0000 11.8388 0.0000
# 3 27.5513 43.2896 136.6804 0.0000 7.1162 0.0000
# 4 0.0000 0.0000 0.0000 51.1460 0.0000 2.7186
# 5 -1.9385 11.8388 7.1162 0.0000 32.5093 0.0000
# 6 0.0000 0.0000 0.0000 2.7186 0.0000 17.1604
#
#
#
# Elastic Compliance Matrix: (Units=1/GPa)
#
#
# Indices 1 2 3 4 5 6 
#
# 1 0.013899 -0.003043 -0.001961 0.000000 0.002366 0.000000
# 2 -0.003043 0.007280 -0.001563 0.000000 -0.002490 0.000000
# 3 -0.001961 -0.001563 0.008277 0.000000 -0.001360 0.000000
# 4 0.000000 0.000000 0.000000 0.019718 0.000000 -0.003124
# 5 0.002366 -0.002490 -0.001360 0.000000 0.032106 0.000000
# 6 0.000000 0.000000 0.000000 -0.003124 0.000000 0.058769
#
#
# Mechanical properties :
#
#
# Convention : Reuss Voigt Hill
#
# Bulk Modulus (GPa) = 61.26204 68.09552 64.67878
# Shear Modulus (GPa) = 31.52120 38.68882 35.10501
#
# Velocity S-wave (km/s) = 3.49419 3.87113 3.68748
# Velocity P-wave (km/s) = 6.32521 6.80858 6.57134
#
# Compressibility (1/GPa) = 0.01632332
#
# Stress axis : x y z
#
# Youngs Moduli (GPa) = 71.94798 137.36081 120.81037
#
# Poissons Ratio (x) = 0.41793 0.23694
# Poissons Ratio (y) = 0.21891 0.18880
# Poissons Ratio (z) = 0.14111 0.21467
#
# Static dielectric constant tensor:
#      x y z
#    x 2.089740 0.000000 0.007350 
#    y 0.000000 2.049210 0.000000 
#    z 0.007350 0.000000 2.074730 
# 
# From -- ./inp_files/150139.got.cif
#   From: 2010.05.17/outbox.cif.g08.bks.cpg/sg15_76_cif.got.tgz:150139.got - 2010.06.03 18:47:42.
