data_PCOD9274155
_publ_section_title
;
Structure prediction by ZEFSAII (Michael W. Deem and Ramdas Pophale) SiO2 
 PCOD9274155
Probable space group: C 2/C
;
_chemical_formula_sum "Si O2"
_cell_formula_units_Z 60
_cell_length_a 10.738575
_cell_length_b 16.513969
_cell_length_c 25.615665
_cell_angle_alpha 90.000000
_cell_angle_beta 147.712081
_cell_angle_gamma 90.000000
_cell_volume 2426.535173
_symmetry_space_group_name_H-M "C 2/C"
_symmetry_group_IT_number 15
_symmetry_cell_setting 'monoclinic'
loop_
_space_group_symop_operation_xyz
x,y,z
-x,y,1/2-z
-x,-y,-z
x,-y,1/2+z
1/2+x,1/2+y,z
1/2-x,1/2+y,1/2-z
1/2-x,1/2-y,-z
1/2+x,1/2-y,1/2+z
loop_
_atom_site_type_symbol
_atom_site_label
_atom_site_fract_x
_atom_site_fract_y
_atom_site_fract_z
Si Si1 0.748546 0.526320 0.064819
Si Si2 0.974429 0.941641 0.371624
Si Si3 0.396445 0.707138 0.351200
Si Si4 0.000000 0.518771 0.250000
Si Si5 0.977575 0.767567 0.150331
Si Si6 0.600167 0.588717 0.342166
Si Si7 0.231201 0.653795 0.940848
Si Si8 0.449982 0.223298 0.443369
O O1 0.907862 0.564803 0.165871
O O2 0.500000 0.500000 0.000000
O O3 0.671571 0.573739 0.986267
O O4 0.857618 0.437679 0.092744
O O5 0.943127 0.860449 0.328437
O O6 0.728822 0.969308 0.311034
O O7 0.078824 0.011960 0.372152
O O8 0.448666 0.657541 0.316862
O O9 0.524941 0.654195 0.440723
O O10 0.545517 0.790000 0.404138
O O11 0.131332 0.729651 0.250075
O O12 0.027313 0.729622 0.110679
O O13 0.700902 0.765701 0.058883
O O14 0.500000 0.568969 0.250000
O O15 0.843287 0.636553 0.421568
O O16 0.290204 0.702225 0.908427
#
# Coordination Sequence:
#
# PCOD9274155 Si02
#       8
#     8   8   8   4   8   8   8   8
#     4  10  20  38  61  96 133 168 216 279 350 403
#     4  11  24  42  67 101 139 177 232 294 358 405
#     4  10  21  40  67  89 123 172 233 276 335 414
#     4  10  22  40  64 102 132 176 220 286 346 418
#     4  11  23  43  64  98 132 184 237 281 343 427
#     4  11  22  44  69  99 134 187 232 283 356 432
#     4  10  20  38  64  91 122 168 221 283 333 403
#     4  10  23  40  65  93 133 183 232 277 348 424
#
# _framework density 24.726614000000001
#
# number of rings (size 3 to 8) (size 9 to 14) (size 15 to 20)
#    0.000    1.600    2.667    2.400    0.000    3.200 
#    7.200    0.000    0.000    0.000    0.000    0.000 
#    0.000    0.000    0.000    0.000    0.000    0.000 
#
# Total GULP energy -167771.025258 kJ/mol
# GULP energy per Si atom -5592.367509 kJ/mol
# Density = 2.467034 g / cm^3
# Si number density = 24.726614 Si / 1000 Ang^3
#
#
#
# Elastic Constant Matrix: (Units=GPa)
#
#
# Indices 1 2 3 4 5 6 
#
# 1 85.5762 28.6551 30.5985 0.0001 3.2017 0.0000
# 2 28.6551 101.1501 32.3913 0.0000 10.6448 0.0000
# 3 30.5985 32.3913 186.5454 -0.0004 -17.3251 -0.0001
# 4 0.0001 0.0000 -0.0004 -9.7158 0.0000 3.2252
# 5 3.2017 10.6448 -17.3251 0.0000 33.4075 0.0000
# 6 0.0000 0.0000 -0.0001 3.2252 0.0000 30.2512
#
#
#
# Elastic Compliance Matrix: (Units=1/GPa)
#
#
# Indices 1 2 3 4 5 6 
#
# 1 0.013403 -0.003101 -0.001773 0.000000 -0.001216 0.000000
# 2 -0.003101 0.011870 -0.001971 0.000000 -0.004507 0.000000
# 3 -0.001773 -0.001971 0.006375 0.000000 0.004104 0.000000
# 4 0.000000 0.000000 0.000000 -0.099407 0.000000 0.010598
# 5 -0.001216 -0.004507 0.004104 0.000000 0.033614 0.000000
# 6 0.000000 0.000000 0.000000 0.010598 0.000000 0.031927
#
#
# Mechanical properties :
#
#
# Convention : Reuss Voigt Hill
#
# Bulk Modulus (GPa) = 55.68572 61.84018 58.76295
# Shear Modulus (GPa) = 286.37469 29.56369 157.96919
#
# Velocity S-wave (km/s) = 10.77348 3.46153 8.00156
# Velocity P-wave (km/s) = 13.31640 6.40625 10.44908
#
# Compressibility (1/GPa) = 0.01795792
#
# Stress axis : x y z
#
# Youngs Moduli (GPa) = 74.60792 84.24295 156.86710
#
# Poissons Ratio (x) = 0.26127 0.27811
# Poissons Ratio (y) = 0.23139 0.30919
# Poissons Ratio (z) = 0.13227 0.16605
#
# Static dielectric constant tensor:
#      x y z
#    x 2.005830 0.000000 0.002830 
#    y 0.000000 1.978050 0.000000 
#    z 0.002830 0.000000 1.962710 
# 
# From -- ./inp_files/293570.got.cif
#   From: 2010.05.17/outbox.cif.g08.bks.cpg/sg15_147_cif.got.tgz:293570.got - 2010.06.03 18:47:42.
