data_PCOD9274176
_publ_section_title
;
Structure prediction by ZEFSAII (Michael W. Deem and Ramdas Pophale) SiO2 
 PCOD9274176
Probable space group: C 2/C
;
_chemical_formula_sum "Si O2"
_cell_formula_units_Z 60
_cell_length_a 8.427594
_cell_length_b 11.478318
_cell_length_c 30.092402
_cell_angle_alpha 90.000000
_cell_angle_beta 72.409544
_cell_angle_gamma 90.000000
_cell_volume 2774.862297
_symmetry_space_group_name_H-M "C 2/C"
_symmetry_group_IT_number 15
_symmetry_cell_setting 'monoclinic'
loop_
_space_group_symop_operation_xyz
x,y,z
-x,y,1/2-z
-x,-y,-z
x,-y,1/2+z
1/2+x,1/2+y,z
1/2-x,1/2+y,1/2-z
1/2-x,1/2-y,-z
1/2+x,1/2-y,1/2+z
loop_
_atom_site_type_symbol
_atom_site_label
_atom_site_fract_x
_atom_site_fract_y
_atom_site_fract_z
Si Si1 0.004506 0.707533 0.485925
Si Si2 0.719042 0.907933 0.186329
Si Si3 0.866951 0.884463 0.953672
Si Si4 0.589581 0.702009 0.146702
Si Si5 0.891816 0.944598 0.335310
Si Si6 0.000000 0.580380 0.250000
Si Si7 0.757875 0.276076 0.225278
Si Si8 0.828278 0.860596 0.436086
O O1 0.063031 0.819316 0.509599
O O2 0.166467 0.627703 0.469252
O O3 0.936520 0.752218 0.444373
O O4 0.850641 0.652925 0.525552
O O5 0.697641 0.816286 0.148546
O O6 0.577777 0.007070 0.202421
O O7 0.689578 0.839470 0.234601
O O8 0.908874 0.950244 0.173458
O O9 0.929281 0.819942 0.903963
O O10 0.910012 0.019467 0.946448
O O11 0.661747 0.580246 0.160216
O O12 0.414383 0.729999 0.184607
O O13 0.842820 0.868673 0.296711
O O14 0.817299 0.877908 0.384366
O O15 0.851705 0.666827 0.250086
#
# Coordination Sequence:
#
# PCOD9274176 Si02
#       8
#     8   8   8   8   8   4   8   8
#     4  10  20  38  62  84 120 148 190 230 290 344
#     4  12  24  40  60  85 117 156 195 240 289 343
#     4  10  21  38  60  88 115 152 188 237 284 345
#     4  11  24  39  61  87 119 151 197 240 290 339
#     4  11  24  39  61  87 119 151 197 240 290 339
#     4  12  24  40  60  84 116 154 198 240 288 342
#     4  12  24  40  60  85 117 156 195 240 289 343
#     4  10  21  38  60  88 115 152 188 237 284 345
#
# _framework density 21.622693999999999
#
# number of rings (size 3 to 8) (size 9 to 14) (size 15 to 20)
#    0.000    1.067    4.000    2.400    1.867    1.067 
#    0.000    0.000    2.933    0.000    0.000    0.000 
#    0.000    0.000    0.000    0.000    0.000    0.000 
#
# Total GULP energy -167655.916571 kJ/mol
# GULP energy per Si atom -5588.530552 kJ/mol
# Density = 2.157348 g / cm^3
# Si number density = 21.622694 Si / 1000 Ang^3
#
#
#
# Elastic Constant Matrix: (Units=GPa)
#
#
# Indices 1 2 3 4 5 6 
#
# 1 10.3826 0.7675 0.5723 0.0000 -1.6952 0.0000
# 2 0.7675 62.3249 -3.4445 0.0000 16.1146 0.0000
# 3 0.5723 -3.4445 47.3377 0.0000 -5.1290 0.0000
# 4 0.0000 0.0000 0.0000 29.7067 0.0000 -5.0124
# 5 -1.6952 16.1146 -5.1290 0.0000 19.4287 0.0000
# 6 0.0000 0.0000 0.0000 -5.0124 0.0000 5.6263
#
#
#
# Elastic Compliance Matrix: (Units=1/GPa)
#
#
# Indices 1 2 3 4 5 6 
#
# 1 0.098639 -0.004376 -0.000191 0.000000 0.012186 0.000000
# 2 -0.004376 0.020625 -0.000351 0.000000 -0.017582 0.000000
# 3 -0.000191 -0.000351 0.021754 0.000000 0.006017 0.000000
# 4 0.000000 0.000000 0.000000 0.039618 0.000000 0.035295
# 5 0.012186 -0.017582 0.006017 0.000000 0.068705 0.000000
# 6 0.000000 0.000000 0.000000 0.035295 0.000000 0.209180
#
#
# Mechanical properties :
#
#
# Convention : Reuss Voigt Hill
#
# Bulk Modulus (GPa) = 7.62300 12.87066 10.24683
# Shear Modulus (GPa) = 9.76404 19.09567 14.42986
#
# Velocity S-wave (km/s) = 2.12731 2.97498 2.58611
# Velocity P-wave (km/s) = 3.09306 4.21497 3.69682
#
# Compressibility (1/GPa) = 0.13118190
#
# Stress axis : x y z
#
# Youngs Moduli (GPa) = 10.13802 48.48419 45.96954
#
# Poissons Ratio (x) = 0.21216 0.00876
# Poissons Ratio (y) = 0.04436 0.01615
# Poissons Ratio (z) = 0.00193 0.01703
#
# Static dielectric constant tensor:
#      x y z
#    x 1.787850 0.000000 -0.015970 
#    y 0.000000 1.820310 0.000000 
#    z -0.015970 0.000000 1.757960 
# 
# From -- ./inp_files/288022.got.cif
#   From: 2010.05.17/outbox.cif.g08.bks.cpg/sg15_145_cif.got.tgz:288022.got - 2010.06.03 18:47:42.
