data_PCOD9274814
_publ_section_title
;
Structure prediction by ZEFSAII (Michael W. Deem and Ramdas Pophale) SiO2 
 PCOD9274814
Probable space group: C 2/C
;
_chemical_formula_sum "Si O2"
_cell_formula_units_Z 56
_cell_length_a 9.289732
_cell_length_b 26.285535
_cell_length_c 17.607051
_cell_angle_alpha 90.000000
_cell_angle_beta 139.996269
_cell_angle_gamma 90.000000
_cell_volume 2763.807723
_symmetry_space_group_name_H-M "C 2/C"
_symmetry_group_IT_number 15
_symmetry_cell_setting 'monoclinic'
loop_
_space_group_symop_operation_xyz
x,y,z
-x,y,1/2-z
-x,-y,-z
x,-y,1/2+z
1/2+x,1/2+y,z
1/2-x,1/2+y,1/2-z
1/2-x,1/2-y,-z
1/2+x,1/2-y,1/2+z
loop_
_atom_site_type_symbol
_atom_site_label
_atom_site_fract_x
_atom_site_fract_y
_atom_site_fract_z
Si Si1 0.770775 0.309727 0.994817
Si Si2 0.246906 0.635980 0.850259
Si Si3 0.742093 0.957115 0.154760
Si Si4 0.081401 0.056833 0.042127
Si Si5 0.006915 0.555871 0.395584
Si Si6 0.419590 0.390206 0.796557
Si Si7 0.763519 0.840558 0.196411
O O1 0.749751 0.334001 0.069712
O O2 0.025580 0.320372 0.068414
O O3 0.750000 0.250000 0.000000
O O4 0.570935 0.339111 0.868327
O O5 0.277863 0.673270 0.791209
O O6 0.000000 0.611830 0.750000
O O7 0.437488 0.594075 0.930979
O O8 0.732836 0.901585 0.187998
O O9 0.000000 0.970432 0.250000
O O10 0.625964 0.002138 0.154915
O O11 0.635035 0.947661 0.028063
O O12 0.329578 0.058215 0.109505
O O13 0.046152 0.076572 0.113653
O O14 0.000000 0.000000 0.000000
O O15 0.847329 0.605395 0.324037
O O16 0.500000 0.414084 0.750000
O O17 0.000000 0.829524 0.250000
#
# Coordination Sequence:
#
# PCOD9274814 Si02
#       7
#     8   8   8   8   8   8   8
#     4  10  23  45  69  95 125 172 227 286 354 406
#     4   9  21  39  61  86 125 160 213 270 327 395
#     4  10  22  37  63  93 132 179 225 275 322 403
#     4  11  25  37  58  91 129 178 224 268 324 402
#     4  11  24  38  59  91 134 178 226 268 335 394
#     4  11  25  42  63  92 136 175 225 281 345 406
#     4  10  20  38  65  94 125 160 216 274 332 394
#
# _framework density 20.261901000000002
#
# number of rings (size 3 to 8) (size 9 to 14) (size 15 to 20)
#    0.000    1.714    0.000    3.429   14.000    1.714 
#    0.000    3.571    0.000    0.000    0.000    0.000 
#    0.000    0.000    0.000    0.000    0.000    0.000 
#
# Total GULP energy -156081.044353 kJ/mol
# GULP energy per Si atom -5574.323013 kJ/mol
# Density = 2.021578 g / cm^3
# Si number density = 20.261901 Si / 1000 Ang^3
#
#
#
# Elastic Constant Matrix: (Units=GPa)
#
#
# Indices 1 2 3 4 5 6 
#
# 1 129.7984 29.9140 43.7969 0.0000 24.9065 0.0000
# 2 29.9140 97.3602 47.0241 0.0000 23.9080 0.0000
# 3 43.7969 47.0241 117.6097 0.0001 17.6667 0.0002
# 4 0.0000 0.0000 0.0001 13.7587 0.0000 8.4009
# 5 24.9065 23.9080 17.6667 0.0000 42.8059 0.0000
# 6 0.0000 0.0000 0.0002 8.4009 0.0000 11.4783
#
#
#
# Elastic Compliance Matrix: (Units=1/GPa)
#
#
# Indices 1 2 3 4 5 6 
#
# 1 0.009541 -0.000629 -0.002687 0.000000 -0.004091 0.000000
# 2 -0.000629 0.014029 -0.004534 0.000000 -0.005598 0.000000
# 3 -0.002687 -0.004534 0.011408 0.000000 -0.000613 0.000000
# 4 0.000000 0.000000 0.000000 0.131404 0.000000 -0.096174
# 5 -0.004091 -0.005598 -0.000613 0.000000 0.029121 0.000000
# 6 0.000000 0.000000 0.000000 -0.096174 0.000000 0.157510
#
#
# Mechanical properties :
#
#
# Convention : Reuss Voigt Hill
#
# Bulk Modulus (GPa) = 51.87261 65.13760 58.50510
# Shear Modulus (GPa) = 13.32836 28.54413 20.93625
#
# Velocity S-wave (km/s) = 2.56755 3.75742 3.21796
# Velocity P-wave (km/s) = 5.86911 7.14436 6.53790
#
# Compressibility (1/GPa) = 0.01927800
#
# Stress axis : x y z
#
# Youngs Moduli (GPa) = 104.81228 71.28077 87.65660
#
# Poissons Ratio (x) = 0.04484 0.23552
# Poissons Ratio (y) = 0.06594 0.39744
# Poissons Ratio (z) = 0.28162 0.32319
#
# Static dielectric constant tensor:
#      x y z
#    x 1.890090 0.000000 0.040630 
#    y 0.000000 1.796590 0.000000 
#    z 0.040630 0.000000 1.852040 
# 
# From -- ./inp_files/193917.got.cif
#   From: 2010.05.17/outbox.cif.g08.bks.cpg/sg15_97_cif.got.tgz:193917.got - 2010.06.03 18:47:42.
