data_PCOD9274781
_publ_section_title
;
Structure prediction by ZEFSAII (Michael W. Deem and Ramdas Pophale) SiO2 
 PCOD9274781
Probable space group: C 2/C
;
_chemical_formula_sum "Si O2"
_cell_formula_units_Z 60
_cell_length_a 18.091631
_cell_length_b 14.447098
_cell_length_c 14.438145
_cell_angle_alpha 90.000000
_cell_angle_beta 128.123242
_cell_angle_gamma 90.000000
_cell_volume 2968.728072
_symmetry_space_group_name_H-M "C 2/C"
_symmetry_group_IT_number 15
_symmetry_cell_setting 'monoclinic'
loop_
_space_group_symop_operation_xyz
x,y,z
-x,y,1/2-z
-x,-y,-z
x,-y,1/2+z
1/2+x,1/2+y,z
1/2-x,1/2+y,1/2-z
1/2-x,1/2-y,-z
1/2+x,1/2-y,1/2+z
loop_
_atom_site_type_symbol
_atom_site_label
_atom_site_fract_x
_atom_site_fract_y
_atom_site_fract_z
Si Si1 0.805139 0.282860 0.806287
Si Si2 0.500000 0.673306 0.250000
Si Si3 0.225025 0.067534 0.684923
Si Si4 0.573466 0.168798 0.925861
Si Si5 0.347366 0.569184 0.242695
Si Si6 0.931821 0.529681 0.865092
Si Si7 0.216723 0.489869 0.474776
Si Si8 0.098475 0.362336 0.795330
O O1 0.784428 0.176144 0.809207
O O2 0.717455 0.348445 0.765242
O O3 0.840591 0.302711 0.729713
O O4 0.886951 0.310257 0.941930
O O5 0.429335 0.740683 0.139420
O O6 0.442453 0.612427 0.277860
O O7 0.323745 0.037564 0.809374
O O8 0.237409 0.036561 0.588429
O O9 0.144834 0.008939 0.673077
O O10 0.469570 0.126200 0.854441
O O11 0.637795 0.087858 0.933832
O O12 0.292846 0.522628 0.113866
O O13 0.935682 0.451394 0.790402
O O14 0.000000 0.500000 0.000000
O O15 0.165402 0.589629 0.424217
O O16 0.000000 0.316802 0.750000
#
# Coordination Sequence:
#
# PCOD9274781 Si02
#       8
#     8   4   8   8   8   8   8   8
#     4  11  22  40  61  89 122 160 199 250 318 366
#     4  12  24  38  60  90 122 162 212 252 294 364
#     4  11  23  38  62  86 126 161 196 251 312 367
#     4  11  20  35  63  96 119 148 204 268 310 358
#     4  11  23  42  62  85 124 163 207 254 297 366
#     4  11  18  34  60  91 116 147 195 256 316 353
#     4  10  20  38  65  91 118 154 200 258 318 349
#     4  11  20  34  61  91 124 153 195 251 303 372
#
# _framework density 20.210674999999998
#
# number of rings (size 3 to 8) (size 9 to 14) (size 15 to 20)
#    0.000    1.067    5.333    4.800    0.000    2.133 
#    1.200    3.333    0.000    0.000    0.000    0.000 
#    0.000    0.000    0.000    0.000    0.000    0.000 
#
# Total GULP energy -167650.309541 kJ/mol
# GULP energy per Si atom -5588.343651 kJ/mol
# Density = 2.016467 g / cm^3
# Si number density = 20.210675 Si / 1000 Ang^3
#
#
#
# Elastic Constant Matrix: (Units=GPa)
#
#
# Indices 1 2 3 4 5 6 
#
# 1 85.7751 16.1198 1.0249 0.0000 -24.3539 0.0000
# 2 16.1198 50.6915 -2.8547 0.0000 -18.1800 0.0000
# 3 1.0249 -2.8547 38.5683 0.0000 -13.1015 0.0000
# 4 0.0000 0.0000 0.0000 16.7382 0.0000 -4.7717
# 5 -24.3539 -18.1800 -13.1015 0.0000 20.2811 0.0000
# 6 0.0000 0.0000 0.0000 -4.7717 0.0000 22.6521
#
#
#
# Elastic Compliance Matrix: (Units=1/GPa)
#
#
# Indices 1 2 3 4 5 6 
#
# 1 0.023091 0.010857 0.016546 0.000000 0.048150 0.000000
# 2 0.010857 0.041714 0.025533 0.000000 0.066925 0.000000
# 3 0.016546 0.025533 0.053683 0.000000 0.077436 0.000000
# 4 0.000000 0.000000 0.000000 0.063561 0.000000 0.013389
# 5 0.048150 0.066925 0.077436 0.000000 0.217140 0.000000
# 6 0.000000 0.000000 0.000000 0.013389 0.000000 0.046966
#
#
# Mechanical properties :
#
#
# Convention : Reuss Voigt Hill
#
# Bulk Modulus (GPa) = 4.45709 22.62388 13.54049
# Shear Modulus (GPa) = 12.04616 22.65061 17.34838
#
# Velocity S-wave (km/s) = 2.44402 3.35135 2.93299
# Velocity P-wave (km/s) = 3.18974 5.11798 4.26428
#
# Compressibility (1/GPa) = 0.22436165
#
# Stress axis : x y z
#
# Youngs Moduli (GPa) = 43.30633 23.97258 18.62790
#
# Poissons Ratio (x) = -0.26028 -0.30822
# Poissons Ratio (y) = -0.47019 -0.47563
# Poissons Ratio (z) = -0.71656 -0.61209
#
# Static dielectric constant tensor:
#      x y z
#    x 1.753050 0.000000 -0.014180 
#    y 0.000000 1.720620 0.000000 
#    z -0.014180 0.000000 1.744280 
# 
# From -- ./inp_files/105765.got.cif
#   From: 2010.05.17/outbox.cif.g08.bks.cpg/sg15_53_cif.got.tgz:105765.got - 2010.06.03 18:47:42.
