data_PCOD9274858
_publ_section_title
;
Structure prediction by ZEFSAII (Michael W. Deem and Ramdas Pophale) SiO2 
 PCOD9274858
Probable space group: C 2/C
;
_chemical_formula_sum "Si O2"
_cell_formula_units_Z 36
_cell_length_a 26.885242
_cell_length_b 8.556171
_cell_length_c 9.814665
_cell_angle_alpha 90.000000
_cell_angle_beta 141.761251
_cell_angle_gamma 90.000000
_cell_volume 1397.388759
_symmetry_space_group_name_H-M "C 2/C"
_symmetry_group_IT_number 15
_symmetry_cell_setting 'monoclinic'
loop_
_space_group_symop_operation_xyz
x,y,z
-x,y,1/2-z
-x,-y,-z
x,-y,1/2+z
1/2+x,1/2+y,z
1/2-x,1/2+y,1/2-z
1/2-x,1/2-y,-z
1/2+x,1/2-y,1/2+z
loop_
_atom_site_type_symbol
_atom_site_label
_atom_site_fract_x
_atom_site_fract_y
_atom_site_fract_z
Si Si1 0.000000 0.052074 0.750000
Si Si2 0.360486 0.631746 0.078644
Si Si3 0.870220 0.698560 0.870816
Si Si4 0.919667 0.656756 0.482804
Si Si5 0.818717 0.211913 0.540660
O O1 0.935954 0.167189 0.545118
O O2 0.049080 0.942822 0.750236
O O3 0.339578 0.737571 0.162153
O O4 0.358292 0.747501 0.946506
O O5 0.312981 0.470839 0.992627
O O6 0.902357 0.524770 0.920354
O O7 0.817479 0.698867 0.894302
O O8 0.902751 0.740764 0.300125
O O9 0.000000 0.654497 0.750000
O O10 0.750000 0.250000 0.500000
#
# Coordination Sequence:
#
# PCOD9274858 Si02
#       5
#     4   8   8   8   8
#     4  10  20  38  66 106 142 186 232 292 364 416
#     4  11  24  44  72 104 142 191 237 294 361 425
#     4  11  24  41  71 104 146 188 238 297 354 426
#     4  12  26  44  71 108 146 185 239 298 362 424
#     4  11  27  49  70 102 143 193 245 294 360 430
#
# _framework density 25.762336000000001
#
# number of rings (size 3 to 8) (size 9 to 14) (size 15 to 20)
#    0.000    0.889    2.222    4.667    6.222    5.333 
#    0.000    3.333    0.000    0.000    0.000    0.000 
#    0.000    0.000    0.000    0.000    0.000    0.000 
#
# Total GULP energy -100580.710124 kJ/mol
# GULP energy per Si atom -5587.817229 kJ/mol
# Density = 2.570370 g / cm^3
# Si number density = 25.762336 Si / 1000 Ang^3
#
#
#
# Elastic Constant Matrix: (Units=GPa)
#
#
# Indices 1 2 3 4 5 6 
#
# 1 132.1522 18.1557 30.1458 0.0000 -10.5969 0.0000
# 2 18.1557 194.7951 50.9635 0.0000 -13.6432 0.0000
# 3 30.1458 50.9635 120.3887 0.0000 -27.2410 0.0000
# 4 0.0000 0.0000 0.0000 43.7878 0.0000 -24.2003
# 5 -10.5969 -13.6432 -27.2410 0.0000 49.7511 0.0000
# 6 0.0000 0.0000 0.0000 -24.2003 0.0000 35.3051
#
#
#
# Elastic Compliance Matrix: (Units=1/GPa)
#
#
# Indices 1 2 3 4 5 6 
#
# 1 0.008057 -0.000243 -0.001760 0.000000 0.000686 0.000000
# 2 -0.000243 0.005784 -0.002329 0.000000 0.000259 0.000000
# 3 -0.001760 -0.002329 0.010848 0.000000 0.004926 0.000000
# 4 0.000000 0.000000 0.000000 0.036766 0.000000 0.025201
# 5 0.000686 0.000259 0.004926 0.000000 0.023015 0.000000
# 6 0.000000 0.000000 0.000000 0.025201 0.000000 0.045599
#
#
# Mechanical properties :
#
#
# Convention : Reuss Voigt Hill
#
# Bulk Modulus (GPa) = 62.39888 71.76289 67.08089
# Shear Modulus (GPa) = 34.70506 48.97354 41.83930
#
# Velocity S-wave (km/s) = 3.67430 4.36475 4.03432
# Velocity P-wave (km/s) = 6.50186 7.30189 6.91346
#
# Compressibility (1/GPa) = 0.01602593
#
# Stress axis : x y z
#
# Youngs Moduli (GPa) = 124.11959 172.90022 92.18636
#
# Poissons Ratio (x) = 0.04193 0.16220
# Poissons Ratio (y) = 0.03010 0.21470
# Poissons Ratio (z) = 0.21839 0.40269
#
# Static dielectric constant tensor:
#      x y z
#    x 2.116810 0.000000 0.179400 
#    y 0.000000 1.947700 0.000000 
#    z 0.179400 0.000000 2.361250 
# 
# From -- ./inp_files/60983.got.cif
#   From: 2010.05.17/outbox.cif.g08.bks.cpg/sg15_31_cif.got.tgz:60983.got - 2010.06.03 18:47:42.
