data_PCOD9274934
_publ_section_title
;
Structure prediction by ZEFSAII (Michael W. Deem and Ramdas Pophale) SiO2 
 PCOD9274934
Probable space group: C 2/C
;
_chemical_formula_sum "Si O2"
_cell_formula_units_Z 52
_cell_length_a 8.779998
_cell_length_b 29.267761
_cell_length_c 11.216003
_cell_angle_alpha 90.000000
_cell_angle_beta 130.326712
_cell_angle_gamma 90.000000
_cell_volume 2197.282794
_symmetry_space_group_name_H-M "C 2/C"
_symmetry_group_IT_number 15
_symmetry_cell_setting 'monoclinic'
loop_
_space_group_symop_operation_xyz
x,y,z
-x,y,1/2-z
-x,-y,-z
x,-y,1/2+z
1/2+x,1/2+y,z
1/2-x,1/2+y,1/2-z
1/2-x,1/2-y,-z
1/2+x,1/2-y,1/2+z
loop_
_atom_site_type_symbol
_atom_site_label
_atom_site_fract_x
_atom_site_fract_y
_atom_site_fract_z
Si Si1 0.647816 0.551905 0.572508
Si Si2 0.732350 0.958049 0.788131
Si Si3 0.000000 0.917790 0.250000
Si Si4 0.816067 0.219464 0.746680
Si Si5 0.272819 0.845368 0.096066
Si Si6 0.409876 0.901368 0.561457
Si Si7 0.899668 0.689571 0.417854
O O1 0.785292 0.507486 0.658034
O O2 0.468589 0.545335 0.386685
O O3 0.546645 0.554968 0.652989
O O4 0.740612 0.600683 0.591231
O O5 0.567149 0.942585 0.607398
O O6 0.686528 0.919430 0.864905
O O7 0.214099 0.893610 0.380110
O O8 0.853559 0.183523 0.873228
O O9 0.607607 0.208726 0.576851
O O10 0.000000 0.217126 0.750000
O O11 0.804193 0.270198 0.794267
O O12 0.500000 0.836425 0.250000
O O13 0.740562 0.827022 0.544753
O O14 0.534071 0.855035 0.621249
#
# Coordination Sequence:
#
# PCOD9274934 Si02
#       7
#     8   8   4   8   8   8   8
#     4  10  21  41  66  94 131 179 224 273 347 396
#     4   9  22  41  62  94 136 174 224 284 323 411
#     4  10  20  38  66  94 130 178 224 284 324 416
#     4  11  25  43  70  96 129 176 231 278 347 410
#     4  10  23  41  68  98 138 171 226 278 351 410
#     4  10  22  41  66  94 136 171 229 276 344 393
#     4  11  25  45  67 102 135 181 223 291 348 411
#
# _framework density 23.665593999999999
#
# number of rings (size 3 to 8) (size 9 to 14) (size 15 to 20)
#    0.000    1.846    0.000    2.769   10.769    1.846 
#    8.308    1.538    0.000    0.000    0.000    0.000 
#    0.000    0.000    0.000    0.000    0.000    0.000 
#
# Total GULP energy -145073.722119 kJ/mol
# GULP energy per Si atom -5579.758543 kJ/mol
# Density = 2.361173 g / cm^3
# Si number density = 23.665594 Si / 1000 Ang^3
#
#
#
# Elastic Constant Matrix: (Units=GPa)
#
#
# Indices 1 2 3 4 5 6 
#
# 1 87.8539 53.6109 25.1735 0.0000 -25.3619 0.0000
# 2 53.6109 190.7199 42.1967 0.0000 -11.8052 0.0000
# 3 25.1735 42.1967 63.7331 0.0000 11.8711 0.0000
# 4 0.0000 0.0000 0.0000 31.3766 0.0000 10.2692
# 5 -25.3619 -11.8052 11.8711 0.0000 24.0436 0.0000
# 6 0.0000 0.0000 0.0000 10.2692 0.0000 26.3595
#
#
#
# Elastic Compliance Matrix: (Units=1/GPa)
#
#
# Indices 1 2 3 4 5 6 
#
# 1 0.027874 -0.001898 -0.016581 0.000000 0.036657 0.000000
# 2 -0.001898 0.007022 -0.004592 0.000000 0.003713 0.000000
# 3 -0.016581 -0.004592 0.031890 0.000000 -0.035490 0.000000
# 4 0.000000 0.000000 0.000000 0.036528 0.000000 -0.014231
# 5 0.036657 0.003713 -0.035490 0.000000 0.099604 0.000000
# 6 0.000000 0.000000 0.000000 -0.014231 0.000000 0.043481
#
#
# Mechanical properties :
#
#
# Convention : Reuss Voigt Hill
#
# Bulk Modulus (GPa) = 48.43609 64.91879 56.67744
# Shear Modulus (GPa) = 16.69881 31.11100 23.90490
#
# Velocity S-wave (km/s) = 2.65922 3.62969 3.18167
# Velocity P-wave (km/s) = 5.47174 6.71248 6.12362
#
# Compressibility (1/GPa) = 0.02064576
#
# Stress axis : x y z
#
# Youngs Moduli (GPa) = 35.87571 142.40060 31.35771
#
# Poissons Ratio (x) = 0.27024 0.51995
# Poissons Ratio (y) = 0.06808 0.14398
# Poissons Ratio (z) = 0.59486 0.65383
#
# Static dielectric constant tensor:
#      x y z
#    x 1.924000 0.000000 0.013330 
#    y 0.000000 1.877110 0.000000 
#    z 0.013330 0.000000 2.088620 
# 
# From -- ./inp_files/148418.got.cif
#   From: 2010.05.17/outbox.cif.g08.bks.cpg/sg15_75_cif.got.tgz:148418.got - 2010.06.03 18:47:42.
