data_PCOD9274063
_publ_section_title
;
Structure prediction by ZEFSAII (Michael W. Deem and Ramdas Pophale) SiO2 
 PCOD9274063
Probable space group: C 2/C
;
_chemical_formula_sum "Si O2"
_cell_formula_units_Z 56
_cell_length_a 26.586152
_cell_length_b 8.647878
_cell_length_c 11.839681
_cell_angle_alpha 90.000000
_cell_angle_beta 66.913109
_cell_angle_gamma 90.000000
_cell_volume 2504.095935
_symmetry_space_group_name_H-M "C 2/C"
_symmetry_group_IT_number 15
_symmetry_cell_setting 'monoclinic'
loop_
_space_group_symop_operation_xyz
x,y,z
-x,y,1/2-z
-x,-y,-z
x,-y,1/2+z
1/2+x,1/2+y,z
1/2-x,1/2+y,1/2-z
1/2-x,1/2-y,-z
1/2+x,1/2-y,1/2+z
loop_
_atom_site_type_symbol
_atom_site_label
_atom_site_fract_x
_atom_site_fract_y
_atom_site_fract_z
Si Si1 0.170342 0.724484 0.474826
Si Si2 0.203130 0.040991 0.528523
Si Si3 0.556137 0.230207 0.821668
Si Si4 0.907058 0.184709 0.980647
Si Si5 0.557244 0.637386 0.076544
Si Si6 0.706448 0.203723 0.200955
Si Si7 0.890430 0.545611 0.337874
O O1 0.113894 0.800701 0.476597
O O2 0.208705 0.698926 0.333489
O O3 0.149776 0.571251 0.556907
O O4 0.195635 0.856896 0.533113
O O5 0.147959 0.115188 0.524793
O O6 0.249975 0.096137 0.401321
O O7 0.213029 0.125794 0.639323
O O8 0.597448 0.268294 0.885207
O O9 0.494313 0.261347 0.914635
O O10 0.563806 0.339141 0.705851
O O11 0.567141 0.060497 0.765637
O O12 0.919257 0.336609 0.897818
O O13 0.949609 0.043480 0.939181
O O14 0.647657 0.139283 0.213964
#
# Coordination Sequence:
#
# PCOD9274063 Si02
#       7
#     8   8   8   8   8   8   8
#     4  10  21  38  59  83 117 156 194 243 298 349
#     4   9  22  38  60  88 117 158 204 237 294 357
#     4  10  20  40  61  84 121 152 194 252 289 349
#     4  10  20  38  61  87 118 154 195 244 295 349
#     4   9  21  39  59  86 113 153 202 235 297 359
#     4  10  21  40  59  87 125 155 197 252 289 347
#     4  10  22  37  58  90 120 154 199 240 297 353
#
# _framework density 22.363361999999999
#
# number of rings (size 3 to 8) (size 9 to 14) (size 15 to 20)
#    0.000    2.286    0.000    1.286    0.000   14.286 
#    0.000   18.571    0.000    0.000    0.000    0.000 
#    0.000    0.000    0.000    0.000    0.000    0.000 
#
# Total GULP energy -156418.131562 kJ/mol
# GULP energy per Si atom -5586.361841 kJ/mol
# Density = 2.231246 g / cm^3
# Si number density = 22.363362 Si / 1000 Ang^3
#
#
#
# Elastic Constant Matrix: (Units=GPa)
#
#
# Indices 1 2 3 4 5 6 
#
# 1 36.7702 19.6147 12.4767 0.0000 -3.7551 0.0000
# 2 19.6147 124.9212 36.0614 0.0000 -1.8173 0.0000
# 3 12.4767 36.0614 33.1104 0.0000 -5.1869 0.0000
# 4 0.0000 0.0000 0.0000 18.5525 0.0000 1.3767
# 5 -3.7551 -1.8173 -5.1869 0.0000 32.8365 0.0000
# 6 0.0000 0.0000 0.0000 1.3767 0.0000 18.6167
#
#
#
# Elastic Compliance Matrix: (Units=1/GPa)
#
#
# Indices 1 2 3 4 5 6 
#
# 1 0.031736 -0.002325 -0.009103 0.000000 0.002063 0.000000
# 2 -0.002325 0.011909 -0.012338 0.000000 -0.001556 0.000000
# 3 -0.009103 -0.012338 0.047987 0.000000 0.005856 0.000000
# 4 0.000000 0.000000 0.000000 0.054198 0.000000 -0.004008
# 5 0.002063 -0.001556 0.005856 0.000000 0.031529 0.000000
# 6 0.000000 0.000000 0.000000 -0.004008 0.000000 0.054011
#
#
# Mechanical properties :
#
#
# Convention : Reuss Voigt Hill
#
# Bulk Modulus (GPa) = 22.67607 36.78971 29.73289
# Shear Modulus (GPa) = 17.02974 22.44442 19.73708
#
# Velocity S-wave (km/s) = 2.76253 3.17144 2.97402
# Velocity P-wave (km/s) = 4.50968 5.46784 5.01171
#
# Compressibility (1/GPa) = 0.04409936
#
# Stress axis : x y z
#
# Youngs Moduli (GPa) = 31.51018 83.96884 20.83877
#
# Poissons Ratio (x) = 0.19524 0.18970
# Poissons Ratio (y) = 0.07327 0.25711
# Poissons Ratio (z) = 0.28685 1.03602
#
# Static dielectric constant tensor:
#      x y z
#    x 1.850280 0.000000 -0.039520 
#    y 0.000000 1.846530 0.000000 
#    z -0.039520 0.000000 1.807430 
# 
# From -- ./inp_files/125835.got.cif
#   From: 2010.05.17/outbox.cif.g08.bks.cpg/sg15_63_cif.got.tgz:125835.got - 2010.06.03 18:47:42.
