data_PCOD9274133
_publ_section_title
;
Structure prediction by ZEFSAII (Michael W. Deem and Ramdas Pophale) SiO2 
 PCOD9274133
Probable space group: C 2/C
;
_chemical_formula_sum "Si O2"
_cell_formula_units_Z 64
_cell_length_a 19.582502
_cell_length_b 8.810327
_cell_length_c 24.027058
_cell_angle_alpha 90.000000
_cell_angle_beta 47.100593
_cell_angle_gamma 90.000000
_cell_volume 3036.673109
_symmetry_space_group_name_H-M "C 2/C"
_symmetry_group_IT_number 15
_symmetry_cell_setting 'monoclinic'
loop_
_space_group_symop_operation_xyz
x,y,z
-x,y,1/2-z
-x,-y,-z
x,-y,1/2+z
1/2+x,1/2+y,z
1/2-x,1/2+y,1/2-z
1/2-x,1/2-y,-z
1/2+x,1/2-y,1/2+z
loop_
_atom_site_type_symbol
_atom_site_label
_atom_site_fract_x
_atom_site_fract_y
_atom_site_fract_z
Si Si1 0.709940 0.525101 0.881740
Si Si2 0.618907 0.228649 0.959587
Si Si3 0.800237 0.946823 0.736556
Si Si4 0.324682 0.573227 0.840450
Si Si5 0.769606 0.309669 0.550856
Si Si6 0.430372 0.014617 0.422680
Si Si7 0.382577 0.877200 0.160067
Si Si8 0.896105 0.388145 0.822335
O O1 0.639600 0.407180 0.950414
O O2 0.679448 0.524317 0.834331
O O3 0.717230 0.681127 0.910222
O O4 0.814331 0.452790 0.828451
O O5 0.580992 0.177721 0.920652
O O6 0.722643 0.153492 0.901187
O O7 0.561243 0.161662 0.042544
O O8 0.845310 0.023154 0.765793
O O9 0.829517 0.770503 0.714516
O O10 0.690807 0.985294 0.805874
O O11 0.312293 0.423500 0.884294
O O12 0.391894 0.705834 0.822778
O O13 0.750000 0.250000 0.500000
O O14 0.865600 0.400839 0.492744
O O15 0.377810 0.057629 0.395263
O O16 0.528736 0.937058 0.356211
O O17 0.000000 0.438493 0.750000
#
# Coordination Sequence:
#
# PCOD9274133 Si02
#       8
#     8   8   8   8   8   8   8   8
#     4  10  20  38  64  90 120 160 212 248 318 376
#     4   8  19  36  62  84 115 160 201 249 294 374
#     4  10  20  40  65  87 122 164 202 264 311 369
#     4   9  21  38  59  86 116 160 211 244 313 370
#     4  11  22  38  59  90 126 167 200 257 323 370
#     4  11  22  38  60  87 128 159 205 258 307 374
#     4  10  20  38  61  93 120 160 209 249 316 371
#     4  11  23  39  58  88 116 162 210 253 302 378
#
# _framework density 21.075697999999999
#
# number of rings (size 3 to 8) (size 9 to 14) (size 15 to 20)
#    0.000    2.000    1.250    2.625    1.750    1.500 
#    2.250    5.625    0.000    0.000    0.000    0.000 
#    0.000    0.000    0.000    0.000    0.000    0.000 
#
# Total GULP energy -178558.149976 kJ/mol
# GULP energy per Si atom -5579.942187 kJ/mol
# Density = 2.102773 g / cm^3
# Si number density = 21.075698 Si / 1000 Ang^3
#
#
#
# Elastic Constant Matrix: (Units=GPa)
#
#
# Indices 1 2 3 4 5 6 
#
# 1 42.1476 12.7807 15.9183 0.0000 1.6055 0.0001
# 2 12.7807 73.6159 47.1868 0.0001 0.4588 0.0001
# 3 15.9183 47.1868 70.4111 0.0000 10.5413 0.0000
# 4 0.0000 0.0001 0.0000 23.4211 0.0000 1.5904
# 5 1.6055 0.4588 10.5413 0.0000 25.3307 0.0000
# 6 0.0001 0.0001 0.0000 1.5904 0.0000 23.1590
#
#
#
# Elastic Compliance Matrix: (Units=1/GPa)
#
#
# Indices 1 2 3 4 5 6 
#
# 1 0.026019 -0.001229 -0.005135 0.000000 0.000510 0.000000
# 2 -0.001229 0.024961 -0.017483 0.000000 0.006901 0.000000
# 3 -0.005135 -0.017483 0.028776 0.000000 -0.011333 0.000000
# 4 0.000000 0.000000 0.000000 0.042897 0.000000 -0.002946
# 5 0.000510 0.006901 -0.011333 0.000000 0.044037 0.000000
# 6 0.000000 0.000000 0.000000 -0.002946 0.000000 0.043382
#
#
# Mechanical properties :
#
#
# Convention : Reuss Voigt Hill
#
# Bulk Modulus (GPa) = 31.18974 37.54958 34.36966
# Shear Modulus (GPa) = 18.62526 21.73476 20.18001
#
# Velocity S-wave (km/s) = 2.97599 3.21482 3.09771
# Velocity P-wave (km/s) = 5.16137 5.62453 5.39792
#
# Compressibility (1/GPa) = 0.03206182
#
# Stress axis : x y z
#
# Youngs Moduli (GPa) = 38.43382 40.06281 34.75068
#
# Poissons Ratio (x) = 0.04923 0.17845
# Poissons Ratio (y) = 0.04723 0.60755
# Poissons Ratio (z) = 0.19736 0.70042
#
# Static dielectric constant tensor:
#      x y z
#    x 1.764610 0.000000 0.007710 
#    y 0.000000 1.795170 0.000000 
#    z 0.007710 0.000000 1.770700 
# 
# From -- ./inp_files/279556.got.cif
#   From: 2010.05.17/outbox.cif.g08.bks.cpg/sg15_140_cif.got.tgz:279556.got - 2010.06.03 18:47:42.
