data_PCOD9274029
_publ_section_title
;
Structure prediction by ZEFSAII (Michael W. Deem and Ramdas Pophale) SiO2 
 PCOD9274029
Probable space group: C 2/C
;
_chemical_formula_sum "Si O2"
_cell_formula_units_Z 48
_cell_length_a 29.514822
_cell_length_b 16.032285
_cell_length_c 13.935869
_cell_angle_alpha 90.000000
_cell_angle_beta 19.279998
_cell_angle_gamma 90.000000
_cell_volume 2177.342975
_symmetry_space_group_name_H-M "C 2/C"
_symmetry_group_IT_number 15
_symmetry_cell_setting 'monoclinic'
loop_
_space_group_symop_operation_xyz
x,y,z
-x,y,1/2-z
-x,-y,-z
x,-y,1/2+z
1/2+x,1/2+y,z
1/2-x,1/2+y,1/2-z
1/2-x,1/2-y,-z
1/2+x,1/2-y,1/2+z
loop_
_atom_site_type_symbol
_atom_site_label
_atom_site_fract_x
_atom_site_fract_y
_atom_site_fract_z
Si Si1 0.086344 0.344595 0.169056
Si Si2 0.174471 0.417585 0.186011
Si Si3 0.052049 0.324608 0.782391
Si Si4 0.551571 0.310456 0.863260
Si Si5 0.850577 0.816688 0.523900
Si Si6 0.286265 0.397563 0.449987
O O1 0.092940 0.403912 0.248472
O O2 0.032955 0.254713 0.313261
O O3 0.000000 0.373334 0.250000
O O4 0.241457 0.333094 0.823561
O O5 0.061696 0.396912 0.492876
O O6 0.299087 0.351267 0.939292
O O7 0.242253 0.507558 0.051715
O O8 0.124213 0.281428 0.547613
O O9 0.173647 0.353188 0.609157
O O10 0.972747 0.248218 0.994747
O O11 0.433842 0.380330 0.106087
O O12 0.793178 0.855086 0.540350
O O13 0.000000 0.853303 0.250000
#
# Coordination Sequence:
#
# PCOD9274029 Si02
#       6
#     8   8   8   8   8   8
#     4  11  21  37  61  88 116 154 202 252 290 337
#     4  11  22  39  62  88 120 158 194 239 300 362
#     4  10  20  38  61  84 112 156 201 233 283 361
#     4  10  20  38  61  84 112 156 201 233 283 361
#     4  11  21  37  61  88 116 154 202 252 290 337
#     4  11  22  39  62  88 120 158 194 239 300 362
#
# _framework density 22.045217000000001
#
# number of rings (size 3 to 8) (size 9 to 14) (size 15 to 20)
#    0.000    1.333    0.000   11.000    0.000    0.000 
#    0.000    6.667    0.000    4.000    0.000    0.000 
#    0.000    0.000    0.000    0.000    0.000    0.000 
#
# Total GULP energy -134178.313776 kJ/mol
# GULP energy per Si atom -5590.763074 kJ/mol
# Density = 2.199504 g / cm^3
# Si number density = 22.045217 Si / 1000 Ang^3
#
#
#
# Elastic Constant Matrix: (Units=GPa)
#
#
# Indices 1 2 3 4 5 6 
#
# 1 34.6341 1.9723 -1.5207 0.0000 -6.4848 0.0000
# 2 1.9723 83.7372 3.9719 -0.0001 -10.7383 0.0000
# 3 -1.5207 3.9719 92.7499 -0.0002 -6.2670 0.0000
# 4 0.0000 -0.0001 -0.0002 38.7345 0.0000 -9.3354
# 5 -6.4848 -10.7383 -6.2670 0.0000 38.7218 0.0000
# 6 0.0000 0.0000 0.0000 -9.3354 0.0000 -1.6272
#
#
#
# Elastic Compliance Matrix: (Units=1/GPa)
#
#
# Indices 1 2 3 4 5 6 
#
# 1 0.029873 -0.000088 0.000839 0.000000 0.005114 0.000000
# 2 -0.000088 0.012391 -0.000304 0.000000 0.003372 0.000000
# 3 0.000839 -0.000304 0.010932 0.000000 0.001825 0.000000
# 4 0.000000 0.000000 0.000000 0.010835 0.000000 -0.062162
# 5 0.005114 0.003372 0.001825 0.000000 0.027912 0.000000
# 6 0.000000 0.000000 0.000000 -0.062162 0.000000 -0.257924
#
#
# Mechanical properties :
#
#
# Convention : Reuss Voigt Hill
#
# Bulk Modulus (GPa) = 18.48761 24.44091 21.46426
# Shear Modulus (GPa) = -33.59187 28.94569 -2.32309
#
# Velocity S-wave (km/s) = -3.90779 3.62749 -1.02765
# Velocity P-wave (km/s) = 3.45784 5.35310 2.88955
#
# Compressibility (1/GPa) = 0.05409028
#
# Stress axis : x y z
#
# Youngs Moduli (GPa) = 33.47538 80.70317 91.47618
#
# Poissons Ratio (x) = 0.00707 -0.07676
# Poissons Ratio (y) = 0.00293 0.02783
# Poissons Ratio (z) = -0.02809 0.02455
#
# Static dielectric constant tensor:
#      x y z
#    x 1.850090 0.000000 0.002200 
#    y 0.000000 1.818490 0.000000 
#    z 0.002200 0.000000 1.833510 
# 
# From -- ./inp_files/182426.got.cif
#   From: 2010.05.17/outbox.cif.g08.bks.cpg/sg15_92_cif.got.tgz:182426.got - 2010.06.03 18:47:42.
