data_PCOD9274075
_publ_section_title
;
Structure prediction by ZEFSAII (Michael W. Deem and Ramdas Pophale) SiO2 
 PCOD9274075
Probable space group: C 2/C
;
_chemical_formula_sum "Si O2"
_cell_formula_units_Z 40
_cell_length_a 4.768431
_cell_length_b 17.419832
_cell_length_c 20.662632
_cell_angle_alpha 90.000000
_cell_angle_beta 101.378876
_cell_angle_gamma 90.000000
_cell_volume 1682.610492
_symmetry_space_group_name_H-M "C 2/C"
_symmetry_group_IT_number 15
_symmetry_cell_setting 'monoclinic'
loop_
_space_group_symop_operation_xyz
x,y,z
-x,y,1/2-z
-x,-y,-z
x,-y,1/2+z
1/2+x,1/2+y,z
1/2-x,1/2+y,1/2-z
1/2-x,1/2-y,-z
1/2+x,1/2-y,1/2+z
loop_
_atom_site_type_symbol
_atom_site_label
_atom_site_fract_x
_atom_site_fract_y
_atom_site_fract_z
Si Si1 0.048068 0.295981 0.581517
Si Si2 0.057346 0.874359 0.631629
Si Si3 0.782792 0.367045 0.048325
Si Si4 0.000000 0.560884 0.250000
Si Si5 0.130837 0.950194 0.393816
Si Si6 0.000000 0.951681 0.250000
O O1 0.281816 0.328212 0.642265
O O2 0.119049 0.340443 0.517975
O O3 0.142997 0.208928 0.574649
O O4 0.730093 0.320325 0.588214
O O5 0.294379 0.891238 0.695500
O O6 0.931574 0.958430 0.608337
O O7 0.520943 0.423859 0.047107
O O8 0.053693 0.412960 0.090662
O O9 0.220457 0.503709 0.224895
O O10 0.974057 0.916590 0.320942
#
# Coordination Sequence:
#
# PCOD9274075 Si02
#       6
#     8   8   8   4   8   4
#     4  11  24  41  59  85 125 163 195 245 311 363
#     4  11  22  39  64  90 116 155 206 250 295 361
#     4  11  24  41  59  85 125 163 195 245 311 363
#     4  10  20  38  61  88 121 152 188 246 310 350
#     4  11  22  39  64  90 116 155 206 250 295 361
#     4  10  20  38  61  88 121 152 188 246 310 350
#
# _framework density 23.772584999999999
#
# number of rings (size 3 to 8) (size 9 to 14) (size 15 to 20)
#    0.000    1.200    0.000    8.400    0.000    8.000 
#    0.000    6.000    0.000    0.000    0.000    0.000 
#    0.000    0.000    0.000    0.000    0.000    0.000 
#
# Total GULP energy -111498.829325 kJ/mol
# GULP energy per Si atom -5574.941466 kJ/mol
# Density = 2.371848 g / cm^3
# Si number density = 23.772585 Si / 1000 Ang^3
#
#
#
# Elastic Constant Matrix: (Units=GPa)
#
#
# Indices 1 2 3 4 5 6 
#
# 1 145.7184 41.6423 18.7131 0.0000 0.5277 0.0000
# 2 41.6423 100.0810 31.1809 0.0000 8.1035 0.0000
# 3 18.7131 31.1809 60.0152 0.0000 5.4490 0.0000
# 4 0.0000 0.0000 0.0000 19.4524 0.0000 2.5382
# 5 0.5277 8.1035 5.4490 0.0000 43.4058 0.0000
# 6 0.0000 0.0000 0.0000 2.5382 0.0000 49.0574
#
#
#
# Elastic Compliance Matrix: (Units=1/GPa)
#
#
# Indices 1 2 3 4 5 6 
#
# 1 0.007843 -0.003021 -0.000929 0.000000 0.000585 0.000000
# 2 -0.003021 0.013178 -0.005750 0.000000 -0.001702 0.000000
# 3 -0.000929 -0.005750 0.020070 0.000000 -0.001435 0.000000
# 4 0.000000 0.000000 0.000000 0.051757 0.000000 -0.002678
# 5 0.000585 -0.001702 -0.001435 0.000000 0.023529 0.000000
# 6 0.000000 0.000000 0.000000 -0.002678 0.000000 0.020523
#
#
# Mechanical properties :
#
#
# Convention : Reuss Voigt Hill
#
# Bulk Modulus (GPa) = 46.10354 54.32081 50.21217
# Shear Modulus (GPa) = 30.57515 36.66835 33.62175
#
# Velocity S-wave (km/s) = 3.59019 3.93168 3.76481
# Velocity P-wave (km/s) = 6.05158 6.59626 6.32978
#
# Compressibility (1/GPa) = 0.02169031
#
# Stress axis : x y z
#
# Youngs Moduli (GPa) = 127.49967 75.88179 49.82585
#
# Poissons Ratio (x) = 0.22927 0.04628
# Poissons Ratio (y) = 0.38523 0.28651
# Poissons Ratio (z) = 0.11843 0.43634
#
# Static dielectric constant tensor:
#      x y z
#    x 1.881430 0.000000 -0.024870 
#    y 0.000000 1.952360 0.000000 
#    z -0.024870 0.000000 2.135190 
# 
# From -- ./inp_files/260241.got.cif
#   From: 2010.05.17/outbox.cif.g08.bks.cpg/sg15_131_cif.got.tgz:260241.got - 2010.06.03 18:47:42.
