data_PCOD9274950
_publ_section_title
;
Structure prediction by ZEFSAII (Michael W. Deem and Ramdas Pophale) SiO2 
 PCOD9274950
Probable space group: C 2/C
;
_chemical_formula_sum "Si O2"
_cell_formula_units_Z 52
_cell_length_a 15.289616
_cell_length_b 13.563923
_cell_length_c 11.179818
_cell_angle_alpha 90.000000
_cell_angle_beta 103.528324
_cell_angle_gamma 90.000000
_cell_volume 2254.221274
_symmetry_space_group_name_H-M "C 2/C"
_symmetry_group_IT_number 15
_symmetry_cell_setting 'monoclinic'
loop_
_space_group_symop_operation_xyz
x,y,z
-x,y,1/2-z
-x,-y,-z
x,-y,1/2+z
1/2+x,1/2+y,z
1/2-x,1/2+y,1/2-z
1/2-x,1/2-y,-z
1/2+x,1/2-y,1/2+z
loop_
_atom_site_type_symbol
_atom_site_label
_atom_site_fract_x
_atom_site_fract_y
_atom_site_fract_z
Si Si1 0.113478 0.462856 0.930493
Si Si2 0.500000 0.822110 0.750000
Si Si3 0.170856 0.660859 0.678076
Si Si4 0.213486 0.061112 0.598051
Si Si5 0.000000 0.402188 0.250000
Si Si6 0.465416 0.340269 0.436569
Si Si7 0.873455 0.868412 0.839573
Si Si8 0.000000 0.993255 0.750000
O O1 0.197463 0.538227 0.949160
O O2 0.087206 0.387569 0.813853
O O3 0.027288 0.533798 0.877080
O O4 0.136885 0.391328 0.047178
O O5 0.527000 0.753509 0.647300
O O6 0.249725 0.597211 0.761254
O O7 0.193115 0.776080 0.682023
O O8 0.087015 0.657684 0.742519
O O9 0.133920 0.137307 0.545269
O O10 0.170256 0.954105 0.596783
O O11 0.537504 0.331181 0.563842
O O12 0.493920 0.434530 0.362506
O O13 0.912345 0.923568 0.734821
#
# Coordination Sequence:
#
# PCOD9274950 Si02
#       8
#     8   4   8   8   4   8   8   4
#     4  10  21  39  63  92 127 167 212 269 319 378
#     4  10  20  38  66  96 120 172 228 264 300 396
#     4  11  22  40  64  92 124 169 211 264 323 388
#     4  10  24  37  58  96 134 153 212 275 324 367
#     4   9  21  41  61  90 126 166 210 260 320 388
#     4  10  21  40  63  90 124 170 216 264 319 386
#     4  11  22  40  64  89 123 174 213 258 324 390
#     4   9  19  35  61  86 124 156 202 260 310 378
#
# _framework density 23.067834000000001
#
# number of rings (size 3 to 8) (size 9 to 14) (size 15 to 20)
#    0.000    1.846    1.538    2.769    2.154    6.769 
#    0.000    0.000    0.000    7.385    0.000    0.000 
#    0.000    0.000    0.000    0.000    0.000    0.000 
#
# Total GULP energy -144900.156721 kJ/mol
# GULP energy per Si atom -5573.082951 kJ/mol
# Density = 2.301533 g / cm^3
# Si number density = 23.067834 Si / 1000 Ang^3
#
#
#
# Elastic Constant Matrix: (Units=GPa)
#
#
# Indices 1 2 3 4 5 6 
#
# 1 51.2950 -1.4918 -5.6518 0.0000 16.8026 0.0000
# 2 -1.4918 52.2910 -6.6929 0.0000 12.2040 0.0000
# 3 -5.6518 -6.6929 57.8671 0.0000 14.9450 0.0000
# 4 0.0000 0.0000 0.0000 11.8418 0.0000 17.7528
# 5 16.8026 12.2040 14.9450 0.0000 23.9545 0.0000
# 6 0.0000 0.0000 0.0000 17.7528 0.0000 0.1872
#
#
#
# Elastic Compliance Matrix: (Units=1/GPa)
#
#
# Indices 1 2 3 4 5 6 
#
# 1 0.034593 0.012238 0.015105 0.000000 -0.039923 0.000000
# 2 0.012238 0.028220 0.012385 0.000000 -0.030688 0.000000
# 3 0.015105 0.012385 0.029271 0.000000 -0.035167 0.000000
# 4 0.000000 0.000000 0.000000 -0.000598 0.000000 0.056728
# 5 -0.039923 -0.030688 -0.035167 0.000000 0.107324 0.000000
# 6 0.000000 0.000000 0.000000 0.056728 0.000000 -0.037840
#
#
# Mechanical properties :
#
#
# Convention : Reuss Voigt Hill
#
# Bulk Modulus (GPa) = 5.82958 14.86446 10.34702
# Shear Modulus (GPa) = 36.05037 18.88270 27.46653
#
# Velocity S-wave (km/s) = 3.95751 2.86417 3.45437
# Velocity P-wave (km/s) = 4.83892 4.17083 4.51724
#
# Compressibility (1/GPa) = 0.17153887
#
# Stress axis : x y z
#
# Youngs Moduli (GPa) = 28.90771 35.43557 34.16353
#
# Poissons Ratio (x) = -0.43365 -0.51603
# Poissons Ratio (y) = -0.35377 -0.42311
# Poissons Ratio (z) = -0.43665 -0.43886
#
# Static dielectric constant tensor:
#      x y z
#    x 1.879190 0.000000 -0.027190 
#    y 0.000000 1.892490 0.000000 
#    z -0.027190 0.000000 1.854300 
# 
# From -- ./inp_files/97144.got.cif
#   From: 2010.05.17/outbox.cif.g08.bks.cpg/sg15_49_cif.got.tgz:97144.got - 2010.06.03 18:47:42.
