data_PCOD9274672
_publ_section_title
;
Structure prediction by ZEFSAII (Michael W. Deem and Ramdas Pophale) SiO2 
 PCOD9274672
Probable space group: C 2/C
;
_chemical_formula_sum "Si O2"
_cell_formula_units_Z 56
_cell_length_a 13.328062
_cell_length_b 24.759974
_cell_length_c 9.386331
_cell_angle_alpha 90.000000
_cell_angle_beta 64.800896
_cell_angle_gamma 90.000000
_cell_volume 2802.733640
_symmetry_space_group_name_H-M "C 2/C"
_symmetry_group_IT_number 15
_symmetry_cell_setting 'monoclinic'
loop_
_space_group_symop_operation_xyz
x,y,z
-x,y,1/2-z
-x,-y,-z
x,-y,1/2+z
1/2+x,1/2+y,z
1/2-x,1/2+y,1/2-z
1/2-x,1/2-y,-z
1/2+x,1/2-y,1/2+z
loop_
_atom_site_type_symbol
_atom_site_label
_atom_site_fract_x
_atom_site_fract_y
_atom_site_fract_z
Si Si1 0.020044 0.156348 0.579278
Si Si2 0.814627 0.151256 0.497624
Si Si3 0.212099 0.951930 0.644012
Si Si4 0.898753 0.035143 0.996705
Si Si5 0.902036 0.345540 0.195465
Si Si6 0.386863 0.722958 0.221627
Si Si7 0.472254 0.054304 0.934288
O O1 0.055879 0.093956 0.570557
O O2 0.106180 0.186012 0.422498
O O3 0.000000 0.178325 0.750000
O O4 0.906971 0.162647 0.559064
O O5 0.851542 0.099694 0.382597
O O6 0.706366 0.136524 0.653431
O O7 0.799655 0.198962 0.389774
O O8 0.188902 0.958110 0.823506
O O9 0.341029 0.939950 0.538154
O O10 0.161706 0.003697 0.594074
O O11 0.000000 0.000000 0.000000
O O12 0.874709 0.283896 0.171007
O O13 0.000000 0.338571 0.250000
O O14 0.952470 0.393336 0.067010
O O15 0.500000 0.719297 0.250000
O O16 0.500000 0.047090 0.750000
O O17 0.500000 0.000000 0.000000
#
# Coordination Sequence:
#
# PCOD9274672 Si02
#       7
#     8   8   8   8   8   8   8
#     4  11  23  38  56  88 125 159 192 249 309 370
#     4  11  20  38  63  89 119 156 206 253 301 363
#     4  12  23  38  59  90 119 163 201 252 303 376
#     4  12  24  36  58  85 124 158 202 244 312 364
#     4  10  20  38  64  93 115 158 207 260 298 353
#     4   9  20  38  63  89 119 155 208 256 304 359
#     4  11  23  41  62  89 125 158 204 255 305 363
#
# _framework density 19.980492999999999
#
# number of rings (size 3 to 8) (size 9 to 14) (size 15 to 20)
#    0.000    1.143    5.714    2.571    0.000    0.000 
#    0.000    1.429    0.000    0.000    0.000    0.000 
#    0.000    0.000    0.000    0.000    0.000    0.000 
#
# Total GULP energy -156090.081066 kJ/mol
# GULP energy per Si atom -5574.645752 kJ/mol
# Density = 1.993502 g / cm^3
# Si number density = 19.980493 Si / 1000 Ang^3
#
#
#
# Elastic Constant Matrix: (Units=GPa)
#
#
# Indices 1 2 3 4 5 6 
#
# 1 37.3581 11.4622 27.4047 0.0000 -10.7388 0.0000
# 2 11.4622 134.0028 36.4748 0.0000 7.9889 0.0000
# 3 27.4047 36.4748 116.8143 0.0000 -1.2558 0.0000
# 4 0.0000 0.0000 0.0000 12.3050 0.0000 4.8671
# 5 -10.7388 7.9889 -1.2558 0.0000 33.1531 0.0000
# 6 0.0000 0.0000 0.0000 4.8671 0.0000 16.2352
#
#
#
# Elastic Compliance Matrix: (Units=1/GPa)
#
#
# Indices 1 2 3 4 5 6 
#
# 1 0.036520 -0.001681 -0.007914 0.000000 0.011935 0.000000
# 2 -0.001681 0.008377 -0.002250 0.000000 -0.002648 0.000000
# 3 -0.007914 -0.002250 0.011103 0.000000 -0.001601 0.000000
# 4 0.000000 0.000000 0.000000 0.092201 0.000000 -0.027641
# 5 0.011935 -0.002648 -0.001601 0.000000 0.034606 0.000000
# 6 0.000000 0.000000 0.000000 -0.027641 0.000000 0.069881
#
#
# Mechanical properties :
#
#
# Convention : Reuss Voigt Hill
#
# Bulk Modulus (GPa) = 30.95111 48.76206 39.85659
# Shear Modulus (GPa) = 17.41265 26.52756 21.97011
#
# Velocity S-wave (km/s) = 2.95529 3.64768 3.31959
# Velocity P-wave (km/s) = 5.21242 6.49604 5.88931
#
# Compressibility (1/GPa) = 0.03230901
#
# Stress axis : x y z
#
# Youngs Moduli (GPa) = 27.38206 119.38096 90.06934
#
# Poissons Ratio (x) = 0.20069 0.71285
# Poissons Ratio (y) = 0.04603 0.20262
# Poissons Ratio (z) = 0.21671 0.26856
#
# Static dielectric constant tensor:
#      x y z
#    x 1.533570 0.000000 0.012180 
#    y 0.000000 1.800560 0.000000 
#    z 0.012180 0.000000 1.691990 
# 
# From -- ./inp_files/43462.got.cif
#   From: 2010.05.17/outbox.cif.g08.bks.cpg/sg15_22_cif.got.tgz:43462.got - 2010.06.03 18:47:42.
