data_PCOD9274877
_publ_section_title
;
Structure prediction by ZEFSAII (Michael W. Deem and Ramdas Pophale) SiO2 
 PCOD9274877
Probable space group: C 2/C
;
_chemical_formula_sum "Si O2"
_cell_formula_units_Z 48
_cell_length_a 20.738734
_cell_length_b 27.932970
_cell_length_c 12.661770
_cell_angle_alpha 90.000000
_cell_angle_beta 159.778044
_cell_angle_gamma 90.000000
_cell_volume 2535.363002
_symmetry_space_group_name_H-M "C 2/C"
_symmetry_group_IT_number 15
_symmetry_cell_setting 'monoclinic'
loop_
_space_group_symop_operation_xyz
x,y,z
-x,y,1/2-z
-x,-y,-z
x,-y,1/2+z
1/2+x,1/2+y,z
1/2-x,1/2+y,1/2-z
1/2-x,1/2-y,-z
1/2+x,1/2-y,1/2+z
loop_
_atom_site_type_symbol
_atom_site_label
_atom_site_fract_x
_atom_site_fract_y
_atom_site_fract_z
Si Si1 0.387906 0.455020 0.969243
Si Si2 0.645725 0.138605 0.063100
Si Si3 0.221373 0.264646 0.577423
Si Si4 0.853477 0.054799 0.836883
Si Si5 0.601985 0.829412 0.117797
Si Si6 0.000000 0.883767 0.750000
Si Si7 0.000000 0.619557 0.250000
O O1 0.264984 0.407020 0.781088
O O2 0.286229 0.505368 0.787986
O O3 0.500000 0.459179 0.250000
O O4 0.529846 0.452250 0.089698
O O5 0.757854 0.181902 0.177069
O O6 0.500000 0.121912 0.750000
O O7 0.528983 0.160809 0.981862
O O8 0.250000 0.250000 0.500000
O O9 0.349182 0.225691 0.830519
O O10 0.000000 0.258086 0.250000
O O11 0.680182 0.086813 0.538351
O O12 0.980521 0.082909 0.117113
O O13 0.806615 0.853595 0.453994
O O14 0.503209 0.850542 0.862871
#
# Coordination Sequence:
#
# PCOD9274877 Si02
#       7
#     8   8   8   8   8   4   4
#     4  11  23  41  62  89 127 161 202 256 307 372
#     4  11  23  39  64  94 121 160 214 256 314 359
#     4  11  21  38  63  93 122 159 210 258 307 370
#     4  10  22  41  61  90 122 163 207 246 313 367
#     4  11  21  40  63  93 125 164 207 258 307 375
#     4  10  20  38  66  88 122 170 202 254 306 364
#     4  10  24  40  60  90 128 162 206 252 312 364
#
# _framework density 18.932199000000001
#
# number of rings (size 3 to 8) (size 9 to 14) (size 15 to 20)
#    0.000    1.333    5.000    2.000    1.167    0.000 
#    1.500    3.333    0.000    0.000    0.000    0.000 
#    0.000    0.000    0.000    0.000    0.000    0.000 
#
# Total GULP energy -133843.167673 kJ/mol
# GULP energy per Si atom -5576.798653 kJ/mol
# Density = 1.888911 g / cm^3
# Si number density = 18.932199 Si / 1000 Ang^3
#
#
#
# Elastic Constant Matrix: (Units=GPa)
#
#
# Indices 1 2 3 4 5 6 
#
# 1 84.3606 19.6885 28.0407 0.0000 -18.0240 0.0000
# 2 19.6885 123.0206 47.0951 0.0000 -10.6754 0.0000
# 3 28.0407 47.0951 85.4536 0.0000 -30.4888 0.0001
# 4 0.0000 0.0000 0.0000 31.4688 0.0000 -8.9793
# 5 -18.0240 -10.6754 -30.4888 0.0000 29.0486 0.0001
# 6 0.0000 0.0000 0.0001 -8.9793 0.0001 38.0780
#
#
#
# Elastic Compliance Matrix: (Units=1/GPa)
#
#
# Indices 1 2 3 4 5 6 
#
# 1 0.014062 -0.001027 -0.001710 0.000000 0.006553 0.000000
# 2 -0.001027 0.010601 -0.006943 0.000000 -0.004028 0.000000
# 3 -0.001710 -0.006943 0.023662 0.000000 0.021222 0.000000
# 4 0.000000 0.000000 0.000000 0.034070 0.000000 0.008034
# 5 0.006553 -0.004028 0.021222 0.000000 0.059284 0.000000
# 6 0.000000 0.000000 0.000000 0.008034 0.000000 0.028156
#
#
# Mechanical properties :
#
#
# Convention : Reuss Voigt Hill
#
# Bulk Modulus (GPa) = 34.52525 53.60927 44.06726
# Shear Modulus (GPa) = 25.14439 32.91980 29.03209
#
# Velocity S-wave (km/s) = 3.64830 4.17445 3.92021
# Velocity P-wave (km/s) = 6.00189 7.18419 6.61949
#
# Compressibility (1/GPa) = 0.02896431
#
# Stress axis : x y z
#
# Youngs Moduli (GPa) = 71.11321 94.32695 42.26252
#
# Poissons Ratio (x) = 0.09689 0.07229
# Poissons Ratio (y) = 0.07304 0.29342
# Poissons Ratio (z) = 0.12163 0.65490
#
# Static dielectric constant tensor:
#      x y z
#    x 1.654070 0.000000 -0.003860 
#    y 0.000000 1.729580 0.000000 
#    z -0.003860 0.000000 1.629160 
# 
# From -- ./inp_files/115071.got.cif
#   From: 2010.05.17/outbox.cif.g08.bks.cpg/sg15_58_cif.got.tgz:115071.got - 2010.06.03 18:47:42.
