data_PCOD9274090
_publ_section_title
;
Structure prediction by ZEFSAII (Michael W. Deem and Ramdas Pophale) SiO2 
 PCOD9274090
Probable space group: C 2/C
;
_chemical_formula_sum "Si O2"
_cell_formula_units_Z 56
_cell_length_a 25.692491
_cell_length_b 11.108253
_cell_length_c 9.628406
_cell_angle_alpha 90.000000
_cell_angle_beta 124.716355
_cell_angle_gamma 90.000000
_cell_volume 2258.751311
_symmetry_space_group_name_H-M "C 2/C"
_symmetry_group_IT_number 15
_symmetry_cell_setting 'monoclinic'
loop_
_space_group_symop_operation_xyz
x,y,z
-x,y,1/2-z
-x,-y,-z
x,-y,1/2+z
1/2+x,1/2+y,z
1/2-x,1/2+y,1/2-z
1/2-x,1/2-y,-z
1/2+x,1/2-y,1/2+z
loop_
_atom_site_type_symbol
_atom_site_label
_atom_site_fract_x
_atom_site_fract_y
_atom_site_fract_z
Si Si1 0.375972 0.101932 0.245107
Si Si2 0.151445 0.268606 0.272144
Si Si3 0.074455 0.617056 0.874579
Si Si4 0.929560 0.248721 0.607613
Si Si5 0.172131 0.987696 0.267210
Si Si6 0.544405 0.476514 0.935838
Si Si7 0.752370 0.476987 0.135895
O O1 0.413879 0.105337 0.445013
O O2 0.384880 0.220250 0.167900
O O3 0.400619 0.997378 0.177691
O O4 0.305520 0.075947 0.189258
O O5 0.116108 0.277929 0.365722
O O6 0.165690 0.132886 0.251833
O O7 0.212587 0.354730 0.361355
O O8 0.100540 0.307034 0.076289
O O9 0.000000 0.632665 0.750000
O O10 0.937603 0.106652 0.599252
O O11 0.000000 0.296485 0.750000
O O12 0.191884 0.977315 0.457404
O O13 0.231886 0.956309 0.262137
O O14 0.109761 0.929571 0.103462
O O15 0.500000 0.415521 0.750000
O O16 0.500000 0.500000 0.000000
#
# Coordination Sequence:
#
# PCOD9274090 Si02
#       7
#     8   8   8   8   8   8   8
#     4  11  21  36  60  92 126 162 200 249 304 366
#     4  10  22  41  61  91 126 162 207 256 301 365
#     4  11  21  36  61  92 127 164 199 247 309 366
#     4  10  20  38  61  89 124 159 200 253 304 358
#     4  11  23  42  65  89 121 164 205 254 310 364
#     4  10  22  43  65  88 117 156 204 258 306 358
#     4  11  22  40  62  89 123 163 205 251 305 367
#
# _framework density 24.792459000000001
#
# number of rings (size 3 to 8) (size 9 to 14) (size 15 to 20)
#    0.000    1.429    0.000    7.286    0.000    0.000 
#    0.000   26.429    0.000    0.000    0.000    0.000 
#    0.000    0.000    0.000    0.000    0.000    0.000 
#
# Total GULP energy -156640.379220 kJ/mol
# GULP energy per Si atom -5594.299258 kJ/mol
# Density = 2.473603 g / cm^3
# Si number density = 24.792459 Si / 1000 Ang^3
#
#
#
# Elastic Constant Matrix: (Units=GPa)
#
#
# Indices 1 2 3 4 5 6 
#
# 1 75.5059 11.2137 -26.5051 0.0000 -1.0208 0.0000
# 2 11.2137 56.0922 9.6401 0.0000 3.7258 0.0000
# 3 -26.5051 9.6401 119.1362 0.0000 5.4649 0.0000
# 4 0.0000 0.0000 0.0000 -27.3684 0.0000 5.3344
# 5 -1.0208 3.7258 5.4649 0.0000 50.6303 0.0000
# 6 0.0000 0.0000 0.0000 5.3344 0.0000 20.9060
#
#
#
# Elastic Compliance Matrix: (Units=1/GPa)
#
#
# Indices 1 2 3 4 5 6 
#
# 1 0.015066 -0.003649 0.003639 0.000000 0.000180 0.000000
# 2 -0.003649 0.019033 -0.002296 0.000000 -0.001226 0.000000
# 3 0.003639 -0.002296 0.009425 0.000000 -0.000775 0.000000
# 4 0.000000 0.000000 0.000000 -0.034807 0.000000 0.008881
# 5 0.000180 -0.001226 -0.000775 0.000000 0.019929 0.000000
# 6 0.000000 0.000000 0.000000 0.008881 0.000000 0.045567
#
#
# Mechanical properties :
#
#
# Convention : Reuss Voigt Hill
#
# Bulk Modulus (GPa) = 25.69930 26.60351 26.15140
# Shear Modulus (GPa) = 54.46960 25.92597 40.19779
#
# Velocity S-wave (km/s) = 4.69233 3.23727 4.03099
# Velocity P-wave (km/s) = 6.30440 4.97262 5.67770
#
# Compressibility (1/GPa) = 0.03891157
#
# Stress axis : x y z
#
# Youngs Moduli (GPa) = 66.37575 52.53946 106.10499
#
# Poissons Ratio (x) = 0.19173 -0.38610
# Poissons Ratio (y) = 0.24222 0.24359
# Poissons Ratio (z) = -0.24153 0.12062
#
# Static dielectric constant tensor:
#      x y z
#    x 1.457480 0.000000 0.228210 
#    y 0.000000 1.999990 0.000000 
#    z 0.228210 0.000000 1.944950 
# 
# From -- ./inp_files/61984.got.cif
#   From: 2010.05.17/outbox.cif.g08.bks.cpg/sg15_31_cif.got.tgz:61984.got - 2010.06.03 18:47:42.
