data_PCOD9274004
_publ_section_title
;
Structure prediction by ZEFSAII (Michael W. Deem and Ramdas Pophale) SiO2 
 PCOD9274004
Probable space group: C 2/C
;
_chemical_formula_sum "Si O2"
_cell_formula_units_Z 40
_cell_length_a 11.381495
_cell_length_b 16.432753
_cell_length_c 8.272821
_cell_angle_alpha 90.000000
_cell_angle_beta 95.707904
_cell_angle_gamma 90.000000
_cell_volume 1539.588356
_symmetry_space_group_name_H-M "C 2/C"
_symmetry_group_IT_number 15
_symmetry_cell_setting 'monoclinic'
loop_
_space_group_symop_operation_xyz
x,y,z
-x,y,1/2-z
-x,-y,-z
x,-y,1/2+z
1/2+x,1/2+y,z
1/2-x,1/2+y,1/2-z
1/2-x,1/2-y,-z
1/2+x,1/2-y,1/2+z
loop_
_atom_site_type_symbol
_atom_site_label
_atom_site_fract_x
_atom_site_fract_y
_atom_site_fract_z
Si Si1 0.589710 0.039298 0.641154
Si Si2 0.176884 0.251451 0.734165
Si Si3 0.461808 0.614564 0.577697
Si Si4 0.090202 0.751852 0.909495
Si Si5 0.243628 0.418102 0.884072
O O1 0.500000 0.082074 0.750000
O O2 0.673275 0.978134 0.755031
O O3 0.500000 0.000000 0.500000
O O4 0.673663 0.090522 0.541922
O O5 0.115564 0.190422 0.851315
O O6 0.085628 0.289403 0.587533
O O7 0.286649 0.216404 0.645074
O O8 0.242236 0.328438 0.815223
O O9 0.500000 0.572791 0.750000
O O10 0.564039 0.656196 0.481851
O O11 0.376131 0.561239 0.455202
O O12 0.000000 0.748350 0.750000
#
# Coordination Sequence:
#
# PCOD9274004 Si02
#       5
#     8   8   8   8   8
#     4   9  22  44  62  90 120 165 217 266 306 361
#     4  10  22  40  64  98 128 169 203 255 328 391
#     4  10  22  41  64  96 132 160 204 264 326 385
#     4  10  20  38  60  96 135 156 201 255 321 378
#     4  11  21  44  65  88 129 166 213 268 312 379
#
# _framework density 25.980972000000001
#
# number of rings (size 3 to 8) (size 9 to 14) (size 15 to 20)
#    0.000    2.000    2.000    0.600    0.000    7.200 
#   25.200    1.000    0.000    0.000    0.000    0.000 
#    0.000    0.000    0.000    0.000    0.000    0.000 
#
# Total GULP energy -111411.484201 kJ/mol
# GULP energy per Si atom -5570.574210 kJ/mol
# Density = 2.592184 g / cm^3
# Si number density = 25.980972 Si / 1000 Ang^3
#
#
#
# Elastic Constant Matrix: (Units=GPa)
#
#
# Indices 1 2 3 4 5 6 
#
# 1 124.6620 4.8894 36.2564 0.0000 18.3651 0.0000
# 2 4.8894 18.3564 20.9777 0.0000 12.5214 0.0000
# 3 36.2564 20.9777 164.9933 0.0000 44.7930 0.0000
# 4 0.0000 0.0000 0.0000 -44.6202 0.0000 12.7955
# 5 18.3651 12.5214 44.7930 0.0000 51.7220 0.0000
# 6 0.0000 0.0000 0.0000 12.7955 0.0000 35.8903
#
#
#
# Elastic Compliance Matrix: (Units=1/GPa)
#
#
# Indices 1 2 3 4 5 6 
#
# 1 0.008714 0.000715 -0.001463 0.000000 -0.002000 0.000000
# 2 0.000715 0.068970 -0.005653 0.000000 -0.012055 0.000000
# 3 -0.001463 -0.005653 0.008614 0.000000 -0.005572 0.000000
# 4 0.000000 0.000000 0.000000 -0.020333 0.000000 0.007249
# 5 -0.002000 -0.012055 -0.005572 0.000000 0.027788 0.000000
# 6 0.000000 0.000000 0.000000 0.007249 0.000000 0.025278
#
#
# Mechanical properties :
#
#
# Convention : Reuss Voigt Hill
#
# Bulk Modulus (GPa) = 13.60623 48.02873 30.81748
# Shear Modulus (GPa) = 31.98314 24.99097 28.48705
#
# Velocity S-wave (km/s) = 3.51240 3.10481 3.31487
# Velocity P-wave (km/s) = 4.65807 5.60173 5.15155
#
# Compressibility (1/GPa) = 0.07349575
#
# Stress axis : x y z
#
# Youngs Moduli (GPa) = 114.76135 14.49897 116.09418
#
# Poissons Ratio (x) = -0.01037 0.16980
# Poissons Ratio (y) = -0.08206 0.65634
# Poissons Ratio (z) = 0.16785 0.08197
#
# Static dielectric constant tensor:
#      x y z
#    x 2.251070 0.000000 0.193450 
#    y 0.000000 2.032020 0.000000 
#    z 0.193450 0.000000 2.340620 
# 
# From -- ./inp_files/30447.got.cif
#   From: 2010.05.17/outbox.cif.g08.bks.cpg/sg15_16_cif.got.tgz:30447.got - 2010.06.03 18:47:42.
