data_PCOD9274198
_publ_section_title
;
Structure prediction by ZEFSAII (Michael W. Deem and Ramdas Pophale) SiO2 
 PCOD9274198
Probable space group: C 2/C
;
_chemical_formula_sum "Si O2"
_cell_formula_units_Z 40
_cell_length_a 11.841970
_cell_length_b 11.299553
_cell_length_c 17.707507
_cell_angle_alpha 90.000000
_cell_angle_beta 137.674631
_cell_angle_gamma 90.000000
_cell_volume 1595.427287
_symmetry_space_group_name_H-M "C 2/C"
_symmetry_group_IT_number 15
_symmetry_cell_setting 'monoclinic'
loop_
_space_group_symop_operation_xyz
x,y,z
-x,y,1/2-z
-x,-y,-z
x,-y,1/2+z
1/2+x,1/2+y,z
1/2-x,1/2+y,1/2-z
1/2-x,1/2-y,-z
1/2+x,1/2-y,1/2+z
loop_
_atom_site_type_symbol
_atom_site_label
_atom_site_fract_x
_atom_site_fract_y
_atom_site_fract_z
Si Si1 0.619886 0.915881 0.981885
Si Si2 0.754546 0.384432 0.775658
Si Si3 0.177903 0.676326 0.850214
Si Si4 0.817026 0.283791 0.645663
Si Si5 0.388825 0.598461 0.082209
O O1 0.672294 0.812460 0.064412
O O2 0.745476 0.023901 0.051660
O O3 0.424515 0.946252 0.886770
O O4 0.663119 0.859170 0.920916
O O5 0.741298 0.256823 0.812028
O O6 0.777498 0.361332 0.698487
O O7 0.574684 0.447442 0.691450
O O8 0.000000 0.608287 0.750000
O O9 0.882135 0.772603 0.616925
O O10 0.329188 0.607993 0.965764
O O11 0.000000 0.226551 0.750000
#
# Coordination Sequence:
#
# PCOD9274198 Si02
#       5
#     8   8   8   8   8
#     4  10  21  38  58  85 119 151 190 239 287 340
#     4  10  20  38  62  86 116 156 194 234 290 344
#     4   9  20  38  59  84 115 151 192 237 286 343
#     4   9  20  38  59  84 115 151 192 237 286 343
#     4  10  21  38  58  85 119 151 190 239 287 340
#
# _framework density 25.071653999999999
#
# number of rings (size 3 to 8) (size 9 to 14) (size 15 to 20)
#    0.000    2.400    0.000    1.200    0.000    6.400 
#    0.000   20.000    0.000    0.000    0.000    0.000 
#    0.000    0.000    0.000    0.000    0.000    0.000 
#
# Total GULP energy -111846.445479 kJ/mol
# GULP energy per Si atom -5592.322274 kJ/mol
# Density = 2.501459 g / cm^3
# Si number density = 25.071654 Si / 1000 Ang^3
#
#
#
# Elastic Constant Matrix: (Units=GPa)
#
#
# Indices 1 2 3 4 5 6 
#
# 1 85.2028 8.0042 52.8926 0.0000 22.1576 0.0000
# 2 8.0042 35.2754 36.3930 0.0000 18.5589 0.0000
# 3 52.8926 36.3930 181.2797 0.0000 55.0154 0.0000
# 4 0.0000 0.0000 0.0000 11.0898 0.0000 7.3515
# 5 22.1576 18.5589 55.0154 0.0000 58.9737 0.0000
# 6 0.0000 0.0000 0.0000 7.3515 0.0000 20.0441
#
#
#
# Elastic Compliance Matrix: (Units=1/GPa)
#
#
# Indices 1 2 3 4 5 6 
#
# 1 0.014625 0.002032 -0.003925 0.000000 -0.002473 0.000000
# 2 0.002032 0.037828 -0.006058 0.000000 -0.007017 0.000000
# 3 -0.003925 -0.006058 0.009557 0.000000 -0.005535 0.000000
# 4 0.000000 0.000000 0.000000 0.119139 0.000000 -0.043696
# 5 -0.002473 -0.007017 -0.005535 0.000000 0.025258 0.000000
# 6 0.000000 0.000000 0.000000 -0.043696 0.000000 0.065916
#
#
# Mechanical properties :
#
#
# Convention : Reuss Voigt Hill
#
# Bulk Modulus (GPa) = 21.68730 55.14862 38.41796
# Shear Modulus (GPa) = 16.46929 31.65274 24.06102
#
# Velocity S-wave (km/s) = 2.56576 3.55701 3.10125
# Velocity P-wave (km/s) = 4.17689 6.23810 5.30850
#
# Compressibility (1/GPa) = 0.04610994
#
# Stress axis : x y z
#
# Youngs Moduli (GPa) = 68.37448 26.43511 104.63234
#
# Poissons Ratio (x) = -0.05370 0.41063
# Poissons Ratio (y) = -0.13890 0.63381
# Poissons Ratio (z) = 0.26834 0.16013
#
# Static dielectric constant tensor:
#      x y z
#    x 1.978390 0.000000 0.001120 
#    y 0.000000 1.965900 0.000000 
#    z 0.001120 0.000000 2.050970 
# 
# From -- ./inp_files/244427.got.cif
#   From: 2010.05.17/outbox.cif.g08.bks.cpg/sg15_123_cif.got.tgz:244427.got - 2010.06.03 18:47:42.
