data_PCOD9274637
_publ_section_title
;
Structure prediction by ZEFSAII (Michael W. Deem and Ramdas Pophale) SiO2 
 PCOD9274637
Probable space group: C 2/C
;
_chemical_formula_sum "Si O2"
_cell_formula_units_Z 60
_cell_length_a 16.660645
_cell_length_b 9.595336
_cell_length_c 19.767684
_cell_angle_alpha 90.000000
_cell_angle_beta 89.619245
_cell_angle_gamma 90.000000
_cell_volume 3160.080878
_symmetry_space_group_name_H-M "C 2/C"
_symmetry_group_IT_number 15
_symmetry_cell_setting 'monoclinic'
loop_
_space_group_symop_operation_xyz
x,y,z
-x,y,1/2-z
-x,-y,-z
x,-y,1/2+z
1/2+x,1/2+y,z
1/2-x,1/2+y,1/2-z
1/2-x,1/2-y,-z
1/2+x,1/2-y,1/2+z
loop_
_atom_site_type_symbol
_atom_site_label
_atom_site_fract_x
_atom_site_fract_y
_atom_site_fract_z
Si Si1 0.768785 0.672187 0.207715
Si Si2 0.829329 0.902370 0.307803
Si Si3 0.847718 0.899533 0.021354
Si Si4 0.330707 0.691184 0.963817
Si Si5 0.054015 0.451627 0.562112
Si Si6 0.500000 0.603075 0.750000
Si Si7 0.573868 0.783593 0.868894
Si Si8 0.683212 0.818800 0.094466
O O1 0.805749 0.758139 0.269854
O O2 0.729368 0.522896 0.219297
O O3 0.840702 0.654928 0.153165
O O4 0.703879 0.768168 0.169308
O O5 0.818994 0.869889 0.387634
O O6 0.919674 0.955334 0.287967
O O7 0.911392 0.814873 0.066188
O O8 0.763248 0.887977 0.061995
O O9 0.836154 0.815181 0.951818
O O10 0.864098 0.060588 0.006648
O O11 0.392109 0.818909 0.958170
O O12 0.250000 0.750000 0.000000
O O13 0.111720 0.572665 0.587703
O O14 0.000000 0.500000 0.500000
O O15 0.990886 0.400985 0.617648
O O16 0.540901 0.690638 0.808969
#
# Coordination Sequence:
#
# PCOD9274637 Si02
#       8
#     8   8   8   8   8   4   8   8
#     4  10  24  42  69  89 126 174 220 255 320 401
#     4  11  24  43  67  95 125 172 218 263 323 385
#     4  10  20  39  62  92 127 174 207 256 326 391
#     4  12  25  40  68 100 132 166 221 275 318 388
#     4  12  24  39  62 100 131 162 212 269 327 375
#     4  10  22  44  62  90 128 170 214 260 322 386
#     4  10  22  40  66  92 127 174 210 262 327 390
#     4  10  20  38  64  90 131 167 209 260 322 383
#
# _framework density 18.986854999999998
#
# number of rings (size 3 to 8) (size 9 to 14) (size 15 to 20)
#    0.000    1.333    5.333    0.000    3.733    1.600 
#    2.400    1.333    0.000    0.000    0.000    0.000 
#    0.000    0.000    0.000    0.000    0.000    0.000 
#
# Total GULP energy -167346.481666 kJ/mol
# GULP energy per Si atom -5578.216056 kJ/mol
# Density = 1.894364 g / cm^3
# Si number density = 18.986855 Si / 1000 Ang^3
#
#
#
# Elastic Constant Matrix: (Units=GPa)
#
#
# Indices 1 2 3 4 5 6 
#
# 1 94.1064 33.6208 8.8003 0.0000 -9.4478 0.0000
# 2 33.6208 78.9005 1.1494 0.0000 -14.3666 0.0000
# 3 8.8003 1.1494 57.6095 0.0000 -2.1282 0.0000
# 4 0.0000 0.0000 0.0000 31.6022 0.0000 -10.9855
# 5 -9.4478 -14.3666 -2.1282 0.0000 28.3780 0.0000
# 6 0.0000 0.0000 0.0000 -10.9855 0.0000 60.8228
#
#
#
# Elastic Compliance Matrix: (Units=1/GPa)
#
#
# Indices 1 2 3 4 5 6 
#
# 1 0.012785 -0.005145 -0.001794 0.000000 0.001517 0.000000
# 2 -0.005145 0.016032 0.000705 0.000000 0.006456 0.000000
# 3 -0.001794 0.000705 0.017658 0.000000 0.001084 0.000000
# 4 0.000000 0.000000 0.000000 0.033763 0.000000 0.006098
# 5 0.001517 0.006456 0.001084 0.000000 0.039093 0.000000
# 6 0.000000 0.000000 0.000000 0.006098 0.000000 0.017543
#
#
# Mechanical properties :
#
#
# Convention : Reuss Voigt Hill
#
# Bulk Modulus (GPa) = 29.40751 35.30640 32.35696
# Shear Modulus (GPa) = 31.11792 36.63034 33.87413
#
# Velocity S-wave (km/s) = 4.05275 4.39708 4.22842
# Velocity P-wave (km/s) = 6.11733 6.66443 6.39673
#
# Compressibility (1/GPa) = 0.03400492
#
# Stress axis : x y z
#
# Youngs Moduli (GPa) = 78.21903 62.37508 56.63054
#
# Poissons Ratio (x) = 0.32094 0.10161
# Poissons Ratio (y) = 0.40247 -0.03990
# Poissons Ratio (z) = 0.14035 -0.04395
#
# Static dielectric constant tensor:
#      x y z
#    x 1.679590 0.000000 -0.028280 
#    y 0.000000 1.636370 0.000000 
#    z -0.028280 0.000000 1.677700 
# 
# From -- ./inp_files/272747.got.cif
#   From: 2010.05.17/outbox.cif.g08.bks.cpg/sg15_137_cif.got.tgz:272747.got - 2010.06.03 18:47:42.
