data_PCOD9274264
_publ_section_title
;
Structure prediction by ZEFSAII (Michael W. Deem and Ramdas Pophale) SiO2 
 PCOD9274264
Probable space group: C 2/C
;
_chemical_formula_sum "Si O2"
_cell_formula_units_Z 48
_cell_length_a 7.670818
_cell_length_b 18.097163
_cell_length_c 18.907541
_cell_angle_alpha 90.000000
_cell_angle_beta 112.387510
_cell_angle_gamma 90.000000
_cell_volume 2426.916177
_symmetry_space_group_name_H-M "C 2/C"
_symmetry_group_IT_number 15
_symmetry_cell_setting 'monoclinic'
loop_
_space_group_symop_operation_xyz
x,y,z
-x,y,1/2-z
-x,-y,-z
x,-y,1/2+z
1/2+x,1/2+y,z
1/2-x,1/2+y,1/2-z
1/2-x,1/2-y,-z
1/2+x,1/2-y,1/2+z
loop_
_atom_site_type_symbol
_atom_site_label
_atom_site_fract_x
_atom_site_fract_y
_atom_site_fract_z
Si Si1 0.630687 0.032718 0.082551
Si Si2 0.011796 0.573919 0.832998
Si Si3 0.429764 0.715684 0.450619
Si Si4 0.605006 0.754519 0.332655
Si Si5 0.129641 0.930832 0.009356
Si Si6 0.494917 0.191897 0.093007
O O1 0.542040 0.105375 0.105055
O O2 0.644981 0.967897 0.143280
O O3 0.802061 0.062911 0.061654
O O4 0.500000 0.000000 0.000000
O O5 0.019210 0.662816 0.827534
O O6 0.202166 0.561245 0.907862
O O7 0.000000 0.546335 0.750000
O O8 0.549163 0.720124 0.398385
O O9 0.512264 0.644027 0.503159
O O10 0.464716 0.786500 0.505663
O O11 0.206668 0.708630 0.403084
O O12 0.500000 0.719090 0.250000
O O13 0.827864 0.741741 0.355583
O O14 0.000000 0.000000 0.000000
#
# Coordination Sequence:
#
# PCOD9274264 Si02
#       6
#     8   8   8   8   8   8
#     4  10  20  38  62  89 121 163 210 254 309 373
#     4  10  22  42  63  90 129 169 206 268 323 377
#     4  11  21  38  66  93 121 161 213 263 306 376
#     4  11  23  42  64  91 129 167 206 261 331 375
#     4  11  21  38  64  91 125 165 219 257 316 382
#     4  11  22  39  65  93 119 162 211 262 308 374
#
# _framework density 19.778185000000001
#
# number of rings (size 3 to 8) (size 9 to 14) (size 15 to 20)
#    0.000    1.333    3.333    4.500    0.000    2.000 
#    6.000    0.833    0.000    0.000    0.000    0.000 
#    0.000    0.000    0.000    0.000    0.000    0.000 
#
# Total GULP energy -133698.211805 kJ/mol
# GULP energy per Si atom -5570.758825 kJ/mol
# Density = 1.973317 g / cm^3
# Si number density = 19.778185 Si / 1000 Ang^3
#
#
#
# Elastic Constant Matrix: (Units=GPa)
#
#
# Indices 1 2 3 4 5 6 
#
# 1 76.4846 7.5693 10.3937 0.0000 10.8563 0.0000
# 2 7.5693 83.7659 7.2345 0.0000 -2.4644 0.0000
# 3 10.3937 7.2345 58.5195 0.0000 -6.2009 0.0000
# 4 0.0000 0.0000 0.0000 -12.7942 0.0000 -10.4599
# 5 10.8563 -2.4644 -6.2009 0.0000 21.9160 0.0000
# 6 0.0000 0.0000 0.0000 -10.4599 0.0000 26.6520
#
#
#
# Elastic Compliance Matrix: (Units=1/GPa)
#
#
# Indices 1 2 3 4 5 6 
#
# 1 0.014863 -0.001301 -0.003376 0.000000 -0.008464 0.000000
# 2 -0.001301 0.012200 -0.001097 0.000000 0.001706 0.000000
# 3 -0.003376 -0.001097 0.018544 0.000000 0.006796 0.000000
# 4 0.000000 0.000000 0.000000 -0.059174 0.000000 -0.023224
# 5 -0.008464 0.001706 0.006796 0.000000 0.051936 0.000000
# 6 0.000000 0.000000 0.000000 -0.023224 0.000000 0.028406
#
#
# Mechanical properties :
#
#
# Convention : Reuss Voigt Hill
#
# Bulk Modulus (GPa) = 29.35884 29.90722 29.63303
# Shear Modulus (GPa) = 55.75643 20.05960 37.90801
#
# Velocity S-wave (km/s) = 5.31527 3.18815 4.38271
# Velocity P-wave (km/s) = 7.24884 5.35785 6.37386
#
# Compressibility (1/GPa) = 0.03406129
#
# Stress axis : x y z
#
# Youngs Moduli (GPa) = 67.27928 81.96424 53.92696
#
# Poissons Ratio (x) = 0.10660 0.18206
# Poissons Ratio (y) = 0.08750 0.05913
# Poissons Ratio (z) = 0.22713 0.08988
#
# Static dielectric constant tensor:
#      x y z
#    x 1.756040 0.000000 -0.019920 
#    y 0.000000 1.517390 0.000000 
#    z -0.019920 0.000000 1.731030 
# 
# From -- ./inp_files/190632.got.cif
#   From: 2010.05.17/outbox.cif.g08.bks.cpg/sg15_96_cif.got.tgz:190632.got - 2010.06.03 18:47:42.
