data_PCOD9274915
_publ_section_title
;
Structure prediction by ZEFSAII (Michael W. Deem and Ramdas Pophale) SiO2 
 PCOD9274915
Probable space group: C 2/C
;
_chemical_formula_sum "Si O2"
_cell_formula_units_Z 52
_cell_length_a 12.250223
_cell_length_b 22.303028
_cell_length_c 12.644453
_cell_angle_alpha 90.000000
_cell_angle_beta 45.075587
_cell_angle_gamma 90.000000
_cell_volume 2446.048462
_symmetry_space_group_name_H-M "C 2/C"
_symmetry_group_IT_number 15
_symmetry_cell_setting 'monoclinic'
loop_
_space_group_symop_operation_xyz
x,y,z
-x,y,1/2-z
-x,-y,-z
x,-y,1/2+z
1/2+x,1/2+y,z
1/2-x,1/2+y,1/2-z
1/2-x,1/2-y,-z
1/2+x,1/2-y,1/2+z
loop_
_atom_site_type_symbol
_atom_site_label
_atom_site_fract_x
_atom_site_fract_y
_atom_site_fract_z
Si Si1 0.073461 0.329089 0.809501
Si Si2 0.123758 0.346412 0.248481
Si Si3 0.000000 0.834062 0.250000
Si Si4 0.691085 0.763532 0.399414
Si Si5 0.561883 0.065324 0.486117
Si Si6 0.109990 0.028108 0.274168
Si Si7 0.068251 0.905939 0.419293
O O1 0.241944 0.301611 0.673991
O O2 0.056777 0.385414 0.896774
O O3 0.000000 0.347448 0.750000
O O4 0.965020 0.275120 0.928365
O O5 0.151204 0.296635 0.318267
O O6 0.297792 0.369246 0.111152
O O7 0.000000 0.321747 0.250000
O O8 0.033731 0.404170 0.355940
O O9 0.163965 0.798266 0.144859
O O10 0.002881 0.871055 0.359816
O O11 0.741005 0.055901 0.382691
O O12 0.500000 0.000000 0.500000
O O13 0.000000 0.016242 0.250000
O O14 0.047316 0.071269 0.410551
O O15 0.139469 0.965656 0.315380
#
# Coordination Sequence:
#
# PCOD9274915 Si02
#       7
#     8   8   4   8   8   8   8
#     4  11  24  41  66  97 129 169 217 272 336 388
#     4  10  21  42  64  89 127 174 214 264 328 391
#     4  10  20  38  66  92 136 162 216 274 344 380
#     4  10  23  40  65  97 127 163 215 278 322 398
#     4  11  24  42  60  94 133 170 218 266 327 403
#     4  11  22  38  58  89 129 172 226 273 325 400
#     4  10  21  36  61  91 125 175 220 273 333 391
#
# _framework density 21.258778
#
# number of rings (size 3 to 8) (size 9 to 14) (size 15 to 20)
#    0.000    1.538    3.077    1.385    2.154    1.846 
#    2.769    3.846    0.000    0.000    0.000    0.000 
#    0.000    0.000    0.000    0.000    0.000    0.000 
#
# Total GULP energy -145018.978595 kJ/mol
# GULP energy per Si atom -5577.653023 kJ/mol
# Density = 2.121039 g / cm^3
# Si number density = 21.258778 Si / 1000 Ang^3
#
#
#
# Elastic Constant Matrix: (Units=GPa)
#
#
# Indices 1 2 3 4 5 6 
#
# 1 122.9496 23.7317 6.6795 0.0000 1.8846 0.0000
# 2 23.7317 60.5560 3.9366 0.0000 3.7744 0.0000
# 3 6.6795 3.9366 43.7027 0.0000 -12.5478 0.0000
# 4 0.0000 0.0000 0.0000 22.8062 0.0000 6.0565
# 5 1.8846 3.7744 -12.5478 0.0000 23.6968 0.0000
# 6 0.0000 0.0000 0.0000 6.0565 0.0000 15.2810
#
#
#
# Elastic Compliance Matrix: (Units=1/GPa)
#
#
# Indices 1 2 3 4 5 6 
#
# 1 0.008861 -0.003334 -0.001302 0.000000 -0.000863 0.000000
# 2 -0.003334 0.018202 -0.002225 0.000000 -0.003812 0.000000
# 3 -0.001302 -0.002225 0.027610 0.000000 0.015078 0.000000
# 4 0.000000 0.000000 0.000000 0.049006 0.000000 -0.019423
# 5 -0.000863 -0.003812 0.015078 0.000000 0.050860 0.000000
# 6 0.000000 0.000000 0.000000 -0.019423 0.000000 0.073139
#
#
# Mechanical properties :
#
#
# Convention : Reuss Voigt Hill
#
# Bulk Modulus (GPa) = 24.41829 32.87822 28.64825
# Shear Modulus (GPa) = 19.60403 25.21418 22.40911
#
# Velocity S-wave (km/s) = 3.04001 3.44766 3.25023
# Velocity P-wave (km/s) = 4.88194 5.59891 5.25267
#
# Compressibility (1/GPa) = 0.04095291
#
# Stress axis : x y z
#
# Youngs Moduli (GPa) = 112.85514 54.93755 36.21840
#
# Poissons Ratio (x) = 0.18317 0.04715
# Poissons Ratio (y) = 0.37628 0.08057
# Poissons Ratio (z) = 0.14691 0.12221
#
# Static dielectric constant tensor:
#      x y z
#    x 1.789390 0.000000 -0.009920 
#    y 0.000000 1.811480 0.000000 
#    z -0.009920 0.000000 1.786190 
# 
# From -- ./inp_files/91208.got.cif
#   From: 2010.05.17/outbox.cif.g08.bks.cpg/sg15_46_cif.got.tgz:91208.got - 2010.06.03 18:47:42.
