data_PCOD9274912
_publ_section_title
;
Structure prediction by ZEFSAII (Michael W. Deem and Ramdas Pophale) SiO2 
 PCOD9274912
Probable space group: C 2/C
;
_chemical_formula_sum "Si O2"
_cell_formula_units_Z 36
_cell_length_a 9.900925
_cell_length_b 12.532661
_cell_length_c 13.252678
_cell_angle_alpha 90.000000
_cell_angle_beta 115.724669
_cell_angle_gamma 90.000000
_cell_volume 1481.475874
_symmetry_space_group_name_H-M "C 2/C"
_symmetry_group_IT_number 15
_symmetry_cell_setting 'monoclinic'
loop_
_space_group_symop_operation_xyz
x,y,z
-x,y,1/2-z
-x,-y,-z
x,-y,1/2+z
1/2+x,1/2+y,z
1/2-x,1/2+y,1/2-z
1/2-x,1/2-y,-z
1/2+x,1/2-y,1/2+z
loop_
_atom_site_type_symbol
_atom_site_label
_atom_site_fract_x
_atom_site_fract_y
_atom_site_fract_z
Si Si1 0.823348 0.822424 0.797434
Si Si2 0.500000 0.237514 0.250000
Si Si3 0.974328 0.595722 0.853550
Si Si4 0.370639 0.650579 0.527309
Si Si5 0.727954 0.943178 0.578281
O O1 0.651558 0.827818 0.781663
O O2 0.872891 0.700066 0.808549
O O3 0.827492 0.875797 0.688962
O O4 0.914766 0.863597 0.924828
O O5 0.507636 0.310704 0.352551
O O6 0.887055 0.506468 0.886799
O O7 0.000000 0.555819 0.750000
O O8 0.125811 0.620871 0.965308
O O9 0.250000 0.750000 0.500000
O O10 0.307893 0.538792 0.545402
#
# Coordination Sequence:
#
# PCOD9274912 Si02
#       5
#     8   4   8   8   8
#     4  11  23  40  66  97 130 171 216 269 317 379
#     4  10  20  38  66  92 132 164 212 268 306 376
#     4  11  24  42  65  99 131 170 218 264 320 387
#     4  10  20  41  65  98 128 166 216 265 315 385
#     4  11  23  41  69  97 127 174 217 264 328 377
#
# _framework density 24.300094000000001
#
# number of rings (size 3 to 8) (size 9 to 14) (size 15 to 20)
#    0.000    1.333    4.444    2.667   10.889    0.889 
#    2.000    1.111    0.000    0.000    0.000    0.000 
#    0.000    0.000    0.000    0.000    0.000    0.000 
#
# Total GULP energy -100625.170603 kJ/mol
# GULP energy per Si atom -5590.287256 kJ/mol
# Density = 2.424479 g / cm^3
# Si number density = 24.300094 Si / 1000 Ang^3
#
#
#
# Elastic Constant Matrix: (Units=GPa)
#
#
# Indices 1 2 3 4 5 6 
#
# 1 24.8899 20.4348 10.7744 0.0000 -5.0294 0.0000
# 2 20.4348 88.7657 68.2750 0.0000 -5.3996 0.0000
# 3 10.7744 68.2750 188.2888 0.0000 -5.0808 0.0000
# 4 0.0000 0.0000 0.0000 40.0079 0.0000 -16.9134
# 5 -5.0294 -5.3996 -5.0808 0.0000 25.5036 0.0000
# 6 0.0000 0.0000 0.0000 -16.9134 0.0000 15.9778
#
#
#
# Elastic Compliance Matrix: (Units=1/GPa)
#
#
# Indices 1 2 3 4 5 6 
#
# 1 0.051478 -0.012858 0.001928 0.000000 0.007813 0.000000
# 2 -0.012858 0.018957 -0.006131 0.000000 0.000256 0.000000
# 3 0.001928 -0.006131 0.007439 0.000000 0.000564 0.000000
# 4 0.000000 0.000000 0.000000 0.045240 0.000000 0.047889
# 5 0.007813 0.000256 0.000564 0.000000 0.040918 0.000000
# 6 0.000000 0.000000 0.000000 0.047889 0.000000 0.113280
#
#
# Mechanical properties :
#
#
# Convention : Reuss Voigt Hill
#
# Bulk Modulus (GPa) = 22.85681 55.65700 39.25690
# Shear Modulus (GPa) = 15.33649 29.79520 22.56584
#
# Velocity S-wave (km/s) = 2.51495 3.50542 3.05065
# Velocity P-wave (km/s) = 4.22609 6.27198 5.34778
#
# Compressibility (1/GPa) = 0.04375064
#
# Stress axis : x y z
#
# Youngs Moduli (GPa) = 19.42578 52.75018 134.42331
#
# Poissons Ratio (x) = 0.67827 -0.25911
# Poissons Ratio (y) = 0.24978 0.82420
# Poissons Ratio (z) = -0.03744 0.32343
#
# Static dielectric constant tensor:
#      x y z
#    x 2.047970 0.000000 0.007950 
#    y 0.000000 1.928860 0.000000 
#    z 0.007950 0.000000 2.063120 
# 
# From -- ./inp_files/126810.got.cif
#   From: 2010.05.17/outbox.cif.g08.bks.cpg/sg15_64_cif.got.tgz:126810.got - 2010.06.03 18:47:42.
