data_PCOD9274978
_publ_section_title
;
Structure prediction by ZEFSAII (Michael W. Deem and Ramdas Pophale) SiO2 
 PCOD9274978
Probable space group: C 2/C
;
_chemical_formula_sum "Si O2"
_cell_formula_units_Z 48
_cell_length_a 21.170959
_cell_length_b 19.235177
_cell_length_c 10.006237
_cell_angle_alpha 90.000000
_cell_angle_beta 36.091640
_cell_angle_gamma 90.000000
_cell_volume 2400.383563
_symmetry_space_group_name_H-M "C 2/C"
_symmetry_group_IT_number 15
_symmetry_cell_setting 'monoclinic'
loop_
_space_group_symop_operation_xyz
x,y,z
-x,y,1/2-z
-x,-y,-z
x,-y,1/2+z
1/2+x,1/2+y,z
1/2-x,1/2+y,1/2-z
1/2-x,1/2-y,-z
1/2+x,1/2-y,1/2+z
loop_
_atom_site_type_symbol
_atom_site_label
_atom_site_fract_x
_atom_site_fract_y
_atom_site_fract_z
Si Si1 0.771119 0.208263 0.600286
Si Si2 0.623783 0.049192 0.556203
Si Si3 0.735357 0.338204 0.842101
Si Si4 0.500000 0.300979 0.250000
Si Si5 0.058857 0.314990 0.869733
Si Si6 0.379683 0.923405 0.136697
Si Si7 0.000000 0.243056 0.250000
O O1 0.750000 0.250000 0.500000
O O2 0.740523 0.262003 0.767713
O O3 0.703643 0.139417 0.727112
O O4 0.897037 0.196976 0.396721
O O5 0.500000 0.071699 0.750000
O O6 0.704841 0.106415 0.356498
O O7 0.637926 0.040770 0.689828
O O8 0.634123 0.978624 0.455711
O O9 0.814169 0.331786 0.835870
O O10 0.607606 0.348213 0.067782
O O11 0.477648 0.247433 0.165141
O O12 0.022591 0.289555 0.079956
O O13 0.994489 0.384403 0.940692
#
# Coordination Sequence:
#
# PCOD9274978 Si02
#       7
#     8   8   8   4   8   8   4
#     4  11  19  39  70  95 130 175 225 272 326 395
#     4  12  26  43  66  99 136 175 219 278 341 401
#     4  11  23  40  66 100 136 176 224 277 337 395
#     4  12  24  40  65 103 138 172 220 290 330 392
#     4  11  22  39  65 100 132 170 225 279 339 388
#     4  12  24  42  69  99 139 172 220 281 344 398
#     4  10  20  38  67 103 128 166 222 282 330 396
#
# _framework density 19.996804999999998
#
# number of rings (size 3 to 8) (size 9 to 14) (size 15 to 20)
#    0.000    0.667    6.667    2.000    2.333    0.000 
#    6.000    0.833    0.000    2.000    0.000    0.000 
#    0.000    0.000    0.000    0.000    0.000    0.000 
#
# Total GULP energy -134125.084587 kJ/mol
# GULP energy per Si atom -5588.545191 kJ/mol
# Density = 1.995129 g / cm^3
# Si number density = 19.996805 Si / 1000 Ang^3
#
#
#
# Elastic Constant Matrix: (Units=GPa)
#
#
# Indices 1 2 3 4 5 6 
#
# 1 100.1223 60.2451 55.2141 0.0000 -19.9146 0.0000
# 2 60.2451 118.3894 59.8878 0.0000 -1.1871 0.0000
# 3 55.2141 59.8878 121.7033 0.0000 -39.2647 0.0000
# 4 0.0000 0.0000 0.0000 33.3071 0.0000 4.3011
# 5 -19.9146 -1.1871 -39.2647 0.0000 49.6587 0.0000
# 6 0.0000 0.0000 0.0000 4.3011 0.0000 35.2915
#
#
#
# Elastic Compliance Matrix: (Units=1/GPa)
#
#
# Indices 1 2 3 4 5 6 
#
# 1 0.016551 -0.007053 -0.002619 0.000000 0.004398 0.000000
# 2 -0.007053 0.015501 -0.007009 0.000000 -0.008000 0.000000
# 3 -0.002619 -0.007009 0.016728 0.000000 0.012009 0.000000
# 4 0.000000 0.000000 0.000000 0.030504 0.000000 -0.003718
# 5 0.004398 -0.008000 0.012009 0.000000 0.031205 0.000000
# 6 0.000000 0.000000 0.000000 -0.003718 0.000000 0.028788
#
#
# Mechanical properties :
#
#
# Convention : Reuss Voigt Hill
#
# Bulk Modulus (GPa) = 64.86000 76.76767 70.81383
# Shear Modulus (GPa) = 28.12463 34.64266 31.38364
#
# Velocity S-wave (km/s) = 3.75434 4.16674 3.96590
# Velocity P-wave (km/s) = 7.16234 7.84998 7.51403
#
# Compressibility (1/GPa) = 0.01541782
#
# Stress axis : x y z
#
# Youngs Moduli (GPa) = 60.41922 64.51103 59.77896
#
# Poissons Ratio (x) = 0.45502 0.15657
# Poissons Ratio (y) = 0.42616 0.41898
# Poissons Ratio (z) = 0.15824 0.45215
#
# Static dielectric constant tensor:
#      x y z
#    x 1.760320 0.000000 0.005010 
#    y 0.000000 1.668210 0.000000 
#    z 0.005010 0.000000 1.830040 
# 
# From -- ./inp_files/119415.got.cif
#   From: 2010.05.17/outbox.cif.g08.bks.cpg/sg15_60_cif.got.tgz:119415.got - 2010.06.03 18:47:42.
