data_PCOD9274387
_publ_section_title
;
Structure prediction by ZEFSAII (Michael W. Deem and Ramdas Pophale) SiO2 
 PCOD9274387
Probable space group: C 2/C
;
_chemical_formula_sum "Si O2"
_cell_formula_units_Z 40
_cell_length_a 7.327568
_cell_length_b 16.363865
_cell_length_c 16.320716
_cell_angle_alpha 90.000000
_cell_angle_beta 68.585187
_cell_angle_gamma 90.000000
_cell_volume 1821.866924
_symmetry_space_group_name_H-M "C 2/C"
_symmetry_group_IT_number 15
_symmetry_cell_setting 'monoclinic'
loop_
_space_group_symop_operation_xyz
x,y,z
-x,y,1/2-z
-x,-y,-z
x,-y,1/2+z
1/2+x,1/2+y,z
1/2-x,1/2+y,1/2-z
1/2-x,1/2-y,-z
1/2+x,1/2-y,1/2+z
loop_
_atom_site_type_symbol
_atom_site_label
_atom_site_fract_x
_atom_site_fract_y
_atom_site_fract_z
Si Si1 0.627545 0.844624 0.658883
Si Si2 0.777207 0.644034 0.993982
Si Si3 0.794672 0.964568 0.495982
Si Si4 0.023361 0.762245 0.651197
Si Si5 0.420045 0.694282 0.929251
O O1 0.500000 0.884858 0.750000
O O2 0.676688 0.909719 0.580560
O O3 0.522664 0.759110 0.649263
O O4 0.835305 0.815719 0.660135
O O5 0.811539 0.549354 0.003798
O O6 0.953506 0.686078 0.915227
O O7 0.593220 0.668762 0.963967
O O8 0.709047 0.682593 0.091496
O O9 0.842895 0.896321 0.419228
O O10 0.000000 0.000000 0.500000
O O11 0.000000 0.739362 0.750000
O O12 0.250000 0.750000 0.000000
#
# Coordination Sequence:
#
# PCOD9274387 Si02
#       5
#     8   8   8   8   8
#     4  11  21  36  61  86 114 152 199 241 286 348
#     4  10  20  38  63  83 116 156 193 237 301 341
#     4   9  17  36  62  81 110 153 189 235 293 343
#     4  11  22  36  58  85 120 153 192 240 295 347
#     4   9  16  34  60  81 108 147 192 224 283 343
#
# _framework density 21.955501000000002
#
# number of rings (size 3 to 8) (size 9 to 14) (size 15 to 20)
#    0.000    2.000    6.000    1.200    0.000    0.800 
#    0.000    2.000    4.400    0.000    0.000    0.000 
#    0.000    0.000    0.000    0.000    0.000    0.000 
#
# Total GULP energy -111339.887670 kJ/mol
# GULP energy per Si atom -5566.994383 kJ/mol
# Density = 2.190553 g / cm^3
# Si number density = 21.955501 Si / 1000 Ang^3
#
#
#
# Elastic Constant Matrix: (Units=GPa)
#
#
# Indices 1 2 3 4 5 6 
#
# 1 61.0778 21.6915 18.9857 0.0000 -2.2481 0.0000
# 2 21.6915 192.5068 34.3536 0.0000 -6.5273 0.0000
# 3 18.9857 34.3536 113.9152 0.0000 -10.8113 0.0000
# 4 0.0000 0.0000 0.0000 23.6869 0.0000 -1.0969
# 5 -2.2481 -6.5273 -10.8113 0.0000 21.0121 0.0000
# 6 0.0000 0.0000 0.0000 -1.0969 0.0000 27.7302
#
#
#
# Elastic Compliance Matrix: (Units=1/GPa)
#
#
# Indices 1 2 3 4 5 6 
#
# 1 0.017695 -0.001549 -0.002469 0.000000 0.000142 0.000000
# 2 -0.001549 0.005642 -0.001359 0.000000 0.000888 0.000000
# 3 -0.002469 -0.001359 0.010024 0.000000 0.004471 0.000000
# 4 0.000000 0.000000 0.000000 0.042295 0.000000 0.001673
# 5 0.000142 0.000888 0.004471 0.000000 0.050183 0.000000
# 6 0.000000 0.000000 0.000000 0.001673 0.000000 0.036128
#
#
# Mechanical properties :
#
#
# Convention : Reuss Voigt Hill
#
# Bulk Modulus (GPa) = 44.23133 57.50683 50.86908
# Shear Modulus (GPa) = 27.73837 33.98377 30.86107
#
# Velocity S-wave (km/s) = 3.55828 3.93854 3.75323
# Velocity P-wave (km/s) = 6.08863 6.85070 6.48088
#
# Compressibility (1/GPa) = 0.02260841
#
# Stress axis : x y z
#
# Youngs Moduli (GPa) = 56.51280 177.25058 99.75928
#
# Poissons Ratio (x) = 0.27447 0.24628
# Poissons Ratio (y) = 0.08751 0.13558
# Poissons Ratio (z) = 0.13951 0.24089
#
# Static dielectric constant tensor:
#      x y z
#    x 1.980990 0.000000 -0.033320 
#    y 0.000000 1.848320 0.000000 
#    z -0.033320 0.000000 1.882310 
# 
# From -- ./inp_files/188699.got.cif
#   From: 2010.05.17/outbox.cif.g08.bks.cpg/sg15_95_cif.got.tgz:188699.got - 2010.06.03 18:47:42.
