data_PCOD9274932
_publ_section_title
;
Structure prediction by ZEFSAII (Michael W. Deem and Ramdas Pophale) SiO2 
 PCOD9274932
Probable space group: C 2/C
;
_chemical_formula_sum "Si O2"
_cell_formula_units_Z 60
_cell_length_a 22.443074
_cell_length_b 6.581758
_cell_length_c 25.618237
_cell_angle_alpha 90.000000
_cell_angle_beta 51.051759
_cell_angle_gamma 90.000000
_cell_volume 2943.021883
_symmetry_space_group_name_H-M "C 2/C"
_symmetry_group_IT_number 15
_symmetry_cell_setting 'monoclinic'
loop_
_space_group_symop_operation_xyz
x,y,z
-x,y,1/2-z
-x,-y,-z
x,-y,1/2+z
1/2+x,1/2+y,z
1/2-x,1/2+y,1/2-z
1/2-x,1/2-y,-z
1/2+x,1/2-y,1/2+z
loop_
_atom_site_type_symbol
_atom_site_label
_atom_site_fract_x
_atom_site_fract_y
_atom_site_fract_z
Si Si1 0.789016 0.063212 0.947460
Si Si2 0.500000 0.846356 0.750000
Si Si3 0.787537 0.492340 0.793075
Si Si4 0.508454 0.041853 0.933981
Si Si5 0.844872 0.558980 0.367578
Si Si6 0.649719 0.810849 0.027743
Si Si7 0.565618 0.279488 0.319076
Si Si8 0.639329 0.323865 0.818995
O O1 0.838177 0.196753 0.880081
O O2 0.834489 0.920245 0.963068
O O3 0.750000 0.250000 0.000000
O O4 0.723266 0.917506 0.959305
O O5 0.573849 0.984492 0.703024
O O6 0.485927 0.726578 0.704387
O O7 0.783948 0.502566 0.857678
O O8 0.853172 0.329019 0.740121
O O9 0.705854 0.426506 0.816216
O O10 0.817448 0.697457 0.749830
O O11 0.430180 0.147951 0.956532
O O12 0.583675 0.177912 0.882397
O O13 0.523993 0.845757 0.888312
O O14 0.500000 0.000000 0.000000
O O15 0.846798 0.434411 0.419533
O O16 0.585330 0.504505 0.325047
#
# Coordination Sequence:
#
# PCOD9274932 Si02
#       8
#     8   4   8   8   8   8   8   8
#     4   9  21  40  63  91 121 165 209 272 319 378
#     4  10  20  38  66  94 128 162 206 274 334 390
#     4  10  22  41  63  93 126 167 218 268 331 400
#     4  11  26  43  66  98 135 179 227 274 331 406
#     4  10  21  38  64  89 126 168 210 268 329 388
#     4  10  21  43  62  91 131 162 223 271 322 392
#     4  10  22  44  65  94 132 171 214 277 332 398
#     4  11  23  43  65  94 132 174 221 274 335 405
#
# _framework density 20.387208999999999
#
# number of rings (size 3 to 8) (size 9 to 14) (size 15 to 20)
#    0.000    1.867    2.667    0.000    3.733    2.667 
#    7.200    0.667    0.000    0.000    0.000    0.000 
#    0.000    0.000    0.000    0.000    0.000    0.000 
#
# Total GULP energy -167309.366707 kJ/mol
# GULP energy per Si atom -5576.978890 kJ/mol
# Density = 2.034081 g / cm^3
# Si number density = 20.387209 Si / 1000 Ang^3
#
#
#
# Elastic Constant Matrix: (Units=GPa)
#
#
# Indices 1 2 3 4 5 6 
#
# 1 133.6385 49.7192 45.5417 -0.0234 20.4762 -0.0239
# 2 49.7192 111.9948 36.2988 -0.0354 12.5247 -0.0175
# 3 45.5417 36.2988 73.8642 -0.0046 17.6791 0.0029
# 4 -0.0234 -0.0354 -0.0046 10.7364 0.0044 -6.1128
# 5 20.4762 12.5247 17.6791 0.0044 36.3442 0.0019
# 6 -0.0239 -0.0175 0.0029 -6.1128 0.0019 25.9040
#
#
#
# Elastic Compliance Matrix: (Units=1/GPa)
#
#
# Indices 1 2 3 4 5 6 
#
# 1 0.010484 -0.002931 -0.004359 0.000020 -0.002776 0.000013
# 2 -0.002931 0.011492 -0.003721 0.000038 -0.000499 0.000015
# 3 -0.004359 -0.003721 0.019421 -0.000018 -0.005709 -0.000013
# 4 0.000020 0.000038 -0.000018 0.107598 -0.000030 0.025391
# 5 -0.002776 -0.000499 -0.005709 -0.000030 0.032028 -0.000012
# 6 0.000013 0.000015 -0.000013 0.025391 -0.000012 0.044596
#
#
# Mechanical properties :
#
#
# Convention : Reuss Voigt Hill
#
# Bulk Modulus (GPa) = 51.61327 64.73522 58.17424
# Shear Modulus (GPa) = 19.67733 27.12612 23.40172
#
# Velocity S-wave (km/s) = 3.11011 3.65162 3.39169
# Velocity P-wave (km/s) = 6.18615 7.04279 6.62832
#
# Compressibility (1/GPa) = 0.01937486
#
# Stress axis : x y z
#
# Youngs Moduli (GPa) = 95.38064 87.01709 51.49055
#
# Poissons Ratio (x) = 0.25505 0.22446
# Poissons Ratio (y) = 0.27956 0.19159
# Poissons Ratio (z) = 0.41580 0.32378
#
# Static dielectric constant tensor:
#      x y z
#    x 1.736170 -0.000010 -0.005290 
#    y -0.000010 1.737870 0.000010 
#    z -0.005290 0.000010 1.873360 
# 
# From -- ./inp_files/300112.got.cif
#   From: 2010.05.17/outbox.cif.g08.bks.cpg/sg15_151_cif.got.tgz:300112.got - 2010.06.03 18:47:42.
