data_PCOD9274025
_publ_section_title
;
Structure prediction by ZEFSAII (Michael W. Deem and Ramdas Pophale) SiO2 
 PCOD9274025
Probable space group: C 2/C
;
_chemical_formula_sum "Si O2"
_cell_formula_units_Z 24
_cell_length_a 15.367124
_cell_length_b 10.863427
_cell_length_c 8.845284
_cell_angle_alpha 90.000000
_cell_angle_beta 144.842484
_cell_angle_gamma 90.000000
_cell_volume 850.281425
_symmetry_space_group_name_H-M "C 2/C"
_symmetry_group_IT_number 15
_symmetry_cell_setting 'monoclinic'
loop_
_space_group_symop_operation_xyz
x,y,z
-x,y,1/2-z
-x,-y,-z
x,-y,1/2+z
1/2+x,1/2+y,z
1/2-x,1/2+y,1/2-z
1/2-x,1/2-y,-z
1/2+x,1/2-y,1/2+z
loop_
_atom_site_type_symbol
_atom_site_label
_atom_site_fract_x
_atom_site_fract_y
_atom_site_fract_z
Si Si1 0.500000 0.060749 0.750000
Si Si2 0.000000 0.061696 0.250000
Si Si3 0.455532 0.757026 0.436613
Si Si4 0.229747 0.398022 0.808716
O O1 0.592041 0.147908 0.762766
O O2 0.367136 0.018151 0.448566
O O3 0.145160 0.976684 0.431936
O O4 0.018532 0.144110 0.425177
O O5 0.325206 0.704170 0.353891
O O6 0.598072 0.828141 0.714300
#
# Coordination Sequence:
#
# PCOD9274025 Si02
#       4
#     4   4   8   8
#     4   7  18  34  61  74 110 151 174 224 283 320
#     4  11  22  34  63  86 110 149 192 228 281 334
#     4   9  20  39  61  77 119 150 182 232 284 329
#     4  10  20  38  61  83 112 153 185 231 283 330
#
# _framework density 28.225947999999999
#
# number of rings (size 3 to 8) (size 9 to 14) (size 15 to 20)
#    2.000    0.667    0.000    2.000    0.000    1.333 
#    0.000    8.333    0.000    0.000    0.000    0.000 
#    0.000    0.000    0.000    0.000    0.000    0.000 
#
# Total GULP energy -67086.237633 kJ/mol
# GULP energy per Si atom -5590.519803 kJ/mol
# Density = 2.816170 g / cm^3
# Si number density = 28.225948 Si / 1000 Ang^3
#
#
#
# Elastic Constant Matrix: (Units=GPa)
#
#
# Indices 1 2 3 4 5 6 
#
# 1 106.0993 18.9420 36.4025 0.0000 30.0289 0.0000
# 2 18.9420 45.6592 83.8016 0.0000 9.9235 0.0000
# 3 36.4025 83.8016 186.7746 0.0000 20.5120 0.0000
# 4 0.0000 0.0000 0.0000 56.7259 0.0000 35.2427
# 5 30.0289 9.9235 20.5120 0.0000 57.1194 0.0000
# 6 0.0000 0.0000 0.0000 35.2427 0.0000 27.5981
#
#
#
# Elastic Compliance Matrix: (Units=1/GPa)
#
#
# Indices 1 2 3 4 5 6 
#
# 1 0.011626 -0.003274 -0.000196 0.000000 -0.005473 0.000000
# 2 -0.003274 0.125147 -0.055503 0.000000 -0.000089 0.000000
# 3 -0.000196 -0.055503 0.030425 0.000000 -0.001180 0.000000
# 4 0.000000 0.000000 0.000000 0.085317 0.000000 -0.108949
# 5 -0.005473 -0.000089 -0.001180 0.000000 0.020824 0.000000
# 6 0.000000 0.000000 0.000000 -0.108949 0.000000 0.175362
#
#
# Mechanical properties :
#
#
# Convention : Reuss Voigt Hill
#
# Bulk Modulus (GPa) = 20.30376 68.53614 44.41995
# Shear Modulus (GPa) = 8.57539 41.58116 25.07828
#
# Velocity S-wave (km/s) = 1.74491 3.84233 2.98398
# Velocity P-wave (km/s) = 3.35686 6.63466 5.25772
#
# Compressibility (1/GPa) = 0.04925197
#
# Stress axis : x y z
#
# Youngs Moduli (GPa) = 86.01562 7.99057 32.86806
#
# Poissons Ratio (x) = 0.02616 0.00643
# Poissons Ratio (y) = 0.28166 1.82427
# Poissons Ratio (z) = 0.01683 0.44350
#
# Static dielectric constant tensor:
#      x y z
#    x 2.138380 0.000000 -0.035500 
#    y 0.000000 2.270940 0.000000 
#    z -0.035500 0.000000 2.118650 
# 
# From -- ./inp_files/20950.got.cif
#   From: 2010.05.17/outbox.cif.g08.bks.cpg/sg15_11_cif.got.tgz:20950.got - 2010.06.03 18:47:42.
