data_PCOD9274033
_publ_section_title
;
Structure prediction by ZEFSAII (Michael W. Deem and Ramdas Pophale) SiO2 
 PCOD9274033
Probable space group: C 2/C
;
_chemical_formula_sum "Si O2"
_cell_formula_units_Z 60
_cell_length_a 7.682632
_cell_length_b 12.383120
_cell_length_c 25.729223
_cell_angle_alpha 90.000000
_cell_angle_beta 75.870246
_cell_angle_gamma 90.000000
_cell_volume 2373.692732
_symmetry_space_group_name_H-M "C 2/C"
_symmetry_group_IT_number 15
_symmetry_cell_setting 'monoclinic'
loop_
_space_group_symop_operation_xyz
x,y,z
-x,y,1/2-z
-x,-y,-z
x,-y,1/2+z
1/2+x,1/2+y,z
1/2-x,1/2+y,1/2-z
1/2-x,1/2-y,-z
1/2+x,1/2-y,1/2+z
loop_
_atom_site_type_symbol
_atom_site_label
_atom_site_fract_x
_atom_site_fract_y
_atom_site_fract_z
Si Si1 0.812403 0.245261 0.209673
Si Si2 0.966900 0.212086 0.677046
Si Si3 0.000000 0.573000 0.750000
Si Si4 0.326933 0.988348 0.411117
Si Si5 0.856783 0.019225 0.185471
Si Si6 0.700218 0.267681 0.425322
Si Si7 0.349627 0.364055 0.488458
Si Si8 0.348996 0.026884 0.055999
O O1 0.681952 0.248836 0.270044
O O2 0.665625 0.244724 0.174114
O O3 0.946863 0.345351 0.207168
O O4 0.926327 0.136541 0.194415
O O5 0.888021 0.233334 0.625831
O O6 0.981315 0.082982 0.685884
O O7 0.173884 0.500997 0.730517
O O8 0.350868 0.859005 0.416578
O O9 0.218034 0.008704 0.367115
O O10 0.209838 0.055288 0.461732
O O11 0.529889 0.029686 0.401227
O O12 0.552155 0.326809 0.471590
O O13 0.732556 0.146377 0.441586
O O14 0.250000 0.250000 0.500000
O O15 0.293314 0.431899 0.441191
O O16 0.500000 0.000000 0.000000
#
# Coordination Sequence:
#
# PCOD9274033 Si02
#       8
#     8   8   4   8   8   8   8   8
#     4  10  20  38  61  84 118 153 187 236 295 345
#     4   9  21  38  60  88 115 155 193 238 293 345
#     4  10  22  36  58  90 110 152 196 230 292 354
#     4  10  22  40  60  86 118 158 194 246 296 343
#     4  10  21  40  58  85 119 149 193 243 289 345
#     4  11  21  41  61  84 123 150 203 246 285 358
#     4  11  22  40  59  85 120 157 199 242 292 352
#     4  10  21  38  57  85 113 153 194 241 294 332
#
# _framework density 25.277073000000001
#
# number of rings (size 3 to 8) (size 9 to 14) (size 15 to 20)
#    0.000    1.867    2.667    2.000    0.000    5.333 
#    2.400    9.333    0.000    0.000    0.000    0.000 
#    0.000    0.000    0.000    0.000    0.000    0.000 
#
# Total GULP energy -167731.985588 kJ/mol
# GULP energy per Si atom -5591.066186 kJ/mol
# Density = 2.521954 g / cm^3
# Si number density = 25.277073 Si / 1000 Ang^3
#
#
#
# Elastic Constant Matrix: (Units=GPa)
#
#
# Indices 1 2 3 4 5 6 
#
# 1 44.5770 9.2000 -2.5396 0.0000 8.0486 0.0000
# 2 9.2000 156.6202 35.8353 0.0000 0.9010 0.0000
# 3 -2.5396 35.8353 61.6259 0.0000 16.9734 0.0000
# 4 0.0000 0.0000 0.0000 24.1848 0.0000 2.8628
# 5 8.0486 0.9010 16.9734 0.0000 19.2289 0.0000
# 6 0.0000 0.0000 0.0000 2.8628 0.0000 38.0278
#
#
#
# Elastic Compliance Matrix: (Units=1/GPa)
#
#
# Indices 1 2 3 4 5 6 
#
# 1 0.026859 -0.003313 0.008042 0.000000 -0.018186 0.000000
# 2 -0.003313 0.008086 -0.006759 0.000000 0.006974 0.000000
# 3 0.008042 -0.006759 0.028180 0.000000 -0.027924 0.000000
# 4 0.000000 0.000000 0.000000 0.041720 0.000000 -0.003141
# 5 -0.018186 0.006974 -0.027924 0.000000 0.083939 0.000000
# 6 0.000000 0.000000 0.000000 -0.003141 0.000000 0.026533
#
#
# Mechanical properties :
#
#
# Convention : Reuss Voigt Hill
#
# Bulk Modulus (GPa) = 16.93078 38.64605 27.78842
# Shear Modulus (GPa) = 20.91479 30.97679 25.94579
#
# Velocity S-wave (km/s) = 2.87961 3.50450 3.20731
# Velocity P-wave (km/s) = 4.21531 5.63005 4.97325
#
# Compressibility (1/GPa) = 0.05906401
#
# Stress axis : x y z
#
# Youngs Moduli (GPa) = 37.23194 123.67129 35.48615
#
# Poissons Ratio (x) = 0.40975 -0.28539
# Poissons Ratio (y) = 0.12336 0.23987
# Poissons Ratio (z) = -0.29943 0.83595
#
# Static dielectric constant tensor:
#      x y z
#    x 2.004270 0.000000 -0.050860 
#    y 0.000000 2.024710 0.000000 
#    z -0.050860 0.000000 2.147840 
# 
# From -- ./inp_files/307156.got.cif
#   From: 2010.05.17/outbox.cif.g08.bks.cpg/sg15_154_cif.got.tgz:307156.got - 2010.06.03 18:47:42.
