data_PCOD9274863
_publ_section_title
;
Structure prediction by ZEFSAII (Michael W. Deem and Ramdas Pophale) SiO2 
 PCOD9274863
Probable space group: C 2/C
;
_chemical_formula_sum "Si O2"
_cell_formula_units_Z 44
_cell_length_a 17.582531
_cell_length_b 17.330610
_cell_length_c 9.905295
_cell_angle_alpha 90.000000
_cell_angle_beta 43.561440
_cell_angle_gamma 90.000000
_cell_volume 2080.008383
_symmetry_space_group_name_H-M "C 2/C"
_symmetry_group_IT_number 15
_symmetry_cell_setting 'monoclinic'
loop_
_space_group_symop_operation_xyz
x,y,z
-x,y,1/2-z
-x,-y,-z
x,-y,1/2+z
1/2+x,1/2+y,z
1/2-x,1/2+y,1/2-z
1/2-x,1/2-y,-z
1/2+x,1/2-y,1/2+z
loop_
_atom_site_type_symbol
_atom_site_label
_atom_site_fract_x
_atom_site_fract_y
_atom_site_fract_z
Si Si1 0.612889 0.899758 0.282635
Si Si2 0.911358 0.229436 0.677704
Si Si3 0.828297 0.656317 0.513086
Si Si4 0.500000 0.605317 0.750000
Si Si5 0.744371 0.451817 0.907717
Si Si6 0.382857 0.137618 0.023474
O O1 0.614514 0.850998 0.417494
O O2 0.484397 0.921480 0.423182
O O3 0.703580 0.965754 0.190005
O O4 0.642099 0.859988 0.102351
O O5 0.793279 0.189326 0.808175
O O6 0.927457 0.281163 0.524254
O O7 0.991121 0.162632 0.631252
O O8 0.889847 0.288133 0.829457
O O9 0.808494 0.576402 0.459907
O O10 0.613146 0.556575 0.596664
O O11 0.781141 0.391888 0.743571
#
# Coordination Sequence:
#
# PCOD9274863 Si02
#       6
#     8   8   8   4   8   8
#     4  11  21  36  55  86 121 153 188 234 295 347
#     4   9  18  37  59  87 110 148 201 238 289 333
#     4   9  19  35  61  84 113 151 193 242 281 342
#     4  10  20  38  66  84 112 152 200 246 272 344
#     4  10  21  38  58  85 115 155 197 234 284 344
#     4  10  22  35  57  85 119 151 186 244 290 340
#
# _framework density 21.153762
#
# number of rings (size 3 to 8) (size 9 to 14) (size 15 to 20)
#    0.000    2.182    0.000    3.818    0.000    4.364 
#    0.000   10.000    0.000    0.000    0.000    0.000 
#    0.000    0.000    0.000    0.000    0.000    0.000 
#
# Total GULP energy -122712.154594 kJ/mol
# GULP energy per Si atom -5577.825209 kJ/mol
# Density = 2.110561 g / cm^3
# Si number density = 21.153762 Si / 1000 Ang^3
#
#
#
# Elastic Constant Matrix: (Units=GPa)
#
#
# Indices 1 2 3 4 5 6 
#
# 1 78.5942 -2.6924 28.6494 0.0000 11.6853 0.0000
# 2 -2.6924 36.1510 5.0937 0.0000 -1.2725 0.0000
# 3 28.6494 5.0937 78.5575 0.0000 14.2644 0.0000
# 4 0.0000 0.0000 0.0000 15.6019 0.0000 -0.8707
# 5 11.6853 -1.2725 14.2644 0.0000 49.5223 0.0000
# 6 0.0000 0.0000 0.0000 -0.8707 0.0000 1.9662
#
#
#
# Elastic Compliance Matrix: (Units=1/GPa)
#
#
# Indices 1 2 3 4 5 6 
#
# 1 0.014982 0.001781 -0.005219 0.000000 -0.001986 0.000000
# 2 0.001781 0.028209 -0.002674 0.000000 0.001075 0.000000
# 3 -0.005219 -0.002674 0.015401 0.000000 -0.003273 0.000000
# 4 0.000000 0.000000 0.000000 0.065719 0.000000 0.029103
# 5 -0.001986 0.001075 -0.003273 0.000000 0.021632 0.000000
# 6 0.000000 0.000000 0.000000 0.029103 0.000000 0.521483
#
#
# Mechanical properties :
#
#
# Convention : Reuss Voigt Hill
#
# Bulk Modulus (GPa) = 21.56610 28.37821 24.97216
# Shear Modulus (GPa) = 7.19316 24.23488 15.71402
#
# Velocity S-wave (km/s) = 1.84602 3.38842 2.72848
# Velocity P-wave (km/s) = 3.84198 5.36217 4.66442
#
# Compressibility (1/GPa) = 0.04636906
#
# Stress axis : x y z
#
# Youngs Moduli (GPa) = 66.74552 35.44966 64.93294
#
# Poissons Ratio (x) = -0.06314 0.33887
# Poissons Ratio (y) = -0.11889 0.17362
# Poissons Ratio (z) = 0.34833 0.09479
#
# Static dielectric constant tensor:
#      x y z
#    x 1.766230 0.000000 -0.000520 
#    y 0.000000 1.835600 0.000000 
#    z -0.000520 0.000000 1.774140 
# 
# From -- ./inp_files/48885.got.cif
#   From: 2010.05.17/outbox.cif.g08.bks.cpg/sg15_25_cif.got.tgz:48885.got - 2010.06.03 18:47:42.
