data_PCOD9274137
_publ_section_title
;
Structure prediction by ZEFSAII (Michael W. Deem and Ramdas Pophale) SiO2 
 PCOD9274137
Probable space group: C 2/C
;
_chemical_formula_sum "Si O2"
_cell_formula_units_Z 52
_cell_length_a 9.876441
_cell_length_b 18.292433
_cell_length_c 14.352407
_cell_angle_alpha 90.000000
_cell_angle_beta 81.259774
_cell_angle_gamma 90.000000
_cell_volume 2562.854253
_symmetry_space_group_name_H-M "C 2/C"
_symmetry_group_IT_number 15
_symmetry_cell_setting 'monoclinic'
loop_
_space_group_symop_operation_xyz
x,y,z
-x,y,1/2-z
-x,-y,-z
x,-y,1/2+z
1/2+x,1/2+y,z
1/2-x,1/2+y,1/2-z
1/2-x,1/2-y,-z
1/2+x,1/2-y,1/2+z
loop_
_atom_site_type_symbol
_atom_site_label
_atom_site_fract_x
_atom_site_fract_y
_atom_site_fract_z
Si Si1 0.106451 0.428029 0.410979
Si Si2 0.829814 0.416256 0.523550
Si Si3 0.500000 0.021528 0.250000
Si Si4 0.198218 0.359224 0.764573
Si Si5 0.000000 0.769678 0.250000
Si Si6 0.163771 0.818309 0.055261
Si Si7 0.027760 0.078312 0.039746
Si Si8 0.000000 0.892862 0.750000
O O1 0.152564 0.495568 0.472751
O O2 0.066873 0.468932 0.319708
O O3 0.225879 0.369689 0.404366
O O4 0.965764 0.390477 0.458307
O O5 0.833853 0.385822 0.627591
O O6 0.682297 0.397200 0.497588
O O7 0.376941 0.078284 0.290730
O O8 0.127545 0.283082 0.756060
O O9 0.360236 0.351761 0.740864
O O10 0.951923 0.805418 0.352439
O O11 0.250000 0.750000 0.000000
O O12 0.084695 0.863725 0.982875
O O13 0.030280 0.065540 0.151149
O O14 0.000000 0.000000 0.000000
#
# Coordination Sequence:
#
# PCOD9274137 Si02
#       8
#     8   8   4   8   4   8   8   4
#     4  10  20  38  61  93 127 166 215 274 337 395
#     4   9  19  37  63  90 121 164 222 274 323 392
#     4   9  20  34  61  91 123 158 212 270 329 386
#     4   9  19  40  62  92 121 174 215 259 331 401
#     4  11  24  43  66  92 138 182 222 274 343 414
#     4  12  26  44  66  97 138 184 227 280 346 419
#     4  11  23  41  64  99 129 172 226 286 338 397
#     4  10  22  37  67  97 129 168 224 274 332 412
#
# _framework density 20.289878999999999
#
# number of rings (size 3 to 8) (size 9 to 14) (size 15 to 20)
#    0.000    1.846    1.538    1.846    2.154    4.308 
#    0.000   13.077    0.000    0.000    0.000    0.000 
#    0.000    0.000    0.000    0.000    0.000    0.000 
#
# Total GULP energy -144828.354884 kJ/mol
# GULP energy per Si atom -5570.321342 kJ/mol
# Density = 2.024370 g / cm^3
# Si number density = 20.289879 Si / 1000 Ang^3
#
#
#
# Elastic Constant Matrix: (Units=GPa)
#
#
# Indices 1 2 3 4 5 6 
#
# 1 147.8700 31.6240 29.0117 0.0000 13.7579 0.0000
# 2 31.6240 54.2467 28.1532 0.0000 14.3929 0.0000
# 3 29.0117 28.1532 85.2014 0.0000 3.5089 0.0000
# 4 0.0000 0.0000 0.0000 16.6011 0.0000 -1.7034
# 5 13.7579 14.3929 3.5089 0.0000 30.3620 0.0000
# 6 0.0000 0.0000 0.0000 -1.7034 0.0000 3.5658
#
#
#
# Elastic Compliance Matrix: (Units=1/GPa)
#
#
# Indices 1 2 3 4 5 6 
#
# 1 0.007950 -0.003358 -0.001522 0.000000 -0.001835 0.000000
# 2 -0.003358 0.026962 -0.007337 0.000000 -0.010412 0.000000
# 3 -0.001522 -0.007337 0.014577 0.000000 0.002483 0.000000
# 4 0.000000 0.000000 0.000000 0.063342 0.000000 0.030259
# 5 -0.001835 -0.010412 0.002483 0.000000 0.038416 0.000000
# 6 0.000000 0.000000 0.000000 0.030259 0.000000 0.294896
#
#
# Mechanical properties :
#
#
# Convention : Reuss Voigt Hill
#
# Bulk Modulus (GPa) = 39.91098 51.65511 45.78305
# Shear Modulus (GPa) = 10.43996 23.34105 16.89051
#
# Velocity S-wave (km/s) = 2.27081 3.39540 2.88837
# Velocity P-wave (km/s) = 5.15641 6.39418 5.80836
#
# Compressibility (1/GPa) = 0.02505576
#
# Stress axis : x y z
#
# Youngs Moduli (GPa) = 125.78372 37.08905 68.60017
#
# Poissons Ratio (x) = 0.12455 0.10440
# Poissons Ratio (y) = 0.42238 0.50331
# Poissons Ratio (z) = 0.19143 0.27212
#
# Static dielectric constant tensor:
#      x y z
#    x 1.648470 0.000000 -0.102500 
#    y 0.000000 1.714390 0.000000 
#    z -0.102500 0.000000 1.728460 
# 
# From -- ./inp_files/145069.got.cif
#   From: 2010.05.17/outbox.cif.g08.bks.cpg/sg15_73_cif.got.tgz:145069.got - 2010.06.03 18:47:42.
