data_PCOD9274349
_publ_section_title
;
Structure prediction by ZEFSAII (Michael W. Deem and Ramdas Pophale) SiO2 
 PCOD9274349
Probable space group: C 2/C
;
_chemical_formula_sum "Si O2"
_cell_formula_units_Z 40
_cell_length_a 22.239031
_cell_length_b 8.810403
_cell_length_c 14.000553
_cell_angle_alpha 90.000000
_cell_angle_beta 141.680774
_cell_angle_gamma 90.000000
_cell_volume 1700.897594
_symmetry_space_group_name_H-M "C 2/C"
_symmetry_group_IT_number 15
_symmetry_cell_setting 'monoclinic'
loop_
_space_group_symop_operation_xyz
x,y,z
-x,y,1/2-z
-x,-y,-z
x,-y,1/2+z
1/2+x,1/2+y,z
1/2-x,1/2+y,1/2-z
1/2-x,1/2-y,-z
1/2+x,1/2-y,1/2+z
loop_
_atom_site_type_symbol
_atom_site_label
_atom_site_fract_x
_atom_site_fract_y
_atom_site_fract_z
Si Si1 0.165166 0.283792 0.714773
Si Si2 0.012490 0.776030 0.609454
Si Si3 0.820323 0.642926 0.789552
Si Si4 0.000000 0.030320 0.750000
Si Si5 0.849155 0.289798 0.539181
Si Si6 0.000000 0.528080 0.750000
O O1 0.178485 0.464555 0.729834
O O2 0.214931 0.210600 0.681798
O O3 0.232123 0.221759 0.884498
O O4 0.055409 0.230934 0.568651
O O5 0.122000 0.738705 0.716273
O O6 0.003118 0.925485 0.660265
O O7 0.977916 0.637612 0.633878
O O8 0.871956 0.670466 0.955814
O O9 0.904964 0.135034 0.629042
O O10 0.907962 0.423693 0.663909
#
# Coordination Sequence:
#
# PCOD9274349 Si02
#       6
#     8   8   8   4   8   4
#     4  10  20  40  64  88 116 157 209 242 270 380
#     4  11  21  39  68  86 119 160 201 239 304 348
#     4  10  22  39  67  86 116 162 206 237 292 361
#     4  10  22  38  58  96 126 148 190 266 298 344
#     4   9  21  40  61  83 130 153 194 247 300 338
#     4  10  20  38  62  94 126 152 188 260 296 346
#
# _framework density 23.516994
#
# number of rings (size 3 to 8) (size 9 to 14) (size 15 to 20)
#    1.200    0.800    2.000    1.800    0.000    0.800 
#    0.000   10.000    4.400    0.000    0.000    0.000 
#    0.000    0.000    0.000    0.000    0.000    0.000 
#
# Total GULP energy -111688.109666 kJ/mol
# GULP energy per Si atom -5584.405483 kJ/mol
# Density = 2.346347 g / cm^3
# Si number density = 23.516994 Si / 1000 Ang^3
#
#
#
# Elastic Constant Matrix: (Units=GPa)
#
#
# Indices 1 2 3 4 5 6 
#
# 1 32.6161 21.6039 -5.5876 0.0000 1.2069 0.0000
# 2 21.6039 106.0723 27.4497 0.0000 -12.4002 0.0000
# 3 -5.5876 27.4497 95.4204 0.0000 -10.8182 0.0000
# 4 0.0000 0.0000 0.0000 34.2942 0.0000 0.9846
# 5 1.2069 -12.4002 -10.8182 0.0000 27.5587 0.0000
# 6 0.0000 0.0000 0.0000 0.9846 0.0000 18.6167
#
#
#
# Elastic Compliance Matrix: (Units=1/GPa)
#
#
# Indices 1 2 3 4 5 6 
#
# 1 0.037736 -0.009310 0.004423 0.000000 -0.004106 0.000000
# 2 -0.009310 0.012834 -0.003701 0.000000 0.004730 0.000000
# 3 0.004423 -0.003701 0.012133 0.000000 0.002904 0.000000
# 4 0.000000 0.000000 0.000000 0.029204 0.000000 -0.001545
# 5 -0.004106 0.004730 0.002904 0.000000 0.039734 0.000000
# 6 0.000000 0.000000 0.000000 -0.001545 0.000000 0.053797
#
#
# Mechanical properties :
#
#
# Convention : Reuss Voigt Hill
#
# Bulk Modulus (GPa) = 21.96551 35.67120 28.81836
# Shear Modulus (GPa) = 22.95782 28.80346 25.88064
#
# Velocity S-wave (km/s) = 3.12785 3.50350 3.32099
# Velocity P-wave (km/s) = 4.73340 5.61847 5.19482
#
# Compressibility (1/GPa) = 0.04552592
#
# Stress axis : x y z
#
# Youngs Moduli (GPa) = 26.49982 77.91529 82.42121
#
# Poissons Ratio (x) = 0.72541 -0.36451
# Poissons Ratio (y) = 0.24672 0.30504
# Poissons Ratio (z) = -0.11720 0.28837
#
# Static dielectric constant tensor:
#      x y z
#    x 1.914450 0.000000 -0.018490 
#    y 0.000000 1.820720 0.000000 
#    z -0.018490 0.000000 1.896030 
# 
# From -- ./inp_files/165882.got.cif
#   From: 2010.05.17/outbox.cif.g08.bks.cpg/sg15_83_cif.got.tgz:165882.got - 2010.06.03 18:47:42.
