data_PCOD9274597
_publ_section_title
;
Structure prediction by ZEFSAII (Michael W. Deem and Ramdas Pophale) SiO2 
 PCOD9274597
Probable space group: C 2/C
;
_chemical_formula_sum "Si O2"
_cell_formula_units_Z 44
_cell_length_a 13.948265
_cell_length_b 8.612059
_cell_length_c 17.620328
_cell_angle_alpha 90.000000
_cell_angle_beta 83.939700
_cell_angle_gamma 90.000000
_cell_volume 2104.782581
_symmetry_space_group_name_H-M "C 2/C"
_symmetry_group_IT_number 15
_symmetry_cell_setting 'monoclinic'
loop_
_space_group_symop_operation_xyz
x,y,z
-x,y,1/2-z
-x,-y,-z
x,-y,1/2+z
1/2+x,1/2+y,z
1/2-x,1/2+y,1/2-z
1/2-x,1/2-y,-z
1/2+x,1/2-y,1/2+z
loop_
_atom_site_type_symbol
_atom_site_label
_atom_site_fract_x
_atom_site_fract_y
_atom_site_fract_z
Si Si1 0.416775 0.003297 0.945388
Si Si2 0.282465 0.972463 0.592444
Si Si3 0.500000 0.462944 0.750000
Si Si4 0.855075 0.273901 0.327982
Si Si5 0.110466 0.451650 0.767781
Si Si6 0.613105 0.300204 0.153544
O O1 0.413441 0.841829 0.899351
O O2 0.421983 0.148965 0.887608
O O3 0.500000 0.000000 0.000000
O O4 0.320248 0.020432 0.004155
O O5 0.227246 0.816492 0.621101
O O6 0.369733 0.976855 0.645983
O O7 0.205082 0.107790 0.615234
O O8 0.590000 0.344770 0.733302
O O9 0.474436 0.579885 0.821780
O O10 0.824939 0.422298 0.281464
O O11 0.135760 0.283422 0.732110
O O12 0.000000 0.477811 0.750000
#
# Coordination Sequence:
#
# PCOD9274597 Si02
#       6
#     8   8   4   8   8   8
#     4  11  24  41  65  90 128 169 208 250 318 370
#     4  11  22  39  63  91 127 162 210 255 313 368
#     4  10  20  38  64  88 126 152 214 258 302 354
#     4  10  22  39  63  92 126 165 206 256 305 369
#     4  11  20  38  65  92 125 163 211 252 309 369
#     4  10  22  39  63  92 126 165 206 256 305 369
#
# _framework density 20.904772000000001
#
# number of rings (size 3 to 8) (size 9 to 14) (size 15 to 20)
#    0.000    1.455    1.818    4.364    0.000    0.000 
#    0.000    3.636    8.000    0.000    0.000    0.000 
#    0.000    0.000    0.000    0.000    0.000    0.000 
#
# Total GULP energy -122662.464717 kJ/mol
# GULP energy per Si atom -5575.566578 kJ/mol
# Density = 2.085719 g / cm^3
# Si number density = 20.904772 Si / 1000 Ang^3
#
#
#
# Elastic Constant Matrix: (Units=GPa)
#
#
# Indices 1 2 3 4 5 6 
#
# 1 75.4843 32.0849 25.8521 0.0000 -10.2476 0.0000
# 2 32.0849 104.2716 26.7907 0.0000 -7.8789 0.0000
# 3 25.8521 26.7907 88.9359 0.0000 -11.9340 0.0000
# 4 0.0000 0.0000 0.0000 37.6597 0.0000 -9.7290
# 5 -10.2476 -7.8789 -11.9340 0.0000 44.7085 0.0000
# 6 0.0000 0.0000 0.0000 -9.7290 0.0000 24.9751
#
#
#
# Elastic Compliance Matrix: (Units=1/GPa)
#
#
# Indices 1 2 3 4 5 6 
#
# 1 0.016373 -0.004038 -0.003251 0.000000 0.002173 0.000000
# 2 -0.004038 0.011437 -0.002204 0.000000 0.000502 0.000000
# 3 -0.003251 -0.002204 0.013173 0.000000 0.002383 0.000000
# 4 0.000000 0.000000 0.000000 0.029525 0.000000 0.011501
# 5 0.002173 0.000502 0.002383 0.000000 0.023590 0.000000
# 6 0.000000 0.000000 0.000000 0.011501 0.000000 0.044520
#
#
# Mechanical properties :
#
#
# Convention : Reuss Voigt Hill
#
# Bulk Modulus (GPa) = 45.46398 48.68302 47.07350
# Shear Modulus (GPa) = 30.31467 33.73293 32.02380
#
# Velocity S-wave (km/s) = 3.81219 4.02138 3.91818
# Velocity P-wave (km/s) = 6.41657 6.70079 6.56022
#
# Compressibility (1/GPa) = 0.02199544
#
# Stress axis : x y z
#
# Youngs Moduli (GPa) = 61.07667 87.43398 75.91418
#
# Poissons Ratio (x) = 0.35310 0.24681
# Poissons Ratio (y) = 0.24666 0.16732
# Poissons Ratio (z) = 0.19857 0.19271
#
# Static dielectric constant tensor:
#      x y z
#    x 1.816750 0.000000 -0.018570 
#    y 0.000000 1.756770 0.000000 
#    z -0.018570 0.000000 1.759720 
# 
# From -- ./inp_files/166081.got.cif
#   From: 2010.05.17/outbox.cif.g08.bks.cpg/sg15_84_cif.got.tgz:166081.got - 2010.06.03 18:47:42.
