data_PCOD9274632
_publ_section_title
;
Structure prediction by ZEFSAII (Michael W. Deem and Ramdas Pophale) SiO2 
 PCOD9274632
Probable space group: C 2/C
;
_chemical_formula_sum "Si O2"
_cell_formula_units_Z 40
_cell_length_a 12.358248
_cell_length_b 8.283279
_cell_length_c 18.925298
_cell_angle_alpha 90.000000
_cell_angle_beta 46.894300
_cell_angle_gamma 90.000000
_cell_volume 1414.428112
_symmetry_space_group_name_H-M "C 2/C"
_symmetry_group_IT_number 15
_symmetry_cell_setting 'monoclinic'
loop_
_space_group_symop_operation_xyz
x,y,z
-x,y,1/2-z
-x,-y,-z
x,-y,1/2+z
1/2+x,1/2+y,z
1/2-x,1/2+y,1/2-z
1/2-x,1/2-y,-z
1/2+x,1/2-y,1/2+z
loop_
_atom_site_type_symbol
_atom_site_label
_atom_site_fract_x
_atom_site_fract_y
_atom_site_fract_z
Si Si1 0.750000 0.250000 0.000000
Si Si2 0.427357 0.410290 0.933222
Si Si3 0.809678 0.266659 0.364958
Si Si4 0.500000 0.925117 0.750000
Si Si5 0.901896 0.395765 0.639980
Si Si6 0.357619 0.772238 0.082674
O O1 0.659339 0.423369 0.026815
O O2 0.707186 0.257072 0.106681
O O3 0.423492 0.348022 0.855211
O O4 0.581771 0.388361 0.905884
O O5 0.335083 0.277961 0.019977
O O6 0.879700 0.439768 0.330338
O O7 0.738022 0.201649 0.325995
O O8 0.429040 0.861048 0.708809
O O9 0.874041 0.580906 0.629989
O O10 0.052333 0.340092 0.530043
#
# Coordination Sequence:
#
# PCOD9274632 Si02
#       6
#     4   8   8   4   8   8
#     4  12  20  32  62 104 124 154 214 288 320 370
#     4  10  20  38  65  93 124 166 220 267 321 396
#     4  10  21  41  64  91 123 173 219 261 328 401
#     4  12  22  40  66  94 130 178 208 278 340 394
#     4  10  21  41  63  90 123 175 216 261 330 399
#     4  10  20  38  64  90 127 164 221 268 318 401
#
# _framework density 28.279980999999999
#
# number of rings (size 3 to 8) (size 9 to 14) (size 15 to 20)
#    0.000    1.600    4.000    1.800    0.000    0.000 
#    7.200    2.000    0.000    1.200    0.000    0.000 
#    0.000    0.000    0.000    0.000    0.000    0.000 
#
# Total GULP energy -111553.084741 kJ/mol
# GULP energy per Si atom -5577.654237 kJ/mol
# Density = 2.821561 g / cm^3
# Si number density = 28.279981 Si / 1000 Ang^3
#
#
#
# Elastic Constant Matrix: (Units=GPa)
#
#
# Indices 1 2 3 4 5 6 
#
# 1 171.9416 56.2726 61.7966 0.0000 80.6560 0.0000
# 2 56.2726 129.9258 7.8491 0.0000 32.9814 0.0000
# 3 61.7966 7.8491 114.5062 0.0000 56.0593 0.0000
# 4 0.0000 0.0000 0.0000 8.6135 0.0000 30.0606
# 5 80.6560 32.9814 56.0593 0.0000 68.0557 0.0000
# 6 0.0000 0.0000 0.0000 30.0606 0.0000 49.7742
#
#
#
# Elastic Compliance Matrix: (Units=1/GPa)
#
#
# Indices 1 2 3 4 5 6 
#
# 1 0.013566 -0.001985 0.000360 0.000000 -0.015412 0.000000
# 2 -0.001985 0.009509 0.002554 0.000000 -0.004359 0.000000
# 3 0.000360 0.002554 0.015382 0.000000 -0.014335 0.000000
# 4 0.000000 0.000000 0.000000 -0.104808 0.000000 0.063298
# 5 -0.015412 -0.004359 -0.014335 0.000000 0.046880 0.000000
# 6 0.000000 0.000000 0.000000 0.063298 0.000000 -0.018137
#
#
# Mechanical properties :
#
#
# Convention : Reuss Voigt Hill
#
# Bulk Modulus (GPa) = 24.80515 74.24558 49.52537
# Shear Modulus (GPa) = -192.09805 44.65236 -73.72285
#
# Velocity S-wave (km/s) = -8.25074 3.97790 -5.11131
# Velocity P-wave (km/s) = 9.05406 6.88542 4.15734
#
# Compressibility (1/GPa) = 0.04031421
#
# Stress axis : x y z
#
# Youngs Moduli (GPa) = 73.71461 105.16701 65.01275
#
# Poissons Ratio (x) = 0.20875 -0.02343
# Poissons Ratio (y) = 0.14632 -0.16601
# Poissons Ratio (z) = -0.02657 -0.26855
#
# Static dielectric constant tensor:
#      x y z
#    x 1.139450 0.000000 0.255530 
#    y 0.000000 2.054750 0.000000 
#    z 0.255530 0.000000 2.773960 
# 
# From -- ./inp_files/202521.got.cif
#   From: 2010.05.17/outbox.cif.g08.bks.cpg/sg15_102_cif.got.tgz:202521.got - 2010.06.03 18:47:42.
