data_PCOD9274268
_publ_section_title
;
Structure prediction by ZEFSAII (Michael W. Deem and Ramdas Pophale) SiO2 
 PCOD9274268
Probable space group: C 2/C
;
_chemical_formula_sum "Si O2"
_cell_formula_units_Z 40
_cell_length_a 11.299748
_cell_length_b 9.047744
_cell_length_c 18.320556
_cell_angle_alpha 90.000000
_cell_angle_beta 127.380391
_cell_angle_gamma 90.000000
_cell_volume 1488.361882
_symmetry_space_group_name_H-M "C 2/C"
_symmetry_group_IT_number 15
_symmetry_cell_setting 'monoclinic'
loop_
_space_group_symop_operation_xyz
x,y,z
-x,y,1/2-z
-x,-y,-z
x,-y,1/2+z
1/2+x,1/2+y,z
1/2-x,1/2+y,1/2-z
1/2-x,1/2-y,-z
1/2+x,1/2-y,1/2+z
loop_
_atom_site_type_symbol
_atom_site_label
_atom_site_fract_x
_atom_site_fract_y
_atom_site_fract_z
Si Si1 0.028946 0.471298 0.918165
Si Si2 0.229309 0.166144 0.287513
Si Si3 0.500000 0.089749 0.750000
Si Si4 0.572297 0.300539 0.584946
Si Si5 0.000000 0.917081 0.250000
Si Si6 0.128961 0.070658 0.946190
O O1 0.893533 0.358228 0.878119
O O2 0.032692 0.497104 0.832958
O O3 0.979835 0.631617 0.930482
O O4 0.803681 0.562199 0.996738
O O5 0.142487 0.305869 0.287665
O O6 0.211003 0.180802 0.193073
O O7 0.136885 0.022801 0.277849
O O8 0.445407 0.407679 0.572899
O O9 0.605375 0.357441 0.516609
O O10 0.053975 0.851386 0.347490
#
# Coordination Sequence:
#
# PCOD9274268 Si02
#       6
#     8   8   4   8   4   8
#     4  11  20  36  67  94 118 169 213 243 308 380
#     4   9  19  37  59  90 128 156 199 257 305 367
#     4   9  20  38  60  95 134 163 196 254 314 365
#     4   9  20  37  60  94 127 161 204 257 314 369
#     4   9  20  40  56  79 130 167 192 268 324 341
#     4  10  20  38  62  89 125 163 210 261 305 368
#
# _framework density 26.875183
#
# number of rings (size 3 to 8) (size 9 to 14) (size 15 to 20)
#    0.000    2.400    0.000    3.000    0.000    0.800 
#    0.000   19.000    0.000    0.000    0.000    0.000 
#    0.000    0.000    0.000    0.000    0.000    0.000 
#
# Total GULP energy -112261.930480 kJ/mol
# GULP energy per Si atom -5613.096524 kJ/mol
# Density = 2.681401 g / cm^3
# Si number density = 26.875183 Si / 1000 Ang^3
#
#
#
# Elastic Constant Matrix: (Units=GPa)
#
#
# Indices 1 2 3 4 5 6 
#
# 1 144.9666 58.4221 93.3389 0.0000 19.7691 0.0000
# 2 58.4221 110.0064 30.1379 0.0000 19.8737 0.0000
# 3 93.3389 30.1379 216.1516 0.0000 2.8949 0.0000
# 4 0.0000 0.0000 0.0000 27.1827 0.0000 -1.9829
# 5 19.7691 19.8737 2.8949 0.0000 64.3236 0.0000
# 6 0.0000 0.0000 0.0000 -1.9829 0.0000 11.8490
#
#
#
# Elastic Compliance Matrix: (Units=1/GPa)
#
#
# Indices 1 2 3 4 5 6 
#
# 1 0.011980 -0.004772 -0.004481 0.000000 -0.002006 0.000000
# 2 -0.004772 0.011910 0.000430 0.000000 -0.002233 0.000000
# 3 -0.004481 0.000430 0.006489 0.000000 0.000952 0.000000
# 4 0.000000 0.000000 0.000000 0.037243 0.000000 0.006232
# 5 -0.002006 -0.002233 0.000952 0.000000 0.016810 0.000000
# 6 0.000000 0.000000 0.000000 0.006232 0.000000 0.085438
#
#
# Mechanical properties :
#
#
# Convention : Reuss Voigt Hill
#
# Bulk Modulus (GPa) = 78.53909 92.76917 85.65413
# Shear Modulus (GPa) = 26.07420 39.95279 33.01349
#
# Velocity S-wave (km/s) = 3.11818 3.85983 3.50866
# Velocity P-wave (km/s) = 6.50009 7.37956 6.95374
#
# Compressibility (1/GPa) = 0.01273251
#
# Stress axis : x y z
#
# Youngs Moduli (GPa) = 83.47166 83.96025 154.11520
#
# Poissons Ratio (x) = 0.40069 0.69059
# Poissons Ratio (y) = 0.39836 -0.06628
# Poissons Ratio (z) = 0.37404 -0.03611
#
# Static dielectric constant tensor:
#      x y z
#    x 2.090390 0.000000 -0.065990 
#    y 0.000000 2.105310 0.000000 
#    z -0.065990 0.000000 2.094180 
# 
# From -- ./inp_files/195759.got.cif
#   From: 2010.05.17/outbox.cif.g08.bks.cpg/sg15_98_cif.got.tgz:195759.got - 2010.06.03 18:47:42.
