data_PCOD9274751
_publ_section_title
;
Structure prediction by ZEFSAII (Michael W. Deem and Ramdas Pophale) SiO2 
 PCOD9274751
Probable space group: C 2/C
;
_chemical_formula_sum "Si O2"
_cell_formula_units_Z 44
_cell_length_a 20.844390
_cell_length_b 8.712822
_cell_length_c 10.739764
_cell_angle_alpha 90.000000
_cell_angle_beta 64.813990
_cell_angle_gamma 90.000000
_cell_volume 1765.054950
_symmetry_space_group_name_H-M "C 2/C"
_symmetry_group_IT_number 15
_symmetry_cell_setting 'monoclinic'
loop_
_space_group_symop_operation_xyz
x,y,z
-x,y,1/2-z
-x,-y,-z
x,-y,1/2+z
1/2+x,1/2+y,z
1/2-x,1/2+y,1/2-z
1/2-x,1/2-y,-z
1/2+x,1/2-y,1/2+z
loop_
_atom_site_type_symbol
_atom_site_label
_atom_site_fract_x
_atom_site_fract_y
_atom_site_fract_z
Si Si1 0.370338 0.347394 0.729877
Si Si2 0.247427 0.568560 0.498053
Si Si3 0.597833 0.329861 0.354986
Si Si4 0.748387 0.202893 0.147725
Si Si5 0.500000 0.850834 0.750000
Si Si6 0.907624 0.616347 0.913534
O O1 0.320017 0.452452 0.863068
O O2 0.413117 0.486445 0.631265
O O3 0.318395 0.272507 0.670719
O O4 0.404895 0.213109 0.784887
O O5 0.250000 0.750000 0.500000
O O6 0.245780 0.481063 0.629483
O O7 0.170840 0.543962 0.500529
O O8 0.679160 0.271606 0.268452
O O9 0.554068 0.255088 0.279247
O O10 0.574840 0.243681 0.499353
O O11 0.750000 0.250000 0.000000
O O12 0.458578 0.971186 0.871392
#
# Coordination Sequence:
#
# PCOD9274751 Si02
#       6
#     8   8   8   8   4   8
#     4  11  24  43  74 107 145 177 225 303 364 419
#     4  10  20  38  65 103 141 174 221 281 357 414
#     4  12  26  46  71 103 146 184 239 289 345 432
#     4  12  24  39  71 112 142 175 223 290 369 419
#     4  12  28  50  70  98 138 198 248 290 340 414
#     4  11  25  48  72 103 141 190 238 290 355 417
#
# _framework density 24.928402999999999
#
# number of rings (size 3 to 8) (size 9 to 14) (size 15 to 20)
#    0.000    0.727    5.455    2.727    2.545    2.182 
#    3.273    1.818    0.000    0.000    0.000    0.000 
#    0.000    0.000    0.000    0.000    0.000    0.000 
#
# Total GULP energy -122943.753359 kJ/mol
# GULP energy per Si atom -5588.352425 kJ/mol
# Density = 2.487166 g / cm^3
# Si number density = 24.928403 Si / 1000 Ang^3
#
#
#
# Elastic Constant Matrix: (Units=GPa)
#
#
# Indices 1 2 3 4 5 6 
#
# 1 66.4028 50.6053 20.7134 0.0000 19.5138 0.0000
# 2 50.6053 116.8149 14.8401 0.0000 26.8890 0.0000
# 3 20.7134 14.8401 32.0274 0.0000 26.9993 0.0000
# 4 0.0000 0.0000 0.0000 48.1385 0.0000 18.6252
# 5 19.5138 26.8890 26.9993 0.0000 44.1851 0.0000
# 6 0.0000 0.0000 0.0000 18.6252 0.0000 15.9762
#
#
#
# Elastic Compliance Matrix: (Units=1/GPa)
#
#
# Indices 1 2 3 4 5 6 
#
# 1 0.026918 -0.010637 -0.016325 0.000000 0.004560 0.000000
# 2 -0.010637 0.014175 0.007472 0.000000 -0.008494 0.000000
# 3 -0.016325 0.007472 0.074398 0.000000 -0.042799 0.000000
# 4 0.000000 0.000000 0.000000 0.037843 0.000000 -0.044118
# 5 0.004560 -0.008494 -0.042799 0.000000 0.051939 0.000000
# 6 0.000000 0.000000 0.000000 -0.044118 0.000000 0.114026
#
#
# Mechanical properties :
#
#
# Convention : Reuss Voigt Hill
#
# Bulk Modulus (GPa) = 13.06989 43.06252 28.06620
# Shear Modulus (GPa) = 13.02821 30.26572 21.64696
#
# Velocity S-wave (km/s) = 2.28858 3.48818 2.95000
# Velocity P-wave (km/s) = 3.49826 5.79096 4.78398
#
# Compressibility (1/GPa) = 0.07651177
#
# Stress axis : x y z
#
# Youngs Moduli (GPa) = 37.14959 70.54883 13.44116
#
# Poissons Ratio (x) = 0.75043 0.21942
# Poissons Ratio (y) = 0.39516 -0.10043
# Poissons Ratio (z) = 0.60646 -0.52715
#
# Static dielectric constant tensor:
#      x y z
#    x 1.992810 0.000000 -0.106750 
#    y 0.000000 2.140680 0.000000 
#    z -0.106750 0.000000 2.180280 
# 
# From -- ./inp_files/109976.got.cif
#   From: 2010.05.17/outbox.cif.g08.bks.cpg/sg15_55_cif.got.tgz:109976.got - 2010.06.03 18:47:42.
