data_PCOD9274445
_publ_section_title
;
Structure prediction by ZEFSAII (Michael W. Deem and Ramdas Pophale) SiO2 
 PCOD9274445
Probable space group: C 2/C
;
_chemical_formula_sum "Si O2"
_cell_formula_units_Z 56
_cell_length_a 18.163185
_cell_length_b 15.235789
_cell_length_c 10.492973
_cell_angle_alpha 90.000000
_cell_angle_beta 128.623449
_cell_angle_gamma 90.000000
_cell_volume 2268.579079
_symmetry_space_group_name_H-M "C 2/C"
_symmetry_group_IT_number 15
_symmetry_cell_setting 'monoclinic'
loop_
_space_group_symop_operation_xyz
x,y,z
-x,y,1/2-z
-x,-y,-z
x,-y,1/2+z
1/2+x,1/2+y,z
1/2-x,1/2+y,1/2-z
1/2-x,1/2-y,-z
1/2+x,1/2-y,1/2+z
loop_
_atom_site_type_symbol
_atom_site_label
_atom_site_fract_x
_atom_site_fract_y
_atom_site_fract_z
Si Si1 0.584417 0.569670 0.752807
Si Si2 0.741512 0.143520 0.655237
Si Si3 0.143305 0.308012 0.634728
Si Si4 0.896609 0.590520 0.665587
Si Si5 0.931084 0.712502 0.947842
Si Si6 0.921885 0.088488 0.401376
Si Si7 0.253827 0.978735 0.651684
O O1 0.500000 0.600304 0.750000
O O2 0.682075 0.620211 0.869524
O O3 0.532278 0.584633 0.558600
O O4 0.597601 0.464729 0.750066
O O5 0.792292 0.221912 0.787856
O O6 0.637631 0.179096 0.514316
O O7 0.734633 0.054413 0.728201
O O8 0.125757 0.342297 0.472378
O O9 0.191070 0.390692 0.753921
O O10 0.042233 0.288874 0.589801
O O11 0.911693 0.646758 0.809829
O O12 0.810445 0.523416 0.595552
O O13 0.000000 0.548040 0.750000
O O14 0.900355 0.809349 0.872002
O O15 0.856019 0.046525 0.442177
#
# Coordination Sequence:
#
# PCOD9274445 Si02
#       7
#     8   8   8   8   8   8   8
#     4  10  22  39  60  87 126 164 205 251 309 369
#     4  10  21  39  61  88 124 160 203 250 308 365
#     4  11  21  40  66  88 127 165 196 266 308 354
#     4   9  22  38  61  95 119 160 216 249 306 369
#     4  10  20  38  63  90 123 160 209 255 306 362
#     4  10  20  39  60  89 124 162 202 261 305 358
#     4  10  22  38  61  90 127 160 204 251 313 362
#
# _framework density 24.685054999999998
#
# number of rings (size 3 to 8) (size 9 to 14) (size 15 to 20)
#    0.000    2.000    2.857    0.000    0.000   11.429 
#    0.000    1.429    6.286    0.000    0.000    0.000 
#    0.000    0.000    0.000    0.000    0.000    0.000 
#
# Total GULP energy -156341.787188 kJ/mol
# GULP energy per Si atom -5583.635257 kJ/mol
# Density = 2.462887 g / cm^3
# Si number density = 24.685055 Si / 1000 Ang^3
#
#
#
# Elastic Constant Matrix: (Units=GPa)
#
#
# Indices 1 2 3 4 5 6 
#
# 1 171.3101 40.5268 22.4996 0.0000 15.8268 0.0000
# 2 40.5268 104.9562 8.0512 0.0000 14.8820 0.0000
# 3 22.4996 8.0512 45.4189 0.0000 13.7315 0.0000
# 4 0.0000 0.0000 0.0000 25.5871 0.0000 14.6012
# 5 15.8268 14.8820 13.7315 0.0000 29.5647 0.0000
# 6 0.0000 0.0000 0.0000 14.6012 0.0000 44.1651
#
#
#
# Elastic Compliance Matrix: (Units=1/GPa)
#
#
# Indices 1 2 3 4 5 6 
#
# 1 0.006832 -0.002252 -0.002585 0.000000 -0.001323 0.000000
# 2 -0.002252 0.011006 0.000553 0.000000 -0.004591 0.000000
# 3 -0.002585 0.000553 0.026601 0.000000 -0.011249 0.000000
# 4 0.000000 0.000000 0.000000 0.048170 0.000000 -0.015925
# 5 -0.001323 -0.004591 -0.011249 0.000000 0.042068 0.000000
# 6 0.000000 0.000000 0.000000 -0.015925 0.000000 0.027907
#
#
# Mechanical properties :
#
#
# Convention : Reuss Voigt Hill
#
# Bulk Modulus (GPa) = 27.87867 51.53782 39.70824
# Shear Modulus (GPa) = 27.30601 36.57054 31.93828
#
# Velocity S-wave (km/s) = 3.32953 3.85318 3.60089
# Velocity P-wave (km/s) = 5.10875 6.38118 5.78009
#
# Compressibility (1/GPa) = 0.03586972
#
# Stress axis : x y z
#
# Youngs Moduli (GPa) = 146.37191 90.85953 37.59263
#
# Poissons Ratio (x) = 0.20463 0.09718
# Poissons Ratio (y) = 0.32965 -0.02078
# Poissons Ratio (z) = 0.37840 -0.05022
#
# Static dielectric constant tensor:
#      x y z
#    x 2.052510 0.000000 -0.038390 
#    y 0.000000 1.954650 0.000000 
#    z -0.038390 0.000000 2.072630 
# 
# From -- ./inp_files/105805.got.cif
#   From: 2010.05.17/outbox.cif.g08.bks.cpg/sg15_53_cif.got.tgz:105805.got - 2010.06.03 18:47:42.
