data_PCOD9274981
_publ_section_title
;
Structure prediction by ZEFSAII (Michael W. Deem and Ramdas Pophale) SiO2 
 PCOD9274981
Probable space group: C 2/C
;
_chemical_formula_sum "Si O2"
_cell_formula_units_Z 48
_cell_length_a 20.785183
_cell_length_b 17.315478
_cell_length_c 10.258116
_cell_angle_alpha 90.000000
_cell_angle_beta 141.663984
_cell_angle_gamma 90.000000
_cell_volume 2290.014714
_symmetry_space_group_name_H-M "C 2/C"
_symmetry_group_IT_number 15
_symmetry_cell_setting 'monoclinic'
loop_
_space_group_symop_operation_xyz
x,y,z
-x,y,1/2-z
-x,-y,-z
x,-y,1/2+z
1/2+x,1/2+y,z
1/2-x,1/2+y,1/2-z
1/2-x,1/2-y,-z
1/2+x,1/2-y,1/2+z
loop_
_atom_site_type_symbol
_atom_site_label
_atom_site_fract_x
_atom_site_fract_y
_atom_site_fract_z
Si Si1 0.076768 0.785389 0.598051
Si Si2 0.500000 0.646440 0.250000
Si Si3 0.659334 0.481188 0.939858
Si Si4 0.129180 0.539766 0.098069
Si Si5 0.500000 0.395088 0.250000
Si Si6 0.942567 0.385668 0.462795
Si Si7 0.726189 0.129827 0.033317
O O1 0.022267 0.804832 0.652333
O O2 0.039565 0.703620 0.479673
O O3 0.200484 0.797670 0.820773
O O4 0.052338 0.845280 0.445235
O O5 0.400041 0.588868 0.078313
O O6 0.578554 0.549173 0.799829
O O7 0.693248 0.440740 0.860031
O O8 0.761347 0.519831 0.162062
O O9 0.092240 0.453859 0.994252
O O10 0.149272 0.604331 0.023316
O O11 0.042600 0.576543 0.053628
O O12 0.845677 0.373455 0.208498
#
# Coordination Sequence:
#
# PCOD9274981 Si02
#       7
#     8   4   8   8   4   8   8
#     4  11  23  41  62  95 127 160 201 263 310 358
#     4   9  22  36  66  91 126 160 214 255 302 358
#     4   9  20  37  60  92 119 165 204 248 306 370
#     4  10  20  40  61  87 120 162 206 250 301 370
#     4  11  22  40  62  89 134 160 196 257 320 366
#     4  10  23  40  60  91 123 162 208 252 308 366
#     4  10  20  38  67  88 117 163 211 255 297 363
#
# _framework density 20.960563
#
# number of rings (size 3 to 8) (size 9 to 14) (size 15 to 20)
#    0.000    2.000    1.667    1.000    4.667    2.000 
#    9.000    0.833    0.000    0.000    0.000    0.000 
#    0.000    0.000    0.000    0.000    0.000    0.000 
#
# Total GULP energy -133607.461405 kJ/mol
# GULP energy per Si atom -5566.977559 kJ/mol
# Density = 2.091286 g / cm^3
# Si number density = 20.960563 Si / 1000 Ang^3
#
#
#
# Elastic Constant Matrix: (Units=GPa)
#
#
# Indices 1 2 3 4 5 6 
#
# 1 57.8629 1.0843 0.5822 0.0000 15.5852 0.0000
# 2 1.0843 75.1627 11.8192 0.0000 16.2469 0.0000
# 3 0.5822 11.8192 77.8841 0.0000 10.4359 0.0000
# 4 0.0000 0.0000 0.0000 14.3867 0.0000 3.6881
# 5 15.5852 16.2469 10.4359 0.0000 28.3113 0.0000
# 6 0.0000 0.0000 0.0000 3.6881 0.0000 -13.4135
#
#
#
# Elastic Compliance Matrix: (Units=1/GPa)
#
#
# Indices 1 2 3 4 5 6 
#
# 1 0.020801 0.002371 0.001264 0.000000 -0.013278 0.000000
# 2 0.002371 0.015565 -0.001060 0.000000 -0.009847 0.000000
# 3 0.001264 -0.001060 0.013678 0.000000 -0.005129 0.000000
# 4 0.000000 0.000000 0.000000 0.064932 0.000000 0.017853
# 5 -0.013278 -0.009847 -0.005129 0.000000 0.050172 0.000000
# 6 0.000000 0.000000 0.000000 0.017853 0.000000 -0.069643
#
#
# Mechanical properties :
#
#
# Convention : Reuss Voigt Hill
#
# Bulk Modulus (GPa) = 18.11778 26.43124 22.27451
# Shear Modulus (GPa) = 45.97482 19.01852 32.49667
#
# Velocity S-wave (km/s) = 4.68845 3.01549 3.94175
# Velocity P-wave (km/s) = 6.16208 4.97610 5.60057
#
# Compressibility (1/GPa) = 0.05519440
#
# Stress axis : x y z
#
# Youngs Moduli (GPa) = 48.07372 64.24465 73.10832
#
# Poissons Ratio (x) = -0.15234 -0.09239
# Poissons Ratio (y) = -0.11399 0.07753
# Poissons Ratio (z) = -0.06075 0.06813
#
# Static dielectric constant tensor:
#      x y z
#    x 1.771270 0.000000 0.004390 
#    y 0.000000 1.848570 0.000000 
#    z 0.004390 0.000000 1.767640 
# 
# From -- ./inp_files/96229.got.cif
#   From: 2010.05.17/outbox.cif.g08.bks.cpg/sg15_49_cif.got.tgz:96229.got - 2010.06.03 18:47:42.
