data_PCOD9274673
_publ_section_title
;
Structure prediction by ZEFSAII (Michael W. Deem and Ramdas Pophale) SiO2 
 PCOD9274673
Probable space group: C 2/C
;
_chemical_formula_sum "Si O2"
_cell_formula_units_Z 52
_cell_length_a 11.434942
_cell_length_b 13.543184
_cell_length_c 20.210425
_cell_angle_alpha 90.000000
_cell_angle_beta 58.196122
_cell_angle_gamma 90.000000
_cell_volume 2659.965843
_symmetry_space_group_name_H-M "C 2/C"
_symmetry_group_IT_number 15
_symmetry_cell_setting 'monoclinic'
loop_
_space_group_symop_operation_xyz
x,y,z
-x,y,1/2-z
-x,-y,-z
x,-y,1/2+z
1/2+x,1/2+y,z
1/2-x,1/2+y,1/2-z
1/2-x,1/2-y,-z
1/2+x,1/2-y,1/2+z
loop_
_atom_site_type_symbol
_atom_site_label
_atom_site_fract_x
_atom_site_fract_y
_atom_site_fract_z
Si Si1 0.833126 0.852153 0.984533
Si Si2 0.691827 0.910571 0.903598
Si Si3 0.144164 0.223366 0.238232
Si Si4 0.831750 0.523151 0.402440
Si Si5 0.886178 0.387153 0.031741
Si Si6 0.351481 0.311979 0.606774
Si Si7 0.000000 0.583490 0.750000
O O1 0.817051 0.902601 0.917704
O O2 0.990621 0.839200 0.955949
O O3 0.750000 0.750000 0.000000
O O4 0.756912 0.925401 0.056698
O O5 0.732434 0.837323 0.832658
O O6 0.661046 0.026460 0.903865
O O7 0.551869 0.876724 0.982668
O O8 0.151191 0.211934 0.314606
O O9 0.000000 0.183206 0.250000
O O10 0.125816 0.339918 0.226666
O O11 0.857066 0.575186 0.465852
O O12 0.748863 0.599763 0.382300
O O13 0.964172 0.484118 0.323350
O O14 0.819035 0.285250 0.073375
#
# Coordination Sequence:
#
# PCOD9274673 Si02
#       7
#     8   8   8   8   8   8   4
#     4  11  19  39  65  91 118 163 225 262 304 368
#     4  10  20  38  64  93 119 164 219 263 308 371
#     4  10  22  38  65  94 126 157 215 280 311 379
#     4  11  25  40  61  94 134 169 213 266 326 397
#     4  10  24  38  67  88 131 177 213 259 322 399
#     4  12  23  39  64  95 131 166 213 270 329 384
#     4  10  24  42  62  92 126 172 218 268 324 380
#
# _framework density 19.549123000000002
#
# number of rings (size 3 to 8) (size 9 to 14) (size 15 to 20)
#    0.462    0.923    3.077    2.769    6.462    0.000 
#    0.000    0.000    1.692    0.000    0.000    0.000 
#    0.000    0.000    0.000    0.000    0.000    0.000 
#
# Total GULP energy -144945.231557 kJ/mol
# GULP energy per Si atom -5574.816598 kJ/mol
# Density = 1.950463 g / cm^3
# Si number density = 19.549123 Si / 1000 Ang^3
#
#
#
# Elastic Constant Matrix: (Units=GPa)
#
#
# Indices 1 2 3 4 5 6 
#
# 1 62.8916 37.5107 21.3334 0.0000 11.2466 0.0000
# 2 37.5107 130.5461 64.6424 0.0000 0.5664 0.0000
# 3 21.3334 64.6424 107.2890 0.0000 12.8863 0.0000
# 4 0.0000 0.0000 0.0000 37.4392 0.0000 0.6908
# 5 11.2466 0.5664 12.8863 0.0000 30.4477 0.0000
# 6 0.0000 0.0000 0.0000 0.6908 0.0000 26.5339
#
#
#
# Elastic Compliance Matrix: (Units=1/GPa)
#
#
# Indices 1 2 3 4 5 6 
#
# 1 0.020820 -0.006218 0.000544 0.000000 -0.007805 0.000000
# 2 -0.006218 0.012992 -0.007204 0.000000 0.005104 0.000000
# 3 0.000544 -0.007204 0.014288 0.000000 -0.006114 0.000000
# 4 0.000000 0.000000 0.000000 0.026723 0.000000 -0.000696
# 5 -0.007805 0.005104 -0.006114 0.000000 0.038219 0.000000
# 6 0.000000 0.000000 0.000000 -0.000696 0.000000 0.037706
#
#
# Mechanical properties :
#
#
# Convention : Reuss Voigt Hill
#
# Bulk Modulus (GPa) = 44.75722 60.85549 52.80635
# Shear Modulus (GPa) = 27.18109 30.70018 28.94064
#
# Velocity S-wave (km/s) = 3.73285 3.96714 3.85178
# Velocity P-wave (km/s) = 6.44386 7.22367 6.84488
#
# Compressibility (1/GPa) = 0.02234277
#
# Stress axis : x y z
#
# Youngs Moduli (GPa) = 48.03044 76.97025 69.99098
#
# Poissons Ratio (x) = 0.47859 -0.03806
# Poissons Ratio (y) = 0.29864 0.50425
# Poissons Ratio (z) = -0.02612 0.55453
#
# Static dielectric constant tensor:
#      x y z
#    x 1.706090 0.000000 0.009330 
#    y 0.000000 1.770710 0.000000 
#    z 0.009330 0.000000 1.701550 
# 
# From -- ./inp_files/237492.got.cif
#   From: 2010.05.17/outbox.cif.g08.bks.cpg/sg15_119_cif.got.tgz:237492.got - 2010.06.03 18:47:42.
