data_PCOD9274480
_publ_section_title
;
Structure prediction by ZEFSAII (Michael W. Deem and Ramdas Pophale) SiO2 
 PCOD9274480
Probable space group: C 2/C
;
_chemical_formula_sum "Si O2"
_cell_formula_units_Z 48
_cell_length_a 11.417054
_cell_length_b 14.236538
_cell_length_c 27.942359
_cell_angle_alpha 90.000000
_cell_angle_beta 30.163312
_cell_angle_gamma 90.000000
_cell_volume 2282.067903
_symmetry_space_group_name_H-M "C 2/C"
_symmetry_group_IT_number 15
_symmetry_cell_setting 'monoclinic'
loop_
_space_group_symop_operation_xyz
x,y,z
-x,y,1/2-z
-x,-y,-z
x,-y,1/2+z
1/2+x,1/2+y,z
1/2-x,1/2+y,1/2-z
1/2-x,1/2-y,-z
1/2+x,1/2-y,1/2+z
loop_
_atom_site_type_symbol
_atom_site_label
_atom_site_fract_x
_atom_site_fract_y
_atom_site_fract_z
Si Si1 0.265623 0.661303 0.546301
Si Si2 0.179194 0.676649 0.984289
Si Si3 0.150376 0.032367 0.062589
Si Si4 0.135150 0.827038 0.651928
Si Si5 0.225601 0.506987 0.640830
Si Si6 0.703585 0.201590 0.140152
O O1 0.194161 0.604327 0.524184
O O2 0.097762 0.739145 0.628721
O O3 0.298997 0.584340 0.576638
O O4 0.521287 0.703688 0.443096
O O5 0.905617 0.683183 0.070453
O O6 0.250000 0.750000 0.000000
O O7 0.234958 0.568791 0.973530
O O8 0.320328 0.716859 0.889579
O O9 0.099544 0.081120 0.131429
O O10 0.920631 0.015026 0.111630
O O11 0.000000 0.825560 0.750000
O O12 0.171504 0.407077 0.634353
O O13 0.000000 0.539100 0.750000
O O14 0.500000 0.213282 0.250000
#
# Coordination Sequence:
#
# PCOD9274480 Si02
#       6
#     8   8   8   8   8   8
#     4  10  20  39  63  88 119 157 202 254 304 361
#     4  11  23  41  62  88 121 162 204 252 305 364
#     4  11  22  39  64  89 121 162 204 254 308 361
#     4  11  25  42  60  90 128 163 202 250 311 376
#     4  10  20  38  63  93 120 156 205 253 303 366
#     4   9  19  35  58  84 115 152 197 243 295 360
#
# _framework density 21.033553999999999
#
# number of rings (size 3 to 8) (size 9 to 14) (size 15 to 20)
#    0.000    1.667    0.000    6.500    0.000    6.000 
#    0.000    3.333    0.000    0.000    0.000    0.000 
#    0.000    0.000    0.000    0.000    0.000    0.000 
#
# Total GULP energy -133927.394674 kJ/mol
# GULP energy per Si atom -5580.308111 kJ/mol
# Density = 2.098568 g / cm^3
# Si number density = 21.033554 Si / 1000 Ang^3
#
#
#
# Elastic Constant Matrix: (Units=GPa)
#
#
# Indices 1 2 3 4 5 6 
#
# 1 60.3447 50.7663 34.9039 0.0009 18.5586 -0.0002
# 2 50.7663 139.6591 60.4922 -0.0005 30.4144 0.0021
# 3 34.9039 60.4922 145.9194 0.0011 30.8002 -0.0045
# 4 0.0009 -0.0005 0.0011 31.6513 -0.0007 16.8293
# 5 18.5586 30.4144 30.8002 -0.0007 26.4797 0.0011
# 6 -0.0002 0.0021 -0.0045 16.8293 0.0011 52.5749
#
#
#
# Elastic Compliance Matrix: (Units=1/GPa)
#
#
# Indices 1 2 3 4 5 6 
#
# 1 0.025853 -0.006898 -0.001554 -0.000001 -0.008390 0.000001
# 2 -0.006898 0.011942 -0.001890 0.000001 -0.006684 -0.000001
# 3 -0.001554 -0.001890 0.009702 -0.000001 -0.008026 0.000001
# 4 -0.000001 0.000001 -0.000001 0.038075 0.000003 -0.012188
# 5 -0.008390 -0.006684 -0.008026 0.000003 0.060657 -0.000003
# 6 0.000001 -0.000001 0.000001 -0.012188 -0.000003 0.022922
#
#
# Mechanical properties :
#
#
# Convention : Reuss Voigt Hill
#
# Bulk Modulus (GPa) = 37.29307 70.91643 54.10475
# Shear Modulus (GPa) = 25.15461 35.45856 30.30659
#
# Velocity S-wave (km/s) = 3.46197 4.11032 3.80000
# Velocity P-wave (km/s) = 5.80940 7.50435 6.71060
#
# Compressibility (1/GPa) = 0.02681463
#
# Stress axis : x y z
#
# Youngs Moduli (GPa) = 38.68012 83.74016 103.06894
#
# Poissons Ratio (x) = 0.57761 0.16014
# Poissons Ratio (y) = 0.26680 0.19479
# Poissons Ratio (z) = 0.06010 0.15826
#
# Static dielectric constant tensor:
#      x y z
#    x 1.584700 0.000000 -0.142700 
#    y 0.000000 1.813370 0.000000 
#    z -0.142700 0.000000 1.657680 
# 
# From -- ./inp_files/292998.got.cif
#   From: 2010.05.17/outbox.cif.g08.bks.cpg/sg15_147_cif.got.tgz:292998.got - 2010.06.03 18:47:42.
