data_PCOD9274998
_publ_section_title
;
Structure prediction by ZEFSAII (Michael W. Deem and Ramdas Pophale) SiO2 
 PCOD9274998
Probable space group: C 2/C
;
_chemical_formula_sum "Si O2"
_cell_formula_units_Z 64
_cell_length_a 9.175111
_cell_length_b 29.280587
_cell_length_c 16.657240
_cell_angle_alpha 90.000000
_cell_angle_beta 135.287649
_cell_angle_gamma 90.000000
_cell_volume 3148.384942
_symmetry_space_group_name_H-M "C 2/C"
_symmetry_group_IT_number 15
_symmetry_cell_setting 'monoclinic'
loop_
_space_group_symop_operation_xyz
x,y,z
-x,y,1/2-z
-x,-y,-z
x,-y,1/2+z
1/2+x,1/2+y,z
1/2-x,1/2+y,1/2-z
1/2-x,1/2-y,-z
1/2+x,1/2-y,1/2+z
loop_
_atom_site_type_symbol
_atom_site_label
_atom_site_fract_x
_atom_site_fract_y
_atom_site_fract_z
Si Si1 0.278975 0.364362 0.146191
Si Si2 0.605524 0.821083 0.449633
Si Si3 0.098920 0.207218 0.937004
Si Si4 0.532979 0.388177 0.858342
Si Si5 0.919247 0.436295 0.548993
Si Si6 0.791103 0.635411 0.135218
Si Si7 0.724547 0.748609 0.361334
Si Si8 0.185951 0.982352 0.875942
O O1 0.500000 0.387782 0.250000
O O2 0.353187 0.321634 0.122665
O O3 0.134735 0.398014 0.038339
O O4 0.118470 0.344333 0.147904
O O5 0.664343 0.788481 0.399743
O O6 0.630074 0.788367 0.537450
O O7 0.780450 0.858529 0.533377
O O8 0.867925 0.227532 0.851489
O O9 0.250000 0.250000 0.000000
O O10 0.155959 0.171148 0.030377
O O11 0.500000 0.379668 0.750000
O O12 0.335416 0.378281 0.835472
O O13 0.593596 0.440811 0.890044
O O14 0.862572 0.408689 0.608719
O O15 0.778651 0.479707 0.470677
O O16 0.146221 0.457574 0.618251
O O17 0.000000 0.658420 0.250000
O O18 0.500000 0.728403 0.250000
O O19 0.000000 0.001795 0.750000
#
# Coordination Sequence:
#
# PCOD9274998 Si02
#       8
#     8   8   8   8   8   8   8   8
#     4  11  22  38  61  86 118 159 200 246 303 368
#     4  11  22  39  59  87 116 157 209 250 302 367
#     4  11  23  40  58  88 123 155 203 255 303 366
#     4  11  22  38  65  91 120 161 208 255 308 366
#     4  10  22  40  61  92 127 156 202 253 303 370
#     4  11  24  40  63  91 124 164 206 258 309 360
#     4  11  23  40  59  83 119 160 202 255 308 361
#     4  10  20  38  67  94 122 162 201 247 309 374
#
# _framework density 20.327883
#
# number of rings (size 3 to 8) (size 9 to 14) (size 15 to 20)
#    0.000    1.250    3.750    3.000    1.750    2.000 
#    0.000    0.000    0.000    0.750    0.000    0.000 
#    0.000    0.000    0.000    0.000    0.000    0.000 
#
# Total GULP energy -178486.793033 kJ/mol
# GULP energy per Si atom -5577.712282 kJ/mol
# Density = 2.028162 g / cm^3
# Si number density = 20.327883 Si / 1000 Ang^3
#
#
#
# Elastic Constant Matrix: (Units=GPa)
#
#
# Indices 1 2 3 4 5 6 
#
# 1 88.7762 16.7723 20.5785 0.0000 20.1926 0.0000
# 2 16.7723 77.6645 5.9894 0.0000 2.4295 0.0000
# 3 20.5785 5.9894 66.4875 0.0000 21.2548 0.0000
# 4 0.0000 0.0000 0.0000 20.1866 0.0000 8.7250
# 5 20.1926 2.4295 21.2548 0.0000 35.7353 0.0000
# 6 0.0000 0.0000 0.0000 8.7250 0.0000 10.3588
#
#
#
# Elastic Compliance Matrix: (Units=1/GPa)
#
#
# Indices 1 2 3 4 5 6 
#
# 1 0.013659 -0.002600 -0.001954 0.000000 -0.006379 0.000000
# 2 -0.002600 0.013462 -0.000723 0.000000 0.000983 0.000000
# 3 -0.001954 -0.000723 0.018944 0.000000 -0.010114 0.000000
# 4 0.000000 0.000000 0.000000 0.077895 0.000000 -0.065610
# 5 -0.006379 0.000983 -0.010114 0.000000 0.037537 0.000000
# 6 0.000000 0.000000 0.000000 -0.065610 0.000000 0.151798
#
#
# Mechanical properties :
#
#
# Convention : Reuss Voigt Hill
#
# Bulk Modulus (GPa) = 28.15892 35.51208 31.83550
# Shear Modulus (GPa) = 14.89485 25.89532 20.39508
#
# Velocity S-wave (km/s) = 2.70984 3.57302 3.17094
# Velocity P-wave (km/s) = 4.86553 5.87618 5.39458
#
# Compressibility (1/GPa) = 0.03551273
#
# Stress axis : x y z
#
# Youngs Moduli (GPa) = 73.20957 74.28177 52.78818
#
# Poissons Ratio (x) = 0.19310 0.10316
# Poissons Ratio (y) = 0.19032 0.03814
# Poissons Ratio (z) = 0.14306 0.05367
#
# Static dielectric constant tensor:
#      x y z
#    x 1.701950 0.000000 -0.004860 
#    y 0.000000 1.703110 0.000000 
#    z -0.004860 0.000000 1.784250 
# 
# From -- ./inp_files/194253.got.cif
#   From: 2010.05.17/outbox.cif.g08.bks.cpg/sg15_98_cif.got.tgz:194253.got - 2010.06.03 18:47:42.
