data_PCOD9274572
_publ_section_title
;
Structure prediction by ZEFSAII (Michael W. Deem and Ramdas Pophale) SiO2 
 PCOD9274572
Probable space group: C 2/C
;
_chemical_formula_sum "Si O2"
_cell_formula_units_Z 52
_cell_length_a 10.489420
_cell_length_b 16.818275
_cell_length_c 23.259686
_cell_angle_alpha 90.000000
_cell_angle_beta 36.966374
_cell_angle_gamma 90.000000
_cell_volume 2467.523811
_symmetry_space_group_name_H-M "C 2/C"
_symmetry_group_IT_number 15
_symmetry_cell_setting 'monoclinic'
loop_
_space_group_symop_operation_xyz
x,y,z
-x,y,1/2-z
-x,-y,-z
x,-y,1/2+z
1/2+x,1/2+y,z
1/2-x,1/2+y,1/2-z
1/2-x,1/2-y,-z
1/2+x,1/2-y,1/2+z
loop_
_atom_site_type_symbol
_atom_site_label
_atom_site_fract_x
_atom_site_fract_y
_atom_site_fract_z
Si Si1 0.730112 0.379857 0.634802
Si Si2 0.336893 0.002562 0.193068
Si Si3 0.148039 0.022681 0.592571
Si Si4 0.951677 0.080204 0.551328
Si Si5 0.000000 0.471449 0.250000
Si Si6 0.405647 0.740572 0.498938
Si Si7 0.253348 0.860115 0.151770
O O1 0.500000 0.371317 0.750000
O O2 0.858555 0.432050 0.635636
O O3 0.736188 0.434516 0.574203
O O4 0.814706 0.295325 0.583654
O O5 0.466369 0.020285 0.203615
O O6 0.372187 0.912872 0.157490
O O7 0.089770 0.994742 0.298381
O O8 0.265366 0.082730 0.592366
O O9 0.115864 0.068975 0.544795
O O10 0.714956 0.077629 0.663548
O O11 0.950900 0.153758 0.508228
O O12 0.000000 0.000000 0.500000
O O13 0.250000 0.750000 0.500000
O O14 0.627299 0.778825 0.399837
O O15 0.000000 0.849682 0.250000
#
# Coordination Sequence:
#
# PCOD9274572 Si02
#       7
#     8   8   8   8   4   8   8
#     4   9  19  38  63  92 122 159 208 257 308 373
#     4   8  16  34  63  92 118 164 206 244 308 376
#     4   8  17  37  63  83 121 163 205 248 302 380
#     4  11  24  40  58  86 122 161 207 253 311 377
#     4  10  20  38  64  86 120 160 202 256 308 366
#     4  12  25  38  62  96 126 161 210 268 319 367
#     4   9  19  39  60  87 123 164 204 252 310 372
#
# _framework density 21.073758000000002
#
# number of rings (size 3 to 8) (size 9 to 14) (size 15 to 20)
#    0.000    2.462    0.000    3.692    1.077    4.308 
#    1.385    0.000    0.000    0.000    0.000    0.000 
#    0.000    0.000    0.000    0.000    0.000    0.000 
#
# Total GULP energy -144847.134790 kJ/mol
# GULP energy per Si atom -5571.043646 kJ/mol
# Density = 2.102579 g / cm^3
# Si number density = 21.073758 Si / 1000 Ang^3
#
#
#
# Elastic Constant Matrix: (Units=GPa)
#
#
# Indices 1 2 3 4 5 6 
#
# 1 115.1043 52.7114 32.6780 -0.0052 20.6900 0.0000
# 2 52.7114 154.9942 41.2634 0.0076 13.8811 0.0103
# 3 32.6780 41.2634 85.1009 -0.0007 -2.7427 0.0205
# 4 -0.0052 0.0076 -0.0007 35.9363 0.0115 5.9218
# 5 20.6900 13.8811 -2.7427 0.0115 31.2554 0.0029
# 6 0.0000 0.0103 0.0205 5.9218 0.0029 3.2634
#
#
#
# Elastic Compliance Matrix: (Units=1/GPa)
#
#
# Indices 1 2 3 4 5 6 
#
# 1 0.012198 -0.002510 -0.003701 -0.000002 -0.007284 0.000042
# 2 -0.002510 0.008356 -0.003163 -0.000001 -0.002327 -0.000003
# 3 -0.003701 -0.003163 0.014872 0.000019 0.005160 -0.000122
# 4 -0.000002 -0.000001 0.000019 0.039698 -0.000004 -0.072037
# 5 -0.007284 -0.002327 0.005160 -0.000004 0.038302 -0.000052
# 6 0.000042 -0.000003 -0.000122 -0.072037 -0.000052 0.437154
#
#
# Mechanical properties :
#
#
# Convention : Reuss Voigt Hill
#
# Bulk Modulus (GPa) = 59.96408 67.61167 63.78788
# Shear Modulus (GPa) = 8.69736 29.32745 19.01240
#
# Velocity S-wave (km/s) = 2.03373 3.73454 3.00690
# Velocity P-wave (km/s) = 5.83360 7.12381 6.51075
#
# Compressibility (1/GPa) = 0.01667665
#
# Stress axis : x y z
#
# Youngs Moduli (GPa) = 81.98369 119.67477 67.24144
#
# Poissons Ratio (x) = 0.30044 0.24888
# Poissons Ratio (y) = 0.20582 0.21266
# Poissons Ratio (z) = 0.30344 0.37848
#
# Static dielectric constant tensor:
#      x y z
#    x 1.875120 0.000000 0.057980 
#    y 0.000000 1.727760 0.000000 
#    z 0.057980 0.000000 1.898020 
# 
# From -- ./inp_files/269909.got.cif
#   From: 2010.05.17/outbox.cif.g08.bks.cpg/sg15_135_cif.got.tgz:269909.got - 2010.06.03 18:47:42.
