data_PCOD9274463
_publ_section_title
;
Structure prediction by ZEFSAII (Michael W. Deem and Ramdas Pophale) SiO2 
 PCOD9274463
Probable space group: C 2/C
;
_chemical_formula_sum "Si O2"
_cell_formula_units_Z 32
_cell_length_a 21.822802
_cell_length_b 6.874782
_cell_length_c 13.762712
_cell_angle_alpha 90.000000
_cell_angle_beta 39.269168
_cell_angle_gamma 90.000000
_cell_volume 1306.931194
_symmetry_space_group_name_H-M "C 2/C"
_symmetry_group_IT_number 15
_symmetry_cell_setting 'monoclinic'
loop_
_space_group_symop_operation_xyz
x,y,z
-x,y,1/2-z
-x,-y,-z
x,-y,1/2+z
1/2+x,1/2+y,z
1/2-x,1/2+y,1/2-z
1/2-x,1/2-y,-z
1/2+x,1/2-y,1/2+z
loop_
_atom_site_type_symbol
_atom_site_label
_atom_site_fract_x
_atom_site_fract_y
_atom_site_fract_z
Si Si1 0.161875 0.889391 0.077056
Si Si2 0.150072 0.375758 0.416940
Si Si3 0.125813 0.012223 0.330424
Si Si4 0.919378 0.789443 0.933359
O O1 0.110736 0.938150 0.240236
O O2 0.169865 0.098865 0.012757
O O3 0.250000 0.750000 0.000000
O O4 0.116216 0.760218 0.048267
O O5 0.264373 0.428875 0.281249
O O6 0.099681 0.578325 0.499928
O O7 0.130114 0.243363 0.347056
O O8 0.061939 0.910318 0.491341
O O9 0.000000 0.783753 0.750000
#
# Coordination Sequence:
#
# PCOD9274463 Si02
#       4
#     8   8   8   8
#     4   9  22  40  66  95 122 164 217 262 305 376
#     4  10  20  38  63  91 124 165 210 261 309 371
#     4  10  20  39  64  87 123 166 213 255 314 371
#     4  11  24  40  61  95 132 163 204 263 321 370
#
# _framework density 24.484839000000001
#
# number of rings (size 3 to 8) (size 9 to 14) (size 15 to 20)
#    0.000    2.000    2.500    0.000    0.000   11.000 
#    0.000    2.500    0.000    0.000    0.000    0.000 
#    0.000    0.000    0.000    0.000    0.000    0.000 
#
# Total GULP energy -89205.847696 kJ/mol
# GULP energy per Si atom -5575.365481 kJ/mol
# Density = 2.442911 g / cm^3
# Si number density = 24.484839 Si / 1000 Ang^3
#
#
#
# Elastic Constant Matrix: (Units=GPa)
#
#
# Indices 1 2 3 4 5 6 
#
# 1 27.6288 35.0014 25.0187 -0.0001 5.5214 -0.0003
# 2 35.0014 196.3148 69.1683 -0.0016 12.1678 0.0002
# 3 25.0187 69.1683 189.2085 0.0002 22.9963 -0.0007
# 4 -0.0001 -0.0016 0.0002 51.5190 0.0008 8.8080
# 5 5.5214 12.1678 22.9963 0.0008 32.9621 -0.0003
# 6 -0.0003 0.0002 -0.0007 8.8080 -0.0003 16.5637
#
#
#
# Elastic Compliance Matrix: (Units=1/GPa)
#
#
# Indices 1 2 3 4 5 6 
#
# 1 0.049284 -0.007382 -0.003438 0.000000 -0.003132 0.000001
# 2 -0.007382 0.006969 -0.001540 0.000000 -0.000262 0.000000
# 3 -0.003438 -0.001540 0.006735 0.000000 -0.003554 0.000000
# 4 0.000000 0.000000 0.000000 0.021351 -0.000001 -0.011354
# 5 -0.003132 -0.000262 -0.003554 -0.000001 0.033439 0.000001
# 6 0.000001 0.000000 0.000000 -0.011354 0.000001 0.066411
#
#
# Mechanical properties :
#
#
# Convention : Reuss Voigt Hill
#
# Bulk Modulus (GPa) = 26.13026 74.61433 50.37229
# Shear Modulus (GPa) = 22.55674 39.13985 30.84830
#
# Velocity S-wave (km/s) = 3.03851 4.00250 3.55335
# Velocity P-wave (km/s) = 4.79638 7.20416 6.11985
#
# Compressibility (1/GPa) = 0.03826981
#
# Stress axis : x y z
#
# Youngs Moduli (GPa) = 20.29037 143.49990 148.48839
#
# Poissons Ratio (x) = 1.05927 0.51044
# Poissons Ratio (y) = 0.14978 0.22861
# Poissons Ratio (z) = 0.06975 0.22093
#
# Static dielectric constant tensor:
#      x y z
#    x 2.100740 0.000000 -0.091790 
#    y 0.000000 1.949550 0.000000 
#    z -0.091790 0.000000 1.928170 
# 
# From -- ./inp_files/158035.got.cif
#   From: 2010.05.17/outbox.cif.g08.bks.cpg/sg15_80_cif.got.tgz:158035.got - 2010.06.03 18:47:42.
