data_PCOD9274364
_publ_section_title
;
Structure prediction by ZEFSAII (Michael W. Deem and Ramdas Pophale) SiO2 
 PCOD9274364
Probable space group: C 2/C
;
_chemical_formula_sum "Si O2"
_cell_formula_units_Z 44
_cell_length_a 19.244073
_cell_length_b 5.151854
_cell_length_c 17.754814
_cell_angle_alpha 90.000000
_cell_angle_beta 114.158341
_cell_angle_gamma 90.000000
_cell_volume 1606.092219
_symmetry_space_group_name_H-M "C 2/C"
_symmetry_group_IT_number 15
_symmetry_cell_setting 'monoclinic'
loop_
_space_group_symop_operation_xyz
x,y,z
-x,y,1/2-z
-x,-y,-z
x,-y,1/2+z
1/2+x,1/2+y,z
1/2-x,1/2+y,1/2-z
1/2-x,1/2-y,-z
1/2+x,1/2-y,1/2+z
loop_
_atom_site_type_symbol
_atom_site_label
_atom_site_fract_x
_atom_site_fract_y
_atom_site_fract_z
Si Si1 0.338666 0.115642 0.458843
Si Si2 0.750000 0.250000 0.500000
Si Si3 0.800541 0.824567 0.282274
Si Si4 0.454148 0.748751 0.451213
Si Si5 0.611866 0.169762 0.324686
Si Si6 0.952346 0.179728 0.136493
O O1 0.258928 0.023348 0.455586
O O2 0.373509 0.828628 0.451156
O O3 0.333426 0.279021 0.380226
O O4 0.391549 0.263729 0.541709
O O5 0.685777 0.150905 0.411161
O O6 0.733642 0.610031 0.243364
O O7 0.861700 0.754068 0.245839
O O8 0.500000 0.500000 0.500000
O O9 0.466130 0.730262 0.367130
O O10 0.500000 0.000000 0.500000
O O11 0.559102 0.391004 0.338969
O O12 0.571708 0.893083 0.313819
#
# Coordination Sequence:
#
# PCOD9274364 Si02
#       6
#     8   4   8   8   8   8
#     4  10  23  40  70  97 137 173 223 281 337 401
#     4  10  20  38  62  96 122 166 224 262 320 376
#     4  12  26  43  61  97 143 183 217 272 351 418
#     4  10  20  39  65  98 126 165 219 278 330 384
#     4  11  23  39  63  94 133 169 222 273 330 393
#     4  10  22  40  66  94 123 170 226 280 320 389
#
# _framework density 27.395688
#
# number of rings (size 3 to 8) (size 9 to 14) (size 15 to 20)
#    0.000    1.455    1.818    4.364    2.545    4.364 
#    0.000    0.909    0.000    2.182    0.000    0.000 
#    0.000    0.000    0.000    0.000    0.000    0.000 
#
# Total GULP energy -122896.960786 kJ/mol
# GULP energy per Si atom -5586.225490 kJ/mol
# Density = 2.733333 g / cm^3
# Si number density = 27.395688 Si / 1000 Ang^3
#
#
#
# Elastic Constant Matrix: (Units=GPa)
#
#
# Indices 1 2 3 4 5 6 
#
# 1 37.2608 11.6305 17.1280 0.0000 -10.7688 0.0000
# 2 11.6305 128.5119 2.8747 0.0000 -5.5934 0.0000
# 3 17.1280 2.8747 163.5708 0.0000 12.8037 0.0000
# 4 0.0000 0.0000 0.0000 -5.7333 0.0000 -16.3992
# 5 -10.7688 -5.5934 12.8037 0.0000 55.2233 0.0000
# 6 0.0000 0.0000 0.0000 -16.3992 0.0000 44.8036
#
#
#
# Elastic Compliance Matrix: (Units=1/GPa)
#
#
# Indices 1 2 3 4 5 6 
#
# 1 0.031274 -0.002454 -0.003758 0.000000 0.006721 0.000000
# 2 -0.002454 0.008015 0.000092 0.000000 0.000312 0.000000
# 3 -0.003758 0.000092 0.006683 0.000000 -0.002273 0.000000
# 4 0.000000 0.000000 0.000000 -0.085209 0.000000 -0.031189
# 5 0.006721 0.000312 -0.002273 0.000000 0.019978 0.000000
# 6 0.000000 0.000000 0.000000 -0.031189 0.000000 0.010904
#
#
# Mechanical properties :
#
#
# Convention : Reuss Voigt Hill
#
# Bulk Modulus (GPa) = 29.64517 43.62333 36.63425
# Shear Modulus (GPa) = 330.51847 38.70607 184.61227
#
# Velocity S-wave (km/s) = 10.99582 3.76287 8.21789
# Velocity P-wave (km/s) = 13.11699 5.90228 10.17085
#
# Compressibility (1/GPa) = 0.03373230
#
# Stress axis : x y z
#
# Youngs Moduli (GPa) = 31.97586 124.76636 149.62531
#
# Poissons Ratio (x) = 0.30614 0.56225
# Poissons Ratio (y) = 0.07846 -0.01371
# Poissons Ratio (z) = 0.12016 -0.01143
#
# Static dielectric constant tensor:
#      x y z
#    x 2.125900 0.000000 0.037560 
#    y 0.000000 2.579480 0.000000 
#    z 0.037560 0.000000 2.172460 
# 
# From -- ./inp_files/212908.got.cif
#   From: 2010.05.17/outbox.cif.g08.bks.cpg/sg15_107_cif.got.tgz:212908.got - 2010.06.03 18:47:42.
