data_PCOD9274604
_publ_section_title
;
Structure prediction by ZEFSAII (Michael W. Deem and Ramdas Pophale) SiO2 
 PCOD9274604
Probable space group: C 2/C
;
_chemical_formula_sum "Si O2"
_cell_formula_units_Z 56
_cell_length_a 21.630522
_cell_length_b 9.762749
_cell_length_c 13.137975
_cell_angle_alpha 90.000000
_cell_angle_beta 62.656891
_cell_angle_gamma 90.000000
_cell_volume 2464.412919
_symmetry_space_group_name_H-M "C 2/C"
_symmetry_group_IT_number 15
_symmetry_cell_setting 'monoclinic'
loop_
_space_group_symop_operation_xyz
x,y,z
-x,y,1/2-z
-x,-y,-z
x,-y,1/2+z
1/2+x,1/2+y,z
1/2-x,1/2+y,1/2-z
1/2-x,1/2-y,-z
1/2+x,1/2-y,1/2+z
loop_
_atom_site_type_symbol
_atom_site_label
_atom_site_fract_x
_atom_site_fract_y
_atom_site_fract_z
Si Si1 0.099371 0.263903 0.386148
Si Si2 0.759349 0.816801 0.828123
Si Si3 0.987185 0.915474 0.880629
Si Si4 0.865301 0.562480 0.209397
Si Si5 0.557777 0.317571 0.293620
Si Si6 0.769663 0.538597 0.934290
Si Si7 0.363913 0.603348 0.951690
O O1 0.161533 0.184987 0.275947
O O2 0.024802 0.212065 0.402852
O O3 0.110964 0.424243 0.363091
O O4 0.107294 0.219912 0.496620
O O5 0.703414 0.873397 0.790775
O O6 0.749703 0.658789 0.869673
O O7 0.743422 0.900866 0.943731
O O8 0.000000 0.899053 0.750000
O O9 0.031134 0.052622 0.877389
O O10 0.907160 0.964268 0.947167
O O11 0.922583 0.680370 0.165138
O O12 0.844179 0.515442 0.340301
O O13 0.500000 0.294197 0.250000
O O14 0.623167 0.365264 0.176027
O O15 0.715950 0.416120 0.966263
#
# Coordination Sequence:
#
# PCOD9274604 Si02
#       7
#     8   8   8   8   8   8   8
#     4  11  22  37  61  92 120 157 210 244 299 369
#     4  10  22  40  57  91 131 153 200 248 313 361
#     4   9  20  39  63  85 119 161 203 250 294 355
#     4  11  24  39  63  90 125 161 195 255 307 363
#     4   9  22  42  61  85 122 158 199 253 306 354
#     4  10  22  39  63  90 122 164 196 254 303 359
#     4  10  20  38  64  89 115 159 212 246 293 364
#
# _framework density 22.723465000000001
#
# number of rings (size 3 to 8) (size 9 to 14) (size 15 to 20)
#    0.000    2.286    1.429    2.143    4.000    3.429 
#    0.000    2.857    0.000    0.000    0.000    0.000 
#    0.000    0.000    0.000    0.000    0.000    0.000 
#
# Total GULP energy -156360.779788 kJ/mol
# GULP energy per Si atom -5584.313564 kJ/mol
# Density = 2.267175 g / cm^3
# Si number density = 22.723465 Si / 1000 Ang^3
#
#
#
# Elastic Constant Matrix: (Units=GPa)
#
#
# Indices 1 2 3 4 5 6 
#
# 1 25.1573 31.7377 -5.8867 0.0000 1.1646 0.0000
# 2 31.7377 75.9601 10.0705 0.0000 -1.5106 0.0000
# 3 -5.8867 10.0705 85.6734 0.0000 -5.9183 0.0000
# 4 0.0000 0.0000 0.0000 26.7379 0.0000 -5.2433
# 5 1.1646 -1.5106 -5.9183 0.0000 21.5168 0.0000
# 6 0.0000 0.0000 0.0000 -5.2433 0.0000 18.7383
#
#
#
# Elastic Compliance Matrix: (Units=1/GPa)
#
#
# Indices 1 2 3 4 5 6 
#
# 1 0.094074 -0.040853 0.010924 0.000000 -0.004955 0.000000
# 2 -0.040853 0.031120 -0.006281 0.000000 0.002668 0.000000
# 3 0.010924 -0.006281 0.013343 0.000000 0.002638 0.000000
# 4 0.000000 0.000000 0.000000 0.039571 0.000000 0.011073
# 5 -0.004955 0.002668 0.002638 0.000000 0.047656 0.000000
# 6 0.000000 0.000000 0.000000 0.011073 0.000000 0.056465
#
#
# Mechanical properties :
#
#
# Convention : Reuss Voigt Hill
#
# Bulk Modulus (GPa) = 15.12460 28.73709 21.93085
# Shear Modulus (GPa) = 13.27352 23.45654 18.36503
#
# Velocity S-wave (km/s) = 2.41951 3.21637 2.84596
# Velocity P-wave (km/s) = 3.80470 5.14463 4.52454
#
# Compressibility (1/GPa) = 0.06611745
#
# Stress axis : x y z
#
# Youngs Moduli (GPa) = 10.62988 32.13386 74.94395
#
# Poissons Ratio (x) = 1.31277 -0.81867
# Poissons Ratio (y) = 0.43426 0.47070
# Poissons Ratio (z) = -0.11612 0.20182
#
# Static dielectric constant tensor:
#      x y z
#    x 1.831820 0.000000 0.002790 
#    y 0.000000 1.822490 0.000000 
#    z 0.002790 0.000000 1.919130 
# 
# From -- ./inp_files/172250.got.cif
#   From: 2010.05.17/outbox.cif.g08.bks.cpg/sg15_87_cif.got.tgz:172250.got - 2010.06.03 18:47:42.
