data_PCOD9274213
_publ_section_title
;
Structure prediction by ZEFSAII (Michael W. Deem and Ramdas Pophale) SiO2 
 PCOD9274213
Probable space group: C 2/C
;
_chemical_formula_sum "Si O2"
_cell_formula_units_Z 48
_cell_length_a 19.693277
_cell_length_b 7.787367
_cell_length_c 19.145979
_cell_angle_alpha 90.000000
_cell_angle_beta 141.128936
_cell_angle_gamma 90.000000
_cell_volume 1842.673309
_symmetry_space_group_name_H-M "C 2/C"
_symmetry_group_IT_number 15
_symmetry_cell_setting 'monoclinic'
loop_
_space_group_symop_operation_xyz
x,y,z
-x,y,1/2-z
-x,-y,-z
x,-y,1/2+z
1/2+x,1/2+y,z
1/2-x,1/2+y,1/2-z
1/2-x,1/2-y,-z
1/2+x,1/2-y,1/2+z
loop_
_atom_site_type_symbol
_atom_site_label
_atom_site_fract_x
_atom_site_fract_y
_atom_site_fract_z
Si Si1 0.826337 0.982918 0.581234
Si Si2 0.567301 0.018830 0.193657
Si Si3 0.500000 0.742679 0.750000
Si Si4 0.225136 0.351253 0.639525
Si Si5 0.383255 0.187702 0.881168
Si Si6 0.500000 0.765341 0.250000
Si Si7 0.691274 0.532036 0.090512
O O1 0.752367 0.894902 0.580136
O O2 0.923095 0.850016 0.641897
O O3 0.891714 0.134102 0.671174
O O4 0.787074 0.043294 0.474977
O O5 0.490786 0.154244 0.170034
O O6 0.690517 0.080837 0.282117
O O7 0.529143 0.922143 0.093616
O O8 0.573676 0.880324 0.260643
O O9 0.323818 0.293865 0.770534
O O10 0.183241 0.532240 0.636237
O O11 0.164153 0.165444 0.588882
O O12 0.396107 0.333047 0.950245
#
# Coordination Sequence:
#
# PCOD9274213 Si02
#       7
#     8   8   4   8   8   4   8
#     4  11  23  41  64  99 125 169 216 266 323 379
#     4  10  21  40  63  92 125 170 213 259 323 378
#     4  10  24  40  66  90 134 172 210 264 332 398
#     4  11  21  37  67  95 129 164 215 272 318 371
#     4  11  21  38  64  98 126 167 214 268 322 375
#     4  10  20  38  62  86 136 170 194 258 334 386
#     4  11  23  41  68 100 123 164 226 271 306 379
#
# _framework density 26.049109000000001
#
# number of rings (size 3 to 8) (size 9 to 14) (size 15 to 20)
#    0.000    1.333    6.667    1.500    0.000    2.667 
#    3.000    1.667    0.000    0.000    0.000    0.000 
#    0.000    0.000    0.000    0.000    0.000    0.000 
#
# Total GULP energy -133887.674144 kJ/mol
# GULP energy per Si atom -5578.653089 kJ/mol
# Density = 2.598982 g / cm^3
# Si number density = 26.049109 Si / 1000 Ang^3
#
#
#
# Elastic Constant Matrix: (Units=GPa)
#
#
# Indices 1 2 3 4 5 6 
#
# 1 88.7327 41.6948 16.5069 0.0000 -27.6035 0.0000
# 2 41.6948 144.2160 16.6959 0.0000 -13.6318 0.0000
# 3 16.5069 16.6959 99.4132 0.0000 -30.2803 0.0000
# 4 0.0000 0.0000 0.0000 25.6865 0.0000 -19.3243
# 5 -27.6035 -13.6318 -30.2803 0.0000 37.8991 0.0000
# 6 0.0000 0.0000 0.0000 -19.3243 0.0000 51.0582
#
#
#
# Elastic Compliance Matrix: (Units=1/GPa)
#
#
# Indices 1 2 3 4 5 6 
#
# 1 0.016460 -0.003816 0.001508 0.000000 0.011821 0.000000
# 2 -0.003816 0.008086 -0.000905 0.000000 -0.000594 0.000000
# 3 0.001508 -0.000905 0.013475 0.000000 0.011539 0.000000
# 4 0.000000 0.000000 0.000000 0.054429 0.000000 0.020600
# 5 0.011821 -0.000594 0.011539 0.000000 0.044001 0.000000
# 6 0.000000 0.000000 0.000000 0.020600 0.000000 0.027382
#
#
# Mechanical properties :
#
#
# Convention : Reuss Voigt Hill
#
# Bulk Modulus (GPa) = 31.65068 53.57300 42.61184
# Shear Modulus (GPa) = 27.65632 40.09304 33.87468
#
# Velocity S-wave (km/s) = 3.26191 3.92743 3.61004
# Velocity P-wave (km/s) = 5.13454 6.41694 5.81122
#
# Compressibility (1/GPa) = 0.03159490
#
# Stress axis : x y z
#
# Youngs Moduli (GPa) = 60.75501 123.67156 74.20923
#
# Poissons Ratio (x) = 0.47193 -0.11193
# Poissons Ratio (y) = 0.23184 0.06719
# Poissons Ratio (z) = -0.09164 0.11197
#
# Static dielectric constant tensor:
#      x y z
#    x 2.070460 0.000000 0.020840 
#    y 0.000000 2.100090 0.000000 
#    z 0.020840 0.000000 2.078330 
# 
# From -- ./inp_files/213567.got.cif
#   From: 2010.05.17/outbox.cif.g08.bks.cpg/sg15_107_cif.got.tgz:213567.got - 2010.06.03 18:47:42.
