data_PCOD9274083
_publ_section_title
;
Structure prediction by ZEFSAII (Michael W. Deem and Ramdas Pophale) SiO2 
 PCOD9274083
Probable space group: C 2/C
;
_chemical_formula_sum "Si O2"
_cell_formula_units_Z 48
_cell_length_a 26.862917
_cell_length_b 9.972541
_cell_length_c 9.106753
_cell_angle_alpha 90.000000
_cell_angle_beta 100.196232
_cell_angle_gamma 90.000000
_cell_volume 2401.093758
_symmetry_space_group_name_H-M "C 2/C"
_symmetry_group_IT_number 15
_symmetry_cell_setting 'monoclinic'
loop_
_space_group_symop_operation_xyz
x,y,z
-x,y,1/2-z
-x,-y,-z
x,-y,1/2+z
1/2+x,1/2+y,z
1/2-x,1/2+y,1/2-z
1/2-x,1/2-y,-z
1/2+x,1/2-y,1/2+z
loop_
_atom_site_type_symbol
_atom_site_label
_atom_site_fract_x
_atom_site_fract_y
_atom_site_fract_z
Si Si1 0.551615 0.348917 0.344838
Si Si2 0.345117 0.222770 0.741116
Si Si3 0.665018 0.286126 0.423522
Si Si4 0.220077 0.062943 0.445835
Si Si5 0.549632 0.640055 0.194373
Si Si6 0.288791 0.037510 0.217414
O O1 0.500000 0.288235 0.250000
O O2 0.605301 0.274376 0.355299
O O3 0.557991 0.492232 0.267031
O O4 0.543718 0.369901 0.515326
O O5 0.311038 0.304897 0.608318
O O6 0.402376 0.267623 0.749344
O O7 0.334917 0.065411 0.730214
O O8 0.329598 0.268274 0.897945
O O9 0.684896 0.434084 0.395229
O O10 0.697765 0.173690 0.359156
O O11 0.241424 0.039197 0.618372
O O12 0.270020 0.062394 0.371138
O O13 0.500000 0.693119 0.250000
#
# Coordination Sequence:
#
# PCOD9274083 Si02
#       6
#     8   8   8   8   8   8
#     4  10  20  38  62  88 118 152 195 249 300 351
#     4  11  23  41  62  91 121 161 202 245 301 355
#     4  11  23  42  61  89 127 156 200 253 297 352
#     4  12  22  41  64  86 122 163 205 247 291 353
#     4  10  20  38  61  89 120 148 196 252 295 355
#     4  12  24  41  60  88 126 163 199 249 294 354
#
# _framework density 19.99089
#
# number of rings (size 3 to 8) (size 9 to 14) (size 15 to 20)
#    0.000    1.000    5.000    4.000    0.000    0.000 
#    9.000    0.833    0.000    4.000    0.000    0.000 
#    0.000    0.000    0.000    0.000    0.000    0.000 
#
# Total GULP energy -134122.899844 kJ/mol
# GULP energy per Si atom -5588.454160 kJ/mol
# Density = 1.994539 g / cm^3
# Si number density = 19.990890 Si / 1000 Ang^3
#
#
#
# Elastic Constant Matrix: (Units=GPa)
#
#
# Indices 1 2 3 4 5 6 
#
# 1 67.0095 11.3812 20.5615 0.0000 5.7136 0.0000
# 2 11.3812 49.1513 4.0802 0.0000 -2.3420 0.0000
# 3 20.5615 4.0802 74.1584 0.0000 3.1157 0.0000
# 4 0.0000 0.0000 0.0000 19.5747 0.0000 4.9338
# 5 5.7136 -2.3420 3.1157 0.0000 33.9442 0.0000
# 6 0.0000 0.0000 0.0000 4.9338 0.0000 10.9530
#
#
#
# Elastic Compliance Matrix: (Units=1/GPa)
#
#
# Indices 1 2 3 4 5 6 
#
# 1 0.017152 -0.003734 -0.004435 0.000000 -0.002738 0.000000
# 2 -0.003734 0.021330 -0.000227 0.000000 0.002121 0.000000
# 3 -0.004435 -0.000227 0.014753 0.000000 -0.000623 0.000000
# 4 0.000000 0.000000 0.000000 0.057629 0.000000 -0.025959
# 5 -0.002738 0.002121 -0.000623 0.000000 0.030124 0.000000
# 6 0.000000 0.000000 0.000000 -0.025959 0.000000 0.102993
#
#
# Mechanical properties :
#
#
# Convention : Reuss Voigt Hill
#
# Bulk Modulus (GPa) = 27.44094 29.15167 28.29630
# Shear Modulus (GPa) = 18.32027 23.18079 20.75053
#
# Velocity S-wave (km/s) = 3.03054 3.40894 3.22529
# Velocity P-wave (km/s) = 5.09923 5.48713 5.29673
#
# Compressibility (1/GPa) = 0.03644190
#
# Stress axis : x y z
#
# Youngs Moduli (GPa) = 58.30313 46.88263 67.78256
#
# Poissons Ratio (x) = 0.17505 0.30062
# Poissons Ratio (y) = 0.21769 0.01542
# Poissons Ratio (z) = 0.25858 0.01066
#
# Static dielectric constant tensor:
#      x y z
#    x 1.712600 0.000000 0.030130 
#    y 0.000000 1.688570 0.000000 
#    z 0.030130 0.000000 1.702630 
# 
# From -- ./inp_files/64894.got.cif
#   From: 2010.05.17/outbox.cif.g08.bks.cpg/sg15_33_cif.got.tgz:64894.got - 2010.06.03 18:47:42.
