data_PCOD9274150
_publ_section_title
;
Structure prediction by ZEFSAII (Michael W. Deem and Ramdas Pophale) SiO2 
 PCOD9274150
Probable space group: C 2/C
;
_chemical_formula_sum "Si O2"
_cell_formula_units_Z 60
_cell_length_a 25.136178
_cell_length_b 14.414387
_cell_length_c 24.050878
_cell_angle_alpha 90.000000
_cell_angle_beta 17.855284
_cell_angle_gamma 90.000000
_cell_volume 2671.887325
_symmetry_space_group_name_H-M "C 2/C"
_symmetry_group_IT_number 15
_symmetry_cell_setting 'monoclinic'
loop_
_space_group_symop_operation_xyz
x,y,z
-x,y,1/2-z
-x,-y,-z
x,-y,1/2+z
1/2+x,1/2+y,z
1/2-x,1/2+y,1/2-z
1/2-x,1/2-y,-z
1/2+x,1/2-y,1/2+z
loop_
_atom_site_type_symbol
_atom_site_label
_atom_site_fract_x
_atom_site_fract_y
_atom_site_fract_z
Si Si1 0.428520 0.838094 0.510468
Si Si2 0.546631 0.524402 0.086181
Si Si3 0.360666 0.343313 0.554403
Si Si4 0.475564 0.364712 0.558802
Si Si5 0.043403 0.639285 0.015340
Si Si6 0.000000 0.487425 0.250000
Si Si7 0.141612 0.485681 0.998966
Si Si8 0.310189 0.351153 0.963253
O O1 0.447415 0.728051 0.490401
O O2 0.230224 0.861246 0.723888
O O3 0.554035 0.863612 0.437484
O O4 0.451056 0.890584 0.429571
O O5 0.598337 0.415644 0.035844
O O6 0.556384 0.550688 0.011369
O O7 0.346015 0.530126 0.305044
O O8 0.655651 0.603903 0.009349
O O9 0.489589 0.361453 0.478727
O O10 0.161552 0.361700 0.768147
O O11 0.880448 0.268049 0.031559
O O12 0.128498 0.551182 0.958529
O O13 0.035676 0.533794 0.154918
O O14 0.835169 0.420719 0.413335
O O15 0.500000 0.362171 0.750000
O O16 0.250000 0.250000 0.000000
#
# Coordination Sequence:
#
# PCOD9274150 Si02
#       8
#     8   8   8   8   8   4   8   8
#     4   9  20  35  57  92 130 170 212 264 325 397
#     4  11  23  39  64  91 130 172 218 271 331 394
#     4  10  20  38  61  95 128 168 212 268 331 399
#     4   9  20  34  59  92 132 167 211 260 325 399
#     4  10  20  38  63  91 128 169 215 269 333 397
#     4  12  26  44  66  92 130 174 222 276 328 384
#     4  11  23  40  63  92 129 172 224 274 332 393
#     4  12  26  45  67  93 128 173 221 273 326 386
#
# _framework density 22.456036999999998
#
# number of rings (size 3 to 8) (size 9 to 14) (size 15 to 20)
#    0.000    1.600    2.000    2.400    1.867    3.200 
#    0.000    0.000    1.467    2.400    0.000    0.000 
#    0.000    0.000    0.000    0.000    0.000    0.000 
#
# Total GULP energy -167224.372128 kJ/mol
# GULP energy per Si atom -5574.145738 kJ/mol
# Density = 2.240493 g / cm^3
# Si number density = 22.456037 Si / 1000 Ang^3
#
#
#
# Elastic Constant Matrix: (Units=GPa)
#
#
# Indices 1 2 3 4 5 6 
#
# 1 38.8684 19.6235 17.5066 -0.0134 -3.5347 0.0056
# 2 19.6235 80.6599 5.2387 0.0094 -10.6476 0.0034
# 3 17.5066 5.2387 80.0386 0.0272 -6.5035 -0.0074
# 4 -0.0134 0.0094 0.0272 24.3510 -0.0023 -5.5649
# 5 -3.5347 -10.6476 -6.5035 -0.0023 30.4431 -0.0025
# 6 0.0056 0.0034 -0.0074 -5.5649 -0.0025 32.0925
#
#
#
# Elastic Compliance Matrix: (Units=1/GPa)
#
#
# Indices 1 2 3 4 5 6 
#
# 1 0.032482 -0.007507 -0.006635 0.000028 -0.000272 -0.000002
# 2 -0.007507 0.014752 0.001043 -0.000011 0.004511 -0.000002
# 3 -0.006635 0.001043 0.014089 -0.000019 0.002604 0.000001
# 4 0.000028 -0.000011 -0.000019 0.042761 -0.000001 0.007415
# 5 -0.000272 0.004511 0.002604 -0.000001 0.034951 0.000003
# 6 -0.000002 -0.000002 0.000001 0.007415 0.000003 0.032446
#
#
# Mechanical properties :
#
#
# Convention : Reuss Voigt Hill
#
# Bulk Modulus (GPa) = 28.47134 31.58939 30.03036
# Shear Modulus (GPa) = 23.87927 27.85719 25.86823
#
# Velocity S-wave (km/s) = 3.26449 3.52592 3.39772
# Velocity P-wave (km/s) = 5.18800 5.53841 5.36607
#
# Compressibility (1/GPa) = 0.03512304
#
# Stress axis : x y z
#
# Youngs Moduli (GPa) = 30.78626 67.78797 70.97919
#
# Poissons Ratio (x) = 0.50891 0.47098
# Poissons Ratio (y) = 0.23112 -0.07403
# Poissons Ratio (z) = 0.20428 -0.07071
#
# Static dielectric constant tensor:
#      x y z
#    x 1.986630 0.000000 0.028280 
#    y 0.000000 1.824940 0.000010 
#    z 0.028280 0.000010 1.842420 
# 
# From -- ./inp_files/253522.got.cif
#   From: 2010.05.17/outbox.cif.g08.bks.cpg/sg15_127_cif.got.tgz:253522.got - 2010.06.03 18:47:42.
