data_PCOD9274839
_publ_section_title
;
Structure prediction by ZEFSAII (Michael W. Deem and Ramdas Pophale) SiO2 
 PCOD9274839
Probable space group: C 2/C
;
_chemical_formula_sum "Si O2"
_cell_formula_units_Z 28
_cell_length_a 10.038380
_cell_length_b 19.567801
_cell_length_c 5.389798
_cell_angle_alpha 90.000000
_cell_angle_beta 107.877331
_cell_angle_gamma 90.000000
_cell_volume 1007.593795
_symmetry_space_group_name_H-M "C 2/C"
_symmetry_group_IT_number 15
_symmetry_cell_setting 'monoclinic'
loop_
_space_group_symop_operation_xyz
x,y,z
-x,y,1/2-z
-x,-y,-z
x,-y,1/2+z
1/2+x,1/2+y,z
1/2-x,1/2+y,1/2-z
1/2-x,1/2-y,-z
1/2+x,1/2-y,1/2+z
loop_
_atom_site_type_symbol
_atom_site_label
_atom_site_fract_x
_atom_site_fract_y
_atom_site_fract_z
Si Si1 0.500000 0.436022 0.250000
Si Si2 0.824882 0.153263 0.353761
Si Si3 0.716035 0.024927 0.067405
Si Si4 0.088268 0.693882 0.562221
O O1 0.531719 0.384342 0.491368
O O2 0.364679 0.483830 0.176278
O O3 0.748201 0.104782 0.114548
O O4 0.855006 0.231753 0.318782
O O5 0.723213 0.152974 0.539061
O O6 0.645574 0.999047 0.277466
O O7 0.000000 0.668456 0.750000
O O8 0.000000 0.701826 0.250000
#
# Coordination Sequence:
#
# PCOD9274839 Si02
#       4
#     4   8   8   8
#     4  10  20  38  66 100 118 158 202 276 308 364
#     4  10  22  40  66  91 131 159 211 260 310 367
#     4  10  21  34  60  95 118 152 193 263 319 351
#     4  11  26  42  62  90 127 176 206 249 305 378
#
# _framework density 27.788979000000001
#
# number of rings (size 3 to 8) (size 9 to 14) (size 15 to 20)
#    0.000    1.714    1.429    3.429    6.000    9.143 
#    0.000    0.000    0.000   20.571    0.000    0.000 
#    0.000    0.000    0.000    0.000    0.000    0.000 
#
# Total GULP energy -78369.322887 kJ/mol
# GULP energy per Si atom -5597.808778 kJ/mol
# Density = 2.772573 g / cm^3
# Si number density = 27.788979 Si / 1000 Ang^3
#
#
#
# Elastic Constant Matrix: (Units=GPa)
#
#
# Indices 1 2 3 4 5 6 
#
# 1 127.9564 20.1056 33.4936 0.0000 -38.4644 0.0000
# 2 20.1056 103.7749 4.3923 0.0000 1.4899 0.0000
# 3 33.4936 4.3923 184.7412 0.0000 -21.8197 0.0000
# 4 0.0000 0.0000 0.0000 10.8518 0.0000 -23.2174
# 5 -38.4644 1.4899 -21.8197 0.0000 29.4852 0.0000
# 6 0.0000 0.0000 0.0000 -23.2174 0.0000 5.3772
#
#
#
# Elastic Compliance Matrix: (Units=1/GPa)
#
#
# Indices 1 2 3 4 5 6 
#
# 1 0.013698 -0.002896 -0.000314 0.000000 0.017784 0.000000
# 2 -0.002896 0.010272 -0.000248 0.000000 -0.004481 0.000000
# 3 -0.000314 -0.000248 0.005949 0.000000 0.004005 0.000000
# 4 0.000000 0.000000 0.000000 -0.011186 0.000000 -0.048300
# 5 0.017784 -0.004481 0.004005 0.000000 0.060305 0.000000
# 6 0.000000 0.000000 0.000000 -0.048300 0.000000 -0.022575
#
#
# Mechanical properties :
#
#
# Convention : Reuss Voigt Hill
#
# Bulk Modulus (GPa) = 43.47421 59.16174 51.31798
# Shear Modulus (GPa) = 70.37578 33.04157 51.70868
#
# Velocity S-wave (km/s) = 5.03786 3.45195 4.31833
# Velocity P-wave (km/s) = 7.03693 6.10113 6.58568
#
# Compressibility (1/GPa) = 0.02300214
#
# Stress axis : x y z
#
# Youngs Moduli (GPa) = 73.00165 97.35055 168.09901
#
# Poissons Ratio (x) = 0.28192 0.05282
# Poissons Ratio (y) = 0.21141 0.04176
# Poissons Ratio (z) = 0.02294 0.02418
#
# Static dielectric constant tensor:
#      x y z
#    x 2.212820 0.000000 -0.108770 
#    y 0.000000 2.066890 0.000000 
#    z -0.108770 0.000000 2.444280 
# 
# From -- ./inp_files/3512.got.cif
#   From: 2010.05.17/outbox.cif.g08.bks.cpg/sg15_2_cif.got.tgz:3512.got - 2010.06.03 18:47:42.
