data_PCOD9274705
_publ_section_title
;
Structure prediction by ZEFSAII (Michael W. Deem and Ramdas Pophale) SiO2 
 PCOD9274705
Probable space group: C 2/C
;
_chemical_formula_sum "Si O2"
_cell_formula_units_Z 60
_cell_length_a 5.516844
_cell_length_b 27.695407
_cell_length_c 16.742224
_cell_angle_alpha 90.000000
_cell_angle_beta 93.818681
_cell_angle_gamma 90.000000
_cell_volume 2552.385766
_symmetry_space_group_name_H-M "C 2/C"
_symmetry_group_IT_number 15
_symmetry_cell_setting 'monoclinic'
loop_
_space_group_symop_operation_xyz
x,y,z
-x,y,1/2-z
-x,-y,-z
x,-y,1/2+z
1/2+x,1/2+y,z
1/2-x,1/2+y,1/2-z
1/2-x,1/2-y,-z
1/2+x,1/2-y,1/2+z
loop_
_atom_site_type_symbol
_atom_site_label
_atom_site_fract_x
_atom_site_fract_y
_atom_site_fract_z
Si Si1 0.521188 0.573850 0.401796
Si Si2 0.500000 0.175783 0.750000
Si Si3 0.807564 0.748165 0.173760
Si Si4 0.877986 0.173544 0.889098
Si Si5 0.741576 0.994211 0.198088
Si Si6 0.811761 0.353410 0.673834
Si Si7 0.780679 0.082166 0.558994
Si Si8 0.613364 0.854901 0.526134
O O1 0.707799 0.540064 0.359070
O O2 0.313037 0.594637 0.339163
O O3 0.409582 0.556707 0.484482
O O4 0.652370 0.623278 0.427234
O O5 0.380766 0.210225 0.811979
O O6 0.727034 0.155334 0.806533
O O7 0.667827 0.697037 0.176170
O O8 0.000000 0.743871 0.250000
O O9 0.977764 0.775984 0.113815
O O10 0.059887 0.129214 0.913944
O O11 0.694295 0.179781 0.958515
O O12 0.500000 0.996199 0.250000
O O13 0.000000 0.989319 0.250000
O O14 0.731799 0.950072 0.135150
O O15 0.000000 0.357967 0.750000
O O16 0.944753 0.339516 0.594034
O O17 0.525494 0.101252 0.520496
#
# Coordination Sequence:
#
# PCOD9274705 Si02
#       8
#     8   4   8   8   8   8   8   8
#     4  10  25  46  73  98 139 192 235 292 365 434
#     4  10  20  38  64  94 136 186 230 292 346 428
#     4   9  20  38  60 100 139 182 235 288 357 421
#     4  10  21  40  66  99 136 186 236 286 364 422
#     4  12  31  48  75 117 144 183 246 307 369 439
#     4  10  23  42  71 102 139 185 238 299 361 428
#     4  10  24  49  69  99 142 193 234 291 367 437
#     4  10  23  41  69  97 135 190 232 289 361 426
#
# _framework density 23.507421000000001
#
# number of rings (size 3 to 8) (size 9 to 14) (size 15 to 20)
#    0.000    1.867    0.000    1.200    9.333    6.933 
#    1.200    9.333    0.000    0.000    0.000    0.000 
#    0.000    0.000    0.000    0.000    0.000    0.000 
#
# Total GULP energy -167115.434835 kJ/mol
# GULP energy per Si atom -5570.514494 kJ/mol
# Density = 2.345392 g / cm^3
# Si number density = 23.507421 Si / 1000 Ang^3
#
#
#
# Elastic Constant Matrix: (Units=GPa)
#
#
# Indices 1 2 3 4 5 6 
#
# 1 79.4316 16.2367 34.9532 0.0000 -17.0995 0.0000
# 2 16.2367 55.6922 33.2064 0.0000 -2.4236 0.0000
# 3 34.9532 33.2064 94.8570 0.0000 -11.2141 0.0000
# 4 0.0000 0.0000 0.0000 -35.4679 0.0000 -103.0490
# 5 -17.0995 -2.4236 -11.2141 0.0000 56.0090 0.0000
# 6 0.0000 0.0000 0.0000 -103.0490 0.0000 -135.2536
#
#
#
# Elastic Compliance Matrix: (Units=1/GPa)
#
#
# Indices 1 2 3 4 5 6 
#
# 1 0.015862 -0.001570 -0.004845 0.000000 0.003804 0.000000
# 2 -0.001570 0.022869 -0.007546 0.000000 -0.001000 0.000000
# 3 -0.004845 -0.007546 0.015113 0.000000 0.001220 0.000000
# 4 0.000000 0.000000 0.000000 0.023232 0.000000 -0.017700
# 5 0.003804 -0.001000 0.001220 0.000000 0.019217 0.000000
# 6 0.000000 0.000000 0.000000 -0.017700 0.000000 0.006092
#
#
# Mechanical properties :
#
#
# Convention : Reuss Voigt Hill
#
# Bulk Modulus (GPa) = 38.57657 44.30815 41.44236
# Shear Modulus (GPa) = 35.98503 -13.23688 11.37407
#
# Velocity S-wave (km/s) = 3.91678 -2.37553 2.20205
# Velocity P-wave (km/s) = 6.07461 3.37124 4.91254
#
# Compressibility (1/GPa) = 0.02592247
#
# Stress axis : x y z
#
# Youngs Moduli (GPa) = 63.04569 43.72735 66.16657
#
# Poissons Ratio (x) = 0.06864 0.32061
# Poissons Ratio (y) = 0.09896 0.49926
# Poissons Ratio (z) = 0.30548 0.32995
#
# Static dielectric constant tensor:
#      x y z
#    x 2.432370 0.000000 -0.049680 
#    y 0.000000 1.945740 0.000000 
#    z -0.049680 0.000000 1.944650 
# 
# From -- ./inp_files/186193.got.cif
#   From: 2010.05.17/outbox.cif.g08.bks.cpg/sg15_94_cif.got.tgz:186193.got - 2010.06.03 18:47:42.
