data_PCOD9274630
_publ_section_title
;
Structure prediction by ZEFSAII (Michael W. Deem and Ramdas Pophale) SiO2 
 PCOD9274630
Probable space group: C 2/C
;
_chemical_formula_sum "Si O2"
_cell_formula_units_Z 40
_cell_length_a 12.512137
_cell_length_b 11.166766
_cell_length_c 26.602412
_cell_angle_alpha 90.000000
_cell_angle_beta 152.979138
_cell_angle_gamma 90.000000
_cell_volume 1688.639318
_symmetry_space_group_name_H-M "C 2/C"
_symmetry_group_IT_number 15
_symmetry_cell_setting 'monoclinic'
loop_
_space_group_symop_operation_xyz
x,y,z
-x,y,1/2-z
-x,-y,-z
x,-y,1/2+z
1/2+x,1/2+y,z
1/2-x,1/2+y,1/2-z
1/2-x,1/2-y,-z
1/2+x,1/2-y,1/2+z
loop_
_atom_site_type_symbol
_atom_site_label
_atom_site_fract_x
_atom_site_fract_y
_atom_site_fract_z
Si Si1 0.129616 0.136847 0.087854
Si Si2 0.749441 0.890736 0.657394
Si Si3 0.369919 0.918082 0.142543
Si Si4 0.174998 0.017825 0.709628
Si Si5 0.756752 0.131547 0.592497
O O1 0.853512 0.162405 0.962932
O O2 0.244958 0.049187 0.094160
O O3 0.141728 0.059923 0.144591
O O4 0.263856 0.260645 0.135717
O O5 0.779504 0.923821 0.727592
O O6 0.487606 0.842626 0.539073
O O7 0.000000 0.828996 0.750000
O O8 0.749319 0.010476 0.622582
O O9 0.500000 0.907400 0.250000
O O10 0.581426 0.909544 0.192448
O O11 0.962909 0.103865 0.638617
#
# Coordination Sequence:
#
# PCOD9274630 Si02
#       5
#     8   8   8   8   8
#     4  10  21  40  64  93 129 171 218 264 321 390
#     4   9  20  39  59  88 131 169 210 273 324 375
#     4   9  20  39  59  88 131 169 210 273 324 375
#     4  10  20  38  64  90 126 168 212 270 324 376
#     4  10  21  40  64  93 129 171 218 264 321 390
#
# _framework density 23.687711
#
# number of rings (size 3 to 8) (size 9 to 14) (size 15 to 20)
#    0.000    2.400    0.000    1.200    0.000    8.000 
#    0.000   44.000    0.000    0.000    0.000    0.000 
#    0.000    0.000    0.000    0.000    0.000    0.000 
#
# Total GULP energy -111520.763706 kJ/mol
# GULP energy per Si atom -5576.038185 kJ/mol
# Density = 2.363380 g / cm^3
# Si number density = 23.687711 Si / 1000 Ang^3
#
#
#
# Elastic Constant Matrix: (Units=GPa)
#
#
# Indices 1 2 3 4 5 6 
#
# 1 141.5521 32.1152 66.8920 0.0006 42.2780 -0.0004
# 2 32.1152 57.2323 25.7078 -0.0008 32.1511 0.0008
# 3 66.8920 25.7078 208.5359 0.0018 40.6984 0.0003
# 4 0.0006 -0.0008 0.0018 21.0972 -0.0010 -28.4449
# 5 42.2780 32.1511 40.6984 -0.0010 44.4433 0.0008
# 6 -0.0004 0.0008 0.0003 -28.4449 0.0008 63.8289
#
#
#
# Elastic Compliance Matrix: (Units=1/GPa)
#
#
# Indices 1 2 3 4 5 6 
#
# 1 0.010356 -0.000655 -0.001718 -0.000001 -0.007804 0.000000
# 2 -0.000655 0.029547 0.000752 0.000000 -0.021440 0.000000
# 3 -0.001718 0.000752 0.006138 -0.000002 -0.004530 -0.000001
# 4 -0.000001 0.000000 -0.000002 0.118753 0.000004 0.052921
# 5 -0.007804 -0.021440 -0.004530 0.000004 0.049583 0.000001
# 6 0.000000 0.000000 -0.000001 0.052921 0.000001 0.039251
#
#
# Mechanical properties :
#
#
# Convention : Reuss Voigt Hill
#
# Bulk Modulus (GPa) = 23.36561 72.97226 48.16894
# Shear Modulus (GPa) = 18.44093 44.71423 31.57758
#
# Velocity S-wave (km/s) = 2.79319 4.34943 3.65510
# Velocity P-wave (km/s) = 4.50422 7.48974 6.17998
#
# Compressibility (1/GPa) = 0.04279795
#
# Stress axis : x y z
#
# Youngs Moduli (GPa) = 96.56266 33.84458 162.92254
#
# Poissons Ratio (x) = 0.02218 0.27991
# Poissons Ratio (y) = 0.06329 -0.12252
# Poissons Ratio (z) = 0.16590 -0.02545
#
# Static dielectric constant tensor:
#      x y z
#    x 1.943690 0.000000 0.044130 
#    y 0.000000 2.038260 0.000000 
#    z 0.044130 0.000000 1.974380 
# 
# From -- ./inp_files/292408.got.cif
#   From: 2010.05.17/outbox.cif.g08.bks.cpg/sg15_147_cif.got.tgz:292408.got - 2010.06.03 18:47:42.
