data_PCOD9274606
_publ_section_title
;
Structure prediction by ZEFSAII (Michael W. Deem and Ramdas Pophale) SiO2 
 PCOD9274606
Probable space group: C 2/C
;
_chemical_formula_sum "Si O2"
_cell_formula_units_Z 56
_cell_length_a 16.780084
_cell_length_b 15.685032
_cell_length_c 19.698859
_cell_angle_alpha 90.000000
_cell_angle_beta 146.704101
_cell_angle_gamma 90.000000
_cell_volume 2846.188632
_symmetry_space_group_name_H-M "C 2/C"
_symmetry_group_IT_number 15
_symmetry_cell_setting 'monoclinic'
loop_
_space_group_symop_operation_xyz
x,y,z
-x,y,1/2-z
-x,-y,-z
x,-y,1/2+z
1/2+x,1/2+y,z
1/2-x,1/2+y,1/2-z
1/2-x,1/2-y,-z
1/2+x,1/2-y,1/2+z
loop_
_atom_site_type_symbol
_atom_site_label
_atom_site_fract_x
_atom_site_fract_y
_atom_site_fract_z
Si Si1 0.692353 0.052858 0.170631
Si Si2 0.648898 0.457064 0.581118
Si Si3 0.596148 0.257397 0.550961
Si Si4 0.747127 0.244244 0.196816
Si Si5 0.647714 0.004338 0.892326
Si Si6 0.843307 0.299169 0.121955
Si Si7 0.643927 0.916055 0.033797
O O1 0.740255 0.024649 0.279131
O O2 0.765431 0.141958 0.200190
O O3 0.729838 0.977730 0.145735
O O4 0.521497 0.072755 0.056641
O O5 0.500000 0.500000 0.500000
O O6 0.641443 0.354569 0.571597
O O7 0.714251 0.490795 0.557824
O O8 0.424567 0.255608 0.411958
O O9 0.645588 0.234181 0.663958
O O10 0.673272 0.184216 0.561445
O O11 0.772460 0.296971 0.146156
O O12 0.500000 0.975015 0.750000
O O13 0.633150 0.106124 0.890485
O O14 0.659604 0.953796 0.970495
O O15 0.000000 0.259155 0.250000
O O16 0.750000 0.250000 0.000000
#
# Coordination Sequence:
#
# PCOD9274606 Si02
#       7
#     8   8   8   8   8   8   8
#     4   9  20  37  62  87 118 161 202 257 300 370
#     4  11  23  40  61  92 126 161 204 258 323 363
#     4  10  23  37  66  89 119 165 209 263 306 372
#     4  10  20  39  58  92 121 158 214 252 316 377
#     4  11  23  40  63  90 124 168 213 255 310 379
#     4  11  23  36  60  90 127 164 202 257 323 383
#     4  10  20  38  64  89 118 158 219 251 299 371
#
# _framework density 19.675435
#
# number of rings (size 3 to 8) (size 9 to 14) (size 15 to 20)
#    0.000    1.714    1.429    2.571    4.000    4.000 
#    0.000    0.714    0.000    0.000    0.000    0.000 
#    0.000    0.000    0.000    0.000    0.000    0.000 
#
# Total GULP energy -156150.525711 kJ/mol
# GULP energy per Si atom -5576.804490 kJ/mol
# Density = 1.963065 g / cm^3
# Si number density = 19.675435 Si / 1000 Ang^3
#
#
#
# Elastic Constant Matrix: (Units=GPa)
#
#
# Indices 1 2 3 4 5 6 
#
# 1 63.0028 37.1167 0.4112 0.0000 -9.0979 0.0000
# 2 37.1167 81.8967 27.4827 0.0002 -20.1408 0.0001
# 3 0.4112 27.4827 50.0158 0.0004 -10.7498 0.0002
# 4 0.0000 0.0002 0.0004 13.1368 0.0004 -2.7840
# 5 -9.0979 -20.1408 -10.7498 0.0004 25.8252 0.0002
# 6 0.0000 0.0001 0.0002 -2.7840 0.0002 23.5515
#
#
#
# Elastic Compliance Matrix: (Units=1/GPa)
#
#
# Indices 1 2 3 4 5 6 
#
# 1 0.023496 -0.012696 0.007066 0.000000 0.001317 0.000000
# 2 -0.012696 0.024048 -0.011027 0.000000 0.009693 0.000000
# 3 0.007066 -0.011027 0.027106 -0.000001 0.005173 0.000000
# 4 0.000000 0.000000 -0.000001 0.078078 -0.000002 0.009230
# 5 0.001317 0.009693 0.005173 -0.000002 0.048898 -0.000001
# 6 0.000000 0.000000 0.000000 0.009230 -0.000001 0.043551
#
#
# Mechanical properties :
#
#
# Convention : Reuss Voigt Hill
#
# Bulk Modulus (GPa) = 24.19094 36.10405 30.14749
# Shear Modulus (GPa) = 17.10746 21.16301 19.13523
#
# Velocity S-wave (km/s) = 2.95190 3.28320 3.12195
# Velocity P-wave (km/s) = 4.89285 5.72383 5.32457
#
# Compressibility (1/GPa) = 0.04133780
#
# Stress axis : x y z
#
# Youngs Moduli (GPa) = 42.56053 41.58271 36.89189
#
# Poissons Ratio (x) = 0.52793 -0.26068
# Poissons Ratio (y) = 0.54035 0.40679
# Poissons Ratio (z) = -0.30074 0.45851
#
# Static dielectric constant tensor:
#      x y z
#    x 1.708040 0.000000 0.047950 
#    y 0.000000 1.731990 0.000000 
#    z 0.047950 0.000000 1.716740 
# 
# From -- ./inp_files/105286.got.cif
#   From: 2010.05.17/outbox.cif.g08.bks.cpg/sg15_53_cif.got.tgz:105286.got - 2010.06.03 18:47:42.
