data_PCOD9274976
_publ_section_title
;
Structure prediction by ZEFSAII (Michael W. Deem and Ramdas Pophale) SiO2 
 PCOD9274976
Probable space group: C 2/C
;
_chemical_formula_sum "Si O2"
_cell_formula_units_Z 44
_cell_length_a 13.912252
_cell_length_b 17.945390
_cell_length_c 7.688064
_cell_angle_alpha 90.000000
_cell_angle_beta 98.264322
_cell_angle_gamma 90.000000
_cell_volume 1899.475998
_symmetry_space_group_name_H-M "C 2/C"
_symmetry_group_IT_number 15
_symmetry_cell_setting 'monoclinic'
loop_
_space_group_symop_operation_xyz
x,y,z
-x,y,1/2-z
-x,-y,-z
x,-y,1/2+z
1/2+x,1/2+y,z
1/2-x,1/2+y,1/2-z
1/2-x,1/2-y,-z
1/2+x,1/2-y,1/2+z
loop_
_atom_site_type_symbol
_atom_site_label
_atom_site_fract_x
_atom_site_fract_y
_atom_site_fract_z
Si Si1 0.189672 0.402172 0.123966
Si Si2 0.515963 0.820609 0.943697
Si Si3 0.500000 0.283618 0.750000
Si Si4 0.605459 0.429089 0.204342
Si Si5 0.145132 0.429838 0.515225
Si Si6 0.150236 0.097087 0.312914
O O1 0.305790 0.394794 0.161640
O O2 0.156648 0.407463 0.317027
O O3 0.162123 0.481920 0.033528
O O4 0.127135 0.339109 0.015780
O O5 0.500000 0.788398 0.750000
O O6 0.473668 0.767856 0.081083
O O7 0.455484 0.898014 0.940861
O O8 0.410404 0.335756 0.780353
O O9 0.500000 0.411658 0.250000
O O10 0.622461 0.518562 0.219188
O O11 0.617222 0.407572 0.006562
O O12 0.233940 0.395127 0.649572
#
# Coordination Sequence:
#
# PCOD9274976 Si02
#       6
#     8   8   4   8   8   8
#     4  10  20  38  67 102 132 170 221 287 332 380
#     4  12  25  45  65  95 135 185 226 268 331 403
#     4  12  26  46  64  94 146 180 220 264 336 406
#     4  10  20  39  68 103 131 163 224 281 331 387
#     4  10  20  40  68  99 135 169 224 281 333 385
#     4  10  23  40  70  99 132 176 214 281 337 389
#
# _framework density 23.164283999999999
#
# number of rings (size 3 to 8) (size 9 to 14) (size 15 to 20)
#    0.000    1.455    2.727    2.182    0.000    2.909 
#    0.000    0.909    0.000    0.000    0.000    0.000 
#    0.000    0.000    0.000    0.000    0.000    0.000 
#
# Total GULP energy -123232.263923 kJ/mol
# GULP energy per Si atom -5601.466542 kJ/mol
# Density = 2.311156 g / cm^3
# Si number density = 23.164284 Si / 1000 Ang^3
#
#
#
# Elastic Constant Matrix: (Units=GPa)
#
#
# Indices 1 2 3 4 5 6 
#
# 1 114.9096 14.9888 26.3045 0.0000 14.2602 0.0000
# 2 14.9888 37.3392 14.4125 0.0000 14.2659 0.0000
# 3 26.3045 14.4125 69.1070 0.0000 3.2471 0.0000
# 4 0.0000 0.0000 0.0000 -20.5913 0.0000 -21.3890
# 5 14.2602 14.2659 3.2471 0.0000 30.6677 0.0000
# 6 0.0000 0.0000 0.0000 -21.3890 0.0000 8.9223
#
#
#
# Elastic Compliance Matrix: (Units=1/GPa)
#
#
# Indices 1 2 3 4 5 6 
#
# 1 0.010116 -0.001325 -0.003399 0.000000 -0.003728 0.000000
# 2 -0.001325 0.035531 -0.006189 0.000000 -0.015257 0.000000
# 3 -0.003399 -0.006189 0.016930 0.000000 0.002667 0.000000
# 4 0.000000 0.000000 0.000000 -0.013915 0.000000 -0.033357
# 5 -0.003728 -0.015257 0.002667 0.000000 0.041156 0.000000
# 6 0.000000 0.000000 0.000000 -0.033357 0.000000 0.032113
#
#
# Mechanical properties :
#
#
# Convention : Reuss Voigt Hill
#
# Bulk Modulus (GPa) = 24.53906 36.97415 30.75661
# Shear Modulus (GPa) = 31.77826 14.84307 23.31067
#
# Velocity S-wave (km/s) = 3.70789 2.53410 3.17570
# Velocity P-wave (km/s) = 5.38031 4.95566 5.17234
#
# Compressibility (1/GPa) = 0.04075135
#
# Stress axis : x y z
#
# Youngs Moduli (GPa) = 98.85339 28.14424 59.06830
#
# Poissons Ratio (x) = 0.03728 0.20078
# Poissons Ratio (y) = 0.13093 0.36558
# Poissons Ratio (z) = 0.33601 0.17419
#
# Static dielectric constant tensor:
#      x y z
#    x 1.855490 0.000000 0.009490 
#    y 0.000000 1.825180 0.000000 
#    z 0.009490 0.000000 1.871110 
# 
# From -- ./inp_files/39309.got.cif
#   From: 2010.05.17/outbox.cif.g08.bks.cpg/sg15_20_cif.got.tgz:39309.got - 2010.06.03 18:47:42.
