data_PCOD9274010
_publ_section_title
;
Structure prediction by ZEFSAII (Michael W. Deem and Ramdas Pophale) SiO2 
 PCOD9274010
Probable space group: C 2/C
;
_chemical_formula_sum "Si O2"
_cell_formula_units_Z 52
_cell_length_a 6.074961
_cell_length_b 19.427363
_cell_length_c 21.662578
_cell_angle_alpha 90.000000
_cell_angle_beta 115.549613
_cell_angle_gamma 90.000000
_cell_volume 2306.620598
_symmetry_space_group_name_H-M "C 2/C"
_symmetry_group_IT_number 15
_symmetry_cell_setting 'monoclinic'
loop_
_space_group_symop_operation_xyz
x,y,z
-x,y,1/2-z
-x,-y,-z
x,-y,1/2+z
1/2+x,1/2+y,z
1/2-x,1/2+y,1/2-z
1/2-x,1/2-y,-z
1/2+x,1/2-y,1/2+z
loop_
_atom_site_type_symbol
_atom_site_label
_atom_site_fract_x
_atom_site_fract_y
_atom_site_fract_z
Si Si1 0.704506 0.805965 0.045425
Si Si2 0.312172 0.395023 0.383154
Si Si3 0.467764 0.935618 0.040170
Si Si4 0.092490 0.010964 0.831354
Si Si5 0.000000 0.301703 0.750000
Si Si6 0.487578 0.769098 0.345858
Si Si7 0.729909 0.359480 0.824335
O O1 0.525193 0.868481 0.006798
O O2 0.584299 0.773814 0.091465
O O3 0.958186 0.843811 0.090355
O O4 0.750000 0.750000 0.000000
O O5 0.373831 0.460014 0.347567
O O6 0.270843 0.423028 0.447765
O O7 0.093325 0.343047 0.338952
O O8 0.675119 0.944562 0.118632
O O9 0.500000 0.000000 0.000000
O O10 0.188999 0.932735 0.851948
O O11 0.000000 0.018957 0.750000
O O12 0.237794 0.253696 0.782523
O O13 0.037975 0.348182 0.692972
O O14 0.683981 0.708718 0.358632
O O15 0.500000 0.360088 0.750000
#
# Coordination Sequence:
#
# PCOD9274010 Si02
#       7
#     8   8   8   8   4   8   8
#     4  10  23  42  63  90 126 166 218 269 329 394
#     4  10  23  44  61  97 132 168 219 273 341 394
#     4  10  24  42  63  95 128 174 222 276 335 399
#     4  10  23  44  64  96 132 177 223 269 335 409
#     4  10  20  38  60  98 130 168 214 268 334 394
#     4  10  21  40  61  98 127 167 214 271 328 392
#     4   9  20  37  62  90 126 169 218 268 318 391
#
# _framework density 22.543804999999999
#
# number of rings (size 3 to 8) (size 9 to 14) (size 15 to 20)
#    0.000    2.154    0.000    0.923    0.000   14.154 
#   41.538    0.000    0.000    0.000    0.000    0.000 
#    0.000    0.000    0.000    0.000    0.000    0.000 
#
# Total GULP energy -145073.192993 kJ/mol
# GULP energy per Si atom -5579.738192 kJ/mol
# Density = 2.249249 g / cm^3
# Si number density = 22.543805 Si / 1000 Ang^3
#
#
#
# Elastic Constant Matrix: (Units=GPa)
#
#
# Indices 1 2 3 4 5 6 
#
# 1 104.2884 68.9000 33.5927 0.0000 -39.2377 0.0000
# 2 68.9000 173.6964 59.2113 0.0000 -45.9358 0.0000
# 3 33.5927 59.2113 64.6328 0.0000 -20.4751 0.0000
# 4 0.0000 0.0000 0.0000 42.8604 0.0000 -11.7064
# 5 -39.2377 -45.9358 -20.4751 0.0000 41.3435 0.0000
# 6 0.0000 0.0000 0.0000 -11.7064 0.0000 25.5505
#
#
#
# Elastic Compliance Matrix: (Units=1/GPa)
#
#
# Indices 1 2 3 4 5 6 
#
# 1 0.016442 -0.002649 -0.002500 0.000000 0.011423 0.000000
# 2 -0.002649 0.010604 -0.006407 0.000000 0.006095 0.000000
# 3 -0.002500 -0.006407 0.023288 0.000000 0.002042 0.000000
# 4 0.000000 0.000000 0.000000 0.026669 0.000000 0.012219
# 5 0.011423 0.006095 0.002042 0.000000 0.042812 0.000000
# 6 0.000000 0.000000 0.000000 0.012219 0.000000 0.044736
#
#
# Mechanical properties :
#
#
# Convention : Reuss Voigt Hill
#
# Bulk Modulus (GPa) = 36.73527 74.00285 55.36906
# Shear Modulus (GPa) = 25.41469 34.01177 29.71323
#
# Velocity S-wave (km/s) = 3.36124 3.88841 3.63440
# Velocity P-wave (km/s) = 5.60307 7.28403 6.49813
#
# Compressibility (1/GPa) = 0.02722179
#
# Stress axis : x y z
#
# Youngs Moduli (GPa) = 60.81959 94.30696 42.94102
#
# Poissons Ratio (x) = 0.24979 0.10737
# Poissons Ratio (y) = 0.16109 0.27511
# Poissons Ratio (z) = 0.15207 0.60421
#
# Static dielectric constant tensor:
#      x y z
#    x 1.890750 0.000000 0.003260 
#    y 0.000000 1.885680 0.000000 
#    z 0.003260 0.000000 1.897490 
# 
# From -- ./inp_files/227596.got.cif
#   From: 2010.05.17/outbox.cif.g08.bks.cpg/sg15_114_cif.got.tgz:227596.got - 2010.06.03 18:47:42.
