data_PCOD9274969
_publ_section_title
;
Structure prediction by ZEFSAII (Michael W. Deem and Ramdas Pophale) SiO2 
 PCOD9274969
Probable space group: C 2/C
;
_chemical_formula_sum "Si O2"
_cell_formula_units_Z 60
_cell_length_a 10.716732
_cell_length_b 21.787553
_cell_length_c 21.631915
_cell_angle_alpha 90.000000
_cell_angle_beta 36.873403
_cell_angle_gamma 90.000000
_cell_volume 3030.766439
_symmetry_space_group_name_H-M "C 2/C"
_symmetry_group_IT_number 15
_symmetry_cell_setting 'monoclinic'
loop_
_space_group_symop_operation_xyz
x,y,z
-x,y,1/2-z
-x,-y,-z
x,-y,1/2+z
1/2+x,1/2+y,z
1/2-x,1/2+y,1/2-z
1/2-x,1/2-y,-z
1/2+x,1/2-y,1/2+z
loop_
_atom_site_type_symbol
_atom_site_label
_atom_site_fract_x
_atom_site_fract_y
_atom_site_fract_z
Si Si1 0.360243 0.922164 0.164726
Si Si2 0.703193 0.864025 0.711510
Si Si3 0.273005 0.295593 0.808187
Si Si4 0.959200 0.072175 0.006335
Si Si5 0.271760 0.157876 0.811289
Si Si6 0.458658 0.039297 0.386257
Si Si7 0.868926 0.412952 0.562547
Si Si8 0.500000 0.507048 0.250000
O O1 0.290480 0.865861 0.233833
O O2 0.507096 0.968908 0.145380
O O3 0.160398 0.962997 0.223057
O O4 0.505040 0.904259 0.049860
O O5 0.500000 0.845870 0.750000
O O6 0.772263 0.815242 0.736106
O O7 0.885465 0.889620 0.595625
O O8 0.627151 0.922247 0.781678
O O9 0.500000 0.295645 0.750000
O O10 0.184490 0.227003 0.849146
O O11 0.153630 0.348254 0.893321
O O12 0.757886 0.069723 0.042540
O O13 0.138735 0.108697 0.901387
O O14 0.000000 0.000000 0.000000
O O15 0.500000 0.159837 0.750000
O O16 0.498234 0.044898 0.443303
O O17 0.644201 0.447608 0.650729
#
# Coordination Sequence:
#
# PCOD9274969 Si02
#       8
#     8   8   8   8   8   8   8   4
#     4  11  23  37  63  94 133 156 209 261 325 367
#     4   9  20  41  62  90 119 163 212 258 313 383
#     4  10  22  43  66  86 125 170 220 261 307 378
#     4  11  22  37  64  88 124 168 204 252 330 375
#     4  11  26  43  56  91 130 166 211 262 305 378
#     4   9  19  37  60  92 127 151 202 265 314 379
#     4  10  21  39  64  96 122 165 209 261 317 373
#     4  10  20  38  66  98 126 158 204 266 322 372
#
# _framework density 19.796972
#
# number of rings (size 3 to 8) (size 9 to 14) (size 15 to 20)
#    0.000    1.867    0.667    3.200    3.733    4.267 
#    1.200    8.667    0.000    0.000    0.000    0.000 
#    0.000    0.000    0.000    0.000    0.000    0.000 
#
# Total GULP energy -167361.967267 kJ/mol
# GULP energy per Si atom -5578.732242 kJ/mol
# Density = 1.975191 g / cm^3
# Si number density = 19.796972 Si / 1000 Ang^3
#
#
#
# Elastic Constant Matrix: (Units=GPa)
#
#
# Indices 1 2 3 4 5 6 
#
# 1 73.5418 29.6714 37.2605 -0.0016 14.9485 -0.0035
# 2 29.6714 126.1294 44.3880 0.0023 8.2561 -0.0121
# 3 37.2605 44.3880 120.7989 0.0324 14.8386 -0.0381
# 4 -0.0016 0.0023 0.0324 21.6461 0.0113 1.7195
# 5 14.9485 8.2561 14.8386 0.0113 18.0800 0.0031
# 6 -0.0035 -0.0121 -0.0381 1.7195 0.0031 78.7562
#
#
#
# Elastic Compliance Matrix: (Units=1/GPa)
#
#
# Indices 1 2 3 4 5 6 
#
# 1 0.018660 -0.002422 -0.003455 0.000013 -0.011487 -0.000001
# 2 -0.002422 0.009461 -0.002719 0.000003 -0.000086 0.000000
# 3 -0.003455 -0.002719 0.010943 -0.000014 -0.004883 0.000005
# 4 0.000013 0.000003 -0.000014 0.046278 -0.000029 -0.001010
# 5 -0.011487 -0.000086 -0.004883 -0.000029 0.068854 -0.000005
# 6 -0.000001 0.000000 0.000005 -0.001010 -0.000005 0.012719
#
#
# Mechanical properties :
#
#
# Convention : Reuss Voigt Hill
#
# Bulk Modulus (GPa) = 45.71948 60.34555 53.03252
# Shear Modulus (GPa) = 26.12379 37.63981 31.88180
#
# Velocity S-wave (km/s) = 3.63655 4.36511 4.01738
# Velocity P-wave (km/s) = 6.38569 7.48024 6.95453
#
# Compressibility (1/GPa) = 0.02187251
#
# Stress axis : x y z
#
# Youngs Moduli (GPa) = 53.59021 105.70226 91.38568
#
# Poissons Ratio (x) = 0.25601 0.31571
# Poissons Ratio (y) = 0.12980 0.24844
# Poissons Ratio (z) = 0.18514 0.28737
#
# Static dielectric constant tensor:
#      x y z
#    x 1.750930 -0.000010 -0.048650 
#    y -0.000010 1.702500 0.000170 
#    z -0.048650 0.000170 2.894190 
# 
# From -- ./inp_files/271001.got.cif
#   From: 2010.05.17/outbox.cif.g08.bks.cpg/sg15_136_cif.got.tgz:271001.got - 2010.06.03 18:47:42.
