data_PCOD9274838
_publ_section_title
;
Structure prediction by ZEFSAII (Michael W. Deem and Ramdas Pophale) SiO2 
 PCOD9274838
Probable space group: C 2/C
;
_chemical_formula_sum "Si O2"
_cell_formula_units_Z 60
_cell_length_a 10.906151
_cell_length_b 14.702619
_cell_length_c 17.333672
_cell_angle_alpha 90.000000
_cell_angle_beta 103.711625
_cell_angle_gamma 90.000000
_cell_volume 2700.225640
_symmetry_space_group_name_H-M "C 2/C"
_symmetry_group_IT_number 15
_symmetry_cell_setting 'monoclinic'
loop_
_space_group_symop_operation_xyz
x,y,z
-x,y,1/2-z
-x,-y,-z
x,-y,1/2+z
1/2+x,1/2+y,z
1/2-x,1/2+y,1/2-z
1/2-x,1/2-y,-z
1/2+x,1/2-y,1/2+z
loop_
_atom_site_type_symbol
_atom_site_label
_atom_site_fract_x
_atom_site_fract_y
_atom_site_fract_z
Si Si1 0.002682 0.203960 0.953953
Si Si2 0.732642 0.101672 0.915099
Si Si3 0.409701 0.172645 0.307588
Si Si4 0.245053 0.352500 0.242608
Si Si5 0.804064 0.037070 0.186147
Si Si6 0.375761 0.522101 0.531902
Si Si7 0.992943 0.708274 0.888481
Si Si8 0.000000 0.833803 0.750000
O O1 0.860572 0.161976 0.944894
O O2 0.987764 0.282928 0.889392
O O3 0.097875 0.125477 0.940512
O O4 0.049899 0.237019 0.043573
O O5 0.709295 0.105711 0.820433
O O6 0.608407 0.145705 0.932473
O O7 0.762849 0.004780 0.957545
O O8 0.500000 0.148994 0.250000
O O9 0.317952 0.257247 0.266779
O O10 0.331575 0.085203 0.325781
O O11 0.321277 0.434017 0.215433
O O12 0.123382 0.339273 0.170982
O O13 0.887546 0.099739 0.254454
O O14 0.853417 0.037435 0.105322
O O15 0.500000 0.500000 0.500000
O O16 0.043638 0.773785 0.828056
#
# Coordination Sequence:
#
# PCOD9274838 Si02
#       8
#     8   8   8   8   8   8   8   4
#     4  10  22  38  70  98 139 187 241 292 352 420
#     4  10  20  38  65  98 142 181 231 294 356 417
#     4  11  24  48  69  99 144 194 237 296 357 428
#     4  11  25  41  66 103 141 182 238 291 357 422
#     4  12  26  42  69 104 137 183 236 294 357 421
#     4  10  22  40  66 105 134 177 238 293 351 414
#     4  12  21  43  65 105 140 184 233 294 358 431
#     4  12  22  38  72  98 134 176 238 288 348 422
#
# _framework density 22.220364
#
# number of rings (size 3 to 8) (size 9 to 14) (size 15 to 20)
#    0.000    1.067    2.667    4.400    8.400    1.067 
#    0.000    6.667    0.000    0.000    0.000    0.000 
#    0.000    0.000    0.000    0.000    0.000    0.000 
#
# Total GULP energy -167526.644493 kJ/mol
# GULP energy per Si atom -5584.221483 kJ/mol
# Density = 2.216979 g / cm^3
# Si number density = 22.220364 Si / 1000 Ang^3
#
#
#
# Elastic Constant Matrix: (Units=GPa)
#
#
# Indices 1 2 3 4 5 6 
#
# 1 53.4955 29.4194 19.9457 0.0000 -8.2911 0.0000
# 2 29.4194 59.5019 34.9305 0.0000 1.6971 0.0000
# 3 19.9457 34.9305 91.5233 0.0000 1.4677 0.0000
# 4 0.0000 0.0000 0.0000 -4.4330 0.0000 -27.0144
# 5 -8.2911 1.6971 1.4677 0.0000 41.3781 0.0000
# 6 0.0000 0.0000 0.0000 -27.0144 0.0000 4.2545
#
#
#
# Elastic Compliance Matrix: (Units=1/GPa)
#
#
# Indices 1 2 3 4 5 6 
#
# 1 0.027156 -0.012974 -0.001063 0.000000 0.006011 0.000000
# 2 -0.012974 0.027872 -0.007755 0.000000 -0.003468 0.000000
# 3 -0.001063 -0.007755 0.014124 0.000000 -0.000396 0.000000
# 4 0.000000 0.000000 0.000000 -0.005683 0.000000 -0.036085
# 5 0.006011 -0.003468 -0.000396 0.000000 0.025528 0.000000
# 6 0.000000 0.000000 0.000000 -0.036085 0.000000 0.005921
#
#
# Mechanical properties :
#
#
# Convention : Reuss Voigt Hill
#
# Bulk Modulus (GPa) = 39.11009 41.45688 40.28349
# Shear Modulus (GPa) = 34.00778 16.25492 25.13135
#
# Velocity S-wave (km/s) = 3.91638 2.70762 3.36669
# Velocity P-wave (km/s) = 6.17170 5.33597 5.76899
#
# Compressibility (1/GPa) = 0.02556885
#
# Stress axis : x y z
#
# Youngs Moduli (GPa) = 36.82392 35.87794 70.80285
#
# Poissons Ratio (x) = 0.46549 0.07525
# Poissons Ratio (y) = 0.47777 0.54904
# Poissons Ratio (z) = 0.03914 0.27822
#
# Static dielectric constant tensor:
#      x y z
#    x 1.900850 0.000000 -0.025270 
#    y 0.000000 1.901740 0.000000 
#    z -0.025270 0.000000 1.831990 
# 
# From -- ./inp_files/198402.got.cif
#   From: 2010.05.17/outbox.cif.g08.bks.cpg/sg15_100_cif.got.tgz:198402.got - 2010.06.03 18:47:42.
