data_PCOD9274809
_publ_section_title
;
Structure prediction by ZEFSAII (Michael W. Deem and Ramdas Pophale) SiO2 
 PCOD9274809
Probable space group: C 2/C
;
_chemical_formula_sum "Si O2"
_cell_formula_units_Z 56
_cell_length_a 8.552970
_cell_length_b 24.756996
_cell_length_c 12.978802
_cell_angle_alpha 90.000000
_cell_angle_beta 111.048969
_cell_angle_gamma 90.000000
_cell_volume 2564.829947
_symmetry_space_group_name_H-M "C 2/C"
_symmetry_group_IT_number 15
_symmetry_cell_setting 'monoclinic'
loop_
_space_group_symop_operation_xyz
x,y,z
-x,y,1/2-z
-x,-y,-z
x,-y,1/2+z
1/2+x,1/2+y,z
1/2-x,1/2+y,1/2-z
1/2-x,1/2-y,-z
1/2+x,1/2-y,1/2+z
loop_
_atom_site_type_symbol
_atom_site_label
_atom_site_fract_x
_atom_site_fract_y
_atom_site_fract_z
Si Si1 0.521891 0.437892 0.378768
Si Si2 0.851966 0.365616 0.972945
Si Si3 0.500000 0.788450 0.750000
Si Si4 0.468240 0.655046 0.008352
Si Si5 0.221573 0.521103 0.960566
Si Si6 0.060437 0.265946 0.977689
Si Si7 0.764040 0.126534 0.279016
Si Si8 0.500000 0.965646 0.750000
O O1 0.500000 0.440553 0.250000
O O2 0.540208 0.376180 0.425491
O O3 0.678114 0.475604 0.450887
O O4 0.360122 0.458987 0.407340
O O5 0.751577 0.355951 0.842527
O O6 0.011751 0.326126 0.003209
O O7 0.731082 0.348265 0.036470
O O8 0.852146 0.429767 0.988982
O O9 0.466726 0.756779 0.845821
O O10 0.346713 0.828547 0.687628
O O11 0.502271 0.717764 0.036287
O O12 0.559393 0.622678 0.123284
O O13 0.063178 0.499284 0.860980
O O14 0.250000 0.250000 0.000000
O O15 0.658578 0.072071 0.262733
#
# Coordination Sequence:
#
# PCOD9274809 Si02
#       8
#     8   8   4   8   8   8   8   4
#     4  10  23  41  63  96 134 184 225 275 347 414
#     4  10  24  40  65  95 130 176 223 278 337 407
#     4   9  20  38  56  94 120 162 222 263 334 396
#     4  11  21  41  66  96 131 170 223 280 342 409
#     4  10  23  43  63  94 137 175 228 282 341 412
#     4  11  22  41  65  92 128 168 222 280 336 399
#     4  10  20  38  65  93 126 168 220 274 333 408
#     4  11  22  40  62 100 134 170 222 283 336 412
#
# _framework density 21.833805000000002
#
# number of rings (size 3 to 8) (size 9 to 14) (size 15 to 20)
#    0.000    1.714    2.857    0.857    3.000    0.571 
#    2.571    0.000    3.143    0.000    0.000    0.000 
#    0.000    0.000    0.000    0.000    0.000    0.000 
#
# Total GULP energy -155965.094536 kJ/mol
# GULP energy per Si atom -5570.181948 kJ/mol
# Density = 2.178411 g / cm^3
# Si number density = 21.833805 Si / 1000 Ang^3
#
#
#
# Elastic Constant Matrix: (Units=GPa)
#
#
# Indices 1 2 3 4 5 6 
#
# 1 81.0440 46.6632 21.2004 0.0000 6.3375 0.0000
# 2 46.6632 99.2734 44.5846 0.0000 -1.2091 0.0000
# 3 21.2004 44.5846 104.9654 0.0000 4.1037 0.0000
# 4 0.0000 0.0000 0.0000 35.6258 0.0000 -1.0536
# 5 6.3375 -1.2091 4.1037 0.0000 23.5993 0.0000
# 6 0.0000 0.0000 0.0000 -1.0536 0.0000 27.3432
#
#
#
# Elastic Compliance Matrix: (Units=1/GPa)
#
#
# Indices 1 2 3 4 5 6 
#
# 1 0.017521 -0.008404 0.000233 0.000000 -0.005176 0.000000
# 2 -0.008404 0.016536 -0.005485 0.000000 0.004058 0.000000
# 3 0.000233 -0.005485 0.011904 0.000000 -0.002414 0.000000
# 4 0.000000 0.000000 0.000000 0.028102 0.000000 0.001083
# 5 -0.005176 0.004058 -0.002414 0.000000 0.044392 0.000000
# 6 0.000000 0.000000 0.000000 0.001083 0.000000 0.036614
#
#
# Mechanical properties :
#
#
# Convention : Reuss Voigt Hill
#
# Bulk Modulus (GPa) = 53.61894 56.68656 55.15275
# Shear Modulus (GPa) = 26.51155 28.83598 27.67376
#
# Velocity S-wave (km/s) = 3.48838 3.63809 3.56402
# Velocity P-wave (km/s) = 6.39032 6.60808 6.50011
#
# Compressibility (1/GPa) = 0.01865013
#
# Stress axis : x y z
#
# Youngs Moduli (GPa) = 57.07312 60.47375 84.00465
#
# Poissons Ratio (x) = 0.50819 -0.01957
# Poissons Ratio (y) = 0.47962 0.46078
# Poissons Ratio (z) = -0.01329 0.33171
#
# Static dielectric constant tensor:
#      x y z
#    x 1.887280 0.000000 -0.040250 
#    y 0.000000 1.861510 0.000000 
#    z -0.040250 0.000000 1.849030 
# 
# From -- ./inp_files/81453.got.cif
#   From: 2010.05.17/outbox.cif.g08.bks.cpg/sg15_41_cif.got.tgz:81453.got - 2010.06.03 18:47:42.
