data_PCOD9274957
_publ_section_title
;
Structure prediction by ZEFSAII (Michael W. Deem and Ramdas Pophale) SiO2 
 PCOD9274957
Probable space group: C 2/C
;
_chemical_formula_sum "Si O2"
_cell_formula_units_Z 52
_cell_length_a 7.044071
_cell_length_b 12.258488
_cell_length_c 24.284574
_cell_angle_alpha 90.000000
_cell_angle_beta 75.487987
_cell_angle_gamma 90.000000
_cell_volume 2030.061303
_symmetry_space_group_name_H-M "C 2/C"
_symmetry_group_IT_number 15
_symmetry_cell_setting 'monoclinic'
loop_
_space_group_symop_operation_xyz
x,y,z
-x,y,1/2-z
-x,-y,-z
x,-y,1/2+z
1/2+x,1/2+y,z
1/2-x,1/2+y,1/2-z
1/2-x,1/2-y,-z
1/2+x,1/2-y,1/2+z
loop_
_atom_site_type_symbol
_atom_site_label
_atom_site_fract_x
_atom_site_fract_y
_atom_site_fract_z
Si Si1 0.846196 0.990523 0.634330
Si Si2 0.734171 0.245021 0.120444
Si Si3 0.000000 0.271844 0.750000
Si Si4 0.207216 0.470479 0.376170
Si Si5 0.269576 0.533535 0.256059
Si Si6 0.312955 0.582749 0.526927
Si Si7 0.437020 0.826975 0.551948
O O1 0.733473 0.031787 0.589267
O O2 0.065769 0.034619 0.619595
O O3 0.856287 0.859685 0.630944
O O4 0.745004 0.021418 0.698664
O O5 0.590568 0.271861 0.184346
O O6 0.860848 0.351952 0.098364
O O7 0.638103 0.205666 0.069570
O O8 0.828390 0.349545 0.740429
O O9 0.185496 0.466953 0.312259
O O10 0.149235 0.594072 0.394359
O O11 0.500000 0.543076 0.250000
O O12 0.500000 0.500000 0.500000
O O13 0.374229 0.705962 0.537548
O O14 0.148991 0.595424 0.491619
#
# Coordination Sequence:
#
# PCOD9274957 Si02
#       7
#     8   8   4   8   8   8   8
#     4  10  22  41  63  95 129 166 222 270 328 405
#     4  11  23  39  65  97 128 171 220 274 340 404
#     4  10  20  38  66  96 134 178 222 276 338 422
#     4  11  21  43  65  94 133 173 215 274 346 399
#     4   9  20  37  67  95 134 175 220 277 344 409
#     4  11  22  42  69  93 129 180 226 275 337 401
#     4  11  22  40  68  94 126 173 225 273 330 401
#
# _framework density 25.614991
#
# number of rings (size 3 to 8) (size 9 to 14) (size 15 to 20)
#    0.000    1.538    4.615    0.000    3.231    0.615 
#    2.769    3.077    6.769    0.000    0.000    0.000 
#    0.000    0.000    0.000    0.000    0.000    0.000 
#
# Total GULP energy -144790.733675 kJ/mol
# GULP energy per Si atom -5568.874372 kJ/mol
# Density = 2.555669 g / cm^3
# Si number density = 25.614991 Si / 1000 Ang^3
#
#
#
# Elastic Constant Matrix: (Units=GPa)
#
#
# Indices 1 2 3 4 5 6 
#
# 1 69.3503 39.9522 32.2967 0.0000 9.8027 0.0000
# 2 39.9522 149.6562 38.4538 0.0000 9.8916 0.0000
# 3 32.2967 38.4538 151.4165 0.0000 17.0136 0.0000
# 4 0.0000 0.0000 0.0000 37.9722 0.0000 15.5078
# 5 9.8027 9.8916 17.0136 0.0000 27.3963 0.0000
# 6 0.0000 0.0000 0.0000 15.5078 0.0000 39.2769
#
#
#
# Elastic Compliance Matrix: (Units=1/GPa)
#
#
# Indices 1 2 3 4 5 6 
#
# 1 0.018416 -0.004037 -0.002501 0.000000 -0.003579 0.000000
# 2 -0.004037 0.008096 -0.001106 0.000000 -0.000792 0.000000
# 3 -0.002501 -0.001106 0.007819 0.000000 -0.003562 0.000000
# 4 0.000000 0.000000 0.000000 0.031398 0.000000 -0.012397
# 5 -0.003579 -0.000792 -0.003562 0.000000 0.040279 0.000000
# 6 0.000000 0.000000 0.000000 -0.012397 0.000000 0.030355
#
#
# Mechanical properties :
#
#
# Convention : Reuss Voigt Hill
#
# Bulk Modulus (GPa) = 52.51253 65.75869 59.13561
# Shear Modulus (GPa) = 31.64586 38.24377 34.94481
#
# Velocity S-wave (km/s) = 3.51870 3.86816 3.69756
# Velocity P-wave (km/s) = 6.08716 6.75854 6.43162
#
# Compressibility (1/GPa) = 0.01904308
#
# Stress axis : x y z
#
# Youngs Moduli (GPa) = 54.30134 123.51353 127.89776
#
# Poissons Ratio (x) = 0.49865 0.31982
# Poissons Ratio (y) = 0.21923 0.14146
# Poissons Ratio (z) = 0.13579 0.13661
#
# Static dielectric constant tensor:
#      x y z
#    x 2.026840 0.000000 -0.065840 
#    y 0.000000 1.962860 0.000000 
#    z -0.065840 0.000000 2.110470 
# 
# From -- ./inp_files/287661.got.cif
#   From: 2010.05.17/outbox.cif.g08.bks.cpg/sg15_144_cif.got.tgz:287661.got - 2010.06.03 18:47:42.
