data_PCOD9274357
_publ_section_title
;
Structure prediction by ZEFSAII (Michael W. Deem and Ramdas Pophale) SiO2 
 PCOD9274357
Probable space group: C 2/C
;
_chemical_formula_sum "Si O2"
_cell_formula_units_Z 52
_cell_length_a 7.662402
_cell_length_b 14.260711
_cell_length_c 20.389383
_cell_angle_alpha 90.000000
_cell_angle_beta 110.373476
_cell_angle_gamma 90.000000
_cell_volume 2088.599568
_symmetry_space_group_name_H-M "C 2/C"
_symmetry_group_IT_number 15
_symmetry_cell_setting 'monoclinic'
loop_
_space_group_symop_operation_xyz
x,y,z
-x,y,1/2-z
-x,-y,-z
x,-y,1/2+z
1/2+x,1/2+y,z
1/2-x,1/2+y,1/2-z
1/2-x,1/2-y,-z
1/2+x,1/2-y,1/2+z
loop_
_atom_site_type_symbol
_atom_site_label
_atom_site_fract_x
_atom_site_fract_y
_atom_site_fract_z
Si Si1 0.500000 0.027821 0.750000
Si Si2 0.886480 0.338770 0.504531
Si Si3 0.351198 0.094846 0.136792
Si Si4 0.321390 0.788294 0.361149
Si Si5 0.502114 0.490363 0.829226
Si Si6 0.199999 0.168807 0.699907
Si Si7 0.784661 0.182293 0.108652
O O1 0.471367 0.954357 0.805974
O O2 0.364099 0.100983 0.696629
O O3 0.750000 0.250000 0.500000
O O4 0.846401 0.413461 0.557296
O O5 0.849045 0.361018 0.423993
O O6 0.101971 0.308098 0.540285
O O7 0.328699 0.205938 0.144386
O O8 0.177613 0.054032 0.156380
O O9 0.253648 0.826169 0.282898
O O10 0.522911 0.735122 0.384133
O O11 0.500000 0.475695 0.750000
O O12 0.477187 0.602256 0.835810
O O13 0.666918 0.426998 0.878226
O O14 0.222961 0.267138 0.668048
#
# Coordination Sequence:
#
# PCOD9274357 Si02
#       7
#     4   8   8   8   8   8   8
#     4  10  20  38  62  94 128 172 220 294 350 410
#     4  10  23  40  67  98 140 189 241 287 368 447
#     4   9  21  37  64  91 136 176 224 288 365 414
#     4  10  20  41  65 101 135 187 235 290 361 440
#     4  10  23  40  66 104 137 174 236 304 361 428
#     4  11  22  39  71 100 141 170 246 293 352 429
#     4  11  21  41  73  98 140 196 239 302 365 427
#
# _framework density 24.897062999999999
#
# number of rings (size 3 to 8) (size 9 to 14) (size 15 to 20)
#    0.000    1.846    1.538    2.308    6.462    2.462 
#    0.000    0.769    6.769   10.154    0.000    0.000 
#    0.000    0.000    0.000    0.000    0.000    0.000 
#
# Total GULP energy -144896.525682 kJ/mol
# GULP energy per Si atom -5572.943295 kJ/mol
# Density = 2.484040 g / cm^3
# Si number density = 24.897063 Si / 1000 Ang^3
#
#
#
# Elastic Constant Matrix: (Units=GPa)
#
#
# Indices 1 2 3 4 5 6 
#
# 1 116.5435 18.0263 10.8553 0.0000 19.0278 0.0000
# 2 18.0263 103.6493 22.7662 0.0000 6.6433 0.0000
# 3 10.8553 22.7662 111.7896 0.0000 2.0794 0.0000
# 4 0.0000 0.0000 0.0000 0.9792 0.0000 19.7916
# 5 19.0278 6.6433 2.0794 0.0000 49.3619 0.0000
# 6 0.0000 0.0000 0.0000 19.7916 0.0000 26.9932
#
#
#
# Elastic Compliance Matrix: (Units=1/GPa)
#
#
# Indices 1 2 3 4 5 6 
#
# 1 0.009393 -0.001285 -0.000587 0.000000 -0.003423 0.000000
# 2 -0.001285 0.010356 -0.001969 0.000000 -0.000815 0.000000
# 3 -0.000587 -0.001969 0.009402 0.000000 0.000095 0.000000
# 4 0.000000 0.000000 0.000000 -0.073898 0.000000 0.054183
# 5 -0.003423 -0.000815 0.000095 0.000000 0.021684 0.000000
# 6 0.000000 0.000000 0.000000 0.054183 0.000000 -0.002681
#
#
# Mechanical properties :
#
#
# Convention : Reuss Voigt Hill
#
# Bulk Modulus (GPa) = 46.57991 48.36423 47.47207
# Shear Modulus (GPa) = -458.43449 34.15583 -212.13933
#
# Velocity S-wave (km/s) = -13.58424 3.70791 -9.24075
# Velocity P-wave (km/s) = 15.07623 6.14811 9.73379
#
# Compressibility (1/GPa) = 0.02146848
#
# Stress axis : x y z
#
# Youngs Moduli (GPa) = 106.46451 96.56036 106.36500
#
# Poissons Ratio (x) = 0.12411 0.06240
# Poissons Ratio (y) = 0.13684 0.20944
# Poissons Ratio (z) = 0.06246 0.19014
#
# Static dielectric constant tensor:
#      x y z
#    x 2.364820 0.000000 -0.050180 
#    y 0.000000 1.976080 0.000000 
#    z -0.050180 0.000000 2.001540 
# 
# From -- ./inp_files/232280.got.cif
#   From: 2010.05.17/outbox.cif.g08.bks.cpg/sg15_117_cif.got.tgz:232280.got - 2010.06.03 18:47:42.
