data_PCOD9274856
_publ_section_title
;
Structure prediction by ZEFSAII (Michael W. Deem and Ramdas Pophale) SiO2 
 PCOD9274856
Probable space group: C 2/C
;
_chemical_formula_sum "Si O2"
_cell_formula_units_Z 44
_cell_length_a 8.756299
_cell_length_b 13.906185
_cell_length_c 15.533508
_cell_angle_alpha 90.000000
_cell_angle_beta 74.508993
_cell_angle_gamma 90.000000
_cell_volume 1822.751842
_symmetry_space_group_name_H-M "C 2/C"
_symmetry_group_IT_number 15
_symmetry_cell_setting 'monoclinic'
loop_
_space_group_symop_operation_xyz
x,y,z
-x,y,1/2-z
-x,-y,-z
x,-y,1/2+z
1/2+x,1/2+y,z
1/2-x,1/2+y,1/2-z
1/2-x,1/2-y,-z
1/2+x,1/2-y,1/2+z
loop_
_atom_site_type_symbol
_atom_site_label
_atom_site_fract_x
_atom_site_fract_y
_atom_site_fract_z
Si Si1 0.211077 0.221539 0.870750
Si Si2 0.834333 0.443508 0.028038
Si Si3 0.681632 0.561953 0.196784
Si Si4 0.499223 0.760551 0.068419
Si Si5 0.239037 0.385934 0.645230
Si Si6 0.000000 0.234267 0.750000
O O1 0.256388 0.332234 0.840453
O O2 0.380282 0.187419 0.883193
O O3 0.120609 0.182862 0.799041
O O4 0.096833 0.222064 0.971197
O O5 0.721231 0.492197 0.113556
O O6 0.873684 0.336322 0.052082
O O7 0.765257 0.439968 0.943438
O O8 0.000000 0.500000 0.000000
O O9 0.500000 0.556114 0.250000
O O10 0.776133 0.544488 0.271175
O O11 0.402515 0.674130 0.125691
O O12 0.102833 0.305341 0.673882
#
# Coordination Sequence:
#
# PCOD9274856 Si02
#       6
#     8   8   8   8   8   4
#     4  10  21  41  73  99 131 184 236 282 351 415
#     4  12  24  44  73 103 140 188 237 287 354 425
#     4  11  23  46  68 102 144 183 227 294 359 403
#     4  11  22  43  73 103 132 186 238 287 348 423
#     4  11  23  44  72  99 144 187 234 290 348 416
#     4  10  20  38  66 104 138 176 226 296 336 396
#
# _framework density 24.139326000000001
#
# number of rings (size 3 to 8) (size 9 to 14) (size 15 to 20)
#    0.000    1.091    5.455    1.636    0.000    0.727 
#    1.636    7.273    0.000    0.000    0.000    0.000 
#    0.000    0.000    0.000    0.000    0.000    0.000 
#
# Total GULP energy -123106.811276 kJ/mol
# GULP energy per Si atom -5595.764149 kJ/mol
# Density = 2.408438 g / cm^3
# Si number density = 24.139326 Si / 1000 Ang^3
#
#
#
# Elastic Constant Matrix: (Units=GPa)
#
#
# Indices 1 2 3 4 5 6 
#
# 1 82.6176 -3.2257 36.4997 0.0000 -7.7672 0.0000
# 2 -3.2257 25.2572 19.2827 0.0000 -7.8494 0.0000
# 3 36.4997 19.2827 149.2031 0.0000 6.0357 0.0000
# 4 0.0000 0.0000 0.0000 40.8921 0.0000 -1.9383
# 5 -7.7672 -7.8494 6.0357 0.0000 61.2540 0.0000
# 6 0.0000 0.0000 0.0000 -1.9383 0.0000 13.6646
#
#
#
# Elastic Compliance Matrix: (Units=1/GPa)
#
#
# Indices 1 2 3 4 5 6 
#
# 1 0.014638 0.006285 -0.004519 0.000000 0.003107 0.000000
# 2 0.006285 0.049114 -0.008204 0.000000 0.007899 0.000000
# 3 -0.004519 -0.008204 0.008969 0.000000 -0.002508 0.000000
# 4 0.000000 0.000000 0.000000 0.024620 0.000000 0.003492
# 5 0.003107 0.007899 -0.002508 0.000000 0.017979 0.000000
# 6 0.000000 0.000000 0.000000 0.003492 0.000000 0.073677
#
#
# Mechanical properties :
#
#
# Convention : Reuss Voigt Hill
#
# Bulk Modulus (GPa) = 16.70999 40.24348 28.47673
# Shear Modulus (GPa) = 22.54061 36.79689 29.66875
#
# Velocity S-wave (km/s) = 3.05908 3.90853 3.50960
# Velocity P-wave (km/s) = 4.40621 6.08904 5.31465
#
# Compressibility (1/GPa) = 0.05984445
#
# Stress axis : x y z
#
# Youngs Moduli (GPa) = 68.31638 20.36088 111.48912
#
# Poissons Ratio (x) = -0.12797 0.50379
# Poissons Ratio (y) = -0.42936 0.91470
# Poissons Ratio (z) = 0.30871 0.16705
#
# Static dielectric constant tensor:
#      x y z
#    x 1.975780 0.000000 0.056140 
#    y 0.000000 1.972090 0.000000 
#    z 0.056140 0.000000 1.925480 
# 
# From -- ./inp_files/134363.got.cif
#   From: 2010.05.17/outbox.cif.g08.bks.cpg/sg15_68_cif.got.tgz:134363.got - 2010.06.03 18:47:42.
