data_PCOD9274683
_publ_section_title
;
Structure prediction by ZEFSAII (Michael W. Deem and Ramdas Pophale) SiO2 
 PCOD9274683
Probable space group: C 2/C
;
_chemical_formula_sum "Si O2"
_cell_formula_units_Z 48
_cell_length_a 14.842135
_cell_length_b 15.066792
_cell_length_c 16.933439
_cell_angle_alpha 90.000000
_cell_angle_beta 32.342547
_cell_angle_gamma 90.000000
_cell_volume 2025.815024
_symmetry_space_group_name_H-M "C 2/C"
_symmetry_group_IT_number 15
_symmetry_cell_setting 'monoclinic'
loop_
_space_group_symop_operation_xyz
x,y,z
-x,y,1/2-z
-x,-y,-z
x,-y,1/2+z
1/2+x,1/2+y,z
1/2-x,1/2+y,1/2-z
1/2-x,1/2-y,-z
1/2+x,1/2-y,1/2+z
loop_
_atom_site_type_symbol
_atom_site_label
_atom_site_fract_x
_atom_site_fract_y
_atom_site_fract_z
Si Si1 0.350263 0.287476 0.139121
Si Si2 0.313715 0.953967 0.050663
Si Si3 0.026551 0.069002 0.315834
Si Si4 0.805269 0.859643 0.653128
Si Si5 0.683338 0.991494 0.619611
Si Si6 0.485587 0.134659 0.570260
O O1 0.305496 0.227331 0.248755
O O2 0.401682 0.221768 0.028850
O O3 0.178651 0.343157 0.255763
O O4 0.520884 0.343149 0.022369
O O5 0.406379 0.050520 0.983514
O O6 0.128542 0.978655 0.219866
O O7 0.309646 0.926403 0.962577
O O8 0.409896 0.892115 0.040422
O O9 0.843937 0.052827 0.487620
O O10 0.000000 0.114242 0.250000
O O11 0.136496 0.113936 0.302017
O O12 0.706166 0.936739 0.682744
O O13 0.500000 0.034295 0.750000
#
# Coordination Sequence:
#
# PCOD9274683 Si02
#       6
#     8   8   8   8   8   8
#     4  10  22  38  66  94 129 181 211 260 341 390
#     4  10  21  39  64  91 130 168 224 271 317 383
#     4  10  22  41  64  93 127 165 215 274 324 375
#     4  11  22  43  63  92 133 170 216 267 324 395
#     4  11  24  37  63  99 128 163 220 271 328 379
#     4  10  20  38  64  93 128 175 215 270 323 387
#
# _framework density 23.694168000000001
#
# number of rings (size 3 to 8) (size 9 to 14) (size 15 to 20)
#    0.000    1.667    1.667    2.500    4.667    0.000 
#    0.000   10.000    0.000    0.000    0.000    0.000 
#    0.000    0.000    0.000    0.000    0.000    0.000 
#
# Total GULP energy -134115.538434 kJ/mol
# GULP energy per Si atom -5588.147435 kJ/mol
# Density = 2.364024 g / cm^3
# Si number density = 23.694168 Si / 1000 Ang^3
#
#
#
# Elastic Constant Matrix: (Units=GPa)
#
#
# Indices 1 2 3 4 5 6 
#
# 1 112.2621 18.7235 9.6788 -0.0005 3.3729 0.0005
# 2 18.7235 49.0439 23.7825 -0.0012 -6.7204 0.0006
# 3 9.6788 23.7825 159.8222 -0.0019 -16.2030 0.0011
# 4 -0.0005 -0.0012 -0.0019 45.8497 0.0009 -5.6890
# 5 3.3729 -6.7204 -16.2030 0.0009 39.5652 -0.0005
# 6 0.0005 0.0006 0.0011 -5.6890 -0.0005 1.1950
#
#
#
# Elastic Compliance Matrix: (Units=1/GPa)
#
#
# Indices 1 2 3 4 5 6 
#
# 1 0.009601 -0.003792 -0.000173 -0.000001 -0.001533 -0.000007
# 2 -0.003792 0.023712 -0.002982 -0.000001 0.003130 -0.000009
# 3 -0.000173 -0.002982 0.006950 -0.000001 0.002354 -0.000008
# 4 -0.000001 -0.000001 -0.000001 0.053290 0.000002 0.253702
# 5 -0.001533 0.003130 0.002354 0.000002 0.026901 0.000015
# 6 -0.000007 -0.000009 -0.000008 0.253702 0.000015 2.044666
#
#
# Mechanical properties :
#
#
# Convention : Reuss Voigt Hill
#
# Bulk Modulus (GPa) = 37.92038 47.27754 42.59896
# Shear Modulus (GPa) = 2.28540 35.25153 18.76846
#
# Velocity S-wave (km/s) = 0.98318 3.86135 2.81750
# Velocity P-wave (km/s) = 4.16265 6.31479 5.34810
#
# Compressibility (1/GPa) = 0.02637104
#
# Stress axis : x y z
#
# Youngs Moduli (GPa) = 104.15492 42.17241 143.88951
#
# Poissons Ratio (x) = 0.15991 0.02484
# Poissons Ratio (y) = 0.39493 0.42902
# Poissons Ratio (z) = 0.01798 0.12574
#
# Static dielectric constant tensor:
#      x y z
#    x 1.896940 0.000000 0.014240 
#    y 0.000000 1.901520 0.000000 
#    z 0.014240 0.000000 1.973800 
# 
# From -- ./inp_files/206401.got.cif
#   From: 2010.05.17/outbox.cif.g08.bks.cpg/sg15_104_cif.got.tgz:206401.got - 2010.06.03 18:47:42.
