data_PCOD9274384
_publ_section_title
;
Structure prediction by ZEFSAII (Michael W. Deem and Ramdas Pophale) SiO2 
 PCOD9274384
Probable space group: C 2/C
;
_chemical_formula_sum "Si O2"
_cell_formula_units_Z 56
_cell_length_a 10.497961
_cell_length_b 9.988670
_cell_length_c 27.778906
_cell_angle_alpha 90.000000
_cell_angle_beta 69.671527
_cell_angle_gamma 90.000000
_cell_volume 2731.487861
_symmetry_space_group_name_H-M "C 2/C"
_symmetry_group_IT_number 15
_symmetry_cell_setting 'monoclinic'
loop_
_space_group_symop_operation_xyz
x,y,z
-x,y,1/2-z
-x,-y,-z
x,-y,1/2+z
1/2+x,1/2+y,z
1/2-x,1/2+y,1/2-z
1/2-x,1/2-y,-z
1/2+x,1/2-y,1/2+z
loop_
_atom_site_type_symbol
_atom_site_label
_atom_site_fract_x
_atom_site_fract_y
_atom_site_fract_z
Si Si1 0.976445 0.623440 0.329341
Si Si2 0.204455 0.583230 0.798393
Si Si3 0.824476 0.469658 0.423945
Si Si4 0.416946 0.206596 0.597379
Si Si5 0.534265 0.509991 0.938760
Si Si6 0.500000 0.355254 0.250000
Si Si7 0.500000 0.082284 0.750000
Si Si8 0.751519 0.387606 0.029381
O O1 0.882872 0.601248 0.388260
O O2 0.920533 0.517009 0.296970
O O3 0.124182 0.555298 0.319920
O O4 0.992419 0.760361 0.298553
O O5 0.187642 0.680003 0.846000
O O6 0.360332 0.564492 0.765740
O O7 0.114353 0.649328 0.767397
O O8 0.683225 0.423929 0.418276
O O9 0.797035 0.503892 0.483433
O O10 0.942094 0.361106 0.405420
O O11 0.443177 0.360683 0.583162
O O12 0.356155 0.131671 0.558849
O O13 0.401847 0.578358 0.933552
O O14 0.500000 0.500000 0.000000
O O15 0.750000 0.250000 0.000000
#
# Coordination Sequence:
#
# PCOD9274384 Si02
#       8
#     8   8   8   8   8   4   4   8
#     4   8  18  37  60  81 111 152 189 229 291 347
#     4   9  20  37  61  87 112 151 193 239 289 346
#     4  10  20  38  63  82 116 160 192 236 292 342
#     4  11  21  41  60  84 121 150 199 245 280 347
#     4  10  21  38  57  85 116 155 193 228 292 334
#     4  11  18  34  65  80 114 153 182 240 299 328
#     4   7  16  40  55  76 120 137 184 244 281 336
#     4  11  22  39  57  87 122 153 193 244 281 348
#
# _framework density 20.501647999999999
#
# number of rings (size 3 to 8) (size 9 to 14) (size 15 to 20)
#    0.857    1.429    2.857    1.286    0.000    2.286 
#    5.143    3.571    0.000    0.000    0.000    0.000 
#    0.000    0.000    0.000    0.000    0.000    0.000 
#
# Total GULP energy -155953.284614 kJ/mol
# GULP energy per Si atom -5569.760165 kJ/mol
# Density = 2.045499 g / cm^3
# Si number density = 20.501648 Si / 1000 Ang^3
#
#
#
# Elastic Constant Matrix: (Units=GPa)
#
#
# Indices 1 2 3 4 5 6 
#
# 1 116.0312 19.3074 31.3502 0.0000 -37.1859 0.0000
# 2 19.3074 25.6111 -3.6704 0.0000 -5.0447 0.0000
# 3 31.3502 -3.6704 66.9332 0.0000 -5.8929 0.0000
# 4 0.0000 0.0000 0.0000 -3.7725 0.0000 -4.1879
# 5 -37.1859 -5.0447 -5.8929 0.0000 35.2029 0.0000
# 6 0.0000 0.0000 0.0000 -4.1879 0.0000 16.7031
#
#
#
# Elastic Compliance Matrix: (Units=1/GPa)
#
#
# Indices 1 2 3 4 5 6 
#
# 1 0.017497 -0.011176 -0.007432 0.000000 0.015638 0.000000
# 2 -0.011176 0.047823 0.007532 0.000000 -0.003691 0.000000
# 3 -0.007432 0.007532 0.018511 0.000000 -0.003672 0.000000
# 4 0.000000 0.000000 0.000000 -0.207358 0.000000 -0.051991
# 5 0.015638 -0.003691 -0.003672 0.000000 0.043781 0.000000
# 6 0.000000 0.000000 0.000000 -0.051991 0.000000 0.046834
#
#
# Mechanical properties :
#
#
# Convention : Reuss Voigt Hill
#
# Bulk Modulus (GPa) = 16.21254 33.61664 24.91459
# Shear Modulus (GPa) = 510.26062 20.39925 265.32994
#
# Velocity S-wave (km/s) = 15.79329 3.15779 11.38858
# Velocity P-wave (km/s) = 18.45252 5.45236 13.60558
#
# Compressibility (1/GPa) = 0.06168064
#
# Stress axis : x y z
#
# Youngs Moduli (GPa) = 57.15126 20.91049 54.02257
#
# Poissons Ratio (x) = 0.23369 0.40147
# Poissons Ratio (y) = 0.63870 -0.40690
# Poissons Ratio (z) = 0.42472 -0.15750
#
# Static dielectric constant tensor:
#      x y z
#    x 1.781170 0.000000 0.004880 
#    y 0.000000 1.741420 0.000000 
#    z 0.004880 0.000000 1.784410 
# 
# From -- ./inp_files/307100.got.cif
#   From: 2010.05.17/outbox.cif.g08.bks.cpg/sg15_154_cif.got.tgz:307100.got - 2010.06.03 18:47:42.
