data_PCOD9274215
_publ_section_title
;
Structure prediction by ZEFSAII (Michael W. Deem and Ramdas Pophale) SiO2 
 PCOD9274215
Probable space group: C 2/C
;
_chemical_formula_sum "Si O2"
_cell_formula_units_Z 48
_cell_length_a 18.810860
_cell_length_b 8.058264
_cell_length_c 36.638657
_cell_angle_alpha 90.000000
_cell_angle_beta 156.828065
_cell_angle_gamma 90.000000
_cell_volume 2185.371145
_symmetry_space_group_name_H-M "C 2/C"
_symmetry_group_IT_number 15
_symmetry_cell_setting 'monoclinic'
loop_
_space_group_symop_operation_xyz
x,y,z
-x,y,1/2-z
-x,-y,-z
x,-y,1/2+z
1/2+x,1/2+y,z
1/2-x,1/2+y,1/2-z
1/2-x,1/2-y,-z
1/2+x,1/2-y,1/2+z
loop_
_atom_site_type_symbol
_atom_site_label
_atom_site_fract_x
_atom_site_fract_y
_atom_site_fract_z
Si Si1 0.033413 0.407202 0.925436
Si Si2 0.873579 0.350296 0.155970
Si Si3 0.676419 0.215343 0.745297
Si Si4 0.759754 0.924631 0.961613
Si Si5 0.476974 0.152287 0.517121
Si Si6 0.378825 0.370231 0.858485
O O1 0.102050 0.431489 0.916865
O O2 0.825944 0.349435 0.828779
O O3 0.149724 0.253490 0.995186
O O4 0.077335 0.562713 0.970867
O O5 0.819424 0.527975 0.114566
O O6 0.686875 0.258858 0.075875
O O7 0.000000 0.356297 0.250000
O O8 0.988191 0.263266 0.177596
O O9 0.656896 0.248372 0.692723
O O10 0.755092 0.033958 0.793700
O O11 0.917002 0.055650 0.046120
O O12 0.630532 0.276518 0.606501
O O13 0.500000 0.000000 0.500000
#
# Coordination Sequence:
#
# PCOD9274215 Si02
#       6
#     8   8   8   8   8   8
#     4  10  20  38  62  87 116 152 195 242 295 351
#     4  11  23  38  56  83 118 156 199 244 291 346
#     4  11  21  36  61  91 119 150 195 247 294 347
#     4   9  20  38  60  86 116 154 196 241 293 350
#     4  11  23  40  59  82 118 160 197 238 294 352
#     4  10  21  36  61  90 118 154 194 242 296 348
#
# _framework density 21.964233
#
# number of rings (size 3 to 8) (size 9 to 14) (size 15 to 20)
#    0.000    1.667    0.000    5.000    0.000    4.000 
#    0.000    9.167    0.000    0.000    0.000    0.000 
#    0.000    0.000    0.000    0.000    0.000    0.000 
#
# Total GULP energy -134042.283198 kJ/mol
# GULP energy per Si atom -5585.095133 kJ/mol
# Density = 2.191424 g / cm^3
# Si number density = 21.964233 Si / 1000 Ang^3
#
#
#
# Elastic Constant Matrix: (Units=GPa)
#
#
# Indices 1 2 3 4 5 6 
#
# 1 16.0062 -0.9459 2.8110 0.0018 -0.9694 -0.0014
# 2 -0.9459 84.7639 29.0373 0.0013 -16.8996 -0.0009
# 3 2.8110 29.0373 120.5216 -0.0095 -28.5923 0.0016
# 4 0.0018 0.0013 -0.0095 17.1637 0.0001 -15.6943
# 5 -0.9694 -16.8996 -28.5923 0.0001 30.8172 -0.0003
# 6 -0.0014 -0.0009 0.0016 -15.6943 -0.0003 32.8081
#
#
#
# Elastic Compliance Matrix: (Units=1/GPa)
#
#
# Indices 1 2 3 4 5 6 
#
# 1 0.062912 0.001495 -0.001492 -0.000009 0.001415 -0.000001
# 2 0.001495 0.013623 -0.001966 -0.000003 0.005693 -0.000001
# 3 -0.001492 -0.001966 0.010949 0.000010 0.009033 0.000004
# 4 -0.000009 -0.000003 0.000010 0.103562 0.000008 0.049540
# 5 0.001415 0.005693 0.009033 0.000008 0.043997 0.000004
# 6 -0.000001 -0.000001 0.000004 0.049540 0.000004 0.054179
#
#
# Mechanical properties :
#
#
# Convention : Reuss Voigt Hill
#
# Bulk Modulus (GPa) = 11.96790 31.45518 21.71154
# Shear Modulus (GPa) = 15.57636 28.85042 22.21339
#
# Velocity S-wave (km/s) = 2.66591 3.62818 3.18361
# Velocity P-wave (km/s) = 3.86481 5.64834 4.83945
#
# Compressibility (1/GPa) = 0.08355684
#
# Stress axis : x y z
#
# Youngs Moduli (GPa) = 15.89531 73.40615 91.33404
#
# Poissons Ratio (x) = -0.10975 0.13627
# Poissons Ratio (y) = -0.02377 0.17960
# Poissons Ratio (z) = 0.02372 0.14435
#
# Static dielectric constant tensor:
#      x y z
#    x 1.796350 0.000000 -0.007160 
#    y 0.000000 1.835350 0.000000 
#    z -0.007160 0.000000 1.812330 
# 
# From -- ./inp_files/315766.got.cif
#   From: 2010.05.17/outbox.cif.g08.bks.cpg/sg15_158_cif.got.tgz:315766.got - 2010.06.03 18:47:42.
