data_PCOD9274765
_publ_section_title
;
Structure prediction by ZEFSAII (Michael W. Deem and Ramdas Pophale) SiO2 
 PCOD9274765
Probable space group: C 2/C
;
_chemical_formula_sum "Si O2"
_cell_formula_units_Z 36
_cell_length_a 15.878384
_cell_length_b 18.765879
_cell_length_c 9.019091
_cell_angle_alpha 90.000000
_cell_angle_beta 31.536709
_cell_angle_gamma 90.000000
_cell_volume 1405.648775
_symmetry_space_group_name_H-M "C 2/C"
_symmetry_group_IT_number 15
_symmetry_cell_setting 'monoclinic'
loop_
_space_group_symop_operation_xyz
x,y,z
-x,y,1/2-z
-x,-y,-z
x,-y,1/2+z
1/2+x,1/2+y,z
1/2-x,1/2+y,1/2-z
1/2-x,1/2-y,-z
1/2+x,1/2-y,1/2+z
loop_
_atom_site_type_symbol
_atom_site_label
_atom_site_fract_x
_atom_site_fract_y
_atom_site_fract_z
Si Si1 0.000000 0.175758 0.250000
Si Si2 0.500000 0.846866 0.750000
Si Si3 0.000000 0.030964 0.750000
Si Si4 0.219588 0.615166 0.478123
Si Si5 0.591172 0.803865 0.923393
Si Si6 0.225165 0.957557 0.170574
O O1 0.120582 0.133941 0.173812
O O2 0.098238 0.227863 0.992162
O O3 0.425101 0.802651 0.727505
O O4 0.642698 0.900075 0.485168
O O5 0.889959 0.068549 0.790472
O O6 0.118322 0.984090 0.468301
O O7 0.223865 0.646813 0.304468
O O8 0.193543 0.530889 0.509904
O O9 0.075191 0.657763 0.773457
#
# Coordination Sequence:
#
# PCOD9274765 Si02
#       6
#     4   4   4   8   8   8
#     4  10  21  43  66  90 122 175 225 260 322 388
#     4  12  24  39  65 100 137 169 214 268 326 394
#     4  10  23  38  55  88 133 170 211 256 324 398
#     4  10  20  38  65  87 121 170 219 268 317 386
#     4  10  21  38  60  92 126 167 218 267 312 379
#     4  11  22  39  61  93 132 172 213 264 330 391
#
# _framework density 25.610949000000002
#
# number of rings (size 3 to 8) (size 9 to 14) (size 15 to 20)
#    0.000    1.778    0.000    7.333    0.000    4.444 
#    0.000    5.556    0.000    0.000    0.000    0.000 
#    0.000    0.000    0.000    0.000    0.000    0.000 
#
# Total GULP energy -100827.676648 kJ/mol
# GULP energy per Si atom -5601.537592 kJ/mol
# Density = 2.555266 g / cm^3
# Si number density = 25.610949 Si / 1000 Ang^3
#
#
#
# Elastic Constant Matrix: (Units=GPa)
#
#
# Indices 1 2 3 4 5 6 
#
# 1 235.2080 40.8940 13.7348 0.0017 4.2080 -0.0009
# 2 40.8940 77.1035 0.8017 0.0003 -2.4055 0.0002
# 3 13.7348 0.8017 71.0818 -0.0012 5.1864 0.0002
# 4 0.0017 0.0003 -0.0012 16.6846 -0.0004 2.0059
# 5 4.2080 -2.4055 5.1864 -0.0004 46.9564 0.0007
# 6 -0.0009 0.0002 0.0002 2.0059 0.0007 33.8859
#
#
#
# Elastic Compliance Matrix: (Units=1/GPa)
#
#
# Indices 1 2 3 4 5 6 
#
# 1 0.004749 -0.002524 -0.000855 -0.000001 -0.000460 0.000000
# 2 -0.002524 0.014335 0.000258 0.000000 0.000932 0.000000
# 3 -0.000855 0.000258 0.014340 0.000001 -0.001494 0.000000
# 4 -0.000001 0.000000 0.000001 0.060365 0.000000 -0.003573
# 5 -0.000460 0.000932 -0.001494 0.000000 0.021550 0.000000
# 6 0.000000 0.000000 0.000000 -0.003573 0.000000 0.029722
#
#
# Mechanical properties :
#
#
# Convention : Reuss Voigt Hill
#
# Bulk Modulus (GPa) = 36.79178 54.91714 45.85446
# Shear Modulus (GPa) = 31.17909 41.36955 36.27432
#
# Velocity S-wave (km/s) = 3.49293 4.02345 3.76754
# Velocity P-wave (km/s) = 5.53753 6.56305 6.07198
#
# Compressibility (1/GPa) = 0.02717999
#
# Stress axis : x y z
#
# Youngs Moduli (GPa) = 210.58933 69.76099 69.73651
#
# Poissons Ratio (x) = 0.17608 0.05966
# Poissons Ratio (y) = 0.53153 -0.01799
# Poissons Ratio (z) = 0.18016 -0.01800
#
# Static dielectric constant tensor:
#      x y z
#    x 1.998210 0.000000 0.037270 
#    y 0.000000 2.012760 0.000000 
#    z 0.037270 0.000000 2.072290 
# 
# From -- ./inp_files/30599.got.cif
#   From: 2010.05.17/outbox.cif.g08.bks.cpg/sg15_16_cif.got.tgz:30599.got - 2010.06.03 18:47:42.
