data_PCOD9274929
_publ_section_title
;
Structure prediction by ZEFSAII (Michael W. Deem and Ramdas Pophale) SiO2 
 PCOD9274929
Probable space group: C 2/C
;
_chemical_formula_sum "Si O2"
_cell_formula_units_Z 52
_cell_length_a 20.076539
_cell_length_b 11.509638
_cell_length_c 11.455506
_cell_angle_alpha 90.000000
_cell_angle_beta 55.592549
_cell_angle_gamma 90.000000
_cell_volume 2183.935480
_symmetry_space_group_name_H-M "C 2/C"
_symmetry_group_IT_number 15
_symmetry_cell_setting 'monoclinic'
loop_
_space_group_symop_operation_xyz
x,y,z
-x,y,1/2-z
-x,-y,-z
x,-y,1/2+z
1/2+x,1/2+y,z
1/2-x,1/2+y,1/2-z
1/2-x,1/2-y,-z
1/2+x,1/2-y,1/2+z
loop_
_atom_site_type_symbol
_atom_site_label
_atom_site_fract_x
_atom_site_fract_y
_atom_site_fract_z
Si Si1 0.648286 0.736076 0.890894
Si Si2 0.835186 0.774618 0.760302
Si Si3 0.667102 0.140211 0.125388
Si Si4 0.411993 0.577877 0.379993
Si Si5 0.334815 0.633028 0.015986
Si Si6 0.000000 0.623650 0.250000
Si Si7 0.510277 0.861713 0.476366
O O1 0.740502 0.741502 0.846088
O O2 0.657494 0.778370 0.748848
O O3 0.611246 0.612825 0.964715
O O4 0.571745 0.817453 0.005662
O O5 0.853924 0.843888 0.858637
O O6 0.847224 0.862988 0.640484
O O7 0.905975 0.678821 0.666312
O O8 0.673855 0.233451 0.015200
O O9 0.587278 0.065417 0.181016
O O10 0.749527 0.073876 0.065051
O O11 0.500000 0.609035 0.250000
O O12 0.399940 0.440518 0.382863
O O13 0.990190 0.684903 0.387132
O O14 0.500000 0.000000 0.500000
#
# Coordination Sequence:
#
# PCOD9274929 Si02
#       7
#     8   8   8   8   8   4   8
#     4  10  24  44  66  98 137 174 228 285 339 410
#     4  11  24  46  67  97 140 178 229 289 337 410
#     4   9  20  41  64  90 131 170 228 284 312 408
#     4  12  26  41  69  99 139 181 216 285 357 407
#     4  10  23  40  64  97 129 179 225 270 342 399
#     4  10  20  38  66  94 124 172 214 280 332 384
#     4  11  24  43  70 100 135 182 232 282 348 413
#
# _framework density 23.810229
#
# number of rings (size 3 to 8) (size 9 to 14) (size 15 to 20)
#    0.000    1.538    3.077    0.462    3.231    6.769 
#    0.000    0.000    0.000    0.000    0.000    0.000 
#    0.000    0.000    0.000    0.000    0.000    0.000 
#
# Total GULP energy -144752.751512 kJ/mol
# GULP energy per Si atom -5567.413520 kJ/mol
# Density = 2.375604 g / cm^3
# Si number density = 23.810229 Si / 1000 Ang^3
#
#
#
# Elastic Constant Matrix: (Units=GPa)
#
#
# Indices 1 2 3 4 5 6 
#
# 1 114.3525 28.1126 47.0978 0.0000 -45.6776 0.0000
# 2 28.1126 81.5858 27.5765 0.0000 -14.9825 0.0000
# 3 47.0978 27.5765 96.5681 0.0000 -13.8561 0.0000
# 4 0.0000 0.0000 0.0000 33.2015 0.0000 2.9927
# 5 -45.6776 -14.9825 -13.8561 0.0000 46.6616 0.0000
# 6 0.0000 0.0000 0.0000 2.9927 0.0000 -2.2472
#
#
#
# Elastic Compliance Matrix: (Units=1/GPa)
#
#
# Indices 1 2 3 4 5 6 
#
# 1 0.017509 -0.001247 -0.006039 0.000000 0.014946 0.000000
# 2 -0.001247 0.014175 -0.003094 0.000000 0.002412 0.000000
# 3 -0.006039 -0.003094 0.013780 0.000000 -0.002812 0.000000
# 4 0.000000 0.000000 0.000000 0.026891 0.000000 0.035812
# 5 0.014946 0.002412 -0.002812 0.000000 0.036001 0.000000
# 6 0.000000 0.000000 0.000000 0.035812 0.000000 -0.397303
#
#
# Mechanical properties :
#
#
# Convention : Reuss Voigt Hill
#
# Bulk Modulus (GPa) = 40.47691 55.34223 47.90957
# Shear Modulus (GPa) = -19.23425 28.17113 4.46844
#
# Velocity S-wave (km/s) = -2.84529 3.44343 1.37141
# Velocity P-wave (km/s) = 2.49849 6.25325 4.76160
#
# Compressibility (1/GPa) = 0.02470544
#
# Stress axis : x y z
#
# Youngs Moduli (GPa) = 57.11464 70.54471 72.56704
#
# Poissons Ratio (x) = 0.08799 0.43820
# Poissons Ratio (y) = 0.07124 0.22449
# Poissons Ratio (z) = 0.34489 0.21824
#
# Static dielectric constant tensor:
#      x y z
#    x 1.975170 0.000000 -0.008480 
#    y 0.000000 1.945760 0.000000 
#    z -0.008480 0.000000 1.943800 
# 
# From -- ./inp_files/105232.got.cif
#   From: 2010.05.17/outbox.cif.g08.bks.cpg/sg15_53_cif.got.tgz:105232.got - 2010.06.03 18:47:42.
