data_PCOD9274545
_publ_section_title
;
Structure prediction by ZEFSAII (Michael W. Deem and Ramdas Pophale) SiO2 
 PCOD9274545
Probable space group: C 2/C
;
_chemical_formula_sum "Si O2"
_cell_formula_units_Z 44
_cell_length_a 10.481525
_cell_length_b 15.389220
_cell_length_c 10.120147
_cell_angle_alpha 90.000000
_cell_angle_beta 91.401294
_cell_angle_gamma 90.000000
_cell_volume 1631.916762
_symmetry_space_group_name_H-M "C 2/C"
_symmetry_group_IT_number 15
_symmetry_cell_setting 'monoclinic'
loop_
_space_group_symop_operation_xyz
x,y,z
-x,y,1/2-z
-x,-y,-z
x,-y,1/2+z
1/2+x,1/2+y,z
1/2-x,1/2+y,1/2-z
1/2-x,1/2-y,-z
1/2+x,1/2-y,1/2+z
loop_
_atom_site_type_symbol
_atom_site_label
_atom_site_fract_x
_atom_site_fract_y
_atom_site_fract_z
Si Si1 0.367773 0.209760 0.205784
Si Si2 0.500000 0.000000 0.000000
Si Si3 0.836469 0.186585 0.093716
Si Si4 0.688959 0.603005 0.800264
Si Si5 0.198226 0.002732 0.542778
Si Si6 0.937404 0.683374 0.918545
O O1 0.500000 0.162736 0.250000
O O2 0.243506 0.173300 0.272958
O O3 0.375758 0.309521 0.251492
O O4 0.364419 0.210488 0.049466
O O5 0.348747 0.019074 0.030901
O O6 0.476615 0.898513 0.039854
O O7 0.969920 0.236810 0.113396
O O8 0.750000 0.250000 0.000000
O O9 0.840933 0.093043 0.027092
O O10 0.675717 0.524404 0.696217
O O11 0.835255 0.640449 0.815516
O O12 0.641599 0.570879 0.943052
#
# Coordination Sequence:
#
# PCOD9274545 Si02
#       6
#     8   4   8   8   8   8
#     4  12  23  44  75 102 145 192 244 297 372 444
#     4  10  20  38  64 104 134 176 230 300 358 414
#     4  12  22  45  71 102 142 195 232 304 378 436
#     4  11  26  46  71 108 143 193 246 309 362 446
#     4  11  24  43  69 102 151 186 243 301 373 427
#     4  11  24  43  70 106 142 184 242 308 364 440
#
# _framework density 26.962160999999998
#
# number of rings (size 3 to 8) (size 9 to 14) (size 15 to 20)
#    0.000    0.727    5.455    0.545    5.091    6.545 
#    0.000    3.636    0.000    0.000    0.000    0.000 
#    0.000    0.000    0.000    0.000    0.000    0.000 
#
# Total GULP energy -122590.123513 kJ/mol
# GULP energy per Si atom -5572.278342 kJ/mol
# Density = 2.690079 g / cm^3
# Si number density = 26.962161 Si / 1000 Ang^3
#
#
#
# Elastic Constant Matrix: (Units=GPa)
#
#
# Indices 1 2 3 4 5 6 
#
# 1 97.5028 18.2256 56.4772 0.0000 -10.9577 0.0000
# 2 18.2256 106.5037 11.0654 0.0000 -6.7492 0.0000
# 3 56.4772 11.0654 157.0281 0.0000 -19.7723 0.0000
# 4 0.0000 0.0000 0.0000 38.5052 0.0000 0.4822
# 5 -10.9577 -6.7492 -19.7723 0.0000 27.2939 0.0000
# 6 0.0000 0.0000 0.0000 0.4822 0.0000 28.1942
#
#
#
# Elastic Compliance Matrix: (Units=1/GPa)
#
#
# Indices 1 2 3 4 5 6 
#
# 1 0.013356 -0.001713 -0.004469 0.000000 0.001701 0.000000
# 2 -0.001713 0.009783 0.000159 0.000000 0.001847 0.000000
# 3 -0.004469 0.000159 0.008521 0.000000 0.004418 0.000000
# 4 0.000000 0.000000 0.000000 0.025976 0.000000 -0.000444
# 5 0.001701 0.001847 0.004418 0.000000 0.040978 0.000000
# 6 0.000000 0.000000 0.000000 -0.000444 0.000000 0.035476
#
#
# Mechanical properties :
#
#
# Convention : Reuss Voigt Hill
#
# Bulk Modulus (GPa) = 50.98387 59.17455 55.07921
# Shear Modulus (GPa) = 32.74964 37.14976 34.94970
#
# Velocity S-wave (km/s) = 3.48897 3.71596 3.60425
# Velocity P-wave (km/s) = 5.93136 6.35658 6.14764
#
# Compressibility (1/GPa) = 0.01961405
#
# Stress axis : x y z
#
# Youngs Moduli (GPa) = 74.87247 102.21784 117.36308
#
# Poissons Ratio (x) = 0.17515 0.52446
# Poissons Ratio (y) = 0.12829 -0.01871
# Poissons Ratio (z) = 0.33459 -0.01630
#
# Static dielectric constant tensor:
#      x y z
#    x 2.140490 0.000000 0.025400 
#    y 0.000000 2.054470 0.000000 
#    z 0.025400 0.000000 2.213870 
# 
# From -- ./inp_files/86091.got.cif
#   From: 2010.05.17/outbox.cif.g08.bks.cpg/sg15_44_cif.got.tgz:86091.got - 2010.06.03 18:47:42.
