data_PCOD9274271
_publ_section_title
;
Structure prediction by ZEFSAII (Michael W. Deem and Ramdas Pophale) SiO2 
 PCOD9274271
Probable space group: C 2/C
;
_chemical_formula_sum "Si O2"
_cell_formula_units_Z 56
_cell_length_a 24.355615
_cell_length_b 8.678312
_cell_length_c 17.838418
_cell_angle_alpha 90.000000
_cell_angle_beta 41.687786
_cell_angle_gamma 90.000000
_cell_volume 2507.603238
_symmetry_space_group_name_H-M "C 2/C"
_symmetry_group_IT_number 15
_symmetry_cell_setting 'monoclinic'
loop_
_space_group_symop_operation_xyz
x,y,z
-x,y,1/2-z
-x,-y,-z
x,-y,1/2+z
1/2+x,1/2+y,z
1/2-x,1/2+y,1/2-z
1/2-x,1/2-y,-z
1/2+x,1/2-y,1/2+z
loop_
_atom_site_type_symbol
_atom_site_label
_atom_site_fract_x
_atom_site_fract_y
_atom_site_fract_z
Si Si1 0.750000 0.750000 0.500000
Si Si2 0.632797 0.182133 0.515538
Si Si3 0.919710 0.545040 0.182174
Si Si4 0.654215 0.386377 0.858351
Si Si5 0.986774 0.741963 0.989042
Si Si6 0.000000 0.469656 0.250000
Si Si7 0.767575 0.399112 0.146890
Si Si8 0.234897 0.968697 0.417286
O O1 0.747382 0.698481 0.593030
O O2 0.730708 0.571735 0.495612
O O3 0.575045 0.272502 0.515608
O O4 0.575673 0.133662 0.643453
O O5 0.708921 0.292256 0.456770
O O6 0.661396 0.022368 0.447794
O O7 0.964184 0.405734 0.094117
O O8 0.826852 0.494143 0.292066
O O9 0.965138 0.566856 0.215846
O O10 0.933092 0.691518 0.115657
O O11 0.558774 0.358009 0.938105
O O12 0.695768 0.494948 0.754005
O O13 0.700121 0.220837 0.822942
O O14 0.672564 0.463867 0.919189
#
# Coordination Sequence:
#
# PCOD9274271 Si02
#       8
#     4   8   8   8   8   4   8   8
#     4  10  26  42  62  94 130 168 226 278 330 390
#     4  11  23  40  63  92 128 167 221 273 335 399
#     4  10  20  38  62  89 126 167 213 259 328 406
#     4  11  22  39  67  97 132 171 220 272 331 394
#     4  10  21  37  62  96 127 163 212 273 330 392
#     4  10  22  36  58  92 128 170 212 266 330 396
#     4  11  22  41  67  99 131 173 225 279 332 408
#     4  11  24  43  65  94 129 177 224 276 332 402
#
# _framework density 22.332082
#
# number of rings (size 3 to 8) (size 9 to 14) (size 15 to 20)
#    0.000    1.429    0.000    6.857    0.000    7.429 
#    0.000    1.429    0.000    6.857    0.000    0.000 
#    0.000    0.000    0.000    0.000    0.000    0.000 
#
# Total GULP energy -156053.020223 kJ/mol
# GULP energy per Si atom -5573.322151 kJ/mol
# Density = 2.228125 g / cm^3
# Si number density = 22.332082 Si / 1000 Ang^3
#
#
#
# Elastic Constant Matrix: (Units=GPa)
#
#
# Indices 1 2 3 4 5 6 
#
# 1 74.7136 22.0142 41.6788 0.0000 14.2484 0.0000
# 2 22.0142 86.5322 35.9197 -0.0002 -13.5242 0.0004
# 3 41.6788 35.9197 91.1135 -0.0004 -2.4786 0.0002
# 4 0.0000 -0.0002 -0.0004 32.8295 0.0001 -5.6955
# 5 14.2484 -13.5242 -2.4786 0.0001 40.1917 0.0000
# 6 0.0000 0.0004 0.0002 -5.6955 0.0000 34.4942
#
#
#
# Elastic Compliance Matrix: (Units=1/GPa)
#
#
# Indices 1 2 3 4 5 6 
#
# 1 0.020759 -0.003152 -0.008496 0.000000 -0.008944 0.000000
# 2 -0.003152 0.015088 -0.004345 0.000000 0.005927 0.000000
# 3 -0.008496 -0.004345 0.016645 0.000000 0.002576 0.000000
# 4 0.000000 0.000000 0.000000 0.031359 0.000000 0.005178
# 5 -0.008944 0.005927 0.002576 0.000000 0.030205 0.000000
# 6 0.000000 0.000000 0.000000 0.005178 0.000000 0.029845
#
#
# Mechanical properties :
#
#
# Convention : Reuss Voigt Hill
#
# Bulk Modulus (GPa) = 48.76966 50.17608 49.47287
# Shear Modulus (GPa) = 27.36393 31.68619 29.52506
#
# Velocity S-wave (km/s) = 3.50425 3.77087 3.64000
# Velocity P-wave (km/s) = 6.18537 6.44020 6.31407
#
# Compressibility (1/GPa) = 0.02050455
#
# Stress axis : x y z
#
# Youngs Moduli (GPa) = 48.17300 66.27688 60.07808
#
# Poissons Ratio (x) = 0.20890 0.51045
# Poissons Ratio (y) = 0.15184 0.26105
# Poissons Ratio (z) = 0.40930 0.28798
#
# Static dielectric constant tensor:
#      x y z
#    x 1.841250 0.000000 -0.007270 
#    y 0.000000 1.881610 0.000000 
#    z -0.007270 0.000000 1.874930 
# 
# From -- ./inp_files/222042.got.cif
#   From: 2010.05.17/outbox.cif.g08.bks.cpg/sg15_112_cif.got.tgz:222042.got - 2010.06.03 18:47:42.
