data_PCOD9274021
_publ_section_title
;
Structure prediction by ZEFSAII (Michael W. Deem and Ramdas Pophale) SiO2 
 PCOD9274021
Probable space group: C 2/C
;
_chemical_formula_sum "Si O2"
_cell_formula_units_Z 56
_cell_length_a 21.988469
_cell_length_b 12.349396
_cell_length_c 13.183038
_cell_angle_alpha 90.000000
_cell_angle_beta 129.860888
_cell_angle_gamma 90.000000
_cell_volume 2747.848534
_symmetry_space_group_name_H-M "C 2/C"
_symmetry_group_IT_number 15
_symmetry_cell_setting 'monoclinic'
loop_
_space_group_symop_operation_xyz
x,y,z
-x,y,1/2-z
-x,-y,-z
x,-y,1/2+z
1/2+x,1/2+y,z
1/2-x,1/2+y,1/2-z
1/2-x,1/2-y,-z
1/2+x,1/2-y,1/2+z
loop_
_atom_site_type_symbol
_atom_site_label
_atom_site_fract_x
_atom_site_fract_y
_atom_site_fract_z
Si Si1 0.131786 0.213128 0.815329
Si Si2 0.548218 0.049244 0.958350
Si Si3 0.016453 0.116881 0.559519
Si Si4 0.124104 0.149455 0.488126
Si Si5 0.500000 0.877146 0.750000
Si Si6 0.500000 0.225510 0.750000
Si Si7 0.651713 0.393202 0.541681
Si Si8 0.201524 0.682025 0.189892
O O1 0.079272 0.113692 0.717118
O O2 0.064666 0.303350 0.763771
O O3 0.182229 0.258077 0.775983
O O4 0.172138 0.171249 0.960308
O O5 0.502301 0.144398 0.848497
O O6 0.550390 0.952437 0.879470
O O7 0.632333 0.097178 0.085205
O O8 0.500000 0.000000 0.000000
O O9 0.061612 0.171792 0.514210
O O10 0.932277 0.156262 0.510603
O O11 0.000000 0.000000 0.500000
O O12 0.077156 0.197761 0.342097
O O13 0.197793 0.225027 0.599328
O O14 0.141994 0.021698 0.507043
O O15 0.716140 0.376619 0.698445
#
# Coordination Sequence:
#
# PCOD9274021 Si02
#       8
#     8   8   8   8   4   4   8   8
#     4  11  20  35  57  91 113 148 202 240 284 357
#     4  10  20  38  61  82 115 157 199 237 287 350
#     4   9  19  34  57  84 112 153 194 232 284 355
#     4   9  21  38  59  84 115 154 196 240 288 350
#     4  11  20  33  62  90 106 153 208 239 278 346
#     4   9  20  35  64  86 110 149 200 247 280 334
#     4  11  21  35  59  88 119 152 189 244 303 346
#     4  10  22  40  57  86 122 154 190 240 305 350
#
# _framework density 20.379581000000002
#
# number of rings (size 3 to 8) (size 9 to 14) (size 15 to 20)
#    0.000    2.000    2.857    0.429    4.000    1.143 
#    0.000    1.429    0.000    2.571    0.000    0.000 
#    0.000    0.000    0.000    0.000    0.000    0.000 
#
# Total GULP energy -155977.061206 kJ/mol
# GULP energy per Si atom -5570.609329 kJ/mol
# Density = 2.033320 g / cm^3
# Si number density = 20.379581 Si / 1000 Ang^3
#
#
#
# Elastic Constant Matrix: (Units=GPa)
#
#
# Indices 1 2 3 4 5 6 
#
# 1 10.1123 -3.3519 7.9776 0.0000 -3.6034 0.0000
# 2 -3.3519 86.9194 40.6289 0.0000 2.0924 0.0000
# 3 7.9776 40.6289 147.5121 0.0000 11.2045 0.0000
# 4 0.0000 0.0000 0.0000 21.8981 0.0000 -2.9139
# 5 -3.6034 2.0924 11.2045 0.0000 19.9117 0.0000
# 6 0.0000 0.0000 0.0000 -2.9139 0.0000 18.3364
#
#
#
# Elastic Compliance Matrix: (Units=1/GPa)
#
#
# Indices 1 2 3 4 5 6 
#
# 1 0.120315 0.009171 -0.011087 0.000000 0.027049 0.000000
# 2 0.009171 0.013913 -0.004537 0.000000 0.002751 0.000000
# 3 -0.011087 -0.004537 0.009135 0.000000 -0.006670 0.000000
# 4 0.000000 0.000000 0.000000 0.046653 0.000000 0.007414
# 5 0.027049 0.002751 -0.006670 0.000000 0.058581 0.000000
# 6 0.000000 0.000000 0.000000 0.007414 0.000000 0.055714
#
#
# Mechanical properties :
#
#
# Convention : Reuss Voigt Hill
#
# Bulk Modulus (GPa) = 7.66534 37.22811 22.44673
# Shear Modulus (GPa) = 13.86181 25.31520 19.58850
#
# Velocity S-wave (km/s) = 2.61086 3.52829 3.10366
# Velocity P-wave (km/s) = 3.58584 5.90808 4.88690
#
# Compressibility (1/GPa) = 0.13045732
#
# Stress axis : x y z
#
# Youngs Moduli (GPa) = 8.31148 71.87474 109.46956
#
# Poissons Ratio (x) = -0.65918 1.21373
# Poissons Ratio (y) = -0.07623 0.49666
# Poissons Ratio (z) = 0.09215 0.32609
#
# Static dielectric constant tensor:
#      x y z
#    x 2.238050 0.000000 -0.651340 
#    y 0.000000 1.761360 0.000000 
#    z -0.651340 0.000000 2.674570 
# 
# From -- ./inp_files/177653.got.cif
#   From: 2010.05.17/outbox.cif.g08.bks.cpg/sg15_89_cif.got.tgz:177653.got - 2010.06.03 18:47:42.
