data_PCOD9274507
_publ_section_title
;
Structure prediction by ZEFSAII (Michael W. Deem and Ramdas Pophale) SiO2 
 PCOD9274507
Probable space group: C 2/C
;
_chemical_formula_sum "Si O2"
_cell_formula_units_Z 56
_cell_length_a 14.451494
_cell_length_b 9.581744
_cell_length_c 20.215261
_cell_angle_alpha 90.000000
_cell_angle_beta 91.758293
_cell_angle_gamma 90.000000
_cell_volume 2797.899637
_symmetry_space_group_name_H-M "C 2/C"
_symmetry_group_IT_number 15
_symmetry_cell_setting 'monoclinic'
loop_
_space_group_symop_operation_xyz
x,y,z
-x,y,1/2-z
-x,-y,-z
x,-y,1/2+z
1/2+x,1/2+y,z
1/2-x,1/2+y,1/2-z
1/2-x,1/2-y,-z
1/2+x,1/2-y,1/2+z
loop_
_atom_site_type_symbol
_atom_site_label
_atom_site_fract_x
_atom_site_fract_y
_atom_site_fract_z
Si Si1 0.096020 0.147104 0.779766
Si Si2 0.568901 0.963766 0.802028
Si Si3 0.721858 0.453391 0.167779
Si Si4 0.094301 0.867872 0.569855
Si Si5 0.601057 0.531623 0.922409
Si Si6 0.795948 0.751600 0.571816
Si Si7 0.989162 0.582023 0.568180
O O1 0.089652 0.312827 0.771641
O O2 0.172324 0.077343 0.735554
O O3 0.105765 0.126411 0.858067
O O4 0.000000 0.085760 0.750000
O O5 0.500000 0.041423 0.750000
O O6 0.670842 0.021912 0.814997
O O7 0.516438 0.973400 0.871184
O O8 0.670928 0.573320 0.122922
O O9 0.724804 0.316349 0.121585
O O10 0.120540 0.895569 0.493401
O O11 0.065034 0.705870 0.577944
O O12 0.001348 0.961633 0.577699
O O13 0.673122 0.407368 0.911714
O O14 0.750000 0.750000 0.500000
O O15 0.890456 0.662011 0.567927
O O16 0.000000 0.500000 0.500000
#
# Coordination Sequence:
#
# PCOD9274507 Si02
#       7
#     8   8   8   8   8   8   8
#     4  11  23  41  65  91 128 170 217 267 320 396
#     4  10  25  45  59  90 132 171 214 262 328 393
#     4  11  23  41  62  98 127 169 222 269 324 387
#     4  10  20  38  67  94 125 159 219 271 314 388
#     4  10  20  38  63  96 121 167 209 264 329 375
#     4  10  21  39  62  91 130 163 211 267 318 387
#     4  10  22  42  65  90 127 170 208 265 329 380
#
# _framework density 20.015014000000001
#
# number of rings (size 3 to 8) (size 9 to 14) (size 15 to 20)
#    0.000    1.714    2.857    0.857    2.000    3.429 
#    7.714    2.143    0.000    0.000    0.000    0.000 
#    0.000    0.000    0.000    0.000    0.000    0.000 
#
# Total GULP energy -156156.404877 kJ/mol
# GULP energy per Si atom -5577.014460 kJ/mol
# Density = 1.996946 g / cm^3
# Si number density = 20.015014 Si / 1000 Ang^3
#
#
#
# Elastic Constant Matrix: (Units=GPa)
#
#
# Indices 1 2 3 4 5 6 
#
# 1 74.0836 29.8944 46.2269 0.0000 5.0003 0.0000
# 2 29.8944 42.7501 13.5222 0.0000 -3.0000 0.0000
# 3 46.2269 13.5222 128.2911 0.0000 -8.3471 0.0000
# 4 0.0000 0.0000 0.0000 33.2401 0.0000 -0.2429
# 5 5.0003 -3.0000 -8.3471 0.0000 37.1953 0.0000
# 6 0.0000 0.0000 0.0000 -0.2429 0.0000 18.7761
#
#
#
# Elastic Compliance Matrix: (Units=1/GPa)
#
#
# Indices 1 2 3 4 5 6 
#
# 1 0.025054 -0.015497 -0.007809 0.000000 -0.006370 0.000000
# 2 -0.015497 0.033856 0.002363 0.000000 0.005344 0.000000
# 3 -0.007809 0.002363 0.010595 0.000000 0.003618 0.000000
# 4 0.000000 0.000000 0.000000 0.030087 0.000000 0.000389
# 5 -0.006370 0.005344 0.003618 0.000000 0.028984 0.000000
# 6 0.000000 0.000000 0.000000 0.000389 0.000000 0.053264
#
#
# Mechanical properties :
#
#
# Convention : Reuss Voigt Hill
#
# Bulk Modulus (GPa) = 36.20575 47.15687 41.68131
# Shear Modulus (GPa) = 21.46541 28.20772 24.83657
#
# Velocity S-wave (km/s) = 3.27840 3.75817 3.52646
# Velocity P-wave (km/s) = 5.69729 6.51489 6.11976
#
# Compressibility (1/GPa) = 0.02761992
#
# Stress axis : x y z
#
# Youngs Moduli (GPa) = 39.91345 29.53671 94.38586
#
# Poissons Ratio (x) = 0.45773 0.73704
# Poissons Ratio (y) = 0.61854 -0.22306
# Poissons Ratio (z) = 0.31168 -0.06980
#
# Static dielectric constant tensor:
#      x y z
#    x 1.764140 0.000000 0.039160 
#    y 0.000000 1.713980 0.000000 
#    z 0.039160 0.000000 1.722030 
# 
# From -- ./inp_files/242821.got.cif
#   From: 2010.05.17/outbox.cif.g08.bks.cpg/sg15_122_cif.got.tgz:242821.got - 2010.06.03 18:47:42.
