data_PCOD9274682
_publ_section_title
;
Structure prediction by ZEFSAII (Michael W. Deem and Ramdas Pophale) SiO2 
 PCOD9274682
Probable space group: C 2/C
;
_chemical_formula_sum "Si O2"
_cell_formula_units_Z 52
_cell_length_a 6.043245
_cell_length_b 23.379392
_cell_length_c 26.011401
_cell_angle_alpha 90.000000
_cell_angle_beta 139.997591
_cell_angle_gamma 90.000000
_cell_volume 2362.416220
_symmetry_space_group_name_H-M "C 2/C"
_symmetry_group_IT_number 15
_symmetry_cell_setting 'monoclinic'
loop_
_space_group_symop_operation_xyz
x,y,z
-x,y,1/2-z
-x,-y,-z
x,-y,1/2+z
1/2+x,1/2+y,z
1/2-x,1/2+y,1/2-z
1/2-x,1/2-y,-z
1/2+x,1/2-y,1/2+z
loop_
_atom_site_type_symbol
_atom_site_label
_atom_site_fract_x
_atom_site_fract_y
_atom_site_fract_z
Si Si1 0.159383 0.960508 0.331768
Si Si2 0.260725 0.230114 0.569014
Si Si3 0.397908 0.076366 0.336537
Si Si4 0.086877 0.334556 0.957134
Si Si5 0.000000 0.530698 0.250000
Si Si6 0.208317 0.276376 0.240366
Si Si7 0.761780 0.152634 0.601438
O O1 0.332063 0.907943 0.390592
O O2 0.000000 0.938640 0.250000
O O3 0.409414 0.012997 0.363203
O O4 0.831777 0.990227 0.301097
O O5 0.421423 0.202279 0.649429
O O6 0.498403 0.204403 0.567098
O O7 0.237466 0.296150 0.582405
O O8 0.878845 0.208661 0.489334
O O9 0.511145 0.121455 0.398781
O O10 0.576191 0.070231 0.313023
O O11 0.000000 0.086495 0.250000
O O12 0.248613 0.358339 0.038492
O O13 0.500000 0.253100 0.250000
O O14 0.402416 0.324984 0.308056
O O15 0.000000 0.243105 0.250000
#
# Coordination Sequence:
#
# PCOD9274682 Si02
#       7
#     8   8   8   8   4   8   8
#     4   9  19  36  63  93 124 163 212 270 326 407
#     4  10  23  40  58  90 130 171 221 268 332 400
#     4   9  21  41  62  91 122 167 223 270 331 407
#     4  11  23  40  62  87 131 169 215 280 328 399
#     4   8  18  38  64  90 126 164 218 268 336 398
#     4  10  20  38  64  93 128 168 223 273 332 406
#     4  11  22  38  65  94 131 166 212 279 340 402
#
# _framework density 22.011364
#
# number of rings (size 3 to 8) (size 9 to 14) (size 15 to 20)
#    0.000    2.462    1.538    1.846    1.077    6.154 
#    0.000    1.538   15.231    0.000    0.000    0.000 
#    0.000    0.000    0.000    0.000    0.000    0.000 
#
# Total GULP energy -144736.980356 kJ/mol
# GULP energy per Si atom -5566.806937 kJ/mol
# Density = 2.196127 g / cm^3
# Si number density = 22.011364 Si / 1000 Ang^3
#
#
#
# Elastic Constant Matrix: (Units=GPa)
#
#
# Indices 1 2 3 4 5 6 
#
# 1 102.0743 32.5299 40.6599 0.0000 -38.3013 0.0000
# 2 32.5299 109.1026 57.2169 0.0000 -24.2644 0.0000
# 3 40.6599 57.2169 88.7573 0.0000 -24.5764 0.0000
# 4 0.0000 0.0000 0.0000 29.8861 0.0000 -11.4534
# 5 -38.3013 -24.2644 -24.5764 0.0000 39.3926 0.0000
# 6 0.0000 0.0000 0.0000 -11.4534 0.0000 -11.1205
#
#
#
# Elastic Compliance Matrix: (Units=1/GPa)
#
#
# Indices 1 2 3 4 5 6 
#
# 1 0.016393 0.000157 -0.003833 0.000000 0.013645 0.000000
# 2 0.000157 0.014279 -0.008219 0.000000 0.003820 0.000000
# 3 -0.003833 -0.008219 0.019205 0.000000 0.003192 0.000000
# 4 0.000000 0.000000 0.000000 0.023991 0.000000 -0.024709
# 5 0.013645 0.003820 0.003192 0.000000 0.042997 0.000000
# 6 0.000000 0.000000 0.000000 -0.024709 0.000000 -0.064475
#
#
# Mechanical properties :
#
#
# Convention : Reuss Voigt Hill
#
# Bulk Modulus (GPa) = 38.33303 62.30528 50.31916
# Shear Modulus (GPa) = 58.91051 22.93349 40.92200
#
# Velocity S-wave (km/s) = 5.17897 3.23134 4.31644
# Velocity P-wave (km/s) = 7.29488 6.50304 6.91031
#
# Compressibility (1/GPa) = 0.02608716
#
# Stress axis : x y z
#
# Youngs Moduli (GPa) = 61.00002 70.03438 52.07085
#
# Poissons Ratio (x) = -0.01098 0.19958
# Poissons Ratio (y) = -0.00956 0.42796
# Poissons Ratio (z) = 0.23380 0.57559
#
# Static dielectric constant tensor:
#      x y z
#    x 1.967920 0.000000 -0.004830 
#    y 0.000000 1.804410 0.000000 
#    z -0.004830 0.000000 1.805500 
# 
# From -- ./inp_files/261845.got.cif
#   From: 2010.05.17/outbox.cif.g08.bks.cpg/sg15_131_cif.got.tgz:261845.got - 2010.06.03 18:47:42.
