data_PCOD9274250
_publ_section_title
;
Structure prediction by ZEFSAII (Michael W. Deem and Ramdas Pophale) SiO2 
 PCOD9274250
Probable space group: C 2/C
;
_chemical_formula_sum "Si O2"
_cell_formula_units_Z 36
_cell_length_a 12.869438
_cell_length_b 14.400508
_cell_length_c 7.516943
_cell_angle_alpha 90.000000
_cell_angle_beta 65.815694
_cell_angle_gamma 90.000000
_cell_volume 1270.820255
_symmetry_space_group_name_H-M "C 2/C"
_symmetry_group_IT_number 15
_symmetry_cell_setting 'monoclinic'
loop_
_space_group_symop_operation_xyz
x,y,z
-x,y,1/2-z
-x,-y,-z
x,-y,1/2+z
1/2+x,1/2+y,z
1/2-x,1/2+y,1/2-z
1/2-x,1/2-y,-z
1/2+x,1/2-y,1/2+z
loop_
_atom_site_type_symbol
_atom_site_label
_atom_site_fract_x
_atom_site_fract_y
_atom_site_fract_z
Si Si1 0.728218 0.814046 0.689207
Si Si2 0.292399 0.858761 0.310701
Si Si3 0.871619 0.473181 0.915708
Si Si4 0.973567 0.895083 0.973737
Si Si5 0.500000 0.264878 0.250000
O O1 0.750000 0.750000 0.500000
O O2 0.794923 0.753308 0.790878
O O3 0.725287 0.922274 0.639171
O O4 0.591230 0.795568 0.791472
O O5 0.158632 0.879043 0.389929
O O6 0.337328 0.917601 0.447554
O O7 0.359502 0.911793 0.103399
O O8 0.000000 0.471140 0.750000
O O9 0.000000 0.876563 0.750000
O O10 0.044363 0.832834 0.063286
O O11 0.000000 0.000000 0.000000
#
# Coordination Sequence:
#
# PCOD9274250 Si02
#       5
#     8   8   8   8   4
#     4   9  20  38  63  90 124 166 219 259 326 397
#     4  10  23  39  61  98 126 166 222 267 321 397
#     4  11  21  41  70  91 126 176 216 265 330 394
#     4  11  21  35  60  94 132 169 215 271 333 394
#     4  10  20  38  62  88 126 170 218 264 332 394
#
# _framework density 28.328157999999998
#
# number of rings (size 3 to 8) (size 9 to 14) (size 15 to 20)
#    0.000    1.778    2.222    2.000    6.222    0.000 
#    0.000    1.111   14.667    0.000   11.556    0.000 
#    0.000    0.000    0.000    0.000    0.000    0.000 
#
# Total GULP energy -100622.131417 kJ/mol
# GULP energy per Si atom -5590.118412 kJ/mol
# Density = 2.826368 g / cm^3
# Si number density = 28.328158 Si / 1000 Ang^3
#
#
#
# Elastic Constant Matrix: (Units=GPa)
#
#
# Indices 1 2 3 4 5 6 
#
# 1 104.0874 71.3532 42.6234 0.0000 -9.9062 0.0000
# 2 71.3532 175.9994 -2.5951 0.0000 4.2627 0.0000
# 3 42.6234 -2.5951 136.2383 0.0000 19.1809 0.0000
# 4 0.0000 0.0000 0.0000 32.4633 0.0000 7.1916
# 5 -9.9062 4.2627 19.1809 0.0000 61.6628 0.0000
# 6 0.0000 0.0000 0.0000 7.1916 0.0000 72.9251
#
#
#
# Elastic Compliance Matrix: (Units=1/GPa)
#
#
# Indices 1 2 3 4 5 6 
#
# 1 0.017932 -0.007497 -0.006517 0.000000 0.005426 0.000000
# 2 -0.007497 0.008830 0.002896 0.000000 -0.002716 0.000000
# 3 -0.006517 0.002896 0.010050 0.000000 -0.004373 0.000000
# 4 0.000000 0.000000 0.000000 0.031492 0.000000 -0.003106
# 5 0.005426 -0.002716 -0.004373 0.000000 0.018637 0.000000
# 6 0.000000 0.000000 0.000000 -0.003106 0.000000 0.014019
#
#
# Mechanical properties :
#
#
# Convention : Reuss Voigt Hill
#
# Bulk Modulus (GPa) = 68.60917 71.00980 69.80948
# Shear Modulus (GPa) = 39.04579 53.73981 46.39280
#
# Velocity S-wave (km/s) = 3.71663 4.36023 4.05123
# Velocity P-wave (km/s) = 6.53374 7.10423 6.82495
#
# Compressibility (1/GPa) = 0.01457531
#
# Stress axis : x y z
#
# Youngs Moduli (GPa) = 55.76616 113.25134 99.50392
#
# Poissons Ratio (x) = 0.84910 0.64846
# Poissons Ratio (y) = 0.41810 -0.28818
# Poissons Ratio (z) = 0.36343 -0.32800
#
# Static dielectric constant tensor:
#      x y z
#    x 2.276090 0.000000 0.009550 
#    y 0.000000 2.293820 0.000000 
#    z 0.009550 0.000000 2.508870 
# 
# From -- ./inp_files/38514.got.cif
#   From: 2010.05.17/outbox.cif.g08.bks.cpg/sg15_20_cif.got.tgz:38514.got - 2010.06.03 18:47:42.
