data_PCOD9274494
_publ_section_title
;
Structure prediction by ZEFSAII (Michael W. Deem and Ramdas Pophale) SiO2 
 PCOD9274494
Probable space group: C 2/C
;
_chemical_formula_sum "Si O2"
_cell_formula_units_Z 64
_cell_length_a 15.066558
_cell_length_b 14.960672
_cell_length_c 15.897598
_cell_angle_alpha 90.000000
_cell_angle_beta 50.569168
_cell_angle_gamma 90.000000
_cell_volume 2767.797872
_symmetry_space_group_name_H-M "C 2/C"
_symmetry_group_IT_number 15
_symmetry_cell_setting 'monoclinic'
loop_
_space_group_symop_operation_xyz
x,y,z
-x,y,1/2-z
-x,-y,-z
x,-y,1/2+z
1/2+x,1/2+y,z
1/2-x,1/2+y,1/2-z
1/2-x,1/2-y,-z
1/2+x,1/2-y,1/2+z
loop_
_atom_site_type_symbol
_atom_site_label
_atom_site_fract_x
_atom_site_fract_y
_atom_site_fract_z
Si Si1 0.224400 0.312987 0.437692
Si Si2 0.209283 0.436333 0.025409
Si Si3 0.232969 0.309003 0.155763
Si Si4 0.041957 0.099177 0.952784
Si Si5 0.476167 0.923478 0.854136
Si Si6 0.629529 0.126460 0.407348
Si Si7 0.567139 0.235875 0.890363
Si Si8 0.913676 0.059939 0.868217
O O1 0.250000 0.250000 0.500000
O O2 0.118800 0.371375 0.535393
O O3 0.180435 0.264902 0.381113
O O4 0.335438 0.373766 0.360561
O O5 0.218483 0.342116 0.068195
O O6 0.093409 0.485899 0.125074
O O7 0.198779 0.433187 0.930880
O O8 0.324894 0.493757 0.968538
O O9 0.321108 0.384992 0.137420
O O10 0.298360 0.217491 0.139906
O O11 0.110871 0.292912 0.272957
O O12 0.980917 0.115316 0.899526
O O13 0.995822 0.170447 0.050366
O O14 0.000000 0.000000 0.000000
O O15 0.500000 0.878985 0.750000
O O16 0.588195 0.920592 0.846584
O O17 0.517102 0.158610 0.526076
O O18 0.000000 0.014384 0.750000
#
# Coordination Sequence:
#
# PCOD9274494 Si02
#       8
#     8   8   8   8   8   8   8   8
#     4  10  20  38  63  93 134 166 221 284 337 423
#     4  11  24  45  64  98 137 178 233 284 339 424
#     4  11  24  42  70  98 134 186 231 279 349 416
#     4  11  22  43  65  97 142 174 235 294 344 423
#     4  10  24  41  67  99 130 175 222 284 348 405
#     4  10  24  45  65  96 137 171 231 291 333 416
#     4  10  23  41  66  97 130 179 224 284 353 407
#     4  11  23  40  64  97 133 184 224 286 359 410
#
# _framework density 23.123076000000001
#
# number of rings (size 3 to 8) (size 9 to 14) (size 15 to 20)
#    0.000    1.500    2.500    1.500    3.500    1.500 
#    2.250    0.000    0.000    0.000    0.000    0.000 
#    0.000    0.000    0.000    0.000    0.000    0.000 
#
# Total GULP energy -178499.963202 kJ/mol
# GULP energy per Si atom -5578.123850 kJ/mol
# Density = 2.307045 g / cm^3
# Si number density = 23.123076 Si / 1000 Ang^3
#
#
#
# Elastic Constant Matrix: (Units=GPa)
#
#
# Indices 1 2 3 4 5 6 
#
# 1 99.0744 9.1541 15.5562 0.0000 13.9191 0.0000
# 2 9.1541 60.9509 19.0208 0.0000 -5.9185 0.0000
# 3 15.5562 19.0208 94.0730 0.0000 0.4100 0.0000
# 4 0.0000 0.0000 0.0000 8.9050 0.0000 9.0722
# 5 13.9191 -5.9185 0.4100 0.0000 21.4379 0.0000
# 6 0.0000 0.0000 0.0000 9.0722 0.0000 28.7855
#
#
#
# Elastic Compliance Matrix: (Units=1/GPa)
#
#
# Indices 1 2 3 4 5 6 
#
# 1 0.011657 -0.002079 -0.001472 0.000000 -0.008114 0.000000
# 2 -0.002079 0.018413 -0.003408 0.000000 0.006499 0.000000
# 3 -0.001472 -0.003408 0.011563 0.000000 -0.000206 0.000000
# 4 0.000000 0.000000 0.000000 0.165406 0.000000 -0.052130
# 5 -0.008114 0.006499 -0.000206 0.000000 0.053713 0.000000
# 6 0.000000 0.000000 0.000000 -0.052130 0.000000 0.051169
#
#
# Mechanical properties :
#
#
# Convention : Reuss Voigt Hill
#
# Bulk Modulus (GPa) = 36.08020 37.95118 37.01569
# Shear Modulus (GPa) = 14.92194 25.85016 20.38605
#
# Velocity S-wave (km/s) = 2.54308 3.34718 2.97245
# Velocity P-wave (km/s) = 4.92549 5.60237 5.27480
#
# Compressibility (1/GPa) = 0.02771603
#
# Stress axis : x y z
#
# Youngs Moduli (GPa) = 85.78823 54.30843 86.48050
#
# Poissons Ratio (x) = 0.11292 0.12728
# Poissons Ratio (y) = 0.17838 0.29468
# Poissons Ratio (z) = 0.12626 0.18506
#
# Static dielectric constant tensor:
#      x y z
#    x 1.858230 0.000000 -0.018210 
#    y 0.000000 1.916260 0.000000 
#    z -0.018210 0.000000 1.884230 
# 
# From -- ./inp_files/155469.got.cif
#   From: 2010.05.17/outbox.cif.g08.bks.cpg/sg15_78_cif.got.tgz:155469.got - 2010.06.03 18:47:42.
