data_PCOD9274107
_publ_section_title
;
Structure prediction by ZEFSAII (Michael W. Deem and Ramdas Pophale) SiO2 
 PCOD9274107
Probable space group: C 2/C
;
_chemical_formula_sum "Si O2"
_cell_formula_units_Z 60
_cell_length_a 20.418205
_cell_length_b 18.738360
_cell_length_c 7.557000
_cell_angle_alpha 90.000000
_cell_angle_beta 65.906933
_cell_angle_gamma 90.000000
_cell_volume 2639.453139
_symmetry_space_group_name_H-M "C 2/C"
_symmetry_group_IT_number 15
_symmetry_cell_setting 'monoclinic'
loop_
_space_group_symop_operation_xyz
x,y,z
-x,y,1/2-z
-x,-y,-z
x,-y,1/2+z
1/2+x,1/2+y,z
1/2-x,1/2+y,1/2-z
1/2-x,1/2-y,-z
1/2+x,1/2-y,1/2+z
loop_
_atom_site_type_symbol
_atom_site_label
_atom_site_fract_x
_atom_site_fract_y
_atom_site_fract_z
Si Si1 0.120001 0.005712 0.781787
Si Si2 0.990449 0.898658 0.544483
Si Si3 0.157024 0.404994 0.032622
Si Si4 0.079979 0.530104 0.944884
Si Si5 0.000000 0.629229 0.250000
Si Si6 0.834103 0.750386 0.947212
Si Si7 0.308568 0.407382 0.066275
Si Si8 0.530646 0.238155 0.913232
O O1 0.086540 0.934008 0.911540
O O2 0.140891 0.967284 0.576412
O O3 0.189584 0.055875 0.744995
O O4 0.051904 0.058250 0.874072
O O5 0.992569 0.815996 0.497247
O O6 0.000000 0.903914 0.750000
O O7 0.136703 0.467518 0.919946
O O8 0.103073 0.421277 0.255013
O O9 0.149883 0.323993 0.969754
O O10 0.235382 0.408084 0.037175
O O11 0.068220 0.578710 0.132686
O O12 0.000000 0.500000 0.000000
O O13 0.998906 0.679409 0.421903
O O14 0.843929 0.828743 0.021708
O O15 0.883697 0.743559 0.717947
O O16 0.750000 0.750000 0.000000
O O17 0.500000 0.227103 0.750000
#
# Coordination Sequence:
#
# PCOD9274107 Si02
#       8
#     8   8   8   8   4   8   8   8
#     4  11  20  36  60  89 130 162 213 270 301 390
#     4  10  20  38  61  90 131 176 217 254 331 393
#     4  11  24  41  68  89 127 172 215 275 333 407
#     4  12  24  44  65  96 126 165 220 284 344 394
#     4  12  26  40  68 104 132 160 232 284 336 408
#     4  10  22  41  65  90 127 179 223 263 334 415
#     4  11  22  40  62  95 126 172 222 255 335 400
#     4  11  23  42  69  98 134 181 223 276 337 404
#
# _framework density 22.731981999999999
#
# number of rings (size 3 to 8) (size 9 to 14) (size 15 to 20)
#    0.000    1.067    5.333    1.600    1.867    1.067 
#    0.000    0.000    0.000    0.800    0.000    0.000 
#    0.000    0.000    0.000    0.000    0.000    0.000 
#
# Total GULP energy -167211.829616 kJ/mol
# GULP energy per Si atom -5573.727654 kJ/mol
# Density = 2.268024 g / cm^3
# Si number density = 22.731982 Si / 1000 Ang^3
#
#
#
# Elastic Constant Matrix: (Units=GPa)
#
#
# Indices 1 2 3 4 5 6 
#
# 1 93.9753 37.8528 0.7667 0.0000 -5.8925 0.0000
# 2 37.8528 188.0088 23.6582 0.0000 18.9413 0.0000
# 3 0.7667 23.6582 48.8941 0.0000 0.1205 0.0000
# 4 0.0000 0.0000 0.0000 43.5359 0.0000 0.3615
# 5 -5.8925 18.9413 0.1205 0.0000 22.1452 0.0000
# 6 0.0000 0.0000 0.0000 0.3615 0.0000 32.2860
#
#
#
# Elastic Compliance Matrix: (Units=1/GPa)
#
#
# Indices 1 2 3 4 5 6 
#
# 1 0.012325 -0.003265 0.001372 0.000000 0.006065 0.000000
# 2 -0.003265 0.007097 -0.003366 0.000000 -0.006921 0.000000
# 3 0.001372 -0.003366 0.022052 0.000000 0.003124 0.000000
# 4 0.000000 0.000000 0.000000 0.022972 0.000000 -0.000257
# 5 0.006065 -0.006921 0.003124 0.000000 0.052673 0.000000
# 6 0.000000 0.000000 0.000000 -0.000257 0.000000 0.030976
#
#
# Mechanical properties :
#
#
# Convention : Reuss Voigt Hill
#
# Bulk Modulus (GPa) = 32.30427 50.60375 41.45401
# Shear Modulus (GPa) = 29.59775 37.50013 33.54894
#
# Velocity S-wave (km/s) = 3.61228 4.06601 3.84584
# Velocity P-wave (km/s) = 5.62493 6.65978 6.16411
#
# Compressibility (1/GPa) = 0.03095566
#
# Stress axis : x y z
#
# Youngs Moduli (GPa) = 81.13345 140.90317 45.34790
#
# Poissons Ratio (x) = 0.46007 -0.06220
# Poissons Ratio (y) = 0.26491 0.15263
# Poissons Ratio (z) = -0.11129 0.47425
#
# Static dielectric constant tensor:
#      x y z
#    x 1.943350 0.000000 0.090920 
#    y 0.000000 1.338900 0.000000 
#    z 0.090920 0.000000 2.010330 
# 
# From -- ./inp_files/56568.got.cif
#   From: 2010.05.17/outbox.cif.g08.bks.cpg/sg15_29_cif.got.tgz:56568.got - 2010.06.03 18:47:42.
