data_PCOD9274245
_publ_section_title
;
Structure prediction by ZEFSAII (Michael W. Deem and Ramdas Pophale) SiO2 
 PCOD9274245
Probable space group: C 2/C
;
_chemical_formula_sum "Si O2"
_cell_formula_units_Z 64
_cell_length_a 13.728534
_cell_length_b 11.445482
_cell_length_c 24.257662
_cell_angle_alpha 90.000000
_cell_angle_beta 42.175602
_cell_angle_gamma 90.000000
_cell_volume 2559.126832
_symmetry_space_group_name_H-M "C 2/C"
_symmetry_group_IT_number 15
_symmetry_cell_setting 'monoclinic'
loop_
_space_group_symop_operation_xyz
x,y,z
-x,y,1/2-z
-x,-y,-z
x,-y,1/2+z
1/2+x,1/2+y,z
1/2-x,1/2+y,1/2-z
1/2-x,1/2-y,-z
1/2+x,1/2-y,1/2+z
loop_
_atom_site_type_symbol
_atom_site_label
_atom_site_fract_x
_atom_site_fract_y
_atom_site_fract_z
Si Si1 0.245757 0.270268 0.201726
Si Si2 0.942844 0.979610 0.882321
Si Si3 0.425650 0.843791 0.068574
Si Si4 0.394669 0.330477 0.253698
Si Si5 0.967065 0.605266 0.087121
Si Si6 0.636239 0.500918 0.901590
Si Si7 0.567153 0.225164 0.617478
Si Si8 0.304210 0.967428 0.929909
O O1 0.336513 0.283442 0.220034
O O2 0.300573 0.144498 0.159355
O O3 0.300992 0.371293 0.138246
O O4 0.078617 0.286754 0.285196
O O5 0.875732 0.854680 0.892900
O O6 0.823471 0.044194 0.970615
O O7 0.007116 0.058391 0.806903
O O8 0.080568 0.957182 0.865700
O O9 0.255665 0.847700 0.151173
O O10 0.516102 0.769538 0.074852
O O11 0.478151 0.973134 0.062667
O O12 0.460018 0.816998 0.991063
O O13 0.500000 0.260556 0.250000
O O14 0.058933 0.603274 0.104562
O O15 0.753670 0.434428 0.889695
O O16 0.500000 0.500000 0.000000
O O17 0.658955 0.107431 0.586795
#
# Coordination Sequence:
#
# PCOD9274245 Si02
#       8
#     8   8   8   8   8   8   8   8
#     4  10  22  40  61  86 123 161 209 248 311 366
#     4  10  20  38  62  88 122 165 196 247 316 366
#     4   9  20  36  60  84 122 159 197 253 312 359
#     4  10  20  39  57  84 122 157 202 255 303 363
#     4  10  20  38  62  89 118 161 206 253 304 370
#     4   9  21  40  61  86 124 162 198 251 310 361
#     4  10  21  38  61  90 122 160 202 258 301 370
#     4  10  21  39  61  93 123 153 208 257 298 365
#
# _framework density 25.008531000000001
#
# number of rings (size 3 to 8) (size 9 to 14) (size 15 to 20)
#    0.000    2.250    0.000    1.875    3.500    1.500 
#   11.250    6.250    0.000    0.000    0.000    0.000 
#    0.000    0.000    0.000    0.000    0.000    0.000 
#
# Total GULP energy -178759.722554 kJ/mol
# GULP energy per Si atom -5586.241330 kJ/mol
# Density = 2.495161 g / cm^3
# Si number density = 25.008531 Si / 1000 Ang^3
#
#
#
# Elastic Constant Matrix: (Units=GPa)
#
#
# Indices 1 2 3 4 5 6 
#
# 1 113.8520 -21.2922 22.2700 0.0000 9.5564 0.0000
# 2 -21.2922 43.3982 18.2081 0.0000 3.8433 0.0000
# 3 22.2700 18.2081 81.5861 0.0000 -5.7875 0.0000
# 4 0.0000 0.0000 0.0000 23.4608 0.0000 -11.3425
# 5 9.5564 3.8433 -5.7875 0.0000 23.3537 0.0000
# 6 0.0000 0.0000 0.0000 -11.3425 0.0000 4.3250
#
#
#
# Elastic Compliance Matrix: (Units=1/GPa)
#
#
# Indices 1 2 3 4 5 6 
#
# 1 0.012389 0.009330 -0.006039 0.000000 -0.008102 0.000000
# 2 0.009330 0.033214 -0.010808 0.000000 -0.011962 0.000000
# 3 -0.006039 -0.010808 0.016916 0.000000 0.008442 0.000000
# 4 0.000000 0.000000 0.000000 -0.159091 0.000000 -0.417226
# 5 -0.008102 -0.011962 0.008442 0.000000 0.050196 0.000000
# 6 0.000000 0.000000 0.000000 -0.417226 0.000000 -0.862988
#
#
# Mechanical properties :
#
#
# Convention : Reuss Voigt Hill
#
# Bulk Modulus (GPa) = 21.05905 30.80090 25.92997
# Shear Modulus (GPa) = -5.69151 24.87126 9.58988
#
# Velocity S-wave (km/s) = -1.51022 3.15701 1.96035
# Velocity P-wave (km/s) = 2.32336 5.06279 3.93890
#
# Compressibility (1/GPa) = 0.04748553
#
# Stress axis : x y z
#
# Youngs Moduli (GPa) = 80.71456 30.10819 59.11498
#
# Poissons Ratio (x) = -0.28090 0.35698
# Poissons Ratio (y) = -0.75303 0.63890
# Poissons Ratio (z) = 0.48741 0.32540
#
# Static dielectric constant tensor:
#      x y z
#    x 2.020080 0.000000 0.036340 
#    y 0.000000 1.998350 0.000000 
#    z 0.036340 0.000000 1.969540 
# 
# From -- ./inp_files/296118.got.cif
#   From: 2010.05.17/outbox.cif.g08.bks.cpg/sg15_149_cif.got.tgz:296118.got - 2010.06.03 18:47:42.
