data_PCOD9274351
_publ_section_title
;
Structure prediction by ZEFSAII (Michael W. Deem and Ramdas Pophale) SiO2 
 PCOD9274351
Probable space group: C 2/C
;
_chemical_formula_sum "Si O2"
_cell_formula_units_Z 44
_cell_length_a 27.053529
_cell_length_b 5.401586
_cell_length_c 13.000306
_cell_angle_alpha 90.000000
_cell_angle_beta 110.287070
_cell_angle_gamma 90.000000
_cell_volume 1781.912802
_symmetry_space_group_name_H-M "C 2/C"
_symmetry_group_IT_number 15
_symmetry_cell_setting 'monoclinic'
loop_
_space_group_symop_operation_xyz
x,y,z
-x,y,1/2-z
-x,-y,-z
x,-y,1/2+z
1/2+x,1/2+y,z
1/2-x,1/2+y,1/2-z
1/2-x,1/2-y,-z
1/2+x,1/2-y,1/2+z
loop_
_atom_site_type_symbol
_atom_site_label
_atom_site_fract_x
_atom_site_fract_y
_atom_site_fract_z
Si Si1 0.364292 0.361998 0.928761
Si Si2 0.905506 0.137095 0.776456
Si Si3 0.822737 0.137422 0.075145
Si Si4 0.723194 0.860805 0.266797
Si Si5 0.000000 0.179834 0.250000
Si Si6 0.084239 0.505192 0.384641
O O1 0.391697 0.579250 0.883256
O O2 0.333871 0.181314 0.828355
O O3 0.318960 0.464850 0.972580
O O4 0.407929 0.228150 0.030463
O O5 0.854378 0.037468 0.677866
O O6 0.956126 0.981777 0.775917
O O7 0.915427 0.402869 0.734044
O O8 0.781262 0.279400 0.116703
O O9 0.863718 0.343493 0.066975
O O10 0.759409 0.641259 0.244237
O O11 0.968148 0.346329 0.145409
#
# Coordination Sequence:
#
# PCOD9274351 Si02
#       6
#     8   8   8   8   4   8
#     4  10  23  41  66  94 128 174 219 271 335 394
#     4   9  20  39  60  92 129 168 212 270 328 392
#     4   9  22  40  64  93 127 172 216 269 335 390
#     4  11  27  44  68 100 136 175 224 280 333 395
#     4  10  20  38  62  94 126 170 216 268 326 392
#     4  10  21  40  66  88 131 170 215 273 326 400
#
# _framework density 24.692567
#
# number of rings (size 3 to 8) (size 9 to 14) (size 15 to 20)
#    0.000    2.182    0.000    0.545   10.182    5.091 
#    0.000   12.727    0.000    0.000    0.000    0.000 
#    0.000    0.000    0.000    0.000    0.000    0.000 
#
# Total GULP energy -122931.020061 kJ/mol
# GULP energy per Si atom -5587.773639 kJ/mol
# Density = 2.463637 g / cm^3
# Si number density = 24.692567 Si / 1000 Ang^3
#
#
#
# Elastic Constant Matrix: (Units=GPa)
#
#
# Indices 1 2 3 4 5 6 
#
# 1 67.5044 7.1295 25.0324 0.0000 -2.3883 0.0000
# 2 7.1295 57.5328 8.7819 0.0000 4.8001 0.0000
# 3 25.0324 8.7819 112.0476 0.0000 -20.1069 0.0000
# 4 0.0000 0.0000 0.0000 6.6905 0.0000 13.7823
# 5 -2.3883 4.8001 -20.1069 0.0000 17.8535 0.0000
# 6 0.0000 0.0000 0.0000 13.7823 0.0000 18.5412
#
#
#
# Elastic Compliance Matrix: (Units=1/GPa)
#
#
# Indices 1 2 3 4 5 6 
#
# 1 0.016321 -0.001277 -0.003876 0.000000 -0.001838 0.000000
# 2 -0.001277 0.018622 -0.002636 0.000000 -0.008146 0.000000
# 3 -0.003876 -0.002636 0.012572 0.000000 0.014349 0.000000
# 4 0.000000 0.000000 0.000000 -0.281344 0.000000 0.209132
# 5 -0.001838 -0.008146 0.014349 0.000000 0.074116 0.000000
# 6 0.000000 0.000000 0.000000 0.209132 0.000000 -0.101521
#
#
# Mechanical properties :
#
#
# Convention : Reuss Voigt Hill
#
# Bulk Modulus (GPa) = 31.31250 35.44139 33.37694
# Shear Modulus (GPa) = -21.27576 21.69310 0.20867
#
# Velocity S-wave (km/s) = -2.93853 2.96721 0.29102
# Velocity P-wave (km/s) = 1.09324 5.11110 3.69584
#
# Compressibility (1/GPa) = 0.03193613
#
# Stress axis : x y z
#
# Youngs Moduli (GPa) = 61.27054 53.70083 79.53993
#
# Poissons Ratio (x) = 0.06860 0.30830
# Poissons Ratio (y) = 0.07827 0.20966
# Poissons Ratio (z) = 0.23749 0.14155
#
# Static dielectric constant tensor:
#      x y z
#    x 1.947580 0.000000 0.006250 
#    y 0.000000 1.982790 0.000000 
#    z 0.006250 0.000000 1.967260 
# 
# From -- ./inp_files/124999.got.cif
#   From: 2010.05.17/outbox.cif.g08.bks.cpg/sg15_63_cif.got.tgz:124999.got - 2010.06.03 18:47:42.
