data_PCOD9274689
_publ_section_title
;
Structure prediction by ZEFSAII (Michael W. Deem and Ramdas Pophale) SiO2 
 PCOD9274689
Probable space group: C 2/C
;
_chemical_formula_sum "Si O2"
_cell_formula_units_Z 52
_cell_length_a 12.562723
_cell_length_b 9.363334
_cell_length_c 24.628373
_cell_angle_alpha 90.000000
_cell_angle_beta 51.470486
_cell_angle_gamma 90.000000
_cell_volume 2266.294522
_symmetry_space_group_name_H-M "C 2/C"
_symmetry_group_IT_number 15
_symmetry_cell_setting 'monoclinic'
loop_
_space_group_symop_operation_xyz
x,y,z
-x,y,1/2-z
-x,-y,-z
x,-y,1/2+z
1/2+x,1/2+y,z
1/2-x,1/2+y,1/2-z
1/2-x,1/2-y,-z
1/2+x,1/2-y,1/2+z
loop_
_atom_site_type_symbol
_atom_site_label
_atom_site_fract_x
_atom_site_fract_y
_atom_site_fract_z
Si Si1 0.858104 0.156474 0.674035
Si Si2 0.020075 0.604419 0.942367
Si Si3 0.000000 0.386082 0.750000
Si Si4 0.456183 0.429735 0.569247
Si Si5 0.841620 0.742218 0.395745
Si Si6 0.687042 0.963364 0.792782
Si Si7 0.243227 0.006077 0.512277
O O1 0.771577 0.301022 0.705759
O O2 0.010693 0.219918 0.624059
O O3 0.816296 0.061365 0.738646
O O4 0.849202 0.040107 0.629124
O O5 0.076690 0.764960 0.929194
O O6 0.104678 0.526349 0.869012
O O7 0.861670 0.609224 0.974371
O O8 0.000000 0.500000 0.000000
O O9 0.111827 0.297269 0.679698
O O10 0.086907 0.462306 0.770921
O O11 0.500000 0.500000 0.500000
O O12 0.594570 0.437857 0.560014
O O13 0.757919 0.885057 0.436047
O O14 0.774997 0.611417 0.450647
#
# Coordination Sequence:
#
# PCOD9274689 Si02
#       7
#     8   8   4   8   8   8   8
#     4  10  21  40  60  92 128 165 218 265 318 397
#     4  12  25  42  64  98 135 173 223 276 335 388
#     4  10  20  38  64  94 122 172 218 264 338 388
#     4  11  25  40  67  96 129 179 222 271 335 391
#     4   9  20  37  66  91 129 171 214 267 331 386
#     4  11  23  41  64  95 129 171 219 275 326 396
#     4  10  21  42  63  93 137 167 224 274 320 398
#
# _framework density 22.944942999999999
#
# number of rings (size 3 to 8) (size 9 to 14) (size 15 to 20)
#    0.000    1.538    3.077    2.308    6.462    2.462 
#    0.000    0.000    0.000   12.000    0.000    0.000 
#    0.000    0.000    0.000    0.000    0.000    0.000 
#
# Total GULP energy -145027.440584 kJ/mol
# GULP energy per Si atom -5577.978484 kJ/mol
# Density = 2.289272 g / cm^3
# Si number density = 22.944943 Si / 1000 Ang^3
#
#
#
# Elastic Constant Matrix: (Units=GPa)
#
#
# Indices 1 2 3 4 5 6 
#
# 1 32.9969 22.4117 6.5364 0.0000 7.6606 0.0000
# 2 22.4117 176.2252 54.2871 0.0000 14.7613 0.0000
# 3 6.5364 54.2871 154.4309 0.0000 18.4383 0.0000
# 4 0.0000 0.0000 0.0000 48.5451 0.0000 -6.4858
# 5 7.6606 14.7613 18.4383 0.0000 39.0209 0.0000
# 6 0.0000 0.0000 0.0000 -6.4858 0.0000 35.8287
#
#
#
# Elastic Compliance Matrix: (Units=1/GPa)
#
#
# Indices 1 2 3 4 5 6 
#
# 1 0.034230 -0.004093 0.000644 0.000000 -0.005476 0.000000
# 2 -0.004093 0.006929 -0.002168 0.000000 -0.000793 0.000000
# 3 0.000644 -0.002168 0.007554 0.000000 -0.002875 0.000000
# 4 0.000000 0.000000 0.000000 0.021110 0.000000 0.003821
# 5 -0.005476 -0.000793 -0.002875 0.000000 0.028361 0.000000
# 6 0.000000 0.000000 0.000000 0.003821 0.000000 0.028602
#
#
# Mechanical properties :
#
#
# Convention : Reuss Voigt Hill
#
# Bulk Modulus (GPa) = 26.68199 58.90258 42.79229
# Shear Modulus (GPa) = 33.21980 43.37348 38.29664
#
# Velocity S-wave (km/s) = 3.80913 4.35251 4.08985
# Velocity P-wave (km/s) = 5.56776 7.14046 6.40258
#
# Compressibility (1/GPa) = 0.03747846
#
# Stress axis : x y z
#
# Youngs Moduli (GPa) = 29.21456 144.31340 132.38814
#
# Poissons Ratio (x) = 0.59065 -0.08522
# Poissons Ratio (y) = 0.11957 0.28701
# Poissons Ratio (z) = -0.01881 0.31286
#
# Static dielectric constant tensor:
#      x y z
#    x 2.060790 0.000000 -0.015840 
#    y 0.000000 1.839820 0.000000 
#    z -0.015840 0.000000 1.865410 
# 
# From -- ./inp_files/295048.got.cif
#   From: 2010.05.17/outbox.cif.g08.bks.cpg/sg15_148_cif.got.tgz:295048.got - 2010.06.03 18:47:42.
