data_PCOD9274261
_publ_section_title
;
Structure prediction by ZEFSAII (Michael W. Deem and Ramdas Pophale) SiO2 
 PCOD9274261
Probable space group: C 2/C
;
_chemical_formula_sum "Si O2"
_cell_formula_units_Z 52
_cell_length_a 13.923456
_cell_length_b 12.257066
_cell_length_c 15.709116
_cell_angle_alpha 90.000000
_cell_angle_beta 98.013618
_cell_angle_gamma 90.000000
_cell_volume 2654.749660
_symmetry_space_group_name_H-M "C 2/C"
_symmetry_group_IT_number 15
_symmetry_cell_setting 'monoclinic'
loop_
_space_group_symop_operation_xyz
x,y,z
-x,y,1/2-z
-x,-y,-z
x,-y,1/2+z
1/2+x,1/2+y,z
1/2-x,1/2+y,1/2-z
1/2-x,1/2-y,-z
1/2+x,1/2-y,1/2+z
loop_
_atom_site_type_symbol
_atom_site_label
_atom_site_fract_x
_atom_site_fract_y
_atom_site_fract_z
Si Si1 0.977947 0.726820 0.364351
Si Si2 0.697043 0.875290 0.151178
Si Si3 0.191121 0.928682 0.791741
Si Si4 0.500000 0.571052 0.750000
Si Si5 0.602180 0.799907 0.307863
Si Si6 0.005054 0.378456 0.462436
Si Si7 0.166040 0.675955 0.303064
O O1 0.000342 0.847665 0.331591
O O2 0.962128 0.705458 0.460550
O O3 0.073415 0.654854 0.351104
O O4 0.886900 0.693498 0.294880
O O5 0.659531 0.869160 0.244323
O O6 0.604118 0.851524 0.082240
O O7 0.779838 0.783650 0.155925
O O8 0.741275 0.994420 0.142371
O O9 0.160920 0.812413 0.827019
O O10 0.247997 0.905429 0.710335
O O11 0.094833 0.997496 0.761773
O O12 0.500000 0.770166 0.250000
O O13 0.574727 0.863887 0.389655
O O14 0.000000 0.500000 0.500000
#
# Coordination Sequence:
#
# PCOD9274261 Si02
#       7
#     8   8   8   4   8   8   8
#     4  10  20  41  59  91 124 159 203 256 305 367
#     4  10  20  38  62  89 117 164 211 251 307 367
#     4  11  18  37  65  90 115 161 215 249 298 367
#     4  10  20  38  66  86 122 162 206 256 312 364
#     4   9  21  39  62  87 121 164 210 250 303 375
#     4  11  24  40  59  91 132 162 201 260 312 359
#     4   9  20  36  64  88 116 163 207 249 299 381
#
# _framework density 19.587534000000002
#
# number of rings (size 3 to 8) (size 9 to 14) (size 15 to 20)
#    0.000    2.154    3.846    0.923    2.154    0.615 
#    1.385    9.231    0.000    0.000    0.000    0.000 
#    0.000    0.000    0.000    0.000    0.000    0.000 
#
# Total GULP energy -144925.126017 kJ/mol
# GULP energy per Si atom -5574.043308 kJ/mol
# Density = 1.954295 g / cm^3
# Si number density = 19.587534 Si / 1000 Ang^3
#
#
#
# Elastic Constant Matrix: (Units=GPa)
#
#
# Indices 1 2 3 4 5 6 
#
# 1 76.3255 17.9272 8.5191 0.0000 5.3832 0.0000
# 2 17.9272 84.6135 19.6740 0.0000 1.1772 0.0000
# 3 8.5191 19.6740 82.2907 0.0000 0.9968 0.0000
# 4 0.0000 0.0000 0.0000 12.5136 0.0000 -1.2354
# 5 5.3832 1.1772 0.9968 0.0000 12.9016 0.0000
# 6 0.0000 0.0000 0.0000 -1.2354 0.0000 36.5280
#
#
#
# Elastic Compliance Matrix: (Units=1/GPa)
#
#
# Indices 1 2 3 4 5 6 
#
# 1 0.014231 -0.002764 -0.000744 0.000000 -0.005628 0.000000
# 2 -0.002764 0.013062 -0.002839 0.000000 0.000181 0.000000
# 3 -0.000744 -0.002839 0.012913 0.000000 -0.000428 0.000000
# 4 0.000000 0.000000 0.000000 0.080181 0.000000 0.002712
# 5 -0.005628 0.000181 -0.000428 0.000000 0.079875 0.000000
# 6 0.000000 0.000000 0.000000 0.002712 0.000000 0.027468
#
#
# Mechanical properties :
#
#
# Convention : Reuss Voigt Hill
#
# Bulk Modulus (GPa) = 36.34820 37.27450 36.81135
# Shear Modulus (GPa) = 20.03254 25.52924 22.78089
#
# Velocity S-wave (km/s) = 3.20147 3.61410 3.41402
# Velocity P-wave (km/s) = 5.68005 6.04042 5.86300
#
# Compressibility (1/GPa) = 0.02751168
#
# Stress axis : x y z
#
# Youngs Moduli (GPa) = 70.26931 76.56050 77.44146
#
# Poissons Ratio (x) = 0.21160 0.05764
# Poissons Ratio (y) = 0.19421 0.21984
# Poissons Ratio (z) = 0.05230 0.21734
#
# Static dielectric constant tensor:
#      x y z
#    x 1.708150 0.000000 -0.008190 
#    y 0.000000 1.716340 0.000000 
#    z -0.008190 0.000000 1.660730 
# 
# From -- ./inp_files/203600.got.cif
#   From: 2010.05.17/outbox.cif.g08.bks.cpg/sg15_102_cif.got.tgz:203600.got - 2010.06.03 18:47:42.
