data_PCOD9274651
_publ_section_title
;
Structure prediction by ZEFSAII (Michael W. Deem and Ramdas Pophale) SiO2 
 PCOD9274651
Probable space group: C 2/C
;
_chemical_formula_sum "Si O2"
_cell_formula_units_Z 56
_cell_length_a 12.125089
_cell_length_b 7.563787
_cell_length_c 29.023456
_cell_angle_alpha 90.000000
_cell_angle_beta 59.033015
_cell_angle_gamma 90.000000
_cell_volume 2282.386621
_symmetry_space_group_name_H-M "C 2/C"
_symmetry_group_IT_number 15
_symmetry_cell_setting 'monoclinic'
loop_
_space_group_symop_operation_xyz
x,y,z
-x,y,1/2-z
-x,-y,-z
x,-y,1/2+z
1/2+x,1/2+y,z
1/2-x,1/2+y,1/2-z
1/2-x,1/2-y,-z
1/2+x,1/2-y,1/2+z
loop_
_atom_site_type_symbol
_atom_site_label
_atom_site_fract_x
_atom_site_fract_y
_atom_site_fract_z
Si Si1 0.253844 0.216040 0.390463
Si Si2 0.929320 0.312016 0.522941
Si Si3 0.799998 0.264531 0.691152
Si Si4 0.474642 0.169943 0.917997
Si Si5 0.946763 0.755246 0.420022
Si Si6 0.306108 0.187309 0.874582
Si Si7 0.352430 0.618420 0.780057
O O1 0.115812 0.276747 0.403374
O O2 0.316238 0.305060 0.422387
O O3 0.342684 0.261831 0.327612
O O4 0.256707 0.007272 0.398455
O O5 0.803984 0.318000 0.582199
O O6 0.000000 0.500000 0.500000
O O7 0.895271 0.254162 0.478661
O O8 0.027123 0.193508 0.532724
O O9 0.689764 0.183184 0.681483
O O10 0.757966 0.468204 0.694924
O O11 0.818846 0.220270 0.740213
O O12 0.931073 0.198605 0.638160
O O13 0.431850 0.234378 0.876855
O O14 0.455826 0.959045 0.919028
O O15 0.500000 0.548563 0.750000
#
# Coordination Sequence:
#
# PCOD9274651 Si02
#       7
#     8   8   8   8   8   8   8
#     4  11  22  40  64  92 127 166 211 268 323 381
#     4   9  19  38  64  91 128 173 211 260 317 380
#     4  11  23  43  63  92 125 163 211 263 319 383
#     4  10  20  38  64  91 127 166 210 257 317 378
#     4   9  19  39  61  88 127 165 204 256 319 372
#     4  10  23  40  63  94 130 168 213 262 321 387
#     4  12  25  43  68  97 130 168 218 268 328 393
#
# _framework density 24.535722
#
# number of rings (size 3 to 8) (size 9 to 14) (size 15 to 20)
#    0.000    1.714    2.857    1.286    0.000    3.429 
#    0.000    0.000    0.000    0.000    0.000    0.000 
#    0.000    0.000    0.000    0.000    0.000    0.000 
#
# Total GULP energy -156165.874838 kJ/mol
# GULP energy per Si atom -5577.352673 kJ/mol
# Density = 2.447988 g / cm^3
# Si number density = 24.535722 Si / 1000 Ang^3
#
#
#
# Elastic Constant Matrix: (Units=GPa)
#
#
# Indices 1 2 3 4 5 6 
#
# 1 191.3465 15.5773 31.1462 0.0000 41.0982 0.0000
# 2 15.5773 53.1175 -16.9573 0.0000 -1.3603 0.0000
# 3 31.1462 -16.9573 45.7079 0.0000 24.6691 0.0000
# 4 0.0000 0.0000 0.0000 21.5568 0.0000 4.0611
# 5 41.0982 -1.3603 24.6691 0.0000 52.0009 0.0000
# 6 0.0000 0.0000 0.0000 4.0611 0.0000 24.3419
#
#
#
# Elastic Compliance Matrix: (Units=1/GPa)
#
#
# Indices 1 2 3 4 5 6 
#
# 1 0.006947 -0.003414 -0.004018 0.000000 -0.003674 0.000000
# 2 -0.003414 0.023774 0.012574 0.000000 -0.002645 0.000000
# 3 -0.004018 0.012574 0.036815 0.000000 -0.013961 0.000000
# 4 0.000000 0.000000 0.000000 0.047894 0.000000 -0.007990
# 5 -0.003674 -0.002645 -0.013961 0.000000 0.028688 0.000000
# 6 0.000000 0.000000 0.000000 -0.007990 0.000000 0.042415
#
#
# Mechanical properties :
#
#
# Convention : Reuss Voigt Hill
#
# Bulk Modulus (GPa) = 12.85013 38.85605 25.85309
# Shear Modulus (GPa) = 24.72936 36.94029 30.83482
#
# Velocity S-wave (km/s) = 3.17818 3.88438 3.54889
# Velocity P-wave (km/s) = 4.32625 5.99906 5.22997
#
# Compressibility (1/GPa) = 0.07782020
#
# Stress axis : x y z
#
# Youngs Moduli (GPa) = 143.94469 42.06338 27.16261
#
# Poissons Ratio (x) = 0.14360 0.10913
# Poissons Ratio (y) = 0.49142 -0.34153
# Poissons Ratio (z) = 0.57831 -0.52889
#
# Static dielectric constant tensor:
#      x y z
#    x 2.036500 0.000000 0.007950 
#    y 0.000000 1.987090 0.000000 
#    z 0.007950 0.000000 2.062760 
# 
# From -- ./inp_files/291532.got.cif
#   From: 2010.05.17/outbox.cif.g08.bks.cpg/sg15_146_cif.got.tgz:291532.got - 2010.06.03 18:47:42.
