data_PCOD9274302
_publ_section_title
;
Structure prediction by ZEFSAII (Michael W. Deem and Ramdas Pophale) SiO2 
 PCOD9274302
Probable space group: C 2/C
;
_chemical_formula_sum "Si O2"
_cell_formula_units_Z 52
_cell_length_a 24.185284
_cell_length_b 8.284972
_cell_length_c 27.935423
_cell_angle_alpha 90.000000
_cell_angle_beta 28.017712
_cell_angle_gamma 90.000000
_cell_volume 2629.415275
_symmetry_space_group_name_H-M "C 2/C"
_symmetry_group_IT_number 15
_symmetry_cell_setting 'monoclinic'
loop_
_space_group_symop_operation_xyz
x,y,z
-x,y,1/2-z
-x,-y,-z
x,-y,1/2+z
1/2+x,1/2+y,z
1/2-x,1/2+y,1/2-z
1/2-x,1/2-y,-z
1/2+x,1/2-y,1/2+z
loop_
_atom_site_type_symbol
_atom_site_label
_atom_site_fract_x
_atom_site_fract_y
_atom_site_fract_z
Si Si1 0.567800 0.064508 0.025145
Si Si2 0.191346 0.136955 0.163395
Si Si3 0.500000 0.562569 0.750000
Si Si4 0.922412 0.250957 0.149311
Si Si5 0.670335 0.435808 0.461506
Si Si6 0.870801 0.785913 0.433437
Si Si7 0.900596 0.863349 0.567051
O O1 0.550315 0.206194 0.999024
O O2 0.690276 0.970401 0.919578
O O3 0.588805 0.151950 0.059839
O O4 0.461286 0.937511 0.112799
O O5 0.230429 0.303430 0.108895
O O6 0.137517 0.191377 0.255870
O O7 0.102314 0.045753 0.195883
O O8 0.538300 0.675803 0.677365
O O9 0.853563 0.194107 0.154295
O O10 0.047842 0.159856 0.050522
O O11 0.652398 0.552648 0.519110
O O12 0.688700 0.547537 0.400625
O O13 0.750000 0.750000 0.500000
O O14 0.000000 0.000000 0.500000
#
# Coordination Sequence:
#
# PCOD9274302 Si02
#       7
#     8   8   4   8   8   8   8
#     4  10  22  40  63  92 128 161 207 257 309 372
#     4  11  23  39  62  91 122 163 210 254 307 369
#     4  12  24  40  64  88 118 164 212 256 316 374
#     4  10  20  38  62  91 120 162 200 251 306 367
#     4   9  21  39  60  87 123 154 201 254 305 360
#     4  11  22  40  62  87 121 163 203 259 311 368
#     4   9  19  39  64  91 124 163 198 250 314 369
#
# _framework density 19.776261000000002
#
# number of rings (size 3 to 8) (size 9 to 14) (size 15 to 20)
#    0.000    1.846    3.077    0.462    0.000    4.308 
#    0.000    0.000    0.000    0.000    0.000    0.000 
#    0.000    0.000    0.000    0.000    0.000    0.000 
#
# Total GULP energy -144988.712411 kJ/mol
# GULP energy per Si atom -5576.488939 kJ/mol
# Density = 1.973125 g / cm^3
# Si number density = 19.776261 Si / 1000 Ang^3
#
#
#
# Elastic Constant Matrix: (Units=GPa)
#
#
# Indices 1 2 3 4 5 6 
#
# 1 60.3862 28.1186 25.7810 -0.0006 25.4793 0.0010
# 2 28.1186 115.0347 36.1934 -0.0005 11.8179 0.0001
# 3 25.7810 36.1934 75.8433 -0.0005 18.4237 0.0005
# 4 -0.0006 -0.0005 -0.0005 33.0247 0.0005 -6.9661
# 5 25.4793 11.8179 18.4237 0.0005 23.2407 -0.0006
# 6 0.0010 0.0001 0.0005 -6.9661 -0.0006 13.0828
#
#
#
# Elastic Compliance Matrix: (Units=1/GPa)
#
#
# Indices 1 2 3 4 5 6 
#
# 1 0.033024 -0.004317 -0.001119 0.000000 -0.033122 -0.000004
# 2 -0.004317 0.010845 -0.004357 0.000000 0.002672 0.000001
# 3 -0.001119 -0.004357 0.018340 0.000000 -0.011096 -0.000001
# 4 0.000000 0.000000 0.000000 0.034112 0.000000 0.018163
# 5 -0.033122 0.002672 -0.011096 0.000000 0.086777 0.000007
# 6 -0.000004 0.000001 -0.000001 0.018163 0.000007 0.086107
#
#
# Mechanical properties :
#
#
# Convention : Reuss Voigt Hill
#
# Bulk Modulus (GPa) = 23.46243 47.93891 35.70067
# Shear Modulus (GPa) = 16.50173 24.61439 20.55806
#
# Velocity S-wave (km/s) = 2.89177 3.53178 3.22768
# Velocity P-wave (km/s) = 4.79994 6.39723 5.65526
#
# Compressibility (1/GPa) = 0.04262134
#
# Stress axis : x y z
#
# Youngs Moduli (GPa) = 30.28133 92.21215 54.52509
#
# Poissons Ratio (x) = 0.39810 0.06104
# Poissons Ratio (y) = 0.13073 0.23755
# Poissons Ratio (z) = 0.03390 0.40175
#
# Static dielectric constant tensor:
#      x y z
#    x 1.700740 0.000000 0.004590 
#    y 0.000000 1.831010 0.000010 
#    z 0.004590 0.000010 1.725960 
# 
# From -- ./inp_files/171401.got.cif
#   From: 2010.05.17/outbox.cif.g08.bks.cpg/sg15_86_cif.got.tgz:171401.got - 2010.06.03 18:47:42.
