data_PCOD9274798
_publ_section_title
;
Structure prediction by ZEFSAII (Michael W. Deem and Ramdas Pophale) SiO2 
 PCOD9274798
Probable space group: C 2/C
;
_chemical_formula_sum "Si O2"
_cell_formula_units_Z 60
_cell_length_a 11.739328
_cell_length_b 25.922418
_cell_length_c 8.444228
_cell_angle_alpha 90.000000
_cell_angle_beta 85.754330
_cell_angle_gamma 90.000000
_cell_volume 2562.626193
_symmetry_space_group_name_H-M "C 2/C"
_symmetry_group_IT_number 15
_symmetry_cell_setting 'monoclinic'
loop_
_space_group_symop_operation_xyz
x,y,z
-x,y,1/2-z
-x,-y,-z
x,-y,1/2+z
1/2+x,1/2+y,z
1/2-x,1/2+y,1/2-z
1/2-x,1/2-y,-z
1/2+x,1/2-y,1/2+z
loop_
_atom_site_type_symbol
_atom_site_label
_atom_site_fract_x
_atom_site_fract_y
_atom_site_fract_z
Si Si1 0.314503 0.368143 0.876705
Si Si2 0.623413 0.736086 0.289898
Si Si3 0.000000 0.507645 0.750000
Si Si4 0.072110 0.925563 0.380994
Si Si5 0.121444 0.768402 0.153319
Si Si6 0.872849 0.960788 0.628527
Si Si7 0.883259 0.351245 0.820211
Si Si8 0.350499 0.055518 0.516835
O O1 0.374687 0.314261 0.825671
O O2 0.342378 0.417379 0.760216
O O3 0.189155 0.354754 0.832082
O O4 0.336166 0.387941 0.050528
O O5 0.500000 0.761582 0.250000
O O6 0.748202 0.767812 0.277842
O O7 0.624255 0.712730 0.470207
O O8 0.065393 0.472967 0.615533
O O9 0.903464 0.542570 0.678688
O O10 0.000000 0.899936 0.250000
O O11 0.985563 0.940627 0.530639
O O12 0.113736 0.980916 0.313587
O O13 0.104393 0.707113 0.131395
O O14 0.000000 0.784538 0.250000
O O15 0.773612 0.965539 0.509231
O O16 0.840548 0.384927 0.970323
O O17 0.000000 0.374014 0.750000
#
# Coordination Sequence:
#
# PCOD9274798 Si02
#       8
#     8   8   4   8   8   8   8   8
#     4  10  21  38  60  82 122 160 192 243 307 358
#     4  10  20  38  65  92 124 160 196 249 320 369
#     4  10  22  34  50  80 114 156 200 242 282 344
#     4  11  22  34  53  85 115 154 202 246 284 351
#     4   9  20  39  65  95 120 156 207 252 302 379
#     4  10  21  35  55  78 114 161 199 241 293 339
#     4   9  18  37  62  85 114 157 195 240 299 356
#     4  10  21  35  54  79 116 158 196 245 289 344
#
# _framework density 23.413481999999998
#
# number of rings (size 3 to 8) (size 9 to 14) (size 15 to 20)
#    0.000    2.133    0.667    2.800    5.600    0.533 
#    1.200    2.667    0.000    3.200    0.000    0.000 
#    0.000    0.000    0.000    0.000    0.000    0.000 
#
# Total GULP energy -167148.328274 kJ/mol
# GULP energy per Si atom -5571.610942 kJ/mol
# Density = 2.336019 g / cm^3
# Si number density = 23.413482 Si / 1000 Ang^3
#
#
#
# Elastic Constant Matrix: (Units=GPa)
#
#
# Indices 1 2 3 4 5 6 
#
# 1 90.2250 0.9733 -13.3275 0.0000 9.8101 0.0000
# 2 0.9733 67.0406 16.0234 0.0000 19.3060 0.0000
# 3 -13.3275 16.0234 41.0534 0.0000 13.5861 0.0000
# 4 0.0000 0.0000 0.0000 -9.4490 0.0000 -6.8320
# 5 9.8101 19.3060 13.5861 0.0000 37.8689 0.0000
# 6 0.0000 0.0000 0.0000 -6.8320 0.0000 -47.8126
#
#
#
# Elastic Compliance Matrix: (Units=1/GPa)
#
#
# Indices 1 2 3 4 5 6 
#
# 1 0.012525 -0.000047 0.005844 0.000000 -0.005317 0.000000
# 2 -0.000047 0.018212 -0.004601 0.000000 -0.007621 0.000000
# 3 0.005844 -0.004601 0.031519 0.000000 -0.010476 0.000000
# 4 0.000000 0.000000 0.000000 -0.118025 0.000000 0.016865
# 5 -0.005317 -0.007621 -0.010476 0.000000 0.035428 0.000000
# 6 0.000000 0.000000 0.000000 0.016865 0.000000 -0.023325
#
#
# Mechanical properties :
#
#
# Convention : Reuss Voigt Hill
#
# Bulk Modulus (GPa) = 15.46863 22.85084 19.15973
# Shear Modulus (GPa) = -204.01622 9.09810 -97.45906
#
# Velocity S-wave (km/s) = -9.34481 1.97339 -6.45876
# Velocity P-wave (km/s) = 10.47916 3.86953 6.88620
#
# Compressibility (1/GPa) = 0.06464698
#
# Stress axis : x y z
#
# Youngs Moduli (GPa) = 79.83798 54.91021 31.72720
#
# Poissons Ratio (x) = 0.00261 -0.18543
# Poissons Ratio (y) = 0.00379 0.14599
# Poissons Ratio (z) = -0.46661 0.25266
#
# Static dielectric constant tensor:
#      x y z
#    x 2.011290 0.000000 -0.033650 
#    y 0.000000 1.872780 0.000000 
#    z -0.033650 0.000000 1.919490 
# 
# From -- ./inp_files/35251.got.cif
#   From: 2010.05.17/outbox.cif.g08.bks.cpg/sg15_18_cif.got.tgz:35251.got - 2010.06.03 18:47:42.
