data_PCOD9274003
_publ_section_title
;
Structure prediction by ZEFSAII (Michael W. Deem and Ramdas Pophale) SiO2 
 PCOD9274003
Probable space group: C 2/C
;
_chemical_formula_sum "Si O2"
_cell_formula_units_Z 60
_cell_length_a 11.487727
_cell_length_b 20.668031
_cell_length_c 17.266252
_cell_angle_alpha 90.000000
_cell_angle_beta 134.056021
_cell_angle_gamma 90.000000
_cell_volume 2946.150389
_symmetry_space_group_name_H-M "C 2/C"
_symmetry_group_IT_number 15
_symmetry_cell_setting 'monoclinic'
loop_
_space_group_symop_operation_xyz
x,y,z
-x,y,1/2-z
-x,-y,-z
x,-y,1/2+z
1/2+x,1/2+y,z
1/2-x,1/2+y,1/2-z
1/2-x,1/2-y,-z
1/2+x,1/2-y,1/2+z
loop_
_atom_site_type_symbol
_atom_site_label
_atom_site_fract_x
_atom_site_fract_y
_atom_site_fract_z
Si Si1 0.870491 0.342496 0.453393
Si Si2 0.934129 0.507513 0.805320
Si Si3 0.458264 0.852326 0.818520
Si Si4 0.195820 0.182680 0.516205
Si Si5 0.500000 0.794112 0.250000
Si Si6 0.670635 0.915989 0.529287
Si Si7 0.813755 0.968014 0.189596
Si Si8 0.861023 0.773562 0.839026
O O1 0.766776 0.406674 0.390449
O O2 0.807781 0.285512 0.369593
O O3 0.903245 0.328240 0.558321
O O4 0.051210 0.361943 0.508422
O O5 0.945289 0.430007 0.818708
O O6 0.757229 0.531859 0.754638
O O7 0.000000 0.523163 0.750000
O O8 0.059117 0.540952 0.921772
O O9 0.500000 0.836232 0.750000
O O10 0.284722 0.819856 0.751369
O O11 0.250000 0.250000 0.500000
O O12 0.339823 0.169415 0.644174
O O13 0.197461 0.123579 0.457247
O O14 0.010649 0.193387 0.454402
O O15 0.566453 0.753598 0.207965
O O16 0.743726 0.964916 0.624171
O O17 0.000000 0.966433 0.250000
#
# Coordination Sequence:
#
# PCOD9274003 Si02
#       8
#     8   8   8   8   4   8   8   8
#     4  11  21  45  64  90 137 175 224 265 344 417
#     4  10  22  41  65  90 128 175 218 269 336 412
#     4  11  24  43  65  89 125 180 226 267 341 401
#     4  10  21  35  58  98 130 159 210 274 333 394
#     4  10  20  38  60  96 134 166 208 264 352 394
#     4  11  20  39  66  92 126 179 214 268 347 402
#     4  11  24  41  68 101 124 178 232 280 331 395
#     4  11  24  37  66  99 130 174 216 284 328 408
#
# _framework density 20.365559000000001
#
# number of rings (size 3 to 8) (size 9 to 14) (size 15 to 20)
#    0.000    1.333    5.333    1.600    4.667    1.067 
#    1.200    3.333    0.000    0.000    0.000    0.000 
#    0.000    0.000    0.000    0.000    0.000    0.000 
#
# Total GULP energy -167323.658888 kJ/mol
# GULP energy per Si atom -5577.455296 kJ/mol
# Density = 2.031921 g / cm^3
# Si number density = 20.365559 Si / 1000 Ang^3
#
#
#
# Elastic Constant Matrix: (Units=GPa)
#
#
# Indices 1 2 3 4 5 6 
#
# 1 102.5078 13.2554 32.2312 0.0000 -12.2987 0.0000
# 2 13.2554 77.6035 20.0881 0.0000 -3.7485 0.0000
# 3 32.2312 20.0881 66.0394 0.0000 -15.1678 -0.0001
# 4 0.0000 0.0000 0.0000 25.0120 0.0000 3.0565
# 5 -12.2987 -3.7485 -15.1678 0.0000 32.8977 0.0000
# 6 0.0000 0.0000 -0.0001 3.0565 0.0000 11.4721
#
#
#
# Elastic Compliance Matrix: (Units=1/GPa)
#
#
# Indices 1 2 3 4 5 6 
#
# 1 0.011658 -0.000586 -0.005062 0.000000 0.001958 0.000000
# 2 -0.000586 0.014022 -0.004096 0.000000 -0.000510 0.000000
# 3 -0.005062 -0.004096 0.020486 0.000000 0.007086 0.000000
# 4 0.000000 0.000000 0.000000 0.041326 0.000000 -0.011010
# 5 0.001958 -0.000510 0.007086 0.000000 0.034338 0.000000
# 6 0.000000 0.000000 0.000000 -0.011010 0.000000 0.090101
#
#
# Mechanical properties :
#
#
# Convention : Reuss Voigt Hill
#
# Bulk Modulus (GPa) = 37.48483 41.92225 39.70354
# Shear Modulus (GPa) = 20.80626 25.91476 23.36051
#
# Velocity S-wave (km/s) = 3.19978 3.57105 3.39050
# Velocity P-wave (km/s) = 5.66546 6.13456 5.90467
#
# Compressibility (1/GPa) = 0.02667746
#
# Stress axis : x y z
#
# Youngs Moduli (GPa) = 85.78121 71.31719 48.81283
#
# Poissons Ratio (x) = 0.04182 0.24707
# Poissons Ratio (y) = 0.05031 0.19995
# Poissons Ratio (z) = 0.43419 0.29213
#
# Static dielectric constant tensor:
#      x y z
#    x 1.789590 0.000000 -0.027090 
#    y 0.000000 1.703420 0.000000 
#    z -0.027090 0.000000 1.781970 
# 
# From -- ./inp_files/200553.got.cif
#   From: 2010.05.17/outbox.cif.g08.bks.cpg/sg15_101_cif.got.tgz:200553.got - 2010.06.03 18:47:42.
