data_PCOD9274482
_publ_section_title
;
Structure prediction by ZEFSAII (Michael W. Deem and Ramdas Pophale) SiO2 
 PCOD9274482
Probable space group: C 2/C
;
_chemical_formula_sum "Si O2"
_cell_formula_units_Z 48
_cell_length_a 15.369765
_cell_length_b 11.475138
_cell_length_c 26.249340
_cell_angle_alpha 90.000000
_cell_angle_beta 25.399234
_cell_angle_gamma 90.000000
_cell_volume 1985.742471
_symmetry_space_group_name_H-M "C 2/C"
_symmetry_group_IT_number 15
_symmetry_cell_setting 'monoclinic'
loop_
_space_group_symop_operation_xyz
x,y,z
-x,y,1/2-z
-x,-y,-z
x,-y,1/2+z
1/2+x,1/2+y,z
1/2-x,1/2+y,1/2-z
1/2-x,1/2-y,-z
1/2+x,1/2-y,1/2+z
loop_
_atom_site_type_symbol
_atom_site_label
_atom_site_fract_x
_atom_site_fract_y
_atom_site_fract_z
Si Si1 0.660992 0.095628 0.432987
Si Si2 0.514786 0.336693 0.990838
Si Si3 0.195347 0.505932 0.120081
Si Si4 0.851163 0.861243 0.193017
Si Si5 0.709263 0.119433 0.298583
Si Si6 0.735530 0.934529 0.482976
O O1 0.531087 0.211784 0.507521
O O2 0.792401 0.118821 0.312610
O O3 0.500000 0.000000 0.500000
O O4 0.758510 0.042554 0.432004
O O5 0.390309 0.424366 0.021545
O O6 0.413966 0.353834 0.100301
O O7 0.743497 0.378813 0.879820
O O8 0.171025 0.529366 0.073876
O O9 0.000000 0.451798 0.250000
O O10 0.730671 0.738152 0.262742
O O11 0.751516 0.989161 0.254869
O O12 0.053731 0.866067 0.121172
O O13 0.462713 0.133550 0.431378
#
# Coordination Sequence:
#
# PCOD9274482 Si02
#       6
#     8   8   8   8   8   8
#     4   9  20  41  62  87 130 168 206 265 327 368
#     4   9  20  40  62  89 134 160 205 275 320 369
#     4  10  20  38  63  93 122 167 217 260 321 387
#     4  10  21  41  67  94 129 173 214 265 323 384
#     4  10  21  42  66  94 132 170 216 267 322 385
#     4  10  21  40  64  94 126 170 218 260 322 389
#
# _framework density 24.172319999999999
#
# number of rings (size 3 to 8) (size 9 to 14) (size 15 to 20)
#    0.000    2.333    0.000    1.500    0.000    2.667 
#   33.000    0.000    0.000    0.000    0.000    0.000 
#    0.000    0.000    0.000    0.000    0.000    0.000 
#
# Total GULP energy -133859.998595 kJ/mol
# GULP energy per Si atom -5577.499941 kJ/mol
# Density = 2.411730 g / cm^3
# Si number density = 24.172320 Si / 1000 Ang^3
#
#
#
# Elastic Constant Matrix: (Units=GPa)
#
#
# Indices 1 2 3 4 5 6 
#
# 1 113.7894 35.3949 21.8305 0.0006 17.8652 -0.0004
# 2 35.3949 186.1864 32.6269 0.0011 12.4853 -0.0012
# 3 21.8305 32.6269 62.4715 0.0088 -3.3642 -0.0084
# 4 0.0006 0.0011 0.0088 26.1639 -0.0027 -0.1550
# 5 17.8652 12.4853 -3.3642 -0.0027 24.8410 0.0022
# 6 -0.0004 -0.0012 -0.0084 -0.1550 0.0022 46.7318
#
#
#
# Elastic Compliance Matrix: (Units=1/GPa)
#
#
# Indices 1 2 3 4 5 6 
#
# 1 0.011061 -0.000893 -0.003831 0.000000 -0.008025 0.000000
# 2 -0.000893 0.006286 -0.003129 0.000000 -0.002941 0.000000
# 3 -0.003831 -0.003129 0.019355 -0.000006 0.006949 0.000003
# 4 0.000000 0.000000 -0.000006 0.038221 0.000003 0.000127
# 5 -0.008025 -0.002941 0.006949 0.000003 0.048447 -0.000001
# 6 0.000000 0.000000 0.000003 0.000127 -0.000001 0.021399
#
#
# Mechanical properties :
#
#
# Convention : Reuss Voigt Hill
#
# Bulk Modulus (GPa) = 47.63076 60.23911 53.93494
# Shear Modulus (GPa) = 29.85536 37.72032 33.78784
#
# Velocity S-wave (km/s) = 3.51822 3.95457 3.74276
# Velocity P-wave (km/s) = 6.02090 6.76951 6.40615
#
# Compressibility (1/GPa) = 0.02099484
#
# Stress axis : x y z
#
# Youngs Moduli (GPa) = 90.40893 159.07381 51.66734
#
# Poissons Ratio (x) = 0.14210 0.19793
# Poissons Ratio (y) = 0.08076 0.16169
# Poissons Ratio (z) = 0.34634 0.49781
#
# Static dielectric constant tensor:
#      x y z
#    x 1.954530 -0.000020 0.076530 
#    y -0.000020 2.085590 0.000010 
#    z 0.076530 0.000010 2.075350 
# 
# From -- ./inp_files/296050.got.cif
#   From: 2010.05.17/outbox.cif.g08.bks.cpg/sg15_149_cif.got.tgz:296050.got - 2010.06.03 18:47:42.
