data_PCOD9274938
_publ_section_title
;
Structure prediction by ZEFSAII (Michael W. Deem and Ramdas Pophale) SiO2 
 PCOD9274938
Probable space group: C 2/C
;
_chemical_formula_sum "Si O2"
_cell_formula_units_Z 52
_cell_length_a 7.929315
_cell_length_b 19.937807
_cell_length_c 23.283772
_cell_angle_alpha 90.000000
_cell_angle_beta 140.890410
_cell_angle_gamma 90.000000
_cell_volume 2321.998845
_symmetry_space_group_name_H-M "C 2/C"
_symmetry_group_IT_number 15
_symmetry_cell_setting 'monoclinic'
loop_
_space_group_symop_operation_xyz
x,y,z
-x,y,1/2-z
-x,-y,-z
x,-y,1/2+z
1/2+x,1/2+y,z
1/2-x,1/2+y,1/2-z
1/2-x,1/2-y,-z
1/2+x,1/2-y,1/2+z
loop_
_atom_site_type_symbol
_atom_site_label
_atom_site_fract_x
_atom_site_fract_y
_atom_site_fract_z
Si Si1 0.580150 0.820815 0.569060
Si Si2 0.628298 0.402251 0.509516
Si Si3 0.194263 0.374370 0.117560
Si Si4 0.268770 0.391600 0.301416
Si Si5 0.425986 0.998460 0.340160
Si Si6 0.756848 0.301847 0.053777
Si Si7 0.500000 0.392101 0.750000
O O1 0.356192 0.846482 0.554422
O O2 0.481806 0.856698 0.484798
O O3 0.629860 0.742007 0.571734
O O4 0.861186 0.848569 0.664663
O O5 0.443865 0.411883 0.403963
O O6 0.785774 0.468059 0.572213
O O7 0.429023 0.367145 0.501699
O O8 0.498385 0.362424 0.178553
O O9 0.156465 0.450793 0.128050
O O10 0.058048 0.329556 0.131565
O O11 0.000000 0.351849 0.250000
O O12 0.135075 0.452911 0.230974
O O13 0.224708 0.060061 0.283748
O O14 0.750000 0.250000 0.000000
#
# Coordination Sequence:
#
# PCOD9274938 Si02
#       7
#     8   8   8   8   8   8   4
#     4   9  21  39  68  96 130 183 215 271 325 396
#     4  10  23  40  68  99 135 177 220 276 335 392
#     4  10  21  39  67  95 128 174 217 274 335 388
#     4  11  23  39  61  99 132 170 217 271 335 397
#     4  11  22  40  66 100 136 167 219 269 339 399
#     4  10  21  43  69  93 130 177 229 268 329 396
#     4  10  20  38  66  94 138 164 220 264 332 400
#
# _framework density 22.394500000000001
#
# number of rings (size 3 to 8) (size 9 to 14) (size 15 to 20)
#    0.000    1.846    1.538    1.385    2.154    4.308 
#    6.923    0.000   20.308    0.000    0.000    0.000 
#    0.000    0.000    0.000    0.000    0.000    0.000 
#
# Total GULP energy -144993.606080 kJ/mol
# GULP energy per Si atom -5576.677157 kJ/mol
# Density = 2.234353 g / cm^3
# Si number density = 22.394500 Si / 1000 Ang^3
#
#
#
# Elastic Constant Matrix: (Units=GPa)
#
#
# Indices 1 2 3 4 5 6 
#
# 1 95.8919 26.1750 43.9905 0.0005 31.5887 0.0004
# 2 26.1750 77.7112 57.6463 -0.0002 12.0656 -0.0003
# 3 43.9905 57.6463 187.5733 -0.0003 21.7541 -0.0009
# 4 0.0005 -0.0002 -0.0003 43.0177 0.0011 -0.1838
# 5 31.5887 12.0656 21.7541 0.0011 35.7883 0.0005
# 6 0.0004 -0.0003 -0.0009 -0.1838 0.0005 21.3930
#
#
#
# Elastic Compliance Matrix: (Units=1/GPa)
#
#
# Indices 1 2 3 4 5 6 
#
# 1 0.015798 -0.002237 -0.001601 0.000000 -0.012217 0.000000
# 2 -0.002237 0.017230 -0.004654 0.000000 -0.001006 0.000000
# 3 -0.001601 -0.004654 0.007306 0.000000 -0.001459 0.000000
# 4 0.000000 0.000000 0.000000 0.023247 -0.000001 0.000200
# 5 -0.012217 -0.001006 -0.001459 -0.000001 0.039951 -0.000001
# 6 0.000000 0.000000 0.000000 0.000200 -0.000001 0.046746
#
#
# Mechanical properties :
#
#
# Convention : Reuss Voigt Hill
#
# Bulk Modulus (GPa) = 42.82493 68.53333 55.67913
# Shear Modulus (GPa) = 28.56403 35.59744 32.08073
#
# Velocity S-wave (km/s) = 3.57528 3.99126 3.78898
# Velocity P-wave (km/s) = 6.01731 7.20481 6.63767
#
# Compressibility (1/GPa) = 0.02335088
#
# Stress axis : x y z
#
# Youngs Moduli (GPa) = 63.30003 58.03798 136.87036
#
# Poissons Ratio (x) = 0.12983 0.21908
# Poissons Ratio (y) = 0.14160 0.63700
# Poissons Ratio (z) = 0.10132 0.27011
#
# Static dielectric constant tensor:
#      x y z
#    x 1.957570 0.000000 0.013730 
#    y 0.000000 1.852670 0.000000 
#    z 0.013730 0.000000 1.845560 
# 
# From -- ./inp_files/308974.got.cif
#   From: 2010.05.17/outbox.cif.g08.bks.cpg/sg15_155_cif.got.tgz:308974.got - 2010.06.03 18:47:42.
