data_PCOD9274066
_publ_section_title
;
Structure prediction by ZEFSAII (Michael W. Deem and Ramdas Pophale) SiO2 
 PCOD9274066
Probable space group: C 2/C
;
_chemical_formula_sum "Si O2"
_cell_formula_units_Z 56
_cell_length_a 8.520572
_cell_length_b 14.335732
_cell_length_c 21.034506
_cell_angle_alpha 90.000000
_cell_angle_beta 97.644568
_cell_angle_gamma 90.000000
_cell_volume 2546.500905
_symmetry_space_group_name_H-M "C 2/C"
_symmetry_group_IT_number 15
_symmetry_cell_setting 'monoclinic'
loop_
_space_group_symop_operation_xyz
x,y,z
-x,y,1/2-z
-x,-y,-z
x,-y,1/2+z
1/2+x,1/2+y,z
1/2-x,1/2+y,1/2-z
1/2-x,1/2-y,-z
1/2+x,1/2-y,1/2+z
loop_
_atom_site_type_symbol
_atom_site_label
_atom_site_fract_x
_atom_site_fract_y
_atom_site_fract_z
Si Si1 0.517529 0.105031 0.363143
Si Si2 0.241363 0.140443 0.011881
Si Si3 0.258708 0.515843 0.607665
Si Si4 0.295592 0.621433 0.283415
Si Si5 0.747420 0.252348 0.157504
Si Si6 0.926676 0.919438 0.303694
Si Si7 0.536051 0.656912 0.412612
O O1 0.640141 0.102147 0.428002
O O2 0.623190 0.114037 0.305767
O O3 0.416423 0.199504 0.366373
O O4 0.391769 0.019222 0.359178
O O5 0.063329 0.133988 0.030231
O O6 0.250000 0.250000 0.000000
O O7 0.282866 0.086310 0.950224
O O8 0.417818 0.557777 0.647492
O O9 0.327687 0.420175 0.583354
O O10 0.304625 0.690389 0.222835
O O11 0.352201 0.515537 0.273070
O O12 0.410682 0.650793 0.347499
O O13 0.706783 0.358085 0.171336
O O14 0.865843 0.247611 0.103877
O O15 0.000000 0.860330 0.250000
#
# Coordination Sequence:
#
# PCOD9274066 Si02
#       7
#     8   8   8   8   8   8   8
#     4  10  21  37  59  85 118 156 193 244 300 353
#     4  11  22  37  58  86 116 149 197 250 295 348
#     4  10  21  40  60  81 115 156 196 236 293 359
#     4  10  20  38  61  87 119 153 193 244 300 356
#     4  11  21  38  59  85 120 155 193 243 298 356
#     4  11  22  37  60  87 115 155 198 240 296 363
#     4   9  21  39  59  81 113 156 195 239 296 353
#
# _framework density 21.990960000000001
#
# number of rings (size 3 to 8) (size 9 to 14) (size 15 to 20)
#    0.000    1.714    0.000    6.000    0.000    2.286 
#    0.000   12.143    0.000    0.000    0.000    0.000 
#    0.000    0.000    0.000    0.000    0.000    0.000 
#
# Total GULP energy -156081.509608 kJ/mol
# GULP energy per Si atom -5574.339629 kJ/mol
# Density = 2.194091 g / cm^3
# Si number density = 21.990960 Si / 1000 Ang^3
#
#
#
# Elastic Constant Matrix: (Units=GPa)
#
#
# Indices 1 2 3 4 5 6 
#
# 1 95.8156 22.3137 0.6178 0.0000 -19.9289 0.0000
# 2 22.3137 55.2655 1.7176 0.0000 2.9667 0.0000
# 3 0.6178 1.7176 20.8069 0.0000 3.7090 0.0000
# 4 0.0000 0.0000 0.0000 -138.6246 0.0000 -126.5642
# 5 -19.9289 2.9667 3.7090 0.0000 38.2737 0.0000
# 6 0.0000 0.0000 0.0000 -126.5642 0.0000 -74.7892
#
#
#
# Elastic Compliance Matrix: (Units=1/GPa)
#
#
# Indices 1 2 3 4 5 6 
#
# 1 0.013349 -0.005754 -0.001262 0.000000 0.007519 0.000000
# 2 -0.005754 0.020683 -0.000729 0.000000 -0.004529 0.000000
# 3 -0.001262 -0.000729 0.049114 0.000000 -0.005360 0.000000
# 4 0.000000 0.000000 0.000000 0.013235 0.000000 -0.022397
# 5 0.007519 -0.004529 -0.005360 0.000000 0.030913 0.000000
# 6 0.000000 0.000000 0.000000 -0.022397 0.000000 0.024532
#
#
# Mechanical properties :
#
#
# Convention : Reuss Voigt Hill
#
# Bulk Modulus (GPa) = 14.78057 24.57625 19.67841
# Shear Modulus (GPa) = 26.33406 -25.21209 0.56098
#
# Velocity S-wave (km/s) = 3.46424 -3.38964 0.50562
# Velocity P-wave (km/s) = 4.76834 2.02969 3.05102
#
# Compressibility (1/GPa) = 0.06765639
#
# Stress axis : x y z
#
# Youngs Moduli (GPa) = 74.91353 48.34777 20.36071
#
# Poissons Ratio (x) = 0.27819 0.02569
# Poissons Ratio (y) = 0.43105 0.01485
# Poissons Ratio (z) = 0.09452 0.03526
#
# Static dielectric constant tensor:
#      x y z
#    x 1.874420 0.000000 -0.038060 
#    y 0.000000 1.822500 0.000000 
#    z -0.038060 0.000000 1.899060 
# 
# From -- ./inp_files/231555.got.cif
#   From: 2010.05.17/outbox.cif.g08.bks.cpg/sg15_116_cif.got.tgz:231555.got - 2010.06.03 18:47:42.
