data_PCOD9274135
_publ_section_title
;
Structure prediction by ZEFSAII (Michael W. Deem and Ramdas Pophale) SiO2 
 PCOD9274135
Probable space group: C 2/C
;
_chemical_formula_sum "Si O2"
_cell_formula_units_Z 48
_cell_length_a 5.213190
_cell_length_b 18.939807
_cell_length_c 23.720362
_cell_angle_alpha 90.000000
_cell_angle_beta 120.459005
_cell_angle_gamma 90.000000
_cell_volume 2018.848326
_symmetry_space_group_name_H-M "C 2/C"
_symmetry_group_IT_number 15
_symmetry_cell_setting 'monoclinic'
loop_
_space_group_symop_operation_xyz
x,y,z
-x,y,1/2-z
-x,-y,-z
x,-y,1/2+z
1/2+x,1/2+y,z
1/2-x,1/2+y,1/2-z
1/2-x,1/2-y,-z
1/2+x,1/2-y,1/2+z
loop_
_atom_site_type_symbol
_atom_site_label
_atom_site_fract_x
_atom_site_fract_y
_atom_site_fract_z
Si Si1 0.167480 0.567268 0.970143
Si Si2 0.324475 0.629200 0.312116
Si Si3 0.654695 0.056408 0.094609
Si Si4 0.184639 0.836315 0.555397
Si Si5 0.534948 0.785915 0.316687
Si Si6 0.226464 0.185765 0.899489
O O1 0.095275 0.502433 0.920404
O O2 0.869248 0.613811 0.936290
O O3 0.242997 0.537048 0.040571
O O4 0.434438 0.622647 0.992259
O O5 0.567472 0.566900 0.333561
O O6 0.308285 0.641641 0.377683
O O7 0.457098 0.702665 0.304178
O O8 0.000000 0.616598 0.250000
O O9 0.502013 0.133296 0.071722
O O10 0.136658 0.752904 0.552001
O O11 0.500000 0.816612 0.250000
O O12 0.322816 0.810614 0.344122
O O13 0.877086 0.802188 0.368285
#
# Coordination Sequence:
#
# PCOD9274135 Si02
#       6
#     8   8   8   8   8   8
#     4  10  23  38  60  91 131 171 211 265 328 392
#     4  10  21  37  63  94 120 160 217 268 316 382
#     4  10  21  40  61  89 127 172 216 262 330 385
#     4  10  20  38  61  93 123 163 215 263 322 381
#     4  11  22  41  65  93 128 165 214 269 330 381
#     4  11  23  39  65  98 126 168 216 271 324 391
#
# _framework density 23.775929999999999
#
# number of rings (size 3 to 8) (size 9 to 14) (size 15 to 20)
#    0.000    1.667    1.667    3.500    2.333    0.667 
#    0.000    0.833    3.667    0.000    0.000    0.000 
#    0.000    0.000    0.000    0.000    0.000    0.000 
#
# Total GULP energy -133979.055947 kJ/mol
# GULP energy per Si atom -5582.460664 kJ/mol
# Density = 2.372181 g / cm^3
# Si number density = 23.775930 Si / 1000 Ang^3
#
#
#
# Elastic Constant Matrix: (Units=GPa)
#
#
# Indices 1 2 3 4 5 6 
#
# 1 89.1382 9.5249 48.5855 0.0000 9.1524 0.0000
# 2 9.5249 103.6985 40.5037 0.0000 16.2176 0.0000
# 3 48.5855 40.5037 116.2708 0.0000 14.1298 0.0000
# 4 0.0000 0.0000 0.0000 19.5777 0.0000 3.0008
# 5 9.1524 16.2176 14.1298 0.0000 54.6229 0.0000
# 6 0.0000 0.0000 0.0000 3.0008 0.0000 9.9484
#
#
#
# Elastic Compliance Matrix: (Units=1/GPa)
#
#
# Indices 1 2 3 4 5 6 
#
# 1 0.014731 0.001368 -0.006487 0.000000 -0.001196 0.000000
# 2 0.001368 0.011598 -0.004301 0.000000 -0.002560 0.000000
# 3 -0.006487 -0.004301 0.012928 0.000000 -0.000981 0.000000
# 4 0.000000 0.000000 0.000000 0.053555 0.000000 -0.016154
# 5 -0.001196 -0.002560 -0.000981 0.000000 0.019522 0.000000
# 6 0.000000 0.000000 0.000000 -0.016154 0.000000 0.105391
#
#
# Mechanical properties :
#
#
# Convention : Reuss Voigt Hill
#
# Bulk Modulus (GPa) = 48.97604 56.25951 52.61777
# Shear Modulus (GPa) = 20.54492 30.86270 25.70381
#
# Velocity S-wave (km/s) = 2.94276 3.60678 3.29155
# Velocity P-wave (km/s) = 5.67364 6.40772 6.05182
#
# Compressibility (1/GPa) = 0.02041815
#
# Stress axis : x y z
#
# Youngs Moduli (GPa) = 67.88511 86.22276 77.34911
#
# Poissons Ratio (x) = -0.11792 0.50173
# Poissons Ratio (y) = -0.09284 0.33264
# Poissons Ratio (z) = 0.44034 0.37081
#
# Static dielectric constant tensor:
#      x y z
#    x 2.034900 0.000000 -0.040160 
#    y 0.000000 1.928110 0.000000 
#    z -0.040160 0.000000 1.920830 
# 
# From -- ./inp_files/227366.got.cif
#   From: 2010.05.17/outbox.cif.g08.bks.cpg/sg15_114_cif.got.tgz:227366.got - 2010.06.03 18:47:42.
