data_PCOD9274667
_publ_section_title
;
Structure prediction by ZEFSAII (Michael W. Deem and Ramdas Pophale) SiO2 
 PCOD9274667
Probable space group: C 2/C
;
_chemical_formula_sum "Si O2"
_cell_formula_units_Z 40
_cell_length_a 8.680625
_cell_length_b 22.635741
_cell_length_c 8.672487
_cell_angle_alpha 90.000000
_cell_angle_beta 72.786386
_cell_angle_gamma 90.000000
_cell_volume 1627.748683
_symmetry_space_group_name_H-M "C 2/C"
_symmetry_group_IT_number 15
_symmetry_cell_setting 'monoclinic'
loop_
_space_group_symop_operation_xyz
x,y,z
-x,y,1/2-z
-x,-y,-z
x,-y,1/2+z
1/2+x,1/2+y,z
1/2-x,1/2+y,1/2-z
1/2-x,1/2-y,-z
1/2+x,1/2-y,1/2+z
loop_
_atom_site_type_symbol
_atom_site_label
_atom_site_fract_x
_atom_site_fract_y
_atom_site_fract_z
Si Si1 0.668978 0.522166 0.757957
Si Si2 0.261792 0.204143 0.696324
Si Si3 0.047804 0.412917 0.391171
Si Si4 0.694186 0.588440 0.075425
Si Si5 0.488871 0.303126 0.507762
O O1 0.500000 0.547121 0.750000
O O2 0.808141 0.545248 0.598508
O O3 0.678667 0.546542 0.928456
O O4 0.664440 0.451763 0.734726
O O5 0.359571 0.144737 0.697085
O O6 0.392744 0.254999 0.634107
O O7 0.138835 0.222486 0.865856
O O8 0.150166 0.186218 0.581686
O O9 0.000000 0.447640 0.250000
O O10 0.886506 0.396295 0.528328
O O11 0.574850 0.642948 0.072656
#
# Coordination Sequence:
#
# PCOD9274667 Si02
#       5
#     8   8   8   8   8
#     4  11  22  40  65  91 133 182 228 278 339 412
#     4  10  20  40  67  95 133 181 220 285 352 414
#     4  10  20  38  64  92 128 179 220 280 346 404
#     4  11  23  41  65  99 137 178 228 284 346 411
#     4  10  21  40  69  97 136 175 229 280 354 416
#
# _framework density 24.573816000000001
#
# number of rings (size 3 to 8) (size 9 to 14) (size 15 to 20)
#    0.000    1.600    4.000    2.400    0.000    0.800 
#    3.600    0.000    8.800    0.000    0.000    0.000 
#    0.000    0.000    0.000    0.000    0.000    0.000 
#
# Total GULP energy -111493.022476 kJ/mol
# GULP energy per Si atom -5574.651124 kJ/mol
# Density = 2.451788 g / cm^3
# Si number density = 24.573816 Si / 1000 Ang^3
#
#
#
# Elastic Constant Matrix: (Units=GPa)
#
#
# Indices 1 2 3 4 5 6 
#
# 1 152.2526 49.0745 22.7060 0.0000 -20.0533 0.0000
# 2 49.0745 112.7329 26.8365 0.0000 -14.9459 0.0000
# 3 22.7060 26.8365 54.3940 0.0000 -6.6653 0.0000
# 4 0.0000 0.0000 0.0000 681.6973 0.0000 2379.9161
# 5 -20.0533 -14.9459 -6.6653 0.0000 28.9124 0.0000
# 6 0.0000 0.0000 0.0000 2379.9161 0.0000 8977.3156
#
#
#
# Elastic Compliance Matrix: (Units=1/GPa)
#
#
# Indices 1 2 3 4 5 6 
#
# 1 0.008184 -0.002655 -0.001625 0.000000 0.003929 0.000000
# 2 -0.002655 0.011426 -0.004148 0.000000 0.003109 0.000000
# 3 -0.001625 -0.004148 0.021310 0.000000 0.001641 0.000000
# 4 0.000000 0.000000 0.000000 0.019695 0.000000 -0.005221
# 5 0.003929 0.003109 0.001641 0.000000 0.039298 0.000000
# 6 0.000000 0.000000 0.000000 -0.005221 0.000000 0.001496
#
#
# Mechanical properties :
#
#
# Convention : Reuss Voigt Hill
#
# Bulk Modulus (GPa) = 41.55518 57.40149 49.47834
# Shear Modulus (GPa) = 39.59294 1952.30256 995.94775
#
# Velocity S-wave (km/s) = 4.01831 28.21683 20.15361
# Velocity P-wave (km/s) = 6.20292 32.93927 23.70096
#
# Compressibility (1/GPa) = 0.02406439
#
# Stress axis : x y z
#
# Youngs Moduli (GPa) = 122.19660 87.52129 46.92561
#
# Poissons Ratio (x) = 0.23234 0.07625
# Poissons Ratio (y) = 0.32440 0.19465
# Poissons Ratio (z) = 0.19855 0.36304
#
# Static dielectric constant tensor:
#      x y z
#    x 2.090660 0.000000 0.026080 
#    y 0.000000 1.970060 0.000000 
#    z 0.026080 0.000000 2.042230 
# 
# From -- ./inp_files/77741.got.cif
#   From: 2010.05.17/outbox.cif.g08.bks.cpg/sg15_39_cif.got.tgz:77741.got - 2010.06.03 18:47:42.
