data_PCOD9274530
_publ_section_title
;
Structure prediction by ZEFSAII (Michael W. Deem and Ramdas Pophale) SiO2 
 PCOD9274530
Probable space group: C 2/C
;
_chemical_formula_sum "Si O2"
_cell_formula_units_Z 44
_cell_length_a 21.331984
_cell_length_b 8.991721
_cell_length_c 10.513446
_cell_angle_alpha 90.000000
_cell_angle_beta 78.845159
_cell_angle_gamma 90.000000
_cell_volume 1978.499530
_symmetry_space_group_name_H-M "C 2/C"
_symmetry_group_IT_number 15
_symmetry_cell_setting 'monoclinic'
loop_
_space_group_symop_operation_xyz
x,y,z
-x,y,1/2-z
-x,-y,-z
x,-y,1/2+z
1/2+x,1/2+y,z
1/2-x,1/2+y,1/2-z
1/2-x,1/2-y,-z
1/2+x,1/2-y,1/2+z
loop_
_atom_site_type_symbol
_atom_site_label
_atom_site_fract_x
_atom_site_fract_y
_atom_site_fract_z
Si Si1 0.000000 0.967075 0.750000
Si Si2 0.165062 0.838242 0.920498
Si Si3 0.106726 0.126561 0.849551
Si Si4 0.898567 0.602995 0.719435
Si Si5 0.814430 0.328605 0.831890
Si Si6 0.524094 0.806489 0.064878
O O1 0.937927 0.063948 0.745551
O O2 0.994921 0.856234 0.871212
O O3 0.141597 0.746276 0.807285
O O4 0.240636 0.866443 0.880423
O O5 0.125943 0.992085 0.935867
O O6 0.157385 0.729414 0.044627
O O7 0.172117 0.191521 0.767716
O O8 0.064922 0.258690 0.928001
O O9 0.852253 0.465056 0.755540
O O10 0.931379 0.625704 0.843269
O O11 0.957864 0.600825 0.594902
#
# Coordination Sequence:
#
# PCOD9274530 Si02
#       6
#     4   8   8   8   8   8
#     4  10  20  38  64 100 128 168 214 272 336 384
#     4  11  24  47  67  93 139 172 231 271 319 410
#     4  12  23  41  72  99 130 175 229 271 333 394
#     4  10  23  46  64  95 139 167 219 279 335 391
#     4  11  27  42  67  99 129 184 219 275 335 385
#     4  10  22  41  67  97 130 174 214 281 331 392
#
# _framework density 22.239077000000002
#
# number of rings (size 3 to 8) (size 9 to 14) (size 15 to 20)
#    0.000    1.455    3.636    2.727    5.091    2.182 
#    0.000    1.818    0.000    0.000    0.000    0.000 
#    0.000    0.000    0.000    0.000    0.000    0.000 
#
# Total GULP energy -122838.294985 kJ/mol
# GULP energy per Si atom -5583.558863 kJ/mol
# Density = 2.218846 g / cm^3
# Si number density = 22.239077 Si / 1000 Ang^3
#
#
#
# Elastic Constant Matrix: (Units=GPa)
#
#
# Indices 1 2 3 4 5 6 
#
# 1 87.8455 33.0118 9.7112 0.0000 -4.2169 0.0000
# 2 33.0118 82.5805 13.6374 0.0000 -14.5837 0.0000
# 3 9.7112 13.6374 49.3740 0.0000 -20.6690 0.0000
# 4 0.0000 0.0000 0.0000 25.4490 0.0000 -12.4491
# 5 -4.2169 -14.5837 -20.6690 0.0000 25.7556 0.0000
# 6 0.0000 0.0000 0.0000 -12.4491 0.0000 30.6361
#
#
#
# Elastic Compliance Matrix: (Units=1/GPa)
#
#
# Indices 1 2 3 4 5 6 
#
# 1 0.013587 -0.005538 -0.002295 0.000000 -0.002754 0.000000
# 2 -0.005538 0.015733 0.000141 0.000000 0.008115 0.000000
# 3 -0.002295 0.000141 0.030934 0.000000 0.024529 0.000000
# 4 0.000000 0.000000 0.000000 0.049043 0.000000 0.019929
# 5 -0.002754 0.008115 0.024529 0.000000 0.062655 0.000000
# 6 0.000000 0.000000 0.000000 0.019929 0.000000 0.040739
#
#
# Mechanical properties :
#
#
# Convention : Reuss Voigt Hill
#
# Bulk Modulus (GPa) = 22.28740 36.94678 29.61709
# Shear Modulus (GPa) = 20.57327 27.26410 23.91868
#
# Velocity S-wave (km/s) = 3.04484 3.50516 3.28308
# Velocity P-wave (km/s) = 4.73338 5.74727 5.26479
#
# Compressibility (1/GPa) = 0.04486840
#
# Stress axis : x y z
#
# Youngs Moduli (GPa) = 73.60245 63.55958 32.32643
#
# Poissons Ratio (x) = 0.35202 0.07420
# Poissons Ratio (y) = 0.40765 -0.00455
# Poissons Ratio (z) = 0.16893 -0.00895
#
# Static dielectric constant tensor:
#      x y z
#    x 1.787950 0.000000 -0.024290 
#    y 0.000000 1.835930 0.000000 
#    z -0.024290 0.000000 1.852720 
# 
# From -- ./inp_files/109980.got.cif
#   From: 2010.05.17/outbox.cif.g08.bks.cpg/sg15_55_cif.got.tgz:109980.got - 2010.06.03 18:47:42.
