data_PCOD9274211
_publ_section_title
;
Structure prediction by ZEFSAII (Michael W. Deem and Ramdas Pophale) SiO2 
 PCOD9274211
Probable space group: C 2/C
;
_chemical_formula_sum "Si O2"
_cell_formula_units_Z 60
_cell_length_a 7.229592
_cell_length_b 17.820441
_cell_length_c 20.938308
_cell_angle_alpha 90.000000
_cell_angle_beta 79.253948
_cell_angle_gamma 90.000000
_cell_volume 2650.270077
_symmetry_space_group_name_H-M "C 2/C"
_symmetry_group_IT_number 15
_symmetry_cell_setting 'monoclinic'
loop_
_space_group_symop_operation_xyz
x,y,z
-x,y,1/2-z
-x,-y,-z
x,-y,1/2+z
1/2+x,1/2+y,z
1/2-x,1/2+y,1/2-z
1/2-x,1/2-y,-z
1/2+x,1/2-y,1/2+z
loop_
_atom_site_type_symbol
_atom_site_label
_atom_site_fract_x
_atom_site_fract_y
_atom_site_fract_z
Si Si1 0.707769 0.520566 0.960574
Si Si2 0.689192 0.962242 0.337121
Si Si3 0.808955 0.168374 0.784456
Si Si4 0.205725 0.805160 0.649992
Si Si5 0.699983 0.677321 0.306149
Si Si6 0.813115 0.369385 0.349272
Si Si7 0.000000 0.430771 0.750000
Si Si8 0.431353 0.920954 0.558857
O O1 0.697587 0.566250 0.894279
O O2 0.850742 0.448069 0.951040
O O3 0.500000 0.500000 0.000000
O O4 0.832825 0.578213 0.996245
O O5 0.862802 0.907118 0.318454
O O6 0.524109 0.899914 0.346786
O O7 0.639400 0.018685 0.283150
O O8 0.679338 0.010412 0.400221
O O9 0.719224 0.237163 0.828040
O O10 0.715736 0.138532 0.725095
O O11 0.000000 0.206876 0.750000
O O12 0.207680 0.811605 0.727671
O O13 0.211679 0.717752 0.629578
O O14 0.369068 0.848507 0.602558
O O15 0.002104 0.845368 0.652576
O O16 0.867447 0.618936 0.304257
#
# Coordination Sequence:
#
# PCOD9274211 Si02
#       8
#     8   8   8   8   8   8   4   8
#     4  10  24  45  64  85 122 163 215 274 313 360
#     4  11  21  37  60  87 123 162 199 247 310 381
#     4  11  21  34  57  92 126 160 203 244 310 389
#     4  10  20  38  62  86 124 161 205 249 317 380
#     4  10  21  35  56  90 133 162 191 251 315 379
#     4  10  21  39  61  85 119 168 200 250 315 376
#     4  12  20  34  54  92 128 164 200 246 306 372
#     4  10  23  42  64  90 118 161 214 263 312 368
#
# _framework density 22.639202000000001
#
# number of rings (size 3 to 8) (size 9 to 14) (size 15 to 20)
#    0.000    1.600    4.667    0.000    1.867    3.733 
#    0.000    0.667    0.000    0.000    0.000    0.000 
#    0.000    0.000    0.000    0.000    0.000    0.000 
#
# Total GULP energy -167062.679689 kJ/mol
# GULP energy per Si atom -5568.755990 kJ/mol
# Density = 2.258767 g / cm^3
# Si number density = 22.639202 Si / 1000 Ang^3
#
#
#
# Elastic Constant Matrix: (Units=GPa)
#
#
# Indices 1 2 3 4 5 6 
#
# 1 81.4678 29.6252 23.5588 0.0000 -18.7642 0.0000
# 2 29.6252 128.2364 27.5122 0.0000 -19.5460 0.0000
# 3 23.5588 27.5122 61.9402 0.0000 -13.6751 0.0000
# 4 0.0000 0.0000 0.0000 30.4233 0.0000 -12.3289
# 5 -18.7642 -19.5460 -13.6751 0.0000 41.2564 0.0000
# 6 0.0000 0.0000 0.0000 -12.3289 0.0000 24.2637
#
#
#
# Elastic Compliance Matrix: (Units=1/GPa)
#
#
# Indices 1 2 3 4 5 6 
#
# 1 0.015189 -0.001963 -0.003868 0.000000 0.004696 0.000000
# 2 -0.001963 0.009241 -0.002793 0.000000 0.002559 0.000000
# 3 -0.003868 -0.002793 0.019611 0.000000 0.003418 0.000000
# 4 0.000000 0.000000 0.000000 0.041393 0.000000 0.021033
# 5 0.004696 0.002559 0.003418 0.000000 0.028720 0.000000
# 6 0.000000 0.000000 0.000000 0.021033 0.000000 0.051901
#
#
# Mechanical properties :
#
#
# Convention : Reuss Voigt Hill
#
# Bulk Modulus (GPa) = 37.32437 48.11520 42.71979
# Shear Modulus (GPa) = 26.00994 31.91856 28.96425
#
# Velocity S-wave (km/s) = 3.39320 3.75891 3.58073
# Velocity P-wave (km/s) = 5.64572 6.33549 6.00052
#
# Compressibility (1/GPa) = 0.02679215
#
# Stress axis : x y z
#
# Youngs Moduli (GPa) = 65.83737 108.21412 50.99185
#
# Poissons Ratio (x) = 0.21246 0.19725
# Poissons Ratio (y) = 0.12926 0.14241
# Poissons Ratio (z) = 0.25468 0.30222
#
# Static dielectric constant tensor:
#      x y z
#    x 2.019920 0.000000 -0.114680 
#    y 0.000000 1.898980 0.000000 
#    z -0.114680 0.000000 2.082890 
# 
# From -- ./inp_files/265530.got.cif
#   From: 2010.05.17/outbox.cif.g08.bks.cpg/sg15_133_cif.got.tgz:265530.got - 2010.06.03 18:47:42.
