data_PCOD9274723
_publ_section_title
;
Structure prediction by ZEFSAII (Michael W. Deem and Ramdas Pophale) SiO2 
 PCOD9274723
Probable space group: C 2/C
;
_chemical_formula_sum "Si O2"
_cell_formula_units_Z 56
_cell_length_a 15.426149
_cell_length_b 20.020476
_cell_length_c 9.812796
_cell_angle_alpha 90.000000
_cell_angle_beta 130.620882
_cell_angle_gamma 90.000000
_cell_volume 2300.307866
_symmetry_space_group_name_H-M "C 2/C"
_symmetry_group_IT_number 15
_symmetry_cell_setting 'monoclinic'
loop_
_space_group_symop_operation_xyz
x,y,z
-x,y,1/2-z
-x,-y,-z
x,-y,1/2+z
1/2+x,1/2+y,z
1/2-x,1/2+y,1/2-z
1/2-x,1/2-y,-z
1/2+x,1/2-y,1/2+z
loop_
_atom_site_type_symbol
_atom_site_label
_atom_site_fract_x
_atom_site_fract_y
_atom_site_fract_z
Si Si1 0.169273 0.812287 0.960747
Si Si2 0.162886 0.359552 0.133482
Si Si3 0.734661 0.001573 0.785447
Si Si4 0.258618 0.643493 0.245550
Si Si5 0.148883 0.162934 0.877198
Si Si6 0.452600 0.241546 0.448070
Si Si7 0.616435 0.492055 0.308836
O O1 0.241899 0.847453 0.153810
O O2 0.056403 0.789414 0.928400
O O3 0.250000 0.750000 0.000000
O O4 0.173849 0.856683 0.828350
O O5 0.153457 0.440388 0.141170
O O6 0.222157 0.338334 0.052480
O O7 0.058437 0.309354 0.051011
O O8 0.696770 0.925555 0.724656
O O9 0.850770 0.996916 0.813610
O O10 0.776632 0.010108 0.983218
O O11 0.341934 0.667951 0.451314
O O12 0.157500 0.695851 0.139851
O O13 0.077790 0.215990 0.717652
O O14 0.107528 0.088271 0.805582
O O15 0.500000 0.521411 0.250000
#
# Coordination Sequence:
#
# PCOD9274723 Si02
#       7
#     8   8   8   8   8   8   8
#     4   9  20  39  62  89 131 169 229 279 331 395
#     4  10  21  40  65  93 134 176 221 273 343 405
#     4  10  21  38  66  92 134 171 213 291 326 408
#     4  10  20  38  64  96 133 175 226 283 347 390
#     4   9  21  41  60  94 133 170 221 288 333 398
#     4  10  21  40  65  90 132 181 223 278 338 415
#     4  10  20  39  64  94 125 168 224 270 346 398
#
# _framework density 24.344569
#
# number of rings (size 3 to 8) (size 9 to 14) (size 15 to 20)
#    0.000    2.286    0.000    1.714    0.000    3.429 
#   18.000    1.429   15.714    6.857    0.000    0.000 
#    0.000    2.286    0.000    0.000    0.000    0.000 
#
# Total GULP energy -156346.823711 kJ/mol
# GULP energy per Si atom -5583.815133 kJ/mol
# Density = 2.428916 g / cm^3
# Si number density = 24.344569 Si / 1000 Ang^3
#
#
#
# Elastic Constant Matrix: (Units=GPa)
#
#
# Indices 1 2 3 4 5 6 
#
# 1 77.6238 23.6657 23.7191 0.0000 -21.5246 0.0000
# 2 23.6657 118.6139 43.2394 0.0000 7.8952 0.0000
# 3 23.7191 43.2394 126.2506 0.0000 -33.5834 0.0000
# 4 0.0000 0.0000 0.0000 1.3039 0.0000 -52.0558
# 5 -21.5246 7.8952 -33.5834 0.0000 33.0789 0.0000
# 6 0.0000 0.0000 0.0000 -52.0558 0.0000 -39.4196
#
#
#
# Elastic Compliance Matrix: (Units=1/GPa)
#
#
# Indices 1 2 3 4 5 6 
#
# 1 0.018234 -0.005739 0.002822 0.000000 0.016100 0.000000
# 2 -0.005739 0.013141 -0.007193 0.000000 -0.014173 0.000000
# 3 0.002822 -0.007193 0.014795 0.000000 0.018573 0.000000
# 4 0.000000 0.000000 0.000000 0.014276 0.000000 -0.018853
# 5 0.016100 -0.014173 0.018573 0.000000 0.062947 0.000000
# 6 0.000000 0.000000 0.000000 -0.018853 0.000000 -0.000472
#
#
# Mechanical properties :
#
#
# Convention : Reuss Voigt Hill
#
# Bulk Modulus (GPa) = 38.53225 55.97076 47.25151
# Shear Modulus (GPa) = 32.94046 14.45023 23.69535
#
# Velocity S-wave (km/s) = 3.68243 2.43897 3.12321
# Velocity P-wave (km/s) = 5.82603 5.56529 5.69715
#
# Compressibility (1/GPa) = 0.02595228
#
# Stress axis : x y z
#
# Youngs Moduli (GPa) = 54.84167 76.09739 67.59256
#
# Poissons Ratio (x) = 0.43670 -0.19078
# Poissons Ratio (y) = 0.31472 0.48617
# Poissons Ratio (z) = -0.15479 0.54734
#
# Static dielectric constant tensor:
#      x y z
#    x 2.007770 0.000000 -0.009980 
#    y 0.000000 2.080690 0.000000 
#    z -0.009980 0.000000 1.940240 
# 
# From -- ./inp_files/66747.got.cif
#   From: 2010.05.17/outbox.cif.g08.bks.cpg/sg15_34_cif.got.tgz:66747.got - 2010.06.03 18:47:42.
