data_PCOD9274255
_publ_section_title
;
Structure prediction by ZEFSAII (Michael W. Deem and Ramdas Pophale) SiO2 
 PCOD9274255
Probable space group: C 2/C
;
_chemical_formula_sum "Si O2"
_cell_formula_units_Z 44
_cell_length_a 13.395274
_cell_length_b 16.480619
_cell_length_c 25.847902
_cell_angle_alpha 90.000000
_cell_angle_beta 157.284411
_cell_angle_gamma 90.000000
_cell_volume 2203.506657
_symmetry_space_group_name_H-M "C 2/C"
_symmetry_group_IT_number 15
_symmetry_cell_setting 'monoclinic'
loop_
_space_group_symop_operation_xyz
x,y,z
-x,y,1/2-z
-x,-y,-z
x,-y,1/2+z
1/2+x,1/2+y,z
1/2-x,1/2+y,1/2-z
1/2-x,1/2-y,-z
1/2+x,1/2-y,1/2+z
loop_
_atom_site_type_symbol
_atom_site_label
_atom_site_fract_x
_atom_site_fract_y
_atom_site_fract_z
Si Si1 0.639403 0.143430 0.987088
Si Si2 0.500000 0.396112 0.750000
Si Si3 0.147157 0.341236 0.942952
Si Si4 0.402430 0.690794 0.369594
Si Si5 0.450245 0.026102 0.417662
Si Si6 0.794249 0.927731 0.909352
O O1 0.789459 0.149750 0.114332
O O2 0.845747 0.161972 0.041132
O O3 0.424496 0.212714 0.884993
O O4 0.518320 0.055115 0.919589
O O5 0.348008 0.447652 0.720858
O O6 0.284639 0.392052 0.962882
O O7 0.851356 0.332157 0.783283
O O8 0.125250 0.399266 0.982446
O O9 0.250000 0.250000 0.000000
O O10 0.380303 0.645884 0.413407
O O11 0.500000 0.000000 0.500000
O O12 0.500000 0.950427 0.750000
O O13 0.000000 0.000000 0.000000
#
# Coordination Sequence:
#
# PCOD9274255 Si02
#       6
#     8   4   8   8   8   8
#     4  10  21  39  64  93 129 167 215 264 328 382
#     4  10  20  38  62  88 132 158 214 262 316 392
#     4  11  24  43  66  97 133 168 217 271 326 388
#     4  10  22  41  63  94 130 170 212 271 317 396
#     4  10  22  38  63  93 125 168 211 265 318 382
#     4  10  23  45  67  93 133 173 222 271 330 398
#
# _framework density 19.968171999999999
#
# number of rings (size 3 to 8) (size 9 to 14) (size 15 to 20)
#    0.000    1.818    1.818    1.091    5.091    2.909 
#   16.364    0.000    0.000    0.000    0.000    0.000 
#    0.000    0.000    0.000    0.000    0.000    0.000 
#
# Total GULP energy -122669.404567 kJ/mol
# GULP energy per Si atom -5575.882026 kJ/mol
# Density = 1.992272 g / cm^3
# Si number density = 19.968172 Si / 1000 Ang^3
#
#
#
# Elastic Constant Matrix: (Units=GPa)
#
#
# Indices 1 2 3 4 5 6 
#
# 1 112.6152 60.6176 28.1699 -0.0005 13.2975 0.0002
# 2 60.6176 139.1898 18.4475 0.0031 23.5557 0.0007
# 3 28.1699 18.4475 21.4014 -0.0020 14.1670 0.0026
# 4 -0.0005 0.0031 -0.0020 27.4299 0.0010 4.8483
# 5 13.2975 23.5557 14.1670 0.0010 27.9180 -0.0007
# 6 0.0002 0.0007 0.0026 4.8483 -0.0007 35.0335
#
#
#
# Elastic Compliance Matrix: (Units=1/GPa)
#
#
# Indices 1 2 3 4 5 6 
#
# 1 0.016527 -0.005626 -0.022340 -0.000001 0.008212 0.000002
# 2 -0.005626 0.010510 0.003678 -0.000001 -0.008055 -0.000001
# 3 -0.022340 0.003678 0.102354 0.000010 -0.044402 -0.000010
# 4 -0.000001 -0.000001 0.000010 0.037371 -0.000006 -0.005172
# 5 0.008212 -0.008055 -0.044402 -0.000006 0.061236 0.000005
# 6 0.000002 -0.000001 -0.000010 -0.005172 0.000005 0.029260
#
#
# Mechanical properties :
#
#
# Convention : Reuss Voigt Hill
#
# Bulk Modulus (GPa) = 12.37404 54.18625 33.28015
# Shear Modulus (GPa) = 15.02531 29.14105 22.08318
#
# Velocity S-wave (km/s) = 2.74608 3.82432 3.32914
# Velocity P-wave (km/s) = 4.03298 6.83343 5.61074
#
# Compressibility (1/GPa) = 0.08081437
#
# Stress axis : x y z
#
# Youngs Moduli (GPa) = 60.50749 95.14381 9.77005
#
# Poissons Ratio (x) = 0.53532 0.21826
# Poissons Ratio (y) = 0.34044 -0.03593
# Poissons Ratio (z) = 1.35173 -0.34994
#
# Static dielectric constant tensor:
#      x y z
#    x 1.782880 -0.000010 -0.033980 
#    y -0.000010 1.764820 0.000000 
#    z -0.033980 0.000000 1.772330 
# 
# From -- ./inp_files/244473.got.cif
#   From: 2010.05.17/outbox.cif.g08.bks.cpg/sg15_123_cif.got.tgz:244473.got - 2010.06.03 18:47:42.
