data_PCOD9274519
_publ_section_title
;
Structure prediction by ZEFSAII (Michael W. Deem and Ramdas Pophale) SiO2 
 PCOD9274519
Probable space group: C 2/C
;
_chemical_formula_sum "Si O2"
_cell_formula_units_Z 32
_cell_length_a 7.941042
_cell_length_b 20.605488
_cell_length_c 11.617781
_cell_angle_alpha 90.000000
_cell_angle_beta 127.347578
_cell_angle_gamma 90.000000
_cell_volume 1511.243068
_symmetry_space_group_name_H-M "C 2/C"
_symmetry_group_IT_number 15
_symmetry_cell_setting 'monoclinic'
loop_
_space_group_symop_operation_xyz
x,y,z
-x,y,1/2-z
-x,-y,-z
x,-y,1/2+z
1/2+x,1/2+y,z
1/2-x,1/2+y,1/2-z
1/2-x,1/2-y,-z
1/2+x,1/2-y,1/2+z
loop_
_atom_site_type_symbol
_atom_site_label
_atom_site_fract_x
_atom_site_fract_y
_atom_site_fract_z
Si Si1 0.934265 0.424038 0.459590
Si Si2 0.000000 0.242544 0.750000
Si Si3 0.685277 0.659479 0.034108
Si Si4 0.607982 0.409194 0.912520
Si Si5 0.500000 0.535481 0.750000
O O1 0.866256 0.384356 0.545947
O O2 0.708804 0.425782 0.301615
O O3 0.000000 0.500000 0.500000
O O4 0.142271 0.394431 0.487289
O O5 0.798319 0.290498 0.667788
O O6 0.943430 0.199231 0.616167
O O7 0.522130 0.616098 0.035346
O O8 0.500000 0.382851 0.750000
O O9 0.568643 0.486552 0.879978
#
# Coordination Sequence:
#
# PCOD9274519 Si02
#       5
#     8   4   8   8   4
#     4  10  20  38  63  98 130 167 215 267 343 397
#     4  10  25  42  68  92 126 197 220 270 332 378
#     4  11  22  45  65  91 136 171 229 278 324 394
#     4   9  20  38  62  94 130 169 214 268 331 394
#     4   8  19  36  58 100 132 163 210 260 348 406
#
# _framework density 21.174620999999998
#
# number of rings (size 3 to 8) (size 9 to 14) (size 15 to 20)
#    0.750    1.500    0.000    2.250    0.000    4.000 
#    0.000   23.750    0.000    0.000    0.000    0.000 
#    0.000    0.000    0.000    0.000    0.000    0.000 
#
# Total GULP energy -89087.980664 kJ/mol
# GULP energy per Si atom -5567.998791 kJ/mol
# Density = 2.112643 g / cm^3
# Si number density = 21.174621 Si / 1000 Ang^3
#
#
#
# Elastic Constant Matrix: (Units=GPa)
#
#
# Indices 1 2 3 4 5 6 
#
# 1 160.2236 49.4592 42.5138 0.0000 30.3068 0.0000
# 2 49.4592 74.5273 32.9170 0.0000 1.0864 0.0000
# 3 42.5138 32.9170 95.6927 0.0000 27.4781 0.0000
# 4 0.0000 0.0000 0.0000 32.7009 0.0000 -3.5358
# 5 30.3068 1.0864 27.4781 0.0000 37.9972 0.0000
# 6 0.0000 0.0000 0.0000 -3.5358 0.0000 8.9869
#
#
#
# Elastic Compliance Matrix: (Units=1/GPa)
#
#
# Indices 1 2 3 4 5 6 
#
# 1 0.009583 -0.006275 0.000056 0.000000 -0.007504 0.000000
# 2 -0.006275 0.020535 -0.006997 0.000000 0.009478 0.000000
# 3 0.000056 -0.006997 0.016139 0.000000 -0.011516 0.000000
# 4 0.000000 0.000000 0.000000 0.031939 0.000000 0.012566
# 5 -0.007504 0.009478 -0.011516 0.000000 0.040360 0.000000
# 6 0.000000 0.000000 0.000000 0.012566 0.000000 0.116217
#
#
# Mechanical properties :
#
#
# Convention : Reuss Voigt Hill
#
# Bulk Modulus (GPa) = 50.44478 64.46930 57.45704
# Shear Modulus (GPa) = 18.66972 29.64057 24.15514
#
# Velocity S-wave (km/s) = 2.97257 3.74547 3.38118
# Velocity P-wave (km/s) = 5.97131 7.01551 6.51436
#
# Compressibility (1/GPa) = 0.01982366
#
# Stress axis : x y z
#
# Youngs Moduli (GPa) = 104.35232 48.69820 61.96157
#
# Poissons Ratio (x) = 0.30558 -0.00347
# Poissons Ratio (y) = 0.65480 0.43358
# Poissons Ratio (z) = -0.00584 0.34077
#
# Static dielectric constant tensor:
#      x y z
#    x 1.751670 0.000000 0.000600 
#    y 0.000000 1.868820 0.000000 
#    z 0.000600 0.000000 1.828000 
# 
# From -- ./inp_files/78061.got.cif
#   From: 2010.05.17/outbox.cif.g08.bks.cpg/sg15_40_cif.got.tgz:78061.got - 2010.06.03 18:47:42.
