data_PCOD9274379
_publ_section_title
;
Structure prediction by ZEFSAII (Michael W. Deem and Ramdas Pophale) SiO2 
 PCOD9274379
Probable space group: C 2/C
;
_chemical_formula_sum "Si O2"
_cell_formula_units_Z 56
_cell_length_a 17.245288
_cell_length_b 8.994624
_cell_length_c 26.086786
_cell_angle_alpha 90.000000
_cell_angle_beta 43.608812
_cell_angle_gamma 90.000000
_cell_volume 2790.960763
_symmetry_space_group_name_H-M "C 2/C"
_symmetry_group_IT_number 15
_symmetry_cell_setting 'monoclinic'
loop_
_space_group_symop_operation_xyz
x,y,z
-x,y,1/2-z
-x,-y,-z
x,-y,1/2+z
1/2+x,1/2+y,z
1/2-x,1/2+y,1/2-z
1/2-x,1/2-y,-z
1/2+x,1/2-y,1/2+z
loop_
_atom_site_type_symbol
_atom_site_label
_atom_site_fract_x
_atom_site_fract_y
_atom_site_fract_z
Si Si1 0.412825 0.785961 0.540297
Si Si2 0.705003 0.371313 0.481506
Si Si3 0.222837 0.198842 0.345698
Si Si4 0.077666 0.456117 0.386308
Si Si5 0.794015 0.686423 0.424396
Si Si6 0.534598 0.542006 0.907216
Si Si7 0.044945 0.700773 0.319311
O O1 0.304729 0.711392 0.567867
O O2 0.480574 0.862142 0.461341
O O3 0.479705 0.655805 0.537914
O O4 0.385579 0.915854 0.592080
O O5 0.750000 0.250000 0.500000
O O6 0.785165 0.510599 0.436966
O O7 0.579387 0.446536 0.549323
O O8 0.177313 0.338774 0.334909
O O9 0.224380 0.228144 0.406493
O O10 0.350973 0.176050 0.267860
O O11 0.139265 0.064574 0.370560
O O12 0.039048 0.549864 0.356188
O O13 0.750000 0.750000 0.500000
O O14 0.922924 0.728410 0.354010
O O15 0.562131 0.655461 0.847868
#
# Coordination Sequence:
#
# PCOD9274379 Si02
#       7
#     8   8   8   8   8   8   8
#     4  10  20  38  62  99 126 163 215 269 320 378
#     4  12  23  37  63  96 127 161 212 271 323 368
#     4  12  24  43  68  94 132 173 216 268 331 394
#     4  10  22  36  68  95 126 162 218 267 316 389
#     4  12  26  42  66  95 129 171 217 269 325 384
#     4  11  22  42  66  95 130 170 215 265 327 388
#     4  11  25  44  64  96 132 174 216 267 331 396
#
# _framework density 20.064775000000001
#
# number of rings (size 3 to 8) (size 9 to 14) (size 15 to 20)
#    0.000    0.857    4.286    3.429    6.000    0.000 
#    0.000    0.000    0.000    0.000    0.000    0.000 
#    0.000    0.000    0.000    0.000    0.000    0.000 
#
# Total GULP energy -156224.856829 kJ/mol
# GULP energy per Si atom -5579.459172 kJ/mol
# Density = 2.001911 g / cm^3
# Si number density = 20.064775 Si / 1000 Ang^3
#
#
#
# Elastic Constant Matrix: (Units=GPa)
#
#
# Indices 1 2 3 4 5 6 
#
# 1 108.7073 37.2647 28.9058 0.0000 -8.0875 0.0001
# 2 37.2647 113.5019 10.0721 0.0000 -2.0050 0.0003
# 3 28.9058 10.0721 66.8458 0.0000 -18.3029 0.0000
# 4 0.0000 0.0000 0.0000 12.5905 0.0000 -0.2751
# 5 -8.0875 -2.0050 -18.3029 0.0000 29.8578 0.0000
# 6 0.0001 0.0003 0.0000 -0.2751 0.0000 39.5797
#
#
#
# Elastic Compliance Matrix: (Units=1/GPa)
#
#
# Indices 1 2 3 4 5 6 
#
# 1 0.011557 -0.003397 -0.004435 0.000000 0.000183 0.000000
# 2 -0.003397 0.009930 -0.000116 0.000000 -0.000325 0.000000
# 3 -0.004435 -0.000116 0.019905 0.000000 0.010993 0.000000
# 4 0.000000 0.000000 0.000000 0.079437 0.000000 0.000552
# 5 0.000183 -0.000325 0.010993 0.000000 0.040259 0.000000
# 6 0.000000 0.000000 0.000000 0.000552 0.000000 0.025269
#
#
# Mechanical properties :
#
#
# Convention : Reuss Voigt Hill
#
# Bulk Modulus (GPa) = 39.22374 49.06003 44.14189
# Shear Modulus (GPa) = 23.72449 30.59309 27.15879
#
# Velocity S-wave (km/s) = 3.44233 3.90900 3.68306
# Velocity P-wave (km/s) = 5.94899 6.69907 6.33514
#
# Compressibility (1/GPa) = 0.02549476
#
# Stress axis : x y z
#
# Youngs Moduli (GPa) = 86.53030 100.70063 50.23831
#
# Poissons Ratio (x) = 0.34212 0.22282
# Poissons Ratio (y) = 0.29398 0.00583
# Poissons Ratio (z) = 0.38379 0.01168
#
# Static dielectric constant tensor:
#      x y z
#    x 1.763390 0.000000 -0.016340 
#    y 0.000000 1.717950 0.000000 
#    z -0.016340 0.000000 1.743630 
# 
# From -- ./inp_files/298511.got.cif
#   From: 2010.05.17/outbox.cif.g08.bks.cpg/sg15_150_cif.got.tgz:298511.got - 2010.06.03 18:47:42.
