data_PCOD9274012
_publ_section_title
;
Structure prediction by ZEFSAII (Michael W. Deem and Ramdas Pophale) SiO2 
 PCOD9274012
Probable space group: C 2/C
;
_chemical_formula_sum "Si O2"
_cell_formula_units_Z 64
_cell_length_a 9.429754
_cell_length_b 15.539004
_cell_length_c 27.112481
_cell_angle_alpha 90.000000
_cell_angle_beta 45.461010
_cell_angle_gamma 90.000000
_cell_volume 2831.680388
_symmetry_space_group_name_H-M "C 2/C"
_symmetry_group_IT_number 15
_symmetry_cell_setting 'monoclinic'
loop_
_space_group_symop_operation_xyz
x,y,z
-x,y,1/2-z
-x,-y,-z
x,-y,1/2+z
1/2+x,1/2+y,z
1/2-x,1/2+y,1/2-z
1/2-x,1/2-y,-z
1/2+x,1/2-y,1/2+z
loop_
_atom_site_type_symbol
_atom_site_label
_atom_site_fract_x
_atom_site_fract_y
_atom_site_fract_z
Si Si1 0.620106 0.424450 0.329080
Si Si2 0.130571 0.702945 0.792265
Si Si3 0.913412 0.197580 0.066338
Si Si4 0.968540 0.885408 0.659983
Si Si5 0.589998 0.199841 0.072327
Si Si6 0.775843 0.366154 0.131084
Si Si7 0.093135 0.459858 0.927913
Si Si8 0.675506 0.336978 0.408244
O O1 0.790304 0.360326 0.268792
O O2 0.641586 0.523117 0.307163
O O3 0.414315 0.386323 0.356841
O O4 0.620152 0.418728 0.388249
O O5 0.115983 0.805622 0.787239
O O6 0.264647 0.681006 0.807497
O O7 0.907414 0.674609 0.860318
O O8 0.950681 0.150368 0.108473
O O9 0.685166 0.190867 0.102933
O O10 0.930961 0.301279 0.067217
O O11 0.057458 0.165558 0.988173
O O12 0.198783 0.910381 0.613342
O O13 0.557624 0.106580 0.058515
O O14 0.397292 0.257294 0.108756
O O15 0.750000 0.250000 0.000000
O O16 0.865469 0.459951 0.117912
O O17 0.000000 0.500000 0.000000
#
# Coordination Sequence:
#
# PCOD9274012 Si02
#       8
#     8   8   8   8   8   8   8   8
#     4  11  24  46  65  93 140 180 229 279 332 405
#     4  11  24  46  67  96 131 184 233 278 324 408
#     4  10  22  41  68 102 136 172 219 274 352 411
#     4  10  25  43  68 102 132 177 228 284 339 404
#     4  10  20  38  60  98 134 177 208 262 340 410
#     4  10  23  41  67  96 130 174 222 283 334 395
#     4  11  22  37  65 101 137 167 214 276 341 409
#     4  11  22  39  66  98 137 175 217 274 349 398
#
# _framework density 22.601419
#
# number of rings (size 3 to 8) (size 9 to 14) (size 15 to 20)
#    0.000    1.500    2.500    2.250    7.000    2.500 
#    2.250    6.250    0.000    0.000    0.000    0.000 
#    0.000    0.000    0.000    0.000    0.000    0.000 
#
# Total GULP energy -178786.376744 kJ/mol
# GULP energy per Si atom -5587.074273 kJ/mol
# Density = 2.254998 g / cm^3
# Si number density = 22.601419 Si / 1000 Ang^3
#
#
#
# Elastic Constant Matrix: (Units=GPa)
#
#
# Indices 1 2 3 4 5 6 
#
# 1 81.3009 38.6500 13.0855 0.0001 -3.7832 -0.0001
# 2 38.6500 170.3045 34.3684 0.0000 -10.0798 0.0000
# 3 13.0855 34.3684 61.0043 0.0000 -6.9719 -0.0001
# 4 0.0001 0.0000 0.0000 24.8186 -0.0002 0.0289
# 5 -3.7832 -10.0798 -6.9719 -0.0002 22.5174 0.0002
# 6 -0.0001 0.0000 -0.0001 0.0289 0.0002 40.0106
#
#
#
# Elastic Compliance Matrix: (Units=1/GPa)
#
#
# Indices 1 2 3 4 5 6 
#
# 1 0.013896 -0.002853 -0.001299 0.000000 0.000656 0.000000
# 2 -0.002853 0.007288 -0.003292 0.000000 0.001764 0.000000
# 3 -0.001299 -0.003292 0.019005 0.000000 0.004192 0.000000
# 4 0.000000 0.000000 0.000000 0.040292 0.000000 -0.000029
# 5 0.000656 0.001764 0.004192 0.000000 0.046608 0.000000
# 6 0.000000 0.000000 0.000000 -0.000029 0.000000 0.024993
#
#
# Mechanical properties :
#
#
# Convention : Reuss Voigt Hill
#
# Bulk Modulus (GPa) = 39.52388 53.86859 46.69624
# Shear Modulus (GPa) = 28.50572 32.56970 30.53771
#
# Velocity S-wave (km/s) = 3.55524 3.80023 3.67978
# Velocity P-wave (km/s) = 5.86330 6.56822 6.22575
#
# Compressibility (1/GPa) = 0.02530116
#
# Stress axis : x y z
#
# Youngs Moduli (GPa) = 71.96489 137.21051 52.61815
#
# Poissons Ratio (x) = 0.39142 0.06833
# Poissons Ratio (y) = 0.20530 0.17324
# Poissons Ratio (z) = 0.09345 0.45176
#
# Static dielectric constant tensor:
#      x y z
#    x 1.900050 0.000000 0.022370 
#    y 0.000000 1.856980 0.000000 
#    z 0.022370 0.000000 1.888430 
# 
# From -- ./inp_files/308261.got.cif
#   From: 2010.05.17/outbox.cif.g08.bks.cpg/sg15_155_cif.got.tgz:308261.got - 2010.06.03 18:47:42.
