data_PCOD9274691
_publ_section_title
;
Structure prediction by ZEFSAII (Michael W. Deem and Ramdas Pophale) SiO2 
 PCOD9274691
Probable space group: C 2/C
;
_chemical_formula_sum "Si O2"
_cell_formula_units_Z 64
_cell_length_a 15.472489
_cell_length_b 15.958530
_cell_length_c 13.679053
_cell_angle_alpha 90.000000
_cell_angle_beta 119.526234
_cell_angle_gamma 90.000000
_cell_volume 2938.957534
_symmetry_space_group_name_H-M "C 2/C"
_symmetry_group_IT_number 15
_symmetry_cell_setting 'monoclinic'
loop_
_space_group_symop_operation_xyz
x,y,z
-x,y,1/2-z
-x,-y,-z
x,-y,1/2+z
1/2+x,1/2+y,z
1/2-x,1/2+y,1/2-z
1/2-x,1/2-y,-z
1/2+x,1/2-y,1/2+z
loop_
_atom_site_type_symbol
_atom_site_label
_atom_site_fract_x
_atom_site_fract_y
_atom_site_fract_z
Si Si1 0.079863 0.408591 0.218373
Si Si2 0.790548 0.915540 0.284361
Si Si3 0.712972 0.059150 0.104404
Si Si4 0.640999 0.551719 0.019162
Si Si5 0.961274 0.177119 0.955135
Si Si6 0.856950 0.547014 0.107103
Si Si7 0.492840 0.871579 0.957999
Si Si8 0.594908 0.393040 0.870140
O O1 0.808593 0.372686 0.226822
O O2 0.000000 0.370421 0.250000
O O3 0.101627 0.501645 0.273616
O O4 0.964188 0.407586 0.415231
O O5 0.751440 0.972094 0.173438
O O6 0.836727 0.986594 0.381077
O O7 0.879109 0.849275 0.328353
O O8 0.621685 0.099796 0.110078
O O9 0.805879 0.119573 0.137934
O O10 0.671865 0.033152 0.975736
O O11 0.556060 0.616554 0.998049
O O12 0.750120 0.590928 0.061625
O O13 0.603418 0.490080 0.911942
O O14 0.993576 0.271972 0.963645
O O15 0.913852 0.161042 0.036140
O O16 0.936356 0.598684 0.090125
O O17 0.500000 0.381194 0.750000
#
# Coordination Sequence:
#
# PCOD9274691 Si02
#       8
#     8   8   8   8   8   8   8   8
#     4  11  21  39  68  94 130 171 226 278 327 390
#     4  10  20  40  67  92 128 178 231 268 318 403
#     4  11  20  38  67  95 123 172 233 268 312 401
#     4   9  20  39  67  92 123 178 228 273 312 398
#     4  11  24  41  60  99 145 169 213 284 348 397
#     4  10  21  40  68  99 121 175 239 268 321 402
#     4  12  25  41  64 102 140 173 216 282 349 394
#     4  10  20  38  64  94 125 180 231 261 322 398
#
# _framework density 21.776429
#
# number of rings (size 3 to 8) (size 9 to 14) (size 15 to 20)
#    0.000    1.500    2.500    4.875    0.000    1.500 
#    4.500    0.000    0.000    9.750    0.000    0.000 
#    0.000    0.000    0.000    0.000    0.000    0.000 
#
# Total GULP energy -178659.922056 kJ/mol
# GULP energy per Si atom -5583.122564 kJ/mol
# Density = 2.172687 g / cm^3
# Si number density = 21.776429 Si / 1000 Ang^3
#
#
#
# Elastic Constant Matrix: (Units=GPa)
#
#
# Indices 1 2 3 4 5 6 
#
# 1 131.6376 26.0089 9.1269 0.0000 29.7063 0.0000
# 2 26.0089 42.8802 25.0966 0.0000 8.9082 0.0000
# 3 9.1269 25.0966 74.2013 0.0000 11.5344 0.0000
# 4 0.0000 0.0000 0.0000 6.2453 0.0000 0.9227
# 5 29.7063 8.9082 11.5344 0.0000 37.2467 0.0000
# 6 0.0000 0.0000 0.0000 0.9227 0.0000 10.8282
#
#
#
# Elastic Compliance Matrix: (Units=1/GPa)
#
#
# Indices 1 2 3 4 5 6 
#
# 1 0.010276 -0.005774 0.001837 0.000000 -0.007384 0.000000
# 2 -0.005774 0.032931 -0.010421 0.000000 -0.000044 0.000000
# 3 0.001837 -0.010421 0.017456 0.000000 -0.004378 0.000000
# 4 0.000000 0.000000 0.000000 0.162163 0.000000 -0.013819
# 5 -0.007384 -0.000044 -0.004378 0.000000 0.034103 0.000000
# 6 0.000000 0.000000 0.000000 -0.013819 0.000000 0.093529
#
#
# Mechanical properties :
#
#
# Convention : Reuss Voigt Hill
#
# Bulk Modulus (GPa) = 31.30197 41.02044 36.16121
# Shear Modulus (GPa) = 12.82628 23.42982 18.12805
#
# Velocity S-wave (km/s) = 2.42956 3.28369 2.88837
# Velocity P-wave (km/s) = 4.71973 5.76670 5.26928
#
# Compressibility (1/GPa) = 0.03194687
#
# Stress axis : x y z
#
# Youngs Moduli (GPa) = 97.31028 30.36624 57.28629
#
# Poissons Ratio (x) = 0.17534 -0.10522
# Poissons Ratio (y) = 0.56188 0.59699
# Poissons Ratio (z) = -0.17873 0.31645
#
# Static dielectric constant tensor:
#      x y z
#    x 1.891600 0.000000 -0.001140 
#    y 0.000000 1.754170 0.000000 
#    z -0.001140 0.000000 1.854780 
# 
# From -- ./inp_files/155223.got.cif
#   From: 2010.05.17/outbox.cif.g08.bks.cpg/sg15_78_cif.got.tgz:155223.got - 2010.06.03 18:47:42.
