data_PCOD9274084
_publ_section_title
;
Structure prediction by ZEFSAII (Michael W. Deem and Ramdas Pophale) SiO2 
 PCOD9274084
Probable space group: C 2/C
;
_chemical_formula_sum "Si O2"
_cell_formula_units_Z 48
_cell_length_a 22.642872
_cell_length_b 8.693283
_cell_length_c 17.291397
_cell_angle_alpha 90.000000
_cell_angle_beta 134.745126
_cell_angle_gamma 90.000000
_cell_volume 2417.429160
_symmetry_space_group_name_H-M "C 2/C"
_symmetry_group_IT_number 15
_symmetry_cell_setting 'monoclinic'
loop_
_space_group_symop_operation_xyz
x,y,z
-x,y,1/2-z
-x,-y,-z
x,-y,1/2+z
1/2+x,1/2+y,z
1/2-x,1/2+y,1/2-z
1/2-x,1/2-y,-z
1/2+x,1/2-y,1/2+z
loop_
_atom_site_type_symbol
_atom_site_label
_atom_site_fract_x
_atom_site_fract_y
_atom_site_fract_z
Si Si1 0.554976 0.052789 0.424960
Si Si2 0.552431 0.184018 0.589499
Si Si3 0.498448 0.389141 0.161830
Si Si4 0.608084 0.610576 0.543681
Si Si5 0.841406 0.033473 0.260018
Si Si6 0.298025 0.152500 0.477920
O O1 0.582892 0.101614 0.538926
O O2 0.525244 0.210826 0.360365
O O3 0.479728 0.937349 0.376723
O O4 0.624610 0.965726 0.438104
O O5 0.470262 0.289600 0.495511
O O6 0.618664 0.299343 0.686645
O O7 0.500000 0.452706 0.250000
O O8 0.589390 0.425238 0.214201
O O9 0.434057 0.478893 0.047315
O O10 0.667567 0.540585 0.663740
O O11 0.660152 0.720992 0.537950
O O12 0.766478 0.055670 0.132940
O O13 0.250000 0.250000 0.500000
#
# Coordination Sequence:
#
# PCOD9274084 Si02
#       6
#     8   8   8   8   8   8
#     4  10  20  38  61  89 120 156 204 253 303 357
#     4   9  18  37  64  88 112 152 210 260 286 355
#     4  11  21  38  64  92 119 158 207 258 304 360
#     4  10  20  40  63  88 120 161 210 251 305 369
#     4  11  21  39  64  89 117 160 210 254 306 365
#     4  11  26  41  57  89 135 168 192 249 331 376
#
# _framework density 19.855803000000002
#
# number of rings (size 3 to 8) (size 9 to 14) (size 15 to 20)
#    0.000    1.667    3.333    2.000    2.333    1.333 
#    0.000    8.333    0.000    0.000    0.000    0.000 
#    0.000    0.000    0.000    0.000    0.000    0.000 
#
# Total GULP energy -133862.242792 kJ/mol
# GULP energy per Si atom -5577.593450 kJ/mol
# Density = 1.981061 g / cm^3
# Si number density = 19.855803 Si / 1000 Ang^3
#
#
#
# Elastic Constant Matrix: (Units=GPa)
#
#
# Indices 1 2 3 4 5 6 
#
# 1 77.6477 27.3491 19.2236 0.0000 -8.0454 0.0000
# 2 27.3491 102.4012 12.7714 0.0000 0.7844 0.0000
# 3 19.2236 12.7714 30.3283 0.0000 -5.5642 0.0000
# 4 0.0000 0.0000 0.0000 -5.6538 0.0000 1.2708
# 5 -8.0454 0.7844 -5.5642 0.0000 18.5998 0.0000
# 6 0.0000 0.0000 0.0000 1.2708 0.0000 27.9106
#
#
#
# Elastic Compliance Matrix: (Units=1/GPa)
#
#
# Indices 1 2 3 4 5 6 
#
# 1 0.016630 -0.003458 -0.008188 0.000000 0.004890 0.000000
# 2 -0.003458 0.011085 -0.003001 0.000000 -0.002861 0.000000
# 3 -0.008188 -0.003001 0.041053 0.000000 0.008866 0.000000
# 4 0.000000 0.000000 0.000000 -0.175081 0.000000 0.007972
# 5 0.004890 -0.002861 0.008866 0.000000 0.058652 0.000000
# 6 0.000000 0.000000 0.000000 0.007972 0.000000 0.035466
#
#
# Mechanical properties :
#
#
# Convention : Reuss Voigt Hill
#
# Bulk Modulus (GPa) = 25.33277 36.56280 30.94778
# Shear Modulus (GPa) = 165.24570 18.24018 91.74294
#
# Velocity S-wave (km/s) = 9.13255 3.03418 6.80477
# Velocity P-wave (km/s) = 11.13512 5.54339 8.79545
#
# Compressibility (1/GPa) = 0.03947457
#
# Stress axis : x y z
#
# Youngs Moduli (GPa) = 60.13076 90.20995 24.35884
#
# Poissons Ratio (x) = 0.31193 0.19945
# Poissons Ratio (y) = 0.20792 0.07310
# Poissons Ratio (z) = 0.49235 0.27073
#
# Static dielectric constant tensor:
#      x y z
#    x 1.728200 0.000000 -0.018550 
#    y 0.000000 1.715050 0.000000 
#    z -0.018550 0.000000 1.727800 
# 
# From -- ./inp_files/214087.got.cif
#   From: 2010.05.17/outbox.cif.g08.bks.cpg/sg15_108_cif.got.tgz:214087.got - 2010.06.03 18:47:42.
