data_PCOD9274958
_publ_section_title
;
Structure prediction by ZEFSAII (Michael W. Deem and Ramdas Pophale) SiO2 
 PCOD9274958
Probable space group: C 2/C
;
_chemical_formula_sum "Si O2"
_cell_formula_units_Z 40
_cell_length_a 6.251077
_cell_length_b 23.851343
_cell_length_c 12.040958
_cell_angle_alpha 90.000000
_cell_angle_beta 78.903999
_cell_angle_gamma 90.000000
_cell_volume 1761.705158
_symmetry_space_group_name_H-M "C 2/C"
_symmetry_group_IT_number 15
_symmetry_cell_setting 'monoclinic'
loop_
_space_group_symop_operation_xyz
x,y,z
-x,y,1/2-z
-x,-y,-z
x,-y,1/2+z
1/2+x,1/2+y,z
1/2-x,1/2+y,1/2-z
1/2-x,1/2-y,-z
1/2+x,1/2-y,1/2+z
loop_
_atom_site_type_symbol
_atom_site_label
_atom_site_fract_x
_atom_site_fract_y
_atom_site_fract_z
Si Si1 0.500000 0.674315 0.250000
Si Si2 0.174568 0.003055 0.639845
Si Si3 0.091139 0.396822 0.863530
Si Si4 0.000000 0.578387 0.750000
Si Si5 0.929975 0.110891 0.627900
Si Si6 0.207725 0.809564 0.951565
O O1 0.689059 0.637533 0.176556
O O2 0.376905 0.704452 0.163168
O O3 0.347426 0.040605 0.689009
O O4 0.000000 0.981059 0.750000
O O5 0.034225 0.049466 0.585673
O O6 0.321591 0.951985 0.580593
O O7 0.000000 0.414956 0.750000
O O8 0.908604 0.354088 0.926852
O O9 0.169330 0.611853 0.657346
O O10 0.000000 0.120388 0.750000
O O11 0.027441 0.157327 0.539558
O O12 0.250000 0.750000 0.000000
#
# Coordination Sequence:
#
# PCOD9274958 Si02
#       6
#     4   8   8   4   8   8
#     4  10  24  44  71  96 126 177 222 286 338 392
#     4   9  16  32  63  96 136 171 211 266 328 404
#     4  10  20  38  66  96 135 173 218 276 332 404
#     4   8  16  34  63  96 136 175 202 262 322 398
#     4   9  21  38  65  97 134 173 217 271 331 398
#     4  11  26  46  65  97 133 174 236 283 333 395
#
# _framework density 22.705273999999999
#
# number of rings (size 3 to 8) (size 9 to 14) (size 15 to 20)
#    0.000    2.800    2.000    0.000    0.000    7.200 
#    0.000    7.000    0.000    0.000    0.000    0.000 
#    0.000    0.000    0.000    0.000    0.000    0.000 
#
# Total GULP energy -111616.753856 kJ/mol
# GULP energy per Si atom -5580.837693 kJ/mol
# Density = 2.265360 g / cm^3
# Si number density = 22.705274 Si / 1000 Ang^3
#
#
#
# Elastic Constant Matrix: (Units=GPa)
#
#
# Indices 1 2 3 4 5 6 
#
# 1 140.5727 53.0723 45.7883 0.0000 -30.0903 0.0000
# 2 53.0723 142.2835 71.4152 0.0000 -13.9869 0.0000
# 3 45.7883 71.4152 81.0085 0.0000 -15.7701 0.0000
# 4 0.0000 0.0000 0.0000 24.7112 0.0000 9.3306
# 5 -30.0903 -13.9869 -15.7701 0.0000 50.2064 0.0000
# 6 0.0000 0.0000 0.0000 9.3306 0.0000 -16.1343
#
#
#
# Elastic Compliance Matrix: (Units=1/GPa)
#
#
# Indices 1 2 3 4 5 6 
#
# 1 0.009694 -0.001548 -0.003267 0.000000 0.004352 0.000000
# 2 -0.001548 0.012854 -0.010587 0.000000 -0.000673 0.000000
# 3 -0.003267 -0.010587 0.024039 0.000000 0.002643 0.000000
# 4 0.000000 0.000000 0.000000 0.033215 0.000000 0.019208
# 5 0.004352 -0.000673 0.002643 0.000000 0.023169 0.000000
# 6 0.000000 0.000000 0.000000 0.019208 0.000000 -0.050871
#
#
# Mechanical properties :
#
#
# Convention : Reuss Voigt Hill
#
# Bulk Modulus (GPa) = 63.36540 78.26847 70.81694
# Shear Modulus (GPa) = 56.71172 24.66259 40.68715
#
# Velocity S-wave (km/s) = 5.00315 3.29934 4.23776
# Velocity P-wave (km/s) = 7.83223 7.00432 7.42981
#
# Compressibility (1/GPa) = 0.01578148
#
# Stress axis : x y z
#
# Youngs Moduli (GPa) = 103.15489 77.79944 41.59880
#
# Poissons Ratio (x) = 0.12045 0.13591
# Poissons Ratio (y) = 0.15970 0.44042
# Poissons Ratio (z) = 0.33703 0.82368
#
# Static dielectric constant tensor:
#      x y z
#    x 1.927950 0.000000 0.116870 
#    y 0.000000 1.829120 0.000000 
#    z 0.116870 0.000000 2.043820 
# 
# From -- ./inp_files/129298.got.cif
#   From: 2010.05.17/outbox.cif.g08.bks.cpg/sg15_65_cif.got.tgz:129298.got - 2010.06.03 18:47:42.
