data_PCOD9274257
_publ_section_title
;
Structure prediction by ZEFSAII (Michael W. Deem and Ramdas Pophale) SiO2 
 PCOD9274257
Probable space group: C 2/C
;
_chemical_formula_sum "Si O2"
_cell_formula_units_Z 36
_cell_length_a 21.558892
_cell_length_b 5.240118
_cell_length_c 13.627861
_cell_angle_alpha 90.000000
_cell_angle_beta 92.795919
_cell_angle_gamma 90.000000
_cell_volume 1537.722302
_symmetry_space_group_name_H-M "C 2/C"
_symmetry_group_IT_number 15
_symmetry_cell_setting 'monoclinic'
loop_
_space_group_symop_operation_xyz
x,y,z
-x,y,1/2-z
-x,-y,-z
x,-y,1/2+z
1/2+x,1/2+y,z
1/2-x,1/2+y,1/2-z
1/2-x,1/2-y,-z
1/2+x,1/2-y,1/2+z
loop_
_atom_site_type_symbol
_atom_site_label
_atom_site_fract_x
_atom_site_fract_y
_atom_site_fract_z
Si Si1 0.930178 0.941822 0.882267
Si Si2 0.038875 0.298391 0.937497
Si Si3 0.500000 0.916791 0.250000
Si Si4 0.320980 0.774157 0.807581
Si Si5 0.745096 0.274613 0.616515
O O1 0.946066 0.742048 0.800076
O O2 0.888130 0.174700 0.844663
O O3 0.909391 0.806670 0.982825
O O4 0.997906 0.055024 0.907425
O O5 0.041055 0.432521 0.833242
O O6 0.000000 0.500000 0.000000
O O7 0.279024 0.556279 0.857230
O O8 0.306502 0.747671 0.690149
O O9 0.300584 0.051789 0.845057
O O10 0.750000 0.250000 0.500000
#
# Coordination Sequence:
#
# PCOD9274257 Si02
#       5
#     8   8   4   8   8
#     4  10  21  40  60  95 127 173 216 272 330 393
#     4   9  20  38  58  84 135 166 214 270 318 389
#     4  10  20  38  62  88 136 170 218 268 326 402
#     4  10  23  42  71  96 133 168 219 277 330 397
#     4  10  22  46  67  98 131 168 219 278 334 399
#
# _framework density 23.411251
#
# number of rings (size 3 to 8) (size 9 to 14) (size 15 to 20)
#    0.000    2.222    0.000    1.333    6.222    0.000 
#   16.000    0.000    0.000    0.000    0.000    0.000 
#    0.000    0.000    0.000    0.000    0.000    0.000 
#
# Total GULP energy -100368.248636 kJ/mol
# GULP energy per Si atom -5576.013813 kJ/mol
# Density = 2.335797 g / cm^3
# Si number density = 23.411251 Si / 1000 Ang^3
#
#
#
# Elastic Constant Matrix: (Units=GPa)
#
#
# Indices 1 2 3 4 5 6 
#
# 1 38.4453 4.9104 28.5492 0.0000 13.7127 0.0000
# 2 4.9104 77.3026 37.7382 0.0000 -0.8374 0.0000
# 3 28.5492 37.7382 211.6446 0.0000 2.4573 0.0000
# 4 0.0000 0.0000 0.0000 49.1151 0.0000 7.3724
# 5 13.7127 -0.8374 2.4573 0.0000 21.6385 0.0000
# 6 0.0000 0.0000 0.0000 7.3724 0.0000 33.3207
#
#
#
# Elastic Compliance Matrix: (Units=1/GPa)
#
#
# Indices 1 2 3 4 5 6 
#
# 1 0.038018 -0.000329 -0.004796 0.000000 -0.023561 0.000000
# 2 -0.000329 0.014188 -0.002498 0.000000 0.001041 0.000000
# 3 -0.004796 -0.002498 0.005791 0.000000 0.002285 0.000000
# 4 0.000000 0.000000 0.000000 0.021060 0.000000 -0.004660
# 5 -0.023561 0.001041 0.002285 0.000000 0.060926 0.000000
# 6 0.000000 0.000000 0.000000 -0.004660 0.000000 0.031042
#
#
# Mechanical properties :
#
#
# Convention : Reuss Voigt Hill
#
# Bulk Modulus (GPa) = 23.39091 52.19868 37.79480
# Shear Modulus (GPa) = 24.93517 37.89451 31.41484
#
# Velocity S-wave (km/s) = 3.26712 4.02760 3.66713
# Velocity P-wave (km/s) = 4.92393 6.63126 5.84032
#
# Compressibility (1/GPa) = 0.04275164
#
# Stress axis : x y z
#
# Youngs Moduli (GPa) = 26.30309 70.48411 172.69157
#
# Poissons Ratio (x) = 0.02317 0.82826
# Poissons Ratio (y) = 0.00865 0.43130
# Poissons Ratio (z) = 0.12615 0.17604
#
# Static dielectric constant tensor:
#      x y z
#    x 1.981970 0.000000 0.058350 
#    y 0.000000 1.928960 0.000000 
#    z 0.058350 0.000000 2.366320 
# 
# From -- ./inp_files/115589.got.cif
#   From: 2010.05.17/outbox.cif.g08.bks.cpg/sg15_58_cif.got.tgz:115589.got - 2010.06.03 18:47:42.
