data_PCOD9274767
_publ_section_title
;
Structure prediction by ZEFSAII (Michael W. Deem and Ramdas Pophale) SiO2 
 PCOD9274767
Probable space group: C 2/C
;
_chemical_formula_sum "Si O2"
_cell_formula_units_Z 40
_cell_length_a 25.098575
_cell_length_b 9.356490
_cell_length_c 16.133780
_cell_angle_alpha 90.000000
_cell_angle_beta 33.660357
_cell_angle_gamma 90.000000
_cell_volume 2099.996060
_symmetry_space_group_name_H-M "C 2/C"
_symmetry_group_IT_number 15
_symmetry_cell_setting 'monoclinic'
loop_
_space_group_symop_operation_xyz
x,y,z
-x,y,1/2-z
-x,-y,-z
x,-y,1/2+z
1/2+x,1/2+y,z
1/2-x,1/2+y,1/2-z
1/2-x,1/2-y,-z
1/2+x,1/2-y,1/2+z
loop_
_atom_site_type_symbol
_atom_site_label
_atom_site_fract_x
_atom_site_fract_y
_atom_site_fract_z
Si Si1 0.546221 0.836457 0.063932
Si Si2 0.344040 0.170896 0.910930
Si Si3 0.556285 0.637715 0.894225
Si Si4 0.236432 0.635672 0.945668
Si Si5 0.054008 0.665658 0.091133
O O1 0.619015 0.793163 0.043989
O O2 0.437111 0.802672 0.233555
O O3 0.550569 0.008951 0.053638
O O4 0.568878 0.752221 0.951638
O O5 0.250000 0.250000 0.000000
O O6 0.316376 0.003943 0.950133
O O7 0.660597 0.596022 0.724594
O O8 0.496417 0.716907 0.899863
O O9 0.500000 0.500000 0.000000
O O10 0.250000 0.750000 0.000000
O O11 0.164759 0.697350 0.968900
O O12 0.000000 0.657366 0.250000
#
# Coordination Sequence:
#
# PCOD9274767 Si02
#       5
#     8   8   8   8   8
#     4  10  21  42  63  90 124 166 211 255 299 383
#     4  10  20  38  65  88 124 164 210 248 314 375
#     4  12  26  40  62 103 134 151 208 281 318 348
#     4  11  22  40  66  90 123 171 209 249 318 378
#     4  11  21  44  67  86 124 176 213 246 307 392
#
# _framework density 19.047654999999999
#
# number of rings (size 3 to 8) (size 9 to 14) (size 15 to 20)
#    0.000    1.200    6.000    1.800    0.000    6.400 
#    3.600    0.000    0.000    0.000    0.000    0.000 
#    0.000    0.000    0.000    0.000    0.000    0.000 
#
# Total GULP energy -111727.483128 kJ/mol
# GULP energy per Si atom -5586.374156 kJ/mol
# Density = 1.900430 g / cm^3
# Si number density = 19.047655 Si / 1000 Ang^3
#
#
#
# Elastic Constant Matrix: (Units=GPa)
#
#
# Indices 1 2 3 4 5 6 
#
# 1 91.6172 47.6959 35.1831 -0.0003 -29.3623 0.0000
# 2 47.6959 65.5588 22.2417 -0.0017 0.8839 0.0003
# 3 35.1831 22.2417 91.6478 -0.0008 -20.3657 0.0002
# 4 -0.0003 -0.0017 -0.0008 30.4704 0.0003 -4.1814
# 5 -29.3623 0.8839 -20.3657 0.0003 42.7542 0.0000
# 6 0.0000 0.0003 0.0002 -4.1814 0.0000 40.3434
#
#
#
# Elastic Compliance Matrix: (Units=1/GPa)
#
#
# Indices 1 2 3 4 5 6 
#
# 1 0.028105 -0.020124 -0.001704 -0.000001 0.018906 0.000000
# 2 -0.020124 0.031280 -0.003445 0.000002 -0.016109 0.000000
# 3 -0.001704 -0.003445 0.013597 0.000000 0.005377 0.000000
# 4 -0.000001 0.000002 0.000000 0.033292 -0.000001 0.003451
# 5 0.018906 -0.016109 0.005377 -0.000001 0.039268 0.000000
# 6 0.000000 0.000000 0.000000 0.003451 0.000000 0.025145
#
#
# Mechanical properties :
#
#
# Convention : Reuss Voigt Hill
#
# Bulk Modulus (GPa) = 44.57370 51.00725 47.79048
# Shear Modulus (GPa) = 21.86140 32.29380 27.07760
#
# Velocity S-wave (km/s) = 3.39148 4.12202 3.77446
# Velocity P-wave (km/s) = 6.22801 7.03503 6.64378
#
# Compressibility (1/GPa) = 0.02243476
#
# Stress axis : x y z
#
# Youngs Moduli (GPa) = 35.58052 31.96892 73.54695
#
# Poissons Ratio (x) = 0.64334 0.12535
# Poissons Ratio (y) = 0.71602 0.25340
# Poissons Ratio (z) = 0.06064 0.11015
#
# Static dielectric constant tensor:
#      x y z
#    x 1.658930 0.000000 -0.007430 
#    y 0.000000 1.646840 0.000000 
#    z -0.007430 0.000000 1.647740 
# 
# From -- ./inp_files/159092.got.cif
#   From: 2010.05.17/outbox.cif.g08.bks.cpg/sg15_80_cif.got.tgz:159092.got - 2010.06.03 18:47:42.
