data_PCOD9274661
_publ_section_title
;
Structure prediction by ZEFSAII (Michael W. Deem and Ramdas Pophale) SiO2 
 PCOD9274661
Probable space group: C 2/C
;
_chemical_formula_sum "Si O2"
_cell_formula_units_Z 56
_cell_length_a 15.175851
_cell_length_b 12.814600
_cell_length_c 14.445755
_cell_angle_alpha 90.000000
_cell_angle_beta 107.849964
_cell_angle_gamma 90.000000
_cell_volume 2674.068632
_symmetry_space_group_name_H-M "C 2/C"
_symmetry_group_IT_number 15
_symmetry_cell_setting 'monoclinic'
loop_
_space_group_symop_operation_xyz
x,y,z
-x,y,1/2-z
-x,-y,-z
x,-y,1/2+z
1/2+x,1/2+y,z
1/2-x,1/2+y,1/2-z
1/2-x,1/2-y,-z
1/2+x,1/2-y,1/2+z
loop_
_atom_site_type_symbol
_atom_site_label
_atom_site_fract_x
_atom_site_fract_y
_atom_site_fract_z
Si Si1 0.980738 0.403697 0.924602
Si Si2 0.640171 0.784282 0.062162
Si Si3 0.500000 0.632106 0.250000
Si Si4 0.507194 0.463526 0.108003
Si Si5 0.500000 0.023818 0.750000
Si Si6 0.146245 0.229063 0.686463
Si Si7 0.825070 0.147523 0.600768
Si Si8 0.642998 0.208423 0.775217
O O1 0.888276 0.340757 0.864146
O O2 0.018441 0.449813 0.841762
O O3 0.000000 0.500000 0.000000
O O4 0.042717 0.316218 0.991173
O O5 0.716891 0.877553 0.082490
O O6 0.633010 0.755127 0.165648
O O7 0.673112 0.697467 0.001041
O O8 0.539498 0.558121 0.182693
O O9 0.417934 0.708306 0.187507
O O10 0.573632 0.362999 0.138834
O O11 0.406545 0.435374 0.119117
O O12 0.500000 0.500000 0.000000
O O13 0.588566 0.099003 0.763956
O O14 0.153334 0.221752 0.802364
O O15 0.247170 0.204149 0.675729
#
# Coordination Sequence:
#
# PCOD9274661 Si02
#       8
#     8   8   4   8   4   8   8   8
#     4  12  24  39  68  98 128 170 218 271 326 392
#     4  10  20  38  64  92 127 166 216 260 324 387
#     4  11  24  41  66  96 132 171 212 275 328 382
#     4  12  24  40  68  97 132 172 224 271 329 389
#     4  11  24  43  66  94 136 171 218 271 332 386
#     4  11  24  43  67  94 132 173 222 271 327 393
#     4  10  20  39  64  92 125 170 215 266 317 386
#     4  10  24  44  64  94 135 176 210 271 337 394
#
# _framework density 20.941870000000002
#
# number of rings (size 3 to 8) (size 9 to 14) (size 15 to 20)
#    0.000    1.143    4.286    1.714    0.000    3.429 
#    0.000    1.429    0.000    0.000    0.000    0.000 
#    0.000    0.000    0.000    0.000    0.000    0.000 
#
# Total GULP energy -155928.592643 kJ/mol
# GULP energy per Si atom -5568.878309 kJ/mol
# Density = 2.089421 g / cm^3
# Si number density = 20.941870 Si / 1000 Ang^3
#
#
#
# Elastic Constant Matrix: (Units=GPa)
#
#
# Indices 1 2 3 4 5 6 
#
# 1 70.1457 1.3287 0.2867 0.0000 12.5172 0.0000
# 2 1.3287 29.1565 -3.4107 0.0000 1.9370 0.0000
# 3 0.2867 -3.4107 86.3972 0.0000 -3.8156 0.0000
# 4 0.0000 0.0000 0.0000 -37.3376 0.0000 -70.5805
# 5 12.5172 1.9370 -3.8156 0.0000 28.4832 0.0000
# 6 0.0000 0.0000 0.0000 -70.5805 0.0000 -36.1348
#
#
#
# Elastic Compliance Matrix: (Units=1/GPa)
#
#
# Indices 1 2 3 4 5 6 
#
# 1 0.015482 -0.000294 -0.000365 0.000000 -0.006833 0.000000
# 2 -0.000294 0.034597 0.001276 0.000000 -0.002053 0.000000
# 3 -0.000365 0.001276 0.011698 0.000000 0.001641 0.000000
# 4 0.000000 0.000000 0.000000 0.009948 0.000000 -0.019431
# 5 -0.006833 -0.002053 0.001641 0.000000 0.038470 0.000000
# 6 0.000000 0.000000 0.000000 -0.019431 0.000000 0.010279
#
#
# Mechanical properties :
#
#
# Convention : Reuss Voigt Hill
#
# Bulk Modulus (GPa) = 15.87009 20.23433 18.05221
# Shear Modulus (GPa) = 35.65200 3.50182 19.57691
#
# Velocity S-wave (km/s) = 4.13052 1.29452 3.06080
# Velocity P-wave (km/s) = 5.50844 3.45217 4.59676
#
# Compressibility (1/GPa) = 0.06301163
#
# Stress axis : x y z
#
# Youngs Moduli (GPa) = 64.58961 28.90452 85.48116
#
# Poissons Ratio (x) = 0.00851 0.03118
# Poissons Ratio (y) = 0.01901 -0.10908
# Poissons Ratio (z) = 0.02356 -0.03688
#
# Static dielectric constant tensor:
#      x y z
#    x 1.815270 0.000000 0.057120 
#    y 0.000000 1.792320 0.000000 
#    z 0.057120 0.000000 1.642250 
# 
# From -- ./inp_files/161469.got.cif
#   From: 2010.05.17/outbox.cif.g08.bks.cpg/sg15_81_cif.got.tgz:161469.got - 2010.06.03 18:47:42.
