data_PCOD9274015
_publ_section_title
;
Structure prediction by ZEFSAII (Michael W. Deem and Ramdas Pophale) SiO2 
 PCOD9274015
Probable space group: C 2/C
;
_chemical_formula_sum "Si O2"
_cell_formula_units_Z 60
_cell_length_a 15.048125
_cell_length_b 13.478022
_cell_length_c 14.899845
_cell_angle_alpha 90.000000
_cell_angle_beta 104.458889
_cell_angle_gamma 90.000000
_cell_volume 2926.256309
_symmetry_space_group_name_H-M "C 2/C"
_symmetry_group_IT_number 15
_symmetry_cell_setting 'monoclinic'
loop_
_space_group_symop_operation_xyz
x,y,z
-x,y,1/2-z
-x,-y,-z
x,-y,1/2+z
1/2+x,1/2+y,z
1/2-x,1/2+y,1/2-z
1/2-x,1/2-y,-z
1/2+x,1/2-y,1/2+z
loop_
_atom_site_type_symbol
_atom_site_label
_atom_site_fract_x
_atom_site_fract_y
_atom_site_fract_z
Si Si1 0.821609 0.334414 0.634267
Si Si2 0.000000 0.227409 0.750000
Si Si3 0.520993 0.359068 0.443509
Si Si4 0.344758 0.194396 0.948807
Si Si5 0.097076 0.317018 0.223094
Si Si6 0.256779 0.466294 0.322837
Si Si7 0.873290 0.932862 0.526896
Si Si8 0.609270 0.584777 0.267750
O O1 0.748067 0.244237 0.612505
O O2 0.826000 0.371455 0.531364
O O3 0.793302 0.428198 0.684448
O O4 0.913993 0.293044 0.699627
O O5 0.981348 0.166158 0.836001
O O6 0.598617 0.282756 0.491517
O O7 0.445585 0.356140 0.502541
O O8 0.570370 0.464602 0.453167
O O9 0.403227 0.152490 0.881818
O O10 0.184131 0.379939 0.281466
O O11 0.114042 0.197097 0.229281
O O12 0.000000 0.334603 0.250000
O O13 0.298200 0.443562 0.431058
O O14 0.339681 0.498524 0.275839
O O15 0.847177 0.909041 0.621745
O O16 0.500000 0.563943 0.250000
#
# Coordination Sequence:
#
# PCOD9274015 Si02
#       8
#     8   4   8   8   8   8   8   8
#     4  10  22  41  64  97 130 172 224 285 328 393
#     4  10  24  36  68  92 132 168 226 280 336 390
#     4  10  20  38  61 102 126 166 219 277 337 394
#     4  10  20  43  70  89 130 180 225 273 341 403
#     4  11  25  45  71  95 134 189 224 270 345 415
#     4  12  26  42  67 102 137 171 234 278 333 405
#     4  11  23  36  63  96 137 162 212 283 340 396
#     4  11  24  45  69  97 136 178 222 276 345 406
#
# _framework density 20.504014999999999
#
# number of rings (size 3 to 8) (size 9 to 14) (size 15 to 20)
#    0.000    1.333    2.667    3.200    7.467    0.533 
#    0.000    3.333    0.000    0.000    0.000    0.000 
#    0.000    0.000    0.000    0.000    0.000    0.000 
#
# Total GULP energy -167375.253616 kJ/mol
# GULP energy per Si atom -5579.175121 kJ/mol
# Density = 2.045735 g / cm^3
# Si number density = 20.504015 Si / 1000 Ang^3
#
#
#
# Elastic Constant Matrix: (Units=GPa)
#
#
# Indices 1 2 3 4 5 6 
#
# 1 116.3868 40.4693 50.8841 0.0000 4.7981 0.0000
# 2 40.4693 35.8742 4.5906 0.0000 11.0730 0.0000
# 3 50.8841 4.5906 128.1696 0.0000 1.4421 0.0000
# 4 0.0000 0.0000 0.0000 28.1484 0.0000 7.7457
# 5 4.7981 11.0730 1.4421 0.0000 39.0235 0.0000
# 6 0.0000 0.0000 0.0000 7.7457 0.0000 2.0428
#
#
#
# Elastic Compliance Matrix: (Units=1/GPa)
#
#
# Indices 1 2 3 4 5 6 
#
# 1 0.018978 -0.021805 -0.006799 0.000000 0.004105 0.000000
# 2 -0.021805 0.055734 0.006811 0.000000 -0.013385 0.000000
# 3 -0.006799 0.006811 0.010274 0.000000 -0.001476 0.000000
# 4 0.000000 0.000000 0.000000 -0.818943 0.000000 3.105214
# 5 0.004105 -0.013385 -0.001476 0.000000 0.028973 0.000000
# 6 0.000000 0.000000 0.000000 3.105214 0.000000-11.284624
#
#
# Mechanical properties :
#
#
# Convention : Reuss Voigt Hill
#
# Bulk Modulus (GPa) = 24.15560 52.47984 38.31772
# Shear Modulus (GPa) = -0.41903 26.14203 12.86150
#
# Velocity S-wave (km/s) = -0.45256 3.57455 2.50725
# Velocity P-wave (km/s) = 3.39609 6.53353 5.20675
#
# Compressibility (1/GPa) = 0.04139827
#
# Stress axis : x y z
#
# Youngs Moduli (GPa) = 52.69396 17.94252 97.33114
#
# Poissons Ratio (x) = 0.39124 0.66179
# Poissons Ratio (y) = 1.14901 -0.66295
# Poissons Ratio (z) = 0.35829 -0.12221
#
# Static dielectric constant tensor:
#      x y z
#    x 1.798580 0.000000 -0.064160 
#    y 0.000000 1.742030 0.000000 
#    z -0.064160 0.000000 1.769330 
# 
# From -- ./inp_files/153996.got.cif
#   From: 2010.05.17/outbox.cif.g08.bks.cpg/sg15_77_cif.got.tgz:153996.got - 2010.06.03 18:47:42.
