data_PCOD9274675
_publ_section_title
;
Structure prediction by ZEFSAII (Michael W. Deem and Ramdas Pophale) SiO2 
 PCOD9274675
Probable space group: C 2/C
;
_chemical_formula_sum "Si O2"
_cell_formula_units_Z 56
_cell_length_a 25.697884
_cell_length_b 19.027426
_cell_length_c 8.272185
_cell_angle_alpha 90.000000
_cell_angle_beta 38.881579
_cell_angle_gamma 90.000000
_cell_volume 2538.976254
_symmetry_space_group_name_H-M "C 2/C"
_symmetry_group_IT_number 15
_symmetry_cell_setting 'monoclinic'
loop_
_space_group_symop_operation_xyz
x,y,z
-x,y,1/2-z
-x,-y,-z
x,-y,1/2+z
1/2+x,1/2+y,z
1/2-x,1/2+y,1/2-z
1/2-x,1/2-y,-z
1/2+x,1/2-y,1/2+z
loop_
_atom_site_type_symbol
_atom_site_label
_atom_site_fract_x
_atom_site_fract_y
_atom_site_fract_z
Si Si1 0.567889 0.706893 0.726673
Si Si2 0.766957 0.824534 0.874035
Si Si3 0.951422 0.344400 0.538273
Si Si4 0.106998 0.404864 0.295961
Si Si5 0.650817 0.043346 0.050477
Si Si6 0.818791 0.975701 0.774430
Si Si7 0.068723 0.946074 0.281849
O O1 0.500000 0.722554 0.750000
O O2 0.659146 0.692222 0.429828
O O3 0.540624 0.633209 0.870050
O O4 0.573906 0.766750 0.846340
O O5 0.798144 0.896733 0.888720
O O6 0.750000 0.750000 0.000000
O O7 0.675847 0.853910 0.047289
O O8 0.875727 0.397957 0.754036
O O9 0.000000 0.347700 0.250000
O O10 0.020091 0.366712 0.504471
O O11 0.095267 0.474946 0.218862
O O12 0.135984 0.427117 0.406314
O O13 0.741275 0.009563 0.866308
O O14 0.900255 0.960560 0.472607
O O15 0.847217 0.035582 0.826698
O O16 0.000000 0.000000 0.500000
#
# Coordination Sequence:
#
# PCOD9274675 Si02
#       7
#     8   8   8   8   8   8   8
#     4  11  24  43  64  91 126 169 220 269 325 397
#     4  10  20  38  64  93 123 165 210 259 319 381
#     4  12  26  43  64  95 131 169 216 275 335 401
#     4  11  23  41  68  96 129 171 217 267 327 400
#     4  11  22  41  66  96 130 170 214 270 330 396
#     4  10  22  38  63  96 127 162 215 265 317 389
#     4  11  22  40  64  93 128 168 213 267 320 378
#
# _framework density 22.056134
#
# number of rings (size 3 to 8) (size 9 to 14) (size 15 to 20)
#    0.000    1.143    0.000    8.143    0.000    3.429 
#    0.000    4.286    0.000    0.000    0.000    0.000 
#    0.000    0.000    0.000    0.000    0.000    0.000 
#
# Total GULP energy -156141.531616 kJ/mol
# GULP energy per Si atom -5576.483272 kJ/mol
# Density = 2.200593 g / cm^3
# Si number density = 22.056134 Si / 1000 Ang^3
#
#
#
# Elastic Constant Matrix: (Units=GPa)
#
#
# Indices 1 2 3 4 5 6 
#
# 1 61.9640 29.2044 8.7539 0.0000 1.3598 0.0000
# 2 29.2044 171.8278 67.5891 0.0000 9.4691 0.0000
# 3 8.7539 67.5891 118.6785 0.0000 -1.1362 0.0000
# 4 0.0000 0.0000 0.0000 46.8169 0.0000 2.4821
# 5 1.3598 9.4691 -1.1362 0.0000 31.5443 0.0000
# 6 0.0000 0.0000 0.0000 2.4821 0.0000 25.2744
#
#
#
# Elastic Compliance Matrix: (Units=1/GPa)
#
#
# Indices 1 2 3 4 5 6 
#
# 1 0.017570 -0.003209 0.000533 0.000000 0.000225 0.000000
# 2 -0.003209 0.008273 -0.004499 0.000000 -0.002507 0.000000
# 3 0.000533 -0.004499 0.010965 0.000000 0.001722 0.000000
# 4 0.000000 0.000000 0.000000 0.021472 0.000000 -0.002109
# 5 0.000225 -0.002507 0.001722 0.000000 0.032506 0.000000
# 6 0.000000 0.000000 0.000000 -0.002109 0.000000 0.039773
#
#
# Mechanical properties :
#
#
# Convention : Reuss Voigt Hill
#
# Bulk Modulus (GPa) = 44.52215 62.61836 53.57025
# Shear Modulus (GPa) = 32.80959 37.18863 34.99911
#
# Velocity S-wave (km/s) = 3.86106 4.11066 3.98781
# Velocity P-wave (km/s) = 6.33299 7.14017 6.74866
#
# Compressibility (1/GPa) = 0.02246073
#
# Stress axis : x y z
#
# Youngs Moduli (GPa) = 56.91417 120.87610 91.19552
#
# Poissons Ratio (x) = 0.38784 -0.04865
# Poissons Ratio (y) = 0.18261 0.41028
# Poissons Ratio (z) = -0.03036 0.54381
#
# Static dielectric constant tensor:
#      x y z
#    x 1.881440 0.000000 0.011930 
#    y 0.000000 1.823720 0.000000 
#    z 0.011930 0.000000 1.847820 
# 
# From -- ./inp_files/67130.got.cif
#   From: 2010.05.17/outbox.cif.g08.bks.cpg/sg15_34_cif.got.tgz:67130.got - 2010.06.03 18:47:42.
