data_PCOD9274553
_publ_section_title
;
Structure prediction by ZEFSAII (Michael W. Deem and Ramdas Pophale) SiO2 
 PCOD9274553
Probable space group: C 2/C
;
_chemical_formula_sum "Si O2"
_cell_formula_units_Z 56
_cell_length_a 9.038175
_cell_length_b 31.220856
_cell_length_c 15.133078
_cell_angle_alpha 90.000000
_cell_angle_beta 134.929683
_cell_angle_gamma 90.000000
_cell_volume 3023.222875
_symmetry_space_group_name_H-M "C 2/C"
_symmetry_group_IT_number 15
_symmetry_cell_setting 'monoclinic'
loop_
_space_group_symop_operation_xyz
x,y,z
-x,y,1/2-z
-x,-y,-z
x,-y,1/2+z
1/2+x,1/2+y,z
1/2-x,1/2+y,1/2-z
1/2-x,1/2-y,-z
1/2+x,1/2-y,1/2+z
loop_
_atom_site_type_symbol
_atom_site_label
_atom_site_fract_x
_atom_site_fract_y
_atom_site_fract_z
Si Si1 0.744487 0.213776 0.381911
Si Si2 0.103236 0.306580 0.006642
Si Si3 0.675725 0.331786 0.750079
Si Si4 0.500000 0.073683 0.750000
Si Si5 0.563032 0.102985 0.584341
Si Si6 0.000000 0.054795 0.750000
Si Si7 0.770686 0.927751 0.698074
Si Si8 0.636890 0.492855 0.144088
O O1 0.500000 0.213292 0.250000
O O2 0.824322 0.262371 0.419693
O O3 0.747049 0.191315 0.479052
O O4 0.877744 0.188649 0.365849
O O5 0.867020 0.304816 0.870919
O O6 0.096528 0.348594 0.064252
O O7 0.500000 0.332292 0.750000
O O8 0.741489 0.380979 0.761892
O O9 0.480538 0.100205 0.650423
O O10 0.693409 0.042280 0.812491
O O11 0.403088 0.076872 0.452694
O O12 0.789784 0.081627 0.671980
O O13 0.988584 0.025984 0.658019
O O14 0.000000 0.931437 0.750000
O O15 0.755162 0.965915 0.762952
O O16 0.500000 0.500000 0.000000
#
# Coordination Sequence:
#
# PCOD9274553 Si02
#       8
#     8   8   8   4   8   4   8   8
#     4   9  18  35  58  85 115 147 195 236 288 351
#     4   9  19  36  59  81 113 158 188 238 289 352
#     4   9  19  35  56  87 115 144 194 240 288 355
#     4  10  24  38  56  86 120 154 194 252 288 360
#     4  10  22  41  60  86 122 156 202 244 305 352
#     4  10  24  38  58  86 118 158 200 250 290 366
#     4  10  20  38  64  82 115 160 195 248 303 351
#     4  11  23  38  59  87 117 154 203 245 304 354
#
# _framework density 18.523278999999999
#
# number of rings (size 3 to 8) (size 9 to 14) (size 15 to 20)
#    0.000    2.286    0.714    0.857    3.000    2.857 
#    5.143    2.857    0.000    0.000    0.000    0.000 
#    0.000    0.000    0.000    0.000    0.000    0.000 
#
# Total GULP energy -155974.071021 kJ/mol
# GULP energy per Si atom -5570.502536 kJ/mol
# Density = 1.848112 g / cm^3
# Si number density = 18.523279 Si / 1000 Ang^3
#
#
#
# Elastic Constant Matrix: (Units=GPa)
#
#
# Indices 1 2 3 4 5 6 
#
# 1 99.3280 49.5100 44.0535 0.0000 -30.3449 0.0000
# 2 49.5100 75.0583 46.8632 0.0000 -32.4638 0.0000
# 3 44.0535 46.8632 90.2602 0.0000 -30.5143 0.0000
# 4 0.0000 0.0000 0.0000 23.5611 0.0000 -6.1007
# 5 -30.3449 -32.4638 -30.5143 0.0000 38.4200 0.0000
# 6 0.0000 0.0000 0.0000 -6.1007 0.0000 24.0640
#
#
#
# Elastic Compliance Matrix: (Units=1/GPa)
#
#
# Indices 1 2 3 4 5 6 
#
# 1 0.016170 -0.006919 -0.002678 0.000000 0.004798 0.000000
# 2 -0.006919 0.027412 -0.006661 0.000000 0.012407 0.000000
# 3 -0.002678 -0.006661 0.018082 0.000000 0.006618 0.000000
# 4 0.000000 0.000000 0.000000 0.045425 0.000000 0.011516
# 5 0.004798 0.012407 0.006618 0.000000 0.045558 0.000000
# 6 0.000000 0.000000 0.000000 0.011516 0.000000 0.044475
#
#
# Mechanical properties :
#
#
# Convention : Reuss Voigt Hill
#
# Bulk Modulus (GPa) = 34.30664 60.61110 47.45887
# Shear Modulus (GPa) = 20.88973 25.49033 23.19003
#
# Velocity S-wave (km/s) = 3.36185 3.71364 3.54212
# Velocity P-wave (km/s) = 5.79917 7.15407 6.51196
#
# Compressibility (1/GPa) = 0.02914887
#
# Stress axis : x y z
#
# Youngs Moduli (GPa) = 61.84373 36.48057 55.30497
#
# Poissons Ratio (x) = 0.25240 0.14808
# Poissons Ratio (y) = 0.42788 0.36838
# Poissons Ratio (z) = 0.16559 0.24299
#
# Static dielectric constant tensor:
#      x y z
#    x 1.565220 0.000000 -0.129200 
#    y 0.000000 1.642260 0.000000 
#    z -0.129200 0.000000 1.538680 
# 
# From -- ./inp_files/139600.got.cif
#   From: 2010.05.17/outbox.cif.g08.bks.cpg/sg15_70_cif.got.tgz:139600.got - 2010.06.03 18:47:42.
