data_PCOD9274759
_publ_section_title
;
Structure prediction by ZEFSAII (Michael W. Deem and Ramdas Pophale) SiO2 
 PCOD9274759
Probable space group: C 2/C
;
_chemical_formula_sum "Si O2"
_cell_formula_units_Z 60
_cell_length_a 28.324896
_cell_length_b 11.631005
_cell_length_c 8.330420
_cell_angle_alpha 90.000000
_cell_angle_beta 78.063819
_cell_angle_gamma 90.000000
_cell_volume 2685.093411
_symmetry_space_group_name_H-M "C 2/C"
_symmetry_group_IT_number 15
_symmetry_cell_setting 'monoclinic'
loop_
_space_group_symop_operation_xyz
x,y,z
-x,y,1/2-z
-x,-y,-z
x,-y,1/2+z
1/2+x,1/2+y,z
1/2-x,1/2+y,1/2-z
1/2-x,1/2-y,-z
1/2+x,1/2-y,1/2+z
loop_
_atom_site_type_symbol
_atom_site_label
_atom_site_fract_x
_atom_site_fract_y
_atom_site_fract_z
Si Si1 0.127642 0.610351 0.743689
Si Si2 0.000000 0.694233 0.750000
Si Si3 0.852887 0.043429 0.738484
Si Si4 0.712948 0.595165 0.425682
Si Si5 0.426532 0.068311 0.029912
Si Si6 0.917354 0.829800 0.623979
Si Si7 0.891856 0.258870 0.801858
Si Si8 0.302215 0.858835 0.059709
O O1 0.117350 0.583557 0.567314
O O2 0.084211 0.554601 0.881723
O O3 0.123715 0.745887 0.774891
O O4 0.176796 0.577815 0.798701
O O5 0.964530 0.780825 0.678668
O O6 0.028423 0.610155 0.607156
O O7 0.872855 0.168992 0.680270
O O8 0.803983 0.990901 0.699409
O O9 0.897026 0.955125 0.683734
O O10 0.834151 0.075102 0.929014
O O11 0.716800 0.730584 0.379021
O O12 0.761275 0.575217 0.491506
O O13 0.424229 0.151585 0.184200
O O14 0.918733 0.803823 0.431818
O O15 0.846989 0.329098 0.909649
#
# Coordination Sequence:
#
# PCOD9274759 Si02
#       8
#     8   4   8   8   8   8   8   8
#     4  10  20  38  65  85 127 170 209 260 323 386
#     4  10  26  42  66  98 126 162 224 272 320 400
#     4  11  20  38  63  96 122 176 204 263 325 374
#     4  10  21  34  65  91 134 166 217 262 307 384
#     4  11  24  40  64  95 122 172 212 269 328 386
#     4  10  21  42  62  92 126 167 208 269 327 382
#     4  10  22  40  67  91 132 170 211 260 330 386
#     4   9  19  41  58  95 128 175 211 259 312 375
#
# _framework density 22.345592
#
# number of rings (size 3 to 8) (size 9 to 14) (size 15 to 20)
#    0.000    1.867    4.000    1.600    3.733    4.800 
#    0.000    2.667    0.000    5.600    0.000    0.000 
#    0.000    0.000    0.000    0.000    0.000    0.000 
#
# Total GULP energy -167068.111443 kJ/mol
# GULP energy per Si atom -5568.937048 kJ/mol
# Density = 2.229473 g / cm^3
# Si number density = 22.345592 Si / 1000 Ang^3
#
#
#
# Elastic Constant Matrix: (Units=GPa)
#
#
# Indices 1 2 3 4 5 6 
#
# 1 108.9297 10.2626 18.6218 0.0000 28.6042 0.0000
# 2 10.2626 64.6672 3.7395 0.0000 7.1390 0.0000
# 3 18.6218 3.7395 56.4361 0.0000 11.4656 0.0000
# 4 0.0000 0.0000 0.0000 28.6319 0.0000 2.3363
# 5 28.6042 7.1390 11.4656 0.0000 34.0388 0.0000
# 6 0.0000 0.0000 0.0000 2.3363 0.0000 19.5009
#
#
#
# Elastic Compliance Matrix: (Units=1/GPa)
#
#
# Indices 1 2 3 4 5 6 
#
# 1 0.012034 -0.000769 -0.002038 0.000000 -0.009265 0.000000
# 2 -0.000769 0.015888 -0.000272 0.000000 -0.002594 0.000000
# 3 -0.002038 -0.000272 0.019376 0.000000 -0.004757 0.000000
# 4 0.000000 0.000000 0.000000 0.035271 0.000000 -0.004226
# 5 -0.009265 -0.002594 -0.004757 0.000000 0.039311 0.000000
# 6 0.000000 0.000000 0.000000 -0.004226 0.000000 0.051786
#
#
# Mechanical properties :
#
#
# Convention : Reuss Voigt Hill
#
# Bulk Modulus (GPa) = 24.30679 32.80899 28.55789
# Shear Modulus (GPa) = 25.83501 29.59494 27.71498
#
# Velocity S-wave (km/s) = 3.40392 3.64321 3.52559
# Velocity P-wave (km/s) = 5.13324 5.69313 5.42042
#
# Compressibility (1/GPa) = 0.04114077
#
# Stress axis : x y z
#
# Youngs Moduli (GPa) = 83.09835 62.94068 51.61033
#
# Poissons Ratio (x) = 0.04841 0.10516
# Poissons Ratio (y) = 0.06391 0.01403
# Poissons Ratio (z) = 0.16931 0.01711
#
# Static dielectric constant tensor:
#      x y z
#    x 1.904320 0.000000 0.008140 
#    y 0.000000 1.924760 0.000000 
#    z 0.008140 0.000000 1.889430 
# 
# From -- ./inp_files/69090.got.cif
#   From: 2010.05.17/outbox.cif.g08.bks.cpg/sg15_35_cif.got.tgz:69090.got - 2010.06.03 18:47:42.
