data_PCOD9274676
_publ_section_title
;
Structure prediction by ZEFSAII (Michael W. Deem and Ramdas Pophale) SiO2 
 PCOD9274676
Probable space group: C 2/C
;
_chemical_formula_sum "Si O2"
_cell_formula_units_Z 48
_cell_length_a 29.526886
_cell_length_b 5.969591
_cell_length_c 15.276209
_cell_angle_alpha 90.000000
_cell_angle_beta 44.693515
_cell_angle_gamma 90.000000
_cell_volume 1893.769992
_symmetry_space_group_name_H-M "C 2/C"
_symmetry_group_IT_number 15
_symmetry_cell_setting 'monoclinic'
loop_
_space_group_symop_operation_xyz
x,y,z
-x,y,1/2-z
-x,-y,-z
x,-y,1/2+z
1/2+x,1/2+y,z
1/2-x,1/2+y,1/2-z
1/2-x,1/2-y,-z
1/2+x,1/2-y,1/2+z
loop_
_atom_site_type_symbol
_atom_site_label
_atom_site_fract_x
_atom_site_fract_y
_atom_site_fract_z
Si Si1 0.810613 0.503396 0.875422
Si Si2 0.567699 0.743525 0.369827
Si Si3 0.592199 0.357231 0.212205
Si Si4 0.027547 0.431437 0.598357
Si Si5 0.683137 0.541436 0.436005
Si Si6 0.834039 0.443782 0.544581
O O1 0.863539 0.653063 0.753179
O O2 0.845669 0.266333 0.835385
O O3 0.806181 0.575482 0.983639
O O4 0.745726 0.479982 0.911548
O O5 0.567642 0.508371 0.323844
O O6 0.558993 0.761938 0.484655
O O7 0.508703 0.876257 0.406877
O O8 0.533430 0.191647 0.275861
O O9 0.618905 0.463264 0.086053
O O10 0.088351 0.538262 0.563542
O O11 0.681302 0.297766 0.388853
O O12 0.686085 0.801788 0.396479
#
# Coordination Sequence:
#
# PCOD9274676 Si02
#       6
#     8   8   8   8   8   8
#     4  10  22  40  65  98 123 170 223 265 326 384
#     4  10  21  41  65  87 130 179 212 268 325 398
#     4  10  20  38  64  93 124 173 217 267 322 393
#     4  10  24  40  59  96 131 172 219 262 335 388
#     4  11  24  41  68  98 129 168 216 272 329 376
#     4  11  23  42  63  97 130 166 214 277 313 384
#
# _framework density 25.346267000000001
#
# number of rings (size 3 to 8) (size 9 to 14) (size 15 to 20)
#    0.000    1.667    1.667    3.000    4.667    6.000 
#    0.000    1.667    0.000    0.000    0.000    0.000 
#    0.000    0.000    0.000    0.000    0.000    0.000 
#
# Total GULP energy -133950.589821 kJ/mol
# GULP energy per Si atom -5581.274576 kJ/mol
# Density = 2.528858 g / cm^3
# Si number density = 25.346267 Si / 1000 Ang^3
#
#
#
# Elastic Constant Matrix: (Units=GPa)
#
#
# Indices 1 2 3 4 5 6 
#
# 1 81.8040 23.4446 20.6807 0.0011 -35.1149 -0.0002
# 2 23.4446 173.1466 28.0839 0.0102 -12.4017 -0.0021
# 3 20.6807 28.0839 79.5345 0.0028 -14.0314 0.0002
# 4 0.0011 0.0102 0.0028 41.2117 0.0001 -59.3470
# 5 -35.1149 -12.4017 -14.0314 0.0001 37.9797 0.0003
# 6 -0.0002 -0.0021 0.0002 -59.3470 0.0003 70.4621
#
#
#
# Elastic Compliance Matrix: (Units=1/GPa)
#
#
# Indices 1 2 3 4 5 6 
#
# 1 0.020844 -0.001230 -0.001772 0.000001 0.018215 0.000001
# 2 -0.001230 0.006258 -0.001851 0.000005 0.000222 0.000005
# 3 -0.001772 -0.001851 0.014218 0.000003 0.003010 0.000002
# 4 0.000001 0.000005 0.000003 -0.113980 0.000005 -0.096000
# 5 0.018215 0.000222 0.003010 0.000005 0.044356 0.000004
# 6 0.000001 0.000005 0.000002 -0.096000 0.000004 -0.066664
#
#
# Mechanical properties :
#
#
# Convention : Reuss Voigt Hill
#
# Bulk Modulus (GPa) = 31.63075 53.21150 42.42113
# Shear Modulus (GPa) = -66.91341 47.41576 -9.74883
#
# Velocity S-wave (km/s) = -5.14364 4.32987 -1.96332
# Velocity P-wave (km/s) = 4.77174 6.78502 3.41079
#
# Compressibility (1/GPa) = 0.03161481
#
# Stress axis : x y z
#
# Youngs Moduli (GPa) = 47.97556 159.79222 70.33107
#
# Poissons Ratio (x) = 0.19658 0.12462
# Poissons Ratio (y) = 0.05902 0.13016
# Poissons Ratio (z) = 0.08501 0.29572
#
# Static dielectric constant tensor:
#      x y z
#    x 2.012930 0.000000 0.082720 
#    y 0.000000 2.140370 0.000000 
#    z 0.082720 0.000000 2.000620 
# 
# From -- ./inp_files/258538.got.cif
#   From: 2010.05.17/outbox.cif.g08.bks.cpg/sg15_130_cif.got.tgz:258538.got - 2010.06.03 18:47:42.
