data_PCOD9274967
_publ_section_title
;
Structure prediction by ZEFSAII (Michael W. Deem and Ramdas Pophale) SiO2 
 PCOD9274967
Probable space group: C 2/C
;
_chemical_formula_sum "Si O2"
_cell_formula_units_Z 36
_cell_length_a 11.853763
_cell_length_b 13.215549
_cell_length_c 16.095189
_cell_angle_alpha 90.000000
_cell_angle_beta 35.599543
_cell_angle_gamma 90.000000
_cell_volume 1467.734248
_symmetry_space_group_name_H-M "C 2/C"
_symmetry_group_IT_number 15
_symmetry_cell_setting 'monoclinic'
loop_
_space_group_symop_operation_xyz
x,y,z
-x,y,1/2-z
-x,-y,-z
x,-y,1/2+z
1/2+x,1/2+y,z
1/2-x,1/2+y,1/2-z
1/2-x,1/2-y,-z
1/2+x,1/2-y,1/2+z
loop_
_atom_site_type_symbol
_atom_site_label
_atom_site_fract_x
_atom_site_fract_y
_atom_site_fract_z
Si Si1 0.725523 0.082366 0.832809
Si Si2 0.623927 0.396614 0.425853
Si Si3 0.500000 0.248896 0.250000
Si Si4 0.542058 0.189604 0.395597
Si Si5 0.544442 0.375561 0.811790
O O1 0.706431 0.088920 0.743704
O O2 0.843763 0.176128 0.803217
O O3 0.866492 0.986702 0.760137
O O4 0.529563 0.100951 0.000784
O O5 0.500000 0.500000 0.500000
O O6 0.511920 0.300438 0.453394
O O7 0.636364 0.375639 0.516697
O O8 0.445358 0.182573 0.362888
O O9 0.773954 0.177221 0.252586
O O10 0.500000 0.326757 0.750000
#
# Coordination Sequence:
#
# PCOD9274967 Si02
#       5
#     8   8   4   8   8
#     4  10  20  39  64  91 127 162 211 260 312 369
#     4   9  20  38  61  87 124 165 204 252 314 367
#     4  10  20  38  66  98 122 160 210 268 320 356
#     4  11  22  39  66  98 124 160 218 265 306 374
#     4  11  23  41  61  90 132 172 201 254 323 381
#
# _framework density 24.5276
#
# number of rings (size 3 to 8) (size 9 to 14) (size 15 to 20)
#    0.000    1.778    1.111    4.000    0.000    2.667 
#    4.000    1.111    0.000    0.000    2.889    0.000 
#    0.000    0.000    0.000    0.000    0.000    0.000 
#
# Total GULP energy -100316.343336 kJ/mol
# GULP energy per Si atom -5573.130185 kJ/mol
# Density = 2.447177 g / cm^3
# Si number density = 24.527600 Si / 1000 Ang^3
#
#
#
# Elastic Constant Matrix: (Units=GPa)
#
#
# Indices 1 2 3 4 5 6 
#
# 1 79.0812 7.2664 42.9420 -0.0005 38.3607 0.0002
# 2 7.2664 122.6364 7.2437 -0.0006 15.5677 0.0003
# 3 42.9420 7.2437 122.2073 -0.0013 45.5219 0.0008
# 4 -0.0005 -0.0006 -0.0013 24.8187 0.0007 9.4771
# 5 38.3607 15.5677 45.5219 0.0007 46.8157 -0.0003
# 6 0.0002 0.0003 0.0008 9.4771 -0.0003 20.9058
#
#
#
# Elastic Compliance Matrix: (Units=1/GPa)
#
#
# Indices 1 2 3 4 5 6 
#
# 1 0.021262 0.000896 -0.001448 0.000001 -0.016312 -0.000001
# 2 0.000896 0.008610 0.000807 0.000001 -0.004382 0.000000
# 3 -0.001448 0.000807 0.013016 0.000002 -0.011738 -0.000001
# 4 0.000001 0.000001 0.000002 0.048727 -0.000004 -0.022089
# 5 -0.016312 -0.004382 -0.011738 -0.000004 0.047598 0.000003
# 6 -0.000001 0.000000 -0.000001 -0.022089 0.000003 0.057847
#
#
# Mechanical properties :
#
#
# Convention : Reuss Voigt Hill
#
# Bulk Modulus (GPa) = 23.04223 48.75879 35.90051
# Shear Modulus (GPa) = 23.69499 36.27289 29.98394
#
# Velocity S-wave (km/s) = 3.11151 3.84977 3.50016
# Velocity P-wave (km/s) = 4.72477 6.29946 5.56807
#
# Compressibility (1/GPa) = 0.04339858
#
# Stress axis : x y z
#
# Youngs Moduli (GPa) = 47.03279 116.14811 76.82625
#
# Poissons Ratio (x) = -0.10411 0.11125
# Poissons Ratio (y) = -0.04216 -0.06200
# Poissons Ratio (z) = 0.06811 -0.09374
#
# Static dielectric constant tensor:
#      x y z
#    x 1.906160 0.000000 0.042260 
#    y 0.000000 2.039010 0.000000 
#    z 0.042260 0.000000 2.151060 
# 
# From -- ./inp_files/55704.got.cif
#   From: 2010.05.17/outbox.cif.g08.bks.cpg/sg15_28_cif.got.tgz:55704.got - 2010.06.03 18:47:42.
