data_PCOD9274990
_publ_section_title
;
Structure prediction by ZEFSAII (Michael W. Deem and Ramdas Pophale) SiO2 
 PCOD9274990
Probable space group: C 2/C
;
_chemical_formula_sum "Si O2"
_cell_formula_units_Z 56
_cell_length_a 12.842059
_cell_length_b 13.074189
_cell_length_c 15.688414
_cell_angle_alpha 90.000000
_cell_angle_beta 112.803414
_cell_angle_gamma 90.000000
_cell_volume 2428.197670
_symmetry_space_group_name_H-M "C 2/C"
_symmetry_group_IT_number 15
_symmetry_cell_setting 'monoclinic'
loop_
_space_group_symop_operation_xyz
x,y,z
-x,y,1/2-z
-x,-y,-z
x,-y,1/2+z
1/2+x,1/2+y,z
1/2-x,1/2+y,1/2-z
1/2-x,1/2-y,-z
1/2+x,1/2-y,1/2+z
loop_
_atom_site_type_symbol
_atom_site_label
_atom_site_fract_x
_atom_site_fract_y
_atom_site_fract_z
Si Si1 0.364849 0.846311 0.878232
Si Si2 0.119191 0.641238 0.395231
Si Si3 0.343479 0.376304 0.078063
Si Si4 0.802526 0.000551 0.230190
Si Si5 0.875203 0.449650 0.215384
Si Si6 0.420241 0.391547 0.422431
Si Si7 0.743513 0.130427 0.985968
O O1 0.491385 0.877826 0.888725
O O2 0.377044 0.723156 0.883156
O O3 0.248469 0.885266 0.795601
O O4 0.337122 0.898164 0.961389
O O5 0.221539 0.615164 0.493242
O O6 0.138534 0.760643 0.380759
O O7 0.129847 0.567754 0.317414
O O8 0.353394 0.454653 0.160121
O O9 0.445148 0.386267 0.042436
O O10 0.686058 0.939435 0.214536
O O11 0.876310 0.972017 0.336842
O O12 0.813588 0.393095 0.120695
O O13 0.000000 0.412045 0.250000
O O14 0.369447 0.408629 0.501453
O O15 0.750000 0.250000 0.000000
#
# Coordination Sequence:
#
# PCOD9274990 Si02
#       7
#     8   8   8   8   8   8   8
#     4  10  20  38  67  93 122 169 212 268 319 380
#     4  10  22  39  62  95 125 164 215 263 320 380
#     4  10  22  39  62  90 129 171 210 256 314 398
#     4  11  22  35  61  95 125 161 210 264 323 379
#     4  11  22  36  59  95 125 158 204 269 322 371
#     4   9  21  41  61  89 129 167 210 260 320 378
#     4   9  20  39  62  87 124 167 209 258 323 377
#
# _framework density 23.062373000000001
#
# number of rings (size 3 to 8) (size 9 to 14) (size 15 to 20)
#    0.000    2.000    1.429    1.286    4.000    1.143 
#    0.000    7.857    0.000   20.571    0.000    0.000 
#    0.000    0.000    0.000    0.000    0.000    0.000 
#
# Total GULP energy -155981.392738 kJ/mol
# GULP energy per Si atom -5570.764026 kJ/mol
# Density = 2.300988 g / cm^3
# Si number density = 23.062373 Si / 1000 Ang^3
#
#
#
# Elastic Constant Matrix: (Units=GPa)
#
#
# Indices 1 2 3 4 5 6 
#
# 1 146.1509 35.2715 41.1761 0.0000 -18.4146 0.0000
# 2 35.2715 95.4407 24.2346 0.0000 11.6150 0.0000
# 3 41.1761 24.2346 52.9320 0.0000 -13.5723 0.0000
# 4 0.0000 0.0000 0.0000 6.0747 0.0000 10.8849
# 5 -18.4146 11.6150 -13.5723 0.0000 37.2828 0.0000
# 6 0.0000 0.0000 0.0000 10.8849 0.0000 30.6035
#
#
#
# Elastic Compliance Matrix: (Units=1/GPa)
#
#
# Indices 1 2 3 4 5 6 
#
# 1 0.009376 -0.002573 -0.005209 0.000000 0.003536 0.000000
# 2 -0.002573 0.014050 -0.006485 0.000000 -0.008008 0.000000
# 3 -0.005209 -0.006485 0.028425 0.000000 0.009795 0.000000
# 4 0.000000 0.000000 0.000000 0.453898 0.000000 -0.161441
# 5 0.003536 -0.008008 0.009795 0.000000 0.034629 0.000000
# 6 0.000000 0.000000 0.000000 -0.161441 0.000000 0.090097
#
#
# Mechanical properties :
#
#
# Convention : Reuss Voigt Hill
#
# Bulk Modulus (GPa) = 42.88583 55.09865 48.99224
# Shear Modulus (GPa) = 7.49871 27.71495 17.60683
#
# Velocity S-wave (km/s) = 1.80515 3.47037 2.76605
# Velocity P-wave (km/s) = 4.79382 6.32463 5.61167
#
# Compressibility (1/GPa) = 0.02331772
#
# Stress axis : x y z
#
# Youngs Moduli (GPa) = 106.65139 71.17569 35.18030
#
# Poissons Ratio (x) = 0.18312 0.18326
# Poissons Ratio (y) = 0.27439 0.22813
# Poissons Ratio (z) = 0.55557 0.46155
#
# Static dielectric constant tensor:
#      x y z
#    x 1.854920 0.000000 0.126230 
#    y 0.000000 1.837720 0.000000 
#    z 0.126230 0.000000 1.825000 
# 
# From -- ./inp_files/197976.got.cif
#   From: 2010.05.17/outbox.cif.g08.bks.cpg/sg15_99_cif.got.tgz:197976.got - 2010.06.03 18:47:42.
