data_PCOD9274516
_publ_section_title
;
Structure prediction by ZEFSAII (Michael W. Deem and Ramdas Pophale) SiO2 
 PCOD9274516
Probable space group: C 2/C
;
_chemical_formula_sum "Si O2"
_cell_formula_units_Z 48
_cell_length_a 5.243696
_cell_length_b 25.926580
_cell_length_c 19.659359
_cell_angle_alpha 90.000000
_cell_angle_beta 50.046705
_cell_angle_gamma 90.000000
_cell_volume 2048.815582
_symmetry_space_group_name_H-M "C 2/C"
_symmetry_group_IT_number 15
_symmetry_cell_setting 'monoclinic'
loop_
_space_group_symop_operation_xyz
x,y,z
-x,y,1/2-z
-x,-y,-z
x,-y,1/2+z
1/2+x,1/2+y,z
1/2-x,1/2+y,1/2-z
1/2-x,1/2-y,-z
1/2+x,1/2-y,1/2+z
loop_
_atom_site_type_symbol
_atom_site_label
_atom_site_fract_x
_atom_site_fract_y
_atom_site_fract_z
Si Si1 0.025753 0.880866 0.851328
Si Si2 0.739536 0.858294 0.091278
Si Si3 0.467189 0.925557 0.650609
Si Si4 0.430915 0.692866 0.841750
Si Si5 0.384303 0.043211 0.691619
Si Si6 0.935999 0.787938 0.563229
O O1 0.253606 0.897641 0.747888
O O2 0.160460 0.916030 0.889500
O O3 0.657162 0.897419 0.895059
O O4 0.054915 0.821907 0.869476
O O5 0.418791 0.837420 0.104360
O O6 0.650975 0.918233 0.112726
O O7 0.807451 0.837482 0.156342
O O8 0.038977 0.830296 0.000117
O O9 0.387084 0.985641 0.661248
O O10 0.500000 0.699744 0.750000
O O11 0.374852 0.749596 0.883148
O O12 0.500000 0.038185 0.750000
O O13 0.000000 0.062850 0.750000
O O14 0.250000 0.750000 0.500000
#
# Coordination Sequence:
#
# PCOD9274516 Si02
#       6
#     8   8   8   8   8   8
#     4  10  20  39  62  91 126 162 218 264 326 381
#     4  11  24  41  62  96 136 171 210 270 341 395
#     4  10  20  38  63  98 121 162 220 276 316 373
#     4  11  23  42  64  96 124 171 230 271 320 391
#     4  12  20  38  68  96 131 170 219 280 328 390
#     4  10  25  45  64  93 137 177 215 276 339 397
#
# _framework density 23.428169
#
# number of rings (size 3 to 8) (size 9 to 14) (size 15 to 20)
#    0.000    1.333    3.333    3.500    2.333    5.333 
#    6.000    1.667    0.000    0.000    0.000    0.000 
#    0.000    0.000    0.000    0.000    0.000    0.000 
#
# Total GULP energy -133864.969428 kJ/mol
# GULP energy per Si atom -5577.707060 kJ/mol
# Density = 2.337485 g / cm^3
# Si number density = 23.428169 Si / 1000 Ang^3
#
#
#
# Elastic Constant Matrix: (Units=GPa)
#
#
# Indices 1 2 3 4 5 6 
#
# 1 152.6371 26.1665 7.5517 0.0000 3.9270 0.0000
# 2 26.1665 161.8241 44.9567 0.0000 -5.2745 0.0000
# 3 7.5517 44.9567 48.3341 0.0000 11.7838 0.0000
# 4 0.0000 0.0000 0.0000 42.1764 0.0000 -7.5591
# 5 3.9270 -5.2745 11.7838 0.0000 9.7588 0.0000
# 6 0.0000 0.0000 0.0000 -7.5591 0.0000 34.2801
#
#
#
# Elastic Compliance Matrix: (Units=1/GPa)
#
#
# Indices 1 2 3 4 5 6 
#
# 1 0.006957 -0.002048 0.002509 0.000000 -0.006936 0.000000
# 2 -0.002048 0.012838 -0.019151 0.000000 0.030888 0.000000
# 3 0.002509 -0.019151 0.057936 0.000000 -0.081318 0.000000
# 4 0.000000 0.000000 0.000000 0.024686 0.000000 0.005443
# 5 -0.006936 0.030888 -0.081318 0.000000 0.220149 0.000000
# 6 0.000000 0.000000 0.000000 0.005443 0.000000 0.030372
#
#
# Mechanical properties :
#
#
# Convention : Reuss Voigt Hill
#
# Bulk Modulus (GPa) = 24.78348 57.79389 41.28868
# Shear Modulus (GPa) = 12.38337 36.18443 24.28390
#
# Velocity S-wave (km/s) = 2.30155 3.93426 3.22300
# Velocity P-wave (km/s) = 4.20290 6.73498 5.61357
#
# Compressibility (1/GPa) = 0.04034946
#
# Stress axis : x y z
#
# Youngs Moduli (GPa) = 143.74252 77.89408 17.26055
#
# Poissons Ratio (x) = 0.15952 -0.04330
# Poissons Ratio (y) = 0.29438 0.33056
# Poissons Ratio (z) = -0.36063 1.49178
#
# Static dielectric constant tensor:
#      x y z
#    x 1.937570 0.000000 0.029730 
#    y 0.000000 1.881720 0.000000 
#    z 0.029730 0.000000 1.888720 
# 
# From -- ./inp_files/228029.got.cif
#   From: 2010.05.17/outbox.cif.g08.bks.cpg/sg15_115_cif.got.tgz:228029.got - 2010.06.03 18:47:42.
