data_PCOD9274438
_publ_section_title
;
Structure prediction by ZEFSAII (Michael W. Deem and Ramdas Pophale) SiO2 
 PCOD9274438
Probable space group: C 2/C
;
_chemical_formula_sum "Si O2"
_cell_formula_units_Z 60
_cell_length_a 12.111717
_cell_length_b 14.501632
_cell_length_c 20.079725
_cell_angle_alpha 90.000000
_cell_angle_beta 63.026468
_cell_angle_gamma 90.000000
_cell_volume 3143.137674
_symmetry_space_group_name_H-M "C 2/C"
_symmetry_group_IT_number 15
_symmetry_cell_setting 'monoclinic'
loop_
_space_group_symop_operation_xyz
x,y,z
-x,y,1/2-z
-x,-y,-z
x,-y,1/2+z
1/2+x,1/2+y,z
1/2-x,1/2+y,1/2-z
1/2-x,1/2-y,-z
1/2+x,1/2-y,1/2+z
loop_
_atom_site_type_symbol
_atom_site_label
_atom_site_fract_x
_atom_site_fract_y
_atom_site_fract_z
Si Si1 0.263419 0.051005 0.234361
Si Si2 0.160997 0.237247 0.305457
Si Si3 0.301707 0.345928 0.569181
Si Si4 0.000000 0.658864 0.750000
Si Si5 0.556117 0.248912 0.084969
Si Si6 0.851491 0.497449 0.846562
Si Si7 0.971266 0.450284 0.577693
Si Si8 0.890675 0.869290 0.226440
O O1 0.356045 0.056681 0.273615
O O2 0.166831 0.969046 0.275464
O O3 0.202795 0.150785 0.249348
O O4 0.336025 0.031941 0.146185
O O5 0.131330 0.196661 0.385572
O O6 0.049708 0.285173 0.298467
O O7 0.273582 0.309162 0.282585
O O8 0.374919 0.317748 0.483940
O O9 0.165623 0.297060 0.599952
O O10 0.274995 0.453898 0.589396
O O11 0.885953 0.597474 0.808953
O O12 0.495929 0.159557 0.065929
O O13 0.454822 0.307420 0.152031
O O14 0.942065 0.484051 0.884699
O O15 0.000000 0.500000 0.500000
O O16 0.000000 0.881888 0.250000
#
# Coordination Sequence:
#
# PCOD9274438 Si02
#       8
#     8   8   8   4   8   8   8   8
#     4  11  23  41  63  94 125 163 214 257 317 379
#     4  11  23  40  64  92 123 168 210 260 306 383
#     4   9  21  37  61  90 123 155 210 265 316 355
#     4  12  22  38  68  88 126 168 216 244 310 388
#     4  10  21  37  60  94 125 160 204 271 317 366
#     4  10  20  38  63  90 117 168 217 251 301 379
#     4  11  22  35  64  95 129 160 212 269 315 368
#     4  12  23  38  67  93 125 161 217 264 317 362
#
# _framework density 19.089205
#
# number of rings (size 3 to 8) (size 9 to 14) (size 15 to 20)
#    0.000    1.333    5.333    0.000    4.667    1.067 
#    0.000    2.667    2.933    2.400    0.000    0.000 
#    0.000    0.000    0.000    0.000    0.000    0.000 
#
# Total GULP energy -167053.591779 kJ/mol
# GULP energy per Si atom -5568.453059 kJ/mol
# Density = 1.904576 g / cm^3
# Si number density = 19.089205 Si / 1000 Ang^3
#
#
#
# Elastic Constant Matrix: (Units=GPa)
#
#
# Indices 1 2 3 4 5 6 
#
# 1 64.4619 29.7232 15.8238 0.0000 7.5745 0.0000
# 2 29.7232 92.3177 18.8498 0.0000 2.8825 0.0000
# 3 15.8238 18.8498 71.7228 0.0000 14.5003 0.0000
# 4 0.0000 0.0000 0.0000 30.1205 0.0000 -1.6248
# 5 7.5745 2.8825 14.5003 0.0000 18.0634 0.0000
# 6 0.0000 0.0000 0.0000 -1.6248 0.0000 35.9198
#
#
#
# Elastic Compliance Matrix: (Units=1/GPa)
#
#
# Indices 1 2 3 4 5 6 
#
# 1 0.019208 -0.005683 -0.001551 0.000000 -0.005903 0.000000
# 2 -0.005683 0.013136 -0.002693 0.000000 0.002449 0.000000
# 3 -0.001551 -0.002693 0.017636 0.000000 -0.013077 0.000000
# 4 0.000000 0.000000 0.000000 0.033281 0.000000 0.001505
# 5 -0.005903 0.002449 -0.013077 0.000000 0.067943 0.000000
# 6 0.000000 0.000000 0.000000 0.001505 0.000000 0.027908
#
#
# Mechanical properties :
#
#
# Convention : Reuss Voigt Hill
#
# Bulk Modulus (GPa) = 33.19533 39.69956 36.44745
# Shear Modulus (GPa) = 23.92250 27.76111 25.84181
#
# Velocity S-wave (km/s) = 3.54389 3.81764 3.68331
# Velocity P-wave (km/s) = 5.84576 6.34622 6.10112
#
# Compressibility (1/GPa) = 0.03012472
#
# Stress axis : x y z
#
# Youngs Moduli (GPa) = 52.06198 76.12957 56.70077
#
# Poissons Ratio (x) = 0.43267 0.08793
# Poissons Ratio (y) = 0.29589 0.15272
# Poissons Ratio (z) = 0.08073 0.20505
#
# Static dielectric constant tensor:
#      x y z
#    x 1.742780 0.000000 -0.058120 
#    y 0.000000 1.694120 0.000000 
#    z -0.058120 0.000000 1.694040 
# 
# From -- ./inp_files/238712.got.cif
#   From: 2010.05.17/outbox.cif.g08.bks.cpg/sg15_120_cif.got.tgz:238712.got - 2010.06.03 18:47:42.
