data_PCOD9274224
_publ_section_title
;
Structure prediction by ZEFSAII (Michael W. Deem and Ramdas Pophale) SiO2 
 PCOD9274224
Probable space group: C 2/C
;
_chemical_formula_sum "Si O2"
_cell_formula_units_Z 48
_cell_length_a 9.263351
_cell_length_b 25.067462
_cell_length_c 9.660002
_cell_angle_alpha 90.000000
_cell_angle_beta 75.299705
_cell_angle_gamma 90.000000
_cell_volume 2169.710669
_symmetry_space_group_name_H-M "C 2/C"
_symmetry_group_IT_number 15
_symmetry_cell_setting 'monoclinic'
loop_
_space_group_symop_operation_xyz
x,y,z
-x,y,1/2-z
-x,-y,-z
x,-y,1/2+z
1/2+x,1/2+y,z
1/2-x,1/2+y,1/2-z
1/2-x,1/2-y,-z
1/2+x,1/2-y,1/2+z
loop_
_atom_site_type_symbol
_atom_site_label
_atom_site_fract_x
_atom_site_fract_y
_atom_site_fract_z
Si Si1 0.521984 0.283917 0.909605
Si Si2 0.238772 0.657057 0.488227
Si Si3 0.108166 0.982566 0.847782
Si Si4 0.900448 0.328087 0.051817
Si Si5 0.678665 0.079350 0.725844
Si Si6 0.749931 0.128320 0.161901
O O1 0.500000 0.279057 0.750000
O O2 0.356179 0.297759 0.004299
O O3 0.624853 0.234956 0.932692
O O4 0.609314 0.337782 0.925404
O O5 0.252693 0.602226 0.567943
O O6 0.242220 0.644440 0.324543
O O7 0.070869 0.673412 0.562122
O O8 0.214543 0.933548 0.863598
O O9 0.000000 0.964442 0.750000
O O10 0.218161 0.029105 0.764708
O O11 0.000000 0.000000 0.000000
O O12 0.816059 0.370938 0.168206
O O13 0.883536 0.351173 0.902003
O O14 0.500000 0.066583 0.750000
#
# Coordination Sequence:
#
# PCOD9274224 Si02
#       6
#     8   8   8   8   8   8
#     4  10  20  38  62  87 121 161 200 249 303 367
#     4  10  21  39  61  87 120 161 202 244 306 370
#     4  12  24  43  66  91 123 165 212 260 311 371
#     4  11  22  38  60  91 123 156 200 251 307 366
#     4  10  23  41  63  91 125 165 208 258 313 368
#     4  11  23  39  59  89 121 156 203 254 304 360
#
# _framework density 22.122765999999999
#
# number of rings (size 3 to 8) (size 9 to 14) (size 15 to 20)
#    0.000    1.333    0.000    7.500    0.000    2.667 
#    0.000    5.833    0.000    0.000    0.000    0.000 
#    0.000    0.000    0.000    0.000    0.000    0.000 
#
# Total GULP energy -133885.431344 kJ/mol
# GULP energy per Si atom -5578.559639 kJ/mol
# Density = 2.207241 g / cm^3
# Si number density = 22.122766 Si / 1000 Ang^3
#
#
#
# Elastic Constant Matrix: (Units=GPa)
#
#
# Indices 1 2 3 4 5 6 
#
# 1 75.6824 47.4609 11.1511 0.0000 -1.8735 0.0000
# 2 47.4609 115.2249 15.3713 0.0000 -1.0879 0.0000
# 3 11.1511 15.3713 60.8362 0.0000 3.3321 0.0000
# 4 0.0000 0.0000 0.0000 17.7732 0.0000 12.9297
# 5 -1.8735 -1.0879 3.3321 0.0000 30.0697 0.0000
# 6 0.0000 0.0000 0.0000 12.9297 0.0000 21.2865
#
#
#
# Elastic Compliance Matrix: (Units=1/GPa)
#
#
# Indices 1 2 3 4 5 6 
#
# 1 0.017973 -0.007188 -0.001534 0.000000 0.001030 0.000000
# 2 -0.007188 0.011867 -0.001690 0.000000 0.000169 0.000000
# 3 -0.001534 -0.001690 0.017259 0.000000 -0.002069 0.000000
# 4 0.000000 0.000000 0.000000 0.100812 0.000000 -0.061235
# 5 0.001030 0.000169 -0.002069 0.000000 0.033556 0.000000
# 6 0.000000 0.000000 0.000000 -0.061235 0.000000 0.084173
#
#
# Mechanical properties :
#
#
# Convention : Reuss Voigt Hill
#
# Bulk Modulus (GPa) = 38.06225 44.41224 41.23725
# Shear Modulus (GPa) = 16.93640 25.67656 21.30648
#
# Velocity S-wave (km/s) = 2.76988 3.41051 3.10675
# Velocity P-wave (km/s) = 5.24138 5.96890 5.61693
#
# Compressibility (1/GPa) = 0.02627275
#
# Stress axis : x y z
#
# Youngs Moduli (GPa) = 55.64027 84.26998 57.94027
#
# Poissons Ratio (x) = 0.60577 0.08891
# Poissons Ratio (y) = 0.39997 0.09792
# Poissons Ratio (z) = 0.08538 0.14241
#
# Static dielectric constant tensor:
#      x y z
#    x 1.865310 0.000000 -0.005050 
#    y 0.000000 1.922280 0.000000 
#    z -0.005050 0.000000 1.808480 
# 
# From -- ./inp_files/79248.got.cif
#   From: 2010.05.17/outbox.cif.g08.bks.cpg/sg15_40_cif.got.tgz:79248.got - 2010.06.03 18:47:42.
