data_PCOD9274335
_publ_section_title
;
Structure prediction by ZEFSAII (Michael W. Deem and Ramdas Pophale) SiO2 
 PCOD9274335
Probable space group: C 2/C
;
_chemical_formula_sum "Si O2"
_cell_formula_units_Z 40
_cell_length_a 10.185097
_cell_length_b 24.284560
_cell_length_c 18.367625
_cell_angle_alpha 90.000000
_cell_angle_beta 25.367246
_cell_angle_gamma 90.000000
_cell_volume 1946.331400
_symmetry_space_group_name_H-M "C 2/C"
_symmetry_group_IT_number 15
_symmetry_cell_setting 'monoclinic'
loop_
_space_group_symop_operation_xyz
x,y,z
-x,y,1/2-z
-x,-y,-z
x,-y,1/2+z
1/2+x,1/2+y,z
1/2-x,1/2+y,1/2-z
1/2-x,1/2-y,-z
1/2+x,1/2-y,1/2+z
loop_
_atom_site_type_symbol
_atom_site_label
_atom_site_fract_x
_atom_site_fract_y
_atom_site_fract_z
Si Si1 0.334287 0.762285 0.254680
Si Si2 0.337318 0.339989 0.549644
Si Si3 0.624807 0.952658 0.605020
Si Si4 0.500868 0.543536 0.166772
Si Si5 0.643661 0.340840 0.547036
O O1 0.500000 0.760279 0.250000
O O2 0.372244 0.701070 0.205556
O O3 0.001356 0.788431 0.429914
O O4 0.548262 0.804650 0.102320
O O5 0.301471 0.394509 0.519338
O O6 0.561208 0.355605 0.505029
O O7 0.000000 0.327588 0.750000
O O8 0.500000 0.962047 0.750000
O O9 0.337590 0.947938 0.695195
O O10 0.831443 0.001657 0.471464
O O11 0.500000 0.522875 0.250000
O O12 0.658017 0.603563 0.085007
#
# Coordination Sequence:
#
# PCOD9274335 Si02
#       5
#     8   8   8   8   8
#     4   9  20  36  63  92 126 166 218 259 324 385
#     4  10  20  39  61  91 126 162 220 262 309 393
#     4  11  24  43  65  96 126 175 221 260 324 395
#     4  12  25  42  66  94 135 166 218 276 327 376
#     4  10  20  38  62  93 123 172 213 264 317 390
#
# _framework density 20.551486000000001
#
# number of rings (size 3 to 8) (size 9 to 14) (size 15 to 20)
#    0.000    1.600    4.000    1.800    2.800    1.600 
#    0.000    0.000    0.000    0.000    0.000    0.000 
#    0.000    0.000    0.000    0.000    0.000    0.000 
#
# Total GULP energy -111700.525865 kJ/mol
# GULP energy per Si atom -5585.026293 kJ/mol
# Density = 2.050471 g / cm^3
# Si number density = 20.551486 Si / 1000 Ang^3
#
#
#
# Elastic Constant Matrix: (Units=GPa)
#
#
# Indices 1 2 3 4 5 6 
#
# 1 76.9955 16.0075 2.6934 0.0184 3.2716 -0.0043
# 2 16.0075 122.0213 48.3609 0.0488 0.5993 0.0069
# 3 2.6934 48.3609 48.4799 -0.0189 3.7794 -0.0382
# 4 0.0184 0.0488 -0.0189 23.8076 0.0021 3.9311
# 5 3.2716 0.5993 3.7794 0.0021 16.6360 0.0092
# 6 -0.0043 0.0069 -0.0382 3.9311 0.0092 20.2603
#
#
#
# Elastic Compliance Matrix: (Units=1/GPa)
#
#
# Indices 1 2 3 4 5 6 
#
# 1 0.013582 -0.002583 0.002060 -0.000005 -0.003046 0.000010
# 2 -0.002583 0.014159 -0.014233 -0.000034 0.003231 -0.000027
# 3 0.002060 -0.014233 0.035328 0.000045 -0.007918 0.000067
# 4 -0.000005 -0.000034 0.000045 0.043394 -0.000009 -0.008420
# 5 -0.003046 0.003231 -0.007918 -0.000009 0.062392 -0.000043
# 6 0.000010 -0.000027 0.000067 -0.008420 -0.000043 0.050991
#
#
# Mechanical properties :
#
#
# Convention : Reuss Voigt Hill
#
# Bulk Modulus (GPa) = 29.80027 42.40224 36.10125
# Shear Modulus (GPa) = 19.19052 24.16978 21.68015
#
# Velocity S-wave (km/s) = 3.05909 3.43309 3.25148
# Velocity P-wave (km/s) = 5.19704 6.03256 5.63032
#
# Compressibility (1/GPa) = 0.03355674
#
# Stress axis : x y z
#
# Youngs Moduli (GPa) = 73.62578 70.62492 28.30602
#
# Poissons Ratio (x) = 0.18244 -0.05830
# Poissons Ratio (y) = 0.19019 0.40288
# Poissons Ratio (z) = -0.15165 1.00521
#
# Static dielectric constant tensor:
#      x y z
#    x 1.743180 0.000000 0.028030 
#    y 0.000000 1.745420 0.000020 
#    z 0.028030 0.000020 1.767910 
# 
# From -- ./inp_files/193407.got.cif
#   From: 2010.05.17/outbox.cif.g08.bks.cpg/sg15_97_cif.got.tgz:193407.got - 2010.06.03 18:47:42.
