data_PCOD9274972
_publ_section_title
;
Structure prediction by ZEFSAII (Michael W. Deem and Ramdas Pophale) SiO2 
 PCOD9274972
Probable space group: C 2/C
;
_chemical_formula_sum "Si O2"
_cell_formula_units_Z 64
_cell_length_a 6.534675
_cell_length_b 27.496031
_cell_length_c 18.117221
_cell_angle_alpha 90.000000
_cell_angle_beta 64.450818
_cell_angle_gamma 90.000000
_cell_volume 2936.945061
_symmetry_space_group_name_H-M "C 2/C"
_symmetry_group_IT_number 15
_symmetry_cell_setting 'monoclinic'
loop_
_space_group_symop_operation_xyz
x,y,z
-x,y,1/2-z
-x,-y,-z
x,-y,1/2+z
1/2+x,1/2+y,z
1/2-x,1/2+y,1/2-z
1/2-x,1/2-y,-z
1/2+x,1/2-y,1/2+z
loop_
_atom_site_type_symbol
_atom_site_label
_atom_site_fract_x
_atom_site_fract_y
_atom_site_fract_z
Si Si1 0.469724 0.737536 0.416562
Si Si2 0.294350 0.990584 0.088517
Si Si3 0.700365 0.847628 0.577389
Si Si4 0.413151 0.925477 0.375650
Si Si5 0.925564 0.082705 0.434078
Si Si6 0.698120 0.838349 0.401700
Si Si7 0.465423 0.589705 0.671023
Si Si8 0.197500 0.162249 0.163633
O O1 0.250000 0.750000 0.500000
O O2 0.628218 0.695824 0.427757
O O3 0.619853 0.785777 0.388344
O O4 0.372001 0.715060 0.356367
O O5 0.434020 0.973757 0.139193
O O6 0.140864 0.943312 0.096805
O O7 0.120907 0.035269 0.108962
O O8 0.500000 0.000000 0.000000
O O9 0.661570 0.843896 0.495334
O O10 0.453986 0.840528 0.652372
O O11 0.825602 0.897488 0.582729
O O12 0.216473 0.926200 0.469294
O O13 0.558924 0.878336 0.376259
O O14 0.281477 0.919426 0.320658
O O15 0.815607 0.126155 0.404123
O O16 0.957978 0.854558 0.349609
O O17 0.500000 0.575179 0.750000
O O18 0.000000 0.146678 0.250000
#
# Coordination Sequence:
#
# PCOD9274972 Si02
#       8
#     8   8   8   8   8   8   8   8
#     4  11  23  39  64  97 128 176 235 286 339 421
#     4   9  22  39  65  99 128 173 228 271 337 415
#     4  11  21  39  70  93 136 174 230 288 338 414
#     4  10  20  40  66  94 136 169 226 278 327 408
#     4  10  20  38  66  98 127 174 229 274 338 417
#     4  11  21  39  64  96 123 179 230 272 341 414
#     4  11  25  42  63  98 137 175 225 293 346 394
#     4  11  25  42  61  97 139 175 228 299 356 402
#
# _framework density 21.791350999999999
#
# number of rings (size 3 to 8) (size 9 to 14) (size 15 to 20)
#    0.000    1.500    3.750    1.125    0.000    7.500 
#    4.500    0.000    0.000    7.500    0.000    0.000 
#    0.000    0.000    0.000    0.000    0.000    0.000 
#
# Total GULP energy -178532.106093 kJ/mol
# GULP energy per Si atom -5579.128315 kJ/mol
# Density = 2.174175 g / cm^3
# Si number density = 21.791351 Si / 1000 Ang^3
#
#
#
# Elastic Constant Matrix: (Units=GPa)
#
#
# Indices 1 2 3 4 5 6 
#
# 1 162.4632 64.4422 46.3836 0.0000 -1.1771 0.0000
# 2 64.4422 129.3082 14.4019 0.0000 5.0573 0.0000
# 3 46.3836 14.4019 57.8044 0.0000 -11.6691 0.0000
# 4 0.0000 0.0000 0.0000 14.6322 0.0000 -3.7921
# 5 -1.1771 5.0573 -11.6691 0.0000 36.6247 0.0000
# 6 0.0000 0.0000 0.0000 -3.7921 0.0000 47.3626
#
#
#
# Elastic Compliance Matrix: (Units=1/GPa)
#
#
# Indices 1 2 3 4 5 6 
#
# 1 0.009775 -0.004023 -0.007124 0.000000 -0.001400 0.000000
# 2 -0.004023 0.009729 0.000542 0.000000 -0.001300 0.000000
# 3 -0.007124 0.000542 0.024388 0.000000 0.007467 0.000000
# 4 0.000000 0.000000 0.000000 0.069790 0.000000 0.005588
# 5 -0.001400 -0.001300 0.007467 0.000000 0.029817 0.000000
# 6 0.000000 0.000000 0.000000 0.005588 0.000000 0.021561
#
#
# Mechanical properties :
#
#
# Convention : Reuss Voigt Hill
#
# Bulk Modulus (GPa) = 44.08796 66.67012 55.37904
# Shear Modulus (GPa) = 25.79555 34.68044 30.23800
#
# Velocity S-wave (km/s) = 3.44430 3.99366 3.72911
# Velocity P-wave (km/s) = 6.00778 7.20604 6.63402
#
# Compressibility (1/GPa) = 0.02268193
#
# Stress axis : x y z
#
# Youngs Moduli (GPa) = 102.30418 102.78601 41.00325
#
# Poissons Ratio (x) = 0.41353 0.29210
# Poissons Ratio (y) = 0.41159 -0.02222
# Poissons Ratio (z) = 0.72879 -0.05570
#
# Static dielectric constant tensor:
#      x y z
#    x 1.834050 0.000000 -0.020550 
#    y 0.000000 1.816870 0.000000 
#    z -0.020550 0.000000 1.837180 
# 
# From -- ./inp_files/228782.got.cif
#   From: 2010.05.17/outbox.cif.g08.bks.cpg/sg15_115_cif.got.tgz:228782.got - 2010.06.03 18:47:42.
