data_PCOD9274024
_publ_section_title
;
Structure prediction by ZEFSAII (Michael W. Deem and Ramdas Pophale) SiO2 
 PCOD9274024
Probable space group: C 2/C
;
_chemical_formula_sum "Si O2"
_cell_formula_units_Z 24
_cell_length_a 15.115849
_cell_length_b 5.034713
_cell_length_c 17.184905
_cell_angle_alpha 90.000000
_cell_angle_beta 132.245771
_cell_angle_gamma 90.000000
_cell_volume 968.151295
_symmetry_space_group_name_H-M "C 2/C"
_symmetry_group_IT_number 15
_symmetry_cell_setting 'monoclinic'
loop_
_space_group_symop_operation_xyz
x,y,z
-x,y,1/2-z
-x,-y,-z
x,-y,1/2+z
1/2+x,1/2+y,z
1/2-x,1/2+y,1/2-z
1/2-x,1/2-y,-z
1/2+x,1/2-y,1/2+z
loop_
_atom_site_type_symbol
_atom_site_label
_atom_site_fract_x
_atom_site_fract_y
_atom_site_fract_z
Si Si1 0.719367 0.608951 0.901037
Si Si2 0.603846 0.346560 0.603882
Si Si3 0.845824 0.600507 0.715600
O O1 0.671046 0.313146 0.863483
O O2 0.840757 0.628401 0.921679
O O3 0.629610 0.811996 0.804117
O O4 0.750000 0.750000 0.000000
O O5 0.500000 0.500000 0.500000
O O6 0.715515 0.551095 0.678905
O O7 0.573752 0.219743 0.668975
#
# Coordination Sequence:
#
# PCOD9274024 Si02
#       3
#     8   8   8
#     4  10  20  38  61  82 122 156 192 253 307 342
#     4  10  21  38  65  86 118 160 207 239 303 359
#     4  10  20  39  59  85 117 156 199 250 288 363
#
# _framework density 24.789517
#
# number of rings (size 3 to 8) (size 9 to 14) (size 15 to 20)
#    2.000    0.000    3.333    1.000    0.000    1.333 
#    0.000    1.667    0.000    0.000    0.000    0.000 
#    0.000    0.000    0.000    0.000    0.000    0.000 
#
# Total GULP energy -66979.957748 kJ/mol
# GULP energy per Si atom -5581.663146 kJ/mol
# Density = 2.473309 g / cm^3
# Si number density = 24.789517 Si / 1000 Ang^3
#
#
#
# Elastic Constant Matrix: (Units=GPa)
#
#
# Indices 1 2 3 4 5 6 
#
# 1 58.1645 -4.1704 8.7006 0.0000 0.0873 0.0001
# 2 -4.1704 107.4592 -11.1697 -0.0001 -0.7624 0.0007
# 3 8.7006 -11.1697 85.2960 0.0000 -9.0229 0.0000
# 4 0.0000 -0.0001 0.0000 40.7252 0.0000 -7.9781
# 5 0.0873 -0.7624 -9.0229 0.0000 36.6372 0.0000
# 6 0.0001 0.0007 0.0000 -7.9781 0.0000 8.3686
#
#
#
# Elastic Compliance Matrix: (Units=1/GPa)
#
#
# Indices 1 2 3 4 5 6 
#
# 1 0.017493 0.000492 -0.001769 0.000000 -0.000467 0.000000
# 2 0.000492 0.009458 0.001241 0.000000 0.000501 -0.000001
# 3 -0.001769 0.001241 0.012393 0.000000 0.003082 0.000000
# 4 0.000000 0.000000 0.000000 0.030194 0.000000 0.028785
# 5 -0.000467 0.000501 0.003082 0.000000 0.028065 0.000000
# 6 0.000000 -0.000001 0.000000 0.028785 0.000000 0.146936
#
#
# Mechanical properties :
#
#
# Convention : Reuss Voigt Hill
#
# Bulk Modulus (GPa) = 25.46412 26.40453 25.93433
# Shear Modulus (GPa) = 19.40231 34.31683 26.85957
#
# Velocity S-wave (km/s) = 2.80068 3.72469 3.29523
# Velocity P-wave (km/s) = 4.55553 5.40115 4.99626
#
# Compressibility (1/GPa) = 0.03927094
#
# Stress axis : x y z
#
# Youngs Moduli (GPa) = 57.16486 105.73590 80.69090
#
# Poissons Ratio (x) = -0.05199 0.14278
# Poissons Ratio (y) = -0.02811 -0.10017
# Poissons Ratio (z) = 0.10115 -0.13126
#
# Static dielectric constant tensor:
#      x y z
#    x 2.050420 0.000000 -0.003210 
#    y 0.000000 1.960550 0.000000 
#    z -0.003210 0.000000 1.976070 
# 
# From -- ./inp_files/101909.got.cif
#   From: 2010.05.17/outbox.cif.g08.bks.cpg/sg15_51_cif.got.tgz:101909.got - 2010.06.03 18:47:42.
