data_PCOD9274291
_publ_section_title
;
Structure prediction by ZEFSAII (Michael W. Deem and Ramdas Pophale) SiO2 
 PCOD9274291
Probable space group: C 2/C
;
_chemical_formula_sum "Si O2"
_cell_formula_units_Z 40
_cell_length_a 17.170808
_cell_length_b 13.235540
_cell_length_c 14.713991
_cell_angle_alpha 90.000000
_cell_angle_beta 31.982020
_cell_angle_gamma 90.000000
_cell_volume 1771.146199
_symmetry_space_group_name_H-M "C 2/C"
_symmetry_group_IT_number 15
_symmetry_cell_setting 'monoclinic'
loop_
_space_group_symop_operation_xyz
x,y,z
-x,y,1/2-z
-x,-y,-z
x,-y,1/2+z
1/2+x,1/2+y,z
1/2-x,1/2+y,1/2-z
1/2-x,1/2-y,-z
1/2+x,1/2-y,1/2+z
loop_
_atom_site_type_symbol
_atom_site_label
_atom_site_fract_x
_atom_site_fract_y
_atom_site_fract_z
Si Si1 0.120267 0.420291 0.556633
Si Si2 0.281979 0.507736 0.142927
Si Si3 0.525379 0.866728 0.323371
Si Si4 0.942046 0.692149 0.097670
Si Si5 0.907760 0.916226 0.204237
O O1 0.293007 0.415316 0.401302
O O2 0.000000 0.385896 0.750000
O O3 0.080640 0.535929 0.577241
O O4 0.085390 0.355644 0.502443
O O5 0.181471 0.421525 0.193513
O O6 0.183491 0.609363 0.253920
O O7 0.331416 0.473632 0.194693
O O8 0.433367 0.533842 0.942364
O O9 0.500000 0.816840 0.250000
O O10 0.472624 0.801319 0.460308
O O11 0.922497 0.800793 0.159219
#
# Coordination Sequence:
#
# PCOD9274291 Si02
#       5
#     8   8   8   8   8
#     4  10  20  38  62  90 125 169 215 259 327 382
#     4  10  21  38  63  93 126 166 212 271 312 376
#     4  10  20  40  65  89 123 180 215 249 325 393
#     4  11  20  39  64  89 128 176 213 255 322 395
#     4  11  21  36  65  96 128 162 216 268 324 362
#
# _framework density 22.584244000000002
#
# number of rings (size 3 to 8) (size 9 to 14) (size 15 to 20)
#    0.000    1.600    4.000    2.400    0.000    0.800 
#    0.000   12.000    0.000    3.600    0.000    0.000 
#    0.000    0.000    0.000    0.000    0.000    0.000 
#
# Total GULP energy -111657.065359 kJ/mol
# GULP energy per Si atom -5582.853268 kJ/mol
# Density = 2.253284 g / cm^3
# Si number density = 22.584244 Si / 1000 Ang^3
#
#
#
# Elastic Constant Matrix: (Units=GPa)
#
#
# Indices 1 2 3 4 5 6 
#
# 1 96.4298 -17.3618 36.2115 0.0000 0.6790 0.0000
# 2 -17.3618 23.3127 -3.3699 0.0000 -13.9893 0.0000
# 3 36.2115 -3.3699 180.1454 0.0000 -23.5154 0.0000
# 4 0.0000 0.0000 0.0000 -1.2535 0.0000 -3.1178
# 5 0.6790 -13.9893 -23.5154 0.0000 36.3242 0.0000
# 6 0.0000 0.0000 0.0000 -3.1178 0.0000 4.5194
#
#
#
# Elastic Compliance Matrix: (Units=1/GPa)
#
#
# Indices 1 2 3 4 5 6 
#
# 1 0.013129 0.011081 -0.002083 0.000000 0.002674 0.000000
# 2 0.011081 0.068215 0.002677 0.000000 0.027797 0.000000
# 3 -0.002083 0.002677 0.006728 0.000000 0.005426 0.000000
# 4 0.000000 0.000000 0.000000 -0.293741 0.000000 -0.202644
# 5 0.002674 0.027797 0.005426 0.000000 0.041698 0.000000
# 6 0.000000 0.000000 0.000000 -0.202644 0.000000 0.081468
#
#
# Mechanical properties :
#
#
# Convention : Reuss Voigt Hill
#
# Bulk Modulus (GPa) = 8.97491 36.76082 22.86787
# Shear Modulus (GPa) = -72.76484 26.87858 -22.94313
#
# Velocity S-wave (km/s) = -5.68236 3.45359 -3.19076
# Velocity P-wave (km/s) = 6.25058 5.67588 1.85123
#
# Compressibility (1/GPa) = 0.11142170
#
# Stress axis : x y z
#
# Youngs Moduli (GPa) = 76.16978 14.65960 148.63197
#
# Poissons Ratio (x) = -0.16244 0.30956
# Poissons Ratio (y) = -0.84402 -0.39792
# Poissons Ratio (z) = 0.15864 -0.03925
#
# Static dielectric constant tensor:
#      x y z
#    x 1.894220 0.000000 0.043110 
#    y 0.000000 1.787340 0.000000 
#    z 0.043110 0.000000 1.932100 
# 
# From -- ./inp_files/38032.got.cif
#   From: 2010.05.17/outbox.cif.g08.bks.cpg/sg15_20_cif.got.tgz:38032.got - 2010.06.03 18:47:42.
