data_PCOD9274366
_publ_section_title
;
Structure prediction by ZEFSAII (Michael W. Deem and Ramdas Pophale) SiO2 
 PCOD9274366
Probable space group: C 2/C
;
_chemical_formula_sum "Si O2"
_cell_formula_units_Z 44
_cell_length_a 16.898256
_cell_length_b 7.633871
_cell_length_c 15.449625
_cell_angle_alpha 90.000000
_cell_angle_beta 72.465403
_cell_angle_gamma 90.000000
_cell_volume 1900.384042
_symmetry_space_group_name_H-M "C 2/C"
_symmetry_group_IT_number 15
_symmetry_cell_setting 'monoclinic'
loop_
_space_group_symop_operation_xyz
x,y,z
-x,y,1/2-z
-x,-y,-z
x,-y,1/2+z
1/2+x,1/2+y,z
1/2-x,1/2+y,1/2-z
1/2-x,1/2-y,-z
1/2+x,1/2-y,1/2+z
loop_
_atom_site_type_symbol
_atom_site_label
_atom_site_fract_x
_atom_site_fract_y
_atom_site_fract_z
Si Si1 0.887247 0.173996 0.897154
Si Si2 0.355470 0.794734 0.248740
Si Si3 0.668639 0.808715 0.763797
Si Si4 0.462813 0.319243 0.055377
Si Si5 0.159345 0.188966 0.049385
Si Si6 0.500000 0.410768 0.750000
O O1 0.833335 0.025052 0.961477
O O2 0.945938 0.038942 0.825708
O O3 0.842702 0.275292 0.835158
O O4 0.953106 0.271427 0.936470
O O5 0.265979 0.715611 0.252724
O O6 0.359170 0.771029 0.351136
O O7 0.441591 0.695649 0.202399
O O8 0.356642 0.990623 0.213573
O O9 0.606646 0.688585 0.843012
O O10 0.500000 0.500000 0.000000
O O11 0.408494 0.243890 0.995590
O O12 0.250000 0.250000 0.000000
#
# Coordination Sequence:
#
# PCOD9274366 Si02
#       6
#     8   8   8   8   8   4
#     4  10  21  39  67  91 125 177 215 260 322 389
#     4  11  25  38  66  97 130 172 219 270 319 387
#     4  12  23  42  67  96 129 172 225 262 319 395
#     4  10  21  38  71  93 126 171 213 266 333 379
#     4  10  20  40  63  92 131 168 210 268 327 376
#     4  10  20  38  62  96 126 162 224 268 316 374
#
# _framework density 23.153214999999999
#
# number of rings (size 3 to 8) (size 9 to 14) (size 15 to 20)
#    0.000    1.455    3.636    2.182    2.545    0.000 
#    0.000    1.818    8.000    0.000    0.000    0.000 
#    0.000    0.000    0.000    0.000    0.000    0.000 
#
# Total GULP energy -122536.742232 kJ/mol
# GULP energy per Si atom -5569.851920 kJ/mol
# Density = 2.310052 g / cm^3
# Si number density = 23.153215 Si / 1000 Ang^3
#
#
#
# Elastic Constant Matrix: (Units=GPa)
#
#
# Indices 1 2 3 4 5 6 
#
# 1 178.0709 30.1639 28.5112 0.0000 42.4191 0.0000
# 2 30.1639 68.6600 -12.0443 0.0000 1.2032 0.0000
# 3 28.5112 -12.0443 54.4776 0.0000 30.1307 0.0000
# 4 0.0000 0.0000 0.0000 19.2717 0.0000 3.7223
# 5 42.4191 1.2032 30.1307 0.0000 52.2735 0.0000
# 6 0.0000 0.0000 0.0000 3.7223 0.0000 33.7641
#
#
#
# Elastic Compliance Matrix: (Units=1/GPa)
#
#
# Indices 1 2 3 4 5 6 
#
# 1 0.007773 -0.003699 -0.002120 0.000000 -0.005000 0.000000
# 2 -0.003699 0.017322 0.006350 0.000000 -0.001057 0.000000
# 3 -0.002120 0.006350 0.029359 0.000000 -0.015348 0.000000
# 4 0.000000 0.000000 0.000000 0.053018 0.000000 -0.005845
# 5 -0.005000 -0.001057 -0.015348 0.000000 0.032059 0.000000
# 6 0.000000 0.000000 0.000000 -0.005845 0.000000 0.030262
#
#
# Mechanical properties :
#
#
# Convention : Reuss Voigt Hill
#
# Bulk Modulus (GPa) = 18.01286 43.83003 30.92145
# Shear Modulus (GPa) = 26.70429 38.03370 32.36899
#
# Velocity S-wave (km/s) = 3.39982 4.05742 3.74309
# Velocity P-wave (km/s) = 4.81751 6.39701 5.66260
#
# Compressibility (1/GPa) = 0.05551589
#
# Stress axis : x y z
#
# Youngs Moduli (GPa) = 128.65059 57.72951 34.06160
#
# Poissons Ratio (x) = 0.21355 0.07222
# Poissons Ratio (y) = 0.47590 -0.21631
# Poissons Ratio (z) = 0.27277 -0.36661
#
# Static dielectric constant tensor:
#      x y z
#    x 1.159870 0.000000 0.772600 
#    y 0.000000 1.908790 0.000000 
#    z 0.772600 0.000000 1.168320 
# 
# From -- ./inp_files/202618.got.cif
#   From: 2010.05.17/outbox.cif.g08.bks.cpg/sg15_102_cif.got.tgz:202618.got - 2010.06.03 18:47:42.
