data_PCOD9274456
_publ_section_title
;
Structure prediction by ZEFSAII (Michael W. Deem and Ramdas Pophale) SiO2 
 PCOD9274456
Probable space group: C 2/C
;
_chemical_formula_sum "Si O2"
_cell_formula_units_Z 52
_cell_length_a 17.139944
_cell_length_b 20.311570
_cell_length_c 8.062845
_cell_angle_alpha 90.000000
_cell_angle_beta 106.989571
_cell_angle_gamma 90.000000
_cell_volume 2684.489314
_symmetry_space_group_name_H-M "C 2/C"
_symmetry_group_IT_number 15
_symmetry_cell_setting 'monoclinic'
loop_
_space_group_symop_operation_xyz
x,y,z
-x,y,1/2-z
-x,-y,-z
x,-y,1/2+z
1/2+x,1/2+y,z
1/2-x,1/2+y,1/2-z
1/2-x,1/2-y,-z
1/2+x,1/2-y,1/2+z
loop_
_atom_site_type_symbol
_atom_site_label
_atom_site_fract_x
_atom_site_fract_y
_atom_site_fract_z
Si Si1 0.145500 0.409041 0.119105
Si Si2 0.500000 0.622370 0.250000
Si Si3 0.829822 0.092558 0.681612
Si Si4 0.585363 0.960895 0.401219
Si Si5 0.552941 0.698748 0.612937
Si Si6 0.985319 0.346566 0.933770
Si Si7 0.091159 0.971353 0.594859
O O1 0.234022 0.395286 0.102805
O O2 0.150620 0.434167 0.310897
O O3 0.109660 0.470670 0.995320
O O4 0.076016 0.352639 0.070323
O O5 0.517679 0.663502 0.427048
O O6 0.424579 0.575838 0.256919
O O7 0.867729 0.158010 0.785292
O O8 0.873807 0.070284 0.537479
O O9 0.850903 0.031310 0.816370
O O10 0.500000 0.968482 0.250000
O O11 0.568506 0.904924 0.525683
O O12 0.500000 0.694132 0.750000
O O13 0.556307 0.775809 0.571700
O O14 0.000000 0.357023 0.750000
O O15 0.000000 0.000000 0.500000
#
# Coordination Sequence:
#
# PCOD9274456 Si02
#       7
#     8   4   8   8   8   8   8
#     4  11  22  37  63  93 125 159 200 265 324 353
#     4  12  22  36  66  90 116 166 222 246 294 366
#     4  12  22  38  60  96 130 156 204 271 315 361
#     4  10  20  38  63  91 119 161 212 251 304 386
#     4  11  23  41  63  88 122 168 212 252 301 379
#     4  10  22  41  65  85 119 165 215 251 303 384
#     4  12  20  36  62  91 121 163 210 251 303 369
#
# _framework density 19.370536999999999
#
# number of rings (size 3 to 8) (size 9 to 14) (size 15 to 20)
#    0.000    0.923    4.615    4.154    3.231    0.000 
#    0.000    3.846    3.385    0.000    0.000    0.000 
#    0.000    0.000    0.000    0.000    0.000    0.000 
#
# Total GULP energy -145161.721809 kJ/mol
# GULP energy per Si atom -5583.143147 kJ/mol
# Density = 1.932645 g / cm^3
# Si number density = 19.370537 Si / 1000 Ang^3
#
#
#
# Elastic Constant Matrix: (Units=GPa)
#
#
# Indices 1 2 3 4 5 6 
#
# 1 78.2032 33.4386 13.4915 0.0000 -2.5329 0.0000
# 2 33.4386 126.8232 36.1123 0.0000 11.1511 0.0000
# 3 13.4915 36.1123 64.8705 0.0000 -14.8344 0.0000
# 4 0.0000 0.0000 0.0000 29.7128 0.0000 -6.3176
# 5 -2.5329 11.1511 -14.8344 0.0000 23.0963 0.0000
# 6 0.0000 0.0000 0.0000 -6.3176 0.0000 10.2034
#
#
#
# Elastic Compliance Matrix: (Units=1/GPa)
#
#
# Indices 1 2 3 4 5 6 
#
# 1 0.014700 -0.004260 0.000179 0.000000 0.003784 0.000000
# 2 -0.004260 0.012650 -0.008978 0.000000 -0.012341 0.000000
# 3 0.000179 -0.008978 0.025051 0.000000 0.020444 0.000000
# 4 0.000000 0.000000 0.000000 0.038758 0.000000 0.023997
# 5 0.003784 -0.012341 0.020444 0.000000 0.062801 0.000000
# 6 0.000000 0.000000 0.000000 0.023997 0.000000 0.112864
#
#
# Mechanical properties :
#
#
# Convention : Reuss Voigt Hill
#
# Bulk Modulus (GPa) = 38.04580 48.44241 43.24410
# Shear Modulus (GPa) = 16.57260 25.05946 20.81603
#
# Velocity S-wave (km/s) = 2.92816 3.60069 3.28170
# Velocity P-wave (km/s) = 5.57816 6.50763 6.06074
#
# Compressibility (1/GPa) = 0.02628411
#
# Stress axis : x y z
#
# Youngs Moduli (GPa) = 68.02629 79.05355 39.91844
#
# Poissons Ratio (x) = 0.33674 -0.00716
# Poissons Ratio (y) = 0.28977 0.35839
# Poissons Ratio (z) = -0.01219 0.70975
#
# Static dielectric constant tensor:
#      x y z
#    x 1.683750 0.000000 -0.017030 
#    y 0.000000 1.692920 0.000000 
#    z -0.017030 0.000000 1.722450 
# 
# From -- ./inp_files/49839.got.cif
#   From: 2010.05.17/outbox.cif.g08.bks.cpg/sg15_25_cif.got.tgz:49839.got - 2010.06.03 18:47:42.
