data_PCOD9274620
_publ_section_title
;
Structure prediction by ZEFSAII (Michael W. Deem and Ramdas Pophale) SiO2 
 PCOD9274620
Probable space group: C 2/C
;
_chemical_formula_sum "Si O2"
_cell_formula_units_Z 64
_cell_length_a 31.094005
_cell_length_b 8.746934
_cell_length_c 19.512645
_cell_angle_alpha 90.000000
_cell_angle_beta 39.024830
_cell_angle_gamma 90.000000
_cell_volume 3341.587022
_symmetry_space_group_name_H-M "C 2/C"
_symmetry_group_IT_number 15
_symmetry_cell_setting 'monoclinic'
loop_
_space_group_symop_operation_xyz
x,y,z
-x,y,1/2-z
-x,-y,-z
x,-y,1/2+z
1/2+x,1/2+y,z
1/2-x,1/2+y,1/2-z
1/2-x,1/2-y,-z
1/2+x,1/2-y,1/2+z
loop_
_atom_site_type_symbol
_atom_site_label
_atom_site_fract_x
_atom_site_fract_y
_atom_site_fract_z
Si Si1 0.288059 0.563755 0.255940
Si Si2 0.205614 0.944233 0.998530
Si Si3 0.560513 0.555482 0.727077
Si Si4 0.938974 0.069012 0.120464
Si Si5 0.785882 0.576128 0.779718
Si Si6 0.705694 0.094941 0.976785
Si Si7 0.062875 0.424686 0.722428
Si Si8 0.061245 0.562932 0.877284
O O1 0.365177 0.517719 0.181758
O O2 0.262665 0.508176 0.213916
O O3 0.286798 0.746167 0.260621
O O4 0.234587 0.493354 0.376168
O O5 0.129891 0.001725 0.105961
O O6 0.239734 0.922417 0.030052
O O7 0.200551 0.776853 0.969723
O O8 0.252893 0.051100 0.894775
O O9 0.500000 0.519854 0.750000
O O10 0.553606 0.486344 0.810740
O O11 0.564260 0.740168 0.730512
O O12 0.941339 0.253050 0.117456
O O13 0.000000 0.000000 0.000000
O O14 0.863962 0.517147 0.685831
O O15 0.633522 0.037965 0.095926
O O16 0.057026 0.502559 0.804144
O O17 0.000000 0.462059 0.750000
O O18 0.000000 0.500000 0.000000
#
# Coordination Sequence:
#
# PCOD9274620 Si02
#       8
#     8   8   8   8   8   8   8   8
#     4  11  25  42  63  91 124 162 205 254 306 362
#     4  10  20  38  64  90 120 159 201 249 304 360
#     4  10  22  40  63  91 124 161 201 248 302 362
#     4  11  25  43  63  89 124 164 206 253 305 362
#     4  11  25  42  63  91 124 162 205 254 306 362
#     4  10  20  38  64  90 120 159 201 249 304 360
#     4  10  22  40  63  91 124 161 201 248 302 362
#     4  11  25  43  63  89 124 164 206 253 305 362
#
# _framework density 19.152577000000001
#
# number of rings (size 3 to 8) (size 9 to 14) (size 15 to 20)
#    0.000    1.500    2.500    1.500    3.500    5.000 
#    0.000    0.000    0.000    0.000    0.000    0.000 
#    0.000    0.000    0.000    0.000    0.000    0.000 
#
# Total GULP energy -178787.285820 kJ/mol
# GULP energy per Si atom -5587.102682 kJ/mol
# Density = 1.910898 g / cm^3
# Si number density = 19.152577 Si / 1000 Ang^3
#
#
#
# Elastic Constant Matrix: (Units=GPa)
#
#
# Indices 1 2 3 4 5 6 
#
# 1 100.4855 16.1599 37.6526 -0.0005 -12.4527 0.0024
# 2 16.1599 22.0490 6.4056 -0.0022 -1.5868 -0.0032
# 3 37.6526 6.4056 102.4803 0.0044 -22.9351 -0.0009
# 4 -0.0005 -0.0022 0.0044 33.0639 0.0001 7.9392
# 5 -12.4527 -1.5868 -22.9351 0.0001 34.9221 -0.0012
# 6 0.0024 -0.0032 -0.0009 7.9392 -0.0012 25.9657
#
#
#
# Elastic Compliance Matrix: (Units=1/GPa)
#
#
# Indices 1 2 3 4 5 6 
#
# 1 0.012932 -0.008235 -0.003855 0.000001 0.001705 -0.000003
# 2 -0.008235 0.051438 -0.000379 0.000002 -0.000848 0.000006
# 3 -0.003855 -0.000379 0.012762 -0.000002 0.006990 0.000002
# 4 0.000001 0.000002 -0.000002 0.032641 -0.000002 -0.009980
# 5 0.001705 -0.000848 0.006990 -0.000002 0.033795 0.000002
# 6 -0.000003 0.000006 0.000002 -0.009980 0.000002 0.041564
#
#
# Mechanical properties :
#
#
# Convention : Reuss Voigt Hill
#
# Bulk Modulus (GPa) = 19.15945 38.38345 28.77145
# Shear Modulus (GPa) = 21.98098 29.77678 25.87888
#
# Velocity S-wave (km/s) = 3.39141 3.94726 3.67985
# Velocity P-wave (km/s) = 5.03596 6.39210 5.75412
#
# Compressibility (1/GPa) = 0.05219358
#
# Stress axis : x y z
#
# Youngs Moduli (GPa) = 77.32832 19.44076 78.35543
#
# Poissons Ratio (x) = 0.16010 0.30205
# Poissons Ratio (y) = 0.63682 0.02972
# Poissons Ratio (z) = 0.29809 0.00737
#
# Static dielectric constant tensor:
#      x y z
#    x 1.660150 0.000000 -0.025310 
#    y 0.000000 1.663570 0.000000 
#    z -0.025310 0.000000 1.638600 
# 
# From -- ./inp_files/224576.got.cif
#   From: 2010.05.17/outbox.cif.g08.bks.cpg/sg15_113_cif.got.tgz:224576.got - 2010.06.03 18:47:42.
