data_PCOD9274027
_publ_section_title
;
Structure prediction by ZEFSAII (Michael W. Deem and Ramdas Pophale) SiO2 
 PCOD9274027
Probable space group: C 2/C
;
_chemical_formula_sum "Si O2"
_cell_formula_units_Z 64
_cell_length_a 26.119407
_cell_length_b 11.674469
_cell_length_c 10.228924
_cell_angle_alpha 90.000000
_cell_angle_beta 91.035823
_cell_angle_gamma 90.000000
_cell_volume 3118.598216
_symmetry_space_group_name_H-M "C 2/C"
_symmetry_group_IT_number 15
_symmetry_cell_setting 'monoclinic'
loop_
_space_group_symop_operation_xyz
x,y,z
-x,y,1/2-z
-x,-y,-z
x,-y,1/2+z
1/2+x,1/2+y,z
1/2-x,1/2+y,1/2-z
1/2-x,1/2-y,-z
1/2+x,1/2-y,1/2+z
loop_
_atom_site_type_symbol
_atom_site_label
_atom_site_fract_x
_atom_site_fract_y
_atom_site_fract_z
Si Si1 0.654745 0.126027 0.133202
Si Si2 0.370223 0.283199 0.905127
Si Si3 0.693095 0.492984 0.061418
Si Si4 0.021285 0.326532 0.104860
Si Si5 0.721933 0.693056 0.743600
Si Si6 0.291171 0.099907 0.971294
Si Si7 0.039617 0.404825 0.634777
Si Si8 0.822378 0.223530 0.114908
O O1 0.688066 0.194734 0.238337
O O2 0.597307 0.117215 0.179455
O O3 0.681601 0.006789 0.099907
O O4 0.653974 0.201010 0.999954
O O5 0.348928 0.407640 0.944017
O O6 0.430076 0.254190 0.921458
O O7 0.337116 0.190424 0.984725
O O8 0.354389 0.271484 0.750516
O O9 0.689175 0.412503 0.188392
O O10 0.750688 0.545683 0.071224
O O11 0.686872 0.404539 0.940425
O O12 0.039186 0.459592 0.101665
O O13 0.000000 0.304335 0.250000
O O14 0.978014 0.328917 0.990189
O O15 0.750291 0.663405 0.876330
O O16 0.767571 0.720406 0.644364
O O17 0.000000 0.386044 0.750000
#
# Coordination Sequence:
#
# PCOD9274027 Si02
#       8
#     8   8   8   8   8   8   8   8
#     4  11  19  39  62  84 122 171 202 247 319 377
#     4  11  23  36  59  92 119 159 206 261 320 366
#     4  11  20  37  53  84 129 156 202 248 299 378
#     4  10  21  41  62  90 123 163 213 270 319 376
#     4  10  21  34  59  83 121 164 203 241 295 387
#     4  11  21  35  54  90 120 157 198 248 307 381
#     4  10  22  39  62  91 126 161 216 271 316 368
#     4  10  20  38  61  83 120 172 204 239 311 395
#
# _framework density 20.522041999999999
#
# number of rings (size 3 to 8) (size 9 to 14) (size 15 to 20)
#    0.000    1.500    3.750    2.625    1.750    1.000 
#    2.250    0.000    0.000    9.750    0.000    0.000 
#    0.000    0.000    0.000    0.000    0.000    0.000 
#
# Total GULP energy -178760.199537 kJ/mol
# GULP energy per Si atom -5586.256236 kJ/mol
# Density = 2.047533 g / cm^3
# Si number density = 20.522042 Si / 1000 Ang^3
#
#
#
# Elastic Constant Matrix: (Units=GPa)
#
#
# Indices 1 2 3 4 5 6 
#
# 1 109.4197 29.3570 -3.4157 0.0000 -15.8335 0.0000
# 2 29.3570 102.8831 9.2423 0.0000 -11.6379 0.0000
# 3 -3.4157 9.2423 50.7973 0.0000 -3.2438 0.0000
# 4 0.0000 0.0000 0.0000 15.2655 0.0000 -3.8095
# 5 -15.8335 -11.6379 -3.2438 0.0000 23.9661 0.0000
# 6 0.0000 0.0000 0.0000 -3.8095 0.0000 31.2773
#
#
#
# Elastic Compliance Matrix: (Units=1/GPa)
#
#
# Indices 1 2 3 4 5 6 
#
# 1 0.010745 -0.002518 0.001569 0.000000 0.006088 0.000000
# 2 -0.002518 0.011000 -0.001953 0.000000 0.003414 0.000000
# 3 0.001569 -0.001953 0.020328 0.000000 0.002840 0.000000
# 4 0.000000 0.000000 0.000000 0.067560 0.000000 0.008229
# 5 0.006088 0.003414 0.002840 0.000000 0.047790 0.000000
# 6 0.000000 0.000000 0.000000 0.008229 0.000000 0.032974
#
#
# Mechanical properties :
#
#
# Convention : Reuss Voigt Hill
#
# Bulk Modulus (GPa) = 27.57106 37.05190 32.31148
# Shear Modulus (GPa) = 24.00493 29.29623 26.65058
#
# Velocity S-wave (km/s) = 3.42382 3.78239 3.60756
# Velocity P-wave (km/s) = 5.39389 6.09665 5.75601
#
# Compressibility (1/GPa) = 0.03626991
#
# Stress axis : x y z
#
# Youngs Moduli (GPa) = 93.06869 90.91011 49.19258
#
# Poissons Ratio (x) = 0.22893 -0.07721
# Poissons Ratio (y) = 0.23437 0.09606
# Poissons Ratio (z) = -0.14607 0.17752
#
# Static dielectric constant tensor:
#      x y z
#    x 1.713670 0.000000 0.000880 
#    y 0.000000 1.754610 0.000000 
#    z 0.000880 0.000000 1.811970 
# 
# From -- ./inp_files/117550.got.cif
#   From: 2010.05.17/outbox.cif.g08.bks.cpg/sg15_59_cif.got.tgz:117550.got - 2010.06.03 18:47:42.
