data_PCOD9274883
_publ_section_title
;
Structure prediction by ZEFSAII (Michael W. Deem and Ramdas Pophale) SiO2 
 PCOD9274883
Probable space group: C 2/C
;
_chemical_formula_sum "Si O2"
_cell_formula_units_Z 56
_cell_length_a 6.494453
_cell_length_b 26.962264
_cell_length_c 15.864362
_cell_angle_alpha 90.000000
_cell_angle_beta 103.875208
_cell_angle_gamma 90.000000
_cell_volume 2696.872483
_symmetry_space_group_name_H-M "C 2/C"
_symmetry_group_IT_number 15
_symmetry_cell_setting 'monoclinic'
loop_
_space_group_symop_operation_xyz
x,y,z
-x,y,1/2-z
-x,-y,-z
x,-y,1/2+z
1/2+x,1/2+y,z
1/2-x,1/2+y,1/2-z
1/2-x,1/2-y,-z
1/2+x,1/2-y,1/2+z
loop_
_atom_site_type_symbol
_atom_site_label
_atom_site_fract_x
_atom_site_fract_y
_atom_site_fract_z
Si Si1 0.000000 0.621073 0.250000
Si Si2 0.255442 0.805351 0.407674
Si Si3 0.875369 0.121534 0.396533
Si Si4 0.183527 0.546919 0.703487
Si Si5 0.500000 0.628252 0.750000
Si Si6 0.771689 0.058636 0.144124
Si Si7 0.425404 0.097120 0.984404
Si Si8 0.033232 0.778285 0.962423
O O1 0.174075 0.645645 0.327865
O O2 0.143037 0.588505 0.202118
O O3 0.425333 0.843667 0.466035
O O4 0.388115 0.757961 0.390936
O O5 0.119346 0.836606 0.327722
O O6 0.092507 0.786339 0.462327
O O7 0.775848 0.095913 0.470371
O O8 0.000682 0.081060 0.355379
O O9 0.039825 0.166050 0.428210
O O10 0.325691 0.588434 0.765045
O O11 0.289730 0.497340 0.677682
O O12 0.106636 0.573020 0.609846
O O13 0.000000 0.532246 0.750000
O O14 0.621221 0.069438 0.047989
O O15 0.250000 0.750000 0.000000
#
# Coordination Sequence:
#
# PCOD9274883 Si02
#       8
#     4   8   8   8   4   8   8   8
#     4  10  22  39  56  86 126 160 203 256 306 352
#     4   9  20  40  59  89 124 158 197 262 311 367
#     4  10  22  37  62  91 120 163 205 260 309 369
#     4  11  24  39  61  90 126 169 210 254 313 369
#     4  10  24  39  60  90 130 162 205 258 312 374
#     4  11  21  38  63  86 124 163 211 257 305 362
#     4   9  21  39  59  89 122 160 209 257 303 368
#     4  10  20  38  66  89 117 158 206 251 318 374
#
# _framework density 20.764793000000001
#
# number of rings (size 3 to 8) (size 9 to 14) (size 15 to 20)
#    0.000    2.000    0.714    1.714    2.000    8.000 
#    0.000    1.429    0.000    0.000    0.000    0.000 
#    0.000    0.000    0.000    0.000    0.000    0.000 
#
# Total GULP energy -155991.879522 kJ/mol
# GULP energy per Si atom -5571.138554 kJ/mol
# Density = 2.071753 g / cm^3
# Si number density = 20.764793 Si / 1000 Ang^3
#
#
#
# Elastic Constant Matrix: (Units=GPa)
#
#
# Indices 1 2 3 4 5 6 
#
# 1 65.4772 51.1450 36.2245 0.0000 9.6339 0.0000
# 2 51.1450 110.8836 34.0255 0.0000 8.3271 0.0000
# 3 36.2245 34.0255 80.5948 0.0000 13.3094 0.0000
# 4 0.0000 0.0000 0.0000 16.8897 0.0000 3.1068
# 5 9.6339 8.3271 13.3094 0.0000 33.7642 0.0000
# 6 0.0000 0.0000 0.0000 3.1068 0.0000 25.0490
#
#
#
# Elastic Compliance Matrix: (Units=1/GPa)
#
#
# Indices 1 2 3 4 5 6 
#
# 1 0.028046 -0.010351 -0.007846 0.000000 -0.002356 0.000000
# 2 -0.010351 0.014206 -0.001342 0.000000 -0.000021 0.000000
# 3 -0.007846 -0.001342 0.017196 0.000000 -0.004209 0.000000
# 4 0.000000 0.000000 0.000000 0.060590 0.000000 -0.007515
# 5 -0.002356 -0.000021 -0.004209 0.000000 0.031954 0.000000
# 6 0.000000 0.000000 0.000000 -0.007515 0.000000 0.040854
#
#
# Mechanical properties :
#
#
# Convention : Reuss Voigt Hill
#
# Bulk Modulus (GPa) = 49.09328 55.52729 52.31028
# Shear Modulus (GPa) = 20.94564 24.17796 22.56180
#
# Velocity S-wave (km/s) = 3.17946 3.41599 3.29985
# Velocity P-wave (km/s) = 6.09693 6.50829 6.30596
#
# Compressibility (1/GPa) = 0.02036939
#
# Stress axis : x y z
#
# Youngs Moduli (GPa) = 35.65623 70.39137 58.15399
#
# Poissons Ratio (x) = 0.72865 0.45629
# Poissons Ratio (y) = 0.36909 0.07801
# Poissons Ratio (z) = 0.27977 0.09443
#
# Static dielectric constant tensor:
#      x y z
#    x 1.747970 0.000000 0.052410 
#    y 0.000000 1.732880 0.000000 
#    z 0.052410 0.000000 1.801030 
# 
# From -- ./inp_files/186257.got.cif
#   From: 2010.05.17/outbox.cif.g08.bks.cpg/sg15_94_cif.got.tgz:186257.got - 2010.06.03 18:47:42.
