data_PCOD9274895
_publ_section_title
;
Structure prediction by ZEFSAII (Michael W. Deem and Ramdas Pophale) SiO2 
 PCOD9274895
Probable space group: C 2/C
;
_chemical_formula_sum "Si O2"
_cell_formula_units_Z 40
_cell_length_a 23.500226
_cell_length_b 7.084927
_cell_length_c 10.856322
_cell_angle_alpha 90.000000
_cell_angle_beta 114.153251
_cell_angle_gamma 90.000000
_cell_volume 1649.306030
_symmetry_space_group_name_H-M "C 2/C"
_symmetry_group_IT_number 15
_symmetry_cell_setting 'monoclinic'
loop_
_space_group_symop_operation_xyz
x,y,z
-x,y,1/2-z
-x,-y,-z
x,-y,1/2+z
1/2+x,1/2+y,z
1/2-x,1/2+y,1/2-z
1/2-x,1/2-y,-z
1/2+x,1/2-y,1/2+z
loop_
_atom_site_type_symbol
_atom_site_label
_atom_site_fract_x
_atom_site_fract_y
_atom_site_fract_z
Si Si1 0.500000 0.176939 0.250000
Si Si2 0.331810 0.703037 0.333538
Si Si3 0.187455 0.536252 0.893488
Si Si4 0.250000 0.750000 0.500000
Si Si5 0.118183 0.183276 0.729604
Si Si6 0.917273 0.533560 0.512980
O O1 0.439268 0.301649 0.226061
O O2 0.516939 0.037288 0.377503
O O3 0.292426 0.657314 0.419038
O O4 0.360860 0.519602 0.295157
O O5 0.385771 0.850001 0.423281
O O6 0.295927 0.826704 0.199426
O O7 0.175414 0.310698 0.839033
O O8 0.122981 0.588054 0.900877
O O9 0.235729 0.473417 0.038180
O O10 0.092877 0.297782 0.589780
#
# Coordination Sequence:
#
# PCOD9274895 Si02
#       6
#     4   8   8   4   8   8
#     4  10  20  38  66  90 126 168 220 264 320 382
#     4  10  22  40  60  90 130 159 213 266 316 384
#     4   9  21  40  59  90 126 160 209 265 315 381
#     4  10  22  40  64  92 122 168 214 258 324 380
#     4  10  21  39  62  89 126 168 210 263 320 378
#     4   9  20  40  59  89 127 164 206 264 316 377
#
# _framework density 24.252624999999998
#
# number of rings (size 3 to 8) (size 9 to 14) (size 15 to 20)
#    0.000    2.400    0.000    0.600    2.800    5.600 
#    0.000   14.000    0.000    0.000    0.000    0.000 
#    0.000    0.000    0.000    0.000    0.000    0.000 
#
# Total GULP energy -111426.647876 kJ/mol
# GULP energy per Si atom -5571.332394 kJ/mol
# Density = 2.419743 g / cm^3
# Si number density = 24.252625 Si / 1000 Ang^3
#
#
#
# Elastic Constant Matrix: (Units=GPa)
#
#
# Indices 1 2 3 4 5 6 
#
# 1 80.1571 36.7500 14.5292 0.0000 -0.9275 0.0000
# 2 36.7500 137.3182 60.4182 0.0000 -3.5107 0.0000
# 3 14.5292 60.4182 77.3079 0.0000 -1.7028 0.0000
# 4 0.0000 0.0000 0.0000 25.2628 0.0000 1.8040
# 5 -0.9275 -3.5107 -1.7028 0.0000 41.0497 0.0000
# 6 0.0000 0.0000 0.0000 1.8040 0.0000 26.2600
#
#
#
# Elastic Compliance Matrix: (Units=1/GPa)
#
#
# Indices 1 2 3 4 5 6 
#
# 1 0.014231 -0.004011 0.000460 0.000000 -0.000002 0.000000
# 2 -0.004011 0.012244 -0.008802 0.000000 0.000591 0.000000
# 3 0.000460 -0.008802 0.019729 0.000000 0.000076 0.000000
# 4 0.000000 0.000000 0.000000 0.039779 0.000000 -0.002733
# 5 -0.000002 0.000591 0.000076 0.000000 0.024414 0.000000
# 6 0.000000 0.000000 0.000000 -0.002733 0.000000 0.038269
#
#
# Mechanical properties :
#
#
# Convention : Reuss Voigt Hill
#
# Bulk Modulus (GPa) = 46.51501 57.57533 52.04517
# Shear Modulus (GPa) = 27.69501 30.72020 29.20760
#
# Velocity S-wave (km/s) = 3.38292 3.56290 3.47408
# Velocity P-wave (km/s) = 5.87196 6.38099 6.13176
#
# Compressibility (1/GPa) = 0.02149844
#
# Stress axis : x y z
#
# Youngs Moduli (GPa) = 70.26874 81.67486 50.68588
#
# Poissons Ratio (x) = 0.32761 -0.02332
# Poissons Ratio (y) = 0.28186 0.44613
# Poissons Ratio (z) = -0.03234 0.71889
#
# Static dielectric constant tensor:
#      x y z
#    x 2.092680 0.000000 0.143910 
#    y 0.000000 1.978950 0.000000 
#    z 0.143910 0.000000 2.117010 
# 
# From -- ./inp_files/120763.got.cif
#   From: 2010.05.17/outbox.cif.g08.bks.cpg/sg15_61_cif.got.tgz:120763.got - 2010.06.03 18:47:42.
