data_PCOD9274663
_publ_section_title
;
Structure prediction by ZEFSAII (Michael W. Deem and Ramdas Pophale) SiO2 
 PCOD9274663
Probable space group: C 2/C
;
_chemical_formula_sum "Si O2"
_cell_formula_units_Z 28
_cell_length_a 5.242231
_cell_length_b 30.744216
_cell_length_c 8.345895
_cell_angle_alpha 90.000000
_cell_angle_beta 60.205389
_cell_angle_gamma 90.000000
_cell_volume 1167.288592
_symmetry_space_group_name_H-M "C 2/C"
_symmetry_group_IT_number 15
_symmetry_cell_setting 'monoclinic'
loop_
_space_group_symop_operation_xyz
x,y,z
-x,y,1/2-z
-x,-y,-z
x,-y,1/2+z
1/2+x,1/2+y,z
1/2-x,1/2+y,1/2-z
1/2-x,1/2-y,-z
1/2+x,1/2-y,1/2+z
loop_
_atom_site_type_symbol
_atom_site_label
_atom_site_fract_x
_atom_site_fract_y
_atom_site_fract_z
Si Si1 0.500000 0.715070 0.750000
Si Si2 0.280223 0.560308 0.545232
Si Si3 0.801419 0.840601 0.053987
Si Si4 0.000000 0.003171 0.750000
Si Si5 0.500000 0.726102 0.250000
O O1 0.451618 0.681436 0.910715
O O2 0.222913 0.744512 0.785114
O O3 0.364132 0.610015 0.487251
O O4 0.497896 0.535441 0.598642
O O5 0.259097 0.532318 0.388653
O O6 0.000000 0.559797 0.750000
O O7 0.500000 0.841450 0.250000
O O8 0.793267 0.806347 0.913853
#
# Coordination Sequence:
#
# PCOD9274663 Si02
#       5
#     4   8   8   4   4
#     4  12  25  46  68  97 134 177 222 272 327 390
#     4  10  21  39  63  92 126 164 210 260 322 384
#     4  11  25  42  66  96 134 172 223 273 327 387
#     4  10  20  38  64  92 128 164 206 260 320 392
#     4  12  27  44  68  97 134 177 222 270 329 388
#
# _framework density 23.987214000000002
#
# number of rings (size 3 to 8) (size 9 to 14) (size 15 to 20)
#    0.000    1.143    1.429    4.286    4.000    0.000 
#    0.000    0.000    6.286    0.000    0.000    0.000 
#    0.000    0.000    0.000    0.000    0.000    0.000 
#
# Total GULP energy -78019.053100 kJ/mol
# GULP energy per Si atom -5572.789507 kJ/mol
# Density = 2.393262 g / cm^3
# Si number density = 23.987214 Si / 1000 Ang^3
#
#
#
# Elastic Constant Matrix: (Units=GPa)
#
#
# Indices 1 2 3 4 5 6 
#
# 1 83.2956 60.7212 14.1504 0.0000 -8.6135 0.0000
# 2 60.7212 210.7328 38.6414 0.0000 -11.5650 0.0000
# 3 14.1504 38.6414 78.7782 0.0000 -12.1476 0.0000
# 4 0.0000 0.0000 0.0000 79.4511 0.0000 7.5894
# 5 -8.6135 -11.5650 -12.1476 0.0000 20.1154 0.0000
# 6 0.0000 0.0000 0.0000 7.5894 0.0000 8.6342
#
#
#
# Elastic Compliance Matrix: (Units=1/GPa)
#
#
# Indices 1 2 3 4 5 6 
#
# 1 0.015536 -0.004235 -0.000070 0.000000 0.004176 0.000000
# 2 -0.004235 0.006416 -0.002313 0.000000 0.000479 0.000000
# 3 -0.000070 -0.002313 0.015031 0.000000 0.007718 0.000000
# 4 0.000000 0.000000 0.000000 0.013740 0.000000 -0.012077
# 5 0.004176 0.000479 0.007718 0.000000 0.056437 0.000000
# 6 0.000000 0.000000 0.000000 -0.012077 0.000000 0.126435
#
#
# Mechanical properties :
#
#
# Convention : Reuss Voigt Hill
#
# Bulk Modulus (GPa) = 42.10682 66.64805 54.37744
# Shear Modulus (GPa) = 19.62749 38.92637 29.27693
#
# Velocity S-wave (km/s) = 2.86361 4.03277 3.49739
# Velocity P-wave (km/s) = 5.34094 7.03771 6.24720
#
# Compressibility (1/GPa) = 0.02374912
#
# Stress axis : x y z
#
# Youngs Moduli (GPa) = 64.36619 155.86360 66.53029
#
# Poissons Ratio (x) = 0.66003 0.00463
# Poissons Ratio (y) = 0.27257 0.15385
# Poissons Ratio (z) = 0.00448 0.36044
#
# Static dielectric constant tensor:
#      x y z
#    x 2.007340 0.000000 0.032580 
#    y 0.000000 1.890550 0.000000 
#    z 0.032580 0.000000 2.070190 
# 
# From -- ./inp_files/19712.got.cif
#   From: 2010.05.17/outbox.cif.g08.bks.cpg/sg15_10_cif.got.tgz:19712.got - 2010.06.03 18:47:42.
