data_PCOD9274350
_publ_section_title
;
Structure prediction by ZEFSAII (Michael W. Deem and Ramdas Pophale) SiO2 
 PCOD9274350
Probable space group: C 2/C
;
_chemical_formula_sum "Si O2"
_cell_formula_units_Z 48
_cell_length_a 18.829476
_cell_length_b 7.964874
_cell_length_c 23.712911
_cell_angle_alpha 90.000000
_cell_angle_beta 35.768117
_cell_angle_gamma 90.000000
_cell_volume 2078.696956
_symmetry_space_group_name_H-M "C 2/C"
_symmetry_group_IT_number 15
_symmetry_cell_setting 'monoclinic'
loop_
_space_group_symop_operation_xyz
x,y,z
-x,y,1/2-z
-x,-y,-z
x,-y,1/2+z
1/2+x,1/2+y,z
1/2-x,1/2+y,1/2-z
1/2-x,1/2-y,-z
1/2+x,1/2-y,1/2+z
loop_
_atom_site_type_symbol
_atom_site_label
_atom_site_fract_x
_atom_site_fract_y
_atom_site_fract_z
Si Si1 0.065293 0.508089 0.148858
Si Si2 0.758429 0.706603 0.763071
Si Si3 0.320544 0.608527 0.021272
Si Si4 0.821142 0.618992 0.279506
Si Si5 0.997493 0.695603 0.017646
Si Si6 0.490302 0.308600 0.892842
O O1 0.194010 0.605734 0.066905
O O2 0.065159 0.352100 0.105123
O O3 0.000000 0.444028 0.250000
O O4 0.961659 0.642942 0.200235
O O5 0.807482 0.521311 0.741216
O O6 0.740436 0.722320 0.707746
O O7 0.630467 0.744223 0.873739
O O8 0.868868 0.818893 0.715697
O O9 0.253198 0.541553 0.121429
O O10 0.401830 0.753600 0.999255
O O11 0.409874 0.473205 0.936380
O O12 0.000000 0.500000 0.000000
O O13 0.001266 0.785589 0.953737
#
# Coordination Sequence:
#
# PCOD9274350 Si02
#       6
#     8   8   8   8   8   8
#     4   9  21  38  65  97 131 173 214 270 336 408
#     4  11  21  36  60  93 127 161 215 276 326 380
#     4  11  21  41  63  91 129 172 217 261 335 398
#     4  10  20  38  62  94 126 164 214 267 330 396
#     4  12  24  38  61  97 130 170 222 276 327 392
#     4  11  21  40  66  96 126 167 223 275 327 406
#
# _framework density 23.091388999999999
#
# number of rings (size 3 to 8) (size 9 to 14) (size 15 to 20)
#    0.000    1.333    3.333    4.000    0.000    0.000 
#    0.000    3.333    0.000    0.000    0.000    0.000 
#    0.000    0.000    0.000    0.000    0.000    0.000 
#
# Total GULP energy -133618.840722 kJ/mol
# GULP energy per Si atom -5567.451697 kJ/mol
# Density = 2.303883 g / cm^3
# Si number density = 23.091389 Si / 1000 Ang^3
#
#
#
# Elastic Constant Matrix: (Units=GPa)
#
#
# Indices 1 2 3 4 5 6 
#
# 1 94.2495 20.7959 51.7837 -0.0001 -38.5217 0.0004
# 2 20.7959 48.6494 25.7445 -0.0001 -25.2238 0.0010
# 3 51.7837 25.7445 104.2750 -0.0001 -32.8902 0.0005
# 4 -0.0001 -0.0001 -0.0001 25.1455 0.0000 -0.1919
# 5 -38.5217 -25.2238 -32.8902 0.0000 60.9716 -0.0001
# 6 0.0004 0.0010 0.0005 -0.1919 -0.0001 36.9832
#
#
#
# Elastic Compliance Matrix: (Units=1/GPa)
#
#
# Indices 1 2 3 4 5 6 
#
# 1 0.017008 -0.000238 -0.006060 0.000000 0.007378 0.000000
# 2 -0.000238 0.027392 -0.003757 0.000000 0.009155 -0.000001
# 3 -0.006060 -0.003757 0.014255 0.000000 0.002306 0.000000
# 4 0.000000 0.000000 0.000000 0.039770 0.000000 0.000206
# 5 0.007378 0.009155 0.002306 0.000000 0.026094 0.000000
# 6 0.000000 -0.000001 0.000000 0.000206 0.000000 0.027040
#
#
# Mechanical properties :
#
#
# Convention : Reuss Voigt Hill
#
# Bulk Modulus (GPa) = 25.94454 49.31358 37.62906
# Shear Modulus (GPa) = 27.09777 34.54339 30.82058
#
# Velocity S-wave (km/s) = 3.42936 3.87194 3.65735
# Velocity P-wave (km/s) = 5.19044 6.43361 5.84517
#
# Compressibility (1/GPa) = 0.03854375
#
# Stress axis : x y z
#
# Youngs Moduli (GPa) = 58.79622 36.50739 70.15254
#
# Poissons Ratio (x) = 0.00868 0.42515
# Poissons Ratio (y) = 0.01399 0.26356
# Poissons Ratio (z) = 0.35633 0.13716
#
# Static dielectric constant tensor:
#      x y z
#    x 2.066430 0.000000 0.019070 
#    y 0.000000 1.973320 0.000000 
#    z 0.019070 0.000000 1.906680 
# 
# From -- ./inp_files/300444.got.cif
#   From: 2010.05.17/outbox.cif.g08.bks.cpg/sg15_151_cif.got.tgz:300444.got - 2010.06.03 18:47:42.
