data_PCOD9274371
_publ_section_title
;
Structure prediction by ZEFSAII (Michael W. Deem and Ramdas Pophale) SiO2 
 PCOD9274371
Probable space group: C 2/C
;
_chemical_formula_sum "Si O2"
_cell_formula_units_Z 56
_cell_length_a 19.309216
_cell_length_b 12.201928
_cell_length_c 9.918126
_cell_angle_alpha 90.000000
_cell_angle_beta 92.820992
_cell_angle_gamma 90.000000
_cell_volume 2333.974523
_symmetry_space_group_name_H-M "C 2/C"
_symmetry_group_IT_number 15
_symmetry_cell_setting 'monoclinic'
loop_
_space_group_symop_operation_xyz
x,y,z
-x,y,1/2-z
-x,-y,-z
x,-y,1/2+z
1/2+x,1/2+y,z
1/2-x,1/2+y,1/2-z
1/2-x,1/2-y,-z
1/2+x,1/2-y,1/2+z
loop_
_atom_site_type_symbol
_atom_site_label
_atom_site_fract_x
_atom_site_fract_y
_atom_site_fract_z
Si Si1 0.922222 0.957889 0.016108
Si Si2 0.536871 0.818963 0.388720
Si Si3 0.000000 0.130671 0.750000
Si Si4 0.298029 0.817330 0.697187
Si Si5 0.000000 0.500000 0.500000
Si Si6 0.613286 0.023349 0.731269
Si Si7 0.380716 0.682645 0.922360
Si Si8 0.150268 0.248092 0.095017
O O1 0.905888 0.848910 0.931030
O O2 0.872180 0.056782 0.968021
O O3 0.934272 0.932290 0.175034
O O4 0.000000 0.000000 0.000000
O O5 0.500000 0.778254 0.250000
O O6 0.480161 0.864595 0.485017
O O7 0.564040 0.945854 0.356715
O O8 0.601406 0.750308 0.441372
O O9 0.956161 0.193404 0.856801
O O10 0.325011 0.738089 0.820139
O O11 0.216153 0.810205 0.671688
O O12 0.328799 0.778599 0.556548
O O13 0.327092 0.938730 0.727532
O O14 0.063098 0.470490 0.617802
O O15 0.639261 0.140799 0.679849
#
# Coordination Sequence:
#
# PCOD9274371 Si02
#       8
#     8   8   4   8   4   8   8   8
#     4  10  24  40  67 102 136 179 227 288 353 422
#     4  10  23  36  62 102 135 174 219 294 340 409
#     4  10  22  40  68  98 140 176 218 300 348 424
#     4  11  25  46  72  99 140 193 237 287 355 427
#     4  10  20  38  62  96 138 174 212 282 350 400
#     4  11  24  43  71 103 140 177 236 292 350 416
#     4  11  23  41  67 100 135 182 233 280 360 418
#     4  11  26  48  71 102 143 189 235 292 352 427
#
# _framework density 23.993404999999999
#
# number of rings (size 3 to 8) (size 9 to 14) (size 15 to 20)
#    0.000    1.429    2.857    0.857   11.000    2.286 
#    0.000    0.714    0.000    0.000    0.000    0.000 
#    0.000    0.000    0.000    0.000    0.000    0.000 
#
# Total GULP energy -155879.285331 kJ/mol
# GULP energy per Si atom -5567.117333 kJ/mol
# Density = 2.393879 g / cm^3
# Si number density = 23.993405 Si / 1000 Ang^3
#
#
#
# Elastic Constant Matrix: (Units=GPa)
#
#
# Indices 1 2 3 4 5 6 
#
# 1 70.0257 42.3529 32.6114 0.0000 31.0766 0.0000
# 2 42.3529 170.7739 60.6816 0.0000 35.3338 0.0000
# 3 32.6114 60.6816 136.8650 0.0000 39.0253 0.0000
# 4 0.0000 0.0000 0.0000 38.1046 0.0000 12.6604
# 5 31.0766 35.3338 39.0253 0.0000 35.6681 0.0000
# 6 0.0000 0.0000 0.0000 12.6604 0.0000 33.4355
#
#
#
# Elastic Compliance Matrix: (Units=1/GPa)
#
#
# Indices 1 2 3 4 5 6 
#
# 1 0.023897 -0.002176 0.000862 0.000000 -0.019608 0.000000
# 2 -0.002176 0.007854 -0.001869 0.000000 -0.003840 0.000000
# 3 0.000862 -0.001869 0.011069 0.000000 -0.011011 0.000000
# 4 0.000000 0.000000 0.000000 0.030020 0.000000 -0.011367
# 5 -0.019608 -0.003840 -0.011011 0.000000 0.060971 0.000000
# 6 0.000000 0.000000 0.000000 -0.011367 0.000000 0.034213
#
#
# Mechanical properties :
#
#
# Convention : Reuss Voigt Hill
#
# Bulk Modulus (GPa) = 27.43170 72.10626 49.76898
# Shear Modulus (GPa) = 26.80371 37.57622 32.18996
#
# Velocity S-wave (km/s) = 3.34597 3.96170 3.66678
# Velocity P-wave (km/s) = 5.13665 7.14454 6.22213
#
# Compressibility (1/GPa) = 0.03645418
#
# Stress axis : x y z
#
# Youngs Moduli (GPa) = 41.84622 127.32642 90.34025
#
# Poissons Ratio (x) = 0.27703 -0.07784
# Poissons Ratio (y) = 0.09105 0.16883
# Poissons Ratio (z) = -0.03606 0.23795
#
# Static dielectric constant tensor:
#      x y z
#    x -0.196680 0.000000 1.684330 
#    y 0.000000 3.539480 0.000000 
#    z 1.684330 0.000000 1.652330 
# 
# From -- ./inp_files/111708.got.cif
#   From: 2010.05.17/outbox.cif.g08.bks.cpg/sg15_56_cif.got.tgz:111708.got - 2010.06.03 18:47:42.
