data_PCOD9274097
_publ_section_title
;
Structure prediction by ZEFSAII (Michael W. Deem and Ramdas Pophale) SiO2 
 PCOD9274097
Probable space group: C 2/C
;
_chemical_formula_sum "Si O2"
_cell_formula_units_Z 48
_cell_length_a 12.072779
_cell_length_b 7.165336
_cell_length_c 28.136841
_cell_angle_alpha 90.000000
_cell_angle_beta 100.963931
_cell_angle_gamma 90.000000
_cell_volume 2389.564611
_symmetry_space_group_name_H-M "C 2/C"
_symmetry_group_IT_number 15
_symmetry_cell_setting 'monoclinic'
loop_
_space_group_symop_operation_xyz
x,y,z
-x,y,1/2-z
-x,-y,-z
x,-y,1/2+z
1/2+x,1/2+y,z
1/2-x,1/2+y,1/2-z
1/2-x,1/2-y,-z
1/2+x,1/2-y,1/2+z
loop_
_atom_site_type_symbol
_atom_site_label
_atom_site_fract_x
_atom_site_fract_y
_atom_site_fract_z
Si Si1 0.037222 0.404052 0.618184
Si Si2 0.302579 0.949633 0.113796
Si Si3 0.308970 0.112738 0.454187
Si Si4 0.927213 0.962111 0.869311
Si Si5 0.492217 0.178189 0.693537
Si Si6 0.578420 0.388196 0.969830
O O1 0.904485 0.438414 0.597837
O O2 0.057892 0.520377 0.668086
O O3 0.116428 0.472529 0.581653
O O4 0.056333 0.184744 0.627397
O O5 0.248200 0.796110 0.075058
O O6 0.364954 0.846883 0.163036
O O7 0.200935 0.073141 0.125281
O O8 0.389963 0.196367 0.501104
O O9 0.199387 0.014629 0.467673
O O10 0.959147 0.872694 0.821859
O O11 0.010765 0.873333 0.915269
O O12 0.500000 0.155933 0.750000
O O13 0.500000 0.500000 0.000000
#
# Coordination Sequence:
#
# PCOD9274097 Si02
#       6
#     8   8   8   8   8   8
#     4   9  21  40  64  89 123 163 205 254 310 366
#     4   9  20  41  58  89 124 152 211 253 296 380
#     4  10  20  38  61  89 133 165 197 263 301 359
#     4  11  21  42  64  90 127 163 202 257 313 365
#     4  10  23  45  61  89 125 157 210 264 311 370
#     4  11  19  34  65  91 126 173 203 243 316 368
#
# _framework density 20.087342
#
# number of rings (size 3 to 8) (size 9 to 14) (size 15 to 20)
#    1.000    1.000    5.000    0.000    0.000    2.000 
#    6.000   10.833    0.000    0.000    0.000    0.000 
#    0.000    0.000    0.000    0.000    0.000    0.000 
#
# Total GULP energy -133770.802278 kJ/mol
# GULP energy per Si atom -5573.783428 kJ/mol
# Density = 2.004162 g / cm^3
# Si number density = 20.087342 Si / 1000 Ang^3
#
#
#
# Elastic Constant Matrix: (Units=GPa)
#
#
# Indices 1 2 3 4 5 6 
#
# 1 138.7095 26.4786 31.2760 0.0000 -28.2682 0.0000
# 2 26.4786 55.7416 17.2959 0.0000 -4.4074 0.0000
# 3 31.2760 17.2959 116.2795 0.0000 -9.0545 0.0000
# 4 0.0000 0.0000 0.0000 28.8477 0.0000 -5.3707
# 5 -28.2682 -4.4074 -9.0545 0.0000 20.9458 0.0000
# 6 0.0000 0.0000 0.0000 -5.3707 0.0000 29.4716
#
#
#
# Elastic Compliance Matrix: (Units=1/GPa)
#
#
# Indices 1 2 3 4 5 6 
#
# 1 0.010961 -0.003727 -0.001348 0.000000 0.013426 0.000000
# 2 -0.003727 0.020240 -0.002140 0.000000 -0.001696 0.000000
# 3 -0.001348 -0.002140 0.009421 0.000000 0.001803 0.000000
# 4 0.000000 0.000000 0.000000 0.035882 0.000000 0.006539
# 5 0.013426 -0.001696 0.001803 0.000000 0.066284 0.000000
# 6 0.000000 0.000000 0.000000 0.006539 0.000000 0.035123
#
#
# Mechanical properties :
#
#
# Convention : Reuss Voigt Hill
#
# Bulk Modulus (GPa) = 38.18016 51.20350 44.69183
# Shear Modulus (GPa) = 24.86671 31.56503 28.21587
#
# Velocity S-wave (km/s) = 3.52224 3.96838 3.75194
# Velocity P-wave (km/s) = 5.96573 6.82225 6.40831
#
# Compressibility (1/GPa) = 0.02619161
#
# Stress axis : x y z
#
# Youngs Moduli (GPa) = 91.23428 49.40655 106.14173
#
# Poissons Ratio (x) = 0.18412 0.14312
# Poissons Ratio (y) = 0.34000 0.22717
# Poissons Ratio (z) = 0.12302 0.10574
#
# Static dielectric constant tensor:
#      x y z
#    x 1.769660 0.000000 -0.023570 
#    y 0.000000 1.749860 0.000000 
#    z -0.023570 0.000000 1.694240 
# 
# From -- ./inp_files/290843.got.cif
#   From: 2010.05.17/outbox.cif.g08.bks.cpg/sg15_146_cif.got.tgz:290843.got - 2010.06.03 18:47:42.
