data_PCOD9274646
_publ_section_title
;
Structure prediction by ZEFSAII (Michael W. Deem and Ramdas Pophale) SiO2 
 PCOD9274646
Probable space group: C 2/C
;
_chemical_formula_sum "Si O2"
_cell_formula_units_Z 56
_cell_length_a 21.288873
_cell_length_b 15.391286
_cell_length_c 9.794844
_cell_angle_alpha 90.000000
_cell_angle_beta 61.318300
_cell_angle_gamma 90.000000
_cell_volume 2815.613150
_symmetry_space_group_name_H-M "C 2/C"
_symmetry_group_IT_number 15
_symmetry_cell_setting 'monoclinic'
loop_
_space_group_symop_operation_xyz
x,y,z
-x,y,1/2-z
-x,-y,-z
x,-y,1/2+z
1/2+x,1/2+y,z
1/2-x,1/2+y,1/2-z
1/2-x,1/2-y,-z
1/2+x,1/2-y,1/2+z
loop_
_atom_site_type_symbol
_atom_site_label
_atom_site_fract_x
_atom_site_fract_y
_atom_site_fract_z
Si Si1 0.062660 0.445574 0.505660
Si Si2 0.267813 0.342211 0.916097
Si Si3 0.500000 0.491943 0.250000
Si Si4 0.845858 0.522467 0.848186
Si Si5 0.500000 0.203425 0.250000
Si Si6 0.872316 0.922516 0.011655
Si Si7 0.889082 0.153817 0.771647
Si Si8 0.779553 0.096347 0.107567
O O1 0.094783 0.494329 0.604304
O O2 0.122193 0.438923 0.325047
O O3 0.000000 0.500000 0.500000
O O4 0.031244 0.356396 0.597038
O O5 0.274058 0.345022 0.747022
O O6 0.250000 0.250000 0.000000
O O7 0.205802 0.408834 0.025502
O O8 0.339565 0.381314 0.909142
O O9 0.454037 0.549988 0.401109
O O10 0.558925 0.429485 0.257207
O O11 0.797276 0.439139 0.860102
O O12 0.563330 0.263488 0.241800
O O13 0.865109 0.854405 0.141139
O O14 0.825924 0.008976 0.093923
O O15 0.822362 0.143210 0.942308
#
# Coordination Sequence:
#
# PCOD9274646 Si02
#       8
#     8   8   4   8   4   8   8   8
#     4  12  24  45  68  90 119 168 217 260 309 382
#     4  11  25  40  59  93 128 158 204 263 317 363
#     4   9  18  36  64  91 128 162 204 245 304 376
#     4  11  23  43  70  90 123 166 216 260 311 383
#     4  11  26  42  62  95 134 164 214 265 318 372
#     4  10  20  38  64  91 123 168 208 244 304 382
#     4  10  22  38  64  97 128 161 204 262 317 367
#     4  10  21  41  66  93 126 164 208 253 316 382
#
# _framework density 19.889095000000001
#
# number of rings (size 3 to 8) (size 9 to 14) (size 15 to 20)
#    0.000    1.429    2.857    3.000    4.000    4.571 
#    0.000    1.429    0.000    0.000    0.000    0.000 
#    0.000    0.000    0.000    0.000    0.000    0.000 
#
# Total GULP energy -156510.235993 kJ/mol
# GULP energy per Si atom -5589.651285 kJ/mol
# Density = 1.984383 g / cm^3
# Si number density = 19.889095 Si / 1000 Ang^3
#
#
#
# Elastic Constant Matrix: (Units=GPa)
#
#
# Indices 1 2 3 4 5 6 
#
# 1 84.3385 32.5315 50.1316 0.0000 7.6562 0.0000
# 2 32.5315 79.3554 39.7849 0.0000 6.0798 0.0000
# 3 50.1316 39.7849 146.9072 0.0000 1.4852 0.0000
# 4 0.0000 0.0000 0.0000 27.3528 0.0000 0.5724
# 5 7.6562 6.0798 1.4852 0.0000 32.6395 0.0000
# 6 0.0000 0.0000 0.0000 0.5724 0.0000 -22.2533
#
#
#
# Elastic Compliance Matrix: (Units=1/GPa)
#
#
# Indices 1 2 3 4 5 6 
#
# 1 0.016387 -0.004294 -0.004400 0.000000 -0.002844 0.000000
# 2 -0.004294 0.015920 -0.002828 0.000000 -0.001830 0.000000
# 3 -0.004400 -0.002828 0.009063 0.000000 0.001147 0.000000
# 4 0.000000 0.000000 0.000000 0.036540 0.000000 0.000940
# 5 -0.002844 -0.001830 0.001147 0.000000 0.031593 0.000000
# 6 0.000000 0.000000 0.000000 0.000940 0.000000 -0.044913
#
#
# Mechanical properties :
#
#
# Convention : Reuss Voigt Hill
#
# Bulk Modulus (GPa) = 54.56773 61.72191 58.14482
# Shear Modulus (GPa) = 53.33812 20.09133 36.71472
#
# Velocity S-wave (km/s) = 5.18421 3.18176 4.30114
# Velocity P-wave (km/s) = 7.95803 6.67822 7.34605
#
# Compressibility (1/GPa) = 0.01832585
#
# Stress axis : x y z
#
# Youngs Moduli (GPa) = 61.02384 62.81597 110.34102
#
# Poissons Ratio (x) = 0.26972 0.48555
# Poissons Ratio (y) = 0.26202 0.31199
# Poissons Ratio (z) = 0.26853 0.17761
#
# Static dielectric constant tensor:
#      x y z
#    x 1.713990 0.000000 -0.005410 
#    y 0.000000 1.681550 0.000000 
#    z -0.005410 0.000000 1.696340 
# 
# From -- ./inp_files/61847.got.cif
#   From: 2010.05.17/outbox.cif.g08.bks.cpg/sg15_31_cif.got.tgz:61847.got - 2010.06.03 18:47:42.
