data_PCOD9274791
_publ_section_title
;
Structure prediction by ZEFSAII (Michael W. Deem and Ramdas Pophale) SiO2 
 PCOD9274791
Probable space group: C 2/C
;
_chemical_formula_sum "Si O2"
_cell_formula_units_Z 36
_cell_length_a 18.768511
_cell_length_b 13.075750
_cell_length_c 13.159450
_cell_angle_alpha 90.000000
_cell_angle_beta 23.323544
_cell_angle_gamma 90.000000
_cell_volume 1278.629627
_symmetry_space_group_name_H-M "C 2/C"
_symmetry_group_IT_number 15
_symmetry_cell_setting 'monoclinic'
loop_
_space_group_symop_operation_xyz
x,y,z
-x,y,1/2-z
-x,-y,-z
x,-y,1/2+z
1/2+x,1/2+y,z
1/2-x,1/2+y,1/2-z
1/2-x,1/2-y,-z
1/2+x,1/2-y,1/2+z
loop_
_atom_site_type_symbol
_atom_site_label
_atom_site_fract_x
_atom_site_fract_y
_atom_site_fract_z
Si Si1 0.180880 0.385644 0.942433
Si Si2 0.317444 0.937343 0.802798
Si Si3 0.318189 0.659636 0.549066
Si Si4 0.000000 0.800922 0.250000
Si Si5 0.296954 0.109365 0.597430
O O1 0.000000 0.378884 0.250000
O O2 0.255069 0.497456 0.875498
O O3 0.183013 0.397553 0.814716
O O4 0.265923 0.273049 0.850685
O O5 0.506724 0.913045 0.606902
O O6 0.292064 0.059455 0.837766
O O7 0.152893 0.884865 0.078615
O O8 0.500000 0.657489 0.250000
O O9 0.348916 0.638819 0.627606
O O10 0.149403 0.717130 0.020441
#
# Coordination Sequence:
#
# PCOD9274791 Si02
#       5
#     8   8   8   4   8
#     4  10  20  38  65  91 125 163 196 258 314 367
#     4  11  23  42  67  91 122 172 210 251 312 372
#     4  10  20  38  65  91 125 163 196 258 314 367
#     4  12  22  44  68  86 132 156 222 260 292 374
#     4  11  23  42  67  91 122 172 210 251 312 372
#
# _framework density 28.155144
#
# number of rings (size 3 to 8) (size 9 to 14) (size 15 to 20)
#    0.000    1.333    4.444    3.333    0.000    0.000 
#    0.000   17.778    0.000    5.333    0.000    0.000 
#    0.000    0.000    0.000    0.000    0.000    0.000 
#
# Total GULP energy -100271.326333 kJ/mol
# GULP energy per Si atom -5570.629241 kJ/mol
# Density = 2.809106 g / cm^3
# Si number density = 28.155144 Si / 1000 Ang^3
#
#
#
# Elastic Constant Matrix: (Units=GPa)
#
#
# Indices 1 2 3 4 5 6 
#
# 1 61.2743 73.9629 0.4067 -0.0005 0.0742 0.0004
# 2 73.9629 337.5158 65.0062 -0.0002 -0.2809 0.0003
# 3 0.4067 65.0062 92.1448 -0.0004 -0.9822 0.0005
# 4 -0.0005 -0.0002 -0.0004 64.1509 0.0004 2.1711
# 5 0.0742 -0.2809 -0.9822 0.0004 35.3709 -0.0004
# 6 0.0004 0.0003 0.0005 2.1711 -0.0004 18.9480
#
#
#
# Elastic Compliance Matrix: (Units=1/GPa)
#
#
# Indices 1 2 3 4 5 6 
#
# 1 0.023441 -0.005921 0.004074 0.000000 0.000017 -0.000001
# 2 -0.005921 0.004925 -0.003449 0.000000 -0.000044 0.000000
# 3 0.004074 -0.003449 0.013271 0.000000 0.000333 0.000000
# 4 0.000000 0.000000 0.000000 0.015649 0.000000 -0.001793
# 5 0.000017 -0.000044 0.000333 0.000000 0.028281 0.000001
# 6 -0.000001 0.000000 0.000000 -0.001793 0.000001 0.052982
#
#
# Mechanical properties :
#
#
# Convention : Reuss Voigt Hill
#
# Bulk Modulus (GPa) = 32.21179 85.52071 58.86625
# Shear Modulus (GPa) = 31.35050 47.13124 39.24087
#
# Velocity S-wave (km/s) = 3.34052 4.09587 3.73733
# Velocity P-wave (km/s) = 5.13268 7.26698 6.29100
#
# Compressibility (1/GPa) = 0.03104454
#
# Stress axis : x y z
#
# Youngs Moduli (GPa) = 42.66097 203.06225 75.35279
#
# Poissons Ratio (x) = 1.20242 -0.30700
# Poissons Ratio (y) = 0.25261 0.25986
# Poissons Ratio (z) = -0.17381 0.70027
#
# Static dielectric constant tensor:
#      x y z
#    x 2.443840 0.000000 0.198150 
#    y 0.000000 2.115170 0.000000 
#    z 0.198150 0.000000 2.261900 
# 
# From -- ./inp_files/195514.got.cif
#   From: 2010.05.17/outbox.cif.g08.bks.cpg/sg15_98_cif.got.tgz:195514.got - 2010.06.03 18:47:42.
