data_PCOD9274806
_publ_section_title
;
Structure prediction by ZEFSAII (Michael W. Deem and Ramdas Pophale) SiO2 
 PCOD9274806
Probable space group: C 2/C
;
_chemical_formula_sum "Si O2"
_cell_formula_units_Z 48
_cell_length_a 15.279091
_cell_length_b 19.806618
_cell_length_c 26.094351
_cell_angle_alpha 90.000000
_cell_angle_beta 161.048655
_cell_angle_gamma 90.000000
_cell_volume 2564.624060
_symmetry_space_group_name_H-M "C 2/C"
_symmetry_group_IT_number 15
_symmetry_cell_setting 'monoclinic'
loop_
_space_group_symop_operation_xyz
x,y,z
-x,y,1/2-z
-x,-y,-z
x,-y,1/2+z
1/2+x,1/2+y,z
1/2-x,1/2+y,1/2-z
1/2-x,1/2-y,-z
1/2+x,1/2-y,1/2+z
loop_
_atom_site_type_symbol
_atom_site_label
_atom_site_fract_x
_atom_site_fract_y
_atom_site_fract_z
Si Si1 0.134809 0.675215 0.268970
Si Si2 0.154853 0.679125 0.594844
Si Si3 0.426486 0.537131 0.407310
Si Si4 0.702166 0.356731 0.442786
Si Si5 0.645282 0.991338 0.443362
Si Si6 0.185337 0.556510 0.073154
O O1 0.315544 0.742404 0.374435
O O2 0.329122 0.613551 0.362175
O O3 0.000000 0.662671 0.250000
O O4 0.889450 0.677772 0.090845
O O5 0.225217 0.671978 0.573292
O O6 0.378174 0.648561 0.758169
O O7 0.892974 0.631519 0.452161
O O8 0.500000 0.500000 0.500000
O O9 0.659322 0.529798 0.494221
O O10 0.159151 0.499490 0.241658
O O11 0.765200 0.435653 0.484964
O O12 0.639900 0.941915 0.487686
O O13 0.500000 0.538496 0.250000
O O14 0.000000 0.500000 0.000000
#
# Coordination Sequence:
#
# PCOD9274806 Si02
#       6
#     8   8   8   8   8   8
#     4  11  23  39  64  95 128 171 218 271 318 392
#     4  11  22  38  63  96 127 167 210 277 321 388
#     4  11  23  42  64  91 127 167 219 261 319 384
#     4  10  20  38  65  93 126 159 219 261 328 377
#     4  11  22  39  65  94 124 166 209 272 319 384
#     4  12  24  40  65  98 131 167 215 269 335 392
#
# _framework density 18.716194000000002
#
# number of rings (size 3 to 8) (size 9 to 14) (size 15 to 20)
#    0.000    1.000    3.333    6.000    2.333    0.000 
#    0.000    2.500    0.000    0.000    0.000    0.000 
#    0.000    0.000    0.000    0.000    0.000    0.000 
#
# Total GULP energy -133702.893031 kJ/mol
# GULP energy per Si atom -5570.953876 kJ/mol
# Density = 1.867359 g / cm^3
# Si number density = 18.716194 Si / 1000 Ang^3
#
#
#
# Elastic Constant Matrix: (Units=GPa)
#
#
# Indices 1 2 3 4 5 6 
#
# 1 141.9320 55.6739 79.9147 -0.0156 2.4610 -0.0017
# 2 55.6739 76.0774 67.8392 -0.0266 0.0980 -0.0124
# 3 79.9147 67.8392 166.6764 -0.0028 5.4721 0.0107
# 4 -0.0156 -0.0266 -0.0028 27.0683 0.0011 -4.3432
# 5 2.4610 0.0980 5.4721 0.0011 41.0368 -0.0047
# 6 -0.0017 -0.0124 0.0107 -4.3432 -0.0047 30.3086
#
#
#
# Elastic Compliance Matrix: (Units=1/GPa)
#
#
# Indices 1 2 3 4 5 6 
#
# 1 0.010806 -0.005171 -0.003069 0.000001 -0.000226 0.000000
# 2 -0.005171 0.023155 -0.006984 0.000021 0.001186 0.000015
# 3 -0.003069 -0.006984 0.010352 -0.000009 -0.001180 -0.000008
# 4 0.000001 0.000021 -0.000009 0.037813 0.000001 0.005419
# 5 -0.000226 0.001186 -0.001180 0.000001 0.024536 0.000005
# 6 0.000000 0.000015 -0.000008 0.005419 0.000005 0.033770
#
#
# Mechanical properties :
#
#
# Convention : Reuss Voigt Hill
#
# Bulk Modulus (GPa) = 72.12186 87.94903 80.03545
# Shear Modulus (GPa) = 28.48969 31.76662 30.12815
#
# Velocity S-wave (km/s) = 3.90576 4.12428 4.01651
# Velocity P-wave (km/s) = 7.67842 8.35299 8.02280
#
# Compressibility (1/GPa) = 0.01386542
#
# Stress axis : x y z
#
# Youngs Moduli (GPa) = 92.54276 43.18769 96.59634
#
# Poissons Ratio (x) = 0.22332 0.29645
# Poissons Ratio (y) = 0.47853 0.67463
# Poissons Ratio (z) = 0.28401 0.30162
#
# Static dielectric constant tensor:
#      x y z
#    x 1.658470 0.000000 0.008270 
#    y 0.000000 1.668750 -0.000010 
#    z 0.008270 -0.000010 1.672770 
# 
# From -- ./inp_files/296959.got.cif
#   From: 2010.05.17/outbox.cif.g08.bks.cpg/sg15_149_cif.got.tgz:296959.got - 2010.06.03 18:47:42.
