data_PCOD9274882
_publ_section_title
;
Structure prediction by ZEFSAII (Michael W. Deem and Ramdas Pophale) SiO2 
 PCOD9274882
Probable space group: C 2/C
;
_chemical_formula_sum "Si O2"
_cell_formula_units_Z 60
_cell_length_a 18.266640
_cell_length_b 8.366621
_cell_length_c 21.096385
_cell_angle_alpha 90.000000
_cell_angle_beta 64.441819
_cell_angle_gamma 90.000000
_cell_volume 2908.669882
_symmetry_space_group_name_H-M "C 2/C"
_symmetry_group_IT_number 15
_symmetry_cell_setting 'monoclinic'
loop_
_space_group_symop_operation_xyz
x,y,z
-x,y,1/2-z
-x,-y,-z
x,-y,1/2+z
1/2+x,1/2+y,z
1/2-x,1/2+y,1/2-z
1/2-x,1/2-y,-z
1/2+x,1/2-y,1/2+z
loop_
_atom_site_type_symbol
_atom_site_label
_atom_site_fract_x
_atom_site_fract_y
_atom_site_fract_z
Si Si1 0.074095 0.070690 0.049902
Si Si2 0.383227 0.443863 0.592768
Si Si3 0.264590 0.831586 0.129919
Si Si4 0.439568 0.086457 0.941914
Si Si5 0.103800 0.570587 0.396843
Si Si6 0.117778 0.734482 0.099327
Si Si7 0.000000 0.805368 0.250000
Si Si8 0.860348 0.147052 0.713625
O O1 0.089446 0.243551 0.076226
O O2 0.978348 0.072196 0.070510
O O3 0.089289 0.901222 0.078325
O O4 0.124241 0.055710 0.965813
O O5 0.342577 0.278147 0.592312
O O6 0.340301 0.509370 0.671518
O O7 0.204949 0.781545 0.095413
O O8 0.212483 0.805616 0.213163
O O9 0.306269 0.003579 0.122658
O O10 0.534568 0.047954 0.894652
O O11 0.390555 0.926170 0.939429
O O12 0.430732 0.113277 0.020912
O O13 0.110253 0.711432 0.343506
O O14 0.056741 0.706285 0.181333
O O15 0.935636 0.900719 0.231071
#
# Coordination Sequence:
#
# PCOD9274882 Si02
#       8
#     8   8   8   8   8   8   4   8
#     4  11  22  40  70  96 128 171 222 272 311 386
#     4  11  21  40  64  99 125 166 228 266 318 387
#     4  11  25  40  66  94 136 171 207 275 334 375
#     4  11  22  40  70  96 128 171 222 272 311 386
#     4  11  21  40  64  99 125 166 228 266 318 387
#     4  11  24  44  65  96 135 177 208 267 338 376
#     4  10  20  38  66  88 132 172 208 260 322 390
#     4  11  21  40  65  92 133 174 210 272 328 387
#
# _framework density 20.627984000000001
#
# number of rings (size 3 to 8) (size 9 to 14) (size 15 to 20)
#    0.000    1.067    5.333    1.600    3.733    2.133 
#    2.400    2.000    8.800    0.000    0.000    0.000 
#    0.000    0.000    0.000    0.000    0.000    0.000 
#
# Total GULP energy -167203.456596 kJ/mol
# GULP energy per Si atom -5573.448553 kJ/mol
# Density = 2.058103 g / cm^3
# Si number density = 20.627984 Si / 1000 Ang^3
#
#
#
# Elastic Constant Matrix: (Units=GPa)
#
#
# Indices 1 2 3 4 5 6 
#
# 1 90.6566 33.6461 12.3014 0.0000 7.0808 0.0000
# 2 33.6461 110.3386 12.2173 0.0002 13.1699 -0.0001
# 3 12.3014 12.2173 64.0896 0.0001 -1.3550 0.0000
# 4 0.0000 0.0002 0.0001 4.8856 0.0001 -2.5322
# 5 7.0808 13.1699 -1.3550 0.0001 15.9967 0.0000
# 6 0.0000 -0.0001 0.0000 -2.5322 0.0000 19.9822
#
#
#
# Elastic Compliance Matrix: (Units=1/GPa)
#
#
# Indices 1 2 3 4 5 6 
#
# 1 0.012756 -0.003314 -0.001882 0.000000 -0.003077 0.000000
# 2 -0.003314 0.011200 -0.001666 0.000000 -0.007895 0.000000
# 3 -0.001882 -0.001666 0.016358 0.000000 0.003590 0.000000
# 4 0.000000 0.000000 0.000000 0.219074 -0.000001 0.027761
# 5 -0.003077 -0.007895 0.003590 -0.000001 0.070679 0.000000
# 6 0.000000 0.000000 0.000000 0.027761 0.000000 0.053563
#
#
# Mechanical properties :
#
#
# Convention : Reuss Voigt Hill
#
# Bulk Modulus (GPa) = 37.60685 42.37938 39.99312
# Shear Modulus (GPa) = 12.30867 21.96754 17.13810
#
# Velocity S-wave (km/s) = 2.44539 3.26688 2.88552
# Velocity P-wave (km/s) = 5.12287 5.90078 5.52553
#
# Compressibility (1/GPa) = 0.02659090
#
# Stress axis : x y z
#
# Youngs Moduli (GPa) = 78.39230 89.28193 61.13284
#
# Poissons Ratio (x) = 0.29590 0.11504
# Poissons Ratio (y) = 0.25981 0.10184
# Poissons Ratio (z) = 0.14751 0.14874
#
# Static dielectric constant tensor:
#      x y z
#    x 1.751170 0.000000 0.022370 
#    y 0.000000 1.801740 0.000000 
#    z 0.022370 0.000000 1.760970 
# 
# From -- ./inp_files/247417.got.cif
#   From: 2010.05.17/outbox.cif.g08.bks.cpg/sg15_124_cif.got.tgz:247417.got - 2010.06.03 18:47:42.
