data_PCOD9274394
_publ_section_title
;
Structure prediction by ZEFSAII (Michael W. Deem and Ramdas Pophale) SiO2 
 PCOD9274394
Probable space group: C 2/C
;
_chemical_formula_sum "Si O2"
_cell_formula_units_Z 64
_cell_length_a 11.549563
_cell_length_b 10.077819
_cell_length_c 24.983171
_cell_angle_alpha 90.000000
_cell_angle_beta 100.602200
_cell_angle_gamma 90.000000
_cell_volume 2858.258472
_symmetry_space_group_name_H-M "C 2/C"
_symmetry_group_IT_number 15
_symmetry_cell_setting 'monoclinic'
loop_
_space_group_symop_operation_xyz
x,y,z
-x,y,1/2-z
-x,-y,-z
x,-y,1/2+z
1/2+x,1/2+y,z
1/2-x,1/2+y,1/2-z
1/2-x,1/2-y,-z
1/2+x,1/2-y,1/2+z
loop_
_atom_site_type_symbol
_atom_site_label
_atom_site_fract_x
_atom_site_fract_y
_atom_site_fract_z
Si Si1 0.921939 0.978096 0.689614
Si Si2 0.282399 0.214961 0.665434
Si Si3 0.132190 0.561110 0.347976
Si Si4 0.449375 0.595544 0.903877
Si Si5 0.663259 0.630979 0.048633
Si Si6 0.164982 0.434741 0.024794
Si Si7 0.356687 0.724860 0.735678
Si Si8 0.977739 0.379485 0.924440
O O1 0.854574 0.848878 0.663422
O O2 0.000000 0.945283 0.750000
O O3 0.830204 0.090713 0.700753
O O4 0.997124 0.046133 0.648063
O O5 0.177628 0.166733 0.617352
O O6 0.215048 0.224270 0.716143
O O7 0.369921 0.091311 0.668171
O O8 0.231471 0.602402 0.399720
O O9 0.168225 0.644739 0.299789
O O10 0.008186 0.599276 0.364859
O O11 0.437752 0.466225 0.939102
O O12 0.507127 0.724492 0.935746
O O13 0.640648 0.788669 0.047238
O O14 0.711566 0.580762 0.995241
O O15 0.142105 0.552962 0.064717
O O16 0.074140 0.457663 0.967998
O O17 0.500000 0.721760 0.750000
#
# Coordination Sequence:
#
# PCOD9274394 Si02
#       8
#     8   8   8   8   8   8   8   8
#     4  11  23  41  61  89 128 168 206 257 307 361
#     4  11  23  38  61  90 124 167 207 249 309 364
#     4  10  21  37  58  87 118 158 205 251 299 368
#     4  11  22  41  60  91 122 160 203 256 301 373
#     4   9  21  38  61  84 119 151 201 252 309 373
#     4   9  20  40  60  86 115 155 191 256 319 368
#     4  11  20  39  61  83 128 163 203 260 306 357
#     4  10  20  38  63  85 120 152 200 253 311 372
#
# _framework density 22.391257
#
# number of rings (size 3 to 8) (size 9 to 14) (size 15 to 20)
#    0.000    1.750    3.750    0.750    3.500    2.500 
#    2.250    2.500    0.000    0.000    0.000    0.000 
#    0.000    0.000    0.000    0.000    0.000    0.000 
#
# Total GULP energy -178429.910276 kJ/mol
# GULP energy per Si atom -5575.934696 kJ/mol
# Density = 2.234029 g / cm^3
# Si number density = 22.391257 Si / 1000 Ang^3
#
#
#
# Elastic Constant Matrix: (Units=GPa)
#
#
# Indices 1 2 3 4 5 6 
#
# 1 34.5310 20.3714 13.5130 0.0000 -9.5361 0.0000
# 2 20.3714 123.8344 27.5972 0.0000 -9.7156 0.0000
# 3 13.5130 27.5972 63.8876 0.0000 -16.5425 0.0000
# 4 0.0000 0.0000 0.0000 42.0326 0.0000 -20.1331
# 5 -9.5361 -9.7156 -16.5425 0.0000 24.5820 0.0000
# 6 0.0000 0.0000 0.0000 -20.1331 0.0000 62.9553
#
#
#
# Elastic Compliance Matrix: (Units=1/GPa)
#
#
# Indices 1 2 3 4 5 6 
#
# 1 0.035489 -0.004379 -0.003025 0.000000 0.010001 0.000000
# 2 -0.004379 0.009502 -0.003204 0.000000 -0.000100 0.000000
# 3 -0.003025 -0.003204 0.020641 0.000000 0.011451 0.000000
# 4 0.000000 0.000000 0.000000 0.028095 0.000000 0.008985
# 5 0.010001 -0.000100 0.011451 0.000000 0.052226 0.000000
# 6 0.000000 0.000000 0.000000 0.008985 0.000000 0.018758
#
#
# Mechanical properties :
#
#
# Convention : Reuss Voigt Hill
#
# Bulk Modulus (GPa) = 22.51486 38.35736 30.43611
# Shear Modulus (GPa) = 24.90881 36.63207 30.77044
#
# Velocity S-wave (km/s) = 3.33894 4.04914 3.71106
# Velocity P-wave (km/s) = 4.99417 6.24727 5.65553
#
# Compressibility (1/GPa) = 0.04441511
#
# Stress axis : x y z
#
# Youngs Moduli (GPa) = 28.17800 105.24161 48.44654
#
# Poissons Ratio (x) = 0.46088 0.14656
# Poissons Ratio (y) = 0.12340 0.15522
# Poissons Ratio (z) = 0.08524 0.33719
#
# Static dielectric constant tensor:
#      x y z
#    x 2.013720 0.000000 0.049850 
#    y 0.000000 1.859180 0.000000 
#    z 0.049850 0.000000 1.854010 
# 
# From -- ./inp_files/295151.got.cif
#   From: 2010.05.17/outbox.cif.g08.bks.cpg/sg15_148_cif.got.tgz:295151.got - 2010.06.03 18:47:42.
