data_PCOD9274403
_publ_section_title
;
Structure prediction by ZEFSAII (Michael W. Deem and Ramdas Pophale) SiO2 
 PCOD9274403
Probable space group: C 2/C
;
_chemical_formula_sum "Si O2"
_cell_formula_units_Z 56
_cell_length_a 7.491131
_cell_length_b 25.639917
_cell_length_c 14.972887
_cell_angle_alpha 90.000000
_cell_angle_beta 129.129448
_cell_angle_gamma 90.000000
_cell_volume 2230.877645
_symmetry_space_group_name_H-M "C 2/C"
_symmetry_group_IT_number 15
_symmetry_cell_setting 'monoclinic'
loop_
_space_group_symop_operation_xyz
x,y,z
-x,y,1/2-z
-x,-y,-z
x,-y,1/2+z
1/2+x,1/2+y,z
1/2-x,1/2+y,1/2-z
1/2-x,1/2-y,-z
1/2+x,1/2-y,1/2+z
loop_
_atom_site_type_symbol
_atom_site_label
_atom_site_fract_x
_atom_site_fract_y
_atom_site_fract_z
Si Si1 0.000000 0.562061 0.250000
Si Si2 0.824629 0.480450 0.318834
Si Si3 0.238224 0.704934 0.917944
Si Si4 0.500000 0.389608 0.250000
Si Si5 0.433433 0.150653 0.963080
Si Si6 0.251866 0.795323 0.799481
Si Si7 0.756804 0.556124 0.456181
Si Si8 0.866050 0.864083 0.898467
O O1 0.174523 0.525246 0.253275
O O2 0.155983 0.599477 0.361008
O O3 0.677304 0.428750 0.255875
O O4 0.729994 0.508499 0.379090
O O5 0.097108 0.466804 0.414999
O O6 0.229658 0.734867 0.820743
O O7 0.040470 0.669456 0.901151
O O8 0.250000 0.750000 0.000000
O O9 0.464385 0.669530 0.987987
O O10 0.335887 0.355794 0.135464
O O11 0.534387 0.186474 0.073127
O O12 0.548951 0.095115 0.020552
O O13 0.249536 0.819608 0.701255
O O14 0.000000 0.817309 0.750000
O O15 0.544270 0.594225 0.408896
#
# Coordination Sequence:
#
# PCOD9274403 Si02
#       8
#     4   8   8   4   8   8   8   8
#     4  12  26  36  59  96 138 162 215 274 328 360
#     4  10  21  36  61  95 123 175 213 268 314 381
#     4   9  18  35  63  91 117 156 216 263 314 370
#     4  10  20  38  63  86 138 170 217 252 324 388
#     4   9  18  33  61  97 118 164 208 267 307 373
#     4  11  18  35  72  90 115 162 225 252 315 401
#     4   9  18  38  67  83 116 172 230 250 314 397
#     4  11  22  39  64  91 127 169 212 272 319 388
#
# _framework density 25.102229999999999
#
# number of rings (size 3 to 8) (size 9 to 14) (size 15 to 20)
#    0.000    2.000    4.286    1.714    0.000    0.571 
#    0.000    5.000   26.714    0.000    0.000    0.000 
#    0.000    0.000    0.000    0.000    0.000    0.000 
#
# Total GULP energy -156107.022869 kJ/mol
# GULP energy per Si atom -5575.250817 kJ/mol
# Density = 2.504510 g / cm^3
# Si number density = 25.102230 Si / 1000 Ang^3
#
#
#
# Elastic Constant Matrix: (Units=GPa)
#
#
# Indices 1 2 3 4 5 6 
#
# 1 78.1599 36.9059 46.3447 0.0000 8.6955 0.0000
# 2 36.9059 112.8648 65.6461 0.0000 3.5884 0.0000
# 3 46.3447 65.6461 134.1009 0.0000 36.1065 0.0000
# 4 0.0000 0.0000 0.0000 64.3938 0.0000 10.1197
# 5 8.6955 3.5884 36.1065 0.0000 26.9599 0.0000
# 6 0.0000 0.0000 0.0000 10.1197 0.0000 17.4495
#
#
#
# Elastic Compliance Matrix: (Units=1/GPa)
#
#
# Indices 1 2 3 4 5 6 
#
# 1 0.016800 -0.002701 -0.004882 0.000000 0.001480 0.000000
# 2 -0.002701 0.014881 -0.009466 0.000000 0.011568 0.000000
# 3 -0.004882 -0.009466 0.020355 0.000000 -0.024426 0.000000
# 4 0.000000 0.000000 0.000000 0.017087 0.000000 -0.009909
# 5 0.001480 0.011568 -0.024426 0.000000 0.067788 0.000000
# 6 0.000000 0.000000 0.000000 -0.009909 0.000000 0.063055
#
#
# Mechanical properties :
#
#
# Convention : Reuss Voigt Hill
#
# Bulk Modulus (GPa) = 55.74786 69.21320 62.48053
# Shear Modulus (GPa) = 20.82955 33.50923 27.16939
#
# Velocity S-wave (km/s) = 2.88373 3.65761 3.29348
# Velocity P-wave (km/s) = 5.77446 6.74313 6.27751
#
# Compressibility (1/GPa) = 0.01793791
#
# Stress axis : x y z
#
# Youngs Moduli (GPa) = 59.52434 67.19833 49.12807
#
# Poissons Ratio (x) = 0.18149 0.23985
# Poissons Ratio (y) = 0.16076 0.46505
# Poissons Ratio (z) = 0.29061 0.63611
#
# Static dielectric constant tensor:
#      x y z
#    x 2.049510 0.000000 -0.016390 
#    y 0.000000 2.005630 0.000000 
#    z -0.016390 0.000000 2.177160 
# 
# From -- ./inp_files/193927.got.cif
#   From: 2010.05.17/outbox.cif.g08.bks.cpg/sg15_97_cif.got.tgz:193927.got - 2010.06.03 18:47:42.
