data_PCOD9274578
_publ_section_title
;
Structure prediction by ZEFSAII (Michael W. Deem and Ramdas Pophale) SiO2 
 PCOD9274578
Probable space group: C 2/C
;
_chemical_formula_sum "Si O2"
_cell_formula_units_Z 64
_cell_length_a 30.398394
_cell_length_b 13.459309
_cell_length_c 9.083847
_cell_angle_alpha 90.000000
_cell_angle_beta 49.152343
_cell_angle_gamma 90.000000
_cell_volume 2811.410006
_symmetry_space_group_name_H-M "C 2/C"
_symmetry_group_IT_number 15
_symmetry_cell_setting 'monoclinic'
loop_
_space_group_symop_operation_xyz
x,y,z
-x,y,1/2-z
-x,-y,-z
x,-y,1/2+z
1/2+x,1/2+y,z
1/2-x,1/2+y,1/2-z
1/2-x,1/2-y,-z
1/2+x,1/2-y,1/2+z
loop_
_atom_site_type_symbol
_atom_site_label
_atom_site_fract_x
_atom_site_fract_y
_atom_site_fract_z
Si Si1 0.353864 0.773757 0.392759
Si Si2 0.325303 0.915273 0.228465
Si Si3 0.126989 0.963049 0.922721
Si Si4 0.043852 0.137227 0.037936
Si Si5 0.037619 0.792941 0.036270
Si Si6 0.576244 0.137095 0.538044
Si Si7 0.404277 0.968789 0.792694
Si Si8 0.804168 0.062413 0.498024
O O1 0.315898 0.814971 0.341244
O O2 0.360368 0.843100 0.523283
O O3 0.328384 0.669063 0.496389
O O4 0.418359 0.765791 0.171112
O O5 0.262656 0.954233 0.319701
O O6 0.358703 0.979420 0.279450
O O7 0.368364 0.909091 0.995315
O O8 0.183202 0.939085 0.701843
O O9 0.097468 0.063352 0.925570
O O10 0.152206 0.984098 0.026223
O O11 0.081025 0.874546 0.010043
O O12 0.056647 0.248148 0.070961
O O13 0.000000 0.088569 0.250000
O O14 0.009555 0.151784 0.962123
O O15 0.000000 0.741842 0.250000
O O16 0.565292 0.099773 0.395936
O O17 0.558634 0.049842 0.693896
#
# Coordination Sequence:
#
# PCOD9274578 Si02
#       8
#     8   8   8   8   8   8   8   8
#     4  10  21  39  59  89 126 162 210 264 315 367
#     4  10  20  38  64  86 123 165 211 257 325 375
#     4  11  22  38  60  92 131 165 213 253 305 381
#     4  12  21  39  65  88 128 169 207 253 321 373
#     4  11  23  37  59  93 127 168 208 255 312 373
#     4  10  20  41  64  88 117 164 203 271 316 373
#     4   9  21  39  65  86 117 159 208 263 323 367
#     4  11  21  38  59  91 127 170 205 259 314 374
#
# _framework density 22.764378000000001
#
# number of rings (size 3 to 8) (size 9 to 14) (size 15 to 20)
#    0.000    1.500    2.500    3.375    1.750    0.000 
#    0.000    1.250    0.000    0.000    0.000    0.000 
#    0.000    0.000    0.000    0.000    0.000    0.000 
#
# Total GULP energy -178228.947834 kJ/mol
# GULP energy per Si atom -5569.654620 kJ/mol
# Density = 2.271257 g / cm^3
# Si number density = 22.764378 Si / 1000 Ang^3
#
#
#
# Elastic Constant Matrix: (Units=GPa)
#
#
# Indices 1 2 3 4 5 6 
#
# 1 81.1660 -0.0760 33.2485 0.0000 3.4140 0.0000
# 2 -0.0760 46.5404 6.2554 0.0000 -5.2843 0.0000
# 3 33.2485 6.2554 81.6577 0.0000 9.5952 0.0000
# 4 0.0000 0.0000 0.0000 17.7814 0.0000 10.3673
# 5 3.4140 -5.2843 9.5952 0.0000 37.3967 0.0000
# 6 0.0000 0.0000 0.0000 10.3673 0.0000 -23.7788
#
#
#
# Elastic Compliance Matrix: (Units=1/GPa)
#
#
# Indices 1 2 3 4 5 6 
#
# 1 0.014824 0.000890 -0.006145 0.000000 0.000349 0.000000
# 2 0.000890 0.022245 -0.002502 0.000000 0.003704 0.000000
# 3 -0.006145 -0.002502 0.015379 0.000000 -0.003738 0.000000
# 4 0.000000 0.000000 0.000000 0.044840 0.000000 0.019550
# 5 0.000349 0.003704 -0.003738 0.000000 0.028191 0.000000
# 6 0.000000 0.000000 0.000000 0.019550 0.000000 -0.033531
#
#
# Mechanical properties :
#
#
# Convention : Reuss Voigt Hill
#
# Bulk Modulus (GPa) = 27.07505 32.02443 29.54974
# Shear Modulus (GPa) = 41.74546 17.60894 29.67720
#
# Velocity S-wave (km/s) = 4.28694 2.78426 3.61455
# Velocity P-wave (km/s) = 6.03517 4.94312 5.51624
#
# Compressibility (1/GPa) = 0.03693438
#
# Stress axis : x y z
#
# Youngs Moduli (GPa) = 67.45916 44.95399 65.02286
#
# Poissons Ratio (x) = -0.04000 0.39956
# Poissons Ratio (y) = -0.06002 0.16266
# Poissons Ratio (z) = 0.41453 0.11246
#
# Static dielectric constant tensor:
#      x y z
#    x 1.849680 0.000000 0.009420 
#    y 0.000000 1.946360 0.000000 
#    z 0.009420 0.000000 1.856170 
# 
# From -- ./inp_files/69936.got.cif
#   From: 2010.05.17/outbox.cif.g08.bks.cpg/sg15_35_cif.got.tgz:69936.got - 2010.06.03 18:47:42.
