data_PCOD9274797
_publ_section_title
;
Structure prediction by ZEFSAII (Michael W. Deem and Ramdas Pophale) SiO2 
 PCOD9274797
Probable space group: C 2/C
;
_chemical_formula_sum "Si O2"
_cell_formula_units_Z 64
_cell_length_a 17.684875
_cell_length_b 12.022305
_cell_length_c 30.152403
_cell_angle_alpha 90.000000
_cell_angle_beta 31.154022
_cell_angle_gamma 90.000000
_cell_volume 3316.561796
_symmetry_space_group_name_H-M "C 2/C"
_symmetry_group_IT_number 15
_symmetry_cell_setting 'monoclinic'
loop_
_space_group_symop_operation_xyz
x,y,z
-x,y,1/2-z
-x,-y,-z
x,-y,1/2+z
1/2+x,1/2+y,z
1/2-x,1/2+y,1/2-z
1/2-x,1/2-y,-z
1/2+x,1/2-y,1/2+z
loop_
_atom_site_type_symbol
_atom_site_label
_atom_site_fract_x
_atom_site_fract_y
_atom_site_fract_z
Si Si1 0.075804 0.343969 0.990729
Si Si2 0.557572 0.144049 0.316914
Si Si3 0.398284 0.717440 0.146636
Si Si4 0.845468 0.407673 0.234700
Si Si5 0.081844 0.844245 0.161889
Si Si6 0.103304 0.973025 0.794425
Si Si7 0.084638 0.588180 0.017646
Si Si8 0.156436 0.221724 0.194917
O O1 0.233941 0.297600 0.900501
O O2 0.015563 0.378340 0.973134
O O3 0.087411 0.454260 0.014793
O O4 0.965109 0.255679 0.067233
O O5 0.722491 0.196136 0.234914
O O6 0.458166 0.224967 0.338172
O O7 0.487480 0.132625 0.400998
O O8 0.572605 0.018651 0.291077
O O9 0.434378 0.817062 0.162165
O O10 0.463505 0.605440 0.134115
O O11 0.730061 0.457704 0.256412
O O12 0.794819 0.330159 0.300993
O O13 0.000000 0.853346 0.250000
O O14 0.254207 0.865885 0.073980
O O15 0.007921 0.939583 0.169367
O O16 0.153725 0.886271 0.730070
O O17 0.000000 0.235569 0.250000
#
# Coordination Sequence:
#
# PCOD9274797 Si02
#       8
#     8   8   8   8   8   8   8   8
#     4  11  22  39  66  98 124 165 225 265 331 390
#     4  11  22  40  62  92 132 173 217 261 336 389
#     4  10  20  38  65  92 122 170 216 270 316 398
#     4  10  20  40  67  90 126 175 213 260 337 396
#     4  12  24  39  64  97 133 168 221 275 324 388
#     4  10  21  39  65  92 126 173 217 262 332 389
#     4  11  23  38  65  97 131 168 217 276 320 398
#     4  11  24  43  67  96 131 168 219 283 327 388
#
# _framework density 19.297091999999999
#
# number of rings (size 3 to 8) (size 9 to 14) (size 15 to 20)
#    0.000    1.250    2.500    5.250    1.750    0.500 
#    2.250    4.375    2.750    0.000    0.000    0.000 
#    0.000    0.000    0.000    0.000    0.000    0.000 
#
# Total GULP energy -178492.100563 kJ/mol
# GULP energy per Si atom -5577.878143 kJ/mol
# Density = 1.925317 g / cm^3
# Si number density = 19.297092 Si / 1000 Ang^3
#
#
#
# Elastic Constant Matrix: (Units=GPa)
#
#
# Indices 1 2 3 4 5 6 
#
# 1 46.5296 20.2684 20.4425 0.0000 -10.2741 0.0000
# 2 20.2684 100.8797 16.8361 0.0000 -9.8682 0.0000
# 3 20.4425 16.8361 120.6575 -0.0002 -5.6558 -0.0001
# 4 0.0000 0.0000 -0.0002 17.2491 0.0000 -1.8374
# 5 -10.2741 -9.8682 -5.6558 0.0000 26.6671 0.0000
# 6 0.0000 0.0000 -0.0001 -1.8374 0.0000 21.9766
#
#
#
# Elastic Compliance Matrix: (Units=1/GPa)
#
#
# Indices 1 2 3 4 5 6 
#
# 1 0.026552 -0.003955 -0.003571 0.000000 0.008009 0.000000
# 2 -0.003955 0.011070 -0.000762 0.000000 0.002411 0.000000
# 3 -0.003571 -0.000762 0.009011 0.000000 0.000253 0.000000
# 4 0.000000 0.000000 0.000000 0.058495 0.000000 0.004891
# 5 0.008009 0.002411 0.000253 0.000000 0.041531 0.000000
# 6 0.000000 0.000000 0.000000 0.004891 0.000000 0.045912
#
#
# Mechanical properties :
#
#
# Convention : Reuss Voigt Hill
#
# Bulk Modulus (GPa) = 33.26980 42.57342 37.92161
# Shear Modulus (GPa) = 22.81368 27.21321 25.01345
#
# Velocity S-wave (km/s) = 3.44209 3.75937 3.60422
# Velocity P-wave (km/s) = 5.75114 6.39951 6.08397
#
# Compressibility (1/GPa) = 0.03005729
#
# Stress axis : x y z
#
# Youngs Moduli (GPa) = 37.66192 90.33054 110.97373
#
# Poissons Ratio (x) = 0.35728 0.39632
# Poissons Ratio (y) = 0.14896 0.08451
# Poissons Ratio (z) = 0.13450 0.06879
#
# Static dielectric constant tensor:
#      x y z
#    x 1.685240 0.000000 -0.003830 
#    y 0.000000 1.689530 0.000000 
#    z -0.003830 0.000000 1.686280 
# 
# From -- ./inp_files/316184.got.cif
#   From: 2010.05.17/outbox.cif.g08.bks.cpg/sg15_159_cif.got.tgz:316184.got - 2010.06.03 18:47:42.
