data_PCOD9274563
_publ_section_title
;
Structure prediction by ZEFSAII (Michael W. Deem and Ramdas Pophale) SiO2 
 PCOD9274563
Probable space group: C 2/C
;
_chemical_formula_sum "Si O2"
_cell_formula_units_Z 44
_cell_length_a 10.582291
_cell_length_b 20.964906
_cell_length_c 12.483296
_cell_angle_alpha 90.000000
_cell_angle_beta 57.760085
_cell_angle_gamma 90.000000
_cell_volume 2342.506087
_symmetry_space_group_name_H-M "C 2/C"
_symmetry_group_IT_number 15
_symmetry_cell_setting 'monoclinic'
loop_
_space_group_symop_operation_xyz
x,y,z
-x,y,1/2-z
-x,-y,-z
x,-y,1/2+z
1/2+x,1/2+y,z
1/2-x,1/2+y,1/2-z
1/2-x,1/2-y,-z
1/2+x,1/2-y,1/2+z
loop_
_atom_site_type_symbol
_atom_site_label
_atom_site_fract_x
_atom_site_fract_y
_atom_site_fract_z
Si Si1 0.025538 0.087556 0.612158
Si Si2 0.209262 0.993196 0.892413
Si Si3 0.000000 0.577243 0.750000
Si Si4 0.634809 0.835421 0.023386
Si Si5 0.554382 0.304690 0.507790
Si Si6 0.638209 0.390394 0.750085
O O1 0.007349 0.158201 0.568694
O O2 0.000000 0.088580 0.750000
O O3 0.172734 0.045826 0.517350
O O4 0.909285 0.046809 0.591911
O O5 0.201832 0.938619 0.807029
O O6 0.360359 0.031242 0.823915
O O7 0.013330 0.622343 0.639853
O O8 0.770711 0.821258 0.046642
O O9 0.558657 0.771494 0.012714
O O10 0.729392 0.868918 0.886943
O O11 0.448441 0.332592 0.650497
O O12 0.500000 0.423149 0.750000
#
# Coordination Sequence:
#
# PCOD9274563 Si02
#       6
#     8   8   4   8   8   8
#     4  10  20  38  64  85 115 160 198 246 283 356
#     4  10  22  37  56  88 122 150 204 231 296 361
#     4  12  24  36  54  92 122 150 188 254 296 346
#     4  10  21  34  58  87 118 149 191 253 295 338
#     4   9  19  36  59  87 111 148 205 241 285 350
#     4   9  19  36  60  84 113 157 194 242 290 345
#
# _framework density 18.783304000000001
#
# number of rings (size 3 to 8) (size 9 to 14) (size 15 to 20)
#    0.000    2.182    1.818    0.545   11.455    0.727 
#    0.000    0.000    2.000    3.273    0.000    0.000 
#    0.000    0.000    0.000    0.000    0.000    0.000 
#
# Total GULP energy -122550.727128 kJ/mol
# GULP energy per Si atom -5570.487597 kJ/mol
# Density = 1.874055 g / cm^3
# Si number density = 18.783304 Si / 1000 Ang^3
#
#
#
# Elastic Constant Matrix: (Units=GPa)
#
#
# Indices 1 2 3 4 5 6 
#
# 1 20.4938 34.3667 30.6133 0.0000 2.3428 0.0000
# 2 34.3667 127.8397 68.2349 0.0000 -1.3723 0.0000
# 3 30.6133 68.2349 138.5173 0.0000 13.2791 0.0000
# 4 0.0000 0.0000 0.0000 8.3704 0.0000 -7.2769
# 5 2.3428 -1.3723 13.2791 0.0000 25.9596 0.0000
# 6 0.0000 0.0000 0.0000 -7.2769 0.0000 -4.1650
#
#
#
# Elastic Compliance Matrix: (Units=1/GPa)
#
#
# Indices 1 2 3 4 5 6 
#
# 1 0.102706 -0.021391 -0.011740 0.000000 -0.004394 0.000000
# 2 -0.021391 0.015362 -0.003263 0.000000 0.004411 0.000000
# 3 -0.011740 -0.003263 0.011921 0.000000 -0.005211 0.000000
# 4 0.000000 0.000000 0.000000 0.047429 0.000000 -0.082865
# 5 -0.004394 0.004411 -0.005211 0.000000 0.041817 0.000000
# 6 0.000000 0.000000 0.000000 -0.082865 0.000000 -0.095317
#
#
# Mechanical properties :
#
#
# Convention : Reuss Voigt Hill
#
# Bulk Modulus (GPa) = 17.48221 61.47562 39.47891
# Shear Modulus (GPa) = 23.17268 16.27538 19.72403
#
# Velocity S-wave (km/s) = 3.51620 2.94680 3.24401
# Velocity P-wave (km/s) = 5.08059 6.66169 5.92412
#
# Compressibility (1/GPa) = 0.05720100
#
# Stress axis : x y z
#
# Youngs Moduli (GPa) = 9.73651 65.09756 83.88798
#
# Poissons Ratio (x) = 1.39250 0.98485
# Poissons Ratio (y) = 0.20827 0.27369
# Poissons Ratio (z) = 0.11431 0.21239
#
# Static dielectric constant tensor:
#      x y z
#    x 1.667370 0.000000 -0.002340 
#    y 0.000000 1.675160 0.000000 
#    z -0.002340 0.000000 1.765490 
# 
# From -- ./inp_files/88727.got.cif
#   From: 2010.05.17/outbox.cif.g08.bks.cpg/sg15_45_cif.got.tgz:88727.got - 2010.06.03 18:47:42.
