data_PCOD9274539
_publ_section_title
;
Structure prediction by ZEFSAII (Michael W. Deem and Ramdas Pophale) SiO2 
 PCOD9274539
Probable space group: C 2/C
;
_chemical_formula_sum "Si O2"
_cell_formula_units_Z 52
_cell_length_a 5.156774
_cell_length_b 17.870525
_cell_length_c 25.765856
_cell_angle_alpha 90.000000
_cell_angle_beta 67.791320
_cell_angle_gamma 90.000000
_cell_volume 2198.282063
_symmetry_space_group_name_H-M "C 2/C"
_symmetry_group_IT_number 15
_symmetry_cell_setting 'monoclinic'
loop_
_space_group_symop_operation_xyz
x,y,z
-x,y,1/2-z
-x,-y,-z
x,-y,1/2+z
1/2+x,1/2+y,z
1/2-x,1/2+y,1/2-z
1/2-x,1/2-y,-z
1/2+x,1/2-y,1/2+z
loop_
_atom_site_type_symbol
_atom_site_label
_atom_site_fract_x
_atom_site_fract_y
_atom_site_fract_z
Si Si1 0.366653 0.136130 0.383888
Si Si2 0.239650 0.784209 0.577353
Si Si3 0.500000 0.901956 0.250000
Si Si4 0.263272 0.524343 0.303907
Si Si5 0.282721 0.992854 0.447836
Si Si6 0.954888 0.653948 0.545883
Si Si7 0.940485 0.913509 0.137135
O O1 0.582500 0.199862 0.384935
O O2 0.518446 0.085419 0.329322
O O3 0.047916 0.165095 0.401555
O O4 0.380038 0.076325 0.430038
O O5 0.453347 0.803832 0.513540
O O6 0.128860 0.701046 0.575234
O O7 0.745548 0.870831 0.194190
O O8 0.658475 0.955167 0.278085
O O9 0.500000 0.561016 0.250000
O O10 0.392732 0.482013 0.345187
O O11 0.460004 0.932429 0.465070
O O12 0.228767 0.955699 0.395478
O O13 0.000000 0.000000 0.500000
O O14 0.647505 0.643328 0.592290
#
# Coordination Sequence:
#
# PCOD9274539 Si02
#       7
#     8   8   4   8   8   8   8
#     4  12  23  44  65 100 131 177 225 285 330 410
#     4  11  28  42  65  96 147 186 222 266 353 416
#     4  10  20  38  64 102 130 164 228 296 358 390
#     4  10  22  37  67  99 130 170 226 292 348 397
#     4  12  23  37  67  99 137 172 228 283 336 405
#     4  11  25  41  63  97 139 187 222 275 339 416
#     4  11  21  39  65 100 134 174 228 290 342 409
#
# _framework density 23.654834999999999
#
# number of rings (size 3 to 8) (size 9 to 14) (size 15 to 20)
#    0.000    0.923    4.615    1.846    4.308    2.462 
#    0.000    0.000    1.692    1.846    0.000    0.000 
#    0.000    0.000    0.000    0.000    0.000    0.000 
#
# Total GULP energy -145095.068722 kJ/mol
# GULP energy per Si atom -5580.579566 kJ/mol
# Density = 2.360100 g / cm^3
# Si number density = 23.654835 Si / 1000 Ang^3
#
#
#
# Elastic Constant Matrix: (Units=GPa)
#
#
# Indices 1 2 3 4 5 6 
#
# 1 82.3733 19.6352 37.4683 0.0000 -17.4402 0.0000
# 2 19.6352 94.3323 5.4927 0.0000 -18.5912 0.0000
# 3 37.4683 5.4927 108.8647 0.0000 -44.9905 0.0000
# 4 0.0000 0.0000 0.0000 4.1339 0.0000 -12.9158
# 5 -17.4402 -18.5912 -44.9905 0.0000 54.3977 0.0000
# 6 0.0000 0.0000 0.0000 -12.9158 0.0000 36.8542
#
#
#
# Elastic Compliance Matrix: (Units=1/GPa)
#
#
# Indices 1 2 3 4 5 6 
#
# 1 0.015130 -0.002944 -0.005272 0.000000 -0.000516 0.000000
# 2 -0.002944 0.012118 0.002618 0.000000 0.005363 0.000000
# 3 -0.005272 0.002618 0.016012 0.000000 0.012448 0.000000
# 4 0.000000 0.000000 0.000000 -2.547413 0.000000 -0.892757
# 5 -0.000516 0.005363 0.012448 0.000000 0.030346 0.000000
# 6 0.000000 0.000000 0.000000 -0.892757 0.000000 -0.285738
#
#
# Mechanical properties :
#
#
# Convention : Reuss Voigt Hill
#
# Bulk Modulus (GPa) = 31.18615 45.64031 38.41323
# Shear Modulus (GPa) = -1.82638 33.94209 16.05786
#
# Velocity S-wave (km/s) = -0.87964 3.79210 2.60828
# Velocity P-wave (km/s) = 3.49010 6.20561 5.03440
#
# Compressibility (1/GPa) = 0.03206551
#
# Stress axis : x y z
#
# Youngs Moduli (GPa) = 66.09168 82.52089 62.45129
#
# Poissons Ratio (x) = 0.24294 0.32925
# Poissons Ratio (y) = 0.19458 -0.16351
# Poissons Ratio (z) = 0.34844 -0.21606
#
# Static dielectric constant tensor:
#      x y z
#    x 1.734460 0.000000 -0.357000 
#    y 0.000000 2.190850 0.000000 
#    z -0.357000 0.000000 1.656770 
# 
# From -- ./inp_files/305602.got.cif
#   From: 2010.05.17/outbox.cif.g08.bks.cpg/sg15_153_cif.got.tgz:305602.got - 2010.06.03 18:47:42.
