data_PCOD9274230
_publ_section_title
;
Structure prediction by ZEFSAII (Michael W. Deem and Ramdas Pophale) SiO2 
 PCOD9274230
Probable space group: C 2/C
;
_chemical_formula_sum "Si O2"
_cell_formula_units_Z 52
_cell_length_a 21.342917
_cell_length_b 8.324202
_cell_length_c 18.982409
_cell_angle_alpha 90.000000
_cell_angle_beta 136.412681
_cell_angle_gamma 90.000000
_cell_volume 2325.178587
_symmetry_space_group_name_H-M "C 2/C"
_symmetry_group_IT_number 15
_symmetry_cell_setting 'monoclinic'
loop_
_space_group_symop_operation_xyz
x,y,z
-x,y,1/2-z
-x,-y,-z
x,-y,1/2+z
1/2+x,1/2+y,z
1/2-x,1/2+y,1/2-z
1/2-x,1/2-y,-z
1/2+x,1/2-y,1/2+z
loop_
_atom_site_type_symbol
_atom_site_label
_atom_site_fract_x
_atom_site_fract_y
_atom_site_fract_z
Si Si1 0.936745 0.646406 0.973146
Si Si2 0.546755 0.695849 0.212489
Si Si3 0.255679 0.233475 0.365445
Si Si4 0.399364 0.937750 0.069165
Si Si5 0.752567 0.581444 0.766768
Si Si6 0.058844 0.850857 0.163081
Si Si7 0.500000 0.860353 0.750000
O O1 0.849883 0.671658 0.853222
O O2 0.890561 0.583633 0.007744
O O3 0.000000 0.500000 0.000000
O O4 0.003507 0.787552 0.050542
O O5 0.500000 0.671921 0.250000
O O6 0.652936 0.726090 0.307904
O O7 0.493509 0.842468 0.133818
O O8 0.535162 0.534714 0.158721
O O9 0.321657 0.186675 0.483452
O O10 0.272240 0.398205 0.335971
O O11 0.267426 0.092876 0.314839
O O12 0.416998 0.023775 0.157960
O O13 0.666878 0.655984 0.738142
O O14 0.031144 0.746286 0.209064
#
# Coordination Sequence:
#
# PCOD9274230 Si02
#       7
#     8   8   8   8   8   8   4
#     4  10  20  38  62  88 118 160 202 250 301 363
#     4  11  22  40  58  87 126 156 196 247 300 359
#     4  10  23  40  62  89 120 156 200 251 302 357
#     4  10  21  39  59  88 115 161 205 238 298 359
#     4  10  21  39  60  91 119 155 204 251 303 360
#     4  10  21  38  61  88 124 159 199 253 302 353
#     4  10  20  40  60  84 124 166 202 244 290 364
#
# _framework density 22.363873000000002
#
# number of rings (size 3 to 8) (size 9 to 14) (size 15 to 20)
#    0.000    1.846    1.538    2.769    0.000    3.077 
#    2.769    6.923    0.000    0.000    0.000    0.000 
#    0.000    0.000    0.000    0.000    0.000    0.000 
#
# Total GULP energy -145112.667507 kJ/mol
# GULP energy per Si atom -5581.256443 kJ/mol
# Density = 2.231297 g / cm^3
# Si number density = 22.363873 Si / 1000 Ang^3
#
#
#
# Elastic Constant Matrix: (Units=GPa)
#
#
# Indices 1 2 3 4 5 6 
#
# 1 69.2205 1.0842 3.0289 0.0000 6.4519 0.0000
# 2 1.0842 40.0638 2.4679 0.0000 -3.4760 0.0000
# 3 3.0289 2.4679 86.2240 0.0000 11.1248 0.0000
# 4 0.0000 0.0000 0.0000 40.5809 0.0000 -3.8107
# 5 6.4519 -3.4760 11.1248 0.0000 32.3374 0.0000
# 6 0.0000 0.0000 0.0000 -3.8107 0.0000 28.4620
#
#
#
# Elastic Compliance Matrix: (Units=1/GPa)
#
#
# Indices 1 2 3 4 5 6 
#
# 1 0.014739 -0.000649 -0.000116 0.000000 -0.002971 0.000000
# 2 -0.000649 0.025328 -0.001120 0.000000 0.003237 0.000000
# 3 -0.000116 -0.001120 0.012187 0.000000 -0.004290 0.000000
# 4 0.000000 0.000000 0.000000 0.024956 0.000000 0.003341
# 5 -0.002971 0.003237 -0.004290 0.000000 0.033340 0.000000
# 6 0.000000 0.000000 0.000000 0.003341 0.000000 0.035582
#
#
# Mechanical properties :
#
#
# Convention : Reuss Voigt Hill
#
# Bulk Modulus (GPa) = 20.62563 23.18559 21.90561
# Shear Modulus (GPa) = 30.10900 32.87120 31.49010
#
# Velocity S-wave (km/s) = 3.67321 3.83800 3.75651
# Velocity P-wave (km/s) = 5.21850 5.47999 5.35084
#
# Compressibility (1/GPa) = 0.04848336
#
# Stress axis : x y z
#
# Youngs Moduli (GPa) = 67.84857 39.48261 82.05247
#
# Poissons Ratio (x) = 0.02564 0.00951
# Poissons Ratio (y) = 0.04406 0.09188
# Poissons Ratio (z) = 0.00786 0.04421
#
# Static dielectric constant tensor:
#      x y z
#    x 1.842180 0.000000 -0.045830 
#    y 0.000000 1.856760 0.000000 
#    z -0.045830 0.000000 1.861800 
# 
# From -- ./inp_files/172056.got.cif
#   From: 2010.05.17/outbox.cif.g08.bks.cpg/sg15_87_cif.got.tgz:172056.got - 2010.06.03 18:47:42.
