data_PCOD9274166
_publ_section_title
;
Structure prediction by ZEFSAII (Michael W. Deem and Ramdas Pophale) SiO2 
 PCOD9274166
Probable space group: C 2/C
;
_chemical_formula_sum "Si O2"
_cell_formula_units_Z 52
_cell_length_a 14.733084
_cell_length_b 11.953523
_cell_length_c 23.946412
_cell_angle_alpha 90.000000
_cell_angle_beta 32.883517
_cell_angle_gamma 90.000000
_cell_volume 2289.687340
_symmetry_space_group_name_H-M "C 2/C"
_symmetry_group_IT_number 15
_symmetry_cell_setting 'monoclinic'
loop_
_space_group_symop_operation_xyz
x,y,z
-x,y,1/2-z
-x,-y,-z
x,-y,1/2+z
1/2+x,1/2+y,z
1/2-x,1/2+y,1/2-z
1/2-x,1/2-y,-z
1/2+x,1/2-y,1/2+z
loop_
_atom_site_type_symbol
_atom_site_label
_atom_site_fract_x
_atom_site_fract_y
_atom_site_fract_z
Si Si1 0.671409 0.611077 0.205968
Si Si2 0.334884 0.765602 0.094865
Si Si3 0.975791 0.662069 0.695662
Si Si4 0.883504 0.578411 0.256179
Si Si5 0.000000 0.089338 0.750000
Si Si6 0.976249 0.375380 0.926403
Si Si7 0.859014 0.617381 0.998285
O O1 0.611455 0.719925 0.269737
O O2 0.550063 0.504639 0.270993
O O3 0.850071 0.581056 0.137935
O O4 0.717346 0.646653 0.117484
O O5 0.284524 0.645062 0.144059
O O6 0.161145 0.831143 0.172849
O O7 0.468318 0.830728 0.065133
O O8 0.421638 0.768446 0.989494
O O9 0.868850 0.548528 0.741223
O O10 0.000000 0.660686 0.750000
O O11 0.131359 0.650700 0.572244
O O12 0.000000 0.573854 0.250000
O O13 0.989159 0.645788 0.155532
O O14 0.858077 0.482013 0.997531
#
# Coordination Sequence:
#
# PCOD9274166 Si02
#       7
#     8   8   8   8   4   8   8
#     4  11  20  38  60  90 112 144 196 239 282 328
#     4  11  20  38  60  90 112 144 196 239 282 328
#     4  10  22  38  57  82 118 158 186 226 284 346
#     4  10  22  38  57  82 118 158 186 226 284 346
#     4  12  20  34  62  96 110 134 196 260 266 324
#     4  10  20  38  62  82 117 152 186 233 291 335
#     4  10  20  38  62  82 117 152 186 233 291 335
#
# _framework density 22.710522999999998
#
# number of rings (size 3 to 8) (size 9 to 14) (size 15 to 20)
#    0.000    1.538    4.615    1.846    0.000    1.231 
#    0.000    3.077    0.000    0.000    0.000    0.000 
#    0.000    0.000    0.000    0.000    0.000    0.000 
#
# Total GULP energy -144800.854088 kJ/mol
# GULP energy per Si atom -5569.263619 kJ/mol
# Density = 2.265883 g / cm^3
# Si number density = 22.710523 Si / 1000 Ang^3
#
#
#
# Elastic Constant Matrix: (Units=GPa)
#
#
# Indices 1 2 3 4 5 6 
#
# 1 49.4942 -17.3020 15.0059 0.0000 10.8214 0.0000
# 2 -17.3020 78.3768 13.2097 0.0000 -0.4465 0.0000
# 3 15.0059 13.2097 47.3188 -0.0005 19.6192 0.0002
# 4 0.0000 0.0000 -0.0005 16.4545 0.0001 39.8659
# 5 10.8214 -0.4465 19.6192 0.0001 48.9170 0.0000
# 6 0.0000 0.0000 0.0002 39.8659 0.0000 -51.6946
#
#
#
# Elastic Compliance Matrix: (Units=1/GPa)
#
#
# Indices 1 2 3 4 5 6 
#
# 1 0.026080 0.007356 -0.009547 0.000000 -0.001873 0.000000
# 2 0.007356 0.015620 -0.007290 0.000000 0.001439 0.000000
# 3 -0.009547 -0.007290 0.030404 0.000000 -0.010149 0.000000
# 4 0.000000 0.000000 0.000000 0.021187 0.000000 0.016339
# 5 -0.001873 0.001439 -0.010149 0.000000 0.024941 0.000000
# 6 0.000000 0.000000 0.000000 0.016339 0.000000 -0.006744
#
#
# Mechanical properties :
#
#
# Convention : Reuss Voigt Hill
#
# Bulk Modulus (GPa) = 18.81809 21.89077 20.35443
# Shear Modulus (GPa) = 33.74652 13.68710 23.71681
#
# Velocity S-wave (km/s) = 3.85897 2.45761 3.23508
# Velocity P-wave (km/s) = 5.30656 4.20869 4.78919
#
# Compressibility (1/GPa) = 0.05314034
#
# Stress axis : x y z
#
# Youngs Moduli (GPa) = 38.34369 64.02249 32.89066
#
# Poissons Ratio (x) = -0.47093 0.31402
# Poissons Ratio (y) = -0.28205 0.23976
# Poissons Ratio (z) = 0.36608 0.46671
#
# Static dielectric constant tensor:
#      x y z
#    x 1.923920 0.000000 0.023560 
#    y 0.000000 1.869800 0.000000 
#    z 0.023560 0.000000 1.895340 
# 
# From -- ./inp_files/273818.got.cif
#   From: 2010.05.17/outbox.cif.g08.bks.cpg/sg15_137_cif.got.tgz:273818.got - 2010.06.03 18:47:42.
