data_PCOD9274140
_publ_section_title
;
Structure prediction by ZEFSAII (Michael W. Deem and Ramdas Pophale) SiO2 
 PCOD9274140
Probable space group: C 2/C
;
_chemical_formula_sum "Si O2"
_cell_formula_units_Z 52
_cell_length_a 18.512947
_cell_length_b 7.907870
_cell_length_c 19.514336
_cell_angle_alpha 90.000000
_cell_angle_beta 47.779052
_cell_angle_gamma 90.000000
_cell_volume 2115.672773
_symmetry_space_group_name_H-M "C 2/C"
_symmetry_group_IT_number 15
_symmetry_cell_setting 'monoclinic'
loop_
_space_group_symop_operation_xyz
x,y,z
-x,y,1/2-z
-x,-y,-z
x,-y,1/2+z
1/2+x,1/2+y,z
1/2-x,1/2+y,1/2-z
1/2-x,1/2-y,-z
1/2+x,1/2-y,1/2+z
loop_
_atom_site_type_symbol
_atom_site_label
_atom_site_fract_x
_atom_site_fract_y
_atom_site_fract_z
Si Si1 0.000000 0.952589 0.250000
Si Si2 0.191338 0.891032 0.273261
Si Si3 0.987908 0.499173 0.601811
Si Si4 0.994367 0.096834 0.399184
Si Si5 0.630214 0.853239 0.706504
Si Si6 0.336672 0.057293 0.078753
Si Si7 0.714265 0.404970 0.414824
O O1 0.911066 0.819213 0.298823
O O2 0.980451 0.069720 0.327216
O O3 0.191206 0.713861 0.233433
O O4 0.236304 0.880028 0.319513
O O5 0.248758 0.995718 0.180123
O O6 0.086165 0.974898 0.353677
O O7 0.956737 0.449114 0.698144
O O8 0.918973 0.415255 0.587037
O O9 0.983731 0.705384 0.598759
O O10 0.098193 0.444099 0.513400
O O11 0.895887 0.034447 0.499620
O O12 0.699827 0.971458 0.617271
O O13 0.296250 0.209627 0.057719
#
# Coordination Sequence:
#
# PCOD9274140 Si02
#       7
#     4   8   8   8   8   8   8
#     4  10  26  48  56  92 122 182 230 262 284 380
#     4  11  20  35  58  99 132 163 199 268 319 397
#     4  10  20  38  61  94 123 174 194 268 316 388
#     4  10  24  39  64  84 133 169 222 259 316 363
#     4  11  23  39  67  90 135 168 215 256 318 372
#     4  10  21  35  59  98 139 148 207 246 341 395
#     4  11  20  37  61  99 125 168 204 267 328 386
#
# _framework density 24.578471
#
# number of rings (size 3 to 8) (size 9 to 14) (size 15 to 20)
#    0.000    1.538    3.077    1.385    2.154    3.692 
#    0.000    1.538    0.000   10.154    0.000    0.000 
#    0.000    0.000    0.000    0.000    0.000    0.000 
#
# Total GULP energy -144941.127788 kJ/mol
# GULP energy per Si atom -5574.658761 kJ/mol
# Density = 2.452253 g / cm^3
# Si number density = 24.578471 Si / 1000 Ang^3
#
#
#
# Elastic Constant Matrix: (Units=GPa)
#
#
# Indices 1 2 3 4 5 6 
#
# 1 33.7294 10.0015 17.0486 0.0000 7.2238 0.0001
# 2 10.0015 84.2240 22.7319 -0.0001 4.3982 0.0003
# 3 17.0486 22.7319 127.1123 0.0000 -25.9189 0.0000
# 4 0.0000 -0.0001 0.0000 17.8586 0.0000 5.2646
# 5 7.2238 4.3982 -25.9189 0.0000 28.7963 0.0000
# 6 0.0001 0.0003 0.0000 5.2646 0.0000 17.1400
#
#
#
# Elastic Compliance Matrix: (Units=1/GPa)
#
#
# Indices 1 2 3 4 5 6 
#
# 1 0.037782 -0.001400 -0.008213 0.000000 -0.016657 0.000000
# 2 -0.001400 0.013092 -0.003049 0.000000 -0.004393 0.000000
# 3 -0.008213 -0.003049 0.012283 0.000000 0.013582 0.000000
# 4 0.000000 0.000000 0.000000 0.061570 0.000000 -0.018912
# 5 -0.016657 -0.004393 0.013582 0.000000 0.051801 0.000000
# 6 0.000000 0.000000 0.000000 -0.018912 0.000000 0.064152
#
#
# Mechanical properties :
#
#
# Convention : Reuss Voigt Hill
#
# Bulk Modulus (GPa) = 26.43282 38.29218 32.36250
# Shear Modulus (GPa) = 17.94585 25.77788 21.86187
#
# Velocity S-wave (km/s) = 2.70505 3.24203 2.98564
# Velocity P-wave (km/s) = 4.53147 5.44314 5.00809
#
# Compressibility (1/GPa) = 0.03783175
#
# Stress axis : x y z
#
# Youngs Moduli (GPa) = 26.46784 76.38417 81.41041
#
# Poissons Ratio (x) = 0.10693 0.66866
# Poissons Ratio (y) = 0.03705 0.24824
# Poissons Ratio (z) = 0.21739 0.23291
#
# Static dielectric constant tensor:
#      x y z
#    x 2.055290 0.000000 -0.038250 
#    y 0.000000 1.898760 0.000000 
#    z -0.038250 0.000000 1.994580 
# 
# From -- ./inp_files/254998.got.cif
#   From: 2010.05.17/outbox.cif.g08.bks.cpg/sg15_128_cif.got.tgz:254998.got - 2010.06.03 18:47:42.
