data_PCOD9274277
_publ_section_title
;
Structure prediction by ZEFSAII (Michael W. Deem and Ramdas Pophale) SiO2 
 PCOD9274277
Probable space group: C 2/C
;
_chemical_formula_sum "Si O2"
_cell_formula_units_Z 52
_cell_length_a 13.594252
_cell_length_b 12.590841
_cell_length_c 19.303721
_cell_angle_alpha 90.000000
_cell_angle_beta 133.743584
_cell_angle_gamma 90.000000
_cell_volume 2387.007093
_symmetry_space_group_name_H-M "C 2/C"
_symmetry_group_IT_number 15
_symmetry_cell_setting 'monoclinic'
loop_
_space_group_symop_operation_xyz
x,y,z
-x,y,1/2-z
-x,-y,-z
x,-y,1/2+z
1/2+x,1/2+y,z
1/2-x,1/2+y,1/2-z
1/2-x,1/2-y,-z
1/2+x,1/2-y,1/2+z
loop_
_atom_site_type_symbol
_atom_site_label
_atom_site_fract_x
_atom_site_fract_y
_atom_site_fract_z
Si Si1 0.803926 0.431787 0.001847
Si Si2 0.591958 0.139855 0.700617
Si Si3 0.204153 0.625141 0.602334
Si Si4 0.705820 0.528749 0.605198
Si Si5 0.041049 0.171295 0.026035
Si Si6 0.033308 0.845505 0.854344
Si Si7 0.500000 0.450981 0.250000
O O1 0.722955 0.473626 0.030225
O O2 0.942583 0.393056 0.102718
O O3 0.836289 0.518905 0.959152
O O4 0.695460 0.347928 0.917499
O O5 0.679601 0.129514 0.672940
O O6 0.659971 0.066396 0.791101
O O7 0.572692 0.257108 0.723790
O O8 0.109845 0.722835 0.529796
O O9 0.367603 0.620760 0.672975
O O10 0.581842 0.606580 0.569800
O O11 0.662276 0.410186 0.600684
O O12 0.976735 0.186595 0.070127
O O13 0.985370 0.962658 0.805959
#
# Coordination Sequence:
#
# PCOD9274277 Si02
#       7
#     8   8   8   8   8   8   4
#     4  10  21  38  58  91 126 159 196 253 304 365
#     4  11  21  38  60  93 120 158 203 257 294 367
#     4  10  22  41  61  87 123 160 205 246 311 358
#     4  10  21  38  64  85 126 158 209 246 304 365
#     4   9  20  42  59  85 119 169 196 250 311 366
#     4   9  20  36  61  86 123 161 199 246 312 357
#     4  10  20  38  62  90 118 166 206 252 294 374
#
# _framework density 21.784604000000002
#
# number of rings (size 3 to 8) (size 9 to 14) (size 15 to 20)
#    0.000    2.154    0.000    2.308    2.154    1.846 
#   16.615    0.000    0.000    0.000    0.000    0.000 
#    0.000    0.000    0.000    0.000    0.000    0.000 
#
# Total GULP energy -144749.976401 kJ/mol
# GULP energy per Si atom -5567.306785 kJ/mol
# Density = 2.173502 g / cm^3
# Si number density = 21.784604 Si / 1000 Ang^3
#
#
#
# Elastic Constant Matrix: (Units=GPa)
#
#
# Indices 1 2 3 4 5 6 
#
# 1 71.8833 60.9635 19.9768 0.0000 10.9941 0.0000
# 2 60.9635 94.8393 36.4433 0.0000 7.3671 0.0000
# 3 19.9768 36.4433 91.9046 0.0000 4.7340 0.0000
# 4 0.0000 0.0000 0.0000 27.8822 0.0000 10.9946
# 5 10.9941 7.3671 4.7340 0.0000 29.3627 0.0000
# 6 0.0000 0.0000 0.0000 10.9946 0.0000 37.9805
#
#
#
# Elastic Compliance Matrix: (Units=1/GPa)
#
#
# Indices 1 2 3 4 5 6 
#
# 1 0.032110 -0.020703 0.001595 0.000000 -0.007085 0.000000
# 2 -0.020703 0.025950 -0.005903 0.000000 0.002192 0.000000
# 3 0.001595 -0.005903 0.012937 0.000000 -0.001202 0.000000
# 4 0.000000 0.000000 0.000000 0.040487 0.000000 -0.011720
# 5 -0.007085 0.002192 -0.001202 0.000000 0.036353 0.000000
# 6 0.000000 0.000000 0.000000 -0.011720 0.000000 0.029722
#
#
# Mechanical properties :
#
#
# Convention : Reuss Voigt Hill
#
# Bulk Modulus (GPa) = 47.67647 54.82159 51.24903
# Shear Modulus (GPa) = 21.31537 28.46132 24.88835
#
# Velocity S-wave (km/s) = 3.13143 3.61846 3.38372
# Velocity P-wave (km/s) = 5.91670 6.53281 6.23237
#
# Compressibility (1/GPa) = 0.02097471
#
# Stress axis : x y z
#
# Youngs Moduli (GPa) = 31.14312 38.53545 77.29875
#
# Poissons Ratio (x) = 0.79780 -0.12328
# Poissons Ratio (y) = 0.64475 0.45629
# Poissons Ratio (z) = -0.04967 0.22747
#
# Static dielectric constant tensor:
#      x y z
#    x 1.854500 0.000000 -0.046270 
#    y 0.000000 1.842560 0.000000 
#    z -0.046270 0.000000 1.843380 
# 
# From -- ./inp_files/273881.got.cif
#   From: 2010.05.17/outbox.cif.g08.bks.cpg/sg15_137_cif.got.tgz:273881.got - 2010.06.03 18:47:42.
