data_PCOD9274887
_publ_section_title
;
Structure prediction by ZEFSAII (Michael W. Deem and Ramdas Pophale) SiO2 
 PCOD9274887
Probable space group: C 2/C
;
_chemical_formula_sum "Si O2"
_cell_formula_units_Z 60
_cell_length_a 17.606534
_cell_length_b 15.056232
_cell_length_c 12.207256
_cell_angle_alpha 90.000000
_cell_angle_beta 58.033569
_cell_angle_gamma 90.000000
_cell_volume 2745.286012
_symmetry_space_group_name_H-M "C 2/C"
_symmetry_group_IT_number 15
_symmetry_cell_setting 'monoclinic'
loop_
_space_group_symop_operation_xyz
x,y,z
-x,y,1/2-z
-x,-y,-z
x,-y,1/2+z
1/2+x,1/2+y,z
1/2-x,1/2+y,1/2-z
1/2-x,1/2-y,-z
1/2+x,1/2-y,1/2+z
loop_
_atom_site_type_symbol
_atom_site_label
_atom_site_fract_x
_atom_site_fract_y
_atom_site_fract_z
Si Si1 0.000000 0.434815 0.750000
Si Si2 0.928652 0.742099 0.617103
Si Si3 0.348019 0.148667 0.213153
Si Si4 0.392899 0.335494 0.083390
Si Si5 0.549625 0.933009 0.043423
Si Si6 0.610050 0.353977 0.661554
Si Si7 0.309874 0.686747 0.026541
Si Si8 0.897333 0.949581 0.289325
O O1 0.934275 0.376895 0.723509
O O2 0.937053 0.505297 0.862226
O O3 0.871542 0.777132 0.763992
O O4 0.867791 0.745076 0.556140
O O5 0.003562 0.813244 0.521846
O O6 0.984145 0.653001 0.604912
O O7 0.353895 0.252015 0.178677
O O8 0.255702 0.131306 0.344050
O O9 0.363119 0.099183 0.086809
O O10 0.387883 0.415992 0.171843
O O11 0.355732 0.341598 0.988424
O O12 0.500000 0.000000 0.000000
O O13 0.500000 0.352276 0.750000
O O14 0.640136 0.451139 0.674826
O O15 0.250000 0.750000 0.000000
O O16 0.357738 0.619925 0.906955
O O17 0.000000 0.955472 0.250000
#
# Coordination Sequence:
#
# PCOD9274887 Si02
#       8
#     4   8   8   8   8   8   8   8
#     4  10  22  42  72  98 120 172 234 284 328 392
#     4  10  22  40  65  92 130 170 216 268 344 399
#     4  10  23  40  62  94 129 168 224 275 340 392
#     4  10  20  38  66  89 125 168 215 269 321 403
#     4   9  21  39  67  94 122 167 225 283 322 397
#     4   9  22  38  63  96 126 164 214 268 326 410
#     4  12  25  39  62  98 131 177 222 279 334 400
#     4  11  22  38  64  94 129 169 220 269 325 400
#
# _framework density 21.855647999999999
#
# number of rings (size 3 to 8) (size 9 to 14) (size 15 to 20)
#    0.000    1.867    2.667    0.000   13.067    1.600 
#    2.400    3.333    0.000    0.000    0.000    0.000 
#    0.000    0.000    0.000    0.000    0.000    0.000 
#
# Total GULP energy -167290.455869 kJ/mol
# GULP energy per Si atom -5576.348529 kJ/mol
# Density = 2.180590 g / cm^3
# Si number density = 21.855648 Si / 1000 Ang^3
#
#
#
# Elastic Constant Matrix: (Units=GPa)
#
#
# Indices 1 2 3 4 5 6 
#
# 1 36.2809 13.1754 18.4954 0.0000 11.2529 0.0000
# 2 13.1754 96.5777 52.8089 0.0000 19.6060 0.0000
# 3 18.4954 52.8089 124.3382 0.0000 20.0981 0.0000
# 4 0.0000 0.0000 0.0000 28.4499 0.0000 8.9141
# 5 11.2529 19.6060 20.0981 0.0000 32.1638 0.0000
# 6 0.0000 0.0000 0.0000 8.9141 0.0000 8.6506
#
#
#
# Elastic Compliance Matrix: (Units=1/GPa)
#
#
# Indices 1 2 3 4 5 6 
#
# 1 0.032153 -0.000992 -0.002938 0.000000 -0.008809 0.000000
# 2 -0.000992 0.014335 -0.005099 0.000000 -0.005204 0.000000
# 3 -0.002938 -0.005099 0.011098 0.000000 -0.002798 0.000000
# 4 0.000000 0.000000 0.000000 0.051910 0.000000 -0.053491
# 5 -0.008809 -0.005204 -0.002798 0.000000 0.039094 0.000000
# 6 0.000000 0.000000 0.000000 -0.053491 0.000000 0.170719
#
#
# Mechanical properties :
#
#
# Convention : Reuss Voigt Hill
#
# Bulk Modulus (GPa) = 25.29903 47.35069 36.32486
# Shear Modulus (GPa) = 14.26366 25.36734 19.81550
#
# Velocity S-wave (km/s) = 2.55743 3.41057 3.01434
# Velocity P-wave (km/s) = 4.50791 6.10094 5.36390
#
# Compressibility (1/GPa) = 0.03952720
#
# Stress axis : x y z
#
# Youngs Moduli (GPa) = 31.10173 69.76155 90.10877
#
# Poissons Ratio (x) = 0.06919 0.26471
# Poissons Ratio (y) = 0.03085 0.45950
# Poissons Ratio (z) = 0.09137 0.35574
#
# Static dielectric constant tensor:
#      x y z
#    x 1.800420 0.000000 0.033180 
#    y 0.000000 1.833540 0.000000 
#    z 0.033180 0.000000 1.992600 
# 
# From -- ./inp_files/112703.got.cif
#   From: 2010.05.17/outbox.cif.g08.bks.cpg/sg15_57_cif.got.tgz:112703.got - 2010.06.03 18:47:42.
