data_PCOD9274416
_publ_section_title
;
Structure prediction by ZEFSAII (Michael W. Deem and Ramdas Pophale) SiO2 
 PCOD9274416
Probable space group: C 2/C
;
_chemical_formula_sum "Si O2"
_cell_formula_units_Z 56
_cell_length_a 18.539314
_cell_length_b 7.441351
_cell_length_c 17.730632
_cell_angle_alpha 90.000000
_cell_angle_beta 120.093978
_cell_angle_gamma 90.000000
_cell_volume 2116.353684
_symmetry_space_group_name_H-M "C 2/C"
_symmetry_group_IT_number 15
_symmetry_cell_setting 'monoclinic'
loop_
_space_group_symop_operation_xyz
x,y,z
-x,y,1/2-z
-x,-y,-z
x,-y,1/2+z
1/2+x,1/2+y,z
1/2-x,1/2+y,1/2-z
1/2-x,1/2-y,-z
1/2+x,1/2-y,1/2+z
loop_
_atom_site_type_symbol
_atom_site_label
_atom_site_fract_x
_atom_site_fract_y
_atom_site_fract_z
Si Si1 0.244985 0.793680 0.868244
Si Si2 0.760911 0.007041 0.498375
Si Si3 0.120325 0.646063 0.331769
Si Si4 0.063932 0.152910 0.939034
Si Si5 0.928541 0.607507 0.919914
Si Si6 0.930515 0.740962 0.763508
Si Si7 0.620412 0.728894 0.667581
O O1 0.269701 0.965530 0.932491
O O2 0.158783 0.834944 0.781215
O O3 0.300758 0.674685 0.840618
O O4 0.231144 0.657173 0.929824
O O5 0.705914 0.155060 0.425245
O O6 0.861905 0.016780 0.545074
O O7 0.057310 0.716567 0.362383
O O8 0.088994 0.451592 0.286474
O O9 0.129409 0.763220 0.261581
O O10 0.964630 0.126994 0.901358
O O11 0.099335 0.250443 0.032287
O O12 0.961971 0.709532 0.863992
O O13 0.876595 0.441601 0.857898
O O14 0.000000 0.500000 0.000000
O O15 0.000000 0.837280 0.750000
#
# Coordination Sequence:
#
# PCOD9274416 Si02
#       7
#     8   8   8   8   8   8   8
#     4  10  23  42  60  85 129 175 216 263 326 397
#     4  10  23  41  62  88 126 172 219 263 330 389
#     4  10  20  38  64  90 122 157 210 263 327 382
#     4  11  21  37  63  96 120 164 212 274 322 386
#     4   9  19  34  62  94 120 153 214 266 326 380
#     4  10  20  38  63  88 118 165 214 263 317 394
#     4  10  21  38  62  90 129 164 204 266 327 392
#
# _framework density 26.460605000000001
#
# number of rings (size 3 to 8) (size 9 to 14) (size 15 to 20)
#    0.000    2.000    0.000    4.286    2.000    6.286 
#    5.143    1.429    0.000    0.000    0.000    0.000 
#    0.000    0.000    0.000    0.000    0.000    0.000 
#
# Total GULP energy -156227.693503 kJ/mol
# GULP energy per Si atom -5579.560482 kJ/mol
# Density = 2.640038 g / cm^3
# Si number density = 26.460605 Si / 1000 Ang^3
#
#
#
# Elastic Constant Matrix: (Units=GPa)
#
#
# Indices 1 2 3 4 5 6 
#
# 1 109.0912 4.8461 68.1828 0.0000 1.1916 0.0000
# 2 4.8461 50.8013 8.0448 0.0000 -0.0022 0.0000
# 3 68.1828 8.0448 160.8995 0.0000 -9.2601 0.0000
# 4 0.0000 0.0000 0.0000 3.5371 0.0000 4.3727
# 5 1.1916 -0.0022 -9.2601 0.0000 52.1305 0.0000
# 6 0.0000 0.0000 0.0000 4.3727 0.0000 26.4833
#
#
#
# Elastic Compliance Matrix: (Units=1/GPa)
#
#
# Indices 1 2 3 4 5 6 
#
# 1 0.012555 -0.000347 -0.005374 0.000000 -0.001242 0.000000
# 2 -0.000347 0.019853 -0.000854 0.000000 -0.000143 0.000000
# 3 -0.005374 -0.000854 0.008630 0.000000 0.001656 0.000000
# 4 0.000000 0.000000 0.000000 0.355222 0.000000 -0.058651
# 5 -0.001242 -0.000143 0.001656 0.000000 0.019505 0.000000
# 6 0.000000 0.000000 0.000000 -0.058651 0.000000 0.047444
#
#
# Mechanical properties :
#
#
# Convention : Reuss Voigt Hill
#
# Bulk Modulus (GPa) = 35.85751 53.65993 44.75872
# Shear Modulus (GPa) = 10.29539 32.41141 21.35340
#
# Velocity S-wave (km/s) = 1.97466 3.50364 2.84384
# Velocity P-wave (km/s) = 4.33356 6.05727 5.26642
#
# Compressibility (1/GPa) = 0.02788816
#
# Stress axis : x y z
#
# Youngs Moduli (GPa) = 79.65251 50.37068 115.86895
#
# Poissons Ratio (x) = 0.01746 0.62271
# Poissons Ratio (y) = 0.02761 0.09895
# Poissons Ratio (z) = 0.42807 0.04301
#
# Static dielectric constant tensor:
#      x y z
#    x 2.186410 0.000000 0.062150 
#    y 0.000000 2.461420 0.000000 
#    z 0.062150 0.000000 2.027880 
# 
# From -- ./inp_files/214031.got.cif
#   From: 2010.05.17/outbox.cif.g08.bks.cpg/sg15_108_cif.got.tgz:214031.got - 2010.06.03 18:47:42.
