data_PCOD9274514
_publ_section_title
;
Structure prediction by ZEFSAII (Michael W. Deem and Ramdas Pophale) SiO2 
 PCOD9274514
Probable space group: C 2/C
;
_chemical_formula_sum "Si O2"
_cell_formula_units_Z 56
_cell_length_a 9.488858
_cell_length_b 22.998401
_cell_length_c 15.883632
_cell_angle_alpha 90.000000
_cell_angle_beta 132.718276
_cell_angle_gamma 90.000000
_cell_volume 2546.656711
_symmetry_space_group_name_H-M "C 2/C"
_symmetry_group_IT_number 15
_symmetry_cell_setting 'monoclinic'
loop_
_space_group_symop_operation_xyz
x,y,z
-x,y,1/2-z
-x,-y,-z
x,-y,1/2+z
1/2+x,1/2+y,z
1/2-x,1/2+y,1/2-z
1/2-x,1/2-y,-z
1/2+x,1/2-y,1/2+z
loop_
_atom_site_type_symbol
_atom_site_label
_atom_site_fract_x
_atom_site_fract_y
_atom_site_fract_z
Si Si1 0.813575 0.040312 0.932376
Si Si2 0.369144 0.088470 0.365672
Si Si3 0.500000 0.860164 0.750000
Si Si4 0.344451 0.328048 0.503634
Si Si5 0.066950 0.344552 0.099060
Si Si6 0.100411 0.466727 0.169894
Si Si7 0.500000 0.657634 0.250000
Si Si8 0.187604 0.766678 0.569142
O O1 0.632513 0.031450 0.921968
O O2 0.703154 0.026950 0.800776
O O3 0.878814 0.105915 0.983945
O O4 0.000000 0.000000 0.000000
O O5 0.470654 0.099517 0.318357
O O6 0.478832 0.126997 0.478698
O O7 0.163549 0.117109 0.279216
O O8 0.345396 0.019879 0.368129
O O9 0.320547 0.817768 0.659103
O O10 0.416462 0.314604 0.629320
O O11 0.465916 0.286906 0.490819
O O12 0.113195 0.324543 0.416299
O O13 0.164851 0.401287 0.175666
O O14 0.200838 0.291043 0.131161
O O15 0.250000 0.750000 0.500000
#
# Coordination Sequence:
#
# PCOD9274514 Si02
#       8
#     8   8   4   8   8   8   4   8
#     4  10  21  37  64  97 133 173 220 268 339 402
#     4  11  21  40  67  93 129 173 224 271 335 400
#     4  12  24  40  67  97 130 180 220 276 338 408
#     4  10  22  40  65  91 126 174 219 272 329 401
#     4  10  23  43  63  94 130 173 219 274 338 390
#     4  10  22  40  64  98 135 171 220 284 332 395
#     4  10  20  38  63  97 122 164 228 264 318 408
#     4  12  25  43  63  95 133 169 225 275 338 403
#
# _framework density 21.989616000000002
#
# number of rings (size 3 to 8) (size 9 to 14) (size 15 to 20)
#    0.000    1.429    2.857    2.571    2.000    1.143 
#    0.000    5.000    0.000    0.000    0.000    0.000 
#    0.000    0.000    0.000    0.000    0.000    0.000 
#
# Total GULP energy -156134.246151 kJ/mol
# GULP energy per Si atom -5576.223077 kJ/mol
# Density = 2.193957 g / cm^3
# Si number density = 21.989616 Si / 1000 Ang^3
#
#
#
# Elastic Constant Matrix: (Units=GPa)
#
#
# Indices 1 2 3 4 5 6 
#
# 1 88.4859 29.8918 6.5865 -0.0001 -14.0323 -0.0001
# 2 29.8918 107.3506 8.8026 0.0000 -0.7997 0.0000
# 3 6.5865 8.8026 43.5521 -0.0002 -4.4029 -0.0001
# 4 -0.0001 0.0000 -0.0002 -23.3587 -0.0001 -27.7636
# 5 -14.0323 -0.7997 -4.4029 -0.0001 14.5325 -0.0001
# 6 -0.0001 0.0000 -0.0001 -27.7636 -0.0001 -19.4640
#
#
#
# Elastic Compliance Matrix: (Units=1/GPa)
#
#
# Indices 1 2 3 4 5 6 
#
# 1 0.014918 -0.004048 -0.000004 0.000000 0.014180 0.000000
# 2 -0.004048 0.010571 -0.001919 0.000000 -0.003908 0.000000
# 3 -0.000004 -0.001919 0.024076 0.000000 0.007184 0.000000
# 4 0.000000 0.000000 0.000000 0.061563 0.000000 -0.087814
# 5 0.014180 -0.003908 0.007184 0.000000 0.084465 0.000000
# 6 0.000000 0.000000 0.000000 -0.087814 0.000000 0.073881
#
#
# Mechanical properties :
#
#
# Convention : Reuss Voigt Hill
#
# Bulk Modulus (GPa) = 26.58092 36.66114 31.62103
# Shear Modulus (GPa) = 17.00931 7.28249 12.14590
#
# Velocity S-wave (km/s) = 2.78423 1.82181 2.35276
# Velocity P-wave (km/s) = 4.73816 4.59712 4.66817
#
# Compressibility (1/GPa) = 0.03762097
#
# Stress axis : x y z
#
# Youngs Moduli (GPa) = 67.03448 94.60139 41.53532
#
# Poissons Ratio (x) = 0.38293 0.00018
# Poissons Ratio (y) = 0.27135 0.07972
# Poissons Ratio (z) = 0.00029 0.18158
#
# Static dielectric constant tensor:
#      x y z
#    x 1.827460 0.000000 -0.016820 
#    y 0.000000 1.822980 0.000000 
#    z -0.016820 0.000000 1.869670 
# 
# From -- ./inp_files/193331.got.cif
#   From: 2010.05.17/outbox.cif.g08.bks.cpg/sg15_97_cif.got.tgz:193331.got - 2010.06.03 18:47:42.
