data_PCOD9274312
_publ_section_title
;
Structure prediction by ZEFSAII (Michael W. Deem and Ramdas Pophale) SiO2 
 PCOD9274312
Probable space group: C 2/C
;
_chemical_formula_sum "Si O2"
_cell_formula_units_Z 60
_cell_length_a 11.827378
_cell_length_b 18.566359
_cell_length_c 14.315008
_cell_angle_alpha 90.000000
_cell_angle_beta 116.514982
_cell_angle_gamma 90.000000
_cell_volume 2812.816241
_symmetry_space_group_name_H-M "C 2/C"
_symmetry_group_IT_number 15
_symmetry_cell_setting 'monoclinic'
loop_
_space_group_symop_operation_xyz
x,y,z
-x,y,1/2-z
-x,-y,-z
x,-y,1/2+z
1/2+x,1/2+y,z
1/2-x,1/2+y,1/2-z
1/2-x,1/2-y,-z
1/2+x,1/2-y,1/2+z
loop_
_atom_site_type_symbol
_atom_site_label
_atom_site_fract_x
_atom_site_fract_y
_atom_site_fract_z
Si Si1 0.635430 0.796069 0.251815
Si Si2 0.907507 0.824241 0.912248
Si Si3 0.686826 0.591751 0.956153
Si Si4 0.926924 0.054746 0.128000
Si Si5 0.500000 0.323913 0.250000
Si Si6 0.649732 0.913649 0.588665
Si Si7 0.612279 0.751897 0.616334
Si Si8 0.400799 0.067333 0.888852
O O1 0.500000 0.788817 0.250000
O O2 0.648471 0.730054 0.183887
O O3 0.754244 0.784179 0.363020
O O4 0.638203 0.872766 0.200349
O O5 0.984969 0.888716 0.892295
O O6 0.811762 0.860361 0.950528
O O7 0.005230 0.775928 0.007108
O O8 0.617350 0.515200 0.946449
O O9 0.597595 0.630090 0.846963
O O10 0.820564 0.581253 0.954418
O O11 0.793895 0.089740 0.108669
O O12 0.000000 0.032477 0.250000
O O13 0.422369 0.277794 0.295099
O O14 0.616876 0.837383 0.619510
O O15 0.548568 0.925624 0.467773
O O16 0.633031 0.984598 0.647002
#
# Coordination Sequence:
#
# PCOD9274312 Si02
#       8
#     8   8   8   8   4   8   8   8
#     4  12  25  41  64  92 130 172 214 271 325 385
#     4  11  24  38  64  97 123 168 220 269 325 375
#     4  10  21  41  66  90 128 168 211 268 319 384
#     4  11  22  40  66  94 133 167 215 268 321 383
#     4  10  20  38  62  92 118 164 208 268 318 368
#     4  10  22  40  65  88 125 171 204 263 318 387
#     4  11  23  40  64  91 127 161 219 268 323 382
#     4  10  22  43  63  89 127 170 213 257 326 382
#
# _framework density 21.330935
#
# number of rings (size 3 to 8) (size 9 to 14) (size 15 to 20)
#    0.000    1.333    3.333    2.400    1.867    2.667 
#    1.200    1.333    0.000    0.000    0.000    0.000 
#    0.000    0.000    0.000    0.000    0.000    0.000 
#
# Total GULP energy -167705.472460 kJ/mol
# GULP energy per Si atom -5590.182415 kJ/mol
# Density = 2.128239 g / cm^3
# Si number density = 21.330935 Si / 1000 Ang^3
#
#
#
# Elastic Constant Matrix: (Units=GPa)
#
#
# Indices 1 2 3 4 5 6 
#
# 1 74.2879 -0.6632 6.1890 0.0000 12.9223 0.0000
# 2 -0.6632 114.4032 17.3879 0.0000 -11.5863 0.0000
# 3 6.1890 17.3879 20.0532 0.0000 -1.0384 0.0000
# 4 0.0000 0.0000 0.0000 30.3353 0.0000 -2.1007
# 5 12.9223 -11.5863 -1.0384 0.0000 20.8377 0.0000
# 6 0.0000 0.0000 0.0000 -2.1007 0.0000 25.9952
#
#
#
# Elastic Compliance Matrix: (Units=1/GPa)
#
#
# Indices 1 2 3 4 5 6 
#
# 1 0.015641 -0.000130 -0.005234 0.000000 -0.010033 0.000000
# 2 -0.000130 0.010658 -0.008914 0.000000 0.005563 0.000000
# 3 -0.005234 -0.008914 0.059276 0.000000 0.001244 0.000000
# 4 0.000000 0.000000 0.000000 0.033150 0.000000 0.002679
# 5 -0.010033 0.005563 0.001244 0.000000 0.057367 0.000000
# 6 0.000000 0.000000 0.000000 0.002679 0.000000 0.038685
#
#
# Mechanical properties :
#
#
# Convention : Reuss Voigt Hill
#
# Bulk Modulus (GPa) = 17.53767 28.28577 22.91172
# Shear Modulus (GPa) = 19.05922 27.82233 23.44078
#
# Velocity S-wave (km/s) = 2.99239 3.61545 3.31858
# Velocity P-wave (km/s) = 4.49208 5.54237 5.04463
#
# Compressibility (1/GPa) = 0.05702011
#
# Stress axis : x y z
#
# Youngs Moduli (GPa) = 63.93350 93.82273 16.87023
#
# Poissons Ratio (x) = 0.01218 0.08830
# Poissons Ratio (y) = 0.00830 0.15038
# Poissons Ratio (z) = 0.33465 0.83630
#
# Static dielectric constant tensor:
#      x y z
#    x 1.775990 0.000000 0.005300 
#    y 0.000000 1.773560 0.000000 
#    z 0.005300 0.000000 1.769320 
# 
# From -- ./inp_files/146026.got.cif
#   From: 2010.05.17/outbox.cif.g08.bks.cpg/sg15_74_cif.got.tgz:146026.got - 2010.06.03 18:47:42.
