data_PCOD9274336
_publ_section_title
;
Structure prediction by ZEFSAII (Michael W. Deem and Ramdas Pophale) SiO2 
 PCOD9274336
Probable space group: C 2/C
;
_chemical_formula_sum "Si O2"
_cell_formula_units_Z 52
_cell_length_a 20.328813
_cell_length_b 20.141514
_cell_length_c 10.684723
_cell_angle_alpha 90.000000
_cell_angle_beta 147.271091
_cell_angle_gamma 90.000000
_cell_volume 2365.350645
_symmetry_space_group_name_H-M "C 2/C"
_symmetry_group_IT_number 15
_symmetry_cell_setting 'monoclinic'
loop_
_space_group_symop_operation_xyz
x,y,z
-x,y,1/2-z
-x,-y,-z
x,-y,1/2+z
1/2+x,1/2+y,z
1/2-x,1/2+y,1/2-z
1/2-x,1/2-y,-z
1/2+x,1/2-y,1/2+z
loop_
_atom_site_type_symbol
_atom_site_label
_atom_site_fract_x
_atom_site_fract_y
_atom_site_fract_z
Si Si1 0.185469 0.115543 0.035024
Si Si2 0.665107 0.996594 0.824758
Si Si3 0.000000 0.550323 0.250000
Si Si4 0.713380 0.880173 0.218089
Si Si5 0.550028 0.350124 0.058289
Si Si6 0.883583 0.044036 0.335428
Si Si7 0.913518 0.245808 0.492079
O O1 0.128695 0.062403 0.039598
O O2 0.307639 0.075700 0.193187
O O3 0.109777 0.126443 0.786909
O O4 0.172388 0.185098 0.091184
O O5 0.696515 0.059518 0.787828
O O6 0.535858 0.994281 0.688242
O O7 0.764827 0.009260 0.094170
O O8 0.116780 0.596226 0.458247
O O9 0.847802 0.866786 0.379206
O O10 0.663181 0.808236 0.175903
O O11 0.502094 0.277960 0.021464
O O12 0.424997 0.389175 0.831021
O O13 0.000000 0.000000 0.500000
O O14 0.000000 0.261082 0.750000
#
# Coordination Sequence:
#
# PCOD9274336 Si02
#       7
#     8   8   4   8   8   8   8
#     4  10  20  38  62  93 124 167 212 271 319 374
#     4  12  25  39  64  96 135 172 213 269 330 397
#     4  12  24  44  56  94 132 172 220 262 328 392
#     4  12  24  42  65  96 130 173 217 270 331 391
#     4  10  21  39  64  96 125 161 221 269 323 378
#     4  11  20  36  61  94 126 163 211 265 324 377
#     4   9  21  39  64  94 130 166 221 269 322 377
#
# _framework density 21.984055999999999
#
# number of rings (size 3 to 8) (size 9 to 14) (size 15 to 20)
#    0.000    1.231    3.846    3.692    0.000    5.538 
#    0.000    4.615    0.000    0.000    0.000    0.000 
#    0.000    0.000    0.000    0.000    0.000    0.000 
#
# Total GULP energy -144873.101099 kJ/mol
# GULP energy per Si atom -5572.042350 kJ/mol
# Density = 2.193402 g / cm^3
# Si number density = 21.984056 Si / 1000 Ang^3
#
#
#
# Elastic Constant Matrix: (Units=GPa)
#
#
# Indices 1 2 3 4 5 6 
#
# 1 137.7850 51.1306 15.3830 0.0000 31.9846 0.0000
# 2 51.1306 115.0355 20.9610 0.0000 9.5412 0.0000
# 3 15.3830 20.9610 29.5391 0.0000 19.2010 0.0000
# 4 0.0000 0.0000 0.0000 37.4973 0.0000 10.8534
# 5 31.9846 9.5412 19.2010 0.0000 31.1427 0.0000
# 6 0.0000 0.0000 0.0000 10.8534 0.0000 23.5824
#
#
#
# Elastic Compliance Matrix: (Units=1/GPa)
#
#
# Indices 1 2 3 4 5 6 
#
# 1 0.011983 -0.005435 0.007566 0.000000 -0.015307 0.000000
# 2 -0.005435 0.012539 -0.012013 0.000000 0.009147 0.000000
# 3 0.007566 -0.012013 0.068582 0.000000 -0.046375 0.000000
# 4 0.000000 0.000000 0.000000 0.030767 0.000000 -0.014160
# 5 -0.015307 0.009147 -0.046375 0.000000 0.073621 0.000000
# 6 0.000000 0.000000 0.000000 -0.014160 0.000000 0.048922
#
#
# Mechanical properties :
#
#
# Convention : Reuss Voigt Hill
#
# Bulk Modulus (GPa) = 13.63516 50.81210 32.22363
# Shear Modulus (GPa) = 17.20430 31.43681 24.32056
#
# Velocity S-wave (km/s) = 2.80050 3.78561 3.32969
# Velocity P-wave (km/s) = 4.08324 6.50163 5.42881
#
# Compressibility (1/GPa) = 0.07333980
#
# Stress axis : x y z
#
# Youngs Moduli (GPa) = 83.45034 79.75037 14.58104
#
# Poissons Ratio (x) = 0.43347 -0.11032
# Poissons Ratio (y) = 0.45358 0.17517
# Poissons Ratio (z) = -0.63140 0.95806
#
# Static dielectric constant tensor:
#      x y z
#    x 1.873470 0.000000 -0.025630 
#    y 0.000000 1.942170 0.000000 
#    z -0.025630 0.000000 1.866180 
# 
# From -- ./inp_files/114394.got.cif
#   From: 2010.05.17/outbox.cif.g08.bks.cpg/sg15_58_cif.got.tgz:114394.got - 2010.06.03 18:47:42.
