data_PCOD9274380
_publ_section_title
;
Structure prediction by ZEFSAII (Michael W. Deem and Ramdas Pophale) SiO2 
 PCOD9274380
Probable space group: C 2/C
;
_chemical_formula_sum "Si O2"
_cell_formula_units_Z 64
_cell_length_a 13.645952
_cell_length_b 13.706028
_cell_length_c 16.924194
_cell_angle_alpha 90.000000
_cell_angle_beta 52.114690
_cell_angle_gamma 90.000000
_cell_volume 2498.235598
_symmetry_space_group_name_H-M "C 2/C"
_symmetry_group_IT_number 15
_symmetry_cell_setting 'monoclinic'
loop_
_space_group_symop_operation_xyz
x,y,z
-x,y,1/2-z
-x,-y,-z
x,-y,1/2+z
1/2+x,1/2+y,z
1/2-x,1/2+y,1/2-z
1/2-x,1/2-y,-z
1/2+x,1/2-y,1/2+z
loop_
_atom_site_type_symbol
_atom_site_label
_atom_site_fract_x
_atom_site_fract_y
_atom_site_fract_z
Si Si1 0.213029 0.985490 0.532707
Si Si2 0.513408 0.190699 0.865698
Si Si3 0.412250 0.207781 0.082719
Si Si4 0.639257 0.455212 0.219880
Si Si5 0.808416 0.356705 0.352473
Si Si6 0.368464 0.225167 0.272104
Si Si7 0.951643 0.907564 0.612635
Si Si8 0.858423 0.164277 0.009341
O O1 0.295581 0.950261 0.417889
O O2 0.089779 0.924750 0.574916
O O3 0.233619 0.983584 0.616523
O O4 0.182336 0.100825 0.543708
O O5 0.612819 0.127222 0.767029
O O6 0.398390 0.208253 0.863608
O O7 0.576142 0.295243 0.851116
O O8 0.457143 0.157160 0.978361
O O9 0.315178 0.293102 0.103225
O O10 0.360436 0.169441 0.191786
O O11 0.542742 0.252033 0.051093
O O12 0.500000 0.464977 0.250000
O O13 0.654809 0.341153 0.229237
O O14 0.632224 0.512511 0.305000
O O15 0.500000 0.211693 0.250000
O O16 0.263175 0.193715 0.384673
O O17 0.932396 0.910300 0.529094
#
# Coordination Sequence:
#
# PCOD9274380 Si02
#       8
#     8   8   8   8   8   8   8   8
#     4  11  22  37  63  92 129 173 210 272 321 373
#     4  10  23  38  61  99 136 168 203 253 328 424
#     4  11  21  39  69  95 124 168 216 267 332 371
#     4   9  21  37  63  95 128 159 217 273 323 366
#     4  11  23  37  63  98 140 168 202 262 333 403
#     4  11  25  45  65  92 130 174 224 281 319 380
#     4  10  20  38  63 100 125 157 213 273 319 379
#     4  11  23  40  65  94 122 170 225 263 314 382
#
# _framework density 25.618082000000001
#
# number of rings (size 3 to 8) (size 9 to 14) (size 15 to 20)
#    0.000    1.500    2.500    4.500    7.000    3.000 
#    2.250    0.000    0.000    0.750    0.000    0.000 
#    0.000    0.000    0.000    0.000    0.000    0.000 
#
# Total GULP energy -178651.034719 kJ/mol
# GULP energy per Si atom -5582.844835 kJ/mol
# Density = 2.555977 g / cm^3
# Si number density = 25.618082 Si / 1000 Ang^3
#
#
#
# Elastic Constant Matrix: (Units=GPa)
#
#
# Indices 1 2 3 4 5 6 
#
# 1 73.3140 -2.4271 24.7612 0.0000 -3.1265 0.0000
# 2 -2.4271 21.1615 16.2446 0.0000 -4.1178 0.0000
# 3 24.7612 16.2446 166.5280 0.0000 3.3040 0.0000
# 4 0.0000 0.0000 0.0000 48.4161 0.0000 3.8713
# 5 -3.1265 -4.1178 3.3040 0.0000 50.0631 0.0000
# 6 0.0000 0.0000 0.0000 3.8713 0.0000 16.6349
#
#
#
# Elastic Compliance Matrix: (Units=1/GPa)
#
#
# Indices 1 2 3 4 5 6 
#
# 1 0.014710 0.003960 -0.002602 0.000000 0.001416 0.000000
# 2 0.003960 0.053197 -0.005877 0.000000 0.005011 0.000000
# 3 -0.002602 -0.005877 0.006987 0.000000 -0.001107 0.000000
# 4 0.000000 0.000000 0.000000 0.021046 0.000000 -0.004898
# 5 0.001416 0.005011 -0.001107 0.000000 0.020548 0.000000
# 6 0.000000 0.000000 0.000000 -0.004898 0.000000 0.061254
#
#
# Mechanical properties :
#
#
# Convention : Reuss Voigt Hill
#
# Bulk Modulus (GPa) = 15.18479 37.57343 26.37911
# Shear Modulus (GPa) = 23.95406 37.85113 30.90260
#
# Velocity S-wave (km/s) = 3.06117 3.84802 3.47692
# Velocity P-wave (km/s) = 4.29355 5.86870 5.14180
#
# Compressibility (1/GPa) = 0.06585537
#
# Stress axis : x y z
#
# Youngs Moduli (GPa) = 67.98034 18.79820 143.12009
#
# Poissons Ratio (x) = -0.07444 0.37235
# Poissons Ratio (y) = -0.26919 0.84118
# Poissons Ratio (z) = 0.17686 0.11049
#
# Static dielectric constant tensor:
#      x y z
#    x 2.046890 0.000000 0.012260 
#    y 0.000000 2.039500 0.000000 
#    z 0.012260 0.000000 2.110410 
# 
# From -- ./inp_files/205680.got.cif
#   From: 2010.05.17/outbox.cif.g08.bks.cpg/sg15_103_cif.got.tgz:205680.got - 2010.06.03 18:47:42.
