data_PCOD9274088
_publ_section_title
;
Structure prediction by ZEFSAII (Michael W. Deem and Ramdas Pophale) SiO2 
 PCOD9274088
Probable space group: C 2/C
;
_chemical_formula_sum "Si O2"
_cell_formula_units_Z 48
_cell_length_a 15.598474
_cell_length_b 8.453123
_cell_length_c 20.678250
_cell_angle_alpha 90.000000
_cell_angle_beta 117.653637
_cell_angle_gamma 90.000000
_cell_volume 2415.092646
_symmetry_space_group_name_H-M "C 2/C"
_symmetry_group_IT_number 15
_symmetry_cell_setting 'monoclinic'
loop_
_space_group_symop_operation_xyz
x,y,z
-x,y,1/2-z
-x,-y,-z
x,-y,1/2+z
1/2+x,1/2+y,z
1/2-x,1/2+y,1/2-z
1/2-x,1/2-y,-z
1/2+x,1/2-y,1/2+z
loop_
_atom_site_type_symbol
_atom_site_label
_atom_site_fract_x
_atom_site_fract_y
_atom_site_fract_z
Si Si1 0.362492 0.137221 0.850141
Si Si2 0.972674 0.860474 0.580857
Si Si3 0.751937 0.763881 0.923642
Si Si4 0.898759 0.965402 0.179463
Si Si5 0.645172 0.575515 0.584165
Si Si6 0.243809 0.336039 0.707805
O O1 0.470374 0.201474 0.881002
O O2 0.331915 0.153419 0.914903
O O3 0.290897 0.258005 0.787269
O O4 0.340293 0.966014 0.813403
O O5 0.916320 0.932151 0.621344
O O6 0.903763 0.842355 0.495022
O O7 0.057470 0.985263 0.590349
O O8 0.652556 0.696509 0.859899
O O9 0.782090 0.940635 0.915528
O O10 0.750000 0.750000 0.000000
O O11 0.828078 0.065104 0.201337
O O12 0.000000 0.939049 0.250000
O O13 0.700255 0.697034 0.648985
#
# Coordination Sequence:
#
# PCOD9274088 Si02
#       6
#     8   8   8   8   8   8
#     4  10  21  38  61  87 122 165 207 260 316 378
#     4  10  20  40  63  88 125 163 207 257 313 372
#     4  10  20  38  61  89 122 164 205 245 316 378
#     4  11  22  39  63  91 125 166 207 263 314 368
#     4  10  22  39  64  89 124 165 206 257 314 386
#     4  11  23  40  64  89 124 165 211 260 323 376
#
# _framework density 19.875012999999999
#
# number of rings (size 3 to 8) (size 9 to 14) (size 15 to 20)
#    0.000    1.667    3.333    2.000    2.333    1.333 
#    0.000    2.500    0.000    0.000    0.000    0.000 
#    0.000    0.000    0.000    0.000    0.000    0.000 
#
# Total GULP energy -134051.895123 kJ/mol
# GULP energy per Si atom -5585.495630 kJ/mol
# Density = 1.982978 g / cm^3
# Si number density = 19.875013 Si / 1000 Ang^3
#
#
#
# Elastic Constant Matrix: (Units=GPa)
#
#
# Indices 1 2 3 4 5 6 
#
# 1 57.2082 14.1856 22.5240 0.0000 2.2936 0.0000
# 2 14.1856 69.4104 21.0510 0.0000 -0.5083 0.0000
# 3 22.5240 21.0510 101.8029 0.0000 -0.0710 0.0000
# 4 0.0000 0.0000 0.0000 29.3920 0.0000 6.3613
# 5 2.2936 -0.5083 -0.0710 0.0000 30.4067 0.0000
# 6 0.0000 0.0000 0.0000 6.3613 0.0000 30.4709
#
#
#
# Elastic Compliance Matrix: (Units=1/GPa)
#
#
# Indices 1 2 3 4 5 6 
#
# 1 0.019746 -0.002904 -0.003769 0.000000 -0.001547 0.000000
# 2 -0.002904 0.015800 -0.002624 0.000000 0.000477 0.000000
# 3 -0.003769 -0.002624 0.011200 0.000000 0.000267 0.000000
# 4 0.000000 0.000000 0.000000 0.035633 0.000000 -0.007439
# 5 -0.001547 0.000477 0.000267 0.000000 0.033013 0.000000
# 6 0.000000 0.000000 0.000000 -0.007439 0.000000 0.034371
#
#
# Mechanical properties :
#
#
# Convention : Reuss Voigt Hill
#
# Bulk Modulus (GPa) = 35.52304 38.21585 36.86944
# Shear Modulus (GPa) = 28.13079 29.43134 28.78106
#
# Velocity S-wave (km/s) = 3.76624 3.85232 3.80952
# Velocity P-wave (km/s) = 6.06834 6.24956 6.15962
#
# Compressibility (1/GPa) = 0.02815075
#
# Stress axis : x y z
#
# Youngs Moduli (GPa) = 50.64281 63.29146 89.28761
#
# Poissons Ratio (x) = 0.18378 0.33657
# Poissons Ratio (y) = 0.14705 0.23432
# Poissons Ratio (z) = 0.19090 0.16610
#
# Static dielectric constant tensor:
#      x y z
#    x 1.712890 0.000000 -0.015030 
#    y 0.000000 1.696490 0.000000 
#    z -0.015030 0.000000 1.695580 
# 
# From -- ./inp_files/242596.got.cif
#   From: 2010.05.17/outbox.cif.g08.bks.cpg/sg15_122_cif.got.tgz:242596.got - 2010.06.03 18:47:42.
