data_PCOD9274165
_publ_section_title
;
Structure prediction by ZEFSAII (Michael W. Deem and Ramdas Pophale) SiO2 
 PCOD9274165
Probable space group: C 2/C
;
_chemical_formula_sum "Si O2"
_cell_formula_units_Z 36
_cell_length_a 9.914733
_cell_length_b 16.173262
_cell_length_c 12.118237
_cell_angle_alpha 90.000000
_cell_angle_beta 62.067305
_cell_angle_gamma 90.000000
_cell_volume 1716.816539
_symmetry_space_group_name_H-M "C 2/C"
_symmetry_group_IT_number 15
_symmetry_cell_setting 'monoclinic'
loop_
_space_group_symop_operation_xyz
x,y,z
-x,y,1/2-z
-x,-y,-z
x,-y,1/2+z
1/2+x,1/2+y,z
1/2-x,1/2+y,1/2-z
1/2-x,1/2-y,-z
1/2+x,1/2-y,1/2+z
loop_
_atom_site_type_symbol
_atom_site_label
_atom_site_fract_x
_atom_site_fract_y
_atom_site_fract_z
Si Si1 0.743952 0.072211 0.472841
Si Si2 0.236238 0.111568 0.585631
Si Si3 0.000000 0.830761 0.750000
Si Si4 0.009696 0.284583 0.035414
Si Si5 0.594578 0.367439 0.380696
O O1 0.604682 0.135707 0.536779
O O2 0.837236 0.074248 0.551517
O O3 0.859056 0.110434 0.337522
O O4 0.698901 0.979587 0.460721
O O5 0.364165 0.181346 0.525655
O O6 0.177307 0.117904 0.733956
O O7 0.086219 0.121624 0.568168
O O8 0.969460 0.772205 0.656161
O O9 0.113065 0.225827 0.918998
#
# Coordination Sequence:
#
# PCOD9274165 Si02
#       5
#     8   8   4   8   8
#     4  11  22  38  60  85 111 149 190 230 278 331
#     4  11  22  38  58  86 116 144 186 238 278 324
#     4  10  20  38  62  82 112 152 188 222 274 350
#     4  11  21  38  60  86 113 146 187 234 278 328
#     4  10  22  39  58  82 113 153 187 221 281 344
#
# _framework density 20.969044
#
# number of rings (size 3 to 8) (size 9 to 14) (size 15 to 20)
#    0.000    1.333    0.000    8.667    0.000    1.778 
#    0.000    4.444    0.000    0.000    0.000    0.000 
#    0.000    0.000    0.000    0.000    0.000    0.000 
#
# Total GULP energy -100650.415224 kJ/mol
# GULP energy per Si atom -5591.689735 kJ/mol
# Density = 2.092132 g / cm^3
# Si number density = 20.969044 Si / 1000 Ang^3
#
#
#
# Elastic Constant Matrix: (Units=GPa)
#
#
# Indices 1 2 3 4 5 6 
#
# 1 58.1704 -0.3786 9.8416 0.0000 18.0162 0.0000
# 2 -0.3786 98.9389 11.7397 0.0000 18.7832 0.0000
# 3 9.8416 11.7397 44.7296 0.0000 17.4885 0.0000
# 4 0.0000 0.0000 0.0000 8.3270 0.0000 -1.5060
# 5 18.0162 18.7832 17.4885 0.0000 25.9708 0.0000
# 6 0.0000 0.0000 0.0000 -1.5060 0.0000 35.5832
#
#
#
# Elastic Compliance Matrix: (Units=1/GPa)
#
#
# Indices 1 2 3 4 5 6 
#
# 1 0.023049 0.003639 0.001702 0.000000 -0.019767 0.000000
# 2 0.003639 0.012294 0.000592 0.000000 -0.011814 0.000000
# 3 0.001702 0.000592 0.030481 0.000000 -0.022135 0.000000
# 4 0.000000 0.000000 0.000000 0.121017 0.000000 0.005122
# 5 -0.019767 -0.011814 -0.022135 0.000000 0.075668 0.000000
# 6 0.000000 0.000000 0.000000 0.005122 0.000000 0.028320
#
#
# Mechanical properties :
#
#
# Convention : Reuss Voigt Hill
#
# Bulk Modulus (GPa) = 12.87165 27.13827 20.00496
# Shear Modulus (GPa) = 16.40104 26.01860 21.20982
#
# Velocity S-wave (km/s) = 2.79974 3.52634 3.18383
# Velocity P-wave (km/s) = 4.07469 5.43601 4.80382
#
# Compressibility (1/GPa) = 0.07769014
#
# Stress axis : x y z
#
# Youngs Moduli (GPa) = 43.38615 81.34144 32.80742
#
# Poissons Ratio (x) = -0.29600 -0.05585
# Poissons Ratio (y) = -0.15788 -0.01942
# Poissons Ratio (z) = -0.07386 -0.04815
#
# Static dielectric constant tensor:
#      x y z
#    x 1.780370 0.000000 -0.014390 
#    y 0.000000 1.735590 0.000000 
#    z -0.014390 0.000000 1.725360 
# 
# From -- ./inp_files/76573.got.cif
#   From: 2010.05.17/outbox.cif.g08.bks.cpg/sg15_39_cif.got.tgz:76573.got - 2010.06.03 18:47:42.
