data_PCOD9274948
_publ_section_title
;
Structure prediction by ZEFSAII (Michael W. Deem and Ramdas Pophale) SiO2 
 PCOD9274948
Probable space group: C 2/C
;
_chemical_formula_sum "Si O2"
_cell_formula_units_Z 40
_cell_length_a 22.538060
_cell_length_b 4.985533
_cell_length_c 23.085250
_cell_angle_alpha 90.000000
_cell_angle_beta 145.148421
_cell_angle_gamma 90.000000
_cell_volume 1482.323133
_symmetry_space_group_name_H-M "C 2/C"
_symmetry_group_IT_number 15
_symmetry_cell_setting 'monoclinic'
loop_
_space_group_symop_operation_xyz
x,y,z
-x,y,1/2-z
-x,-y,-z
x,-y,1/2+z
1/2+x,1/2+y,z
1/2-x,1/2+y,1/2-z
1/2-x,1/2-y,-z
1/2+x,1/2-y,1/2+z
loop_
_atom_site_type_symbol
_atom_site_label
_atom_site_fract_x
_atom_site_fract_y
_atom_site_fract_z
Si Si1 0.690372 0.705696 0.369586
Si Si2 0.735762 0.171133 0.276030
Si Si3 0.359296 0.079761 0.070328
Si Si4 0.880178 0.974868 0.985988
Si Si5 0.549712 0.775981 0.162289
O O1 0.741541 0.496816 0.454699
O O2 0.608399 0.599867 0.258128
O O3 0.643395 0.962332 0.366317
O O4 0.790455 0.802527 0.414826
O O5 0.715803 0.454262 0.229814
O O6 0.825451 0.220111 0.396177
O O7 0.630229 0.012617 0.209964
O O8 0.451434 0.903425 0.116316
O O9 0.381970 0.347731 0.051778
O O10 0.992178 0.105437 0.066447
#
# Coordination Sequence:
#
# PCOD9274948 Si02
#       5
#     8   8   8   8   8
#     4   9  20  39  61  98 137 176 219 271 345 411
#     4  11  28  47  71 100 136 182 238 300 358 405
#     4  10  20  38  66  95 135 176 224 276 339 419
#     4  10  23  40  68  98 135 180 230 285 343 419
#     4  10  23  40  65  98 134 179 228 288 342 420
#
# _framework density 26.984669
#
# number of rings (size 3 to 8) (size 9 to 14) (size 15 to 20)
#    0.000    2.000    0.000    1.200   11.200    3.200 
#    0.000    6.000    0.000    0.000    0.000    0.000 
#    0.000    0.000    0.000    0.000    0.000    0.000 
#
# Total GULP energy -111613.148082 kJ/mol
# GULP energy per Si atom -5580.657404 kJ/mol
# Density = 2.692325 g / cm^3
# Si number density = 26.984669 Si / 1000 Ang^3
#
#
#
# Elastic Constant Matrix: (Units=GPa)
#
#
# Indices 1 2 3 4 5 6 
#
# 1 86.4428 11.2473 39.9320 -0.0025 11.9247 -0.0087
# 2 11.2473 105.0150 32.9376 -0.0017 -5.4552 -0.0182
# 3 39.9320 32.9376 158.2949 0.0010 24.4448 -0.0018
# 4 -0.0025 -0.0017 0.0010 28.9675 -0.0001 -7.4348
# 5 11.9247 -5.4552 24.4448 -0.0001 34.4103 -0.0021
# 6 -0.0087 -0.0182 -0.0018 -7.4348 -0.0021 33.2187
#
#
#
# Elastic Compliance Matrix: (Units=1/GPa)
#
#
# Indices 1 2 3 4 5 6 
#
# 1 0.013328 -0.000694 -0.002794 0.000002 -0.002744 0.000003
# 2 -0.000694 0.010614 -0.002618 0.000002 0.003783 0.000006
# 3 -0.002794 -0.002618 0.008403 -0.000001 -0.005416 -0.000002
# 4 0.000002 0.000002 -0.000001 0.036625 0.000001 0.008197
# 5 -0.002744 0.003783 -0.005416 0.000001 0.034459 0.000004
# 6 0.000003 0.000006 -0.000002 0.008197 0.000004 0.031938
#
#
# Mechanical properties :
#
#
# Convention : Reuss Voigt Hill
#
# Bulk Modulus (GPa) = 49.66608 57.55404 53.61006
# Shear Modulus (GPa) = 32.40634 37.02835 34.71735
#
# Velocity S-wave (km/s) = 3.46918 3.70834 3.59075
# Velocity P-wave (km/s) = 5.87301 6.30162 6.09109
#
# Compressibility (1/GPa) = 0.02013446
#
# Stress axis : x y z
#
# Youngs Moduli (GPa) = 75.03111 94.21253 119.00088
#
# Poissons Ratio (x) = 0.06535 0.33250
# Poissons Ratio (y) = 0.05204 0.31152
# Poissons Ratio (z) = 0.20964 0.24663
#
# Static dielectric constant tensor:
#      x y z
#    x 2.206950 0.000000 -0.083220 
#    y 0.000000 2.251840 0.000000 
#    z -0.083220 0.000000 2.124150 
# 
# From -- ./inp_files/302863.got.cif
#   From: 2010.05.17/outbox.cif.g08.bks.cpg/sg15_152_cif.got.tgz:302863.got - 2010.06.03 18:47:42.
