data_PCOD9274239
_publ_section_title
;
Structure prediction by ZEFSAII (Michael W. Deem and Ramdas Pophale) SiO2 
 PCOD9274239
Probable space group: C 2/C
;
_chemical_formula_sum "Si O2"
_cell_formula_units_Z 56
_cell_length_a 11.268588
_cell_length_b 11.105893
_cell_length_c 19.756728
_cell_angle_alpha 90.000000
_cell_angle_beta 87.412326
_cell_angle_gamma 90.000000
_cell_volume 2469.988508
_symmetry_space_group_name_H-M "C 2/C"
_symmetry_group_IT_number 15
_symmetry_cell_setting 'monoclinic'
loop_
_space_group_symop_operation_xyz
x,y,z
-x,y,1/2-z
-x,-y,-z
x,-y,1/2+z
1/2+x,1/2+y,z
1/2-x,1/2+y,1/2-z
1/2-x,1/2-y,-z
1/2+x,1/2-y,1/2+z
loop_
_atom_site_type_symbol
_atom_site_label
_atom_site_fract_x
_atom_site_fract_y
_atom_site_fract_z
Si Si1 0.973625 0.353120 0.831037
Si Si2 0.524053 0.891077 0.390315
Si Si3 0.836978 0.199736 0.595713
Si Si4 0.920476 0.937210 0.819404
Si Si5 0.163539 0.312299 0.204077
Si Si6 0.604753 0.314121 0.547264
Si Si7 0.270976 0.668850 0.844763
O O1 0.998861 0.469583 0.876874
O O2 0.843346 0.293542 0.843712
O O3 0.000000 0.375559 0.750000
O O4 0.066831 0.256392 0.857422
O O5 0.466535 0.836119 0.322141
O O6 0.450192 0.820840 0.449617
O O7 0.661137 0.855701 0.397329
O O8 0.750521 0.125666 0.647079
O O9 0.742481 0.297819 0.567378
O O10 0.894409 0.138807 0.528768
O O11 0.827483 0.833268 0.798517
O O12 0.964241 0.884132 0.891148
O O13 0.000000 0.952291 0.750000
O O14 0.864867 0.062005 0.842970
O O15 0.205816 0.350779 0.274890
#
# Coordination Sequence:
#
# PCOD9274239 Si02
#       7
#     8   8   8   8   8   8   8
#     4  12  23  38  61  97 129 160 208 270 322 381
#     4  10  22  39  60  91 126 165 208 258 323 381
#     4   9  19  39  64  91 120 165 215 250 316 383
#     4  10  21  37  58  88 120 158 205 258 310 370
#     4  10  20  38  62  88 121 162 205 260 313 385
#     4   9  20  42  66  86 122 171 212 257 309 387
#     4  12  23  36  62  93 128 161 205 264 324 379
#
# _framework density 22.672170999999999
#
# number of rings (size 3 to 8) (size 9 to 14) (size 15 to 20)
#    0.000    2.000    1.429    5.143    2.000    1.143 
#    0.000    2.857    0.000    0.000    0.000    1.000 
#    0.000    0.000    0.000    0.000    0.000    0.000 
#
# Total GULP energy -155878.981668 kJ/mol
# GULP energy per Si atom -5567.106488 kJ/mol
# Density = 2.262057 g / cm^3
# Si number density = 22.672171 Si / 1000 Ang^3
#
#
#
# Elastic Constant Matrix: (Units=GPa)
#
#
# Indices 1 2 3 4 5 6 
#
# 1 101.5372 29.6142 30.5046 0.0000 -22.0557 0.0000
# 2 29.6142 70.0714 -5.3413 0.0000 -15.0136 0.0000
# 3 30.5046 -5.3413 70.1497 0.0000 -20.6089 0.0000
# 4 0.0000 0.0000 0.0000 -194.5369 0.0000 -117.5775
# 5 -22.0557 -15.0136 -20.6089 0.0000 27.7011 0.0000
# 6 0.0000 0.0000 0.0000 -117.5775 0.0000 -47.7295
#
#
#
# Elastic Compliance Matrix: (Units=1/GPa)
#
#
# Indices 1 2 3 4 5 6 
#
# 1 0.013903 -0.005347 -0.005185 0.000000 0.004314 0.000000
# 2 -0.005347 0.019612 0.007282 0.000000 0.011790 0.000000
# 3 -0.005185 0.007282 0.021769 0.000000 0.016014 0.000000
# 4 0.000000 0.000000 0.000000 0.010515 0.000000 -0.025902
# 5 0.004314 0.011790 0.016014 0.000000 0.057838 0.000000
# 6 0.000000 0.000000 0.000000 -0.025902 0.000000 0.042856
#
#
# Mechanical properties :
#
#
# Convention : Reuss Voigt Hill
#
# Bulk Modulus (GPa) = 20.49856 39.03480 29.76668
# Shear Modulus (GPa) = 26.41943 -30.44767 -2.01412
#
# Velocity S-wave (km/s) = 3.41732 -3.66861 -0.94355
# Velocity P-wave (km/s) = 4.96303 0.83095 3.45986
#
# Compressibility (1/GPa) = 0.04878391
#
# Stress axis : x y z
#
# Youngs Moduli (GPa) = 71.92728 50.98887 45.93650
#
# Poissons Ratio (x) = 0.27263 0.23820
# Poissons Ratio (y) = 0.38458 -0.33451
# Poissons Ratio (z) = 0.37298 -0.37130
#
# Static dielectric constant tensor:
#      x y z
#    x 1.895870 0.000000 -0.067460 
#    y 0.000000 1.923490 0.000000 
#    z -0.067460 0.000000 1.914930 
# 
# From -- ./inp_files/236960.got.cif
#   From: 2010.05.17/outbox.cif.g08.bks.cpg/sg15_119_cif.got.tgz:236960.got - 2010.06.03 18:47:42.
