data_PCOD9274603
_publ_section_title
;
Structure prediction by ZEFSAII (Michael W. Deem and Ramdas Pophale) SiO2 
 PCOD9274603
Probable space group: C 2/C
;
_chemical_formula_sum "Si O2"
_cell_formula_units_Z 56
_cell_length_a 9.714687
_cell_length_b 32.488577
_cell_length_c 13.146219
_cell_angle_alpha 90.000000
_cell_angle_beta 32.142348
_cell_angle_gamma 90.000000
_cell_volume 2207.455919
_symmetry_space_group_name_H-M "C 2/C"
_symmetry_group_IT_number 15
_symmetry_cell_setting 'monoclinic'
loop_
_space_group_symop_operation_xyz
x,y,z
-x,y,1/2-z
-x,-y,-z
x,-y,1/2+z
1/2+x,1/2+y,z
1/2-x,1/2+y,1/2-z
1/2-x,1/2-y,-z
1/2+x,1/2-y,1/2+z
loop_
_atom_site_type_symbol
_atom_site_label
_atom_site_fract_x
_atom_site_fract_y
_atom_site_fract_z
Si Si1 0.938952 0.406337 0.988734
Si Si2 0.564765 0.405661 0.950949
Si Si3 0.934519 0.686437 0.455841
Si Si4 0.799690 0.435297 0.468095
Si Si5 0.227768 0.972911 0.982898
Si Si6 0.079163 0.182055 0.503085
Si Si7 0.265574 0.749908 0.594164
O O1 0.142949 0.404653 0.768389
O O2 0.861949 0.358699 0.043573
O O3 0.760787 0.442730 0.058025
O O4 0.068685 0.421746 0.010943
O O5 0.411511 0.403632 0.941380
O O6 0.512302 0.366278 0.052117
O O7 0.530554 0.448747 0.031746
O O8 0.051775 0.715452 0.468996
O O9 0.689757 0.699710 0.539727
O O10 0.177162 0.683538 0.226406
O O11 0.674849 0.480650 0.549496
O O12 0.000000 0.434818 0.250000
O O13 0.500000 0.976443 0.750000
O O14 0.849446 0.207167 0.595255
O O15 0.458918 0.744089 0.357306
#
# Coordination Sequence:
#
# PCOD9274603 Si02
#       7
#     8   8   8   8   8   8   8
#     4  10  20  38  65  89 111 158 215 253 289 356
#     4  10  20  38  64  89 114 156 212 252 297 355
#     4  10  21  41  68  91 119 160 213 253 299 365
#     4  11  23  35  54  88 132 161 192 252 314 360
#     4   9  18  37  61  88 116 157 208 255 300 354
#     4  10  21  41  67  92 120 160 209 257 299 363
#     4  12  25  42  64  98 130 158 195 252 310 370
#
# _framework density 25.368569000000001
#
# number of rings (size 3 to 8) (size 9 to 14) (size 15 to 20)
#    0.000    1.714    2.857    1.714    2.000    0.571 
#    0.000    2.143    0.000    0.000    0.000    0.000 
#    0.000    0.000    0.000    0.000    0.000    0.000 
#
# Total GULP energy -156386.909771 kJ/mol
# GULP energy per Si atom -5585.246778 kJ/mol
# Density = 2.531083 g / cm^3
# Si number density = 25.368569 Si / 1000 Ang^3
#
#
#
# Elastic Constant Matrix: (Units=GPa)
#
#
# Indices 1 2 3 4 5 6 
#
# 1 213.4370 66.5481 23.6425 0.0000 17.3365 0.0000
# 2 66.5481 118.4650 6.6267 0.0000 10.8001 0.0000
# 3 23.6425 6.6267 121.7376 0.0000 16.0985 0.0000
# 4 0.0000 0.0000 0.0000 -18.9514 0.0000 -2.3444
# 5 17.3365 10.8001 16.0985 0.0000 38.3062 0.0000
# 6 0.0000 0.0000 0.0000 -2.3444 0.0000 14.3844
#
#
#
# Elastic Compliance Matrix: (Units=1/GPa)
#
#
# Indices 1 2 3 4 5 6 
#
# 1 0.005861 -0.003117 -0.000777 0.000000 -0.001447 0.000000
# 2 -0.003117 0.010324 0.000256 0.000000 -0.001608 0.000000
# 3 -0.000777 0.000256 0.008804 0.000000 -0.003420 0.000000
# 4 0.000000 0.000000 0.000000 -0.051724 0.000000 -0.008430
# 5 -0.001447 -0.001608 -0.003420 0.000000 0.028651 0.000000
# 6 0.000000 0.000000 0.000000 -0.008430 0.000000 0.068146
#
#
# Mechanical properties :
#
#
# Convention : Reuss Voigt Hill
#
# Bulk Modulus (GPa) = 56.45685 71.91935 64.18810
# Shear Modulus (GPa) = 60.06546 30.53598 45.30072
#
# Velocity S-wave (km/s) = 4.87119 3.47319 4.23034
# Velocity P-wave (km/s) = 7.34445 6.67049 7.01557
#
# Compressibility (1/GPa) = 0.01771264
#
# Stress axis : x y z
#
# Youngs Moduli (GPa) = 170.62941 96.85715 113.58875
#
# Poissons Ratio (x) = 0.30189 0.08828
# Poissons Ratio (y) = 0.53183 -0.02907
# Poissons Ratio (z) = 0.13261 -0.02479
#
# Static dielectric constant tensor:
#      x y z
#    x 1.908480 0.000000 0.155910 
#    y 0.000000 1.961750 0.000000 
#    z 0.155910 0.000000 2.394370 
# 
# From -- ./inp_files/149271.got.cif
#   From: 2010.05.17/outbox.cif.g08.bks.cpg/sg15_75_cif.got.tgz:149271.got - 2010.06.03 18:47:42.
