data_PCOD9274743
_publ_section_title
;
Structure prediction by ZEFSAII (Michael W. Deem and Ramdas Pophale) SiO2 
 PCOD9274743
Probable space group: C 2/C
;
_chemical_formula_sum "Si O2"
_cell_formula_units_Z 44
_cell_length_a 22.157475
_cell_length_b 8.426363
_cell_length_c 20.992972
_cell_angle_alpha 90.000000
_cell_angle_beta 30.088304
_cell_angle_gamma 90.000000
_cell_volume 1964.995779
_symmetry_space_group_name_H-M "C 2/C"
_symmetry_group_IT_number 15
_symmetry_cell_setting 'monoclinic'
loop_
_space_group_symop_operation_xyz
x,y,z
-x,y,1/2-z
-x,-y,-z
x,-y,1/2+z
1/2+x,1/2+y,z
1/2-x,1/2+y,1/2-z
1/2-x,1/2-y,-z
1/2+x,1/2-y,1/2+z
loop_
_atom_site_type_symbol
_atom_site_label
_atom_site_fract_x
_atom_site_fract_y
_atom_site_fract_z
Si Si1 0.749831 0.910467 0.939688
Si Si2 0.301286 0.183777 0.783437
Si Si3 0.379732 0.996331 0.323658
Si Si4 0.375741 0.587235 0.102571
Si Si5 0.000000 0.053207 0.750000
Si Si6 0.338485 0.266902 0.501973
O O1 0.727963 0.786813 0.902889
O O2 0.897445 0.592148 0.740460
O O3 0.688347 0.881675 0.064375
O O4 0.892547 0.948093 0.817764
O O5 0.348391 0.304039 0.688035
O O6 0.223356 0.048261 0.820565
O O7 0.309434 0.082081 0.523199
O O8 0.500000 0.039200 0.250000
O O9 0.287560 0.140408 0.395951
O O10 0.500000 0.500000 0.000000
O O11 0.380129 0.691429 0.034688
O O12 0.066278 0.156681 0.634576
#
# Coordination Sequence:
#
# PCOD9274743 Si02
#       6
#     8   8   8   8   4   8
#     4  11  23  38  67 102 137 170 225 276 341 405
#     4  11  25  45  68  98 136 180 231 279 337 404
#     4  10  23  40  67 100 139 167 223 279 344 400
#     4  11  25  48  68  94 138 186 232 280 337 404
#     4  10  20  38  64  98 140 178 208 280 346 396
#     4  10  23  40  67 101 137 176 225 276 335 412
#
# _framework density 22.391905999999999
#
# number of rings (size 3 to 8) (size 9 to 14) (size 15 to 20)
#    0.000    1.455    0.000    4.909    8.909    0.000 
#    3.273    1.818    0.000    0.000    0.000    0.000 
#    0.000    0.000    0.000    0.000    0.000    0.000 
#
# Total GULP energy -123087.267015 kJ/mol
# GULP energy per Si atom -5594.875773 kJ/mol
# Density = 2.234094 g / cm^3
# Si number density = 22.391906 Si / 1000 Ang^3
#
#
#
# Elastic Constant Matrix: (Units=GPa)
#
#
# Indices 1 2 3 4 5 6 
#
# 1 173.6096 53.4280 69.6911 0.0003 13.2386 -0.0002
# 2 53.4280 88.2055 32.3266 0.0011 12.3105 -0.0007
# 3 69.6911 32.3266 94.9021 0.0006 5.4336 -0.0004
# 4 0.0003 0.0011 0.0006 29.9648 -0.0002 26.0284
# 5 13.2386 12.3105 5.4336 -0.0002 46.7744 0.0001
# 6 -0.0002 -0.0007 -0.0004 26.0284 0.0001 36.3201
#
#
#
# Elastic Compliance Matrix: (Units=1/GPa)
#
#
# Indices 1 2 3 4 5 6 
#
# 1 0.009057 -0.003341 -0.005453 0.000001 -0.001051 0.000000
# 2 -0.003341 0.014594 -0.002368 -0.000002 -0.002620 0.000002
# 3 -0.005453 -0.002368 0.015326 -0.000001 0.000386 0.000001
# 4 0.000001 -0.000002 -0.000001 0.088403 0.000001 -0.063353
# 5 -0.001051 -0.002620 0.000386 0.000001 0.022321 -0.000001
# 6 0.000000 0.000002 0.000001 -0.063353 -0.000001 0.072934
#
#
# Mechanical properties :
#
#
# Convention : Reuss Voigt Hill
#
# Bulk Modulus (GPa) = 60.04542 74.17872 67.11207
# Shear Modulus (GPa) = 19.95920 36.02997 27.99459
#
# Velocity S-wave (km/s) = 2.98880 4.01566 3.53967
# Velocity P-wave (km/s) = 6.22772 7.39595 6.83683
#
# Compressibility (1/GPa) = 0.01665406
#
# Stress axis : x y z
#
# Youngs Moduli (GPa) = 110.40746 68.51932 65.24866
#
# Poissons Ratio (x) = 0.22893 0.35580
# Poissons Ratio (y) = 0.36888 0.15449
# Poissons Ratio (z) = 0.60205 0.16224
#
# Static dielectric constant tensor:
#      x y z
#    x 1.849490 0.000000 0.025510 
#    y 0.000000 1.916190 0.000000 
#    z 0.025510 0.000000 1.846270 
# 
# From -- ./inp_files/252339.got.cif
#   From: 2010.05.17/outbox.cif.g08.bks.cpg/sg15_127_cif.got.tgz:252339.got - 2010.06.03 18:47:42.
