data_PCOD9274660
_publ_section_title
;
Structure prediction by ZEFSAII (Michael W. Deem and Ramdas Pophale) SiO2 
 PCOD9274660
Probable space group: C 2/C
;
_chemical_formula_sum "Si O2"
_cell_formula_units_Z 60
_cell_length_a 13.725927
_cell_length_b 22.144145
_cell_length_c 14.474501
_cell_angle_alpha 90.000000
_cell_angle_beta 140.037846
_cell_angle_gamma 90.000000
_cell_volume 2825.723046
_symmetry_space_group_name_H-M "C 2/C"
_symmetry_group_IT_number 15
_symmetry_cell_setting 'monoclinic'
loop_
_space_group_symop_operation_xyz
x,y,z
-x,y,1/2-z
-x,-y,-z
x,-y,1/2+z
1/2+x,1/2+y,z
1/2-x,1/2+y,1/2-z
1/2-x,1/2-y,-z
1/2+x,1/2-y,1/2+z
loop_
_atom_site_type_symbol
_atom_site_label
_atom_site_fract_x
_atom_site_fract_y
_atom_site_fract_z
Si Si1 0.183451 0.572375 0.594480
Si Si2 0.927636 0.359130 0.017475
Si Si3 0.500000 0.573912 0.250000
Si Si4 0.689061 0.029802 0.963008
Si Si5 0.151324 0.801906 0.299501
Si Si6 0.183344 0.005434 0.141140
Si Si7 0.860843 0.868605 0.810882
Si Si8 0.461629 0.745106 0.494638
O O1 0.128615 0.530093 0.469947
O O2 0.303438 0.626838 0.664519
O O3 0.254631 0.532681 0.728272
O O4 0.034066 0.603279 0.526536
O O5 0.765168 0.348688 0.853472
O O6 0.897941 0.406851 0.079696
O O7 0.001304 0.292390 0.062128
O O8 0.651054 0.535758 0.366433
O O9 0.503421 0.610362 0.157314
O O10 0.729851 0.016587 0.887192
O O11 0.313118 0.770745 0.439981
O O12 0.000000 0.793352 0.250000
O O13 0.099471 0.771358 0.164040
O O14 0.205216 0.075626 0.179663
O O15 0.000000 0.000000 0.000000
O O16 0.913901 0.817542 0.916393
#
# Coordination Sequence:
#
# PCOD9274660 Si02
#       8
#     8   8   4   8   8   8   8   8
#     4  11  24  41  66  97 139 169 217 284 344 399
#     4  10  23  46  65  93 136 181 212 284 338 400
#     4  10  20  38  64  92 126 172 206 278 326 388
#     4  11  22  40  66  96 135 172 220 269 349 396
#     4  11  25  40  68  96 133 175 225 280 337 408
#     4  12  23  38  66 102 129 169 224 273 332 412
#     4  11  22  41  68  93 134 172 226 275 333 396
#     4  11  23  46  67  95 133 180 229 277 334 402
#
# _framework density 21.233504
#
# number of rings (size 3 to 8) (size 9 to 14) (size 15 to 20)
#    0.000    1.067    5.333    1.600    4.667    0.533 
#    0.000    5.333    0.000    0.000    0.000    0.000 
#    0.000    0.000    0.000    0.000    0.000    0.000 
#
# Total GULP energy -167240.733572 kJ/mol
# GULP energy per Si atom -5574.691119 kJ/mol
# Density = 2.118518 g / cm^3
# Si number density = 21.233504 Si / 1000 Ang^3
#
#
#
# Elastic Constant Matrix: (Units=GPa)
#
#
# Indices 1 2 3 4 5 6 
#
# 1 72.0899 10.9526 -1.1932 0.0000 -13.9073 0.0000
# 2 10.9526 93.9685 7.0016 0.0000 -11.5007 0.0000
# 3 -1.1932 7.0016 48.6512 0.0000 -0.0341 0.0000
# 4 0.0000 0.0000 0.0000 18.0047 0.0000 7.4600
# 5 -13.9073 -11.5007 -0.0341 0.0000 30.6620 0.0000
# 6 0.0000 0.0000 0.0000 7.4600 0.0000 12.3236
#
#
#
# Elastic Compliance Matrix: (Units=1/GPa)
#
#
# Indices 1 2 3 4 5 6 
#
# 1 0.015300 -0.001020 0.000527 0.000000 0.006558 0.000000
# 2 -0.001020 0.011348 -0.001656 0.000000 0.003792 0.000000
# 3 0.000527 -0.001656 0.020805 0.000000 -0.000359 0.000000
# 4 0.000000 0.000000 0.000000 0.074135 0.000000 -0.044877
# 5 0.006558 0.003792 -0.000359 0.000000 0.037010 0.000000
# 6 0.000000 0.000000 0.000000 -0.044877 0.000000 0.108311
#
#
# Mechanical properties :
#
#
# Convention : Reuss Voigt Hill
#
# Bulk Modulus (GPa) = 23.17166 27.58130 25.37648
# Shear Modulus (GPa) = 17.50743 25.39464 21.45103
#
# Velocity S-wave (km/s) = 2.87456 3.46203 3.18188
# Velocity P-wave (km/s) = 4.68550 5.38504 5.04740
#
# Compressibility (1/GPa) = 0.04315616
#
# Stress axis : x y z
#
# Youngs Moduli (GPa) = 65.35807 88.11963 48.06442
#
# Poissons Ratio (x) = 0.08988 -0.02531
# Poissons Ratio (y) = 0.06666 0.07957
# Poissons Ratio (z) = -0.03442 0.14588
#
# Static dielectric constant tensor:
#      x y z
#    x 1.924290 0.000000 0.044170 
#    y 0.000000 1.831970 0.000000 
#    z 0.044170 0.000000 1.775220 
# 
# From -- ./inp_files/156398.got.cif
#   From: 2010.05.17/outbox.cif.g08.bks.cpg/sg15_79_cif.got.tgz:156398.got - 2010.06.03 18:47:42.
