data_PCOD9274697
_publ_section_title
;
Structure prediction by ZEFSAII (Michael W. Deem and Ramdas Pophale) SiO2 
 PCOD9274697
Probable space group: C 2/C
;
_chemical_formula_sum "Si O2"
_cell_formula_units_Z 48
_cell_length_a 24.542609
_cell_length_b 7.998939
_cell_length_c 9.357360
_cell_angle_alpha 90.000000
_cell_angle_beta 92.981309
_cell_angle_gamma 90.000000
_cell_volume 1834.502295
_symmetry_space_group_name_H-M "C 2/C"
_symmetry_group_IT_number 15
_symmetry_cell_setting 'monoclinic'
loop_
_space_group_symop_operation_xyz
x,y,z
-x,y,1/2-z
-x,-y,-z
x,-y,1/2+z
1/2+x,1/2+y,z
1/2-x,1/2+y,1/2-z
1/2-x,1/2-y,-z
1/2+x,1/2-y,1/2+z
loop_
_atom_site_type_symbol
_atom_site_label
_atom_site_fract_x
_atom_site_fract_y
_atom_site_fract_z
Si Si1 0.000000 0.569863 0.750000
Si Si2 0.073808 0.709573 0.147640
Si Si3 0.895690 0.746682 0.642888
Si Si4 0.272451 0.523935 0.536751
Si Si5 0.786638 0.324327 0.214049
Si Si6 0.500000 0.500000 0.000000
Si Si7 0.891188 0.123007 0.576724
O O1 0.036110 0.451737 0.654649
O O2 0.043178 0.684588 0.834411
O O3 0.103817 0.737052 0.302369
O O4 0.033434 0.864236 0.105523
O O5 0.117516 0.708421 0.025319
O O6 0.851892 0.658754 0.735723
O O7 0.898411 0.944947 0.659878
O O8 0.237947 0.460960 0.398032
O O9 0.243429 0.651243 0.640785
O O10 0.280405 0.354831 0.634306
O O11 0.331746 0.597304 0.502141
O O12 0.445062 0.375461 0.988433
#
# Coordination Sequence:
#
# PCOD9274697 Si02
#       7
#     4   8   8   8   8   4   8
#     4  12  24  42  64 102 134 182 220 286 358 408
#     4  11  23  42  66  99 130 179 227 279 343 416
#     4  10  26  42  66  98 142 178 221 293 344 420
#     4  10  24  43  73  98 137 181 236 286 350 408
#     4  10  24  47  67 102 135 185 227 295 345 412
#     4  10  20  38  64  94 128 172 224 268 336 400
#     4  10  22  41  68  98 131 179 227 283 330 418
#
# _framework density 26.165133000000001
#
# number of rings (size 3 to 8) (size 9 to 14) (size 15 to 20)
#    0.000    1.667    1.667    0.500   16.333    0.667 
#    0.000    0.000    0.000    0.000    0.000    0.000 
#    0.000    0.000    0.000    0.000    0.000    0.000 
#
# Total GULP energy -133941.636689 kJ/mol
# GULP energy per Si atom -5580.901529 kJ/mol
# Density = 2.610558 g / cm^3
# Si number density = 26.165133 Si / 1000 Ang^3
#
#
#
# Elastic Constant Matrix: (Units=GPa)
#
#
# Indices 1 2 3 4 5 6 
#
# 1 132.4098 41.1338 22.6751 0.0000 -9.6454 0.0000
# 2 41.1338 66.2345 9.8444 0.0000 10.7686 0.0000
# 3 22.6751 9.8444 69.7111 0.0000 -13.9895 0.0000
# 4 0.0000 0.0000 0.0000 24.6587 0.0000 -18.2504
# 5 -9.6454 10.7686 -13.9895 0.0000 41.6143 0.0000
# 6 0.0000 0.0000 0.0000 -18.2504 0.0000 20.3542
#
#
#
# Elastic Compliance Matrix: (Units=1/GPa)
#
#
# Indices 1 2 3 4 5 6 
#
# 1 0.010152 -0.006628 -0.001662 0.000000 0.003509 0.000000
# 2 -0.006628 0.020813 -0.002330 0.000000 -0.007705 0.000000
# 3 -0.001662 -0.002330 0.016362 0.000000 0.005718 0.000000
# 4 0.000000 0.000000 0.000000 0.120561 0.000000 0.108100
# 5 0.003509 -0.007705 0.005718 0.000000 0.028760 0.000000
# 6 0.000000 0.000000 0.000000 0.108100 0.000000 0.146057
#
#
# Mechanical properties :
#
#
# Convention : Reuss Voigt Hill
#
# Bulk Modulus (GPa) = 38.33194 46.18466 42.25830
# Shear Modulus (GPa) = 13.41780 30.30557 21.86169
#
# Velocity S-wave (km/s) = 2.26699 3.40699 2.89369
# Velocity P-wave (km/s) = 4.64049 5.75902 5.22974
#
# Compressibility (1/GPa) = 0.02608790
#
# Stress axis : x y z
#
# Youngs Moduli (GPa) = 98.50691 48.04664 61.11767
#
# Poissons Ratio (x) = 0.31846 0.10156
# Poissons Ratio (y) = 0.65291 0.14237
# Poissons Ratio (z) = 0.16369 0.11193
#
# Static dielectric constant tensor:
#      x y z
#    x 2.066940 0.000000 -0.040350 
#    y 0.000000 2.060360 0.000000 
#    z -0.040350 0.000000 2.161790 
# 
# From -- ./inp_files/116391.got.cif
#   From: 2010.05.17/outbox.cif.g08.bks.cpg/sg15_59_cif.got.tgz:116391.got - 2010.06.03 18:47:42.
