data_PCOD9274995
_publ_section_title
;
Structure prediction by ZEFSAII (Michael W. Deem and Ramdas Pophale) SiO2 
 PCOD9274995
Probable space group: C 2/C
;
_chemical_formula_sum "Si O2"
_cell_formula_units_Z 56
_cell_length_a 18.802263
_cell_length_b 12.213232
_cell_length_c 14.744480
_cell_angle_alpha 90.000000
_cell_angle_beta 44.699632
_cell_angle_gamma 90.000000
_cell_volume 2381.587079
_symmetry_space_group_name_H-M "C 2/C"
_symmetry_group_IT_number 15
_symmetry_cell_setting 'monoclinic'
loop_
_space_group_symop_operation_xyz
x,y,z
-x,y,1/2-z
-x,-y,-z
x,-y,1/2+z
1/2+x,1/2+y,z
1/2-x,1/2+y,1/2-z
1/2-x,1/2-y,-z
1/2+x,1/2-y,1/2+z
loop_
_atom_site_type_symbol
_atom_site_label
_atom_site_fract_x
_atom_site_fract_y
_atom_site_fract_z
Si Si1 0.299015 0.767368 0.320570
Si Si2 0.318489 0.027986 0.710971
Si Si3 0.342282 0.785181 0.720122
Si Si4 0.548101 0.280478 0.112821
Si Si5 0.790213 0.609341 0.549105
Si Si6 0.595137 0.506107 0.478334
Si Si7 0.169763 0.088936 0.075892
O O1 0.214062 0.726870 0.325980
O O2 0.249594 0.839789 0.445236
O O3 0.351783 0.662214 0.316688
O O4 0.363668 0.859619 0.210043
O O5 0.346582 0.915457 0.733118
O O6 0.336267 0.035312 0.588200
O O7 0.196185 0.032218 0.835618
O O8 0.457235 0.748255 0.627300
O O9 0.280046 0.704061 0.842828
O O10 0.500000 0.324452 0.250000
O O11 0.617887 0.177716 0.076481
O O12 0.609893 0.370895 0.001240
O O13 0.723036 0.525696 0.552820
O O14 0.500000 0.500000 0.500000
O O15 0.583367 0.436063 0.581052
#
# Coordination Sequence:
#
# PCOD9274995 Si02
#       7
#     8   8   8   8   8   8   8
#     4   9  20  38  65  95 122 180 224 271 350 403
#     4  10  21  41  71  94 137 181 227 284 352 409
#     4  11  22  44  68  98 136 180 231 288 346 416
#     4  12  27  40  65 107 140 177 235 280 352 422
#     4  11  23  42  69 101 137 187 227 286 352 412
#     4  11  23  43  68 100 133 178 237 294 342 410
#     4  10  20  38  67  93 132 173 226 281 342 403
#
# _framework density 23.513732000000001
#
# number of rings (size 3 to 8) (size 9 to 14) (size 15 to 20)
#    0.000    1.429    2.857    3.429    4.000    1.714 
#    0.000    0.000    0.000    1.714    0.000    0.000 
#    0.000    0.000    0.000    0.000    0.000    0.000 
#
# Total GULP energy -156401.177634 kJ/mol
# GULP energy per Si atom -5585.756344 kJ/mol
# Density = 2.346021 g / cm^3
# Si number density = 23.513732 Si / 1000 Ang^3
#
#
#
# Elastic Constant Matrix: (Units=GPa)
#
#
# Indices 1 2 3 4 5 6 
#
# 1 108.5174 52.2017 10.8637 0.0000 26.7856 0.0000
# 2 52.2017 118.3205 4.4059 0.0000 2.3988 0.0000
# 3 10.8637 4.4059 35.6583 0.0000 4.6883 0.0000
# 4 0.0000 0.0000 0.0000 35.2438 0.0000 9.8842
# 5 26.7856 2.3988 4.6883 0.0000 25.1593 0.0000
# 6 0.0000 0.0000 0.0000 9.8842 0.0000 30.8579
#
#
#
# Elastic Compliance Matrix: (Units=1/GPa)
#
#
# Indices 1 2 3 4 5 6 
#
# 1 0.017060 -0.007103 -0.002072 0.000000 -0.017100 0.000000
# 2 -0.007103 0.011458 -0.000105 0.000000 0.006489 0.000000
# 3 -0.002072 -0.000105 0.029110 0.000000 -0.003209 0.000000
# 4 0.000000 0.000000 0.000000 0.031174 0.000000 -0.009986
# 5 -0.017100 0.006489 -0.003209 0.000000 0.057931 0.000000
# 6 0.000000 0.000000 0.000000 -0.009986 0.000000 0.035605
#
#
# Mechanical properties :
#
#
# Convention : Reuss Voigt Hill
#
# Bulk Modulus (GPa) = 25.59593 44.15985 34.87789
# Shear Modulus (GPa) = 23.37325 31.25386 27.31355
#
# Velocity S-wave (km/s) = 3.15624 3.64974 3.41192
# Velocity P-wave (km/s) = 4.91850 6.04831 5.51242
#
# Compressibility (1/GPa) = 0.03906871
#
# Stress axis : x y z
#
# Youngs Moduli (GPa) = 58.61653 87.27765 34.35250
#
# Poissons Ratio (x) = 0.61992 0.07117
# Poissons Ratio (y) = 0.41635 0.00360
# Poissons Ratio (z) = 0.12143 0.00916
#
# Static dielectric constant tensor:
#      x y z
#    x 1.922470 0.000000 0.054700 
#    y 0.000000 1.927280 0.000000 
#    z 0.054700 0.000000 1.930730 
# 
# From -- ./inp_files/210236.got.cif
#   From: 2010.05.17/outbox.cif.g08.bks.cpg/sg15_106_cif.got.tgz:210236.got - 2010.06.03 18:47:42.
