data_PCOD9274819
_publ_section_title
;
Structure prediction by ZEFSAII (Michael W. Deem and Ramdas Pophale) SiO2 
 PCOD9274819
Probable space group: C 2/C
;
_chemical_formula_sum "Si O2"
_cell_formula_units_Z 52
_cell_length_a 18.912975
_cell_length_b 13.169460
_cell_length_c 12.612139
_cell_angle_alpha 90.000000
_cell_angle_beta 49.578821
_cell_angle_gamma 90.000000
_cell_volume 2391.506924
_symmetry_space_group_name_H-M "C 2/C"
_symmetry_group_IT_number 15
_symmetry_cell_setting 'monoclinic'
loop_
_space_group_symop_operation_xyz
x,y,z
-x,y,1/2-z
-x,-y,-z
x,-y,1/2+z
1/2+x,1/2+y,z
1/2-x,1/2+y,1/2-z
1/2-x,1/2-y,-z
1/2+x,1/2-y,1/2+z
loop_
_atom_site_type_symbol
_atom_site_label
_atom_site_fract_x
_atom_site_fract_y
_atom_site_fract_z
Si Si1 0.433093 0.294955 0.962608
Si Si2 0.789342 0.260240 0.779621
Si Si3 0.081079 0.189223 0.491438
Si Si4 0.152711 0.542750 0.153126
Si Si5 0.000000 0.383009 0.250000
Si Si6 0.500000 0.811699 0.750000
Si Si7 0.000000 0.043251 0.250000
Si Si8 0.158960 0.921040 0.113738
O O1 0.523552 0.328110 0.942274
O O2 0.453303 0.189830 0.882429
O O3 0.428870 0.383609 0.880747
O O4 0.345949 0.279913 0.123909
O O5 0.678584 0.256162 0.870193
O O6 0.818266 0.378022 0.780194
O O7 0.812961 0.183320 0.854324
O O8 0.005840 0.247628 0.638137
O O9 0.117178 0.104200 0.538029
O O10 0.080497 0.449554 0.231141
O O11 0.089299 0.619524 0.148388
O O12 0.246363 0.518269 0.998726
O O13 0.928528 0.976521 0.248878
#
# Coordination Sequence:
#
# PCOD9274819 Si02
#       8
#     8   8   8   8   4   4   4   8
#     4  11  25  45  57  85 126 169 213 244 298 361
#     4  11  21  38  67  96 124 151 198 258 310 360
#     4  11  20  36  67  95 120 156 194 252 310 359
#     4  10  20  38  65  95 120 151 199 250 314 360
#     4  10  26  43  61  82 126 172 204 255 297 354
#     4  11  15  35  63  96 120 145 185 247 311 356
#     4  11  27  42  60  80 126 181 203 242 300 360
#     4  11  21  39  65  96 126 153 197 257 305 365
#
# _framework density 21.743611999999999
#
# number of rings (size 3 to 8) (size 9 to 14) (size 15 to 20)
#    0.000    1.231    4.615    2.308    0.000    5.538 
#    0.000    6.154    0.000    0.000    0.000    0.000 
#    0.000    0.000    0.000    0.000    0.000    0.000 
#
# Total GULP energy -144764.972340 kJ/mol
# GULP energy per Si atom -5567.883552 kJ/mol
# Density = 2.169412 g / cm^3
# Si number density = 21.743612 Si / 1000 Ang^3
#
#
#
# Elastic Constant Matrix: (Units=GPa)
#
#
# Indices 1 2 3 4 5 6 
#
# 1 62.0270 5.5794 30.3368 0.0000 -28.0608 0.0000
# 2 5.5794 70.8044 33.1332 0.0000 -11.3321 0.0000
# 3 30.3368 33.1332 108.8205 0.0000 -34.1793 0.0000
# 4 0.0000 0.0000 0.0000 24.7001 0.0000 -0.8880
# 5 -28.0608 -11.3321 -34.1793 0.0000 46.1974 0.0000
# 6 0.0000 0.0000 0.0000 -0.8880 0.0000 15.0499
#
#
#
# Elastic Compliance Matrix: (Units=1/GPa)
#
#
# Indices 1 2 3 4 5 6 
#
# 1 0.022935 0.001565 -0.003093 0.000000 0.012026 0.000000
# 2 0.001565 0.016583 -0.005093 0.000000 0.001251 0.000000
# 3 -0.003093 -0.005093 0.013835 0.000000 0.007108 0.000000
# 4 0.000000 0.000000 0.000000 0.040572 0.000000 0.002394
# 5 0.012026 0.001251 0.007108 0.000000 0.034517 0.000000
# 6 0.000000 0.000000 0.000000 0.002394 0.000000 0.066587
#
#
# Mechanical properties :
#
#
# Convention : Reuss Voigt Hill
#
# Bulk Modulus (GPa) = 24.93057 42.19452 33.56255
# Shear Modulus (GPa) = 22.55914 28.69632 25.62773
#
# Velocity S-wave (km/s) = 3.22453 3.63679 3.43685
# Velocity P-wave (km/s) = 5.03528 6.08955 5.58734
#
# Compressibility (1/GPa) = 0.04011139
#
# Stress axis : x y z
#
# Youngs Moduli (GPa) = 43.60234 60.30128 72.28182
#
# Poissons Ratio (x) = -0.09436 0.22355
# Poissons Ratio (y) = -0.06823 0.36811
# Poissons Ratio (z) = 0.13485 0.30710
#
# Static dielectric constant tensor:
#      x y z
#    x 1.872800 0.000000 0.037100 
#    y 0.000000 1.846680 0.000000 
#    z 0.037100 0.000000 1.838940 
# 
# From -- ./inp_files/112685.got.cif
#   From: 2010.05.17/outbox.cif.g08.bks.cpg/sg15_57_cif.got.tgz:112685.got - 2010.06.03 18:47:42.
