data_PCOD9274523
_publ_section_title
;
Structure prediction by ZEFSAII (Michael W. Deem and Ramdas Pophale) SiO2 
 PCOD9274523
Probable space group: C 2/C
;
_chemical_formula_sum "Si O2"
_cell_formula_units_Z 32
_cell_length_a 12.780845
_cell_length_b 17.703450
_cell_length_c 13.037320
_cell_angle_alpha 90.000000
_cell_angle_beta 153.203646
_cell_angle_gamma 90.000000
_cell_volume 1329.871534
_symmetry_space_group_name_H-M "C 2/C"
_symmetry_group_IT_number 15
_symmetry_cell_setting 'monoclinic'
loop_
_space_group_symop_operation_xyz
x,y,z
-x,y,1/2-z
-x,-y,-z
x,-y,1/2+z
1/2+x,1/2+y,z
1/2-x,1/2+y,1/2-z
1/2-x,1/2-y,-z
1/2+x,1/2-y,1/2+z
loop_
_atom_site_type_symbol
_atom_site_label
_atom_site_fract_x
_atom_site_fract_y
_atom_site_fract_z
Si Si1 0.854958 0.559594 0.943798
Si Si2 0.743713 0.276613 0.712166
Si Si3 0.000000 0.951054 0.750000
Si Si4 0.000000 0.324223 0.750000
Si Si5 0.537785 0.413295 0.997156
O O1 0.688710 0.503096 0.861442
O O2 0.721593 0.611402 0.743384
O O3 0.921244 0.617308 0.092176
O O4 0.000000 0.500000 0.000000
O O5 0.473272 0.246941 0.478662
O O6 0.693554 0.364720 0.695532
O O7 0.819797 0.274748 0.659217
O O8 0.887337 0.907907 0.555264
O O9 0.500000 0.500000 0.000000
#
# Coordination Sequence:
#
# PCOD9274523 Si02
#       5
#     8   8   4   4   8
#     4  11  21  37  66 107 142 179 234 300 355 421
#     4  12  27  46  68 103 145 189 240 302 367 442
#     4  10  20  38  63  98 137 178 230 296 362 420
#     4  12  22  40  67  96 141 196 232 284 368 440
#     4  10  22  42  68  98 133 177 234 292 350 427
#
# _framework density 24.062474999999999
#
# number of rings (size 3 to 8) (size 9 to 14) (size 15 to 20)
#    0.000    1.000    0.000    9.750    0.000    2.000 
#    0.000    1.250    0.000    0.000    0.000    0.000 
#    0.000    0.000    0.000    0.000    0.000    0.000 
#
# Total GULP energy -89080.951673 kJ/mol
# GULP energy per Si atom -5567.559480 kJ/mol
# Density = 2.400771 g / cm^3
# Si number density = 24.062475 Si / 1000 Ang^3
#
#
#
# Elastic Constant Matrix: (Units=GPa)
#
#
# Indices 1 2 3 4 5 6 
#
# 1 143.8285 -1.6741 42.2193 0.0000 -15.1539 0.0000
# 2 -1.6741 68.6622 42.7259 0.0000 17.8179 0.0000
# 3 42.2193 42.7259 148.7265 -0.0001 -25.5922 -0.0001
# 4 0.0000 0.0000 -0.0001 54.3195 0.0000 12.1107
# 5 -15.1539 17.8179 -25.5922 0.0000 66.7484 -0.0001
# 6 0.0000 0.0000 -0.0001 12.1107 -0.0001 36.1214
#
#
#
# Elastic Compliance Matrix: (Units=1/GPa)
#
#
# Indices 1 2 3 4 5 6 
#
# 1 0.007788 0.001789 -0.002679 0.000000 0.000263 0.000000
# 2 0.001789 0.022044 -0.008333 0.000000 -0.008673 0.000000
# 3 -0.002679 -0.008333 0.010874 0.000000 0.005785 0.000000
# 4 0.000000 0.000000 0.000000 0.019897 0.000000 -0.006671
# 5 0.000263 -0.008673 0.005785 0.000000 0.019575 0.000000
# 6 0.000000 0.000000 0.000000 -0.006671 0.000000 0.029921
#
#
# Mechanical properties :
#
#
# Convention : Reuss Voigt Hill
#
# Bulk Modulus (GPa) = 44.92714 58.63993 51.78353
# Shear Modulus (GPa) = 36.77445 49.96759 43.37102
#
# Velocity S-wave (km/s) = 3.91358 4.56189 4.25011
# Velocity P-wave (km/s) = 6.25564 7.22292 6.75661
#
# Compressibility (1/GPa) = 0.02225826
#
# Stress axis : x y z
#
# Youngs Moduli (GPa) = 128.40651 45.36464 91.96525
#
# Poissons Ratio (x) = -0.08115 0.24640
# Poissons Ratio (y) = -0.22969 0.76633
# Poissons Ratio (z) = 0.34404 0.37802
#
# Static dielectric constant tensor:
#      x y z
#    x 1.844790 0.000000 0.032050 
#    y 0.000000 2.122580 0.000000 
#    z 0.032050 0.000000 2.147150 
# 
# From -- ./inp_files/89941.got.cif
#   From: 2010.05.17/outbox.cif.g08.bks.cpg/sg15_45_cif.got.tgz:89941.got - 2010.06.03 18:47:42.
