data_PCOD9274402
_publ_section_title
;
Structure prediction by ZEFSAII (Michael W. Deem and Ramdas Pophale) SiO2 
 PCOD9274402
Probable space group: C 2/C
;
_chemical_formula_sum "Si O2"
_cell_formula_units_Z 52
_cell_length_a 25.875587
_cell_length_b 11.945499
_cell_length_c 8.603854
_cell_angle_alpha 90.000000
_cell_angle_beta 53.365043
_cell_angle_gamma 90.000000
_cell_volume 2134.064038
_symmetry_space_group_name_H-M "C 2/C"
_symmetry_group_IT_number 15
_symmetry_cell_setting 'monoclinic'
loop_
_space_group_symop_operation_xyz
x,y,z
-x,y,1/2-z
-x,-y,-z
x,-y,1/2+z
1/2+x,1/2+y,z
1/2-x,1/2+y,1/2-z
1/2-x,1/2-y,-z
1/2+x,1/2-y,1/2+z
loop_
_atom_site_type_symbol
_atom_site_label
_atom_site_fract_x
_atom_site_fract_y
_atom_site_fract_z
Si Si1 0.500000 0.232601 0.750000
Si Si2 0.411712 0.641947 0.227704
Si Si3 0.932248 0.488990 0.414632
Si Si4 0.225257 0.861343 0.916280
Si Si5 0.651380 0.454197 0.347821
Si Si6 0.195063 0.701243 0.708059
Si Si7 0.344885 0.964411 0.823017
O O1 0.517329 0.312121 0.862468
O O2 0.558299 0.143123 0.638428
O O3 0.402218 0.532508 0.139273
O O4 0.378785 0.615285 0.455156
O O5 0.371905 0.739027 0.214060
O O6 0.915934 0.485684 0.624390
O O7 0.867815 0.542493 0.458407
O O8 0.000000 0.544198 0.250000
O O9 0.211970 0.745754 0.849887
O O10 0.300703 0.871871 0.823504
O O11 0.202049 0.958928 0.837239
O O12 0.185488 0.887055 0.146012
O O13 0.250000 0.750000 0.500000
O O14 0.193656 0.575576 0.648367
#
# Coordination Sequence:
#
# PCOD9274402 Si02
#       7
#     4   8   8   8   8   8   8
#     4  10  22  40  62  90 114 172 212 252 294 374
#     4  10  20  38  63  86 125 159 210 248 314 366
#     4  10  23  40  61  84 120 160 210 252 294 352
#     4  10  21  36  60  92 124 151 200 250 315 381
#     4   9  19  38  58  90 126 156 189 262 308 371
#     4  11  21  37  62  88 123 166 199 253 316 379
#     4  12  21  41  62  89 120 166 199 251 318 363
#
# _framework density 24.366655999999999
#
# number of rings (size 3 to 8) (size 9 to 14) (size 15 to 20)
#    0.462    1.231    1.538    5.077    0.000    0.615 
#    2.769    3.846    0.000    1.846    0.000    0.000 
#    0.000    0.000    0.000    0.000    0.000    0.000 
#
# Total GULP energy -145096.723537 kJ/mol
# GULP energy per Si atom -5580.643213 kJ/mol
# Density = 2.431120 g / cm^3
# Si number density = 24.366656 Si / 1000 Ang^3
#
#
#
# Elastic Constant Matrix: (Units=GPa)
#
#
# Indices 1 2 3 4 5 6 
#
# 1 164.0549 42.7556 -3.5604 0.0000 18.4307 0.0000
# 2 42.7556 72.1561 -6.0135 0.0000 7.4409 0.0000
# 3 -3.5604 -6.0135 57.1406 0.0000 19.6726 0.0000
# 4 0.0000 0.0000 0.0000 21.6380 0.0000 8.0489
# 5 18.4307 7.4409 19.6726 0.0000 31.0065 0.0000
# 6 0.0000 0.0000 0.0000 8.0489 0.0000 50.9813
#
#
#
# Elastic Compliance Matrix: (Units=1/GPa)
#
#
# Indices 1 2 3 4 5 6 
#
# 1 0.007683 -0.003929 0.001680 0.000000 -0.004690 0.000000
# 2 -0.003929 0.016760 0.002687 0.000000 -0.003392 0.000000
# 3 0.001680 0.002687 0.023612 0.000000 -0.016624 0.000000
# 4 0.000000 0.000000 0.000000 0.049098 0.000000 -0.007752
# 5 -0.004690 -0.003392 -0.016624 0.000000 0.046400 0.000000
# 6 0.000000 0.000000 0.000000 -0.007752 0.000000 0.020839
#
#
# Mechanical properties :
#
#
# Convention : Reuss Voigt Hill
#
# Bulk Modulus (GPa) = 20.43722 39.96834 30.20278
# Shear Modulus (GPa) = 27.80457 38.06984 32.93720
#
# Velocity S-wave (km/s) = 3.38167 3.95698 3.68058
# Velocity P-wave (km/s) = 4.86345 6.10863 5.52126
#
# Compressibility (1/GPa) = 0.04893032
#
# Stress axis : x y z
#
# Youngs Moduli (GPa) = 130.16194 59.66429 42.35224
#
# Poissons Ratio (x) = 0.23441 -0.07114
# Poissons Ratio (y) = 0.51137 -0.11379
# Poissons Ratio (z) = -0.21865 -0.16030
#
# Static dielectric constant tensor:
#      x y z
#    x 1.980060 0.000000 -0.005110 
#    y 0.000000 1.949330 0.000000 
#    z -0.005110 0.000000 1.952270 
# 
# From -- ./inp_files/65365.got.cif
#   From: 2010.05.17/outbox.cif.g08.bks.cpg/sg15_33_cif.got.tgz:65365.got - 2010.06.03 18:47:42.
