data_PCOD9274659
_publ_section_title
;
Structure prediction by ZEFSAII (Michael W. Deem and Ramdas Pophale) SiO2 
 PCOD9274659
Probable space group: C 2/C
;
_chemical_formula_sum "Si O2"
_cell_formula_units_Z 60
_cell_length_a 9.353734
_cell_length_b 28.293408
_cell_length_c 10.924233
_cell_angle_alpha 90.000000
_cell_angle_beta 114.316312
_cell_angle_gamma 90.000000
_cell_volume 2634.607778
_symmetry_space_group_name_H-M "C 2/C"
_symmetry_group_IT_number 15
_symmetry_cell_setting 'monoclinic'
loop_
_space_group_symop_operation_xyz
x,y,z
-x,y,1/2-z
-x,-y,-z
x,-y,1/2+z
1/2+x,1/2+y,z
1/2-x,1/2+y,1/2-z
1/2-x,1/2-y,-z
1/2+x,1/2-y,1/2+z
loop_
_atom_site_type_symbol
_atom_site_label
_atom_site_fract_x
_atom_site_fract_y
_atom_site_fract_z
Si Si1 0.426121 0.797823 0.984060
Si Si2 0.892245 0.459071 0.093700
Si Si3 0.736089 0.309588 0.328235
Si Si4 0.500000 0.775404 0.750000
Si Si5 0.169952 0.098841 0.675226
Si Si6 0.173515 0.441595 0.023958
Si Si7 0.570821 0.696512 0.402796
Si Si8 0.860838 0.127984 0.477232
O O1 0.479958 0.805577 0.864128
O O2 0.253337 0.817369 0.948762
O O3 0.576491 0.812622 0.115879
O O4 0.422015 0.740915 0.002771
O O5 0.781687 0.418806 0.108084
O O6 0.000000 0.472772 0.250000
O O7 0.999273 0.440824 0.020117
O O8 0.802598 0.505312 0.014572
O O9 0.653964 0.258662 0.302319
O O10 0.675417 0.344915 0.202581
O O11 0.680140 0.332991 0.435198
O O12 0.225984 0.073930 0.820168
O O13 0.992706 0.091440 0.572903
O O14 0.208405 0.405244 0.926097
O O15 0.500000 0.715083 0.250000
O O16 0.448656 0.655972 0.400825
#
# Coordination Sequence:
#
# PCOD9274659 Si02
#       8
#     8   8   8   4   8   8   8   8
#     4  11  25  38  67  91 123 176 226 269 329 386
#     4   9  19  37  63  91 125 156 209 271 329 403
#     4  11  20  38  64  94 123 165 218 266 321 389
#     4  12  20  40  66  96 124 170 222 280 316 390
#     4  10  20  38  64  92 126 163 209 272 322 392
#     4   9  19  37  60  91 116 161 205 263 324 391
#     4  11  25  45  58  90 134 173 218 280 327 390
#     4  11  22  39  60  87 127 168 211 267 328 384
#
# _framework density 22.773790000000002
#
# number of rings (size 3 to 8) (size 9 to 14) (size 15 to 20)
#    0.000    1.600    2.667    2.400    1.867    5.867 
#    0.000    8.000    0.000    0.000    0.000    0.000 
#    0.000    0.000    0.000    0.000    0.000    0.000 
#
# Total GULP energy -167461.148941 kJ/mol
# GULP energy per Si atom -5582.038298 kJ/mol
# Density = 2.272196 g / cm^3
# Si number density = 22.773790 Si / 1000 Ang^3
#
#
#
# Elastic Constant Matrix: (Units=GPa)
#
#
# Indices 1 2 3 4 5 6 
#
# 1 105.1949 39.3511 31.8562 0.0000 -16.0530 0.0000
# 2 39.3511 58.3613 9.8066 0.0000 -8.9444 0.0000
# 3 31.8562 9.8066 33.7082 0.0000 -6.5292 0.0000
# 4 0.0000 0.0000 0.0000 28.5119 0.0000 2.7096
# 5 -16.0530 -8.9444 -6.5292 0.0000 34.8599 0.0000
# 6 0.0000 0.0000 0.0000 2.7096 0.0000 43.9395
#
#
#
# Elastic Compliance Matrix: (Units=1/GPa)
#
#
# Indices 1 2 3 4 5 6 
#
# 1 0.017343 -0.008991 -0.013151 0.000000 0.003216 0.000000
# 2 -0.008991 0.023169 0.002185 0.000000 0.002214 0.000000
# 3 -0.013151 0.002185 0.041916 0.000000 0.002355 0.000000
# 4 0.000000 0.000000 0.000000 0.035280 0.000000 -0.002176
# 5 0.003216 0.002214 0.002355 0.000000 0.031176 0.000000
# 6 0.000000 0.000000 0.000000 -0.002176 0.000000 0.022893
#
#
# Mechanical properties :
#
#
# Convention : Reuss Voigt Hill
#
# Bulk Modulus (GPa) = 23.52192 39.92135 31.72163
# Shear Modulus (GPa) = 22.13741 29.21229 25.67485
#
# Velocity S-wave (km/s) = 3.12116 3.58539 3.36130
# Velocity P-wave (km/s) = 4.83113 5.89131 5.38736
#
# Compressibility (1/GPa) = 0.04251354
#
# Stress axis : x y z
#
# Youngs Moduli (GPa) = 57.66031 43.16110 23.85741
#
# Poissons Ratio (x) = 0.38806 0.31376
# Poissons Ratio (y) = 0.51842 -0.05214
# Poissons Ratio (z) = 0.75832 -0.09432
#
# Static dielectric constant tensor:
#      x y z
#    x 1.886580 0.000000 0.016450 
#    y 0.000000 1.856970 0.000000 
#    z 0.016450 0.000000 1.880230 
# 
# From -- ./inp_files/82662.got.cif
#   From: 2010.05.17/outbox.cif.g08.bks.cpg/sg15_42_cif.got.tgz:82662.got - 2010.06.03 18:47:42.
