data_PCOD9274768
_publ_section_title
;
Structure prediction by ZEFSAII (Michael W. Deem and Ramdas Pophale) SiO2 
 PCOD9274768
Probable space group: C 2/C
;
_chemical_formula_sum "Si O2"
_cell_formula_units_Z 40
_cell_length_a 12.978321
_cell_length_b 13.173014
_cell_length_c 10.019059
_cell_angle_alpha 90.000000
_cell_angle_beta 108.267425
_cell_angle_gamma 90.000000
_cell_volume 1626.571139
_symmetry_space_group_name_H-M "C 2/C"
_symmetry_group_IT_number 15
_symmetry_cell_setting 'monoclinic'
loop_
_space_group_symop_operation_xyz
x,y,z
-x,y,1/2-z
-x,-y,-z
x,-y,1/2+z
1/2+x,1/2+y,z
1/2-x,1/2+y,1/2-z
1/2-x,1/2-y,-z
1/2+x,1/2-y,1/2+z
loop_
_atom_site_type_symbol
_atom_site_label
_atom_site_fract_x
_atom_site_fract_y
_atom_site_fract_z
Si Si1 0.209102 0.619013 0.439736
Si Si2 0.359176 0.787923 0.853129
Si Si3 0.906145 0.745381 0.926615
Si Si4 0.673305 0.438771 0.114332
Si Si5 0.357308 0.605509 0.180915
O O1 0.136055 0.672170 0.296257
O O2 0.328412 0.672849 0.475257
O O3 0.226632 0.504918 0.400409
O O4 0.844147 0.641114 0.940295
O O5 0.310161 0.675124 0.832778
O O6 0.269416 0.860897 0.883236
O O7 0.473511 0.775072 0.971927
O O8 0.902666 0.797139 0.780257
O O9 0.631326 0.507888 0.218869
O O10 0.602436 0.423965 0.949656
#
# Coordination Sequence:
#
# PCOD9274768 Si02
#       5
#     8   8   8   8   8
#     4   9  21  38  64  90 129 169 206 264 323 381
#     4  10  20  38  65  88 129 167 216 262 316 376
#     4   9  19  38  62  90 125 165 214 256 317 381
#     4  10  22  39  63  92 129 164 215 259 322 377
#     4  10  24  38  65  93 128 170 205 269 321 376
#
# _framework density 24.591607
#
# number of rings (size 3 to 8) (size 9 to 14) (size 15 to 20)
#    0.000    2.800    0.000    1.200   11.200    4.000 
#    0.000    1.000   17.600    0.000    0.000    0.000 
#    0.000    0.000    0.000    0.000    0.000    0.000 
#
# Total GULP energy -111520.179464 kJ/mol
# GULP energy per Si atom -5576.008973 kJ/mol
# Density = 2.453564 g / cm^3
# Si number density = 24.591607 Si / 1000 Ang^3
#
#
#
# Elastic Constant Matrix: (Units=GPa)
#
#
# Indices 1 2 3 4 5 6 
#
# 1 90.5637 20.5890 45.0562 0.0000 24.9753 0.0000
# 2 20.5890 79.7466 26.4211 0.0000 -8.1711 0.0000
# 3 45.0562 26.4211 162.3019 0.0000 11.1548 0.0000
# 4 0.0000 0.0000 0.0000 58.0660 0.0000 -13.5504
# 5 24.9753 -8.1711 11.1548 0.0000 44.8711 0.0000
# 6 0.0000 0.0000 0.0000 -13.5504 0.0000 10.6831
#
#
#
# Elastic Compliance Matrix: (Units=1/GPa)
#
#
# Indices 1 2 3 4 5 6 
#
# 1 0.015956 -0.003970 -0.003177 0.000000 -0.008814 0.000000
# 2 -0.003970 0.014652 -0.001646 0.000000 0.005287 0.000000
# 3 -0.003177 -0.001646 0.007336 0.000000 -0.000355 0.000000
# 4 0.000000 0.000000 0.000000 0.024463 0.000000 0.031028
# 5 -0.008814 0.005287 -0.000355 0.000000 0.028243 0.000000
# 6 0.000000 0.000000 0.000000 0.031028 0.000000 0.132963
#
#
# Mechanical properties :
#
#
# Convention : Reuss Voigt Hill
#
# Bulk Modulus (GPa) = 49.12537 57.41609 53.27073
# Shear Modulus (GPa) = 20.16248 38.76043 29.46146
#
# Velocity S-wave (km/s) = 2.86648 3.97440 3.46501
# Velocity P-wave (km/s) = 5.56556 6.66781 6.14146
#
# Compressibility (1/GPa) = 0.02035608
#
# Stress axis : x y z
#
# Youngs Moduli (GPa) = 62.67218 68.25042 136.31654
#
# Poissons Ratio (x) = 0.27095 0.43314
# Poissons Ratio (y) = 0.24880 0.22444
# Poissons Ratio (z) = 0.19914 0.11237
#
# Static dielectric constant tensor:
#      x y z
#    x 2.004300 0.000000 0.010780 
#    y 0.000000 1.962510 0.000000 
#    z 0.010780 0.000000 2.072030 
# 
# From -- ./inp_files/105029.got.cif
#   From: 2010.05.17/outbox.cif.g08.bks.cpg/sg15_53_cif.got.tgz:105029.got - 2010.06.03 18:47:42.
