data_PCOD9274131
_publ_section_title
;
Structure prediction by ZEFSAII (Michael W. Deem and Ramdas Pophale) SiO2 
 PCOD9274131
Probable space group: C 2/C
;
_chemical_formula_sum "Si O2"
_cell_formula_units_Z 60
_cell_length_a 19.736065
_cell_length_b 15.032790
_cell_length_c 13.456492
_cell_angle_alpha 90.000000
_cell_angle_beta 40.213195
_cell_angle_gamma 90.000000
_cell_volume 2577.615405
_symmetry_space_group_name_H-M "C 2/C"
_symmetry_group_IT_number 15
_symmetry_cell_setting 'monoclinic'
loop_
_space_group_symop_operation_xyz
x,y,z
-x,y,1/2-z
-x,-y,-z
x,-y,1/2+z
1/2+x,1/2+y,z
1/2-x,1/2+y,1/2-z
1/2-x,1/2-y,-z
1/2+x,1/2-y,1/2+z
loop_
_atom_site_type_symbol
_atom_site_label
_atom_site_fract_x
_atom_site_fract_y
_atom_site_fract_z
Si Si1 0.434750 0.563958 0.502877
Si Si2 0.175469 0.621722 0.419700
Si Si3 0.923790 0.364953 0.742074
Si Si4 0.887627 0.182090 0.260527
Si Si5 0.000000 0.672519 0.750000
Si Si6 0.182576 0.781047 0.251413
Si Si7 0.716863 0.006679 0.691995
Si Si8 0.611850 0.829428 0.397839
O O1 0.500000 0.500000 0.500000
O O2 0.518518 0.612848 0.340612
O O3 0.380005 0.634671 0.638202
O O4 0.341572 0.518165 0.545245
O O5 0.274588 0.635821 0.382259
O O6 0.063231 0.615486 0.598962
O O7 0.176252 0.709339 0.348792
O O8 0.197589 0.540742 0.320583
O O9 0.864287 0.271202 0.789706
O O10 0.840114 0.444381 0.824327
O O11 0.000000 0.368375 0.750000
O O12 0.005480 0.369798 0.558268
O O13 0.909358 0.259441 0.314907
O O14 0.904902 0.235566 0.137307
O O15 0.303428 0.811302 0.110219
O O16 0.665103 0.103354 0.760217
#
# Coordination Sequence:
#
# PCOD9274131 Si02
#       8
#     8   8   8   8   4   8   8   8
#     4  11  19  38  71  89 118 168 230 277 311 389
#     4  10  20  38  61  92 128 169 216 261 327 401
#     4  11  22  39  62  95 134 166 214 276 341 396
#     4  11  21  39  63  93 122 175 219 264 330 390
#     4  12  22  36  60  94 138 168 206 272 336 402
#     4   9  20  38  64  88 117 174 223 257 330 398
#     4  10  22  40  64  96 125 171 221 271 330 397
#     4  10  21  41  64  85 126 169 222 270 322 405
#
# _framework density 23.277329000000002
#
# number of rings (size 3 to 8) (size 9 to 14) (size 15 to 20)
#    0.000    1.600    4.000    1.600    0.000    0.533 
#    4.800    0.000    1.467    0.000    0.000    0.000 
#    0.000    0.000    0.000    0.000    0.000    0.000 
#
# Total GULP energy -167772.127735 kJ/mol
# GULP energy per Si atom -5592.404258 kJ/mol
# Density = 2.322435 g / cm^3
# Si number density = 23.277329 Si / 1000 Ang^3
#
#
#
# Elastic Constant Matrix: (Units=GPa)
#
#
# Indices 1 2 3 4 5 6 
#
# 1 154.0474 46.8304 23.4234 0.0000 -32.0070 0.0000
# 2 46.8304 82.0486 20.8138 0.0000 -18.9425 0.0000
# 3 23.4234 20.8138 74.8639 0.0000 -26.0655 0.0000
# 4 0.0000 0.0000 0.0000 30.4868 0.0000 -15.6880
# 5 -32.0070 -18.9425 -26.0655 0.0000 37.7017 0.0000
# 6 0.0000 0.0000 0.0000 -15.6880 0.0000 31.8800
#
#
#
# Elastic Compliance Matrix: (Units=1/GPa)
#
#
# Indices 1 2 3 4 5 6 
#
# 1 0.008790 -0.003759 0.000310 0.000000 0.005788 0.000000
# 2 -0.003759 0.015597 -0.002032 0.000000 0.003240 0.000000
# 3 0.000310 -0.002032 0.017861 0.000000 0.011591 0.000000
# 4 0.000000 0.000000 0.000000 0.043924 0.000000 0.021615
# 5 0.005788 0.003240 0.011591 0.000000 0.041079 0.000000
# 6 0.000000 0.000000 0.000000 0.021615 0.000000 0.042004
#
#
# Mechanical properties :
#
#
# Convention : Reuss Voigt Hill
#
# Bulk Modulus (GPa) = 31.96358 54.78833 43.37595
# Shear Modulus (GPa) = 26.22670 34.67319 30.44995
#
# Velocity S-wave (km/s) = 3.36029 3.86368 3.62074
# Velocity P-wave (km/s) = 5.36813 6.59487 6.01287
#
# Compressibility (1/GPa) = 0.03128560
#
# Stress axis : x y z
#
# Youngs Moduli (GPa) = 113.76922 64.11445 55.98767
#
# Poissons Ratio (x) = 0.24103 -0.01737
# Poissons Ratio (y) = 0.42770 0.11377
# Poissons Ratio (z) = -0.03529 0.13028
#
# Static dielectric constant tensor:
#      x y z
#    x 1.978980 0.000000 0.012660 
#    y 0.000000 1.875460 0.000000 
#    z 0.012660 0.000000 1.848940 
# 
# From -- ./inp_files/168613.got.cif
#   From: 2010.05.17/outbox.cif.g08.bks.cpg/sg15_85_cif.got.tgz:168613.got - 2010.06.03 18:47:42.
