data_PCOD9274614
_publ_section_title
;
Structure prediction by ZEFSAII (Michael W. Deem and Ramdas Pophale) SiO2 
 PCOD9274614
Probable space group: C 2/C
;
_chemical_formula_sum "Si O2"
_cell_formula_units_Z 48
_cell_length_a 23.558579
_cell_length_b 5.715784
_cell_length_c 15.695790
_cell_angle_alpha 90.000000
_cell_angle_beta 89.713253
_cell_angle_gamma 90.000000
_cell_volume 2113.501889
_symmetry_space_group_name_H-M "C 2/C"
_symmetry_group_IT_number 15
_symmetry_cell_setting 'monoclinic'
loop_
_space_group_symop_operation_xyz
x,y,z
-x,y,1/2-z
-x,-y,-z
x,-y,1/2+z
1/2+x,1/2+y,z
1/2-x,1/2+y,1/2-z
1/2-x,1/2-y,-z
1/2+x,1/2-y,1/2+z
loop_
_atom_site_type_symbol
_atom_site_label
_atom_site_fract_x
_atom_site_fract_y
_atom_site_fract_z
Si Si1 0.678162 0.436391 0.324366
Si Si2 0.935307 0.036752 0.588866
Si Si3 0.208145 0.569773 0.912479
Si Si4 0.826401 0.003307 0.368305
Si Si5 0.555217 0.275713 0.076975
Si Si6 0.622042 0.889537 0.045239
O O1 0.609955 0.475373 0.335791
O O2 0.695546 0.180045 0.362097
O O3 0.693525 0.439737 0.225241
O O4 0.700828 0.677382 0.367224
O O5 0.903580 0.208431 0.522248
O O6 0.996745 0.131107 0.613701
O O7 0.946160 0.817636 0.525889
O O8 0.274866 0.550091 0.932729
O O9 0.163642 0.552605 0.990002
O O10 0.839720 0.275001 0.382550
O O11 0.887261 0.887555 0.386377
O O12 0.567436 0.004903 0.088161
#
# Coordination Sequence:
#
# PCOD9274614 Si02
#       6
#     8   8   8   8   8   8
#     4  11  24  43  65  91 130 175 214 265 325 386
#     4   9  20  40  62  89 120 168 213 257 319 384
#     4  11  24  43  65  92 130 176 215 261 323 394
#     4  11  25  37  62  97 129 165 216 269 327 379
#     4  10  20  38  64  89 125 160 215 264 317 374
#     4  10  21  39  64  96 123 170 215 271 317 386
#
# _framework density 22.711122
#
# number of rings (size 3 to 8) (size 9 to 14) (size 15 to 20)
#    0.000    1.667    1.667    2.000    4.667    1.333 
#    0.000    0.000    0.000    0.000    0.000    0.000 
#    0.000    0.000    0.000    0.000    0.000    0.000 
#
# Total GULP energy -133775.861028 kJ/mol
# GULP energy per Si atom -5573.994209 kJ/mol
# Density = 2.265943 g / cm^3
# Si number density = 22.711122 Si / 1000 Ang^3
#
#
#
# Elastic Constant Matrix: (Units=GPa)
#
#
# Indices 1 2 3 4 5 6 
#
# 1 137.5737 27.8089 5.5068 0.0000 -10.3958 0.0000
# 2 27.8089 91.0755 28.1032 0.0000 6.9094 0.0000
# 3 5.5068 28.1032 33.3161 0.0000 7.1825 0.0000
# 4 0.0000 0.0000 0.0000 14.6598 0.0000 8.4841
# 5 -10.3958 6.9094 7.1825 0.0000 21.5131 0.0000
# 6 0.0000 0.0000 0.0000 8.4841 0.0000 44.4208
#
#
#
# Elastic Compliance Matrix: (Units=1/GPa)
#
#
# Indices 1 2 3 4 5 6 
#
# 1 0.008222 -0.002889 0.000023 0.000000 0.004893 0.000000
# 2 -0.002889 0.015866 -0.012399 0.000000 -0.002352 0.000000
# 3 0.000023 -0.012399 0.042682 0.000000 -0.010257 0.000000
# 4 0.000000 0.000000 0.000000 0.076691 0.000000 -0.014647
# 5 0.004893 -0.002352 -0.010257 0.000000 0.053028 0.000000
# 6 0.000000 0.000000 0.000000 -0.014647 0.000000 0.025310
#
#
# Mechanical properties :
#
#
# Convention : Reuss Voigt Hill
#
# Bulk Modulus (GPa) = 27.59382 42.75589 35.17486
# Shear Modulus (GPa) = 18.91016 29.48850 24.19933
#
# Velocity S-wave (km/s) = 2.88868 3.60726 3.26778
# Velocity P-wave (km/s) = 4.82724 6.01803 5.45522
#
# Compressibility (1/GPa) = 0.03624000
#
# Stress axis : x y z
#
# Youngs Moduli (GPa) = 121.63142 63.02626 23.42898
#
# Poissons Ratio (x) = 0.18206 -0.00054
# Poissons Ratio (y) = 0.35135 0.29050
# Poissons Ratio (z) = -0.00278 0.78148
#
# Static dielectric constant tensor:
#      x y z
#    x 1.823860 0.000000 0.021420 
#    y 0.000000 2.022740 0.000000 
#    z 0.021420 0.000000 1.807640 
# 
# From -- ./inp_files/217545.got.cif
#   From: 2010.05.17/outbox.cif.g08.bks.cpg/sg15_109_cif.got.tgz:217545.got - 2010.06.03 18:47:42.
