data_PCOD9274570
_publ_section_title
;
Structure prediction by ZEFSAII (Michael W. Deem and Ramdas Pophale) SiO2 
 PCOD9274570
Probable space group: C 2/C
;
_chemical_formula_sum "Si O2"
_cell_formula_units_Z 40
_cell_length_a 11.591632
_cell_length_b 7.286976
_cell_length_c 19.419732
_cell_angle_alpha 90.000000
_cell_angle_beta 67.966429
_cell_angle_gamma 90.000000
_cell_volume 1520.540948
_symmetry_space_group_name_H-M "C 2/C"
_symmetry_group_IT_number 15
_symmetry_cell_setting 'monoclinic'
loop_
_space_group_symop_operation_xyz
x,y,z
-x,y,1/2-z
-x,-y,-z
x,-y,1/2+z
1/2+x,1/2+y,z
1/2-x,1/2+y,1/2-z
1/2-x,1/2-y,-z
1/2+x,1/2-y,1/2+z
loop_
_atom_site_type_symbol
_atom_site_label
_atom_site_fract_x
_atom_site_fract_y
_atom_site_fract_z
Si Si1 0.874342 0.352461 0.256034
Si Si2 0.741992 0.205677 0.856106
Si Si3 0.283824 0.032916 0.508603
Si Si4 0.012741 0.645251 0.129887
Si Si5 0.339157 0.420716 0.089272
O O1 0.775702 0.288750 0.221116
O O2 0.791161 0.384658 0.341557
O O3 0.000000 0.243660 0.250000
O O4 0.932981 0.521315 0.199252
O O5 0.881331 0.256929 0.847494
O O6 0.643570 0.362509 0.900852
O O7 0.715025 0.026022 0.909150
O O8 0.250000 0.250000 0.500000
O O9 0.415885 0.017091 0.441699
O O10 0.186099 0.912675 0.486845
O O11 0.941486 0.798123 0.101943
#
# Coordination Sequence:
#
# PCOD9274570 Si02
#       5
#     8   8   8   8   8
#     4  12  22  40  60  83 122 158 195 243 293 344
#     4  10  23  40  61  90 117 156 197 237 297 349
#     4   8  18  37  62  88 116 154 192 237 298 346
#     4  10  21  41  62  83 124 152 193 251 286 348
#     4  10  20  38  64  86 116 157 196 236 299 345
#
# _framework density 26.306425000000001
#
# number of rings (size 3 to 8) (size 9 to 14) (size 15 to 20)
#    0.000    2.400    4.000    1.200    0.000    8.000 
#    7.200    1.000    0.000    0.000    0.000    0.000 
#    0.000    0.000    0.000    0.000    0.000    0.000 
#
# Total GULP energy -111642.971857 kJ/mol
# GULP energy per Si atom -5582.148593 kJ/mol
# Density = 2.624655 g / cm^3
# Si number density = 26.306425 Si / 1000 Ang^3
#
#
#
# Elastic Constant Matrix: (Units=GPa)
#
#
# Indices 1 2 3 4 5 6 
#
# 1 128.7241 37.7632 -12.0307 0.0000 9.4169 0.0000
# 2 37.7632 52.2616 6.1360 0.0000 10.9788 0.0000
# 3 -12.0307 6.1360 54.1875 0.0000 2.7738 0.0000
# 4 0.0000 0.0000 0.0000 30.3796 0.0000 8.1406
# 5 9.4169 10.9788 2.7738 0.0000 47.3320 0.0000
# 6 0.0000 0.0000 0.0000 8.1406 0.0000 45.7844
#
#
#
# Elastic Compliance Matrix: (Units=1/GPa)
#
#
# Indices 1 2 3 4 5 6 
#
# 1 0.010386 -0.007788 0.003211 0.000000 -0.000448 0.000000
# 2 -0.007788 0.026182 -0.004476 0.000000 -0.004261 0.000000
# 3 0.003211 -0.004476 0.019713 0.000000 -0.000756 0.000000
# 4 0.000000 0.000000 0.000000 0.034564 0.000000 -0.006146
# 5 -0.000448 -0.004261 -0.000756 0.000000 0.022249 0.000000
# 6 0.000000 0.000000 0.000000 -0.006146 0.000000 0.022934
#
#
# Mechanical properties :
#
#
# Convention : Reuss Voigt Hill
#
# Bulk Modulus (GPa) = 26.19441 33.21224 29.70333
# Shear Modulus (GPa) = 29.96549 38.25283 34.10916
#
# Velocity S-wave (km/s) = 3.37871 3.81744 3.60475
# Velocity P-wave (km/s) = 5.01995 5.66418 5.35177
#
# Compressibility (1/GPa) = 0.03817608
#
# Stress axis : x y z
#
# Youngs Moduli (GPa) = 96.28347 38.19371 50.72856
#
# Poissons Ratio (x) = 0.29743 -0.16287
# Poissons Ratio (y) = 0.74981 0.22704
# Poissons Ratio (z) = -0.30913 0.17094
#
# Static dielectric constant tensor:
#      x y z
#    x 2.137790 0.000000 0.058030 
#    y 0.000000 2.185190 0.000000 
#    z 0.058030 0.000000 2.166890 
# 
# From -- ./inp_files/235708.got.cif
#   From: 2010.05.17/outbox.cif.g08.bks.cpg/sg15_118_cif.got.tgz:235708.got - 2010.06.03 18:47:42.
