data_PCOD9274290
_publ_section_title
;
Structure prediction by ZEFSAII (Michael W. Deem and Ramdas Pophale) SiO2 
 PCOD9274290
Probable space group: C 2/C
;
_chemical_formula_sum "Si O2"
_cell_formula_units_Z 40
_cell_length_a 8.705826
_cell_length_b 16.767200
_cell_length_c 15.435793
_cell_angle_alpha 90.000000
_cell_angle_beta 48.262027
_cell_angle_gamma 90.000000
_cell_volume 1681.330341
_symmetry_space_group_name_H-M "C 2/C"
_symmetry_group_IT_number 15
_symmetry_cell_setting 'monoclinic'
loop_
_space_group_symop_operation_xyz
x,y,z
-x,y,1/2-z
-x,-y,-z
x,-y,1/2+z
1/2+x,1/2+y,z
1/2-x,1/2+y,1/2-z
1/2-x,1/2-y,-z
1/2+x,1/2-y,1/2+z
loop_
_atom_site_type_symbol
_atom_site_label
_atom_site_fract_x
_atom_site_fract_y
_atom_site_fract_z
Si Si1 0.146538 0.495892 0.276505
Si Si2 0.179292 0.416113 0.977645
Si Si3 0.078373 0.931192 0.106010
Si Si4 0.596839 0.371769 0.902476
Si Si5 0.342340 0.205878 0.550396
O O1 0.335619 0.436160 0.196612
O O2 0.259427 0.581924 0.220835
O O3 0.000000 0.488999 0.250000
O O4 0.995266 0.468918 0.409413
O O5 0.055546 0.346716 0.972156
O O6 0.328327 0.487500 0.888270
O O7 0.352466 0.376755 0.974664
O O8 0.173154 0.861042 0.125114
O O9 0.135725 0.915013 0.982074
O O10 0.646667 0.278483 0.887352
O O11 0.250000 0.250000 0.500000
#
# Coordination Sequence:
#
# PCOD9274290 Si02
#       5
#     8   8   8   8   8
#     4  11  19  36  64  89 120 162 218 259 309 383
#     4  11  20  38  67  89 120 174 214 256 319 387
#     4  10  20  38  62  90 125 169 211 258 313 382
#     4  10  20  39  63  91 123 163 208 266 327 372
#     4  10  23  40  60  90 131 163 209 268 325 371
#
# _framework density 23.790683999999999
#
# number of rings (size 3 to 8) (size 9 to 14) (size 15 to 20)
#    0.000    1.600    4.000    2.400    0.000    0.800 
#    3.600    0.000    0.000    0.000    0.000    0.000 
#    0.000    0.000    0.000    0.000    0.000    0.000 
#
# Total GULP energy -111422.697676 kJ/mol
# GULP energy per Si atom -5571.134884 kJ/mol
# Density = 2.373653 g / cm^3
# Si number density = 23.790684 Si / 1000 Ang^3
#
#
#
# Elastic Constant Matrix: (Units=GPa)
#
#
# Indices 1 2 3 4 5 6 
#
# 1 146.2901 75.4651 48.7650 -0.0001 -47.9253 0.0000
# 2 75.4651 176.9899 54.1780 0.0000 -21.1613 0.0000
# 3 48.7650 54.1780 97.4099 0.0000 -14.1589 0.0001
# 4 -0.0001 0.0000 0.0000 10.0697 0.0000 -13.5419
# 5 -47.9253 -21.1613 -14.1589 0.0000 46.9792 0.0000
# 6 0.0000 0.0000 0.0001 -13.5419 0.0000 65.7750
#
#
#
# Elastic Compliance Matrix: (Units=1/GPa)
#
#
# Indices 1 2 3 4 5 6 
#
# 1 0.013236 -0.003358 -0.003154 0.000000 0.011039 0.000000
# 2 -0.003358 0.007849 -0.002790 0.000000 -0.000732 0.000000
# 3 -0.003154 -0.002790 0.013330 0.000000 -0.000457 0.000000
# 4 0.000000 0.000000 0.000000 0.137332 0.000000 0.028274
# 5 0.011039 -0.000732 -0.000457 0.000000 0.032080 0.000000
# 6 0.000000 0.000000 0.000000 0.028274 0.000000 0.021025
#
#
# Mechanical properties :
#
#
# Convention : Reuss Voigt Hill
#
# Bulk Modulus (GPa) = 63.25075 86.38955 74.82015
# Shear Modulus (GPa) = 20.10237 40.71690 30.40963
#
# Velocity S-wave (km/s) = 2.90999 4.14147 3.57909
# Velocity P-wave (km/s) = 6.15912 7.69807 6.97119
#
# Compressibility (1/GPa) = 0.01581009
#
# Stress axis : x y z
#
# Youngs Moduli (GPa) = 75.55192 127.41033 75.01692
#
# Poissons Ratio (x) = 0.42788 0.23658
# Poissons Ratio (y) = 0.25373 0.20933
# Poissons Ratio (z) = 0.23827 0.35553
#
# Static dielectric constant tensor:
#      x y z
#    x 2.022050 0.000000 0.097880 
#    y 0.000000 1.960430 0.000000 
#    z 0.097880 0.000000 1.917020 
# 
# From -- ./inp_files/232433.got.cif
#   From: 2010.05.17/outbox.cif.g08.bks.cpg/sg15_117_cif.got.tgz:232433.got - 2010.06.03 18:47:42.
