data_PCOD9274028
_publ_section_title
;
Structure prediction by ZEFSAII (Michael W. Deem and Ramdas Pophale) SiO2 
 PCOD9274028
Probable space group: C 2/C
;
_chemical_formula_sum "Si O2"
_cell_formula_units_Z 64
_cell_length_a 13.406512
_cell_length_b 13.791034
_cell_length_c 32.774680
_cell_angle_alpha 90.000000
_cell_angle_beta 151.538284
_cell_angle_gamma 90.000000
_cell_volume 2887.879758
_symmetry_space_group_name_H-M "C 2/C"
_symmetry_group_IT_number 15
_symmetry_cell_setting 'monoclinic'
loop_
_space_group_symop_operation_xyz
x,y,z
-x,y,1/2-z
-x,-y,-z
x,-y,1/2+z
1/2+x,1/2+y,z
1/2-x,1/2+y,1/2-z
1/2-x,1/2-y,-z
1/2+x,1/2-y,1/2+z
loop_
_atom_site_type_symbol
_atom_site_label
_atom_site_fract_x
_atom_site_fract_y
_atom_site_fract_z
Si Si1 0.286309 0.683979 0.250360
Si Si2 0.715989 0.963185 0.449393
Si Si3 0.800303 0.359058 0.198665
Si Si4 0.720383 0.536615 0.748733
Si Si5 0.852088 0.330221 0.007203
Si Si6 0.597155 0.701154 0.541618
Si Si7 0.297715 0.708964 0.700362
Si Si8 0.208685 0.687785 0.444637
O O1 0.376569 0.766481 0.252953
O O2 0.349830 0.572682 0.268057
O O3 0.302129 0.716742 0.302901
O O4 0.037170 0.690031 0.151989
O O5 0.473788 0.956176 0.346991
O O6 0.722778 0.928082 0.498741
O O7 0.849260 0.891291 0.468104
O O8 0.773343 0.074929 0.469773
O O9 0.686994 0.428182 0.190295
O O10 0.672165 0.320072 0.114252
O O11 0.000000 0.410298 0.250000
O O12 0.628525 0.616062 0.746424
O O13 0.102361 0.324567 0.102978
O O14 0.750000 0.250000 0.000000
O O15 0.800670 0.294543 0.943524
O O16 0.351941 0.723620 0.459084
O O17 0.500000 0.748623 0.750000
O O18 0.250000 0.750000 0.500000
#
# Coordination Sequence:
#
# PCOD9274028 Si02
#       8
#     8   8   8   8   8   8   8   8
#     4  10  22  39  59  84 116 152 187 241 296 345
#     4   9  19  38  60  80 112 158 192 233 285 348
#     4  11  21  37  60  84 113 148 196 237 282 341
#     4   9  20  38  58  80 114 149 192 239 286 344
#     4   9  20  38  60  84 117 154 197 244 294 348
#     4  11  20  37  60  86 115 148 190 243 287 343
#     4  10  20  38  61  84 112 153 200 242 288 353
#     4  11  21  37  56  86 122 148 183 241 299 345
#
# _framework density 22.161587999999998
#
# number of rings (size 3 to 8) (size 9 to 14) (size 15 to 20)
#    0.000    2.000    2.500    1.125    1.750    1.000 
#    6.750    0.625    2.750    0.000    0.000    0.000 
#    0.000    0.000    0.000    0.000    0.000    0.000 
#
# Total GULP energy -178617.679003 kJ/mol
# GULP energy per Si atom -5581.802469 kJ/mol
# Density = 2.211115 g / cm^3
# Si number density = 22.161588 Si / 1000 Ang^3
#
#
#
# Elastic Constant Matrix: (Units=GPa)
#
#
# Indices 1 2 3 4 5 6 
#
# 1 90.1114 25.0048 18.4481 0.0000 -12.2862 0.0000
# 2 25.0048 82.1841 -2.9077 0.0000 -20.0243 0.0000
# 3 18.4481 -2.9077 60.9656 -0.0001 -14.0501 0.0000
# 4 0.0000 0.0000 -0.0001 18.8517 0.0000 3.2652
# 5 -12.2862 -20.0243 -14.0501 0.0000 32.9720 0.0000
# 6 0.0000 0.0000 0.0000 3.2652 0.0000 21.7593
#
#
#
# Elastic Compliance Matrix: (Units=1/GPa)
#
#
# Indices 1 2 3 4 5 6 
#
# 1 0.013111 -0.003933 -0.003969 0.000000 0.000805 0.000000
# 2 -0.003933 0.015964 0.004267 0.000000 0.010048 0.000000
# 3 -0.003969 0.004267 0.020031 0.000000 0.009648 0.000000
# 4 0.000000 0.000000 0.000000 0.054461 0.000000 -0.008172
# 5 0.000805 0.010048 0.009648 0.000000 0.040842 0.000000
# 6 0.000000 0.000000 0.000000 -0.008172 0.000000 0.047184
#
#
# Mechanical properties :
#
#
# Convention : Reuss Voigt Hill
#
# Bulk Modulus (GPa) = 23.90371 34.92792 29.41582
# Shear Modulus (GPa) = 23.49524 27.56431 25.52978
#
# Velocity S-wave (km/s) = 3.25957 3.53056 3.39777
# Velocity P-wave (km/s) = 4.99759 5.69338 5.35680
#
# Compressibility (1/GPa) = 0.04183450
#
# Stress axis : x y z
#
# Youngs Moduli (GPa) = 76.27023 62.64230 49.92300
#
# Poissons Ratio (x) = 0.24640 0.19817
# Poissons Ratio (y) = 0.30000 -0.21303
# Poissons Ratio (z) = 0.30275 -0.26731
#
# Static dielectric constant tensor:
#      x y z
#    x 1.808610 0.000000 0.006680 
#    y 0.000000 1.785420 0.000000 
#    z 0.006680 0.000000 1.911840 
# 
# From -- ./inp_files/311233.got.cif
#   From: 2010.05.17/outbox.cif.g08.bks.cpg/sg15_156_cif.got.tgz:311233.got - 2010.06.03 18:47:42.
