data_PCOD9274381
_publ_section_title
;
Structure prediction by ZEFSAII (Michael W. Deem and Ramdas Pophale) SiO2 
 PCOD9274381
Probable space group: C 2/C
;
_chemical_formula_sum "Si O2"
_cell_formula_units_Z 64
_cell_length_a 25.226293
_cell_length_b 7.926469
_cell_length_c 13.762078
_cell_angle_alpha 90.000000
_cell_angle_beta 109.707950
_cell_angle_gamma 90.000000
_cell_volume 2590.611997
_symmetry_space_group_name_H-M "C 2/C"
_symmetry_group_IT_number 15
_symmetry_cell_setting 'monoclinic'
loop_
_space_group_symop_operation_xyz
x,y,z
-x,y,1/2-z
-x,-y,-z
x,-y,1/2+z
1/2+x,1/2+y,z
1/2-x,1/2+y,1/2-z
1/2-x,1/2-y,-z
1/2+x,1/2-y,1/2+z
loop_
_atom_site_type_symbol
_atom_site_label
_atom_site_fract_x
_atom_site_fract_y
_atom_site_fract_z
Si Si1 0.942068 0.811514 0.829812
Si Si2 0.049807 0.810656 0.213432
Si Si3 0.353235 0.568664 0.433843
Si Si4 0.667991 0.638530 0.863007
Si Si5 0.159812 0.674551 0.043755
Si Si6 0.835276 0.271324 0.165801
Si Si7 0.250736 0.294812 0.762400
Si Si8 0.961235 0.653263 0.501671
O O1 0.905792 0.855688 0.905927
O O2 0.899161 0.696198 0.740821
O O3 0.003985 0.745873 0.892606
O O4 0.949599 0.987309 0.779966
O O5 0.113166 0.769785 0.284109
O O6 0.000000 0.741295 0.250000
O O7 0.040736 0.764941 0.096476
O O8 0.338652 0.659866 0.525650
O O9 0.360589 0.370776 0.460369
O O10 0.298000 0.580107 0.333216
O O11 0.668295 0.434305 0.847199
O O12 0.720185 0.712836 0.835933
O O13 0.204409 0.644123 0.155624
O O14 0.181584 0.651622 0.947949
O O15 0.100620 0.582347 0.015902
O O16 0.791281 0.323322 0.220783
O O17 0.000000 0.500000 0.500000
#
# Coordination Sequence:
#
# PCOD9274381 Si02
#       8
#     8   8   8   8   8   8   8   8
#     4  10  21  41  69 101 128 172 235 283 331 410
#     4  11  22  40  73 102 132 176 231 289 338 407
#     4  10  21  39  69  99 125 170 233 284 337 402
#     4  10  20  38  63 101 129 164 225 287 344 393
#     4  11  22  43  66  93 132 177 229 279 337 404
#     4   9  22  38  66  98 124 173 231 278 332 412
#     4  11  19  38  62  95 137 164 214 287 346 389
#     4  12  26  44  65  96 146 185 216 282 356 413
#
# _framework density 24.70459
#
# number of rings (size 3 to 8) (size 9 to 14) (size 15 to 20)
#    0.000    1.500    2.500    3.375    5.250    0.000 
#   11.250    0.000    8.250    0.000    0.000    0.000 
#    0.000    0.000    0.000    0.000    0.000    0.000 
#
# Total GULP energy -179009.021657 kJ/mol
# GULP energy per Si atom -5594.031927 kJ/mol
# Density = 2.464836 g / cm^3
# Si number density = 24.704590 Si / 1000 Ang^3
#
#
#
# Elastic Constant Matrix: (Units=GPa)
#
#
# Indices 1 2 3 4 5 6 
#
# 1 125.9592 -1.7702 32.2967 0.0000 -7.2567 0.0000
# 2 -1.7702 11.8941 -4.7188 0.0000 -1.5529 0.0000
# 3 32.2967 -4.7188 100.9070 0.0000 4.3374 0.0000
# 4 0.0000 0.0000 0.0000 16.3590 0.0000 5.1171
# 5 -7.2567 -1.5529 4.3374 0.0000 50.9028 0.0000
# 6 0.0000 0.0000 0.0000 5.1171 0.0000 30.0272
#
#
#
# Elastic Compliance Matrix: (Units=1/GPa)
#
#
# Indices 1 2 3 4 5 6 
#
# 1 0.008762 0.000369 -0.002852 0.000000 0.001503 0.000000
# 2 0.000369 0.085944 0.003800 0.000000 0.002351 0.000000
# 3 -0.002852 0.003800 0.011054 0.000000 -0.001233 0.000000
# 4 0.000000 0.000000 0.000000 0.064571 0.000000 -0.011004
# 5 0.001503 0.002351 -0.001233 0.000000 0.020036 0.000000
# 6 0.000000 0.000000 0.000000 -0.011004 0.000000 0.035178
#
#
# Mechanical properties :
#
#
# Convention : Reuss Voigt Hill
#
# Bulk Modulus (GPa) = 9.22559 32.26400 20.74480
# Shear Modulus (GPa) = 19.30184 33.65464 26.47824
#
# Velocity S-wave (km/s) = 2.79822 3.69492 3.27738
# Velocity P-wave (km/s) = 3.76597 5.59388 4.76833
#
# Compressibility (1/GPa) = 0.10839416
#
# Stress axis : x y z
#
# Youngs Moduli (GPa) = 114.12798 11.63543 90.46866
#
# Poissons Ratio (x) = -0.00429 0.25800
# Poissons Ratio (y) = -0.04210 -0.34378
# Poissons Ratio (z) = 0.32547 -0.04421
#
# Static dielectric constant tensor:
#      x y z
#    x 1.909210 0.000000 -0.094940 
#    y 0.000000 2.060120 0.000000 
#    z -0.094940 0.000000 1.817820 
# 
# From -- ./inp_files/176633.got.cif
#   From: 2010.05.17/outbox.cif.g08.bks.cpg/sg15_89_cif.got.tgz:176633.got - 2010.06.03 18:47:42.
