data_PCOD9274341
_publ_section_title
;
Structure prediction by ZEFSAII (Michael W. Deem and Ramdas Pophale) SiO2 
 PCOD9274341
Probable space group: C 2/C
;
_chemical_formula_sum "Si O2"
_cell_formula_units_Z 48
_cell_length_a 24.045334
_cell_length_b 7.121457
_cell_length_c 9.887264
_cell_angle_alpha 90.000000
_cell_angle_beta 88.433044
_cell_angle_gamma 90.000000
_cell_volume 1692.440334
_symmetry_space_group_name_H-M "C 2/C"
_symmetry_group_IT_number 15
_symmetry_cell_setting 'monoclinic'
loop_
_space_group_symop_operation_xyz
x,y,z
-x,y,1/2-z
-x,-y,-z
x,-y,1/2+z
1/2+x,1/2+y,z
1/2-x,1/2+y,1/2-z
1/2-x,1/2-y,-z
1/2+x,1/2-y,1/2+z
loop_
_atom_site_type_symbol
_atom_site_label
_atom_site_fract_x
_atom_site_fract_y
_atom_site_fract_z
Si Si1 0.418315 0.231292 0.803519
Si Si2 0.305006 0.143877 0.732320
Si Si3 0.688663 0.256373 0.382301
Si Si4 0.804072 0.879515 0.502400
Si Si5 0.014752 0.774687 0.980192
Si Si6 0.096962 0.176276 0.693186
O O1 0.360181 0.119967 0.819012
O O2 0.458788 0.181718 0.926033
O O3 0.444515 0.220305 0.649337
O O4 0.413638 0.455573 0.815067
O O5 0.250000 0.250000 0.500000
O O6 0.242900 0.165900 0.793994
O O7 0.320903 0.335532 0.654911
O O8 0.695871 0.034132 0.368523
O O9 0.696264 0.395546 0.509667
O O10 0.624827 0.282639 0.335727
O O11 0.849496 0.792519 0.404087
O O12 0.044370 0.730274 0.121945
O O13 0.000000 0.000000 0.000000
#
# Coordination Sequence:
#
# PCOD9274341 Si02
#       6
#     8   8   8   8   8   8
#     4  10  20  38  62  93 134 168 215 277 334 395
#     4  12  22  41  62  92 132 174 217 274 330 391
#     4  12  24  41  65  95 135 177 217 275 330 392
#     4  12  24  42  65  98 133 173 223 265 330 403
#     4   9  19  35  67  95 121 172 217 272 337 395
#     4  11  19  40  64  95 130 167 223 268 329 397
#
# _framework density 28.361412000000001
#
# number of rings (size 3 to 8) (size 9 to 14) (size 15 to 20)
#    0.000    1.000    6.667    0.000    0.000    0.667 
#    3.000    0.833    0.000   18.000    0.000    0.000 
#    0.000    0.000    0.000    0.000    0.000    0.000 
#
# Total GULP energy -133974.770293 kJ/mol
# GULP energy per Si atom -5582.282096 kJ/mol
# Density = 2.829686 g / cm^3
# Si number density = 28.361412 Si / 1000 Ang^3
#
#
#
# Elastic Constant Matrix: (Units=GPa)
#
#
# Indices 1 2 3 4 5 6 
#
# 1 133.4437 36.3006 82.4404 0.0000 44.9445 0.0000
# 2 36.3006 163.9126 16.8621 0.0000 19.7712 0.0000
# 3 82.4404 16.8621 96.2851 0.0000 37.6958 0.0000
# 4 0.0000 0.0000 0.0000 34.4715 0.0000 -2.0684
# 5 44.9445 19.7712 37.6958 0.0000 90.0011 0.0000
# 6 0.0000 0.0000 0.0000 -2.0684 0.0000 23.4147
#
#
#
# Elastic Compliance Matrix: (Units=1/GPa)
#
#
# Indices 1 2 3 4 5 6 
#
# 1 0.017155 -0.002124 -0.013331 0.000000 -0.002517 0.000000
# 2 -0.002124 0.006566 0.000979 0.000000 -0.000792 0.000000
# 3 -0.013331 0.000979 0.022854 0.000000 -0.003130 0.000000
# 4 0.000000 0.000000 0.000000 0.029164 0.000000 0.002576
# 5 -0.002517 -0.000792 -0.003130 0.000000 0.013853 0.000000
# 6 0.000000 0.000000 0.000000 0.002576 0.000000 0.042936
#
#
# Mechanical properties :
#
#
# Convention : Reuss Voigt Hill
#
# Bulk Modulus (GPa) = 56.74698 73.87193 65.30946
# Shear Modulus (GPa) = 29.87665 46.78002 38.32834
#
# Velocity S-wave (km/s) = 3.24917 4.06572 3.68016
# Velocity P-wave (km/s) = 5.84193 6.93853 6.41371
#
# Compressibility (1/GPa) = 0.01762208
#
# Stress axis : x y z
#
# Youngs Moduli (GPa) = 58.29155 152.29872 43.75597
#
# Poissons Ratio (x) = 0.32352 0.58332
# Poissons Ratio (y) = 0.12383 -0.04283
# Poissons Ratio (z) = 0.77709 -0.14908
#
# Static dielectric constant tensor:
#      x y z
#    x 2.222670 0.000000 0.147130 
#    y 0.000000 2.118700 0.000000 
#    z 0.147130 0.000000 2.354860 
# 
# From -- ./inp_files/110653.got.cif
#   From: 2010.05.17/outbox.cif.g08.bks.cpg/sg15_56_cif.got.tgz:110653.got - 2010.06.03 18:47:42.
