data_PCOD9274886
_publ_section_title
;
Structure prediction by ZEFSAII (Michael W. Deem and Ramdas Pophale) SiO2 
 PCOD9274886
Probable space group: C 2/C
;
_chemical_formula_sum "Si O2"
_cell_formula_units_Z 60
_cell_length_a 16.888300
_cell_length_b 18.689674
_cell_length_c 13.465024
_cell_angle_alpha 90.000000
_cell_angle_beta 46.013515
_cell_angle_gamma 90.000000
_cell_volume 3057.931740
_symmetry_space_group_name_H-M "C 2/C"
_symmetry_group_IT_number 15
_symmetry_cell_setting 'monoclinic'
loop_
_space_group_symop_operation_xyz
x,y,z
-x,y,1/2-z
-x,-y,-z
x,-y,1/2+z
1/2+x,1/2+y,z
1/2-x,1/2+y,1/2-z
1/2-x,1/2-y,-z
1/2+x,1/2-y,1/2+z
loop_
_atom_site_type_symbol
_atom_site_label
_atom_site_fract_x
_atom_site_fract_y
_atom_site_fract_z
Si Si1 0.959814 0.249994 0.104383
Si Si2 0.000000 0.947863 0.250000
Si Si3 0.308185 0.442410 0.922550
Si Si4 0.598602 0.097759 0.923511
Si Si5 0.368870 0.280430 0.897690
Si Si6 0.180208 0.036028 0.858443
Si Si7 0.563302 0.022342 0.591671
Si Si8 0.444882 0.397373 0.514021
O O1 0.085135 0.236747 0.031964
O O2 0.925192 0.318890 0.072098
O O3 0.916756 0.254646 0.255266
O O4 0.922271 0.180109 0.077780
O O5 0.040700 0.904217 0.118131
O O6 0.102090 0.999423 0.192135
O O7 0.365603 0.364933 0.876053
O O8 0.284714 0.460967 0.057724
O O9 0.186896 0.445146 0.980772
O O10 0.722519 0.073144 0.787311
O O11 0.513836 0.061082 0.920831
O O12 0.574516 0.060795 0.049996
O O13 0.250000 0.250000 0.000000
O O14 0.063607 0.076429 0.950678
O O15 0.147862 0.953235 0.868275
O O16 0.500000 0.030736 0.750000
#
# Coordination Sequence:
#
# PCOD9274886 Si02
#       8
#     8   4   8   8   8   8   8   8
#     4  11  24  39  59  94 130 159 209 254 327 384
#     4  10  22  38  64  90 122 166 212 270 310 362
#     4  11  20  38  65  92 123 159 217 264 314 371
#     4  11  24  42  61  92 125 171 208 254 315 382
#     4  11  23  37  59  93 129 165 191 264 331 381
#     4  10  20  38  66  89 125 159 212 265 313 371
#     4  11  24  41  65  89 122 169 219 257 300 380
#     4  10  22  39  62  96 123 162 210 266 322 377
#
# _framework density 19.621105
#
# number of rings (size 3 to 8) (size 9 to 14) (size 15 to 20)
#    0.000    1.333    2.667    3.200    7.467    0.000 
#    1.200    0.000    0.000    4.000    0.000    0.000 
#    0.000    0.000    0.000    0.000    0.000    0.000 
#
# Total GULP energy -167253.304089 kJ/mol
# GULP energy per Si atom -5575.110136 kJ/mol
# Density = 1.957645 g / cm^3
# Si number density = 19.621105 Si / 1000 Ang^3
#
#
#
# Elastic Constant Matrix: (Units=GPa)
#
#
# Indices 1 2 3 4 5 6 
#
# 1 56.3504 8.7197 6.4562 0.0000 -18.9996 0.0000
# 2 8.7197 104.7130 1.7084 0.0000 -12.3800 0.0000
# 3 6.4562 1.7084 44.9075 0.0000 -7.0403 0.0000
# 4 0.0000 0.0000 0.0000 -2.7493 0.0000 -15.9442
# 5 -18.9996 -12.3800 -7.0403 0.0000 32.4802 0.0000
# 6 0.0000 0.0000 0.0000 -15.9442 0.0000 9.6424
#
#
#
# Elastic Compliance Matrix: (Units=1/GPa)
#
#
# Indices 1 2 3 4 5 6 
#
# 1 0.022179 -0.000340 -0.001203 0.000000 0.012584 0.000000
# 2 -0.000340 0.010008 0.000243 0.000000 0.003669 0.000000
# 3 -0.001203 0.000243 0.023122 0.000000 0.004401 0.000000
# 4 0.000000 0.000000 0.000000 -0.034348 0.000000 -0.056796
# 5 0.012584 0.003669 0.004401 0.000000 0.040501 0.000000
# 6 0.000000 0.000000 0.000000 -0.056796 0.000000 0.009794
#
#
# Mechanical properties :
#
#
# Convention : Reuss Voigt Hill
#
# Bulk Modulus (GPa) = 18.97156 26.63774 22.80465
# Shear Modulus (GPa) = 54.68988 20.48042 37.58515
#
# Velocity S-wave (km/s) = 5.28521 3.23429 4.38144
# Velocity P-wave (km/s) = 6.85088 5.24910 6.10277
#
# Compressibility (1/GPa) = 0.05271047
#
# Stress axis : x y z
#
# Youngs Moduli (GPa) = 45.08695 99.92048 43.24961
#
# Poissons Ratio (x) = 0.03393 0.05203
# Poissons Ratio (y) = 0.01531 -0.01052
# Poissons Ratio (z) = 0.05424 -0.02430
#
# Static dielectric constant tensor:
#      x y z
#    x 1.767430 0.000000 -0.072690 
#    y 0.000000 1.724010 0.000000 
#    z -0.072690 0.000000 1.813290 
# 
# From -- ./inp_files/163533.got.cif
#   From: 2010.05.17/outbox.cif.g08.bks.cpg/sg15_82_cif.got.tgz:163533.got - 2010.06.03 18:47:42.
