data_PCOD9274617
_publ_section_title
;
Structure prediction by ZEFSAII (Michael W. Deem and Ramdas Pophale) SiO2 
 PCOD9274617
Probable space group: C 2/C
;
_chemical_formula_sum "Si O2"
_cell_formula_units_Z 44
_cell_length_a 17.247236
_cell_length_b 9.199424
_cell_length_c 14.936150
_cell_angle_alpha 90.000000
_cell_angle_beta 78.264740
_cell_angle_gamma 90.000000
_cell_volume 2320.304039
_symmetry_space_group_name_H-M "C 2/C"
_symmetry_group_IT_number 15
_symmetry_cell_setting 'monoclinic'
loop_
_space_group_symop_operation_xyz
x,y,z
-x,y,1/2-z
-x,-y,-z
x,-y,1/2+z
1/2+x,1/2+y,z
1/2-x,1/2+y,1/2-z
1/2-x,1/2-y,-z
1/2+x,1/2-y,1/2+z
loop_
_atom_site_type_symbol
_atom_site_label
_atom_site_fract_x
_atom_site_fract_y
_atom_site_fract_z
Si Si1 0.274252 0.174642 0.086993
Si Si2 0.927550 0.960674 0.399026
Si Si3 0.500000 0.301847 0.750000
Si Si4 0.658214 0.691522 0.280983
Si Si5 0.758275 0.847436 0.410225
Si Si6 0.900450 0.906700 0.102161
O O1 0.206044 0.186663 0.177550
O O2 0.348509 0.262991 0.107678
O O3 0.283167 0.003837 0.067410
O O4 0.250000 0.250000 0.000000
O O5 0.954931 0.095451 0.331714
O O6 0.903548 0.019540 0.502763
O O7 0.852224 0.878077 0.376581
O O8 0.009334 0.873171 0.391078
O O9 0.426601 0.228930 0.715685
O O10 0.714582 0.769050 0.339070
O O11 0.636433 0.530869 0.324552
O O12 0.750000 0.750000 0.500000
#
# Coordination Sequence:
#
# PCOD9274617 Si02
#       6
#     8   8   4   8   8   8
#     4  12  22  39  62  94 124 166 211 257 313 376
#     4  10  20  39  64  91 119 166 215 252 304 376
#     4  10  20  38  64  90 114 172 214 248 298 380
#     4  11  22  38  67  91 125 161 214 259 312 368
#     4  12  23  40  64  96 127 164 203 266 320 372
#     4  10  21  40  66  89 122 167 215 256 305 382
#
# _framework density 18.963031999999998
#
# number of rings (size 3 to 8) (size 9 to 14) (size 15 to 20)
#    0.000    1.091    5.455    1.091    2.545    0.000 
#    0.000    0.909    8.000    0.000    0.000    0.000 
#    0.000    0.000    0.000    0.000    0.000    0.000 
#
# Total GULP energy -122779.125174 kJ/mol
# GULP energy per Si atom -5580.869326 kJ/mol
# Density = 1.891987 g / cm^3
# Si number density = 18.963032 Si / 1000 Ang^3
#
#
#
# Elastic Constant Matrix: (Units=GPa)
#
#
# Indices 1 2 3 4 5 6 
#
# 1 199.9708 61.8829 39.2273 0.0000 4.7089 0.0000
# 2 61.8829 96.6432 34.8408 0.0000 -2.2248 0.0000
# 3 39.2273 34.8408 135.0379 0.0000 1.8838 0.0000
# 4 0.0000 0.0000 0.0000 16.0393 0.0000 2.3646
# 5 4.7089 -2.2248 1.8838 0.0000 32.6237 0.0000
# 6 0.0000 0.0000 0.0000 2.3646 0.0000 44.7328
#
#
#
# Elastic Compliance Matrix: (Units=1/GPa)
#
#
# Indices 1 2 3 4 5 6 
#
# 1 0.006370 -0.003797 -0.000855 0.000000 -0.001129 0.000000
# 2 -0.003797 0.013701 -0.002455 0.000000 0.001624 0.000000
# 3 -0.000855 -0.002455 0.008294 0.000000 -0.000523 0.000000
# 4 0.000000 0.000000 0.000000 0.062837 0.000000 -0.003322
# 5 -0.001129 0.001624 -0.000523 0.000000 0.030956 0.000000
# 6 0.000000 0.000000 0.000000 -0.003322 0.000000 0.022531
#
#
# Mechanical properties :
#
#
# Convention : Reuss Voigt Hill
#
# Bulk Modulus (GPa) = 70.65989 78.17264 74.41627
# Shear Modulus (GPa) = 30.55886 38.39256 34.47571
#
# Velocity S-wave (km/s) = 4.01870 4.50444 4.26848
# Velocity P-wave (km/s) = 7.67307 8.26840 7.97629
#
# Compressibility (1/GPa) = 0.01415230
#
# Stress axis : x y z
#
# Youngs Moduli (GPa) = 156.98746 72.98916 120.56392
#
# Poissons Ratio (x) = 0.27711 0.10310
# Poissons Ratio (y) = 0.59601 0.29594
# Poissons Ratio (z) = 0.13424 0.17916
#
# Static dielectric constant tensor:
#      x y z
#    x 1.725490 0.000000 0.013830 
#    y 0.000000 1.646290 0.000000 
#    z 0.013830 0.000000 1.724080 
# 
# From -- ./inp_files/159182.got.cif
#   From: 2010.05.17/outbox.cif.g08.bks.cpg/sg15_80_cif.got.tgz:159182.got - 2010.06.03 18:47:42.
