data_PCOD9274708
_publ_section_title
;
Structure prediction by ZEFSAII (Michael W. Deem and Ramdas Pophale) SiO2 
 PCOD9274708
Probable space group: C 2/C
;
_chemical_formula_sum "Si O2"
_cell_formula_units_Z 56
_cell_length_a 16.240913
_cell_length_b 12.856037
_cell_length_c 29.056551
_cell_angle_alpha 90.000000
_cell_angle_beta 28.768993
_cell_angle_gamma 90.000000
_cell_volume 2919.838705
_symmetry_space_group_name_H-M "C 2/C"
_symmetry_group_IT_number 15
_symmetry_cell_setting 'monoclinic'
loop_
_space_group_symop_operation_xyz
x,y,z
-x,y,1/2-z
-x,-y,-z
x,-y,1/2+z
1/2+x,1/2+y,z
1/2-x,1/2+y,1/2-z
1/2-x,1/2-y,-z
1/2+x,1/2-y,1/2+z
loop_
_atom_site_type_symbol
_atom_site_label
_atom_site_fract_x
_atom_site_fract_y
_atom_site_fract_z
Si Si1 0.507920 0.604408 0.466236
Si Si2 0.118341 0.276369 0.901285
Si Si3 0.378473 0.153672 0.438981
Si Si4 0.455209 0.157952 0.703133
Si Si5 0.101503 0.414522 0.746447
Si Si6 0.140665 0.148134 0.147878
Si Si7 0.744539 0.577864 0.997299
O O1 0.500000 0.500000 0.500000
O O2 0.467425 0.691019 0.524025
O O3 0.700062 0.613185 0.353477
O O4 0.375974 0.600447 0.487903
O O5 0.276520 0.222289 0.794860
O O6 0.193663 0.355628 0.901850
O O7 0.988907 0.331436 0.930659
O O8 0.250000 0.250000 0.500000
O O9 0.510845 0.145954 0.332081
O O10 0.278937 0.044888 0.483848
O O11 0.584648 0.230651 0.668839
O O12 0.572332 0.136696 0.600250
O O13 0.418497 0.040336 0.737768
O O14 0.000000 0.387876 0.750000
O O15 0.160442 0.109567 0.086628
O O16 0.000000 0.097060 0.250000
#
# Coordination Sequence:
#
# PCOD9274708 Si02
#       7
#     8   8   8   8   8   8   8
#     4  12  22  37  67  97 128 167 221 270 333 381
#     4  11  22  38  63  92 132 175 203 271 326 381
#     4  11  26  44  60  91 139 171 212 270 336 394
#     4  10  20  38  64  95 125 156 218 278 309 369
#     4  11  22  38  64  94 126 171 221 271 327 387
#     4  10  22  39  65  90 127 158 215 269 315 370
#     4  11  24  41  65  96 126 171 219 270 323 396
#
# _framework density 19.179141000000001
#
# number of rings (size 3 to 8) (size 9 to 14) (size 15 to 20)
#    0.000    1.143    2.857    5.143    4.000    0.571 
#    0.000    2.143    0.000    0.000    0.000    0.000 
#    0.000    0.000    0.000    0.000    0.000    0.000 
#
# Total GULP energy -156109.604432 kJ/mol
# GULP energy per Si atom -5575.343015 kJ/mol
# Density = 1.913549 g / cm^3
# Si number density = 19.179141 Si / 1000 Ang^3
#
#
#
# Elastic Constant Matrix: (Units=GPa)
#
#
# Indices 1 2 3 4 5 6 
#
# 1 116.2338 24.1541 49.2169 0.0003 6.1111 -0.0001
# 2 24.1541 40.5659 38.0586 -0.0004 3.6370 0.0001
# 3 49.2169 38.0586 142.2701 -0.0031 16.2301 0.0002
# 4 0.0003 -0.0004 -0.0031 11.9103 -0.0001 10.1024
# 5 6.1111 3.6370 16.2301 -0.0001 38.6085 0.0001
# 6 -0.0001 0.0001 0.0002 10.1024 0.0001 19.0492
#
#
#
# Elastic Compliance Matrix: (Units=1/GPa)
#
#
# Indices 1 2 3 4 5 6 
#
# 1 0.010502 -0.003803 -0.002591 -0.000002 -0.000215 0.000001
# 2 -0.003803 0.034303 -0.007942 -0.000001 0.000709 0.000001
# 3 -0.002591 -0.007942 0.010417 0.000005 -0.003221 -0.000003
# 4 -0.000002 -0.000001 0.000005 0.152609 -0.000001 -0.080934
# 5 -0.000215 0.000709 -0.003221 -0.000001 0.027222 0.000000
# 6 0.000001 0.000001 -0.000003 -0.080934 0.000000 0.095418
#
#
# Mechanical properties :
#
#
# Convention : Reuss Voigt Hill
#
# Bulk Modulus (GPa) = 37.66407 57.99211 47.82809
# Shear Modulus (GPa) = 13.58722 26.42296 20.00509
#
# Velocity S-wave (km/s) = 2.66454 3.71575 3.23316
# Velocity P-wave (km/s) = 5.39880 6.97939 6.23934
#
# Compressibility (1/GPa) = 0.02655051
#
# Stress axis : x y z
#
# Youngs Moduli (GPa) = 95.21871 29.15212 95.99489
#
# Poissons Ratio (x) = 0.11086 0.24875
# Poissons Ratio (y) = 0.36211 0.76236
# Poissons Ratio (z) = 0.24674 0.23152
#
# Static dielectric constant tensor:
#      x y z
#    x 1.647750 0.000000 0.011740 
#    y 0.000000 1.716200 0.000000 
#    z 0.011740 0.000000 1.673720 
# 
# From -- ./inp_files/296552.got.cif
#   From: 2010.05.17/outbox.cif.g08.bks.cpg/sg15_149_cif.got.tgz:296552.got - 2010.06.03 18:47:42.
