data_PCOD9274052
_publ_section_title
;
Structure prediction by ZEFSAII (Michael W. Deem and Ramdas Pophale) SiO2 
 PCOD9274052
Probable space group: C 2/C
;
_chemical_formula_sum "Si O2"
_cell_formula_units_Z 40
_cell_length_a 18.911356
_cell_length_b 6.722461
_cell_length_c 15.087229
_cell_angle_alpha 90.000000
_cell_angle_beta 51.315130
_cell_angle_gamma 90.000000
_cell_volume 1497.222965
_symmetry_space_group_name_H-M "C 2/C"
_symmetry_group_IT_number 15
_symmetry_cell_setting 'monoclinic'
loop_
_space_group_symop_operation_xyz
x,y,z
-x,y,1/2-z
-x,-y,-z
x,-y,1/2+z
1/2+x,1/2+y,z
1/2-x,1/2+y,1/2-z
1/2-x,1/2-y,-z
1/2+x,1/2-y,1/2+z
loop_
_atom_site_type_symbol
_atom_site_label
_atom_site_fract_x
_atom_site_fract_y
_atom_site_fract_z
Si Si1 0.185727 0.217451 0.939061
Si Si2 0.487048 0.263255 0.026062
Si Si3 0.420661 0.624969 0.876388
Si Si4 0.843178 0.258994 0.201741
Si Si5 0.275261 0.397741 0.361890
O O1 0.277488 0.132549 0.822847
O O2 0.217666 0.426446 0.955431
O O3 0.116267 0.283917 0.914878
O O4 0.128656 0.064240 0.040519
O O5 0.530563 0.238094 0.088804
O O6 0.500000 0.500000 0.000000
O O7 0.555187 0.174335 0.898352
O O8 0.500000 0.552884 0.750000
O O9 0.341425 0.713258 0.876770
O O10 0.791857 0.275090 0.147653
O O11 0.836892 0.036255 0.247510
#
# Coordination Sequence:
#
# PCOD9274052 Si02
#       5
#     8   8   8   8   8
#     4   9  21  36  59  92 120 158 211 250 306 367
#     4  10  20  38  61  86 120 165 209 246 308 375
#     4  11  20  36  65  91 124 165 213 253 303 381
#     4  10  21  39  63  87 125 168 204 258 307 380
#     4  10  21  36  60  92 124 162 207 256 312 365
#
# _framework density 26.716127
#
# number of rings (size 3 to 8) (size 9 to 14) (size 15 to 20)
#    1.200    0.800    0.000    6.600    0.000    1.600 
#    0.000    0.000    0.000    1.200    5.200    0.000 
#    0.000    0.000    0.000    0.000    0.000    0.000 
#
# Total GULP energy -111702.311831 kJ/mol
# GULP energy per Si atom -5585.115592 kJ/mol
# Density = 2.665532 g / cm^3
# Si number density = 26.716127 Si / 1000 Ang^3
#
#
#
# Elastic Constant Matrix: (Units=GPa)
#
#
# Indices 1 2 3 4 5 6 
#
# 1 172.0401 8.6032 26.6994 0.0000 10.6405 0.0000
# 2 8.6032 67.0585 20.3292 -0.0003 10.0320 0.0005
# 3 26.6994 20.3292 175.6654 0.0000 -35.5002 0.0001
# 4 0.0000 -0.0003 0.0000 32.8882 0.0002 5.5559
# 5 10.6405 10.0320 -35.5002 0.0002 39.8702 0.0000
# 6 0.0000 0.0005 0.0001 5.5559 0.0000 39.2454
#
#
#
# Elastic Compliance Matrix: (Units=1/GPa)
#
#
# Indices 1 2 3 4 5 6 
#
# 1 0.006247 0.000152 -0.001599 0.000000 -0.003129 0.000000
# 2 0.000152 0.017071 -0.003506 0.000000 -0.007457 0.000000
# 3 -0.001599 -0.003506 0.008055 0.000000 0.008481 0.000000
# 4 0.000000 0.000000 0.000000 0.031151 0.000000 -0.004410
# 5 -0.003129 -0.007457 0.008481 0.000000 0.035345 0.000000
# 6 0.000000 0.000000 0.000000 -0.004410 0.000000 0.026105
#
#
# Mechanical properties :
#
#
# Convention : Reuss Voigt Hill
#
# Bulk Modulus (GPa) = 46.58417 58.44751 52.51584
# Shear Modulus (GPa) = 35.45171 46.34289 40.89730
#
# Velocity S-wave (km/s) = 3.64672 4.16942 3.91680
# Velocity P-wave (km/s) = 5.93347 6.71591 6.33678
#
# Compressibility (1/GPa) = 0.02146652
#
# Stress axis : x y z
#
# Youngs Moduli (GPa) = 160.08241 58.57787 124.13940
#
# Poissons Ratio (x) = -0.00888 0.19855
# Poissons Ratio (y) = -0.02427 0.43520
# Poissons Ratio (z) = 0.25604 0.20536
#
# Static dielectric constant tensor:
#      x y z
#    x 2.122810 0.000000 0.041700 
#    y 0.000000 2.123190 0.000000 
#    z 0.041700 0.000000 2.165140 
# 
# From -- ./inp_files/159090.got.cif
#   From: 2010.05.17/outbox.cif.g08.bks.cpg/sg15_80_cif.got.tgz:159090.got - 2010.06.03 18:47:42.
