data_PCOD9274881
_publ_section_title
;
Structure prediction by ZEFSAII (Michael W. Deem and Ramdas Pophale) SiO2 
 PCOD9274881
Probable space group: C 2/C
;
_chemical_formula_sum "Si O2"
_cell_formula_units_Z 44
_cell_length_a 14.597136
_cell_length_b 12.881357
_cell_length_c 23.308478
_cell_angle_alpha 90.000000
_cell_angle_beta 151.770580
_cell_angle_gamma 90.000000
_cell_volume 2073.038147
_symmetry_space_group_name_H-M "C 2/C"
_symmetry_group_IT_number 15
_symmetry_cell_setting 'monoclinic'
loop_
_space_group_symop_operation_xyz
x,y,z
-x,y,1/2-z
-x,-y,-z
x,-y,1/2+z
1/2+x,1/2+y,z
1/2-x,1/2+y,1/2-z
1/2-x,1/2-y,-z
1/2+x,1/2-y,1/2+z
loop_
_atom_site_type_symbol
_atom_site_label
_atom_site_fract_x
_atom_site_fract_y
_atom_site_fract_z
Si Si1 0.000000 0.547237 0.250000
Si Si2 0.147683 0.911623 0.372889
Si Si3 0.127523 0.254755 0.085798
Si Si4 0.999507 0.456678 0.435565
Si Si5 0.218197 0.963117 0.688349
Si Si6 0.110418 0.882392 0.478682
O O1 0.862255 0.489736 0.219354
O O2 0.163232 0.608552 0.377730
O O3 0.225730 0.827220 0.369990
O O4 0.082948 0.858188 0.396521
O O5 0.000000 0.971392 0.250000
O O6 0.307127 0.993166 0.483051
O O7 0.210770 0.158560 0.168270
O O8 0.018042 0.200306 0.971881
O O9 0.016748 0.333547 0.066317
O O10 0.000000 0.500000 0.500000
O O11 0.818732 0.505347 0.302756
O O12 0.005194 0.011797 0.571940
#
# Coordination Sequence:
#
# PCOD9274881 Si02
#       6
#     4   8   8   8   8   8
#     4  10  20  38  66  88 130 170 210 258 322 368
#     4  11  23  39  64  98 133 171 214 271 324 377
#     4  10  23  39  68  96 126 172 217 263 330 383
#     4  10  22  41  61  94 138 169 208 272 326 382
#     4  11  23  43  66  99 132 169 217 270 323 386
#     4  11  22  41  68  95 133 166 218 268 319 384
#
# _framework density 21.224886999999999
#
# number of rings (size 3 to 8) (size 9 to 14) (size 15 to 20)
#    0.000    1.455    1.818    4.909    5.091    5.818 
#    0.000    0.909    8.000    0.000    0.000    0.000 
#    0.000    0.000    0.000    0.000    0.000    0.000 
#
# Total GULP energy -122494.190325 kJ/mol
# GULP energy per Si atom -5567.917742 kJ/mol
# Density = 2.117658 g / cm^3
# Si number density = 21.224887 Si / 1000 Ang^3
#
#
#
# Elastic Constant Matrix: (Units=GPa)
#
#
# Indices 1 2 3 4 5 6 
#
# 1 63.1484 42.0277 29.9252 0.0007 -15.1674 0.0000
# 2 42.0277 109.3695 48.2847 0.0032 -1.0436 0.0007
# 3 29.9252 48.2847 128.2434 0.0111 -14.9397 0.0023
# 4 0.0007 0.0032 0.0111 10.4107 0.0017 -9.1783
# 5 -15.1674 -1.0436 -14.9397 0.0017 43.4757 -0.0001
# 6 0.0000 0.0007 0.0023 -9.1783 -0.0001 23.3454
#
#
#
# Elastic Compliance Matrix: (Units=1/GPa)
#
#
# Indices 1 2 3 4 5 6 
#
# 1 0.024053 -0.008499 -0.001520 0.000003 0.007665 0.000002
# 2 -0.008499 0.014030 -0.003756 0.000001 -0.003919 0.000000
# 3 -0.001520 -0.003756 0.009890 -0.000016 0.002778 -0.000007
# 4 0.000003 0.000001 -0.000016 0.147011 -0.000010 0.057798
# 5 0.007665 -0.003919 0.002778 -0.000010 0.026536 -0.000004
# 6 0.000002 0.000000 -0.000007 0.057798 -0.000004 0.065558
#
#
# Mechanical properties :
#
#
# Convention : Reuss Voigt Hill
#
# Bulk Modulus (GPa) = 48.96130 60.13740 54.54935
# Shear Modulus (GPa) = 15.55520 27.48127 21.51824
#
# Velocity S-wave (km/s) = 2.71010 3.60219 3.18751
# Velocity P-wave (km/s) = 5.73680 6.75988 6.26924
#
# Compressibility (1/GPa) = 0.02042429
#
# Stress axis : x y z
#
# Youngs Moduli (GPa) = 41.57410 71.27633 101.11183
#
# Poissons Ratio (x) = 0.60577 0.15368
# Poissons Ratio (y) = 0.35334 0.37975
# Poissons Ratio (z) = 0.06319 0.26769
#
# Static dielectric constant tensor:
#      x y z
#    x 1.895710 0.000000 0.049100 
#    y 0.000000 1.827750 0.000000 
#    z 0.049100 0.000000 1.833860 
# 
# From -- ./inp_files/244624.got.cif
#   From: 2010.05.17/outbox.cif.g08.bks.cpg/sg15_123_cif.got.tgz:244624.got - 2010.06.03 18:47:42.
