data_PCOD9274997
_publ_section_title
;
Structure prediction by ZEFSAII (Michael W. Deem and Ramdas Pophale) SiO2 
 PCOD9274997
Probable space group: C 2/C
;
_chemical_formula_sum "Si O2"
_cell_formula_units_Z 56
_cell_length_a 9.290340
_cell_length_b 16.462983
_cell_length_c 18.132476
_cell_angle_alpha 90.000000
_cell_angle_beta 95.785197
_cell_angle_gamma 90.000000
_cell_volume 2759.177512
_symmetry_space_group_name_H-M "C 2/C"
_symmetry_group_IT_number 15
_symmetry_cell_setting 'monoclinic'
loop_
_space_group_symop_operation_xyz
x,y,z
-x,y,1/2-z
-x,-y,-z
x,-y,1/2+z
1/2+x,1/2+y,z
1/2-x,1/2+y,1/2-z
1/2-x,1/2-y,-z
1/2+x,1/2-y,1/2+z
loop_
_atom_site_type_symbol
_atom_site_label
_atom_site_fract_x
_atom_site_fract_y
_atom_site_fract_z
Si Si1 0.566463 0.469780 0.426964
Si Si2 0.932229 0.783905 0.667320
Si Si3 0.923995 0.368160 0.063167
Si Si4 0.122133 0.453609 0.873690
Si Si5 0.734481 0.155178 0.513968
Si Si6 0.894048 0.933078 0.814997
Si Si7 0.807434 0.601546 0.395774
O O1 0.500000 0.500000 0.500000
O O2 0.622725 0.379490 0.440061
O O3 0.443485 0.487691 0.361899
O O4 0.702513 0.525459 0.408863
O O5 0.898844 0.707577 0.614925
O O6 0.784706 0.836325 0.658512
O O7 0.000000 0.759380 0.750000
O O8 0.050986 0.849249 0.643211
O O9 0.881946 0.453560 0.098193
O O10 0.095337 0.364366 0.056503
O O11 0.847977 0.362729 0.978928
O O12 0.221199 0.439549 0.806581
O O13 0.956805 0.424413 0.865605
O O14 0.203025 0.399333 0.940051
O O15 0.750000 0.250000 0.500000
O O16 0.000000 0.933145 0.750000
#
# Coordination Sequence:
#
# PCOD9274997 Si02
#       7
#     8   8   8   8   8   8   8
#     4  11  19  37  63  90 125 166 207 261 316 375
#     4  10  23  42  59  89 128 170 207 257 326 394
#     4  11  20  38  65  94 131 158 214 270 320 374
#     4  11  20  41  63  97 125 160 214 273 317 379
#     4  11  21  35  61  98 127 162 210 265 326 373
#     4  10  22  41  65  86 125 169 215 253 323 392
#     4  10  20  38  67  94 120 161 216 266 313 375
#
# _framework density 20.295904
#
# number of rings (size 3 to 8) (size 9 to 14) (size 15 to 20)
#    0.000    1.429    4.286    2.143    2.000    0.000 
#    7.714    6.429    0.000    0.000    0.000    0.000 
#    0.000    0.000    0.000    0.000    0.000    0.000 
#
# Total GULP energy -156137.825623 kJ/mol
# GULP energy per Si atom -5576.350915 kJ/mol
# Density = 2.024971 g / cm^3
# Si number density = 20.295904 Si / 1000 Ang^3
#
#
#
# Elastic Constant Matrix: (Units=GPa)
#
#
# Indices 1 2 3 4 5 6 
#
# 1 142.4105 47.8166 48.4813 0.0000 -20.6776 0.0000
# 2 47.8166 138.7403 40.2894 0.0000 -4.2683 0.0000
# 3 48.4813 40.2894 70.8546 0.0000 -2.7816 0.0000
# 4 0.0000 0.0000 0.0000 27.4310 0.0000 4.2478
# 5 -20.6776 -4.2683 -2.7816 0.0000 39.0373 0.0000
# 6 0.0000 0.0000 0.0000 4.2478 0.0000 24.7681
#
#
#
# Elastic Compliance Matrix: (Units=1/GPa)
#
#
# Indices 1 2 3 4 5 6 
#
# 1 0.010301 -0.001688 -0.005898 0.000000 0.004852 0.000000
# 2 -0.001688 0.008924 -0.003927 0.000000 -0.000198 0.000000
# 3 -0.005898 -0.003927 0.020299 0.000000 -0.002107 0.000000
# 4 0.000000 0.000000 0.000000 0.037450 0.000000 -0.006423
# 5 0.004852 -0.000198 -0.002107 0.000000 0.028015 0.000000
# 6 0.000000 0.000000 0.000000 -0.006423 0.000000 0.041476
#
#
# Mechanical properties :
#
#
# Convention : Reuss Voigt Hill
#
# Bulk Modulus (GPa) = 60.61371 69.46445 65.03908
# Shear Modulus (GPa) = 28.57307 32.60847 30.59077
#
# Velocity S-wave (km/s) = 3.75617 4.01266 3.88653
# Velocity P-wave (km/s) = 6.98152 7.46784 7.22877
#
# Compressibility (1/GPa) = 0.01649792
#
# Stress axis : x y z
#
# Youngs Moduli (GPa) = 97.07700 112.05973 49.26305
#
# Poissons Ratio (x) = 0.18919 0.29055
# Poissons Ratio (y) = 0.16389 0.19345
# Poissons Ratio (z) = 0.57255 0.44004
#
# Static dielectric constant tensor:
#      x y z
#    x 1.751070 0.000000 -0.009830 
#    y 0.000000 1.721050 0.000000 
#    z -0.009830 0.000000 1.812350 
# 
# From -- ./inp_files/231559.got.cif
#   From: 2010.05.17/outbox.cif.g08.bks.cpg/sg15_116_cif.got.tgz:231559.got - 2010.06.03 18:47:42.
