data_PCOD9274687
_publ_section_title
;
Structure prediction by ZEFSAII (Michael W. Deem and Ramdas Pophale) SiO2 
 PCOD9274687
Probable space group: C 2/C
;
_chemical_formula_sum "Si O2"
_cell_formula_units_Z 56
_cell_length_a 16.824656
_cell_length_b 17.942383
_cell_length_c 9.790501
_cell_angle_alpha 90.000000
_cell_angle_beta 66.483515
_cell_angle_gamma 90.000000
_cell_volume 2710.033538
_symmetry_space_group_name_H-M "C 2/C"
_symmetry_group_IT_number 15
_symmetry_cell_setting 'monoclinic'
loop_
_space_group_symop_operation_xyz
x,y,z
-x,y,1/2-z
-x,-y,-z
x,-y,1/2+z
1/2+x,1/2+y,z
1/2-x,1/2+y,1/2-z
1/2-x,1/2-y,-z
1/2+x,1/2-y,1/2+z
loop_
_atom_site_type_symbol
_atom_site_label
_atom_site_fract_x
_atom_site_fract_y
_atom_site_fract_z
Si Si1 0.549273 0.552717 0.359611
Si Si2 0.183209 0.341136 0.654713
Si Si3 0.000000 0.303562 0.750000
Si Si4 0.737010 0.195383 0.826470
Si Si5 0.050818 0.773834 0.942262
Si Si6 0.251292 0.959721 0.685233
Si Si7 0.315591 0.918017 0.341716
Si Si8 0.000000 0.662887 0.750000
O O1 0.500000 0.549030 0.250000
O O2 0.500000 0.500000 0.500000
O O3 0.547243 0.639161 0.410089
O O4 0.648671 0.526294 0.270518
O O5 0.082119 0.356814 0.715473
O O6 0.189044 0.253880 0.689556
O O7 0.224098 0.351377 0.475828
O O8 0.229605 0.385501 0.741294
O O9 0.018279 0.249440 0.612075
O O10 0.649765 0.244337 0.869054
O O11 0.743007 0.147716 0.685252
O O12 0.997046 0.720093 0.878341
O O13 0.278903 0.948459 0.509536
O O14 0.307949 0.020308 0.728476
O O15 0.412803 0.886349 0.296159
#
# Coordination Sequence:
#
# PCOD9274687 Si02
#       8
#     8   8   4   8   8   8   8   4
#     4  12  27  45  66  92 133 180 224 286 337 406
#     4  10  20  38  64  93 134 168 222 271 339 402
#     4  10  22  33  63 102 124 168 216 274 332 403
#     4   9  20  40  64  90 127 181 216 282 328 400
#     4  10  20  42  63  95 131 166 229 276 333 390
#     4  12  25  44  63  99 134 182 221 283 345 412
#     4  11  25  42  69  97 138 176 230 276 347 412
#     4  10  22  45  73 102 130 180 224 290 332 397
#
# _framework density 20.663951999999998
#
# number of rings (size 3 to 8) (size 9 to 14) (size 15 to 20)
#    0.000    1.429    2.143    2.571    1.000    4.000 
#    0.000    0.000    0.000    0.000    0.000    0.000 
#    0.000    0.000    0.000    0.000    0.000    0.000 
#
# Total GULP energy -156367.165342 kJ/mol
# GULP energy per Si atom -5584.541619 kJ/mol
# Density = 2.061692 g / cm^3
# Si number density = 20.663952 Si / 1000 Ang^3
#
#
#
# Elastic Constant Matrix: (Units=GPa)
#
#
# Indices 1 2 3 4 5 6 
#
# 1 84.0109 11.1539 47.8331 0.0000 8.5620 0.0000
# 2 11.1539 74.2119 66.9819 0.0000 9.9031 0.0000
# 3 47.8331 66.9819 131.5240 0.0000 30.2678 0.0000
# 4 0.0000 0.0000 0.0000 12.7109 0.0000 11.1172
# 5 8.5620 9.9031 30.2678 0.0000 35.1159 0.0000
# 6 0.0000 0.0000 0.0000 11.1172 0.0000 34.6618
#
#
#
# Elastic Compliance Matrix: (Units=1/GPa)
#
#
# Indices 1 2 3 4 5 6 
#
# 1 0.016233 0.005693 -0.009384 0.000000 0.002525 0.000000
# 2 0.005693 0.027624 -0.017497 0.000000 0.005903 0.000000
# 3 -0.009384 -0.017497 0.022784 0.000000 -0.012416 0.000000
# 4 0.000000 0.000000 0.000000 0.109347 0.000000 -0.035071
# 5 0.002525 0.005903 -0.012416 0.000000 0.036899 0.000000
# 6 0.000000 0.000000 0.000000 -0.035071 0.000000 0.040099
#
#
# Mechanical properties :
#
#
# Convention : Reuss Voigt Hill
#
# Bulk Modulus (GPa) = 41.21171 60.18720 50.69946
# Shear Modulus (GPa) = 16.47713 27.41624 21.94669
#
# Velocity S-wave (km/s) = 2.82686 3.64643 3.26249
# Velocity P-wave (km/s) = 5.53552 6.84971 6.22738
#
# Compressibility (1/GPa) = 0.02426495
#
# Stress axis : x y z
#
# Youngs Moduli (GPa) = 61.60269 36.20013 43.88968
#
# Poissons Ratio (x) = -0.20609 0.41187
# Poissons Ratio (y) = -0.35072 0.76795
# Poissons Ratio (z) = 0.57809 0.63341
#
# Static dielectric constant tensor:
#      x y z
#    x 1.777280 0.000000 0.069380 
#    y 0.000000 1.788600 0.000000 
#    z 0.069380 0.000000 1.973530 
# 
# From -- ./inp_files/49048.got.cif
#   From: 2010.05.17/outbox.cif.g08.bks.cpg/sg15_25_cif.got.tgz:49048.got - 2010.06.03 18:47:42.
