data_PCOD9274619
_publ_section_title
;
Structure prediction by ZEFSAII (Michael W. Deem and Ramdas Pophale) SiO2 
 PCOD9274619
Probable space group: C 2/C
;
_chemical_formula_sum "Si O2"
_cell_formula_units_Z 48
_cell_length_a 23.759545
_cell_length_b 6.430780
_cell_length_c 32.285173
_cell_angle_alpha 90.000000
_cell_angle_beta 148.883149
_cell_angle_gamma 90.000000
_cell_volume 2549.264549
_symmetry_space_group_name_H-M "C 2/C"
_symmetry_group_IT_number 15
_symmetry_cell_setting 'monoclinic'
loop_
_space_group_symop_operation_xyz
x,y,z
-x,y,1/2-z
-x,-y,-z
x,-y,1/2+z
1/2+x,1/2+y,z
1/2-x,1/2+y,1/2-z
1/2-x,1/2-y,-z
1/2+x,1/2-y,1/2+z
loop_
_atom_site_type_symbol
_atom_site_label
_atom_site_fract_x
_atom_site_fract_y
_atom_site_fract_z
Si Si1 0.227181 0.436159 0.953832
Si Si2 0.116193 0.679863 0.949750
Si Si3 0.212071 0.515656 0.162691
Si Si4 0.476522 0.339657 0.448343
Si Si5 0.615997 0.310773 0.666743
Si Si6 0.209576 0.355049 0.072825
O O1 0.131684 0.570625 0.914807
O O2 0.218124 0.320718 0.904206
O O3 0.250000 0.250000 0.000000
O O4 0.329543 0.592963 0.017291
O O5 0.992491 0.694095 0.886420
O O6 0.186217 0.545524 0.026819
O O7 0.106714 0.661800 0.089739
O O8 0.302662 0.643970 0.244515
O O9 0.174445 0.326104 0.168356
O O10 0.251817 0.433543 0.143481
O O11 0.500000 0.500000 0.500000
O O12 0.421779 0.471783 0.377162
O O13 0.590570 0.243360 0.506202
#
# Coordination Sequence:
#
# PCOD9274619 Si02
#       6
#     8   8   8   8   8   8
#     4   9  20  37  63  92 113 152 213 263 302 348
#     4  10  20  38  64  90 118 156 212 257 306 369
#     4  12  25  38  57  95 133 162 200 248 320 384
#     4  12  22  36  61  92 124 159 204 250 303 370
#     4  12  23  39  59  92 129 167 196 249 321 381
#     4  11  21  36  63  93 118 158 209 263 298 365
#
# _framework density 18.828959999999999
#
# number of rings (size 3 to 8) (size 9 to 14) (size 15 to 20)
#    0.000    1.000    6.667    1.500    0.000    0.000 
#    0.000    0.000    0.000   11.000    0.000    0.000 
#    0.000    0.000    0.000    0.000    0.000    0.000 
#
# Total GULP energy -134029.205158 kJ/mol
# GULP energy per Si atom -5584.550215 kJ/mol
# Density = 1.878610 g / cm^3
# Si number density = 18.828960 Si / 1000 Ang^3
#
#
#
# Elastic Constant Matrix: (Units=GPa)
#
#
# Indices 1 2 3 4 5 6 
#
# 1 105.5000 32.2817 24.5311 -0.0006 -25.2827 0.0060
# 2 32.2817 87.1429 18.5214 -0.0015 -19.1457 0.0070
# 3 24.5311 18.5214 51.9494 -0.0001 -22.2674 0.0019
# 4 -0.0006 -0.0015 -0.0001 31.2882 -0.0001 -5.1120
# 5 -25.2827 -19.1457 -22.2674 -0.0001 22.0658 0.0005
# 6 0.0060 0.0070 0.0019 -5.1120 0.0005 52.3033
#
#
#
# Elastic Compliance Matrix: (Units=1/GPa)
#
#
# Indices 1 2 3 4 5 6 
#
# 1 0.013335 -0.001951 0.000392 0.000000 0.013981 -0.000001
# 2 -0.001951 0.014468 0.000327 0.000000 0.010648 -0.000002
# 3 0.000392 0.000327 0.033945 0.000000 0.034988 -0.000002
# 4 0.000000 0.000000 0.000000 0.032480 0.000001 0.003174
# 5 0.013981 0.010648 0.034988 0.000001 0.105885 -0.000005
# 6 -0.000001 -0.000002 -0.000002 0.003174 -0.000005 0.019430
#
#
# Mechanical properties :
#
#
# Convention : Reuss Voigt Hill
#
# Bulk Modulus (GPa) = 16.86823 43.91787 30.39305
# Shear Modulus (GPa) = 20.68094 32.41532 26.54813
#
# Velocity S-wave (km/s) = 3.31774 4.15368 3.75902
# Velocity P-wave (km/s) = 4.86361 6.81024 5.91752
#
# Compressibility (1/GPa) = 0.05928306
#
# Stress axis : x y z
#
# Youngs Moduli (GPa) = 74.98864 69.11747 29.45952
#
# Poissons Ratio (x) = 0.13488 -0.01154
# Poissons Ratio (y) = 0.14634 -0.00964
# Poissons Ratio (z) = -0.02937 -0.02262
#
# Static dielectric constant tensor:
#      x y z
#    x 1.678330 0.000000 -0.017990 
#    y 0.000000 1.672480 0.000000 
#    z -0.017990 0.000000 1.618930 
# 
# From -- ./inp_files/217463.got.cif
#   From: 2010.05.17/outbox.cif.g08.bks.cpg/sg15_109_cif.got.tgz:217463.got - 2010.06.03 18:47:42.
