data_PCOD9274612
_publ_section_title
;
Structure prediction by ZEFSAII (Michael W. Deem and Ramdas Pophale) SiO2 
 PCOD9274612
Probable space group: C 2/C
;
_chemical_formula_sum "Si O2"
_cell_formula_units_Z 56
_cell_length_a 24.643155
_cell_length_b 19.252368
_cell_length_c 8.114186
_cell_angle_alpha 90.000000
_cell_angle_beta 137.168525
_cell_angle_gamma 90.000000
_cell_volume 2617.187659
_symmetry_space_group_name_H-M "C 2/C"
_symmetry_group_IT_number 15
_symmetry_cell_setting 'monoclinic'
loop_
_space_group_symop_operation_xyz
x,y,z
-x,y,1/2-z
-x,-y,-z
x,-y,1/2+z
1/2+x,1/2+y,z
1/2-x,1/2+y,1/2-z
1/2-x,1/2-y,-z
1/2+x,1/2-y,1/2+z
loop_
_atom_site_type_symbol
_atom_site_label
_atom_site_fract_x
_atom_site_fract_y
_atom_site_fract_z
Si Si1 0.612372 0.340754 0.853507
Si Si2 0.703832 0.441368 0.542173
Si Si3 0.302095 0.180648 0.132156
Si Si4 0.240858 0.413636 0.464631
Si Si5 0.943043 0.134479 0.893158
Si Si6 0.952740 0.707274 0.309849
Si Si7 0.892534 0.318549 0.184148
O O1 0.699124 0.369034 0.011592
O O2 0.537786 0.380388 0.603358
O O3 0.615528 0.262883 0.788422
O O4 0.587373 0.346155 0.989561
O O5 0.743616 0.382928 0.517833
O O6 0.719248 0.423651 0.766371
O O7 0.750924 0.511324 0.602087
O O8 0.610235 0.428275 0.295542
O O9 0.365927 0.174316 0.129745
O O10 0.354515 0.180299 0.417070
O O11 0.250000 0.250000 0.000000
O O12 0.158437 0.373168 0.320753
O O13 0.936750 0.209757 0.790501
O O14 0.000000 0.693538 0.250000
O O15 0.012185 0.675435 0.581124
#
# Coordination Sequence:
#
# PCOD9274612 Si02
#       7
#     8   8   8   8   8   8   8
#     4  10  20  38  64  89 123 160 209 258 322 370
#     4  11  24  40  60  89 126 164 216 252 320 377
#     4  11  21  40  68  93 125 167 211 269 320 376
#     4  11  25  40  62  88 124 172 207 263 307 388
#     4  10  21  37  60  91 127 159 201 262 315 380
#     4  11  23  37  63  99 129 161 205 264 321 376
#     4  10  22  40  64  93 126 162 212 261 318 372
#
# _framework density 21.397015
#
# number of rings (size 3 to 8) (size 9 to 14) (size 15 to 20)
#    0.000    1.429    2.857    1.714    4.000    4.000 
#    0.000    0.714    0.000    0.000    0.000    0.000 
#    0.000    0.000    0.000    0.000    0.000    0.000 
#
# Total GULP energy -156183.964438 kJ/mol
# GULP energy per Si atom -5577.998730 kJ/mol
# Density = 2.134831 g / cm^3
# Si number density = 21.397015 Si / 1000 Ang^3
#
#
#
# Elastic Constant Matrix: (Units=GPa)
#
#
# Indices 1 2 3 4 5 6 
#
# 1 92.9806 9.6069 23.4332 0.0000 16.5330 0.0000
# 2 9.6069 57.2939 3.0871 0.0000 17.8232 0.0000
# 3 23.4332 3.0871 70.3945 0.0000 11.8842 0.0000
# 4 0.0000 0.0000 0.0000 10.2619 0.0000 -0.1815
# 5 16.5330 17.8232 11.8842 0.0000 34.8378 0.0000
# 6 0.0000 0.0000 0.0000 -0.1815 0.0000 16.4840
#
#
#
# Elastic Compliance Matrix: (Units=1/GPa)
#
#
# Indices 1 2 3 4 5 6 
#
# 1 0.012456 -0.000506 -0.003364 0.000000 -0.004505 0.000000
# 2 -0.000506 0.020836 0.001076 0.000000 -0.010787 0.000000
# 3 -0.003364 0.001076 0.016024 0.000000 -0.004421 0.000000
# 4 0.000000 0.000000 0.000000 0.097467 0.000000 0.001073
# 5 -0.004505 -0.010787 -0.004421 0.000000 0.037869 0.000000
# 6 0.000000 0.000000 0.000000 0.001073 0.000000 0.060677
#
#
# Mechanical properties :
#
#
# Convention : Reuss Voigt Hill
#
# Bulk Modulus (GPa) = 22.86811 32.54705 27.70758
# Shear Modulus (GPa) = 18.83286 24.61953 21.72620
#
# Velocity S-wave (km/s) = 2.96997 3.39574 3.18997
# Velocity P-wave (km/s) = 4.74043 5.53342 5.15221
#
# Compressibility (1/GPa) = 0.04372902
#
# Stress axis : x y z
#
# Youngs Moduli (GPa) = 80.28296 47.99310 62.40456
#
# Poissons Ratio (x) = 0.02428 0.20991
# Poissons Ratio (y) = 0.04062 -0.06713
# Poissons Ratio (z) = 0.27004 -0.05163
#
# Static dielectric constant tensor:
#      x y z
#    x 1.771800 0.000000 -0.041570 
#    y 0.000000 1.770310 0.000000 
#    z -0.041570 0.000000 1.861560 
# 
# From -- ./inp_files/67196.got.cif
#   From: 2010.05.17/outbox.cif.g08.bks.cpg/sg15_34_cif.got.tgz:67196.got - 2010.06.03 18:47:42.
