data_PCOD9274562
_publ_section_title
;
Structure prediction by ZEFSAII (Michael W. Deem and Ramdas Pophale) SiO2 
 PCOD9274562
Probable space group: C 2/C
;
_chemical_formula_sum "Si O2"
_cell_formula_units_Z 44
_cell_length_a 15.035127
_cell_length_b 7.063648
_cell_length_c 27.553550
_cell_angle_alpha 90.000000
_cell_angle_beta 32.700689
_cell_angle_gamma 90.000000
_cell_volume 1580.916166
_symmetry_space_group_name_H-M "C 2/C"
_symmetry_group_IT_number 15
_symmetry_cell_setting 'monoclinic'
loop_
_space_group_symop_operation_xyz
x,y,z
-x,y,1/2-z
-x,-y,-z
x,-y,1/2+z
1/2+x,1/2+y,z
1/2-x,1/2+y,1/2-z
1/2-x,1/2-y,-z
1/2+x,1/2-y,1/2+z
loop_
_atom_site_type_symbol
_atom_site_label
_atom_site_fract_x
_atom_site_fract_y
_atom_site_fract_z
Si Si1 0.350005 0.107281 0.675112
Si Si2 0.301692 0.429052 0.409278
Si Si3 0.450097 0.761628 0.497935
Si Si4 0.311842 0.302897 0.155641
Si Si5 0.806833 0.512343 0.433306
Si Si6 0.000000 0.200003 0.250000
O O1 0.398318 0.254219 0.609885
O O2 0.205503 0.131511 0.780973
O O3 0.308036 0.921790 0.665067
O O4 0.517460 0.066020 0.628365
O O5 0.130877 0.524537 0.468286
O O6 0.293605 0.447915 0.470920
O O7 0.325461 0.203713 0.393270
O O8 0.435747 0.556588 0.320979
O O9 0.456206 0.674942 0.549708
O O10 0.299907 0.646801 0.542803
O O11 0.141349 0.335021 0.206093
#
# Coordination Sequence:
#
# PCOD9274562 Si02
#       6
#     8   8   8   8   8   4
#     4  11  23  41  63  93 133 161 210 268 318 373
#     4   9  19  34  63  94 119 163 212 260 303 374
#     4  10  21  44  65  92 126 174 209 263 314 384
#     4  11  24  41  65  93 126 172 209 261 323 375
#     4  10  20  38  66  93 124 168 214 256 319 376
#     4  10  20  38  64  84 126 164 214 250 314 380
#
# _framework density 27.831962000000001
#
# number of rings (size 3 to 8) (size 9 to 14) (size 15 to 20)
#    0.000    1.818    0.000    6.000    2.545    1.455 
#    6.545    0.909    0.000    0.000    0.000    0.000 
#    0.000    0.000    0.000    0.000    0.000    0.000 
#
# Total GULP energy -123051.405812 kJ/mol
# GULP energy per Si atom -5593.245719 kJ/mol
# Density = 2.776862 g / cm^3
# Si number density = 27.831962 Si / 1000 Ang^3
#
#
#
# Elastic Constant Matrix: (Units=GPa)
#
#
# Indices 1 2 3 4 5 6 
#
# 1 75.4155 0.0100 37.2408 0.0006 18.8173 0.0032
# 2 0.0100 59.7964 32.2717 -0.0047 24.6526 -0.0064
# 3 37.2408 32.2717 185.5242 0.0024 54.7679 0.0005
# 4 0.0006 -0.0047 0.0024 52.3720 -0.0002 13.8943
# 5 18.8173 24.6526 54.7679 -0.0002 61.5653 0.0002
# 6 0.0032 -0.0064 0.0005 13.8943 0.0002 22.9624
#
#
#
# Elastic Compliance Matrix: (Units=1/GPa)
#
#
# Indices 1 2 3 4 5 6 
#
# 1 0.015405 0.002845 -0.002524 0.000001 -0.003603 -0.000002
# 2 0.002845 0.020874 -0.002004 0.000001 -0.007445 0.000005
# 3 -0.002524 -0.002004 0.007839 -0.000001 -0.005400 0.000000
# 4 0.000001 0.000001 -0.000001 0.022746 0.000000 -0.013763
# 5 -0.003603 -0.007445 -0.005400 0.000000 0.025129 -0.000002
# 6 -0.000002 0.000005 0.000000 -0.013763 -0.000002 0.051877
#
#
# Mechanical properties :
#
#
# Convention : Reuss Voigt Hill
#
# Bulk Modulus (GPa) = 24.53877 51.08678 37.81278
# Shear Modulus (GPa) = 31.09062 44.12750 37.60906
#
# Velocity S-wave (km/s) = 3.34591 3.98615 3.67998
# Velocity P-wave (km/s) = 4.87470 6.29135 5.62778
#
# Compressibility (1/GPa) = 0.04075183
#
# Stress axis : x y z
#
# Youngs Moduli (GPa) = 64.91606 47.90636 127.56031
#
# Poissons Ratio (x) = -0.13627 0.32190
# Poissons Ratio (y) = -0.18466 0.25565
# Poissons Ratio (z) = 0.16382 0.09601
#
# Static dielectric constant tensor:
#      x y z
#    x 2.158890 0.000000 0.044270 
#    y 0.000000 2.202010 0.000000 
#    z 0.044270 0.000000 2.292270 
# 
# From -- ./inp_files/294996.got.cif
#   From: 2010.05.17/outbox.cif.g08.bks.cpg/sg15_148_cif.got.tgz:294996.got - 2010.06.03 18:47:42.
