data_PCOD9274616
_publ_section_title
;
Structure prediction by ZEFSAII (Michael W. Deem and Ramdas Pophale) SiO2 
 PCOD9274616
Probable space group: C 2/C
;
_chemical_formula_sum "Si O2"
_cell_formula_units_Z 64
_cell_length_a 20.086790
_cell_length_b 29.716249
_cell_length_c 14.321873
_cell_angle_alpha 90.000000
_cell_angle_beta 157.666057
_cell_angle_gamma 90.000000
_cell_volume 3248.573867
_symmetry_space_group_name_H-M "C 2/C"
_symmetry_group_IT_number 15
_symmetry_cell_setting 'monoclinic'
loop_
_space_group_symop_operation_xyz
x,y,z
-x,y,1/2-z
-x,-y,-z
x,-y,1/2+z
1/2+x,1/2+y,z
1/2-x,1/2+y,1/2-z
1/2-x,1/2-y,-z
1/2+x,1/2-y,1/2+z
loop_
_atom_site_type_symbol
_atom_site_label
_atom_site_fract_x
_atom_site_fract_y
_atom_site_fract_z
Si Si1 0.191358 0.598904 0.046478
Si Si2 0.571832 0.990720 0.444633
Si Si3 0.535952 0.629895 0.395478
Si Si4 0.430091 0.151981 0.438107
Si Si5 0.129923 0.218744 0.004282
Si Si6 0.577660 0.222433 0.752448
Si Si7 0.354134 0.065642 0.812206
Si Si8 0.888912 0.208794 0.874368
O O1 0.345400 0.613906 0.180366
O O2 0.181943 0.632056 0.121563
O O3 0.215599 0.547923 0.112962
O O4 0.000000 0.599637 0.750000
O O5 0.500000 0.004221 0.250000
O O6 0.639560 0.032350 0.592090
O O7 0.426372 0.963855 0.318497
O O8 0.500000 0.654086 0.250000
O O9 0.666874 0.588151 0.551143
O O10 0.612489 0.660994 0.576979
O O11 0.583167 0.181586 0.686024
O O12 0.515242 0.108164 0.502535
O O13 0.297761 0.185204 0.213383
O O14 0.000000 0.211900 0.750000
O O15 0.026776 0.210671 0.967798
O O16 0.207405 0.269417 0.105154
O O17 0.500000 0.206026 0.750000
O O18 0.449730 0.257315 0.535333
O O19 0.750000 0.250000 0.000000
#
# Coordination Sequence:
#
# PCOD9274616 Si02
#       8
#     8   8   8   8   8   8   8   8
#     4  10  20  38  64  89 128 168 199 253 322 393
#     4   9  19  43  67  91 126 169 209 250 334 380
#     4  12  24  37  61  99 132 160 210 260 320 382
#     4  10  21  39  59  87 124 164 214 251 323 373
#     4  11  24  46  64  80 121 176 219 270 316 365
#     4  11  23  34  56  87 126 164 192 250 311 373
#     4  10  23  39  65  97 128 162 209 270 309 396
#     4  11  25  40  59  92 122 163 221 261 308 380
#
# _framework density 19.700952000000001
#
# number of rings (size 3 to 8) (size 9 to 14) (size 15 to 20)
#    0.000    1.500    1.250    4.875    8.750    1.000 
#    2.250    0.000    0.000    5.250    0.000    0.000 
#    0.000    0.000    0.000    0.000    0.000    0.000 
#
# Total GULP energy -178719.474318 kJ/mol
# GULP energy per Si atom -5584.983572 kJ/mol
# Density = 1.965611 g / cm^3
# Si number density = 19.700952 Si / 1000 Ang^3
#
#
#
# Elastic Constant Matrix: (Units=GPa)
#
#
# Indices 1 2 3 4 5 6 
#
# 1 72.7511 31.6469 26.7315 0.0000 -0.5157 0.0000
# 2 31.6469 99.7772 39.9472 0.0000 -9.5905 0.0000
# 3 26.7315 39.9472 100.1099 0.0001 -7.8362 0.0000
# 4 0.0000 0.0000 0.0001 26.6443 0.0000 -5.6304
# 5 -0.5157 -9.5905 -7.8362 0.0000 31.8542 0.0000
# 6 0.0000 0.0000 0.0000 -5.6304 0.0000 28.1238
#
#
#
# Elastic Compliance Matrix: (Units=1/GPa)
#
#
# Indices 1 2 3 4 5 6 
#
# 1 0.016658 -0.004302 -0.002867 0.000000 -0.001731 0.000000
# 2 -0.004302 0.013232 -0.003900 0.000000 0.002955 0.000000
# 3 -0.002867 -0.003900 0.012455 0.000000 0.001843 0.000000
# 4 0.000000 0.000000 0.000000 0.039189 0.000000 0.007846
# 5 -0.001731 0.002955 0.001843 0.000000 0.032708 0.000000
# 6 0.000000 0.000000 0.000000 0.007846 0.000000 0.037128
#
#
# Mechanical properties :
#
#
# Convention : Reuss Voigt Hill
#
# Bulk Modulus (GPa) = 49.48693 52.14328 50.81511
# Shear Modulus (GPa) = 27.74007 28.94530 28.34268
#
# Velocity S-wave (km/s) = 3.75648 3.83722 3.79706
# Velocity P-wave (km/s) = 6.63238 6.79391 6.71363
#
# Compressibility (1/GPa) = 0.02020735
#
# Stress axis : x y z
#
# Youngs Moduli (GPa) = 60.03104 75.57245 80.28842
#
# Poissons Ratio (x) = 0.32512 0.23017
# Poissons Ratio (y) = 0.25826 0.31313
# Poissons Ratio (z) = 0.17210 0.29474
#
# Static dielectric constant tensor:
#      x y z
#    x 1.701660 0.000000 0.019240 
#    y 0.000000 1.719370 0.000000 
#    z 0.019240 0.000000 1.703790 
# 
# From -- ./inp_files/170102.got.cif
#   From: 2010.05.17/outbox.cif.g08.bks.cpg/sg15_86_cif.got.tgz:170102.got - 2010.06.03 18:47:42.
