data_PCOD9274586
_publ_section_title
;
Structure prediction by ZEFSAII (Michael W. Deem and Ramdas Pophale) SiO2 
 PCOD9274586
Probable space group: C 2/C
;
_chemical_formula_sum "Si O2"
_cell_formula_units_Z 48
_cell_length_a 8.405258
_cell_length_b 19.043053
_cell_length_c 28.994822
_cell_angle_alpha 90.000000
_cell_angle_beta 33.230296
_cell_angle_gamma 90.000000
_cell_volume 2543.273506
_symmetry_space_group_name_H-M "C 2/C"
_symmetry_group_IT_number 15
_symmetry_cell_setting 'monoclinic'
loop_
_space_group_symop_operation_xyz
x,y,z
-x,y,1/2-z
-x,-y,-z
x,-y,1/2+z
1/2+x,1/2+y,z
1/2-x,1/2+y,1/2-z
1/2-x,1/2-y,-z
1/2+x,1/2-y,1/2+z
loop_
_atom_site_type_symbol
_atom_site_label
_atom_site_fract_x
_atom_site_fract_y
_atom_site_fract_z
Si Si1 0.667445 0.986459 0.326280
Si Si2 0.661192 0.688483 0.056568
Si Si3 0.896172 0.435431 0.055878
Si Si4 0.243702 0.883784 0.277296
Si Si5 0.919634 0.398225 0.822010
Si Si6 0.259499 0.238597 0.268002
O O1 0.563148 0.960650 0.401188
O O2 0.692535 0.919214 0.287257
O O3 0.000000 0.014604 0.250000
O O4 0.467245 0.042000 0.348041
O O5 0.393622 0.639317 0.103868
O O6 0.540008 0.725429 0.132282
O O7 0.750000 0.750000 0.000000
O O8 0.922962 0.634376 0.999192
O O9 0.558034 0.416356 0.132322
O O10 0.000000 0.500000 0.000000
O O11 0.500000 0.899572 0.250000
O O12 0.229129 0.801123 0.270703
O O13 0.000000 0.422876 0.750000
O O14 0.143793 0.334997 0.777154
O O15 0.500000 0.253404 0.250000
#
# Coordination Sequence:
#
# PCOD9274586 Si02
#       6
#     8   8   8   8   8   8
#     4  10  22  38  63  84 122 165 208 245 315 373
#     4  10  20  38  64  87 126 159 207 252 324 369
#     4  11  25  41  61  96 130 161 203 277 321 363
#     4  11  23  41  64  88 125 167 214 248 305 388
#     4   9  20  36  64  88 116 159 215 250 297 382
#     4   9  19  38  64  87 117 166 210 247 299 382
#
# _framework density 18.873315000000002
#
# number of rings (size 3 to 8) (size 9 to 14) (size 15 to 20)
#    0.000    2.333    0.000    5.000   11.667    1.333 
#    3.000    0.833    0.000    0.000    0.000    0.000 
#    0.000    0.000    0.000    0.000    0.000    0.000 
#
# Total GULP energy -133938.280537 kJ/mol
# GULP energy per Si atom -5580.761689 kJ/mol
# Density = 1.883036 g / cm^3
# Si number density = 18.873315 Si / 1000 Ang^3
#
#
#
# Elastic Constant Matrix: (Units=GPa)
#
#
# Indices 1 2 3 4 5 6 
#
# 1 74.1585 31.1734 41.2259 -0.0162 -4.5653 0.0447
# 2 31.1734 89.1745 39.0279 -0.0077 -1.8017 -0.0092
# 3 41.2259 39.0279 107.9242 0.0020 4.0296 0.1077
# 4 -0.0162 -0.0077 0.0020 26.7392 0.0205 10.3211
# 5 -4.5653 -1.8017 4.0296 0.0205 12.9840 -0.0934
# 6 0.0447 -0.0092 0.1077 10.3211 -0.0934 20.9772
#
#
#
# Elastic Compliance Matrix: (Units=1/GPa)
#
#
# Indices 1 2 3 4 5 6 
#
# 1 0.019015 -0.003769 -0.006202 -0.000006 0.008088 0.000029
# 2 -0.003769 0.014218 -0.003770 -0.000019 0.001818 0.000051
# 3 -0.006202 -0.003770 0.013253 0.000041 -0.006818 -0.000107
# 4 -0.000006 -0.000019 0.000041 0.046167 -0.000254 -0.022716
# 5 0.008088 0.001818 -0.006818 -0.000254 0.082234 0.000510
# 6 0.000029 0.000051 -0.000107 -0.022716 0.000510 0.058850
#
#
# Mechanical properties :
#
#
# Convention : Reuss Voigt Hill
#
# Bulk Modulus (GPa) = 52.62274 54.90128 53.76201
# Shear Modulus (GPa) = 18.68777 22.79540 20.74159
#
# Velocity S-wave (km/s) = 3.15011 3.47913 3.31870
# Velocity P-wave (km/s) = 6.41666 6.72991 6.57515
#
# Compressibility (1/GPa) = 0.01900319
#
# Stress axis : x y z
#
# Youngs Moduli (GPa) = 52.58996 70.33235 75.45498
#
# Poissons Ratio (x) = 0.26510 0.46801
# Poissons Ratio (y) = 0.19822 0.28445
# Poissons Ratio (z) = 0.32619 0.26514
#
# Static dielectric constant tensor:
#      x y z
#    x 1.650160 -0.000010 -0.013640 
#    y -0.000010 1.652930 0.000000 
#    z -0.013640 0.000000 1.663470 
# 
# From -- ./inp_files/308913.got.cif
#   From: 2010.05.17/outbox.cif.g08.bks.cpg/sg15_155_cif.got.tgz:308913.got - 2010.06.03 18:47:42.
