data_PCOD9274533
_publ_section_title
;
Structure prediction by ZEFSAII (Michael W. Deem and Ramdas Pophale) SiO2 
 PCOD9274533
Probable space group: C 2/C
;
_chemical_formula_sum "Si O2"
_cell_formula_units_Z 52
_cell_length_a 9.688852
_cell_length_b 21.091369
_cell_length_c 11.042370
_cell_angle_alpha 90.000000
_cell_angle_beta 117.461467
_cell_angle_gamma 90.000000
_cell_volume 2002.258891
_symmetry_space_group_name_H-M "C 2/C"
_symmetry_group_IT_number 15
_symmetry_cell_setting 'monoclinic'
loop_
_space_group_symop_operation_xyz
x,y,z
-x,y,1/2-z
-x,-y,-z
x,-y,1/2+z
1/2+x,1/2+y,z
1/2-x,1/2+y,1/2-z
1/2-x,1/2-y,-z
1/2+x,1/2-y,1/2+z
loop_
_atom_site_type_symbol
_atom_site_label
_atom_site_fract_x
_atom_site_fract_y
_atom_site_fract_z
Si Si1 0.228072 0.990138 0.275426
Si Si2 0.413430 0.313060 0.475603
Si Si3 0.000000 0.799158 0.250000
Si Si4 0.703711 0.265773 0.724661
Si Si5 0.818046 0.952712 0.497621
Si Si6 0.510785 0.892889 0.123668
Si Si7 0.397856 0.119591 0.325410
O O1 0.142036 0.985441 0.112982
O O2 0.321282 0.924465 0.323047
O O3 0.147410 0.008068 0.368146
O O4 0.353120 0.046457 0.309959
O O5 0.493542 0.332056 0.378355
O O6 0.531586 0.269787 0.600929
O O7 0.263072 0.272914 0.367629
O O8 0.373468 0.379583 0.522499
O O9 0.837492 0.759910 0.186572
O O10 0.743006 0.339358 0.758936
O O11 0.628161 0.944582 0.420478
O O12 0.500000 0.859506 0.250000
O O13 0.480059 0.860583 0.983348
O O14 0.500000 0.132178 0.250000
#
# Coordination Sequence:
#
# PCOD9274533 Si02
#       7
#     8   8   4   8   8   8   8
#     4  10  20  38  64 100 142 186 240 294 357 431
#     4  10  22  42  68 102 144 184 241 300 360 434
#     4   8  20  42  68  98 144 174 246 284 366 422
#     4  10  22  41  67 106 139 183 239 296 364 433
#     4  10  20  39  65 101 137 187 236 296 357 428
#     4   9  19  36  58  97 138 181 236 291 350 421
#     4  11  18  34  65 101 133 180 237 297 347 427
#
# _framework density 25.970666999999999
#
# number of rings (size 3 to 8) (size 9 to 14) (size 15 to 20)
#    0.923    1.231    0.769    4.615    0.000    2.462 
#    8.308    6.923    0.000    0.000    0.000    0.000 
#    0.000    0.000    0.000    0.000    0.000    0.000 
#
# Total GULP energy -145197.387918 kJ/mol
# GULP energy per Si atom -5584.514920 kJ/mol
# Density = 2.591156 g / cm^3
# Si number density = 25.970667 Si / 1000 Ang^3
#
#
#
# Elastic Constant Matrix: (Units=GPa)
#
#
# Indices 1 2 3 4 5 6 
#
# 1 119.3560 43.1926 103.8037 0.0000 6.1113 0.0000
# 2 43.1926 68.8414 51.5106 0.0000 1.6752 0.0000
# 3 103.8037 51.5106 234.1692 0.0000 -3.8344 0.0000
# 4 0.0000 0.0000 0.0000 504.4509 0.0000 342.6765
# 5 6.1113 1.6752 -3.8344 0.0000 55.1944 0.0000
# 6 0.0000 0.0000 0.0000 342.6765 0.0000 234.6942
#
#
#
# Elastic Compliance Matrix: (Units=1/GPa)
#
#
# Indices 1 2 3 4 5 6 
#
# 1 0.015322 -0.005340 -0.005649 0.000000 -0.001927 0.000000
# 2 -0.005340 0.019284 -0.001877 0.000000 -0.000124 0.000000
# 3 -0.005649 -0.001877 0.007207 0.000000 0.001183 0.000000
# 4 0.000000 0.000000 0.000000 0.243338 0.000000 -0.355298
# 5 -0.001927 -0.000124 0.001183 0.000000 0.018417 0.000000
# 6 0.000000 0.000000 0.000000 -0.355298 0.000000 0.523030
#
#
# Mechanical properties :
#
#
# Convention : Reuss Voigt Hill
#
# Bulk Modulus (GPa) = 62.18337 91.04228 76.61282
# Shear Modulus (GPa) = 5.82961 173.79187 89.81074
#
# Velocity S-wave (km/s) = 1.49985 8.18925 5.88699
# Velocity P-wave (km/s) = 5.19568 11.16021 8.70475
#
# Compressibility (1/GPa) = 0.01608147
#
# Stress axis : x y z
#
# Youngs Moduli (GPa) = 65.26425 51.85690 138.75732
#
# Poissons Ratio (x) = 0.27690 0.78386
# Poissons Ratio (y) = 0.34849 0.26044
# Poissons Ratio (z) = 0.36869 0.09733
#
# Static dielectric constant tensor:
#      x y z
#    x 2.024670 0.000000 -0.018170 
#    y 0.000000 1.977530 0.000000 
#    z -0.018170 0.000000 2.082030 
# 
# From -- ./inp_files/100145.got.cif
#   From: 2010.05.17/outbox.cif.g08.bks.cpg/sg15_51_cif.got.tgz:100145.got - 2010.06.03 18:47:42.
