data_PCOD9274167
_publ_section_title
;
Structure prediction by ZEFSAII (Michael W. Deem and Ramdas Pophale) SiO2 
 PCOD9274167
Probable space group: C 2/C
;
_chemical_formula_sum "Si O2"
_cell_formula_units_Z 64
_cell_length_a 10.630065
_cell_length_b 22.157316
_cell_length_c 24.559773
_cell_angle_alpha 90.000000
_cell_angle_beta 143.464035
_cell_angle_gamma 90.000000
_cell_volume 3443.762455
_symmetry_space_group_name_H-M "C 2/C"
_symmetry_group_IT_number 15
_symmetry_cell_setting 'monoclinic'
loop_
_space_group_symop_operation_xyz
x,y,z
-x,y,1/2-z
-x,-y,-z
x,-y,1/2+z
1/2+x,1/2+y,z
1/2-x,1/2+y,1/2-z
1/2-x,1/2-y,-z
1/2+x,1/2-y,1/2+z
loop_
_atom_site_type_symbol
_atom_site_label
_atom_site_fract_x
_atom_site_fract_y
_atom_site_fract_z
Si Si1 0.180844 0.470350 0.351444
Si Si2 0.369778 0.109114 0.993867
Si Si3 0.026948 0.719620 0.410436
Si Si4 0.632650 0.276903 0.846790
Si Si5 0.272823 0.879587 0.970021
Si Si6 0.860937 0.996395 0.029653
Si Si7 0.980333 0.183715 0.807553
Si Si8 0.982377 0.352077 0.335001
O O1 0.404450 0.470539 0.398080
O O2 0.239475 0.501578 0.429284
O O3 0.089109 0.404887 0.336752
O O4 0.000000 0.498404 0.250000
O O5 0.268895 0.046682 0.976096
O O6 0.188287 0.149092 0.901341
O O7 0.441601 0.147988 0.071889
O O8 0.567077 0.101218 0.022365
O O9 0.864775 0.734681 0.402689
O O10 0.955496 0.752187 0.330312
O O11 0.250000 0.750000 0.500000
O O12 0.500000 0.302840 0.750000
O O13 0.642729 0.324078 0.899451
O O14 0.537800 0.213111 0.830463
O O15 0.139390 0.936072 0.945896
O O16 0.415159 0.857244 0.069729
O O17 0.770892 0.145003 0.748689
O O18 0.000000 0.192285 0.750000
#
# Coordination Sequence:
#
# PCOD9274167 Si02
#       8
#     8   8   8   8   8   8   8   8
#     4  10  22  40  61  89 114 150 207 252 294 358
#     4  10  20  38  62  82 118 159 200 241 298 356
#     4   9  21  36  56  87 118 152 192 239 302 358
#     4  11  21  37  60  85 120 158 194 241 301 363
#     4  10  22  40  56  87 121 157 198 245 295 356
#     4  10  22  41  62  84 120 160 199 250 295 348
#     4  11  20  36  58  91 123 149 199 255 299 360
#     4  11  21  36  62  87 118 153 197 250 306 355
#
# _framework density 18.584326000000001
#
# number of rings (size 3 to 8) (size 9 to 14) (size 15 to 20)
#    0.000    1.750    2.500    1.875    3.500    0.000 
#    4.500    1.250    0.000    0.000    0.000    0.000 
#    0.000    0.000    0.000    0.000    0.000    0.000 
#
# Total GULP energy -178463.831831 kJ/mol
# GULP energy per Si atom -5576.994745 kJ/mol
# Density = 1.854203 g / cm^3
# Si number density = 18.584326 Si / 1000 Ang^3
#
#
#
# Elastic Constant Matrix: (Units=GPa)
#
#
# Indices 1 2 3 4 5 6 
#
# 1 72.5309 29.6823 28.1228 -0.0001 6.4325 0.0000
# 2 29.6823 42.2260 20.2761 -0.0001 -5.4517 0.0000
# 3 28.1228 20.2761 84.6475 0.0000 -0.4859 0.0003
# 4 -0.0001 -0.0001 0.0000 14.8752 -0.0001 -1.6120
# 5 6.4325 -5.4517 -0.4859 -0.0001 31.7671 0.0002
# 6 0.0000 0.0000 0.0003 -1.6120 0.0002 13.1963
#
#
#
# Elastic Compliance Matrix: (Units=1/GPa)
#
#
# Indices 1 2 3 4 5 6 
#
# 1 0.021760 -0.014350 -0.003832 0.000000 -0.006928 0.000000
# 2 -0.014350 0.036881 -0.004014 0.000000 0.009174 0.000000
# 3 -0.003832 -0.004014 0.014050 0.000000 0.000302 0.000000
# 4 0.000000 0.000000 0.000000 0.068128 0.000000 0.008322
# 5 -0.006928 0.009174 0.000302 0.000000 0.034461 0.000000
# 6 0.000000 0.000000 0.000000 0.008322 0.000000 0.076795
#
#
# Mechanical properties :
#
#
# Convention : Reuss Voigt Hill
#
# Bulk Modulus (GPa) = 35.33696 39.50743 37.42219
# Shear Modulus (GPa) = 16.34515 20.05593 18.20054
#
# Velocity S-wave (km/s) = 2.96888 3.28866 3.13285
# Velocity P-wave (km/s) = 5.55049 5.97704 5.76771
#
# Compressibility (1/GPa) = 0.02829899
#
# Stress axis : x y z
#
# Youngs Moduli (GPa) = 45.95584 27.11388 71.17447
#
# Poissons Ratio (x) = 0.38910 0.27272
# Poissons Ratio (y) = 0.65949 0.28570
# Poissons Ratio (z) = 0.17609 0.10884
#
# Static dielectric constant tensor:
#      x y z
#    x 1.613320 0.000000 -0.030830 
#    y 0.000000 1.631850 0.000000 
#    z -0.030830 0.000000 1.633920 
# 
# From -- ./inp_files/293796.got.cif
#   From: 2010.05.17/outbox.cif.g08.bks.cpg/sg15_147_cif.got.tgz:293796.got - 2010.06.03 18:47:42.
