data_PCOD9274072
_publ_section_title
;
Structure prediction by ZEFSAII (Michael W. Deem and Ramdas Pophale) SiO2 
 PCOD9274072
Probable space group: C 2/C
;
_chemical_formula_sum "Si O2"
_cell_formula_units_Z 64
_cell_length_a 17.412887
_cell_length_b 18.826484
_cell_length_c 19.403779
_cell_angle_alpha 90.000000
_cell_angle_beta 30.243189
_cell_angle_gamma 90.000000
_cell_volume 3203.859873
_symmetry_space_group_name_H-M "C 2/C"
_symmetry_group_IT_number 15
_symmetry_cell_setting 'monoclinic'
loop_
_space_group_symop_operation_xyz
x,y,z
-x,y,1/2-z
-x,-y,-z
x,-y,1/2+z
1/2+x,1/2+y,z
1/2-x,1/2+y,1/2-z
1/2-x,1/2-y,-z
1/2+x,1/2-y,1/2+z
loop_
_atom_site_type_symbol
_atom_site_label
_atom_site_fract_x
_atom_site_fract_y
_atom_site_fract_z
Si Si1 0.151029 0.035003 0.178809
Si Si2 0.151371 0.201454 0.178614
Si Si3 0.104856 0.573551 0.068976
Si Si4 0.159609 0.202996 0.429102
Si Si5 0.544804 0.289183 0.534987
Si Si6 0.999757 0.728720 0.167142
Si Si7 0.030807 0.954534 0.544141
Si Si8 0.786673 0.555438 0.361610
O O1 0.191637 0.118231 0.133163
O O2 0.000000 0.020014 0.250000
O O3 0.101794 0.034653 0.297025
O O4 0.277624 0.975635 0.063470
O O5 0.000000 0.218086 0.250000
O O6 0.087140 0.212946 0.305279
O O7 0.304496 0.248584 0.055695
O O8 0.063959 0.655383 0.083966
O O9 0.163771 0.581191 0.101590
O O10 0.938796 0.537042 0.201867
O O11 0.103512 0.212715 0.550930
O O12 0.321922 0.238655 0.288247
O O13 0.197541 0.119183 0.392564
O O14 0.030582 0.233678 0.478851
O O15 0.570768 0.372741 0.503443
O O16 0.000000 0.727032 0.250000
O O17 0.182196 0.989288 0.457052
O O18 0.000000 0.000000 0.500000
#
# Coordination Sequence:
#
# PCOD9274072 Si02
#       8
#     8   8   8   8   8   8   8   8
#     4  10  21  39  66  93 122 157 206 265 308 376
#     4  10  23  43  65  94 120 154 209 264 320 374
#     4  10  20  39  61  92 122 161 210 257 310 360
#     4  11  22  39  59  87 128 173 207 256 309 366
#     4  11  23  42  66  87 126 164 203 262 315 377
#     4  11  22  38  60  92 130 170 213 254 301 363
#     4  11  22  40  62  90 125 164 206 254 320 369
#     4  10  20  38  61  87 127 162 207 258 307 374
#
# _framework density 19.975905000000001
#
# number of rings (size 3 to 8) (size 9 to 14) (size 15 to 20)
#    0.000    1.500    5.000    1.500    0.000    2.000 
#    4.500    0.625    0.000    0.000    0.000    0.000 
#    0.000    0.000    0.000    0.000    0.000    0.000 
#
# Total GULP energy -178320.889824 kJ/mol
# GULP energy per Si atom -5572.527807 kJ/mol
# Density = 1.993044 g / cm^3
# Si number density = 19.975905 Si / 1000 Ang^3
#
#
#
# Elastic Constant Matrix: (Units=GPa)
#
#
# Indices 1 2 3 4 5 6 
#
# 1 62.9290 28.6889 30.6640 -0.0021 -2.1464 0.0006
# 2 28.6889 49.9025 60.8292 -0.0040 -5.4601 0.0037
# 3 30.6640 60.8292 114.0828 -0.0069 -11.8691 0.0058
# 4 -0.0021 -0.0040 -0.0069 34.4748 0.0043 -1.8276
# 5 -2.1464 -5.4601 -11.8691 0.0043 29.2789 -0.0028
# 6 0.0006 0.0037 0.0058 -1.8276 -0.0028 24.0950
#
#
#
# Elastic Compliance Matrix: (Units=1/GPa)
#
#
# Indices 1 2 3 4 5 6 
#
# 1 0.021756 -0.015351 0.002303 0.000000 -0.000334 0.000001
# 2 -0.015351 0.068166 -0.032381 0.000001 -0.001540 -0.000002
# 3 0.002303 -0.032381 0.025893 0.000001 0.004627 -0.000001
# 4 0.000000 0.000001 0.000001 0.029124 -0.000004 0.002209
# 5 -0.000334 -0.001540 0.004627 -0.000004 0.035718 0.000003
# 6 0.000001 -0.000002 -0.000001 0.002209 0.000003 0.041670
#
#
# Mechanical properties :
#
#
# Convention : Reuss Voigt Hill
#
# Bulk Modulus (GPa) = 40.06705 51.91984 45.99344
# Shear Modulus (GPa) = 15.55188 24.68522 20.11855
#
# Velocity S-wave (km/s) = 2.79325 3.51914 3.17699
# Velocity P-wave (km/s) = 5.52306 6.52381 6.04418
#
# Compressibility (1/GPa) = 0.02495817
#
# Stress axis : x y z
#
# Youngs Moduli (GPa) = 45.96475 14.66999 38.61979
#
# Poissons Ratio (x) = 0.22519 -0.08892
# Poissons Ratio (y) = 0.70559 1.25053
# Poissons Ratio (z) = -0.10584 0.47502
#
# Static dielectric constant tensor:
#      x y z
#    x 1.801710 0.000000 -0.019610 
#    y 0.000000 1.719960 0.000000 
#    z -0.019610 0.000000 1.704760 
# 
# From -- ./inp_files/249636.got.cif
#   From: 2010.05.17/outbox.cif.g08.bks.cpg/sg15_125_cif.got.tgz:249636.got - 2010.06.03 18:47:42.
