data_PCOD9274049
_publ_section_title
;
Structure prediction by ZEFSAII (Michael W. Deem and Ramdas Pophale) SiO2 
 PCOD9274049
Probable space group: C 2/C
;
_chemical_formula_sum "Si O2"
_cell_formula_units_Z 48
_cell_length_a 16.930242
_cell_length_b 8.393709
_cell_length_c 28.955675
_cell_angle_alpha 90.000000
_cell_angle_beta 147.705475
_cell_angle_gamma 90.000000
_cell_volume 2198.430994
_symmetry_space_group_name_H-M "C 2/C"
_symmetry_group_IT_number 15
_symmetry_cell_setting 'monoclinic'
loop_
_space_group_symop_operation_xyz
x,y,z
-x,y,1/2-z
-x,-y,-z
x,-y,1/2+z
1/2+x,1/2+y,z
1/2-x,1/2+y,1/2-z
1/2-x,1/2-y,-z
1/2+x,1/2-y,1/2+z
loop_
_atom_site_type_symbol
_atom_site_label
_atom_site_fract_x
_atom_site_fract_y
_atom_site_fract_z
Si Si1 0.389667 0.835278 0.321644
Si Si2 0.415144 0.083138 0.037628
Si Si3 0.604200 0.448130 0.914455
Si Si4 0.384490 0.587323 0.476055
Si Si5 0.932180 0.764757 0.305502
Si Si6 0.618507 0.992710 0.280430
O O1 0.532487 0.726220 0.381331
O O2 0.239933 0.752099 0.264923
O O3 0.449372 0.957537 0.390607
O O4 0.342130 0.912312 0.248969
O O5 0.451842 0.187414 0.101294
O O6 0.408659 0.221558 0.995432
O O7 0.260812 0.988697 0.967747
O O8 0.479897 0.553628 0.827345
O O9 0.614672 0.507428 0.972856
O O10 0.500000 0.500000 0.500000
O O11 0.239559 0.541091 0.376787
O O12 0.950911 0.658463 0.270605
O O13 0.500000 0.889913 0.250000
#
# Coordination Sequence:
#
# PCOD9274049 Si02
#       6
#     8   8   8   8   8   8
#     4  11  22  39  63  92 126 168 212 262 323 394
#     4  10  21  38  60  88 121 166 212 253 313 392
#     4  11  21  39  63  87 122 170 212 256 319 397
#     4  11  21  37  61  90 122 161 209 264 316 370
#     4  10  20  38  61  86 119 166 211 247 308 394
#     4  11  22  39  61  89 120 155 204 264 314 369
#
# _framework density 21.833753000000002
#
# number of rings (size 3 to 8) (size 9 to 14) (size 15 to 20)
#    0.000    1.333    0.000   10.500    0.000    0.000 
#    0.000    7.500    0.000    0.000    0.000    0.000 
#    0.000    0.000    0.000    0.000    0.000    0.000 
#
# Total GULP energy -133703.353013 kJ/mol
# GULP energy per Si atom -5570.973042 kJ/mol
# Density = 2.178406 g / cm^3
# Si number density = 21.833753 Si / 1000 Ang^3
#
#
#
# Elastic Constant Matrix: (Units=GPa)
#
#
# Indices 1 2 3 4 5 6 
#
# 1 93.5559 8.4761 25.0590 0.0000 9.2693 0.0000
# 2 8.4761 84.9361 36.8051 0.0000 7.1410 0.0000
# 3 25.0590 36.8051 118.9352 0.0000 16.6252 0.0000
# 4 0.0000 0.0000 0.0000 53.2611 0.0000 4.0278
# 5 9.2693 7.1410 16.6252 0.0000 33.6770 0.0000
# 6 0.0000 0.0000 0.0000 4.0278 0.0000 31.0161
#
#
#
# Elastic Compliance Matrix: (Units=1/GPa)
#
#
# Indices 1 2 3 4 5 6 
#
# 1 0.011466 -0.000055 -0.002104 0.000000 -0.002105 0.000000
# 2 -0.000055 0.013621 -0.004084 0.000000 -0.000857 0.000000
# 3 -0.002104 -0.004084 0.010648 0.000000 -0.003811 0.000000
# 4 0.000000 0.000000 0.000000 0.018962 0.000000 -0.002462
# 5 -0.002105 -0.000857 -0.003811 0.000000 0.032337 0.000000
# 6 0.000000 0.000000 0.000000 -0.002462 0.000000 0.032561
#
#
# Mechanical properties :
#
#
# Convention : Reuss Voigt Hill
#
# Bulk Modulus (GPa) = 43.01458 48.67859 45.84658
# Shear Modulus (GPa) = 35.75782 38.72999 37.24390
#
# Velocity S-wave (km/s) = 4.05128 4.21629 4.13461
# Velocity P-wave (km/s) = 6.45194 6.78574 6.62095
#
# Compressibility (1/GPa) = 0.02324793
#
# Stress axis : x y z
#
# Youngs Moduli (GPa) = 87.21380 73.41802 93.91652
#
# Poissons Ratio (x) = 0.00406 0.19764
# Poissons Ratio (y) = 0.00483 0.38351
# Poissons Ratio (z) = 0.18354 0.29980
#
# Static dielectric constant tensor:
#      x y z
#    x 1.766200 0.000000 0.012890 
#    y 0.000000 1.857400 0.000000 
#    z 0.012890 0.000000 1.734180 
# 
# From -- ./inp_files/315780.got.cif
#   From: 2010.05.17/outbox.cif.g08.bks.cpg/sg15_158_cif.got.tgz:315780.got - 2010.06.03 18:47:42.
