data_PCOD9274713
_publ_section_title
;
Structure prediction by ZEFSAII (Michael W. Deem and Ramdas Pophale) SiO2 
 PCOD9274713
Probable space group: C 2/C
;
_chemical_formula_sum "Si O2"
_cell_formula_units_Z 44
_cell_length_a 21.646560
_cell_length_b 13.594784
_cell_length_c 12.661698
_cell_angle_alpha 90.000000
_cell_angle_beta 144.506088
_cell_angle_gamma 90.000000
_cell_volume 2163.428201
_symmetry_space_group_name_H-M "C 2/C"
_symmetry_group_IT_number 15
_symmetry_cell_setting 'monoclinic'
loop_
_space_group_symop_operation_xyz
x,y,z
-x,y,1/2-z
-x,-y,-z
x,-y,1/2+z
1/2+x,1/2+y,z
1/2-x,1/2+y,1/2-z
1/2-x,1/2-y,-z
1/2+x,1/2-y,1/2+z
loop_
_atom_site_type_symbol
_atom_site_label
_atom_site_fract_x
_atom_site_fract_y
_atom_site_fract_z
Si Si1 0.500000 0.085077 0.750000
Si Si2 0.406640 0.369674 0.448213
Si Si3 0.642985 0.582994 0.210518
Si Si4 0.330464 0.833536 0.841166
Si Si5 0.610999 0.007627 0.714516
Si Si6 0.778446 0.849635 0.475264
O O1 0.573367 0.143458 0.938526
O O2 0.579749 0.019060 0.792826
O O3 0.367615 0.478011 0.360909
O O4 0.528907 0.369830 0.580614
O O5 0.349115 0.274275 0.320575
O O6 0.375250 0.351313 0.527620
O O7 0.825151 0.393213 0.225838
O O8 0.694877 0.571201 0.397591
O O9 0.328828 0.913584 0.746306
O O10 0.220605 0.847255 0.751459
O O11 0.500000 0.000000 0.500000
O O12 0.750000 0.750000 0.500000
#
# Coordination Sequence:
#
# PCOD9274713 Si02
#       6
#     4   8   8   8   8   8
#     4  10  20  38  64  96 120 162 216 264 324 384
#     4  11  25  41  63  95 131 173 217 270 328 401
#     4  11  24  41  63  95 132 168 219 270 328 390
#     4  11  22  40  66  92 126 169 214 270 334 378
#     4  10  22  36  62  97 128 157 213 274 323 383
#     4  12  22  40  69  96 125 174 219 268 322 388
#
# _framework density 20.338090999999999
#
# number of rings (size 3 to 8) (size 9 to 14) (size 15 to 20)
#    0.000    1.091    5.455    0.545    7.636    0.000 
#    0.000    0.909    8.000    0.000    0.000    0.000 
#    0.000    0.000    0.000    0.000    0.000    0.000 
#
# Total GULP energy -122554.838369 kJ/mol
# GULP energy per Si atom -5570.674471 kJ/mol
# Density = 2.029180 g / cm^3
# Si number density = 20.338091 Si / 1000 Ang^3
#
#
#
# Elastic Constant Matrix: (Units=GPa)
#
#
# Indices 1 2 3 4 5 6 
#
# 1 153.3454 78.0140 22.1249 0.0000 30.3016 0.0000
# 2 78.0140 129.7598 39.8936 0.0000 20.5134 0.0000
# 3 22.1249 39.8936 54.8016 0.0000 27.2813 0.0000
# 4 0.0000 0.0000 0.0000 25.7969 0.0000 0.8445
# 5 30.3016 20.5134 27.2813 0.0000 33.7480 0.0000
# 6 0.0000 0.0000 0.0000 0.8445 0.0000 39.3648
#
#
#
# Elastic Compliance Matrix: (Units=1/GPa)
#
#
# Indices 1 2 3 4 5 6 
#
# 1 0.011278 -0.006863 0.005702 0.000000 -0.010563 0.000000
# 2 -0.006863 0.014108 -0.010539 0.000000 0.006107 0.000000
# 3 0.005702 -0.010539 0.038451 0.000000 -0.029797 0.000000
# 4 0.000000 0.000000 0.000000 0.038792 0.000000 -0.000832
# 5 -0.010563 0.006107 -0.029797 0.000000 0.059491 0.000000
# 6 0.000000 0.000000 0.000000 -0.000832 0.000000 0.025421
#
#
# Mechanical properties :
#
#
# Convention : Reuss Voigt Hill
#
# Bulk Modulus (GPa) = 24.73085 68.66352 46.69718
# Shear Modulus (GPa) = 22.27964 32.97355 27.62659
#
# Velocity S-wave (km/s) = 3.31337 4.03087 3.68960
# Velocity P-wave (km/s) = 5.17920 7.44971 6.41570
#
# Compressibility (1/GPa) = 0.04043533
#
# Stress axis : x y z
#
# Youngs Moduli (GPa) = 88.67101 70.88342 26.00703
#
# Poissons Ratio (x) = 0.48650 -0.14829
# Poissons Ratio (y) = 0.60858 0.27409
# Poissons Ratio (z) = -0.50559 0.74704
#
# Static dielectric constant tensor:
#      x y z
#    x 1.765680 0.000000 0.033550 
#    y 0.000000 1.769610 0.000000 
#    z 0.033550 0.000000 1.818700 
# 
# From -- ./inp_files/161762.got.cif
#   From: 2010.05.17/outbox.cif.g08.bks.cpg/sg15_81_cif.got.tgz:161762.got - 2010.06.03 18:47:42.
