data_PCOD9274559
_publ_section_title
;
Structure prediction by ZEFSAII (Michael W. Deem and Ramdas Pophale) SiO2 
 PCOD9274559
Probable space group: C 2/C
;
_chemical_formula_sum "Si O2"
_cell_formula_units_Z 52
_cell_length_a 12.672549
_cell_length_b 11.751064
_cell_length_c 22.735255
_cell_angle_alpha 90.000000
_cell_angle_beta 51.835443
_cell_angle_gamma 90.000000
_cell_volume 2661.924553
_symmetry_space_group_name_H-M "C 2/C"
_symmetry_group_IT_number 15
_symmetry_cell_setting 'monoclinic'
loop_
_space_group_symop_operation_xyz
x,y,z
-x,y,1/2-z
-x,-y,-z
x,-y,1/2+z
1/2+x,1/2+y,z
1/2-x,1/2+y,1/2-z
1/2-x,1/2-y,-z
1/2+x,1/2-y,1/2+z
loop_
_atom_site_type_symbol
_atom_site_label
_atom_site_fract_x
_atom_site_fract_y
_atom_site_fract_z
Si Si1 0.323893 0.677612 0.425052
Si Si2 0.289548 0.581443 0.945907
Si Si3 0.570379 0.820013 0.604851
Si Si4 0.261586 0.589026 0.817353
Si Si5 0.500000 0.241341 0.250000
Si Si6 0.729163 0.157261 0.332905
Si Si7 0.937849 0.330563 0.210177
O O1 0.250000 0.750000 0.500000
O O2 0.349997 0.545085 0.432151
O O3 0.224072 0.669700 0.404383
O O4 0.452112 0.746235 0.356394
O O5 0.390536 0.687542 0.920200
O O6 0.236228 0.596357 0.896797
O O7 0.172352 0.602126 0.033530
O O8 0.571034 0.831347 0.675054
O O9 0.420312 0.845384 0.638231
O O10 0.383097 0.676946 0.764051
O O11 0.306941 0.459544 0.791928
O O12 0.131766 0.603798 0.820361
O O13 0.813716 0.258104 0.277050
O O14 0.000000 0.382941 0.250000
#
# Coordination Sequence:
#
# PCOD9274559 Si02
#       7
#     8   8   8   8   4   8   8
#     4  10  23  39  61  86 120 163 200 246 302 365
#     4   9  22  39  64  84 122 160 204 249 292 368
#     4  10  20  39  61  90 117 152 206 250 296 350
#     4  10  21  37  63  89 114 166 201 250 299 363
#     4  10  20  38  64  84 122 156 204 240 308 358
#     4  10  22  37  63  87 119 156 207 250 297 362
#     4  10  22  39  56  89 124 153 202 255 304 354
#
# _framework density 19.534738999999998
#
# number of rings (size 3 to 8) (size 9 to 14) (size 15 to 20)
#    0.000    2.154    1.538    0.000   11.846    1.231 
#    1.385    0.769    0.000    0.000    0.000    0.000 
#    0.000    0.000    0.000    0.000    0.000    0.000 
#
# Total GULP energy -144831.884097 kJ/mol
# GULP energy per Si atom -5570.457081 kJ/mol
# Density = 1.949028 g / cm^3
# Si number density = 19.534739 Si / 1000 Ang^3
#
#
#
# Elastic Constant Matrix: (Units=GPa)
#
#
# Indices 1 2 3 4 5 6 
#
# 1 80.2293 17.7861 4.7049 0.0000 7.3090 0.0000
# 2 17.7861 60.0314 17.3553 0.0000 15.0587 0.0000
# 3 4.7049 17.3553 86.8057 0.0000 -2.0267 0.0000
# 4 0.0000 0.0000 0.0000 11.9097 0.0000 2.9985
# 5 7.3090 15.0587 -2.0267 0.0000 22.3215 0.0000
# 6 0.0000 0.0000 0.0000 2.9985 0.0000 17.8852
#
#
#
# Elastic Compliance Matrix: (Units=1/GPa)
#
#
# Indices 1 2 3 4 5 6 
#
# 1 0.013419 -0.003425 -0.000091 0.000000 -0.002092 0.000000
# 2 -0.003425 0.022696 -0.004693 0.000000 -0.014616 0.000000
# 3 -0.000091 -0.004693 0.012565 0.000000 0.004337 0.000000
# 4 0.000000 0.000000 0.000000 0.087665 0.000000 -0.014697
# 5 -0.002092 -0.014616 0.004337 0.000000 0.055739 0.000000
# 6 0.000000 0.000000 0.000000 -0.014697 0.000000 0.058376
#
#
# Mechanical properties :
#
#
# Convention : Reuss Voigt Hill
#
# Bulk Modulus (GPa) = 30.99724 34.08433 32.54079
# Shear Modulus (GPa) = 18.00939 22.90461 20.45700
#
# Velocity S-wave (km/s) = 3.03960 3.42790 3.23958
# Velocity P-wave (km/s) = 5.31235 5.75789 5.53960
#
# Compressibility (1/GPa) = 0.03226094
#
# Stress axis : x y z
#
# Youngs Moduli (GPa) = 74.51870 44.06096 79.58907
#
# Poissons Ratio (x) = 0.15090 0.00728
# Poissons Ratio (y) = 0.25520 0.37353
# Poissons Ratio (z) = 0.00682 0.20679
#
# Static dielectric constant tensor:
#      x y z
#    x 1.686340 0.000000 0.046860 
#    y 0.000000 1.740220 0.000000 
#    z 0.046860 0.000000 1.703190 
# 
# From -- ./inp_files/237476.got.cif
#   From: 2010.05.17/outbox.cif.g08.bks.cpg/sg15_119_cif.got.tgz:237476.got - 2010.06.03 18:47:42.
