data_PCOD9274823
_publ_section_title
;
Structure prediction by ZEFSAII (Michael W. Deem and Ramdas Pophale) SiO2 
 PCOD9274823
Probable space group: C 2/C
;
_chemical_formula_sum "Si O2"
_cell_formula_units_Z 48
_cell_length_a 13.445898
_cell_length_b 12.427940
_cell_length_c 16.938458
_cell_angle_alpha 90.000000
_cell_angle_beta 140.140388
_cell_angle_gamma 90.000000
_cell_volume 1814.090693
_symmetry_space_group_name_H-M "C 2/C"
_symmetry_group_IT_number 15
_symmetry_cell_setting 'monoclinic'
loop_
_space_group_symop_operation_xyz
x,y,z
-x,y,1/2-z
-x,-y,-z
x,-y,1/2+z
1/2+x,1/2+y,z
1/2-x,1/2+y,1/2-z
1/2-x,1/2-y,-z
1/2+x,1/2-y,1/2+z
loop_
_atom_site_type_symbol
_atom_site_label
_atom_site_fract_x
_atom_site_fract_y
_atom_site_fract_z
Si Si1 0.687494 0.159911 0.787261
Si Si2 0.167064 0.635285 0.950042
Si Si3 0.461533 0.541389 0.888632
Si Si4 0.744284 0.684116 0.091129
Si Si5 0.735844 0.116221 0.213242
Si Si6 0.880948 0.408558 0.526850
O O1 0.690912 0.099729 0.872982
O O2 0.513766 0.162076 0.651314
O O3 0.797402 0.100096 0.794719
O O4 0.756234 0.278654 0.836057
O O5 0.197483 0.527196 0.018676
O O6 0.250000 0.750000 0.000000
O O7 0.402604 0.443184 0.799526
O O8 0.500000 0.500000 0.000000
O O9 0.595212 0.627522 0.956728
O O10 0.751838 0.648159 0.186163
O O11 0.878948 0.640888 0.115200
O O12 0.711224 0.812027 0.071938
O O13 0.556728 0.076891 0.102030
#
# Coordination Sequence:
#
# PCOD9274823 Si02
#       6
#     8   8   8   8   8   8
#     4  11  24  42  65  98 126 180 230 269 342 406
#     4  11  26  44  65  92 136 182 225 274 338 409
#     4  10  20  38  65  95 129 171 219 277 336 397
#     4  10  23  38  67  99 130 170 223 278 338 398
#     4  11  22  40  67  98 134 168 226 283 329 407
#     4  11  22  43  67  95 131 180 221 270 341 402
#
# _framework density 26.459537000000001
#
# number of rings (size 3 to 8) (size 9 to 14) (size 15 to 20)
#    0.000    1.333    3.333    2.500    9.333    0.000 
#    3.000    1.667    3.667    0.000    0.000    0.000 
#    0.000    0.000    0.000    0.000    0.000    0.000 
#
# Total GULP energy -134052.629010 kJ/mol
# GULP energy per Si atom -5585.526209 kJ/mol
# Density = 2.639931 g / cm^3
# Si number density = 26.459537 Si / 1000 Ang^3
#
#
#
# Elastic Constant Matrix: (Units=GPa)
#
#
# Indices 1 2 3 4 5 6 
#
# 1 77.4203 11.7601 36.5691 0.0000 12.4876 0.0000
# 2 11.7601 132.6540 9.1404 0.0000 2.8187 0.0000
# 3 36.5691 9.1404 53.7217 0.0001 -1.0886 0.0001
# 4 0.0000 0.0000 0.0001 28.6022 0.0001 3.1209
# 5 12.4876 2.8187 -1.0886 0.0001 35.1967 0.0000
# 6 0.0000 0.0000 0.0001 3.1209 0.0000 48.9224
#
#
#
# Elastic Compliance Matrix: (Units=1/GPa)
#
#
# Indices 1 2 3 4 5 6 
#
# 1 0.021095 -0.000711 -0.014399 0.000000 -0.007873 0.000000
# 2 -0.000711 0.007667 -0.000828 0.000000 -0.000387 0.000000
# 3 -0.014399 -0.000828 0.028680 0.000000 0.006062 0.000000
# 4 0.000000 0.000000 0.000000 0.035207 0.000000 -0.002246
# 5 -0.007873 -0.000387 0.006062 0.000000 0.031424 0.000000
# 6 0.000000 0.000000 0.000000 -0.002246 0.000000 0.020584
#
#
# Mechanical properties :
#
#
# Convention : Reuss Voigt Hill
#
# Bulk Modulus (GPa) = 39.11423 42.08169 40.59796
# Shear Modulus (GPa) = 27.01910 36.29936 31.65923
#
# Velocity S-wave (km/s) = 3.19901 3.70791 3.46282
# Velocity P-wave (km/s) = 5.33476 5.85407 5.60044
#
# Compressibility (1/GPa) = 0.02556614
#
# Stress axis : x y z
#
# Youngs Moduli (GPa) = 47.40354 130.43367 34.86799
#
# Poissons Ratio (x) = 0.09271 0.50205
# Poissons Ratio (y) = 0.03369 0.02889
# Poissons Ratio (z) = 0.68254 0.10806
#
# Static dielectric constant tensor:
#      x y z
#    x 2.113050 0.000000 -0.057700 
#    y 0.000000 2.304010 0.000000 
#    z -0.057700 0.000000 2.105850 
# 
# From -- ./inp_files/243994.got.cif
#   From: 2010.05.17/outbox.cif.g08.bks.cpg/sg15_122_cif.got.tgz:243994.got - 2010.06.03 18:47:42.
