data_PCOD9274589
_publ_section_title
;
Structure prediction by ZEFSAII (Michael W. Deem and Ramdas Pophale) SiO2 
 PCOD9274589
Probable space group: C 2/C
;
_chemical_formula_sum "Si O2"
_cell_formula_units_Z 40
_cell_length_a 12.439156
_cell_length_b 25.969468
_cell_length_c 9.028382
_cell_angle_alpha 90.000000
_cell_angle_beta 131.752580
_cell_angle_gamma 90.000000
_cell_volume 2175.798466
_symmetry_space_group_name_H-M "C 2/C"
_symmetry_group_IT_number 15
_symmetry_cell_setting 'monoclinic'
loop_
_space_group_symop_operation_xyz
x,y,z
-x,y,1/2-z
-x,-y,-z
x,-y,1/2+z
1/2+x,1/2+y,z
1/2-x,1/2+y,1/2-z
1/2-x,1/2-y,-z
1/2+x,1/2-y,1/2+z
loop_
_atom_site_type_symbol
_atom_site_label
_atom_site_fract_x
_atom_site_fract_y
_atom_site_fract_z
Si Si1 0.000000 0.516858 0.250000
Si Si2 0.000000 0.130783 0.250000
Si Si3 0.492733 0.102762 0.490429
Si Si4 0.039377 0.715623 0.125076
Si Si5 0.173139 0.226548 0.281254
Si Si6 0.210855 0.577493 0.937067
O O1 0.141837 0.480212 0.370753
O O2 0.005760 0.553406 0.397727
O O3 0.094279 0.172069 0.241554
O O4 0.122724 0.092475 0.426923
O O5 0.489156 0.154985 0.398414
O O6 0.625256 0.104612 0.725805
O O7 0.351827 0.098120 0.464687
O O8 0.203956 0.722911 0.229877
O O9 0.000000 0.738140 0.250000
O O10 0.947364 0.737644 0.903394
O O11 0.250000 0.250000 0.500000
#
# Coordination Sequence:
#
# PCOD9274589 Si02
#       6
#     4   4   8   8   8   8
#     4  10  20  42  63  92 120 159 214 260 312 374
#     4  12  22  38  63  96 124 157 216 254 306 364
#     4  10  20  38  64  88 115 164 211 253 306 379
#     4  12  24  40  63  92 129 165 208 261 324 366
#     4  12  24  41  64  91 127 172 213 256 306 385
#     4  10  21  36  64  87 120 157 209 259 304 365
#
# _framework density 18.384056000000001
#
# number of rings (size 3 to 8) (size 9 to 14) (size 15 to 20)
#    0.000    1.200    5.000    4.200    2.800    0.000 
#    0.000    4.000    0.000    0.000    0.000    0.000 
#    0.000    0.000    0.000    0.000    0.000    0.000 
#
# Total GULP energy -111414.010848 kJ/mol
# GULP energy per Si atom -5570.700542 kJ/mol
# Density = 1.834221 g / cm^3
# Si number density = 18.384056 Si / 1000 Ang^3
#
#
#
# Elastic Constant Matrix: (Units=GPa)
#
#
# Indices 1 2 3 4 5 6 
#
# 1 107.0875 14.8859 43.8383 0.0000 14.2581 0.0000
# 2 14.8859 77.3822 21.0755 0.0000 14.7480 0.0000
# 3 43.8383 21.0755 55.1505 0.0000 8.0284 0.0000
# 4 0.0000 0.0000 0.0000 53.1180 0.0000 -25.7999
# 5 14.2581 14.7480 8.0284 0.0000 39.8207 0.0000
# 6 0.0000 0.0000 0.0000 -25.7999 0.0000 24.6097
#
#
#
# Elastic Compliance Matrix: (Units=1/GPa)
#
#
# Indices 1 2 3 4 5 6 
#
# 1 0.014212 0.000917 -0.011186 0.000000 -0.003173 0.000000
# 2 0.000917 0.015257 -0.005861 0.000000 -0.004797 0.000000
# 3 -0.011186 -0.005861 0.029222 0.000000 0.000284 0.000000
# 4 0.000000 0.000000 0.000000 0.038358 0.000000 0.040213
# 5 -0.003173 -0.004797 0.000284 0.000000 0.027968 0.000000
# 6 0.000000 0.000000 0.000000 0.040213 0.000000 0.082792
#
#
# Mechanical properties :
#
#
# Convention : Reuss Voigt Hill
#
# Bulk Modulus (GPa) = 37.83278 44.35772 41.09525
# Shear Modulus (GPa) = 20.09011 34.16439 27.12725
#
# Velocity S-wave (km/s) = 3.30934 4.31556 3.84550
# Velocity P-wave (km/s) = 5.93516 7.00092 6.48995
#
# Compressibility (1/GPa) = 0.02643211
#
# Stress axis : x y z
#
# Youngs Moduli (GPa) = 70.36196 65.54344 34.22088
#
# Poissons Ratio (x) = -0.06012 0.38278
# Poissons Ratio (y) = -0.06454 0.20057
# Poissons Ratio (z) = 0.78704 0.38416
#
# Static dielectric constant tensor:
#      x y z
#    x 1.657630 0.000000 -0.011840 
#    y 0.000000 1.662750 0.000000 
#    z -0.011840 0.000000 1.641220 
# 
# From -- ./inp_files/33346.got.cif
#   From: 2010.05.17/outbox.cif.g08.bks.cpg/sg15_17_cif.got.tgz:33346.got - 2010.06.03 18:47:42.
