data_PCOD9274874
_publ_section_title
;
Structure prediction by ZEFSAII (Michael W. Deem and Ramdas Pophale) SiO2 
 PCOD9274874
Probable space group: C 2/C
;
_chemical_formula_sum "Si O2"
_cell_formula_units_Z 40
_cell_length_a 21.299197
_cell_length_b 7.923718
_cell_length_c 16.464170
_cell_angle_alpha 90.000000
_cell_angle_beta 42.430318
_cell_angle_gamma 90.000000
_cell_volume 1874.728221
_symmetry_space_group_name_H-M "C 2/C"
_symmetry_group_IT_number 15
_symmetry_cell_setting 'monoclinic'
loop_
_space_group_symop_operation_xyz
x,y,z
-x,y,1/2-z
-x,-y,-z
x,-y,1/2+z
1/2+x,1/2+y,z
1/2-x,1/2+y,1/2-z
1/2-x,1/2-y,-z
1/2+x,1/2-y,1/2+z
loop_
_atom_site_type_symbol
_atom_site_label
_atom_site_fract_x
_atom_site_fract_y
_atom_site_fract_z
Si Si1 0.605600 0.466509 0.371083
Si Si2 0.322823 0.151884 0.544693
Si Si3 0.973796 0.765043 0.192917
Si Si4 0.693084 0.034229 0.111909
Si Si5 0.775747 0.694666 0.766741
O O1 0.500000 0.500000 0.500000
O O2 0.590893 0.380471 0.298989
O O3 0.663636 0.329899 0.368581
O O4 0.665019 0.636824 0.305657
O O5 0.431258 0.202871 0.437871
O O6 0.297039 0.023322 0.495622
O O7 0.265360 0.322400 0.575672
O O8 0.302581 0.097130 0.656194
O O9 0.910123 0.608660 0.278829
O O10 0.000000 0.860687 0.250000
O O11 0.699995 0.882426 0.168916
#
# Coordination Sequence:
#
# PCOD9274874 Si02
#       5
#     8   8   8   8   8
#     4  12  23  42  65  99 134 174 219 279 332 392
#     4  10  20  38  66  87 129 173 218 262 329 396
#     4  10  20  39  64  89 126 175 218 265 334 398
#     4  10  21  39  62  92 123 172 221 266 328 395
#     4  12  22  41  67  96 132 173 227 271 335 394
#
# _framework density 21.336427
#
# number of rings (size 3 to 8) (size 9 to 14) (size 15 to 20)
#    0.000    1.200    6.000    0.000    0.000    0.800 
#    3.600    4.000    0.000    0.000    0.000    0.000 
#    0.000    0.000    0.000    0.000    0.000    0.000 
#
# Total GULP energy -111385.061311 kJ/mol
# GULP energy per Si atom -5569.253066 kJ/mol
# Density = 2.128786 g / cm^3
# Si number density = 21.336427 Si / 1000 Ang^3
#
#
#
# Elastic Constant Matrix: (Units=GPa)
#
#
# Indices 1 2 3 4 5 6 
#
# 1 120.6574 42.1157 7.4865 -0.0001 1.2410 0.0001
# 2 42.1157 62.1142 23.6895 0.0009 -5.2444 -0.0003
# 3 7.4865 23.6895 88.0893 0.0002 -19.7425 -0.0002
# 4 -0.0001 0.0009 0.0002 20.7081 -0.0003 -1.7761
# 5 1.2410 -5.2444 -19.7425 -0.0003 55.1088 0.0001
# 6 0.0001 -0.0003 -0.0002 -1.7761 0.0001 35.8347
#
#
#
# Elastic Compliance Matrix: (Units=1/GPa)
#
#
# Indices 1 2 3 4 5 6 
#
# 1 0.010988 -0.007904 0.001052 0.000000 -0.000623 0.000000
# 2 -0.007904 0.023625 -0.005586 -0.000001 0.000425 0.000000
# 3 0.001052 -0.005586 0.013744 0.000000 0.004368 0.000000
# 4 0.000000 -0.000001 0.000000 0.048497 0.000000 0.002404
# 5 -0.000623 0.000425 0.004368 0.000000 0.019765 0.000000
# 6 0.000000 0.000000 0.000000 0.002404 0.000000 0.028025
#
#
# Mechanical properties :
#
#
# Convention : Reuss Voigt Hill
#
# Bulk Modulus (GPa) = 42.58844 46.38270 44.48557
# Shear Modulus (GPa) = 28.19320 35.50160 31.84740
#
# Velocity S-wave (km/s) = 3.63900 4.08351 3.86765
# Velocity P-wave (km/s) = 6.13679 6.63471 6.39060
#
# Compressibility (1/GPa) = 0.02348055
#
# Stress axis : x y z
#
# Youngs Moduli (GPa) = 91.00828 42.32778 72.75860
#
# Poissons Ratio (x) = 0.33457 -0.07656
# Poissons Ratio (y) = 0.71934 0.40646
# Poissons Ratio (z) = -0.09576 0.23646
#
# Static dielectric constant tensor:
#      x y z
#    x 1.862790 0.000000 0.042040 
#    y 0.000000 1.844880 0.000000 
#    z 0.042040 0.000000 1.873750 
# 
# From -- ./inp_files/213690.got.cif
#   From: 2010.05.17/outbox.cif.g08.bks.cpg/sg15_107_cif.got.tgz:213690.got - 2010.06.03 18:47:42.
