data_PCOD9274260
_publ_section_title
;
Structure prediction by ZEFSAII (Michael W. Deem and Ramdas Pophale) SiO2 
 PCOD9274260
Probable space group: C 2/C
;
_chemical_formula_sum "Si O2"
_cell_formula_units_Z 48
_cell_length_a 9.567650
_cell_length_b 29.904855
_cell_length_c 16.050110
_cell_angle_alpha 90.000000
_cell_angle_beta 147.904031
_cell_angle_gamma 90.000000
_cell_volume 2440.038458
_symmetry_space_group_name_H-M "C 2/C"
_symmetry_group_IT_number 15
_symmetry_cell_setting 'monoclinic'
loop_
_space_group_symop_operation_xyz
x,y,z
-x,y,1/2-z
-x,-y,-z
x,-y,1/2+z
1/2+x,1/2+y,z
1/2-x,1/2+y,1/2-z
1/2-x,1/2-y,-z
1/2+x,1/2-y,1/2+z
loop_
_atom_site_type_symbol
_atom_site_label
_atom_site_fract_x
_atom_site_fract_y
_atom_site_fract_z
Si Si1 0.977919 0.214896 0.639331
Si Si2 0.336048 0.866494 0.581298
Si Si3 0.480922 0.728821 0.338981
Si Si4 0.904572 0.966124 0.797116
Si Si5 0.867507 0.133435 0.273761
Si Si6 0.648551 0.970676 0.911603
O O1 0.750000 0.250000 0.500000
O O2 0.894431 0.168606 0.552606
O O3 0.000000 0.208514 0.750000
O O4 0.243501 0.238952 0.743783
O O5 0.500000 0.857642 0.750000
O O6 0.262987 0.918737 0.544210
O O7 0.551716 0.861340 0.615886
O O8 0.500000 0.723555 0.250000
O O9 0.750000 0.750000 0.500000
O O10 0.459911 0.678664 0.364716
O O11 0.594377 0.977212 0.646614
O O12 0.000000 0.967058 0.750000
O O13 0.925092 0.915042 0.841698
O O14 0.101860 0.998377 0.945618
O O15 0.000000 0.131546 0.250000
O O16 0.500000 0.979895 0.750000
#
# Coordination Sequence:
#
# PCOD9274260 Si02
#       6
#     8   8   8   8   8   8
#     4  12  24  40  64  89 118 158 202 245 293 355
#     4  10  22  40  63  88 120 161 199 244 296 353
#     4  11  24  40  59  87 121 155 197 244 296 348
#     4  10  20  38  62  89 116 159 198 242 295 355
#     4   9  20  38  61  81 122 158 194 234 307 347
#     4  10  21  39  62  89 123 157 196 244 300 353
#
# _framework density 19.671821000000001
#
# number of rings (size 3 to 8) (size 9 to 14) (size 15 to 20)
#    0.000    1.667    1.667    2.500    4.667    0.667 
#    3.000    0.833    0.000    0.000    0.000    0.000 
#    0.000    0.000    0.000    0.000    0.000    0.000 
#
# Total GULP energy -133871.390892 kJ/mol
# GULP energy per Si atom -5577.974621 kJ/mol
# Density = 1.962705 g / cm^3
# Si number density = 19.671821 Si / 1000 Ang^3
#
#
#
# Elastic Constant Matrix: (Units=GPa)
#
#
# Indices 1 2 3 4 5 6 
#
# 1 76.1569 12.5381 13.0885 0.0000 10.0487 0.0000
# 2 12.5381 165.8154 88.5046 0.0000 3.6904 0.0000
# 3 13.0885 88.5046 111.6211 0.0000 8.7427 0.0000
# 4 0.0000 0.0000 0.0000 39.7458 0.0000 6.7273
# 5 10.0487 3.6904 8.7427 0.0000 37.8096 0.0000
# 6 0.0000 0.0000 0.0000 6.7273 0.0000 20.8102
#
#
#
# Elastic Compliance Matrix: (Units=1/GPa)
#
#
# Indices 1 2 3 4 5 6 
#
# 1 0.013824 -0.000427 -0.001016 0.000000 -0.003397 0.000000
# 2 -0.000427 0.010500 -0.008355 0.000000 0.001021 0.000000
# 3 -0.001016 -0.008355 0.015906 0.000000 -0.002592 0.000000
# 4 0.000000 0.000000 0.000000 0.026616 0.000000 -0.008604
# 5 -0.003397 0.001021 -0.002592 0.000000 0.027851 0.000000
# 6 0.000000 0.000000 0.000000 -0.008604 0.000000 0.050835
#
#
# Mechanical properties :
#
#
# Convention : Reuss Voigt Hill
#
# Bulk Modulus (GPa) = 48.46689 64.65063 56.55876
# Shear Modulus (GPa) = 29.06851 35.63728 32.35290
#
# Velocity S-wave (km/s) = 3.84822 4.26090 4.05981
# Velocity P-wave (km/s) = 6.66605 7.55929 7.12668
#
# Compressibility (1/GPa) = 0.02063264
#
# Stress axis : x y z
#
# Youngs Moduli (GPa) = 72.33778 95.23686 62.86902
#
# Poissons Ratio (x) = 0.04070 0.06388
# Poissons Ratio (y) = 0.03092 0.52530
# Poissons Ratio (z) = 0.07350 0.79574
#
# Static dielectric constant tensor:
#      x y z
#    x 1.774830 0.000000 0.019680 
#    y 0.000000 1.719300 0.000000 
#    z 0.019680 0.000000 1.636290 
# 
# From -- ./inp_files/194320.got.cif
#   From: 2010.05.17/outbox.cif.g08.bks.cpg/sg15_98_cif.got.tgz:194320.got - 2010.06.03 18:47:42.
