data_PCOD9274308
_publ_section_title
;
Structure prediction by ZEFSAII (Michael W. Deem and Ramdas Pophale) SiO2 
 PCOD9274308
Probable space group: C 2/C
;
_chemical_formula_sum "Si O2"
_cell_formula_units_Z 56
_cell_length_a 11.298231
_cell_length_b 10.541561
_cell_length_c 21.662233
_cell_angle_alpha 90.000000
_cell_angle_beta 96.619174
_cell_angle_gamma 90.000000
_cell_volume 2562.795823
_symmetry_space_group_name_H-M "C 2/C"
_symmetry_group_IT_number 15
_symmetry_cell_setting 'monoclinic'
loop_
_space_group_symop_operation_xyz
x,y,z
-x,y,1/2-z
-x,-y,-z
x,-y,1/2+z
1/2+x,1/2+y,z
1/2-x,1/2+y,1/2-z
1/2-x,1/2-y,-z
1/2+x,1/2-y,1/2+z
loop_
_atom_site_type_symbol
_atom_site_label
_atom_site_fract_x
_atom_site_fract_y
_atom_site_fract_z
Si Si1 0.623790 0.139927 0.751357
Si Si2 0.085337 0.883591 0.582205
Si Si3 0.404377 0.594266 0.558484
Si Si4 0.847727 0.601460 0.891919
Si Si5 0.025293 0.347494 0.598743
Si Si6 0.676835 0.075061 0.340887
Si Si7 0.118466 0.232117 0.730889
O O1 0.500000 0.219622 0.750000
O O2 0.646080 0.098350 0.682237
O O3 0.755237 0.178153 0.782047
O O4 0.603344 0.030848 0.800248
O O5 0.126512 0.916404 0.515304
O O6 0.080957 0.730615 0.586767
O O7 0.184393 0.933971 0.635928
O O8 0.965732 0.964098 0.584558
O O9 0.286435 0.620266 0.591113
O O10 0.501389 0.709643 0.567405
O O11 0.897729 0.466755 0.920268
O O12 0.074400 0.313058 0.669946
O O13 0.892297 0.401039 0.600085
O O14 0.661299 0.189969 0.292843
O O15 0.000000 0.159690 0.750000
#
# Coordination Sequence:
#
# PCOD9274308 Si02
#       7
#     8   8   8   8   8   8   8
#     4  12  22  38  62 102 143 178 231 291 358 427
#     4  11  25  48  71 101 141 184 240 303 347 420
#     4  11  26  49  70 100 142 188 241 293 356 421
#     4  12  23  43  72 102 134 185 235 286 357 428
#     4  11  22  42  69  98 137 185 230 285 352 423
#     4  11  20  40  66  94 137 186 219 285 358 417
#     4  10  20  38  62  91 135 185 227 278 355 425
#
# _framework density 21.851136
#
# number of rings (size 3 to 8) (size 9 to 14) (size 15 to 20)
#    0.000    0.857    5.714    2.571    0.000    1.714 
#    2.571    2.143    0.000    0.000    0.000    0.000 
#    0.000    0.000    0.000    0.000    0.000    0.000 
#
# Total GULP energy -155872.069337 kJ/mol
# GULP energy per Si atom -5566.859619 kJ/mol
# Density = 2.180140 g / cm^3
# Si number density = 21.851136 Si / 1000 Ang^3
#
#
#
# Elastic Constant Matrix: (Units=GPa)
#
#
# Indices 1 2 3 4 5 6 
#
# 1 92.5023 45.6735 11.1091 0.0000 10.5820 0.0000
# 2 45.6735 101.9929 11.3253 0.0000 10.6595 0.0000
# 3 11.1091 11.3253 48.3556 0.0000 15.7171 0.0000
# 4 0.0000 0.0000 0.0000 20.9018 0.0000 1.6663
# 5 10.5820 10.6595 15.7171 0.0000 22.3441 0.0000
# 6 0.0000 0.0000 0.0000 1.6663 0.0000 31.9301
#
#
#
# Elastic Compliance Matrix: (Units=1/GPa)
#
#
# Indices 1 2 3 4 5 6 
#
# 1 0.014216 -0.005928 -0.000789 0.000000 -0.003349 0.000000
# 2 -0.005928 0.012833 -0.000734 0.000000 -0.002798 0.000000
# 3 -0.000789 -0.000734 0.026963 0.000000 -0.018242 0.000000
# 4 0.000000 0.000000 0.000000 0.048043 0.000000 -0.002507
# 5 -0.003349 -0.002798 -0.018242 0.000000 0.060507 0.000000
# 6 0.000000 0.000000 0.000000 -0.002507 0.000000 0.031449
#
#
# Mechanical properties :
#
#
# Convention : Reuss Voigt Hill
#
# Bulk Modulus (GPa) = 25.56954 42.11852 33.84403
# Shear Modulus (GPa) = 22.52768 26.68473 24.60621
#
# Velocity S-wave (km/s) = 3.21434 3.49837 3.35936
# Velocity P-wave (km/s) = 5.05006 5.96952 5.52893
#
# Compressibility (1/GPa) = 0.03910903
#
# Stress axis : x y z
#
# Youngs Moduli (GPa) = 70.34559 77.92226 37.08854
#
# Poissons Ratio (x) = 0.46194 0.02925
# Poissons Ratio (y) = 0.41702 0.02723
# Poissons Ratio (z) = 0.05548 0.05721
#
# Static dielectric constant tensor:
#      x y z
#    x 2.102920 0.000000 0.030720 
#    y 0.000000 1.915140 0.000000 
#    z 0.030720 0.000000 1.789270 
# 
# From -- ./inp_files/237141.got.cif
#   From: 2010.05.17/outbox.cif.g08.bks.cpg/sg15_119_cif.got.tgz:237141.got - 2010.06.03 18:47:42.
