data_PCOD9274685
_publ_section_title
;
Structure prediction by ZEFSAII (Michael W. Deem and Ramdas Pophale) SiO2 
 PCOD9274685
Probable space group: C 2/C
;
_chemical_formula_sum "Si O2"
_cell_formula_units_Z 64
_cell_length_a 24.652740
_cell_length_b 5.584724
_cell_length_c 29.978282
_cell_angle_alpha 90.000000
_cell_angle_beta 138.604468
_cell_angle_gamma 90.000000
_cell_volume 2729.238874
_symmetry_space_group_name_H-M "C 2/C"
_symmetry_group_IT_number 15
_symmetry_cell_setting 'monoclinic'
loop_
_space_group_symop_operation_xyz
x,y,z
-x,y,1/2-z
-x,-y,-z
x,-y,1/2+z
1/2+x,1/2+y,z
1/2-x,1/2+y,1/2-z
1/2-x,1/2-y,-z
1/2+x,1/2-y,1/2+z
loop_
_atom_site_type_symbol
_atom_site_label
_atom_site_fract_x
_atom_site_fract_y
_atom_site_fract_z
Si Si1 0.808160 0.188652 0.169846
Si Si2 0.583557 0.873857 0.067868
Si Si3 0.412955 0.811789 0.581275
Si Si4 0.929194 0.934392 0.179301
Si Si5 0.539573 0.813479 0.195280
Si Si6 0.995306 0.928801 0.916127
Si Si7 0.728238 0.960386 0.711830
Si Si8 0.154349 0.598369 0.029313
O O1 0.859869 0.010127 0.170929
O O2 0.875415 0.377815 0.228523
O O3 0.777146 0.068097 0.195915
O O4 0.729566 0.259333 0.092247
O O5 0.632713 0.011407 0.137667
O O6 0.640920 0.901931 0.060166
O O7 0.562044 0.615161 0.076162
O O8 0.500000 0.000000 0.000000
O O9 0.387745 0.664000 0.608913
O O10 0.459473 0.669063 0.570495
O O11 0.485521 0.969633 0.646257
O O12 0.340456 0.962102 0.514273
O O13 0.000000 0.787771 0.250000
O O14 0.982992 0.154832 0.192845
O O15 0.551731 0.656481 0.157620
O O16 0.071994 0.752016 0.972442
O O17 0.744323 0.710801 0.748075
#
# Coordination Sequence:
#
# PCOD9274685 Si02
#       8
#     8   8   8   8   8   8   8   8
#     4  10  21  44  65  94 134 173 222 280 348 410
#     4   9  19  42  64  97 136 180 235 277 344 419
#     4  10  20  38  64  93 130 168 224 282 340 410
#     4   9  20  39  60  93 128 162 226 281 336 409
#     4   9  19  39  61  90 123 168 222 279 333 402
#     4   9  18  38  60  90 127 171 223 276 325 402
#     4  11  25  50  70 103 146 184 235 292 356 422
#     4   9  20  38  59  93 133 173 219 269 346 412
#
# _framework density 23.449760999999999
#
# number of rings (size 3 to 8) (size 9 to 14) (size 15 to 20)
#    0.000    2.500    0.000    0.750    0.000    2.500 
#   51.750    5.625    0.000    0.000    0.000    0.000 
#    0.000    0.000    0.000    0.000    0.000    0.000 
#
# Total GULP energy -178393.089448 kJ/mol
# GULP energy per Si atom -5574.784045 kJ/mol
# Density = 2.339639 g / cm^3
# Si number density = 23.449761 Si / 1000 Ang^3
#
#
#
# Elastic Constant Matrix: (Units=GPa)
#
#
# Indices 1 2 3 4 5 6 
#
# 1 75.9981 15.9489 29.9809 -0.0031 -12.4172 0.0193
# 2 15.9489 63.1380 39.5954 -0.0064 -18.9889 0.0298
# 3 29.9809 39.5954 157.1048 0.0142 -5.4575 -0.0053
# 4 -0.0031 -0.0064 0.0142 30.9156 0.0097 -10.7464
# 5 -12.4172 -18.9889 -5.4575 0.0097 27.9622 -0.0058
# 6 0.0193 0.0298 -0.0053 -10.7464 -0.0058 10.4970
#
#
#
# Elastic Compliance Matrix: (Units=1/GPa)
#
#
# Indices 1 2 3 4 5 6 
#
# 1 0.015248 -0.000428 -0.002594 -0.000012 0.005974 -0.000037
# 2 -0.000428 0.023828 -0.005405 -0.000029 0.014937 -0.000091
# 3 -0.002594 -0.005405 0.008110 0.000006 -0.003240 0.000028
# 4 -0.000012 -0.000029 0.000006 0.050216 -0.000031 0.051409
# 5 0.005974 0.014937 -0.003240 -0.000031 0.047927 -0.000060
# 6 -0.000037 -0.000091 0.000028 0.051409 -0.000060 0.147896
#
#
# Mechanical properties :
#
#
# Convention : Reuss Voigt Hill
#
# Bulk Modulus (GPa) = 32.96912 51.92124 42.44518
# Shear Modulus (GPa) = 15.61576 27.92268 21.76922
#
# Velocity S-wave (km/s) = 2.58335 3.45446 3.05016
# Velocity P-wave (km/s) = 4.79461 6.17257 5.52670
#
# Compressibility (1/GPa) = 0.03033141
#
# Stress axis : x y z
#
# Youngs Moduli (GPa) = 65.58412 41.96690 123.30521
#
# Poissons Ratio (x) = 0.01796 0.31990
# Poissons Ratio (y) = 0.02806 0.66646
# Poissons Ratio (z) = 0.17015 0.22683
#
# Static dielectric constant tensor:
#      x y z
#    x 1.905620 -0.000020 -0.016070 
#    y -0.000020 1.956840 0.000000 
#    z -0.016070 0.000000 1.967510 
# 
# From -- ./inp_files/319308.got.cif
#   From: 2010.05.17/outbox.cif.g08.bks.cpg/sg15_160_cif.got.tgz:319308.got - 2010.06.03 18:47:42.
