data_PCOD9274457
_publ_section_title
;
Structure prediction by ZEFSAII (Michael W. Deem and Ramdas Pophale) SiO2 
 PCOD9274457
Probable space group: C 2/C
;
_chemical_formula_sum "Si O2"
_cell_formula_units_Z 56
_cell_length_a 29.601772
_cell_length_b 15.350454
_cell_length_c 9.483108
_cell_angle_alpha 90.000000
_cell_angle_beta 141.851951
_cell_angle_gamma 90.000000
_cell_volume 2661.730817
_symmetry_space_group_name_H-M "C 2/C"
_symmetry_group_IT_number 15
_symmetry_cell_setting 'monoclinic'
loop_
_space_group_symop_operation_xyz
x,y,z
-x,y,1/2-z
-x,-y,-z
x,-y,1/2+z
1/2+x,1/2+y,z
1/2-x,1/2+y,1/2-z
1/2-x,1/2-y,-z
1/2+x,1/2-y,1/2+z
loop_
_atom_site_type_symbol
_atom_site_label
_atom_site_fract_x
_atom_site_fract_y
_atom_site_fract_z
Si Si1 0.288453 0.437216 0.285445
Si Si2 0.214843 0.304543 0.287144
Si Si3 0.939044 0.695776 0.220152
Si Si4 0.429145 0.006677 0.671755
Si Si5 0.157472 0.523874 0.795949
Si Si6 0.502670 0.365807 0.426347
Si Si7 0.380549 0.493472 0.249580
O O1 0.269629 0.341086 0.300242
O O2 0.352099 0.453504 0.326484
O O3 0.313107 0.495547 0.478368
O O4 0.215800 0.473964 0.033480
O O5 0.250000 0.250000 0.500000
O O6 0.190279 0.390374 0.309633
O O7 0.139695 0.269073 0.030724
O O8 0.925376 0.594067 0.218962
O O9 0.977386 0.768863 0.412328
O O10 0.000000 0.686901 0.250000
O O11 0.500000 0.020667 0.750000
O O12 0.368305 0.027738 0.404979
O O13 0.410381 0.054130 0.770912
O O14 0.500000 0.365716 0.250000
O O15 0.441477 0.430274 0.335866
O O16 0.580804 0.410790 0.649826
#
# Coordination Sequence:
#
# PCOD9274457 Si02
#       7
#     8   8   8   8   8   8   8
#     4  12  22  40  64  96 134 167 223 272 334 400
#     4  11  25  40  65  95 134 174 225 274 344 401
#     4   9  20  37  60  89 125 169 212 263 324 394
#     4  10  20  38  63  91 120 165 216 265 322 384
#     4  11  20  39  61  95 125 165 216 267 320 402
#     4  10  21  38  63  94 126 170 226 263 337 393
#     4  11  23  38  65  97 124 177 217 281 320 405
#
# _framework density 21.038941999999999
#
# number of rings (size 3 to 8) (size 9 to 14) (size 15 to 20)
#    0.000    1.429    5.714    0.429    6.000    0.000 
#    0.000    2.143    0.000    0.000    0.000    0.000 
#    0.000    0.000    0.000    0.000    0.000    0.000 
#
# Total GULP energy -155875.434061 kJ/mol
# GULP energy per Si atom -5566.979788 kJ/mol
# Density = 2.099106 g / cm^3
# Si number density = 21.038942 Si / 1000 Ang^3
#
#
#
# Elastic Constant Matrix: (Units=GPa)
#
#
# Indices 1 2 3 4 5 6 
#
# 1 124.0070 19.4683 20.6536 0.0000 0.3546 0.0000
# 2 19.4683 39.5628 22.0798 0.0000 8.6470 0.0000
# 3 20.6536 22.0798 87.0166 0.0000 2.2835 0.0000
# 4 0.0000 0.0000 0.0000 27.9006 0.0000 -0.7980
# 5 0.3546 8.6470 2.2835 0.0000 32.2550 0.0000
# 6 0.0000 0.0000 0.0000 -0.7980 0.0000 6.7524
#
#
#
# Elastic Compliance Matrix: (Units=1/GPa)
#
#
# Indices 1 2 3 4 5 6 
#
# 1 0.008871 -0.003965 -0.001127 0.000000 0.001045 0.000000
# 2 -0.003965 0.033082 -0.007235 0.000000 -0.008313 0.000000
# 3 -0.001127 -0.007235 0.013569 0.000000 0.000991 0.000000
# 4 0.000000 0.000000 0.000000 0.035963 0.000000 0.004250
# 5 0.001045 -0.008313 0.000991 0.000000 0.033150 0.000000
# 6 0.000000 0.000000 0.000000 0.004250 0.000000 0.148599
#
#
# Mechanical properties :
#
#
# Convention : Reuss Voigt Hill
#
# Bulk Modulus (GPa) = 32.39517 41.66553 37.03035
# Shear Modulus (GPa) = 16.22440 25.94057 21.08249
#
# Velocity S-wave (km/s) = 2.77999 3.51519 3.16898
# Velocity P-wave (km/s) = 5.07303 6.02681 5.57037
#
# Compressibility (1/GPa) = 0.03086880
#
# Stress axis : x y z
#
# Youngs Moduli (GPa) = 112.72392 30.22784 73.69529
#
# Poissons Ratio (x) = 0.11985 0.08305
# Poissons Ratio (y) = 0.44694 0.53319
# Poissons Ratio (z) = 0.12704 0.21870
#
# Static dielectric constant tensor:
#      x y z
#    x 1.831600 0.000000 0.046060 
#    y 0.000000 1.836170 0.000000 
#    z 0.046060 0.000000 1.857890 
# 
# From -- ./inp_files/70507.got.cif
#   From: 2010.05.17/outbox.cif.g08.bks.cpg/sg15_36_cif.got.tgz:70507.got - 2010.06.03 18:47:42.
