data_PCOD9274303
_publ_section_title
;
Structure prediction by ZEFSAII (Michael W. Deem and Ramdas Pophale) SiO2 
 PCOD9274303
Probable space group: C 2/C
;
_chemical_formula_sum "Si O2"
_cell_formula_units_Z 56
_cell_length_a 13.159284
_cell_length_b 12.345693
_cell_length_c 25.839712
_cell_angle_alpha 90.000000
_cell_angle_beta 42.264063
_cell_angle_gamma 90.000000
_cell_volume 2823.312762
_symmetry_space_group_name_H-M "C 2/C"
_symmetry_group_IT_number 15
_symmetry_cell_setting 'monoclinic'
loop_
_space_group_symop_operation_xyz
x,y,z
-x,y,1/2-z
-x,-y,-z
x,-y,1/2+z
1/2+x,1/2+y,z
1/2-x,1/2+y,1/2-z
1/2-x,1/2-y,-z
1/2+x,1/2-y,1/2+z
loop_
_atom_site_type_symbol
_atom_site_label
_atom_site_fract_x
_atom_site_fract_y
_atom_site_fract_z
Si Si1 0.915861 0.199277 0.433874
Si Si2 0.924867 0.684613 0.722861
Si Si3 0.429179 0.261942 0.141167
Si Si4 0.219537 0.503268 0.393452
Si Si5 0.514788 0.813370 0.497121
Si Si6 0.153781 0.464823 0.797999
Si Si7 0.001757 0.998057 0.148668
O O1 0.750000 0.250000 0.500000
O O2 0.005270 0.235504 0.451468
O O3 0.994270 0.248259 0.352972
O O4 0.916684 0.069977 0.425947
O O5 0.750934 0.719048 0.794647
O O6 0.924941 0.559875 0.704200
O O7 0.000000 0.699268 0.750000
O O8 0.435629 0.148388 0.169606
O O9 0.495207 0.369988 0.141262
O O10 0.497984 0.244981 0.058330
O O11 0.127013 0.603144 0.452688
O O12 0.170988 0.502555 0.351921
O O13 0.395332 0.516795 0.339494
O O14 0.159250 0.391647 0.440386
O O15 0.329265 0.460273 0.714924
#
# Coordination Sequence:
#
# PCOD9274303 Si02
#       7
#     8   8   8   8   8   8   8
#     4  12  22  38  63  93 124 159 209 259 305 369
#     4  11  23  40  63  91 121 163 205 257 314 372
#     4  10  23  41  62  91 126 165 207 256 310 371
#     4  10  20  38  62  91 121 162 213 252 301 368
#     4  10  21  38  61  90 126 164 204 255 311 362
#     4  10  21  41  62  87 125 161 209 256 306 374
#     4  11  23  37  62  95 124 165 210 253 310 366
#
# _framework density 19.834855999999998
#
# number of rings (size 3 to 8) (size 9 to 14) (size 15 to 20)
#    0.000    1.429    4.286    1.286    2.000    1.143 
#    0.000    5.714    0.000    0.000    0.000    0.000 
#    0.000    0.000    0.000    0.000    0.000    0.000 
#
# Total GULP energy -156327.200057 kJ/mol
# GULP energy per Si atom -5583.114288 kJ/mol
# Density = 1.978971 g / cm^3
# Si number density = 19.834856 Si / 1000 Ang^3
#
#
#
# Elastic Constant Matrix: (Units=GPa)
#
#
# Indices 1 2 3 4 5 6 
#
# 1 19.6444 -5.7416 -1.5542 0.0000 -2.1152 0.0000
# 2 -5.7416 94.4936 18.0789 0.0000 3.8527 0.0000
# 3 -1.5542 18.0789 64.4159 0.0000 7.9766 0.0000
# 4 0.0000 0.0000 0.0000 27.5670 0.0000 1.0461
# 5 -2.1152 3.8527 7.9766 0.0000 25.6582 0.0000
# 6 0.0000 0.0000 0.0000 1.0461 0.0000 4.9606
#
#
#
# Elastic Compliance Matrix: (Units=1/GPa)
#
#
# Indices 1 2 3 4 5 6 
#
# 1 0.052201 0.003027 -0.000069 0.000000 0.003870 0.000000
# 2 0.003027 0.011372 -0.003056 0.000000 -0.000508 0.000000
# 3 -0.000069 -0.003056 0.016978 0.000000 -0.004825 0.000000
# 4 0.000000 0.000000 0.000000 0.036568 0.000000 -0.007711
# 5 0.003870 -0.000508 -0.004825 0.000000 0.040869 0.000000
# 6 0.000000 0.000000 0.000000 -0.007711 0.000000 0.203216
#
#
# Mechanical properties :
#
#
# Convention : Reuss Voigt Hill
#
# Bulk Modulus (GPa) = 12.44477 22.23556 17.34016
# Shear Modulus (GPa) = 12.88049 22.82187 17.85118
#
# Velocity S-wave (km/s) = 2.55107 3.39572 3.00324
# Velocity P-wave (km/s) = 3.86847 5.15842 4.55929
#
# Compressibility (1/GPa) = 0.08035507
#
# Stress axis : x y z
#
# Youngs Moduli (GPa) = 19.15668 87.93511 58.90144
#
# Poissons Ratio (x) = -0.26621 0.00409
# Poissons Ratio (y) = -0.05799 0.17999
# Poissons Ratio (z) = 0.00133 0.26870
#
# Static dielectric constant tensor:
#      x y z
#    x 1.671260 0.000000 -0.001560 
#    y 0.000000 1.730930 0.000000 
#    z -0.001560 0.000000 1.710750 
# 
# From -- ./inp_files/295909.got.cif
#   From: 2010.05.17/outbox.cif.g08.bks.cpg/sg15_148_cif.got.tgz:295909.got - 2010.06.03 18:47:42.
