data_PCOD9274752
_publ_section_title
;
Structure prediction by ZEFSAII (Michael W. Deem and Ramdas Pophale) SiO2 
 PCOD9274752
Probable space group: C 2/C
;
_chemical_formula_sum "Si O2"
_cell_formula_units_Z 64
_cell_length_a 11.245345
_cell_length_b 29.296280
_cell_length_c 17.832046
_cell_angle_alpha 90.000000
_cell_angle_beta 150.373261
_cell_angle_gamma 90.000000
_cell_volume 2904.148771
_symmetry_space_group_name_H-M "C 2/C"
_symmetry_group_IT_number 15
_symmetry_cell_setting 'monoclinic'
loop_
_space_group_symop_operation_xyz
x,y,z
-x,y,1/2-z
-x,-y,-z
x,-y,1/2+z
1/2+x,1/2+y,z
1/2-x,1/2+y,1/2-z
1/2-x,1/2-y,-z
1/2+x,1/2-y,1/2+z
loop_
_atom_site_type_symbol
_atom_site_label
_atom_site_fract_x
_atom_site_fract_y
_atom_site_fract_z
Si Si1 0.018445 0.262520 0.170318
Si Si2 0.717525 0.470209 0.081487
Si Si3 0.578042 0.494649 0.708945
Si Si4 0.956587 0.093017 0.640499
Si Si5 0.927660 0.409286 0.895445
Si Si6 0.559674 0.854955 0.441104
Si Si7 0.323315 0.371635 0.378658
Si Si8 0.441316 0.666320 0.352820
O O1 0.156955 0.215710 0.227203
O O2 0.000000 0.272220 0.250000
O O3 0.067953 0.305048 0.141491
O O4 0.750000 0.250000 0.000000
O O5 0.646472 0.419314 0.063757
O O6 0.000000 0.481055 0.250000
O O7 0.500000 0.500000 0.000000
O O8 0.655844 0.476063 0.961201
O O9 0.500000 0.499777 0.750000
O O10 0.614196 0.547708 0.706630
O O11 0.788393 0.457566 0.820347
O O12 0.674540 0.082471 0.486792
O O13 0.000000 0.107656 0.750000
O O14 0.021283 0.128832 0.612359
O O15 0.762233 0.371889 0.763520
O O16 0.975303 0.385862 0.004185
O O17 0.447409 0.875194 0.303130
O O18 0.843574 0.847618 0.586144
O O19 0.426183 0.334496 0.493298
#
# Coordination Sequence:
#
# PCOD9274752 Si02
#       8
#     8   8   8   8   8   8   8   8
#     4  10  20  38  65 104 145 172 210 274 350 419
#     4  12  27  44  66  98 136 179 233 296 355 414
#     4  11  26  44  63  95 130 177 232 294 350 403
#     4  11  26  47  65  90 130 186 237 284 345 408
#     4  12  25  42  68  95 135 180 234 286 342 416
#     4  11  22  41  69  98 137 176 216 276 343 424
#     4  12  24  42  65  93 132 178 227 273 340 414
#     4  11  22  39  67 107 135 169 216 281 352 409
#
# _framework density 22.03744
#
# number of rings (size 3 to 8) (size 9 to 14) (size 15 to 20)
#    0.000    0.750    3.750    5.250    3.500    2.500 
#    0.000    0.000    0.000    4.500    0.000    0.000 
#    0.000    0.000    0.000    0.000    0.000    0.000 
#
# Total GULP energy -178399.006283 kJ/mol
# GULP energy per Si atom -5574.968946 kJ/mol
# Density = 2.198728 g / cm^3
# Si number density = 22.037440 Si / 1000 Ang^3
#
#
#
# Elastic Constant Matrix: (Units=GPa)
#
#
# Indices 1 2 3 4 5 6 
#
# 1 64.2962 34.6651 28.8826 -0.0001 -6.1102 0.0001
# 2 34.6651 108.6393 27.6261 0.0000 6.7824 0.0000
# 3 28.8826 27.6261 105.6289 -0.0006 -18.9787 0.0001
# 4 -0.0001 0.0000 -0.0006 33.2889 -0.0002 -1.9608
# 5 -6.1102 6.7824 -18.9787 -0.0002 49.9656 0.0002
# 6 0.0001 0.0000 0.0001 -1.9608 0.0002 13.7218
#
#
#
# Elastic Compliance Matrix: (Units=1/GPa)
#
#
# Indices 1 2 3 4 5 6 
#
# 1 0.020498 -0.005693 -0.003785 0.000000 0.001842 0.000000
# 2 -0.005693 0.011739 -0.002066 0.000000 -0.003074 0.000000
# 3 -0.003785 -0.002066 0.011816 0.000000 0.004306 0.000000
# 4 0.000000 0.000000 0.000000 0.030295 0.000000 0.004329
# 5 0.001842 -0.003074 0.004306 0.000000 0.022292 0.000000
# 6 0.000000 0.000000 0.000000 0.004329 0.000000 0.073495
#
#
# Mechanical properties :
#
#
# Convention : Reuss Voigt Hill
#
# Bulk Modulus (GPa) = 47.69915 51.21245 49.45580
# Shear Modulus (GPa) = 24.97382 31.88797 28.43090
#
# Velocity S-wave (km/s) = 3.37002 3.80806 3.59572
# Velocity P-wave (km/s) = 6.06913 6.52873 6.30312
#
# Compressibility (1/GPa) = 0.02096474
#
# Stress axis : x y z
#
# Youngs Moduli (GPa) = 48.78616 85.18933 84.63154
#
# Poissons Ratio (x) = 0.48498 0.32032
# Poissons Ratio (y) = 0.27774 0.17483
# Poissons Ratio (z) = 0.18465 0.17598
#
# Static dielectric constant tensor:
#      x y z
#    x 1.833620 0.000000 -0.027230 
#    y 0.000000 1.981490 0.000000 
#    z -0.027230 0.000000 1.835220 
# 
# From -- ./inp_files/201481.got.cif
#   From: 2010.05.17/outbox.cif.g08.bks.cpg/sg15_101_cif.got.tgz:201481.got - 2010.06.03 18:47:42.
