data_PCOD9274964
_publ_section_title
;
Structure prediction by ZEFSAII (Michael W. Deem and Ramdas Pophale) SiO2 
 PCOD9274964
Probable space group: C 2/C
;
_chemical_formula_sum "Si O2"
_cell_formula_units_Z 40
_cell_length_a 27.976338
_cell_length_b 6.884210
_cell_length_c 18.338194
_cell_angle_alpha 90.000000
_cell_angle_beta 156.984727
_cell_angle_gamma 90.000000
_cell_volume 1380.868047
_symmetry_space_group_name_H-M "C 2/C"
_symmetry_group_IT_number 15
_symmetry_cell_setting 'monoclinic'
loop_
_space_group_symop_operation_xyz
x,y,z
-x,y,1/2-z
-x,-y,-z
x,-y,1/2+z
1/2+x,1/2+y,z
1/2-x,1/2+y,1/2-z
1/2-x,1/2-y,-z
1/2+x,1/2-y,1/2+z
loop_
_atom_site_type_symbol
_atom_site_label
_atom_site_fract_x
_atom_site_fract_y
_atom_site_fract_z
Si Si1 0.110132 0.644553 0.559311
Si Si2 0.058200 0.081129 0.496015
Si Si3 0.874065 0.026518 0.121594
Si Si4 0.872204 0.381961 0.033500
Si Si5 0.858427 0.360595 0.763099
O O1 0.171639 0.571405 0.571091
O O2 0.149339 0.531023 0.686815
O O3 0.123655 0.873852 0.583952
O O4 0.964693 0.596674 0.353417
O O5 0.923306 0.041168 0.272865
O O6 0.921393 0.813947 0.398520
O O7 0.110224 0.234826 0.510436
O O8 0.000000 0.992403 0.250000
O O9 0.820547 0.236669 0.021838
O O10 0.771522 0.869356 0.959350
O O11 0.000000 0.438516 0.250000
#
# Coordination Sequence:
#
# PCOD9274964 Si02
#       5
#     8   8   8   8   8
#     4  10  20  38  66  97 128 173 219 277 340 396
#     4   9  19  39  61  94 128 168 221 277 329 407
#     4   9  20  43  61  91 136 175 226 276 329 410
#     4   8  18  38  58  87 132 166 220 269 320 403
#     4  10  21  40  64  96 134 171 225 280 336 404
#
# _framework density 28.967282999999998
#
# number of rings (size 3 to 8) (size 9 to 14) (size 15 to 20)
#    0.000    3.200    0.000    0.600    0.000    4.000 
#   21.600   33.000    0.000    0.000    0.000    0.000 
#    0.000    0.000    0.000    0.000    0.000    0.000 
#
# Total GULP energy -111892.299458 kJ/mol
# GULP energy per Si atom -5594.614973 kJ/mol
# Density = 2.890135 g / cm^3
# Si number density = 28.967283 Si / 1000 Ang^3
#
#
#
# Elastic Constant Matrix: (Units=GPa)
#
#
# Indices 1 2 3 4 5 6 
#
# 1 129.9933 56.8495 65.8276 0.0000 -22.4960 0.0000
# 2 56.8495 167.5466 66.4841 0.0000 -53.0957 0.0000
# 3 65.8276 66.4841 213.8376 0.0000 -0.3331 0.0000
# 4 0.0000 0.0000 0.0000 27.9270 0.0000 5.6465
# 5 -22.4960 -53.0957 -0.3331 0.0000 37.9294 0.0000
# 6 0.0000 0.0000 0.0000 5.6465 0.0000 14.5179
#
#
#
# Elastic Compliance Matrix: (Units=1/GPa)
#
#
# Indices 1 2 3 4 5 6 
#
# 1 0.010400 -0.000728 -0.002967 0.000000 0.005124 0.000000
# 2 -0.000728 0.013780 -0.004031 0.000000 0.018823 0.000000
# 3 -0.002967 -0.004031 0.006832 0.000000 -0.007343 0.000000
# 4 0.000000 0.000000 0.000000 0.038864 0.000000 -0.015115
# 5 0.005124 0.018823 -0.007343 0.000000 0.055689 0.000000
# 6 0.000000 0.000000 0.000000 -0.015115 0.000000 0.074759
#
#
# Mechanical properties :
#
#
# Convention : Reuss Voigt Hill
#
# Bulk Modulus (GPa) = 64.26786 98.85556 81.56171
# Shear Modulus (GPa) = 22.62830 37.55595 30.09212
#
# Velocity S-wave (km/s) = 2.79797 3.60459 3.22659
# Velocity P-wave (km/s) = 5.71600 7.17808 6.48836
#
# Compressibility (1/GPa) = 0.01555988
#
# Stress axis : x y z
#
# Youngs Moduli (GPa) = 96.15123 72.56923 146.37524
#
# Poissons Ratio (x) = 0.05281 0.43435
# Poissons Ratio (y) = 0.06997 0.59004
# Poissons Ratio (z) = 0.28532 0.29253
#
# Static dielectric constant tensor:
#      x y z
#    x 2.217000 0.000000 0.078190 
#    y 0.000000 2.262520 0.000000 
#    z 0.078190 0.000000 2.281080 
# 
# From -- ./inp_files/258654.got.cif
#   From: 2010.05.17/outbox.cif.g08.bks.cpg/sg15_130_cif.got.tgz:258654.got - 2010.06.03 18:47:42.
