data_PCOD9274491
_publ_section_title
;
Structure prediction by ZEFSAII (Michael W. Deem and Ramdas Pophale) SiO2 
 PCOD9274491
Probable space group: C 2/C
;
_chemical_formula_sum "Si O2"
_cell_formula_units_Z 60
_cell_length_a 22.172374
_cell_length_b 22.538195
_cell_length_c 8.735066
_cell_angle_alpha 90.000000
_cell_angle_beta 41.376330
_cell_angle_gamma 90.000000
_cell_volume 2885.361560
_symmetry_space_group_name_H-M "C 2/C"
_symmetry_group_IT_number 15
_symmetry_cell_setting 'monoclinic'
loop_
_space_group_symop_operation_xyz
x,y,z
-x,y,1/2-z
-x,-y,-z
x,-y,1/2+z
1/2+x,1/2+y,z
1/2-x,1/2+y,1/2-z
1/2-x,1/2-y,-z
1/2+x,1/2-y,1/2+z
loop_
_atom_site_type_symbol
_atom_site_label
_atom_site_fract_x
_atom_site_fract_y
_atom_site_fract_z
Si Si1 0.747910 0.684678 0.158366
Si Si2 0.286446 0.490178 0.585441
Si Si3 0.678596 0.926189 0.522735
Si Si4 0.983757 0.167072 0.463575
Si Si5 0.898779 0.721111 0.655981
Si Si6 0.225219 0.181328 0.548689
Si Si7 0.000000 0.374772 0.750000
Si Si8 0.627906 0.580154 0.304308
O O1 0.683223 0.742900 0.272394
O O2 0.746025 0.663271 0.334988
O O3 0.700661 0.633940 0.146218
O O4 0.847809 0.697391 0.904305
O O5 0.218200 0.455294 0.602327
O O6 0.353400 0.530096 0.355960
O O7 0.347664 0.449567 0.580240
O O8 0.224179 0.533820 0.805428
O O9 0.716500 0.859191 0.450060
O O10 0.571501 0.916679 0.702856
O O11 0.878525 0.170382 0.707135
O O12 0.000000 0.160732 0.250000
O O13 0.029205 0.228248 0.435174
O O14 0.032216 0.112707 0.459998
O O15 0.945874 0.669289 0.469033
O O16 0.250000 0.250000 0.500000
#
# Coordination Sequence:
#
# PCOD9274491 Si02
#       8
#     8   8   8   8   8   8   4   8
#     4  10  20  38  63  93 128 180 210 263 336 397
#     4  10  22  45  69  94 133 183 227 277 333 410
#     4  11  24  43  68  96 132 176 229 276 349 396
#     4  11  23  39  63 100 137 174 223 273 333 400
#     4  10  21  37  62  96 137 169 215 268 332 406
#     4  12  23  40  67  98 135 176 221 272 340 408
#     4  12  24  42  68 106 128 168 222 294 336 404
#     4  10  21  41  67  93 133 174 227 276 331 398
#
# _framework density 20.794622
#
# number of rings (size 3 to 8) (size 9 to 14) (size 15 to 20)
#    0.000    1.333    1.333    4.800    0.000    4.267 
#    0.000    7.333    0.000    0.000    0.000    0.000 
#    0.000    0.000    0.000    0.000    0.000    0.000 
#
# Total GULP energy -167653.972448 kJ/mol
# GULP energy per Si atom -5588.465748 kJ/mol
# Density = 2.074729 g / cm^3
# Si number density = 20.794622 Si / 1000 Ang^3
#
#
#
# Elastic Constant Matrix: (Units=GPa)
#
#
# Indices 1 2 3 4 5 6 
#
# 1 110.6577 52.5437 54.8925 0.0000 -5.6992 0.0000
# 2 52.5437 105.5513 26.0900 0.0000 1.1642 0.0000
# 3 54.8925 26.0900 101.4642 0.0000 -6.5701 0.0000
# 4 0.0000 0.0000 0.0000 -186.3271 0.0000 -93.7518
# 5 -5.6992 1.1642 -6.5701 0.0000 33.6713 0.0000
# 6 0.0000 0.0000 0.0000 -93.7518 0.0000 -3.6064
#
#
#
# Elastic Compliance Matrix: (Units=1/GPa)
#
#
# Indices 1 2 3 4 5 6 
#
# 1 0.015221 -0.005961 -0.006605 0.000000 0.001494 0.000000
# 2 -0.005961 0.012477 -0.000078 0.000000 -0.001455 0.000000
# 3 -0.006605 -0.000078 0.013548 0.000000 0.001528 0.000000
# 4 0.000000 0.000000 0.000000 0.000444 0.000000 -0.011549
# 5 0.001494 -0.001455 0.001528 0.000000 0.030300 0.000000
# 6 0.000000 0.000000 0.000000 -0.011549 0.000000 0.022954
#
#
# Mechanical properties :
#
#
# Convention : Reuss Voigt Hill
#
# Bulk Modulus (GPa) = 62.66278 64.96951 63.81615
# Shear Modulus (GPa) = 39.82490 -18.97597 10.42447
#
# Velocity S-wave (km/s) = 4.38099 -3.02411 2.24142
# Velocity P-wave (km/s) = 7.46929 4.37237 6.11997
#
# Compressibility (1/GPa) = 0.01595844
#
# Stress axis : x y z
#
# Youngs Moduli (GPa) = 65.70059 80.15026 73.81202
#
# Poissons Ratio (x) = 0.47775 0.48753
# Poissons Ratio (y) = 0.39162 0.00573
# Poissons Ratio (z) = 0.43395 0.00622
#
# Static dielectric constant tensor:
#      x y z
#    x 1.776650 0.000000 0.015050 
#    y 0.000000 1.779420 0.000000 
#    z 0.015050 0.000000 1.711400 
# 
# From -- ./inp_files/58747.got.cif
#   From: 2010.05.17/outbox.cif.g08.bks.cpg/sg15_30_cif.got.tgz:58747.got - 2010.06.03 18:47:42.
