data_PCOD9274790
_publ_section_title
;
Structure prediction by ZEFSAII (Michael W. Deem and Ramdas Pophale) SiO2 
 PCOD9274790
Probable space group: C 2/C
;
_chemical_formula_sum "Si O2"
_cell_formula_units_Z 36
_cell_length_a 8.318488
_cell_length_b 11.827540
_cell_length_c 21.145636
_cell_angle_alpha 90.000000
_cell_angle_beta 43.330897
_cell_angle_gamma 90.000000
_cell_volume 1427.634592
_symmetry_space_group_name_H-M "C 2/C"
_symmetry_group_IT_number 15
_symmetry_cell_setting 'monoclinic'
loop_
_space_group_symop_operation_xyz
x,y,z
-x,y,1/2-z
-x,-y,-z
x,-y,1/2+z
1/2+x,1/2+y,z
1/2-x,1/2+y,1/2-z
1/2-x,1/2-y,-z
1/2+x,1/2-y,1/2+z
loop_
_atom_site_type_symbol
_atom_site_label
_atom_site_fract_x
_atom_site_fract_y
_atom_site_fract_z
Si Si1 0.238181 0.715461 0.145294
Si Si2 0.000000 0.787002 0.750000
Si Si3 0.251171 0.544821 0.044953
Si Si4 0.588754 0.441855 0.620446
Si Si5 0.819086 0.401201 0.209715
O O1 0.224321 0.672758 0.077617
O O2 0.459478 0.650693 0.112548
O O3 0.269074 0.845727 0.155528
O O4 0.000000 0.680511 0.250000
O O5 0.836087 0.867523 0.840395
O O6 0.853029 0.704419 0.747216
O O7 0.054689 0.472105 0.136797
O O8 0.500000 0.500000 0.000000
O O9 0.246624 0.513908 0.972465
O O10 0.616153 0.521623 0.794803
#
# Coordination Sequence:
#
# PCOD9274790 Si02
#       5
#     8   4   8   8   8
#     4  10  20  38  65  91 124 168 211 249 316 379
#     4  10  22  38  62  94 124 160 212 246 316 372
#     4  10  21  38  68  96 122 166 214 256 312 377
#     4  10  22  39  65  92 127 162 209 260 311 371
#     4  11  22  39  67  88 128 172 199 264 314 359
#
# _framework density 25.216539000000001
#
# number of rings (size 3 to 8) (size 9 to 14) (size 15 to 20)
#    0.000    1.778    2.222    2.667    1.556    9.778 
#    0.000    2.222    9.778    0.000    0.000    0.000 
#    0.000    0.000    0.000    0.000    0.000    0.000 
#
# Total GULP energy -100678.144961 kJ/mol
# GULP energy per Si atom -5593.230276 kJ/mol
# Density = 2.515915 g / cm^3
# Si number density = 25.216539 Si / 1000 Ang^3
#
#
#
# Elastic Constant Matrix: (Units=GPa)
#
#
# Indices 1 2 3 4 5 6 
#
# 1 66.4223 22.2334 30.0662 -0.0002 14.9858 -0.0001
# 2 22.2334 86.6423 39.3860 -0.0001 11.5109 -0.0001
# 3 30.0662 39.3860 94.0404 0.0001 11.4013 -0.0005
# 4 -0.0002 -0.0001 0.0001 17.7724 0.0001 -3.4316
# 5 14.9858 11.5109 11.4013 0.0001 34.4909 0.0003
# 6 -0.0001 -0.0001 -0.0005 -3.4316 0.0003 20.0786
#
#
#
# Elastic Compliance Matrix: (Units=1/GPa)
#
#
# Indices 1 2 3 4 5 6 
#
# 1 0.019178 -0.002045 -0.004529 0.000000 -0.006153 0.000000
# 2 -0.002045 0.014758 -0.005248 0.000000 -0.002302 0.000000
# 3 -0.004529 -0.005248 0.014406 0.000000 -0.001043 0.000000
# 4 0.000000 0.000000 0.000000 0.058187 0.000000 0.009945
# 5 -0.006153 -0.002302 -0.001043 0.000000 0.032780 -0.000001
# 6 0.000000 0.000000 0.000000 0.009945 -0.000001 0.051504
#
#
# Mechanical properties :
#
#
# Convention : Reuss Voigt Hill
#
# Bulk Modulus (GPa) = 40.48919 47.83068 44.15993
# Shear Modulus (GPa) = 22.45278 24.82967 23.64122
#
# Velocity S-wave (km/s) = 2.98719 3.14133 3.06523
# Velocity P-wave (km/s) = 5.29048 5.67155 5.48433
#
# Compressibility (1/GPa) = 0.02469795
#
# Stress axis : x y z
#
# Youngs Moduli (GPa) = 52.14312 67.75997 69.41485
#
# Poissons Ratio (x) = 0.13857 0.31438
# Poissons Ratio (y) = 0.10663 0.36429
# Poissons Ratio (z) = 0.23616 0.35561
#
# Static dielectric constant tensor:
#      x y z
#    x 2.087610 0.000000 0.062700 
#    y 0.000000 1.997720 0.000000 
#    z 0.062700 0.000000 1.958390 
# 
# From -- ./inp_files/262711.got.cif
#   From: 2010.05.17/outbox.cif.g08.bks.cpg/sg15_132_cif.got.tgz:262711.got - 2010.06.03 18:47:42.
