data_PCOD9274322
_publ_section_title
;
Structure prediction by ZEFSAII (Michael W. Deem and Ramdas Pophale) SiO2 
 PCOD9274322
Probable space group: C 2/C
;
_chemical_formula_sum "Si O2"
_cell_formula_units_Z 44
_cell_length_a 10.384851
_cell_length_b 23.500662
_cell_length_c 7.909158
_cell_angle_alpha 90.000000
_cell_angle_beta 71.123246
_cell_angle_gamma 90.000000
_cell_volume 1826.422407
_symmetry_space_group_name_H-M "C 2/C"
_symmetry_group_IT_number 15
_symmetry_cell_setting 'monoclinic'
loop_
_space_group_symop_operation_xyz
x,y,z
-x,y,1/2-z
-x,-y,-z
x,-y,1/2+z
1/2+x,1/2+y,z
1/2-x,1/2+y,1/2-z
1/2-x,1/2-y,-z
1/2+x,1/2-y,1/2+z
loop_
_atom_site_type_symbol
_atom_site_label
_atom_site_fract_x
_atom_site_fract_y
_atom_site_fract_z
Si Si1 0.214546 0.526208 0.037097
Si Si2 0.392258 0.815013 0.082180
Si Si3 0.500000 0.108563 0.250000
Si Si4 0.405799 0.306048 0.459440
Si Si5 0.211813 0.413924 0.180499
Si Si6 0.518840 0.423770 0.936901
O O1 0.164261 0.461254 0.067254
O O2 0.373524 0.533675 0.020312
O O3 0.128868 0.566940 0.195341
O O4 0.192831 0.553135 0.864484
O O5 0.247072 0.809831 0.047800
O O6 0.356267 0.852398 0.264110
O O7 0.489474 0.851374 0.918386
O O8 0.438426 0.749684 0.057866
O O9 0.500000 0.306529 0.250000
O O10 0.416674 0.361456 0.570095
O O11 0.373252 0.412193 0.084309
O O12 0.500000 0.439192 0.750000
#
# Coordination Sequence:
#
# PCOD9274322 Si02
#       6
#     8   8   4   8   8   8
#     4  11  23  39  64  92 127 166 211 258 313 374
#     4  10  21  35  67  92 121 163 212 257 304 376
#     4  10  20  38  62  92 124 168 210 252 310 386
#     4  11  19  39  68  94 120 160 219 264 303 370
#     4  11  22  41  62  95 125 166 211 261 315 372
#     4  12  23  40  64  96 129 163 208 265 317 370
#
# _framework density 24.090810999999999
#
# number of rings (size 3 to 8) (size 9 to 14) (size 15 to 20)
#    0.000    1.091    6.364    2.182    0.000    2.909 
#    0.000    0.909    6.000    0.000    0.000    0.000 
#    0.000    0.000    0.000    0.000    0.000    0.000 
#
# Total GULP energy -122998.637987 kJ/mol
# GULP energy per Si atom -5590.847181 kJ/mol
# Density = 2.403598 g / cm^3
# Si number density = 24.090811 Si / 1000 Ang^3
#
#
#
# Elastic Constant Matrix: (Units=GPa)
#
#
# Indices 1 2 3 4 5 6 
#
# 1 56.2517 -2.5062 20.1965 0.0000 -15.5949 0.0000
# 2 -2.5062 131.5610 25.7231 0.0000 -1.0224 0.0000
# 3 20.1965 25.7231 95.3244 0.0000 -9.5876 0.0000
# 4 0.0000 0.0000 0.0000 37.6969 0.0000 -6.2117
# 5 -15.5949 -1.0224 -9.5876 0.0000 37.3645 0.0000
# 6 0.0000 0.0000 0.0000 -6.2117 0.0000 11.8999
#
#
#
# Elastic Compliance Matrix: (Units=1/GPa)
#
#
# Indices 1 2 3 4 5 6 
#
# 1 0.021514 0.001274 -0.004101 0.000000 0.007962 0.000000
# 2 0.001274 0.008104 -0.002444 0.000000 0.000126 0.000000
# 3 -0.004101 -0.002444 0.012154 0.000000 0.001340 0.000000
# 4 0.000000 0.000000 0.000000 0.029024 0.000000 0.015150
# 5 0.007962 0.000126 0.001340 0.000000 0.030434 0.000000
# 6 0.000000 0.000000 0.000000 0.015150 0.000000 0.091943
#
#
# Mechanical properties :
#
#
# Convention : Reuss Voigt Hill
#
# Bulk Modulus (GPa) = 32.02205 41.10710 36.56458
# Shear Modulus (GPa) = 23.35091 33.37385 28.36238
#
# Velocity S-wave (km/s) = 3.11671 3.72605 3.43492
# Velocity P-wave (km/s) = 5.12572 5.96755 5.56258
#
# Compressibility (1/GPa) = 0.03122848
#
# Stress axis : x y z
#
# Youngs Moduli (GPa) = 46.48216 123.39368 82.27966
#
# Poissons Ratio (x) = -0.15715 0.33743
# Poissons Ratio (y) = -0.05920 0.20109
# Poissons Ratio (z) = 0.19062 0.30158
#
# Static dielectric constant tensor:
#      x y z
#    x 1.954100 0.000000 -0.015300 
#    y 0.000000 1.965290 0.000000 
#    z -0.015300 0.000000 1.946320 
# 
# From -- ./inp_files/31860.got.cif
#   From: 2010.05.17/outbox.cif.g08.bks.cpg/sg15_16_cif.got.tgz:31860.got - 2010.06.03 18:47:42.
