data_PCOD9274077
_publ_section_title
;
Structure prediction by ZEFSAII (Michael W. Deem and Ramdas Pophale) SiO2 
 PCOD9274077
Probable space group: C 2/C
;
_chemical_formula_sum "Si O2"
_cell_formula_units_Z 36
_cell_length_a 22.887112
_cell_length_b 15.798889
_cell_length_c 14.673121
_cell_angle_alpha 90.000000
_cell_angle_beta 19.818146
_cell_angle_gamma 90.000000
_cell_volume 1798.811737
_symmetry_space_group_name_H-M "C 2/C"
_symmetry_group_IT_number 15
_symmetry_cell_setting 'monoclinic'
loop_
_space_group_symop_operation_xyz
x,y,z
-x,y,1/2-z
-x,-y,-z
x,-y,1/2+z
1/2+x,1/2+y,z
1/2-x,1/2+y,1/2-z
1/2-x,1/2-y,-z
1/2+x,1/2-y,1/2+z
loop_
_atom_site_type_symbol
_atom_site_label
_atom_site_fract_x
_atom_site_fract_y
_atom_site_fract_z
Si Si1 0.530676 0.503003 0.101732
Si Si2 0.500000 0.962017 0.750000
Si Si3 0.683431 0.591740 0.222745
Si Si4 0.593534 0.924923 0.420058
Si Si5 0.296069 0.273391 0.035555
O O1 0.500000 0.474474 0.250000
O O2 0.405340 0.575458 0.245600
O O3 0.541388 0.431928 0.007790
O O4 0.720262 0.539920 0.827249
O O5 0.496629 0.911755 0.659000
O O6 0.662325 0.024624 0.507570
O O7 0.760404 0.682438 0.134576
O O8 0.500000 0.000000 0.500000
O O9 0.652187 0.840932 0.280120
O O10 0.500000 0.295299 0.750000
O O11 0.250000 0.250000 0.000000
#
# Coordination Sequence:
#
# PCOD9274077 Si02
#       5
#     8   4   8   8   8
#     4  10  20  38  61  88 123 164 205 250 313 376
#     4  10  20  40  62  88 130 168 206 252 322 382
#     4  10  21  38  63  90 123 163 206 258 309 373
#     4  11  23  38  62  91 124 170 208 258 318 377
#     4  12  24  40  65  96 128 162 217 270 314 372
#
# _framework density 20.013211999999999
#
# number of rings (size 3 to 8) (size 9 to 14) (size 15 to 20)
#    0.000    1.333    1.111    6.000    3.111    0.000 
#    2.000    0.000    0.000    6.667    0.000    0.000 
#    0.000    0.000    0.000    0.000    0.000    0.000 
#
# Total GULP energy -100221.049486 kJ/mol
# GULP energy per Si atom -5567.836083 kJ/mol
# Density = 1.996766 g / cm^3
# Si number density = 20.013212 Si / 1000 Ang^3
#
#
#
# Elastic Constant Matrix: (Units=GPa)
#
#
# Indices 1 2 3 4 5 6 
#
# 1 127.1481 40.9088 47.6543 0.0004 19.8666 -0.0008
# 2 40.9088 102.0559 51.6563 -0.0006 16.4096 0.0007
# 3 47.6543 51.6563 91.1979 -0.0009 18.2355 0.0012
# 4 0.0004 -0.0006 -0.0009 33.9951 -0.0001 13.0329
# 5 19.8666 16.4096 18.2355 -0.0001 56.7518 0.0003
# 6 -0.0008 0.0007 0.0012 13.0329 0.0003 -6.6312
#
#
#
# Elastic Compliance Matrix: (Units=1/GPa)
#
#
# Indices 1 2 3 4 5 6 
#
# 1 0.010206 -0.001802 -0.003956 0.000000 -0.001780 -0.000002
# 2 -0.001802 0.014188 -0.006840 0.000000 -0.001274 0.000000
# 3 -0.003956 -0.006840 0.017349 0.000000 -0.002212 0.000002
# 4 0.000000 0.000000 0.000000 0.016776 0.000000 0.032971
# 5 -0.001780 -0.001274 -0.002212 0.000000 0.019323 0.000000
# 6 -0.000002 0.000000 0.000002 0.032971 0.000000 -0.086002
#
#
# Mechanical properties :
#
#
# Convention : Reuss Voigt Hill
#
# Bulk Modulus (GPa) = 60.43734 66.76009 63.59871
# Shear Modulus (GPa) = 221.72346 28.83530 125.27938
#
# Velocity S-wave (km/s) = 10.53703 3.79992 7.92049
# Velocity P-wave (km/s) = 13.35302 7.25830 10.74677
#
# Compressibility (1/GPa) = 0.01654606
#
# Stress axis : x y z
#
# Youngs Moduli (GPa) = 97.98594 70.48306 57.64081
#
# Poissons Ratio (x) = 0.12703 0.22802
# Poissons Ratio (y) = 0.17660 0.39425
# Poissons Ratio (z) = 0.38763 0.48209
#
# Static dielectric constant tensor:
#      x y z
#    x 1.849510 0.000000 0.083940 
#    y 0.000000 1.857900 0.000000 
#    z 0.083940 0.000000 1.750140 
# 
# From -- ./inp_files/142761.got.cif
#   From: 2010.05.17/outbox.cif.g08.bks.cpg/sg15_72_cif.got.tgz:142761.got - 2010.06.03 18:47:42.
