data_PCOD9274479
_publ_section_title
;
Structure prediction by ZEFSAII (Michael W. Deem and Ramdas Pophale) SiO2 
 PCOD9274479
Probable space group: C 2/C
;
_chemical_formula_sum "Si O2"
_cell_formula_units_Z 60
_cell_length_a 16.575981
_cell_length_b 10.814912
_cell_length_c 27.046186
_cell_angle_alpha 90.000000
_cell_angle_beta 36.534967
_cell_angle_gamma 90.000000
_cell_volume 2886.382067
_symmetry_space_group_name_H-M "C 2/C"
_symmetry_group_IT_number 15
_symmetry_cell_setting 'monoclinic'
loop_
_space_group_symop_operation_xyz
x,y,z
-x,y,1/2-z
-x,-y,-z
x,-y,1/2+z
1/2+x,1/2+y,z
1/2-x,1/2+y,1/2-z
1/2-x,1/2-y,-z
1/2+x,1/2-y,1/2+z
loop_
_atom_site_type_symbol
_atom_site_label
_atom_site_fract_x
_atom_site_fract_y
_atom_site_fract_z
Si Si1 0.789446 0.939329 0.294341
Si Si2 0.054966 0.987334 0.879611
Si Si3 0.376494 0.110003 0.400727
Si Si4 0.917767 0.748622 0.575924
Si Si5 0.757148 0.897466 0.994608
Si Si6 0.410594 0.725882 0.969956
Si Si7 0.500000 0.264015 0.250000
Si Si8 0.636532 0.924725 0.949640
O O1 0.660975 0.847580 0.350559
O O2 0.898621 0.854187 0.269725
O O3 0.848928 0.989710 0.214309
O O4 0.738699 0.049815 0.354766
O O5 0.106151 0.886051 0.893270
O O6 0.911625 0.933443 0.930739
O O7 0.023905 0.120538 0.918811
O O8 0.453160 0.168800 0.410376
O O9 0.221950 0.155793 0.484120
O O10 0.433310 0.173909 0.323819
O O11 0.353250 0.963342 0.414810
O O12 0.866488 0.728739 0.545376
O O13 0.074243 0.709942 0.492386
O O14 0.713925 0.954050 0.962442
O O15 0.750000 0.750000 0.000000
O O16 0.500000 0.000000 0.000000
#
# Coordination Sequence:
#
# PCOD9274479 Si02
#       8
#     8   8   8   8   8   8   4   8
#     4  11  23  39  62  96 126 167 220 276 328 397
#     4  11  23  40  65  95 131 169 215 276 334 388
#     4  10  21  36  65  93 122 163 218 270 318 386
#     4  11  22  41  60  92 132 171 216 266 328 404
#     4  11  22  43  67  92 130 175 222 270 330 405
#     4  10  20  38  63  93 119 167 220 261 314 388
#     4  12  20  42  64  94 126 158 220 282 320 384
#     4  10  22  40  64  89 128 177 223 261 325 405
#
# _framework density 20.787268000000001
#
# number of rings (size 3 to 8) (size 9 to 14) (size 15 to 20)
#    0.000    1.333    4.000    2.800    1.867    1.067 
#    4.800    1.333    0.000    0.000    0.000    0.000 
#    0.000    0.000    0.000    0.000    0.000    0.000 
#
# Total GULP energy -167193.570738 kJ/mol
# GULP energy per Si atom -5573.119025 kJ/mol
# Density = 2.073996 g / cm^3
# Si number density = 20.787268 Si / 1000 Ang^3
#
#
#
# Elastic Constant Matrix: (Units=GPa)
#
#
# Indices 1 2 3 4 5 6 
#
# 1 42.1942 3.6118 -6.5849 0.0000 11.1391 0.0000
# 2 3.6118 118.4506 58.7722 0.0000 6.2301 0.0000
# 3 -6.5849 58.7722 119.5731 0.0000 13.6351 0.0000
# 4 0.0000 0.0000 0.0000 37.1620 0.0000 1.8570
# 5 11.1391 6.2301 13.6351 0.0000 24.5464 0.0000
# 6 0.0000 0.0000 0.0000 1.8570 0.0000 18.3889
#
#
#
# Elastic Compliance Matrix: (Units=1/GPa)
#
#
# Indices 1 2 3 4 5 6 
#
# 1 0.028473 -0.002255 0.004361 0.000000 -0.014771 0.000000
# 2 -0.002255 0.011345 -0.005860 0.000000 0.001399 0.000000
# 3 0.004361 -0.005860 0.012320 0.000000 -0.007335 0.000000
# 4 0.000000 0.000000 0.000000 0.027046 0.000000 -0.002731
# 5 -0.014771 0.001399 -0.007335 0.000000 0.051162 0.000000
# 6 0.000000 0.000000 0.000000 -0.002731 0.000000 0.054656
#
#
# Mechanical properties :
#
#
# Convention : Reuss Voigt Hill
#
# Bulk Modulus (GPa) = 22.40672 43.53512 32.97092
# Shear Modulus (GPa) = 24.10954 30.98071 27.54512
#
# Velocity S-wave (km/s) = 3.40931 3.86472 3.64414
# Velocity P-wave (km/s) = 5.12838 6.39557 5.79671
#
# Compressibility (1/GPa) = 0.04462946
#
# Stress axis : x y z
#
# Youngs Moduli (GPa) = 35.12107 88.14368 81.16902
#
# Poissons Ratio (x) = 0.19876 -0.35396
# Poissons Ratio (y) = 0.07920 0.47565
# Poissons Ratio (z) = -0.15315 0.51652
#
# Static dielectric constant tensor:
#      x y z
#    x 1.844120 0.000000 -0.014870 
#    y 0.000000 1.835880 0.000000 
#    z -0.014870 0.000000 1.719440 
# 
# From -- ./inp_files/277250.got.cif
#   From: 2010.05.17/outbox.cif.g08.bks.cpg/sg15_139_cif.got.tgz:277250.got - 2010.06.03 18:47:42.
