data_PCOD9274300
_publ_section_title
;
Structure prediction by ZEFSAII (Michael W. Deem and Ramdas Pophale) SiO2 
 PCOD9274300
Probable space group: C 2/C
;
_chemical_formula_sum "Si O2"
_cell_formula_units_Z 44
_cell_length_a 16.158823
_cell_length_b 20.843307
_cell_length_c 11.925660
_cell_angle_alpha 90.000000
_cell_angle_beta 144.953314
_cell_angle_gamma 90.000000
_cell_volume 2306.508291
_symmetry_space_group_name_H-M "C 2/C"
_symmetry_group_IT_number 15
_symmetry_cell_setting 'monoclinic'
loop_
_space_group_symop_operation_xyz
x,y,z
-x,y,1/2-z
-x,-y,-z
x,-y,1/2+z
1/2+x,1/2+y,z
1/2-x,1/2+y,1/2-z
1/2-x,1/2-y,-z
1/2+x,1/2-y,1/2+z
loop_
_atom_site_type_symbol
_atom_site_label
_atom_site_fract_x
_atom_site_fract_y
_atom_site_fract_z
Si Si1 0.153175 0.417080 0.361420
Si Si2 0.905310 0.067128 0.306201
Si Si3 0.047940 0.189951 0.557527
Si Si4 0.500000 0.642287 0.750000
Si Si5 0.805523 0.721028 0.681936
Si Si6 0.659424 0.472615 0.532319
O O1 0.291976 0.403367 0.595006
O O2 0.136927 0.351188 0.274875
O O3 0.214936 0.481079 0.370961
O O4 0.000000 0.429507 0.250000
O O5 0.016945 0.118610 0.477181
O O6 0.811624 0.043602 0.306487
O O7 0.005435 0.010543 0.369980
O O8 0.043319 0.183058 0.687565
O O9 0.923349 0.233245 0.366815
O O10 0.186971 0.215123 0.647651
O O11 0.371995 0.593266 0.569323
O O12 0.750000 0.750000 0.500000
#
# Coordination Sequence:
#
# PCOD9274300 Si02
#       6
#     8   8   8   4   8   8
#     4  12  23  35  58  93 132 161 199 260 322 368
#     4  10  20  38  62  91 120 160 207 260 307 376
#     4  11  24  41  65  89 127 162 215 260 310 376
#     4  10  22  42  70  90 114 172 216 254 306 382
#     4  12  24  39  61  91 124 168 205 261 313 369
#     4  10  20  38  66  89 118 160 214 255 309 376
#
# _framework density 19.076453999999998
#
# number of rings (size 3 to 8) (size 9 to 14) (size 15 to 20)
#    0.000    1.091    5.455    1.636    0.000    1.455 
#    0.000    0.000    0.000    0.000    0.000    0.000 
#    0.000    0.000    0.000    0.000    0.000    0.000 
#
# Total GULP energy -122616.732958 kJ/mol
# GULP energy per Si atom -5573.487862 kJ/mol
# Density = 1.903304 g / cm^3
# Si number density = 19.076454 Si / 1000 Ang^3
#
#
#
# Elastic Constant Matrix: (Units=GPa)
#
#
# Indices 1 2 3 4 5 6 
#
# 1 116.2105 51.5588 27.1169 0.0000 -2.7800 0.0000
# 2 51.5588 73.3189 19.2694 0.0000 -2.2921 0.0000
# 3 27.1169 19.2694 25.4602 0.0000 -7.3107 0.0000
# 4 0.0000 0.0000 0.0000 16.5115 0.0000 4.1532
# 5 -2.7800 -2.2921 -7.3107 0.0000 38.9009 0.0000
# 6 0.0000 0.0000 0.0000 4.1532 0.0000 37.9804
#
#
#
# Elastic Compliance Matrix: (Units=1/GPa)
#
#
# Indices 1 2 3 4 5 6 
#
# 1 0.014158 -0.007411 -0.009836 0.000000 -0.001273 0.000000
# 2 -0.007411 0.020988 -0.008233 0.000000 -0.000840 0.000000
# 3 -0.009836 -0.008233 0.058816 0.000000 0.009866 0.000000
# 4 0.000000 0.000000 0.000000 0.062277 0.000000 -0.006810
# 5 -0.001273 -0.000840 0.009866 0.000000 0.027420 0.000000
# 6 0.000000 0.000000 0.000000 -0.006810 0.000000 0.027074
#
#
# Mechanical properties :
#
#
# Convention : Reuss Voigt Hill
#
# Bulk Modulus (GPa) = 23.25400 45.65330 34.45365
# Shear Modulus (GPa) = 18.11428 26.48154 22.29791
#
# Velocity S-wave (km/s) = 3.08484 3.72987 3.42258
# Velocity P-wave (km/s) = 4.99046 6.52173 5.80679
#
# Compressibility (1/GPa) = 0.04300336
#
# Stress axis : x y z
#
# Youngs Moduli (GPa) = 70.63372 47.64693 17.00206
#
# Poissons Ratio (x) = 0.35309 0.16723
# Poissons Ratio (y) = 0.52344 0.13998
# Poissons Ratio (z) = 0.69473 0.39227
#
# Static dielectric constant tensor:
#      x y z
#    x 1.770050 0.000000 0.016990 
#    y 0.000000 1.707260 0.000000 
#    z 0.016990 0.000000 1.766830 
# 
# From -- ./inp_files/99670.got.cif
#   From: 2010.05.17/outbox.cif.g08.bks.cpg/sg15_50_cif.got.tgz:99670.got - 2010.06.03 18:47:42.
