data_PCOD9274869
_publ_section_title
;
Structure prediction by ZEFSAII (Michael W. Deem and Ramdas Pophale) SiO2 
 PCOD9274869
Probable space group: C 2/C
;
_chemical_formula_sum "Si O2"
_cell_formula_units_Z 40
_cell_length_a 17.041030
_cell_length_b 8.657921
_cell_length_c 14.517750
_cell_angle_alpha 90.000000
_cell_angle_beta 133.216802
_cell_angle_gamma 90.000000
_cell_volume 1560.982305
_symmetry_space_group_name_H-M "C 2/C"
_symmetry_group_IT_number 15
_symmetry_cell_setting 'monoclinic'
loop_
_space_group_symop_operation_xyz
x,y,z
-x,y,1/2-z
-x,-y,-z
x,-y,1/2+z
1/2+x,1/2+y,z
1/2-x,1/2+y,1/2-z
1/2-x,1/2-y,-z
1/2+x,1/2-y,1/2+z
loop_
_atom_site_type_symbol
_atom_site_label
_atom_site_fract_x
_atom_site_fract_y
_atom_site_fract_z
Si Si1 0.625259 0.513147 0.119910
Si Si2 0.789245 0.478074 0.591975
Si Si3 0.936571 0.745554 0.783230
Si Si4 0.609418 0.996907 0.007372
Si Si5 0.096263 0.315151 0.668923
O O1 0.685168 0.537265 0.071362
O O2 0.624738 0.647958 0.194404
O O3 0.647536 0.344408 0.179723
O O4 0.500000 0.500000 0.000000
O O5 0.846529 0.638296 0.664917
O O6 0.794094 0.472005 0.486237
O O7 0.870637 0.352516 0.700774
O O8 0.000000 0.828108 0.750000
O O9 0.028162 0.633730 0.903948
O O10 0.531567 0.847196 0.944814
O O11 0.641774 0.052738 0.134921
#
# Coordination Sequence:
#
# PCOD9274869 Si02
#       5
#     8   8   8   8   8
#     4  12  23  38  57  92 125 148 192 256 296 335
#     4  10  22  40  64  85 116 161 204 232 291 361
#     4   9  19  39  61  85 117 156 197 240 292 352
#     4   9  19  40  65  86 112 160 201 235 288 363
#     4  10  20  38  66  86 118 155 198 243 295 345
#
# _framework density 25.624889
#
# number of rings (size 3 to 8) (size 9 to 14) (size 15 to 20)
#    0.000    2.000    2.000    3.000    0.000    2.400 
#    3.600    1.000    0.000    0.000    0.000    0.000 
#    0.000    0.000    0.000    0.000    0.000    0.000 
#
# Total GULP energy -111850.670598 kJ/mol
# GULP energy per Si atom -5592.533530 kJ/mol
# Density = 2.556657 g / cm^3
# Si number density = 25.624889 Si / 1000 Ang^3
#
#
#
# Elastic Constant Matrix: (Units=GPa)
#
#
# Indices 1 2 3 4 5 6 
#
# 1 219.5976 41.9519 18.5676 0.0000 -41.0531 0.0000
# 2 41.9519 88.1200 1.3720 0.0000 -9.9436 0.0000
# 3 18.5676 1.3720 46.3153 0.0000 -22.7308 0.0000
# 4 0.0000 0.0000 0.0000 16.8374 0.0000 -2.5163
# 5 -41.0531 -9.9436 -22.7308 0.0000 44.0765 0.0000
# 6 0.0000 0.0000 0.0000 -2.5163 0.0000 31.0277
#
#
#
# Elastic Compliance Matrix: (Units=1/GPa)
#
#
# Indices 1 2 3 4 5 6 
#
# 1 0.005921 -0.002245 0.000202 0.000000 0.005113 0.000000
# 2 -0.002245 0.012552 0.001194 0.000000 0.001356 0.000000
# 3 0.000202 0.001194 0.029053 0.000000 0.015440 0.000000
# 4 0.000000 0.000000 0.000000 0.060120 0.000000 0.004876
# 5 0.005113 0.001356 0.015440 0.000000 0.035719 0.000000
# 6 0.000000 0.000000 0.000000 0.004876 0.000000 0.032625
#
#
# Mechanical properties :
#
#
# Convention : Reuss Voigt Hill
#
# Bulk Modulus (GPa) = 21.82135 53.09065 37.45600
# Shear Modulus (GPa) = 25.91158 37.86441 31.88799
#
# Velocity S-wave (km/s) = 3.18337 3.84818 3.53145
# Velocity P-wave (km/s) = 4.69531 6.36459 5.59258
#
# Compressibility (1/GPa) = 0.04582668
#
# Stress axis : x y z
#
# Youngs Moduli (GPa) = 168.87626 79.67161 34.42024
#
# Poissons Ratio (x) = 0.17889 -0.00695
# Poissons Ratio (y) = 0.37918 -0.04109
# Poissons Ratio (z) = -0.03411 -0.09511
#
# Static dielectric constant tensor:
#      x y z
#    x 2.027820 0.000000 0.031990 
#    y 0.000000 2.242220 0.000000 
#    z 0.031990 0.000000 2.040050 
# 
# From -- ./inp_files/150765.got.cif
#   From: 2010.05.17/outbox.cif.g08.bks.cpg/sg15_76_cif.got.tgz:150765.got - 2010.06.03 18:47:42.
