data_PCOD9274122
_publ_section_title
;
Structure prediction by ZEFSAII (Michael W. Deem and Ramdas Pophale) SiO2 
 PCOD9274122
Probable space group: C 2/C
;
_chemical_formula_sum "Si O2"
_cell_formula_units_Z 52
_cell_length_a 14.406723
_cell_length_b 20.635769
_cell_length_c 8.979548
_cell_angle_alpha 90.000000
_cell_angle_beta 94.902796
_cell_angle_gamma 90.000000
_cell_volume 2659.796421
_symmetry_space_group_name_H-M "C 2/C"
_symmetry_group_IT_number 15
_symmetry_cell_setting 'monoclinic'
loop_
_space_group_symop_operation_xyz
x,y,z
-x,y,1/2-z
-x,-y,-z
x,-y,1/2+z
1/2+x,1/2+y,z
1/2-x,1/2+y,1/2-z
1/2-x,1/2-y,-z
1/2+x,1/2-y,1/2+z
loop_
_atom_site_type_symbol
_atom_site_label
_atom_site_fract_x
_atom_site_fract_y
_atom_site_fract_z
Si Si1 0.762161 0.343227 0.842135
Si Si2 0.602217 0.096509 0.720737
Si Si3 0.890558 0.131614 0.758152
Si Si4 0.882410 0.758228 0.498069
Si Si5 0.229674 0.044012 0.561479
Si Si6 0.000000 0.721900 0.750000
Si Si7 0.743705 0.894751 0.986958
O O1 0.854164 0.312219 0.930685
O O2 0.766927 0.354990 0.667098
O O3 0.686433 0.290352 0.888186
O O4 0.737091 0.412077 0.914390
O O5 0.500000 0.069356 0.750000
O O6 0.677694 0.061868 0.833068
O O7 0.587356 0.172951 0.751177
O O8 0.645703 0.096068 0.561804
O O9 0.876132 0.194821 0.857043
O O10 0.853987 0.071547 0.851148
O O11 0.822042 0.135339 0.606854
O O12 0.000000 0.124825 0.750000
O O13 0.981548 0.759075 0.595307
O O14 0.223146 0.968152 0.537555
#
# Coordination Sequence:
#
# PCOD9274122 Si02
#       7
#     8   8   8   8   8   4   8
#     4  10  20  38  61  92 118 168 208 247 318 367
#     4   9  20  39  61  88 125 155 202 251 309 362
#     4  10  24  41  59  93 121 161 212 260 303 368
#     4  10  22  38  63  84 130 163 201 256 315 371
#     4  10  20  43  62  88 127 165 204 258 307 365
#     4  10  20  40  62  86 122 166 192 256 304 372
#     4  11  23  38  65  90 123 163 212 255 304 372
#
# _framework density 19.550369
#
# number of rings (size 3 to 8) (size 9 to 14) (size 15 to 20)
#    0.462    1.538    1.538    1.846    4.308    3.077 
#    0.000    2.308    0.000    0.000    0.000    0.000 
#    0.000    0.000    0.000    0.000    0.000    0.000 
#
# Total GULP energy -144825.586561 kJ/mol
# GULP energy per Si atom -5570.214868 kJ/mol
# Density = 1.950587 g / cm^3
# Si number density = 19.550369 Si / 1000 Ang^3
#
#
#
# Elastic Constant Matrix: (Units=GPa)
#
#
# Indices 1 2 3 4 5 6 
#
# 1 83.4479 -1.8908 37.7472 0.0000 -8.0909 0.0000
# 2 -1.8908 69.1433 39.3406 0.0000 8.9513 0.0000
# 3 37.7472 39.3406 161.6753 0.0000 7.0282 0.0000
# 4 0.0000 0.0000 0.0000 14.7610 0.0000 5.5355
# 5 -8.0909 8.9513 7.0282 0.0000 31.2267 0.0000
# 6 0.0000 0.0000 0.0000 5.5355 0.0000 10.2944
#
#
#
# Elastic Compliance Matrix: (Units=1/GPa)
#
#
# Indices 1 2 3 4 5 6 
#
# 1 0.014238 0.002164 -0.004024 0.000000 0.003974 0.000000
# 2 0.002164 0.017608 -0.004640 0.000000 -0.003442 0.000000
# 3 -0.004024 -0.004640 0.008323 0.000000 -0.001586 0.000000
# 4 0.000000 0.000000 0.000000 0.084858 0.000000 -0.045630
# 5 0.003974 -0.003442 -0.001586 0.000000 0.034397 0.000000
# 6 0.000000 0.000000 0.000000 -0.045630 0.000000 0.121676
#
#
# Mechanical properties :
#
#
# Convention : Reuss Voigt Hill
#
# Bulk Modulus (GPa) = 36.80647 51.62895 44.21771
# Shear Modulus (GPa) = 16.49322 27.19437 21.84380
#
# Velocity S-wave (km/s) = 2.90768 3.73364 3.34624
# Velocity P-wave (km/s) = 5.49000 6.71210 6.13158
#
# Compressibility (1/GPa) = 0.02716913
#
# Stress axis : x y z
#
# Youngs Moduli (GPa) = 70.23480 56.79349 120.15386
#
# Poissons Ratio (x) = -0.12291 0.48345
# Poissons Ratio (y) = -0.15200 0.55753
# Poissons Ratio (z) = 0.28260 0.26353
#
# Static dielectric constant tensor:
#      x y z
#    x 1.725120 0.000000 0.000140 
#    y 0.000000 1.700570 0.000000 
#    z 0.000140 0.000000 1.724130 
# 
# From -- ./inp_files/40883.got.cif
#   From: 2010.05.17/outbox.cif.g08.bks.cpg/sg15_21_cif.got.tgz:40883.got - 2010.06.03 18:47:42.
