data_PCOD9274253
_publ_section_title
;
Structure prediction by ZEFSAII (Michael W. Deem and Ramdas Pophale) SiO2 
 PCOD9274253
Probable space group: C 2/C
;
_chemical_formula_sum "Si O2"
_cell_formula_units_Z 60
_cell_length_a 22.565029
_cell_length_b 14.675542
_cell_length_c 16.063638
_cell_angle_alpha 90.000000
_cell_angle_beta 145.237977
_cell_angle_gamma 90.000000
_cell_volume 3033.036811
_symmetry_space_group_name_H-M "C 2/C"
_symmetry_group_IT_number 15
_symmetry_cell_setting 'monoclinic'
loop_
_space_group_symop_operation_xyz
x,y,z
-x,y,1/2-z
-x,-y,-z
x,-y,1/2+z
1/2+x,1/2+y,z
1/2-x,1/2+y,1/2-z
1/2-x,1/2-y,-z
1/2+x,1/2-y,1/2+z
loop_
_atom_site_type_symbol
_atom_site_label
_atom_site_fract_x
_atom_site_fract_y
_atom_site_fract_z
Si Si1 0.970804 0.565196 0.891392
Si Si2 0.256626 0.938885 0.221070
Si Si3 0.727559 0.844345 0.519434
Si Si4 0.877895 0.969297 0.585497
Si Si5 0.235402 0.798134 0.344766
Si Si6 0.816196 0.356844 0.845042
Si Si7 0.000000 0.567334 0.750000
Si Si8 0.620899 0.677400 0.878673
O O1 0.853134 0.593054 0.773967
O O2 0.991070 0.514982 0.826799
O O3 0.000000 0.500000 0.000000
O O4 0.059222 0.642056 0.994873
O O5 0.255254 0.880855 0.304209
O O6 0.279885 0.043199 0.273451
O O7 0.155488 0.933394 0.044860
O O8 0.750000 0.750000 0.500000
O O9 0.805433 0.918046 0.569057
O O10 0.740373 0.835447 0.633529
O O11 0.606842 0.875083 0.370108
O O12 0.000000 0.958981 0.750000
O O13 0.849158 0.076647 0.554173
O O14 0.205708 0.715276 0.250880
O O15 0.326611 0.758814 0.508818
O O16 0.149160 0.820695 0.313935
O O17 0.500000 0.686375 0.750000
#
# Coordination Sequence:
#
# PCOD9274253 Si02
#       8
#     8   8   8   8   8   8   4   8
#     4   9  20  37  62  91 126 163 212 276 336 388
#     4  11  21  42  66  98 131 168 224 277 338 403
#     4  11  23  40  63  94 131 176 220 271 340 401
#     4  11  23  44  67  96 139 182 219 275 340 416
#     4  11  23  42  70  96 128 178 222 281 331 396
#     4  10  22  40  61  97 129 164 223 278 328 397
#     4  10  20  38  62  88 130 168 214 280 328 400
#     4  10  24  46  68  97 135 178 228 273 337 408
#
# _framework density 19.782154999999999
#
# number of rings (size 3 to 8) (size 9 to 14) (size 15 to 20)
#    0.000    1.600    2.667    1.600    2.800    0.000 
#    2.400    2.000    7.333    0.000    0.000    0.000 
#    0.000    0.000    0.000    0.000    0.000    0.000 
#
# Total GULP energy -167298.539811 kJ/mol
# GULP energy per Si atom -5576.617994 kJ/mol
# Density = 1.973713 g / cm^3
# Si number density = 19.782155 Si / 1000 Ang^3
#
#
#
# Elastic Constant Matrix: (Units=GPa)
#
#
# Indices 1 2 3 4 5 6 
#
# 1 164.8459 46.8159 64.4057 0.0000 -17.6246 0.0000
# 2 46.8159 72.3942 28.9538 0.0000 3.0966 0.0000
# 3 64.4057 28.9538 81.9242 0.0000 -9.8801 0.0000
# 4 0.0000 0.0000 0.0000 14.1877 0.0000 -14.5347
# 5 -17.6246 3.0966 -9.8801 0.0000 40.6478 0.0000
# 6 0.0000 0.0000 0.0000 -14.5347 0.0000 33.6888
#
#
#
# Elastic Compliance Matrix: (Units=1/GPa)
#
#
# Indices 1 2 3 4 5 6 
#
# 1 0.009908 -0.004170 -0.005933 0.000000 0.003171 0.000000
# 2 -0.004170 0.018132 -0.003621 0.000000 -0.004069 0.000000
# 3 -0.005933 -0.003621 0.018413 0.000000 0.002179 0.000000
# 4 0.000000 0.000000 0.000000 0.126312 0.000000 0.054496
# 5 0.003171 -0.004069 0.002179 0.000000 0.026816 0.000000
# 6 0.000000 0.000000 0.000000 0.054496 0.000000 0.053195
#
#
# Mechanical properties :
#
#
# Convention : Reuss Voigt Hill
#
# Bulk Modulus (GPa) = 52.61590 66.61281 59.61435
# Shear Modulus (GPa) = 17.44846 29.63745 23.54296
#
# Velocity S-wave (km/s) = 2.97312 3.87485 3.45354
# Velocity P-wave (km/s) = 6.20011 7.33250 6.78995
#
# Compressibility (1/GPa) = 0.01900566
#
# Stress axis : x y z
#
# Youngs Moduli (GPa) = 100.93350 55.15096 54.30958
#
# Poissons Ratio (x) = 0.22997 0.32220
# Poissons Ratio (y) = 0.42088 0.19665
# Poissons Ratio (z) = 0.59881 0.19969
#
# Static dielectric constant tensor:
#      x y z
#    x 1.682320 0.000000 -0.013950 
#    y 0.000000 1.720710 0.000000 
#    z -0.013950 0.000000 1.750930 
# 
# From -- ./inp_files/168658.got.cif
#   From: 2010.05.17/outbox.cif.g08.bks.cpg/sg15_85_cif.got.tgz:168658.got - 2010.06.03 18:47:42.
