data_PCOD9274565
_publ_section_title
;
Structure prediction by ZEFSAII (Michael W. Deem and Ramdas Pophale) SiO2 
 PCOD9274565
Probable space group: C 2/C
;
_chemical_formula_sum "Si O2"
_cell_formula_units_Z 60
_cell_length_a 25.376519
_cell_length_b 8.314549
_cell_length_c 21.293553
_cell_angle_alpha 90.000000
_cell_angle_beta 142.626456
_cell_angle_gamma 90.000000
_cell_volume 2727.181101
_symmetry_space_group_name_H-M "C 2/C"
_symmetry_group_IT_number 15
_symmetry_cell_setting 'monoclinic'
loop_
_space_group_symop_operation_xyz
x,y,z
-x,y,1/2-z
-x,-y,-z
x,-y,1/2+z
1/2+x,1/2+y,z
1/2-x,1/2+y,1/2-z
1/2-x,1/2-y,-z
1/2+x,1/2-y,1/2+z
loop_
_atom_site_type_symbol
_atom_site_label
_atom_site_fract_x
_atom_site_fract_y
_atom_site_fract_z
Si Si1 0.967400 0.568887 0.035505
Si Si2 0.734486 0.428414 0.687390
Si Si3 0.000000 0.905246 0.750000
Si Si4 0.532273 0.434388 0.464661
Si Si5 0.248182 0.853618 0.091048
Si Si6 0.181424 0.964352 0.895437
Si Si7 0.758781 0.417042 0.340632
Si Si8 0.442922 0.246814 0.579940
O O1 0.862959 0.581561 0.935364
O O2 0.999383 0.751989 0.078304
O O3 0.983829 0.419951 0.097729
O O4 0.000000 0.500000 0.000000
O O5 0.636690 0.424946 0.567557
O O6 0.780536 0.553979 0.683690
O O7 0.729708 0.465110 0.756758
O O8 0.774903 0.255215 0.714738
O O9 0.919318 0.012613 0.696127
O O10 0.950827 0.779630 0.659611
O O11 0.500000 0.500000 0.500000
O O12 0.512651 0.588234 0.402783
O O13 0.311307 0.718427 0.123859
O O14 0.222245 0.962638 0.004985
O O15 0.160200 0.760561 0.030784
O O16 0.229186 0.057836 0.884290
#
# Coordination Sequence:
#
# PCOD9274565 Si02
#       8
#     8   8   4   8   8   8   8   8
#     4  11  22  37  61  91 122 161 205 248 308 372
#     4  10  23  37  59  92 121 154 205 252 308 370
#     4  10  24  38  64  90 118 166 210 250 308 370
#     4  10  21  36  58  88 121 162 197 248 310 361
#     4   9  19  39  63  83 116 165 198 245 311 367
#     4  10  20  38  64  85 118 160 205 248 304 372
#     4  11  23  37  60  92 121 159 203 256 306 369
#     4  10  20  40  60  86 126 160 202 253 303 363
#
# _framework density 22.00074
#
# number of rings (size 3 to 8) (size 9 to 14) (size 15 to 20)
#    0.000    1.867    2.667    0.800    3.733    1.600 
#    0.000    0.667    0.000    0.000    0.000    0.000 
#    0.000    0.000    0.000    0.000    0.000    0.000 
#
# Total GULP energy -167077.788459 kJ/mol
# GULP energy per Si atom -5569.259615 kJ/mol
# Density = 2.195067 g / cm^3
# Si number density = 22.000740 Si / 1000 Ang^3
#
#
#
# Elastic Constant Matrix: (Units=GPa)
#
#
# Indices 1 2 3 4 5 6 
#
# 1 110.7880 24.8196 -8.8994 0.0000 2.7664 0.0000
# 2 24.8196 130.2774 -1.9456 0.0000 -7.3880 0.0000
# 3 -8.8994 -1.9456 11.9076 0.0000 1.5737 0.0000
# 4 0.0000 0.0000 0.0000 7.7631 0.0000 -6.9714
# 5 2.7664 -7.3880 1.5737 0.0000 25.8659 0.0000
# 6 0.0000 0.0000 0.0000 -6.9714 0.0000 27.2743
#
#
#
# Elastic Compliance Matrix: (Units=1/GPa)
#
#
# Indices 1 2 3 4 5 6 
#
# 1 0.010116 -0.001933 0.007521 0.000000 -0.002092 0.000000
# 2 -0.001933 0.008183 -0.000448 0.000000 0.002571 0.000000
# 3 0.007521 -0.000448 0.090377 0.000000 -0.006431 0.000000
# 4 0.000000 0.000000 0.000000 0.167191 0.000000 0.042735
# 5 -0.002092 0.002571 -0.006431 0.000000 0.040010 0.000000
# 6 0.000000 0.000000 0.000000 0.042735 0.000000 0.047588
#
#
# Mechanical properties :
#
#
# Convention : Reuss Voigt Hill
#
# Bulk Modulus (GPa) = 8.40650 31.21357 19.81003
# Shear Modulus (GPa) = 12.72787 28.11388 20.42088
#
# Velocity S-wave (km/s) = 2.40785 3.57860 3.04993
# Velocity P-wave (km/s) = 3.39995 5.59405 4.62888
#
# Compressibility (1/GPa) = 0.11895560
#
# Stress axis : x y z
#
# Youngs Moduli (GPa) = 98.85561 122.19828 11.06471
#
# Poissons Ratio (x) = 0.23627 -0.08321
# Poissons Ratio (y) = 0.19114 0.00495
# Poissons Ratio (z) = -0.74347 0.05472
#
# Static dielectric constant tensor:
#      x y z
#    x 1.842560 0.000000 0.251700 
#    y 0.000000 1.791290 0.000000 
#    z 0.251700 0.000000 1.138480 
# 
# From -- ./inp_files/257219.got.cif
#   From: 2010.05.17/outbox.cif.g08.bks.cpg/sg15_129_cif.got.tgz:257219.got - 2010.06.03 18:47:42.
