data_PCOD9274095
_publ_section_title
;
Structure prediction by ZEFSAII (Michael W. Deem and Ramdas Pophale) SiO2 
 PCOD9274095
Probable space group: C 2/C
;
_chemical_formula_sum "Si O2"
_cell_formula_units_Z 48
_cell_length_a 20.026319
_cell_length_b 9.610508
_cell_length_c 17.343818
_cell_angle_alpha 90.000000
_cell_angle_beta 135.970755
_cell_angle_gamma 90.000000
_cell_volume 2320.026189
_symmetry_space_group_name_H-M "C 2/C"
_symmetry_group_IT_number 15
_symmetry_cell_setting 'monoclinic'
loop_
_space_group_symop_operation_xyz
x,y,z
-x,y,1/2-z
-x,-y,-z
x,-y,1/2+z
1/2+x,1/2+y,z
1/2-x,1/2+y,1/2-z
1/2-x,1/2-y,-z
1/2+x,1/2-y,1/2+z
loop_
_atom_site_type_symbol
_atom_site_label
_atom_site_fract_x
_atom_site_fract_y
_atom_site_fract_z
Si Si1 0.262853 0.399194 0.366376
Si Si2 0.702559 0.408233 0.280634
Si Si3 0.865814 0.606477 0.446414
Si Si4 0.203284 0.811831 0.539937
Si Si5 0.986527 0.790532 0.324636
Si Si6 0.065732 0.499323 0.167478
O O1 0.288133 0.445535 0.300525
O O2 0.325893 0.260909 0.427295
O O3 0.284972 0.522630 0.443880
O O4 0.146594 0.392587 0.264482
O O5 0.772006 0.512209 0.384229
O O6 0.747231 0.260495 0.344969
O O7 0.590321 0.393416 0.202444
O O8 0.900699 0.565889 0.387706
O O9 0.961325 0.569900 0.573090
O O10 0.250000 0.750000 0.500000
O O11 0.090027 0.780531 0.449596
O O12 0.943689 0.634793 0.286960
O O13 0.000000 0.841692 0.250000
#
# Coordination Sequence:
#
# PCOD9274095 Si02
#       6
#     8   8   8   8   8   8
#     4  11  22  39  64  98 131 170 226 284 334 401
#     4  11  21  39  63  97 127 173 225 281 329 406
#     4  10  21  37  62  91 133 166 218 285 336 390
#     4  12  24  42  69  96 132 181 234 274 341 421
#     4  12  22  39  68  92 129 179 232 269 334 420
#     4  10  20  38  61  89 129 177 218 267 349 397
#
# _framework density 20.689420999999999
#
# number of rings (size 3 to 8) (size 9 to 14) (size 15 to 20)
#    0.000    1.000    6.667    1.000    0.000    2.000 
#    0.000    0.833    0.000    0.000    0.000    0.000 
#    0.000    0.000    0.000    0.000    0.000    0.000 
#
# Total GULP energy -133821.983288 kJ/mol
# GULP energy per Si atom -5575.915970 kJ/mol
# Density = 2.064233 g / cm^3
# Si number density = 20.689421 Si / 1000 Ang^3
#
#
#
# Elastic Constant Matrix: (Units=GPa)
#
#
# Indices 1 2 3 4 5 6 
#
# 1 79.7486 29.0000 44.3802 0.0000 27.8645 0.0000
# 2 29.0000 119.8286 34.8088 0.0000 18.2977 0.0000
# 3 44.3802 34.8088 85.0753 0.0000 34.2015 0.0000
# 4 0.0000 0.0000 0.0000 36.6779 0.0000 7.9436
# 5 27.8645 18.2977 34.2015 0.0000 32.6081 0.0000
# 6 0.0000 0.0000 0.0000 7.9436 0.0000 37.4939
#
#
#
# Elastic Compliance Matrix: (Units=1/GPa)
#
#
# Indices 1 2 3 4 5 6 
#
# 1 0.019774 -0.001617 -0.005577 0.000000 -0.010141 0.000000
# 2 -0.001617 0.009692 -0.002578 0.000000 -0.001353 0.000000
# 3 -0.005577 -0.002578 0.022860 0.000000 -0.017765 0.000000
# 4 0.000000 0.000000 0.000000 0.028576 0.000000 -0.006054
# 5 -0.010141 -0.001353 -0.017765 0.000000 0.058724 0.000000
# 6 0.000000 0.000000 0.000000 -0.006054 0.000000 0.027954
#
#
# Mechanical properties :
#
#
# Convention : Reuss Voigt Hill
#
# Bulk Modulus (GPa) = 30.50486 55.67008 43.08747
# Shear Modulus (GPa) = 25.24587 33.12020 29.18304
#
# Velocity S-wave (km/s) = 3.49697 4.00538 3.75978
# Velocity P-wave (km/s) = 5.57506 6.95389 6.30230
#
# Compressibility (1/GPa) = 0.03278166
#
# Stress axis : x y z
#
# Youngs Moduli (GPa) = 50.57076 103.17689 43.74416
#
# Poissons Ratio (x) = 0.16685 0.24397
# Poissons Ratio (y) = 0.08178 0.11278
# Poissons Ratio (z) = 0.28204 0.26602
#
# Static dielectric constant tensor:
#      x y z
#    x 1.768870 0.000000 0.023090 
#    y 0.000000 1.750700 0.000000 
#    z 0.023090 0.000000 1.807660 
# 
# From -- ./inp_files/166413.got.cif
#   From: 2010.05.17/outbox.cif.g08.bks.cpg/sg15_84_cif.got.tgz:166413.got - 2010.06.03 18:47:42.
