data_PCOD9274982
_publ_section_title
;
Structure prediction by ZEFSAII (Michael W. Deem and Ramdas Pophale) SiO2 
 PCOD9274982
Probable space group: C 2/C
;
_chemical_formula_sum "Si O2"
_cell_formula_units_Z 56
_cell_length_a 18.879450
_cell_length_b 16.609655
_cell_length_c 17.088975
_cell_angle_alpha 90.000000
_cell_angle_beta 31.529735
_cell_angle_gamma 90.000000
_cell_volume 2802.325966
_symmetry_space_group_name_H-M "C 2/C"
_symmetry_group_IT_number 15
_symmetry_cell_setting 'monoclinic'
loop_
_space_group_symop_operation_xyz
x,y,z
-x,y,1/2-z
-x,-y,-z
x,-y,1/2+z
1/2+x,1/2+y,z
1/2-x,1/2+y,1/2-z
1/2-x,1/2-y,-z
1/2+x,1/2-y,1/2+z
loop_
_atom_site_type_symbol
_atom_site_label
_atom_site_fract_x
_atom_site_fract_y
_atom_site_fract_z
Si Si1 0.118527 0.720347 0.079612
Si Si2 0.214201 0.784135 0.376360
Si Si3 0.267417 0.306325 0.670437
Si Si4 0.442470 0.664691 0.216988
Si Si5 0.125352 0.958989 0.839238
Si Si6 0.991121 0.594255 0.111250
Si Si7 0.364623 0.064985 0.679324
O O1 0.000000 0.742903 0.250000
O O2 0.100635 0.627127 0.069734
O O3 0.250000 0.750000 0.000000
O O4 0.129934 0.765962 0.986259
O O5 0.214078 0.755074 0.286265
O O6 0.308171 0.720070 0.334203
O O7 0.289720 0.870083 0.302832
O O8 0.064064 0.795671 0.551246
O O9 0.341097 0.377696 0.646008
O O10 0.138686 0.349041 0.751471
O O11 0.500000 0.660889 0.250000
O O12 0.409343 0.575861 0.213497
O O13 0.254277 0.016679 0.730433
O O14 0.000000 0.000000 0.000000
O O15 0.945198 0.501435 0.154035
O O16 0.038163 0.605813 0.976626
#
# Coordination Sequence:
#
# PCOD9274982 Si02
#       7
#     8   8   8   8   8   8   8
#     4  12  24  39  62  93 134 168 207 265 325 380
#     4  11  21  39  71  92 121 171 213 264 315 382
#     4  10  22  38  65  93 123 165 226 257 307 387
#     4  11  24  41  64  98 133 158 213 267 327 377
#     4  10  21  39  64  90 124 168 213 263 311 384
#     4  10  21  39  59  93 126 159 216 267 315 383
#     4  10  20  38  67  90 118 166 222 266 311 368
#
# _framework density 19.983398999999999
#
# number of rings (size 3 to 8) (size 9 to 14) (size 15 to 20)
#    0.000    1.429    4.286    1.286    2.000    2.286 
#    0.000    4.286    0.000    0.000    0.000    0.000 
#    0.000    0.000    0.000    0.000    0.000    0.000 
#
# Total GULP energy -156227.400518 kJ/mol
# GULP energy per Si atom -5579.550019 kJ/mol
# Density = 1.993792 g / cm^3
# Si number density = 19.983399 Si / 1000 Ang^3
#
#
#
# Elastic Constant Matrix: (Units=GPa)
#
#
# Indices 1 2 3 4 5 6 
#
# 1 78.7619 24.7287 6.2292 0.0000 -1.0084 0.0000
# 2 24.7287 70.5489 16.8644 0.0001 -3.7276 -0.0001
# 3 6.2292 16.8644 90.7462 0.0000 0.2654 0.0000
# 4 0.0000 0.0001 0.0000 29.2278 0.0000 0.4527
# 5 -1.0084 -3.7276 0.2654 0.0000 31.2046 -0.0001
# 6 0.0000 -0.0001 0.0000 0.4527 -0.0001 23.2287
#
#
#
# Elastic Compliance Matrix: (Units=1/GPa)
#
#
# Indices 1 2 3 4 5 6 
#
# 1 0.014267 -0.004996 -0.000050 0.000000 -0.000135 0.000000
# 2 -0.004996 0.016684 -0.002763 0.000000 0.001855 0.000000
# 3 -0.000050 -0.002763 0.011538 0.000000 -0.000430 0.000000
# 4 0.000000 0.000000 0.000000 0.034224 0.000000 -0.000667
# 5 -0.000135 0.001855 -0.000430 0.000000 0.032267 0.000000
# 6 0.000000 0.000000 0.000000 -0.000667 0.000000 0.043063
#
#
# Mechanical properties :
#
#
# Convention : Reuss Voigt Hill
#
# Bulk Modulus (GPa) = 37.21580 37.30017 37.25798
# Shear Modulus (GPa) = 28.30926 29.54788 28.92857
#
# Velocity S-wave (km/s) = 3.76791 3.84946 3.80890
# Velocity P-wave (km/s) = 6.13134 6.20192 6.16673
#
# Compressibility (1/GPa) = 0.02687031
#
# Stress axis : x y z
#
# Youngs Moduli (GPa) = 70.09015 59.93661 86.67040
#
# Poissons Ratio (x) = 0.29945 0.00438
# Poissons Ratio (y) = 0.35017 0.23948
# Poissons Ratio (z) = 0.00354 0.16561
#
# Static dielectric constant tensor:
#      x y z
#    x 1.863660 0.000000 -0.091310 
#    y 0.000000 1.729090 0.000000 
#    z -0.091310 0.000000 1.779990 
# 
# From -- ./inp_files/216033.got.cif
#   From: 2010.05.17/outbox.cif.g08.bks.cpg/sg15_109_cif.got.tgz:216033.got - 2010.06.03 18:47:42.
