data_PCOD9274094
_publ_section_title
;
Structure prediction by ZEFSAII (Michael W. Deem and Ramdas Pophale) SiO2 
 PCOD9274094
Probable space group: C 2/C
;
_chemical_formula_sum "Si O2"
_cell_formula_units_Z 40
_cell_length_a 19.306486
_cell_length_b 8.948418
_cell_length_c 9.408280
_cell_angle_alpha 90.000000
_cell_angle_beta 90.008480
_cell_angle_gamma 90.000000
_cell_volume 1625.398020
_symmetry_space_group_name_H-M "C 2/C"
_symmetry_group_IT_number 15
_symmetry_cell_setting 'monoclinic'
loop_
_space_group_symop_operation_xyz
x,y,z
-x,y,1/2-z
-x,-y,-z
x,-y,1/2+z
1/2+x,1/2+y,z
1/2-x,1/2+y,1/2-z
1/2-x,1/2-y,-z
1/2+x,1/2-y,1/2+z
loop_
_atom_site_type_symbol
_atom_site_label
_atom_site_fract_x
_atom_site_fract_y
_atom_site_fract_z
Si Si1 0.525749 0.336076 0.968722
Si Si2 0.325526 0.668706 0.170035
Si Si3 0.929137 0.408418 0.481498
Si Si4 0.225635 0.085569 0.632981
Si Si5 0.887402 0.329475 0.798600
O O1 0.459702 0.242309 0.913981
O O2 0.552701 0.262129 0.116975
O O3 0.500000 0.500000 0.000000
O O4 0.593395 0.337114 0.868954
O O5 0.299929 0.840874 0.167612
O O6 0.299076 0.571145 0.302453
O O7 0.287834 0.589996 0.034970
O O8 0.900922 0.369033 0.636031
O O9 0.881663 0.516891 0.388416
O O10 0.000000 0.500000 0.500000
O O11 0.175934 0.216098 0.693608
#
# Coordination Sequence:
#
# PCOD9274094 Si02
#       5
#     8   8   8   8   8
#     4  10  20  38  61  91 127 161 204 254 312 372
#     4  10  23  42  66  93 125 167 209 263 314 374
#     4  10  20  38  61  89 125 163 204 252 309 373
#     4  10  23  45  65  91 126 163 216 260 315 377
#     4  10  22  41  63  90 124 166 209 257 311 374
#
# _framework density 24.609355999999998
#
# number of rings (size 3 to 8) (size 9 to 14) (size 15 to 20)
#    0.000    2.000    0.000    3.600    0.000    8.800 
#    0.000   42.000    0.000    0.000    0.000    0.000 
#    0.000    0.000    0.000    0.000    0.000    0.000 
#
# Total GULP energy -111868.579752 kJ/mol
# GULP energy per Si atom -5593.428988 kJ/mol
# Density = 2.455334 g / cm^3
# Si number density = 24.609356 Si / 1000 Ang^3
#
#
#
# Elastic Constant Matrix: (Units=GPa)
#
#
# Indices 1 2 3 4 5 6 
#
# 1 65.8553 29.5811 22.9486 0.0000 -8.4729 0.0000
# 2 29.5811 102.0022 17.7276 0.0000 14.8572 0.0000
# 3 22.9486 17.7276 99.5766 0.0000 7.7399 0.0000
# 4 0.0000 0.0000 0.0000 45.6634 0.0000 -10.9317
# 5 -8.4729 14.8572 7.7399 0.0000 23.6508 0.0000
# 6 0.0000 0.0000 0.0000 -10.9317 0.0000 48.5236
#
#
#
# Elastic Compliance Matrix: (Units=1/GPa)
#
#
# Indices 1 2 3 4 5 6 
#
# 1 0.022174 -0.007677 -0.004859 0.000000 0.014357 0.000000
# 2 -0.007677 0.013651 0.000225 0.000000 -0.011400 0.000000
# 3 -0.004859 0.000225 0.011563 0.000000 -0.005666 0.000000
# 4 0.000000 0.000000 0.000000 0.023148 0.000000 0.005215
# 5 0.014357 -0.011400 -0.005666 0.000000 0.056441 0.000000
# 6 0.000000 0.000000 0.000000 0.005215 0.000000 0.021783
#
#
# Mechanical properties :
#
#
# Convention : Reuss Voigt Hill
#
# Bulk Modulus (GPa) = 43.92704 45.32762 44.62733
# Shear Modulus (GPa) = 27.62879 36.71268 32.17074
#
# Velocity S-wave (km/s) = 3.35430 3.86660 3.61952
# Velocity P-wave (km/s) = 5.73500 6.19620 5.97006
#
# Compressibility (1/GPa) = 0.02276502
#
# Stress axis : x y z
#
# Youngs Moduli (GPa) = 45.09860 73.25256 86.48438
#
# Poissons Ratio (x) = 0.56236 0.42026
# Poissons Ratio (y) = 0.34622 -0.01946
# Poissons Ratio (z) = 0.21915 -0.01648
#
# Static dielectric constant tensor:
#      x y z
#    x 2.039570 0.000000 0.029190 
#    y 0.000000 1.922720 0.000000 
#    z 0.029190 0.000000 1.965220 
# 
# From -- ./inp_files/60025.got.cif
#   From: 2010.05.17/outbox.cif.g08.bks.cpg/sg15_31_cif.got.tgz:60025.got - 2010.06.03 18:47:42.
