data_PCOD9274421
_publ_section_title
;
Structure prediction by ZEFSAII (Michael W. Deem and Ramdas Pophale) SiO2 
 PCOD9274421
Probable space group: C 2/C
;
_chemical_formula_sum "Si O2"
_cell_formula_units_Z 56
_cell_length_a 8.845455
_cell_length_b 10.700609
_cell_length_c 24.184519
_cell_angle_alpha 90.000000
_cell_angle_beta 63.414758
_cell_angle_gamma 90.000000
_cell_volume 2047.078819
_symmetry_space_group_name_H-M "C 2/C"
_symmetry_group_IT_number 15
_symmetry_cell_setting 'monoclinic'
loop_
_space_group_symop_operation_xyz
x,y,z
-x,y,1/2-z
-x,-y,-z
x,-y,1/2+z
1/2+x,1/2+y,z
1/2-x,1/2+y,1/2-z
1/2-x,1/2-y,-z
1/2+x,1/2-y,1/2+z
loop_
_atom_site_type_symbol
_atom_site_label
_atom_site_fract_x
_atom_site_fract_y
_atom_site_fract_z
Si Si1 0.182301 0.677729 0.192173
Si Si2 0.918188 0.364111 0.000125
Si Si3 0.744957 0.438186 0.930892
Si Si4 0.105722 0.706235 0.566630
Si Si5 0.825903 0.953145 0.312215
Si Si6 0.295064 0.795730 0.632742
Si Si7 0.573224 0.535068 0.862097
O O1 0.161280 0.645595 0.130460
O O2 0.312268 0.568972 0.187609
O O3 0.250579 0.818627 0.190055
O O4 0.000000 0.669462 0.250000
O O5 0.049359 0.307201 0.934784
O O6 0.749310 0.380261 0.991297
O O7 0.940302 0.292537 0.054653
O O8 0.000000 0.500000 0.000000
O O9 0.851599 0.565901 0.921495
O O10 0.579456 0.484783 0.924465
O O11 0.250000 0.750000 0.500000
O O12 0.132378 0.784475 0.618080
O O13 0.722689 0.080642 0.327955
O O14 0.000000 0.962601 0.250000
O O15 0.108000 0.945462 0.134992
O O16 0.325721 0.665575 0.658358
#
# Coordination Sequence:
#
# PCOD9274421 Si02
#       7
#     8   8   8   8   8   8   8
#     4   9  20  39  59  84 123 165 206 250 312 366
#     4   9  16  31  60  93 119 155 211 250 303 374
#     4   8  16  32  56  83 110 163 193 244 306 352
#     4   8  15  30  55  85 116 150 198 248 302 358
#     4  11  24  40  59  91 125 161 206 259 309 367
#     4  10  20  38  63  88 121 165 202 259 313 362
#     4   9  21  40  58  85 122 157 203 254 306 364
#
# _framework density 27.356055000000001
#
# number of rings (size 3 to 8) (size 9 to 14) (size 15 to 20)
#    0.857    2.000    0.000    0.857    0.000    4.000 
#    7.714    0.000    0.000   56.571    0.000    0.000 
#    0.000    0.000    0.000    0.000    0.000    0.000 
#
# Total GULP energy -156610.172727 kJ/mol
# GULP energy per Si atom -5593.220455 kJ/mol
# Density = 2.729379 g / cm^3
# Si number density = 27.356055 Si / 1000 Ang^3
#
#
#
# Elastic Constant Matrix: (Units=GPa)
#
#
# Indices 1 2 3 4 5 6 
#
# 1 105.2689 31.1847 30.4132 0.0000 6.9412 0.0000
# 2 31.1847 236.1700 35.8938 0.0000 -29.3370 0.0000
# 3 30.4132 35.8938 87.9434 0.0000 4.1281 0.0000
# 4 0.0000 0.0000 0.0000 16.8492 0.0000 -16.5263
# 5 6.9412 -29.3370 4.1281 0.0000 55.8463 0.0000
# 6 0.0000 0.0000 0.0000 -16.5263 0.0000 36.4944
#
#
#
# Elastic Compliance Matrix: (Units=1/GPa)
#
#
# Indices 1 2 3 4 5 6 
#
# 1 0.010885 -0.001164 -0.003208 0.000000 -0.001727 0.000000
# 2 -0.001164 0.005021 -0.001783 0.000000 0.002914 0.000000
# 3 -0.003208 -0.001783 0.013280 0.000000 -0.001520 0.000000
# 4 0.000000 0.000000 0.000000 0.106776 0.000000 0.048353
# 5 -0.001727 0.002914 -0.001520 0.000000 0.019764 0.000000
# 6 0.000000 0.000000 0.000000 0.048353 0.000000 0.049298
#
#
# Mechanical properties :
#
#
# Convention : Reuss Voigt Hill
#
# Bulk Modulus (GPa) = 59.26237 69.37395 64.31816
# Shear Modulus (GPa) = 22.42550 43.96403 33.19476
#
# Velocity S-wave (km/s) = 2.86626 4.01322 3.48722
# Velocity P-wave (km/s) = 5.71527 6.84757 6.30688
#
# Compressibility (1/GPa) = 0.01687411
#
# Stress axis : x y z
#
# Youngs Moduli (GPa) = 91.86832 199.16222 75.30331
#
# Poissons Ratio (x) = 0.23189 0.24158
# Poissons Ratio (y) = 0.10696 0.13430
# Poissons Ratio (z) = 0.29472 0.35520
#
# Static dielectric constant tensor:
#      x y z
#    x 2.132210 0.000000 0.084110 
#    y 0.000000 2.183660 0.000000 
#    z 0.084110 0.000000 2.225220 
# 
# From -- ./inp_files/268475.got.cif
#   From: 2010.05.17/outbox.cif.g08.bks.cpg/sg15_135_cif.got.tgz:268475.got - 2010.06.03 18:47:42.
