data_PCOD9274204
_publ_section_title
;
Structure prediction by ZEFSAII (Michael W. Deem and Ramdas Pophale) SiO2 
 PCOD9274204
Probable space group: C 2/C
;
_chemical_formula_sum "Si O2"
_cell_formula_units_Z 56
_cell_length_a 19.854442
_cell_length_b 8.520280
_cell_length_c 16.317894
_cell_angle_alpha 90.000000
_cell_angle_beta 107.215592
_cell_angle_gamma 90.000000
_cell_volume 2636.750271
_symmetry_space_group_name_H-M "C 2/C"
_symmetry_group_IT_number 15
_symmetry_cell_setting 'monoclinic'
loop_
_space_group_symop_operation_xyz
x,y,z
-x,y,1/2-z
-x,-y,-z
x,-y,1/2+z
1/2+x,1/2+y,z
1/2-x,1/2+y,1/2-z
1/2-x,1/2-y,-z
1/2+x,1/2-y,1/2+z
loop_
_atom_site_type_symbol
_atom_site_label
_atom_site_fract_x
_atom_site_fract_y
_atom_site_fract_z
Si Si1 0.639703 0.121510 0.469927
Si Si2 0.511055 0.571217 0.095163
Si Si3 0.270185 0.441307 0.449214
Si Si4 0.046636 0.614966 0.847340
Si Si5 0.815254 0.216751 0.176588
Si Si6 0.624482 0.549886 0.886987
Si Si7 0.336596 0.682443 0.360906
O O1 0.707733 0.012244 0.482049
O O2 0.645675 0.273414 0.413091
O O3 0.639524 0.193496 0.560944
O O4 0.571686 0.026636 0.414246
O O5 0.488090 0.749825 0.108980
O O6 0.459569 0.472122 0.136654
O O7 0.594553 0.579511 0.137390
O O8 0.500000 0.500000 0.000000
O O9 0.248788 0.276949 0.402094
O O10 0.342922 0.448530 0.525113
O O11 0.280265 0.566902 0.380686
O O12 0.117237 0.689762 0.833667
O O13 0.000000 0.574752 0.750000
O O14 0.806873 0.257032 0.268047
O O15 0.836173 0.034789 0.172970
#
# Coordination Sequence:
#
# PCOD9274204 Si02
#       7
#     8   8   8   8   8   8   8
#     4  10  22  39  61  87 121 165 201 253 312 361
#     4  11  20  38  63  90 118 158 201 248 315 363
#     4  10  21  38  61  85 119 161 205 247 315 372
#     4  10  21  41  62  88 126 161 203 253 309 372
#     4  10  22  38  62  87 120 162 202 256 316 362
#     4  10  20  38  62  86 119 157 205 256 301 374
#     4  11  21  38  62  87 127 153 206 259 306 371
#
# _framework density 21.238264000000001
#
# number of rings (size 3 to 8) (size 9 to 14) (size 15 to 20)
#    0.000    1.714    4.286    2.143    0.000    2.857 
#    2.571    0.000    6.286    0.000    0.000    0.000 
#    0.000    0.000    0.000    0.000    0.000    0.000 
#
# Total GULP energy -156185.949214 kJ/mol
# GULP energy per Si atom -5578.069615 kJ/mol
# Density = 2.118992 g / cm^3
# Si number density = 21.238264 Si / 1000 Ang^3
#
#
#
# Elastic Constant Matrix: (Units=GPa)
#
#
# Indices 1 2 3 4 5 6 
#
# 1 62.8416 13.2682 21.2722 0.0000 0.9222 0.0000
# 2 13.2682 86.3927 51.7847 0.0000 -9.2672 0.0000
# 3 21.2722 51.7847 106.6863 0.0000 -9.0884 0.0000
# 4 0.0000 0.0000 0.0000 20.5856 0.0000 -3.9223
# 5 0.9222 -9.2672 -9.0884 0.0000 25.2108 0.0000
# 6 0.0000 0.0000 0.0000 -3.9223 0.0000 16.7626
#
#
#
# Elastic Compliance Matrix: (Units=1/GPa)
#
#
# Indices 1 2 3 4 5 6 
#
# 1 0.017214 -0.000995 -0.003130 0.000000 -0.002124 0.000000
# 2 -0.000995 0.016644 -0.007589 0.000000 0.003419 0.000000
# 3 -0.003130 -0.007589 0.013879 0.000000 0.002328 0.000000
# 4 0.000000 0.000000 0.000000 0.050845 0.000000 0.011897
# 5 -0.002124 0.003419 0.002328 0.000000 0.041839 0.000000
# 6 0.000000 0.000000 0.000000 0.011897 0.000000 0.062441
#
#
# Mechanical properties :
#
#
# Convention : Reuss Voigt Hill
#
# Bulk Modulus (GPa) = 41.13871 47.61898 44.37884
# Shear Modulus (GPa) = 21.33173 23.81815 22.57494
#
# Velocity S-wave (km/s) = 3.17267 3.35247 3.26381
# Velocity P-wave (km/s) = 5.73003 6.12008 5.92827
#
# Compressibility (1/GPa) = 0.02430801
#
# Stress axis : x y z
#
# Youngs Moduli (GPa) = 58.09259 60.08343 72.04946
#
# Poissons Ratio (x) = 0.05980 0.22552
# Poissons Ratio (y) = 0.05782 0.54678
# Poissons Ratio (z) = 0.18184 0.45597
#
# Static dielectric constant tensor:
#      x y z
#    x 1.775620 0.000000 -0.012630 
#    y 0.000000 1.779520 0.000000 
#    z -0.012630 0.000000 1.828380 
# 
# From -- ./inp_files/214032.got.cif
#   From: 2010.05.17/outbox.cif.g08.bks.cpg/sg15_108_cif.got.tgz:214032.got - 2010.06.03 18:47:42.
