data_PCOD9274386
_publ_section_title
;
Structure prediction by ZEFSAII (Michael W. Deem and Ramdas Pophale) SiO2 
 PCOD9274386
Probable space group: C 2/C
;
_chemical_formula_sum "Si O2"
_cell_formula_units_Z 32
_cell_length_a 20.595589
_cell_length_b 15.674529
_cell_length_c 14.971472
_cell_angle_alpha 90.000000
_cell_angle_beta 163.443109
_cell_angle_gamma 90.000000
_cell_volume 1377.298805
_symmetry_space_group_name_H-M "C 2/C"
_symmetry_group_IT_number 15
_symmetry_cell_setting 'monoclinic'
loop_
_space_group_symop_operation_xyz
x,y,z
-x,y,1/2-z
-x,-y,-z
x,-y,1/2+z
1/2+x,1/2+y,z
1/2-x,1/2+y,1/2-z
1/2-x,1/2-y,-z
1/2+x,1/2-y,1/2+z
loop_
_atom_site_type_symbol
_atom_site_label
_atom_site_fract_x
_atom_site_fract_y
_atom_site_fract_z
Si Si1 0.868618 0.363584 0.747071
Si Si2 0.000000 0.286740 0.750000
Si Si3 0.898818 0.859209 0.758116
Si Si4 0.439008 0.828314 0.038623
Si Si5 0.000000 0.992649 0.750000
O O1 0.709943 0.278818 0.533023
O O2 0.716834 0.445951 0.529138
O O3 0.027355 0.347177 0.871943
O O4 0.958889 0.364888 0.966010
O O5 0.667296 0.848898 0.394200
O O6 0.789751 0.861398 0.713569
O O7 0.053494 0.774860 0.953604
O O8 0.016087 0.937066 0.861830
#
# Coordination Sequence:
#
# PCOD9274386 Si02
#       5
#     8   4   8   8   4
#     4  10  21  39  62  86 116 156 196 239 293 348
#     4   9  20  38  60  85 116 156 200 235 282 364
#     4  10  21  37  58  89 120 148 196 247 285 343
#     4  10  20  38  63  83 114 164 197 227 292 363
#     4  11  24  38  54  89 128 148 190 255 290 326
#
# _framework density 23.233882999999999
#
# number of rings (size 3 to 8) (size 9 to 14) (size 15 to 20)
#    0.000    2.000    0.000    4.500    0.000    4.000 
#    0.000    0.000    0.000    0.000    0.000    0.000 
#    0.000    0.000    0.000    0.000    0.000    0.000 
#
# Total GULP energy -89403.696182 kJ/mol
# GULP energy per Si atom -5587.731011 kJ/mol
# Density = 2.318100 g / cm^3
# Si number density = 23.233883 Si / 1000 Ang^3
#
#
#
# Elastic Constant Matrix: (Units=GPa)
#
#
# Indices 1 2 3 4 5 6 
#
# 1 151.4932 44.3428 11.5310 0.0000 -7.2154 0.0000
# 2 44.3428 106.6527 1.5127 0.0000 11.5482 0.0000
# 3 11.5310 1.5127 21.8802 0.0000 -2.7608 0.0000
# 4 0.0000 0.0000 0.0000 -38.1374 0.0000 -5.0688
# 5 -7.2154 11.5482 -2.7608 0.0000 32.5875 0.0000
# 6 0.0000 0.0000 0.0000 -5.0688 0.0000 -3.0038
#
#
#
# Elastic Compliance Matrix: (Units=1/GPa)
#
#
# Indices 1 2 3 4 5 6 
#
# 1 0.008063 -0.003599 -0.003654 0.000000 0.002751 0.000000
# 2 -0.003599 0.011384 0.000505 0.000000 -0.004788 0.000000
# 3 -0.003654 0.000505 0.047982 0.000000 0.003077 0.000000
# 4 0.000000 0.000000 0.000000 -0.033802 0.000000 0.057039
# 5 0.002751 -0.004788 0.003077 0.000000 0.033253 0.000000
# 6 0.000000 0.000000 0.000000 0.057039 0.000000 -0.429159
#
#
# Mechanical properties :
#
#
# Convention : Reuss Voigt Hill
#
# Bulk Modulus (GPa) = 18.54064 43.86656 31.20360
# Shear Modulus (GPa) = -15.11457 13.13189 -0.99134
#
# Velocity S-wave (km/s) = -2.55334 2.37998 -0.65391
# Velocity P-wave (km/s) = 0.83389 5.14527 3.59016
#
# Compressibility (1/GPa) = 0.05393557
#
# Stress axis : x y z
#
# Youngs Moduli (GPa) = 124.01722 87.84512 20.84110
#
# Poissons Ratio (x) = 0.31612 0.07614
# Poissons Ratio (y) = 0.44628 -0.01053
# Poissons Ratio (z) = 0.45310 -0.04439
#
# Static dielectric constant tensor:
#      x y z
#    x 1.982340 0.000000 0.045170 
#    y 0.000000 1.840090 0.000000 
#    z 0.045170 0.000000 1.899680 
# 
# From -- ./inp_files/27664.got.cif
#   From: 2010.05.17/outbox.cif.g08.bks.cpg/sg15_14_cif.got.tgz:27664.got - 2010.06.03 18:47:42.
