data_PCOD9274808
_publ_section_title
;
Structure prediction by ZEFSAII (Michael W. Deem and Ramdas Pophale) SiO2 
 PCOD9274808
Probable space group: C 2/C
;
_chemical_formula_sum "Si O2"
_cell_formula_units_Z 60
_cell_length_a 15.257505
_cell_length_b 12.637381
_cell_length_c 16.398355
_cell_angle_alpha 90.000000
_cell_angle_beta 72.205264
_cell_angle_gamma 90.000000
_cell_volume 3010.576484
_symmetry_space_group_name_H-M "C 2/C"
_symmetry_group_IT_number 15
_symmetry_cell_setting 'monoclinic'
loop_
_space_group_symop_operation_xyz
x,y,z
-x,y,1/2-z
-x,-y,-z
x,-y,1/2+z
1/2+x,1/2+y,z
1/2-x,1/2+y,1/2-z
1/2-x,1/2-y,-z
1/2+x,1/2-y,1/2+z
loop_
_atom_site_type_symbol
_atom_site_label
_atom_site_fract_x
_atom_site_fract_y
_atom_site_fract_z
Si Si1 0.000000 0.097519 0.750000
Si Si2 0.581532 0.923947 0.880015
Si Si3 0.179537 0.607263 0.782640
Si Si4 0.346476 0.759654 0.774747
Si Si5 0.095371 0.431995 0.063659
Si Si6 0.266664 0.962366 0.879398
Si Si7 0.501815 0.253921 0.840099
Si Si8 0.950202 0.032350 0.097207
O O1 0.917252 0.177898 0.794228
O O2 0.972811 0.032884 0.674870
O O3 0.605329 0.828545 0.811550
O O4 0.663232 0.011377 0.850514
O O5 0.485152 0.984177 0.887033
O O6 0.575964 0.896974 0.976527
O O7 0.265723 0.684278 0.764828
O O8 0.184446 0.541098 0.698493
O O9 0.090671 0.679520 0.817181
O O10 0.303519 0.845294 0.848790
O O11 0.192295 0.491320 0.048599
O O12 0.082620 0.323452 0.117230
O O13 0.158914 0.968981 0.890848
O O14 0.500000 0.299433 0.750000
O O15 0.515358 0.349178 0.896661
O O16 0.000000 0.000000 0.000000
#
# Coordination Sequence:
#
# PCOD9274808 Si02
#       8
#     4   8   8   8   8   8   8   8
#     4  12  26  44  68  96 136 176 220 278 330 392
#     4   9  22  39  64  99 133 164 222 276 325 390
#     4  10  20  38  65  93 126 167 218 267 320 393
#     4  11  22  40  68  93 128 176 219 265 333 389
#     4  10  21  40  68  96 129 167 223 279 325 379
#     4  11  22  43  66  96 131 167 224 274 322 398
#     4  11  21  41  69  93 126 177 214 266 328 388
#     4  12  28  46  63  98 141 174 219 271 338 406
#
# _framework density 19.929739000000001
#
# number of rings (size 3 to 8) (size 9 to 14) (size 15 to 20)
#    0.000    1.333    4.667    0.800    1.867    1.067 
#    4.800    2.667    0.000    0.000    0.000    0.000 
#    0.000    0.000    0.000    0.000    0.000    0.000 
#
# Total GULP energy -167228.305789 kJ/mol
# GULP energy per Si atom -5574.276860 kJ/mol
# Density = 1.988438 g / cm^3
# Si number density = 19.929739 Si / 1000 Ang^3
#
#
#
# Elastic Constant Matrix: (Units=GPa)
#
#
# Indices 1 2 3 4 5 6 
#
# 1 79.5875 41.7658 17.1514 0.0000 10.5001 0.0000
# 2 41.7658 99.3587 21.9447 0.0000 2.5977 0.0000
# 3 17.1514 21.9447 65.2131 0.0000 -0.0822 0.0000
# 4 0.0000 0.0000 0.0000 -1.7705 0.0000 8.1391
# 5 10.5001 2.5977 -0.0822 0.0000 21.9282 0.0000
# 6 0.0000 0.0000 0.0000 8.1391 0.0000 31.9418
#
#
#
# Elastic Compliance Matrix: (Units=1/GPa)
#
#
# Indices 1 2 3 4 5 6 
#
# 1 0.017585 -0.006664 -0.002392 0.000000 -0.007640 0.000000
# 2 -0.006664 0.013435 -0.002766 0.000000 0.001589 0.000000
# 3 -0.002392 -0.002766 0.016896 0.000000 0.001537 0.000000
# 4 0.000000 0.000000 0.000000 -0.260113 0.000000 0.066280
# 5 -0.007640 0.001589 0.001537 0.000000 0.049079 0.000000
# 6 0.000000 0.000000 0.000000 0.066280 0.000000 0.014418
#
#
# Mechanical properties :
#
#
# Convention : Reuss Voigt Hill
#
# Bulk Modulus (GPa) = 41.20005 45.09812 43.14908
# Shear Modulus (GPa) = -42.74876 21.30637 -10.72119
#
# Velocity S-wave (km/s) = -4.63641 3.27322 -2.32189
# Velocity P-wave (km/s) = 2.81855 6.07972 3.80912
#
# Compressibility (1/GPa) = 0.02427182
#
# Stress axis : x y z
#
# Youngs Moduli (GPa) = 56.86537 74.43117 59.18437
#
# Poissons Ratio (x) = 0.49601 0.14158
# Poissons Ratio (y) = 0.37895 0.16373
# Poissons Ratio (z) = 0.13603 0.20591
#
# Static dielectric constant tensor:
#      x y z
#    x 1.740260 0.000000 0.038740 
#    y 0.000000 1.690110 0.000000 
#    z 0.038740 0.000000 1.738110 
# 
# From -- ./inp_files/160888.got.cif
#   From: 2010.05.17/outbox.cif.g08.bks.cpg/sg15_81_cif.got.tgz:160888.got - 2010.06.03 18:47:42.
