data_PCOD9274920
_publ_section_title
;
Structure prediction by ZEFSAII (Michael W. Deem and Ramdas Pophale) SiO2 
 PCOD9274920
Probable space group: C 2/C
;
_chemical_formula_sum "Si O2"
_cell_formula_units_Z 36
_cell_length_a 25.237196
_cell_length_b 11.575984
_cell_length_c 14.068108
_cell_angle_alpha 90.000000
_cell_angle_beta 22.098165
_cell_angle_gamma 90.000000
_cell_volume 1546.134450
_symmetry_space_group_name_H-M "C 2/C"
_symmetry_group_IT_number 15
_symmetry_cell_setting 'monoclinic'
loop_
_space_group_symop_operation_xyz
x,y,z
-x,y,1/2-z
-x,-y,-z
x,-y,1/2+z
1/2+x,1/2+y,z
1/2-x,1/2+y,1/2-z
1/2-x,1/2-y,-z
1/2+x,1/2-y,1/2+z
loop_
_atom_site_type_symbol
_atom_site_label
_atom_site_fract_x
_atom_site_fract_y
_atom_site_fract_z
Si Si1 0.344044 0.904763 0.801844
Si Si2 0.115663 0.173125 0.191959
Si Si3 0.028874 0.837786 0.375122
Si Si4 0.000000 0.011818 0.750000
Si Si5 0.016779 0.591852 0.615730
O O1 0.454876 0.802561 0.647682
O O2 0.351463 0.916202 0.675046
O O3 0.396885 0.024025 0.757180
O O4 0.192480 0.873848 0.094981
O O5 0.110117 0.075216 0.119957
O O6 0.009292 0.272591 0.335512
O O7 0.049591 0.124683 0.399011
O O8 0.250000 0.250000 0.000000
O O9 0.955068 0.900051 0.408733
O O10 0.000000 0.544719 0.750000
#
# Coordination Sequence:
#
# PCOD9274920 Si02
#       5
#     8   8   8   4   8
#     4   9  21  41  62  96 138 170 220 289 336 397
#     4  11  24  44  64  96 135 175 232 285 335 419
#     4  10  23  42  63  97 137 170 226 288 338 415
#     4  12  24  42  68 102 130 188 218 270 368 402
#     4  10  20  38  66  93 127 183 221 267 338 413
#
# _framework density 23.283874999999998
#
# number of rings (size 3 to 8) (size 9 to 14) (size 15 to 20)
#    0.000    1.778    1.111    2.000    1.556    3.556 
#    4.000    0.000    0.000    0.000    0.000    0.000 
#    0.000    0.000    0.000    0.000    0.000    0.000 
#
# Total GULP energy -100313.597677 kJ/mol
# GULP energy per Si atom -5572.977649 kJ/mol
# Density = 2.323088 g / cm^3
# Si number density = 23.283875 Si / 1000 Ang^3
#
#
#
# Elastic Constant Matrix: (Units=GPa)
#
#
# Indices 1 2 3 4 5 6 
#
# 1 139.2645 47.6235 67.3297 0.0000 38.8601 0.0000
# 2 47.6235 144.3732 36.3555 0.0000 14.3345 0.0000
# 3 67.3297 36.3555 139.4222 0.0000 28.8379 0.0000
# 4 0.0000 0.0000 0.0000 30.9782 0.0000 0.8946
# 5 38.8601 14.3345 28.8379 0.0000 34.8730 0.0000
# 6 0.0000 0.0000 0.0000 0.8946 0.0000 58.1041
#
#
#
# Elastic Compliance Matrix: (Units=1/GPa)
#
#
# Indices 1 2 3 4 5 6 
#
# 1 0.012368 -0.002245 -0.003290 0.000000 -0.010138 0.000000
# 2 -0.002245 0.007910 -0.000993 0.000000 0.000071 0.000000
# 3 -0.003290 -0.000993 0.009865 0.000000 -0.004083 0.000000
# 4 0.000000 0.000000 0.000000 0.032295 0.000000 -0.000497
# 5 -0.010138 0.000071 -0.004083 0.000000 0.043320 0.000000
# 6 0.000000 0.000000 0.000000 -0.000497 0.000000 0.017218
#
#
# Mechanical properties :
#
#
# Convention : Reuss Voigt Hill
#
# Bulk Modulus (GPa) = 58.52686 80.63080 69.57883
# Shear Modulus (GPa) = 35.27880 42.90781 39.09331
#
# Velocity S-wave (km/s) = 3.89673 4.29746 4.10199
# Velocity P-wave (km/s) = 6.74068 7.70252 7.23760
#
# Compressibility (1/GPa) = 0.01708617
#
# Stress axis : x y z
#
# Youngs Moduli (GPa) = 80.85426 126.42288 101.36872
#
# Poissons Ratio (x) = 0.28376 0.33355
# Poissons Ratio (y) = 0.18148 0.10070
# Poissons Ratio (z) = 0.26604 0.12559
#
# Static dielectric constant tensor:
#      x y z
#    x 1.949120 0.000000 0.002920 
#    y 0.000000 1.917180 0.000000 
#    z 0.002920 0.000000 1.955290 
# 
# From -- ./inp_files/117855.got.cif
#   From: 2010.05.17/outbox.cif.g08.bks.cpg/sg15_59_cif.got.tgz:117855.got - 2010.06.03 18:47:42.
