data_PCOD9274963
_publ_section_title
;
Structure prediction by ZEFSAII (Michael W. Deem and Ramdas Pophale) SiO2 
 PCOD9274963
Probable space group: C 2/C
;
_chemical_formula_sum "Si O2"
_cell_formula_units_Z 48
_cell_length_a 17.532833
_cell_length_b 7.694915
_cell_length_c 27.064264
_cell_angle_alpha 90.000000
_cell_angle_beta 31.837357
_cell_angle_gamma 90.000000
_cell_volume 1926.117111
_symmetry_space_group_name_H-M "C 2/C"
_symmetry_group_IT_number 15
_symmetry_cell_setting 'monoclinic'
loop_
_space_group_symop_operation_xyz
x,y,z
-x,y,1/2-z
-x,-y,-z
x,-y,1/2+z
1/2+x,1/2+y,z
1/2-x,1/2+y,1/2-z
1/2-x,1/2-y,-z
1/2+x,1/2-y,1/2+z
loop_
_atom_site_type_symbol
_atom_site_label
_atom_site_fract_x
_atom_site_fract_y
_atom_site_fract_z
Si Si1 0.704309 0.772483 0.202947
Si Si2 0.113899 0.759454 0.299610
Si Si3 0.589058 0.139803 0.483524
Si Si4 0.830865 0.888760 0.490933
Si Si5 0.173207 0.153346 0.392052
Si Si6 0.074002 0.582250 0.607212
O O1 0.789828 0.714182 0.205301
O O2 0.534663 0.781757 0.308014
O O3 0.765553 0.966512 0.157611
O O4 0.757655 0.664513 0.126847
O O5 0.226248 0.789147 0.193652
O O6 0.995486 0.900415 0.381646
O O7 0.015266 0.597618 0.337328
O O8 0.491261 0.313593 0.533201
O O9 0.591162 0.094870 0.539285
O O10 0.500000 0.000000 0.500000
O O11 0.750000 0.750000 0.500000
O O12 0.822535 0.823192 0.551617
O O13 0.732718 0.060720 0.542379
#
# Coordination Sequence:
#
# PCOD9274963 Si02
#       6
#     8   8   8   8   8   8
#     4  11  22  38  65 100 130 173 224 272 339 398
#     4  10  20  38  66  97 127 172 225 274 327 399
#     4  12  21  38  66  99 129 172 225 281 332 394
#     4  10  21  41  63  95 133 175 223 275 335 402
#     4  11  23  39  69  96 129 175 226 277 332 411
#     4  10  22  39  64  98 135 166 223 283 325 393
#
# _framework density 24.920604000000001
#
# number of rings (size 3 to 8) (size 9 to 14) (size 15 to 20)
#    0.000    1.333    5.000    1.500    0.000    6.000 
#    0.000    0.833    0.000    4.000    0.000    0.000 
#    0.000    0.000    0.000    0.000    0.000    0.000 
#
# Total GULP energy -134336.917703 kJ/mol
# GULP energy per Si atom -5597.371571 kJ/mol
# Density = 2.486388 g / cm^3
# Si number density = 24.920604 Si / 1000 Ang^3
#
#
#
# Elastic Constant Matrix: (Units=GPa)
#
#
# Indices 1 2 3 4 5 6 
#
# 1 78.5532 -21.3542 52.9136 -0.0002 3.0345 -0.0007
# 2 -21.3542 34.3228 14.6192 -0.0006 1.4415 0.0000
# 3 52.9136 14.6192 237.2925 0.0001 3.6076 0.0003
# 4 -0.0002 -0.0006 0.0001 25.9162 0.0002 7.9424
# 5 3.0345 1.4415 3.6076 0.0002 36.5168 0.0002
# 6 -0.0007 0.0000 0.0003 7.9424 0.0002 27.8042
#
#
#
# Elastic Compliance Matrix: (Units=1/GPa)
#
#
# Indices 1 2 3 4 5 6 
#
# 1 0.020679 0.015294 -0.005526 0.000000 -0.001776 0.000001
# 2 0.015294 0.041268 -0.005918 0.000001 -0.002315 0.000000
# 3 -0.005526 -0.005918 0.005809 0.000000 0.000119 0.000000
# 4 0.000000 0.000001 0.000000 0.042288 0.000000 -0.012080
# 5 -0.001776 -0.002315 0.000119 0.000000 0.027612 0.000000
# 6 0.000001 0.000000 0.000000 -0.012080 0.000000 0.039416
#
#
# Mechanical properties :
#
#
# Convention : Reuss Voigt Hill
#
# Bulk Modulus (GPa) = 13.25265 49.16954 31.21110
# Shear Modulus (GPa) = 25.70363 38.31344 32.00854
#
# Velocity S-wave (km/s) = 3.21506 3.92525 3.58777
# Velocity P-wave (km/s) = 4.37168 6.34955 5.45107
#
# Compressibility (1/GPa) = 0.07545658
#
# Stress axis : x y z
#
# Youngs Moduli (GPa) = 48.35808 24.23170 172.13733
#
# Poissons Ratio (x) = -0.37060 0.95131
# Poissons Ratio (y) = -0.73959 1.01865
# Poissons Ratio (z) = 0.26725 0.14340
#
# Static dielectric constant tensor:
#      x y z
#    x 1.907180 0.000000 -0.014420 
#    y 0.000000 2.205350 0.000000 
#    z -0.014420 0.000000 2.007000 
# 
# From -- ./inp_files/317224.got.cif
#   From: 2010.05.17/outbox.cif.g08.bks.cpg/sg15_159_cif.got.tgz:317224.got - 2010.06.03 18:47:42.
