data_PCOD9274362
_publ_section_title
;
Structure prediction by ZEFSAII (Michael W. Deem and Ramdas Pophale) SiO2 
 PCOD9274362
Probable space group: C 2/C
;
_chemical_formula_sum "Si O2"
_cell_formula_units_Z 56
_cell_length_a 29.473513
_cell_length_b 12.255679
_cell_length_c 14.840222
_cell_angle_alpha 90.000000
_cell_angle_beta 32.168289
_cell_angle_gamma 90.000000
_cell_volume 2854.001100
_symmetry_space_group_name_H-M "C 2/C"
_symmetry_group_IT_number 15
_symmetry_cell_setting 'monoclinic'
loop_
_space_group_symop_operation_xyz
x,y,z
-x,y,1/2-z
-x,-y,-z
x,-y,1/2+z
1/2+x,1/2+y,z
1/2-x,1/2+y,1/2-z
1/2-x,1/2-y,-z
1/2+x,1/2-y,1/2+z
loop_
_atom_site_type_symbol
_atom_site_label
_atom_site_fract_x
_atom_site_fract_y
_atom_site_fract_z
Si Si1 0.000000 0.178875 0.750000
Si Si2 0.677304 0.778629 0.445149
Si Si3 0.314212 0.158131 0.772289
Si Si4 0.771165 0.052168 0.083616
Si Si5 0.229571 0.984162 0.124487
Si Si6 0.413838 0.507679 0.489416
Si Si7 0.000000 0.202772 0.250000
Si Si8 0.656213 0.200670 0.586237
O O1 0.082199 0.249426 0.637389
O O2 0.025252 0.096210 0.626854
O O3 0.669600 0.787698 0.350314
O O4 0.736940 0.676639 0.371541
O O5 0.716835 0.887247 0.419571
O O6 0.369754 0.191344 0.764908
O O7 0.308576 0.028251 0.768267
O O8 0.220488 0.198457 0.962224
O O9 0.846591 0.005651 0.019708
O O10 0.789580 0.045619 0.946654
O O11 0.142793 0.997468 0.326387
O O12 0.287656 0.093185 0.029698
O O13 0.464042 0.619602 0.386917
O O14 0.075587 0.276860 0.160415
#
# Coordination Sequence:
#
# PCOD9274362 Si02
#       8
#     4   8   8   8   8   8   4   8
#     4   9  22  37  58  84 132 155 195 250 322 352
#     4  11  21  39  62  87 126 163 199 256 309 369
#     4  10  20  38  63  89 121 169 208 244 307 375
#     4  10  20  38  62  96 117 153 220 258 283 371
#     4  11  22  38  68  89 120 170 210 244 308 374
#     4  10  20  40  60  90 122 162 203 260 305 353
#     4  11  20  39  58  96 130 151 205 272 300 356
#     4  10  21  36  63  92 124 158 210 254 303 370
#
# _framework density 19.621576000000001
#
# number of rings (size 3 to 8) (size 9 to 14) (size 15 to 20)
#    0.000    1.714    2.857    2.143    0.000    0.571 
#    5.143    3.571    0.000    2.571    0.000    0.000 
#    0.000    0.000    0.000    0.000    0.000    0.000 
#
# Total GULP energy -156269.090000 kJ/mol
# GULP energy per Si atom -5581.038929 kJ/mol
# Density = 1.957692 g / cm^3
# Si number density = 19.621576 Si / 1000 Ang^3
#
#
#
# Elastic Constant Matrix: (Units=GPa)
#
#
# Indices 1 2 3 4 5 6 
#
# 1 43.9216 12.3622 30.7047 0.0000 20.2420 0.0000
# 2 12.3622 102.3808 27.8798 0.0000 15.1170 0.0000
# 3 30.7047 27.8798 78.3679 0.0000 25.7319 0.0000
# 4 0.0000 0.0000 0.0000 8.6315 0.0000 -16.9771
# 5 20.2420 15.1170 25.7319 0.0000 29.9436 0.0000
# 6 0.0000 0.0000 0.0000 -16.9771 0.0000 18.3446
#
#
#
# Elastic Compliance Matrix: (Units=1/GPa)
#
#
# Indices 1 2 3 4 5 6 
#
# 1 0.036944 0.000561 -0.008889 0.000000 -0.017619 0.000000
# 2 0.000561 0.011021 -0.003050 0.000000 -0.003323 0.000000
# 3 -0.008889 -0.003050 0.020686 0.000000 -0.010228 0.000000
# 4 0.000000 0.000000 0.000000 -0.141240 0.000000 -0.130712
# 5 -0.017619 -0.003323 -0.010228 0.000000 0.055773 0.000000
# 6 0.000000 0.000000 0.000000 -0.130712 0.000000 -0.066456
#
#
# Mechanical properties :
#
#
# Convention : Reuss Voigt Hill
#
# Bulk Modulus (GPa) = 21.78856 40.72930 31.25893
# Shear Modulus (GPa) = -110.57504 21.63218 -44.47143
#
# Velocity S-wave (km/s) = -7.51506 3.32395 -4.76590
# Velocity P-wave (km/s) = 8.01081 5.96104 3.78412
#
# Compressibility (1/GPa) = 0.04589565
#
# Stress axis : x y z
#
# Youngs Moduli (GPa) = 27.06792 90.73802 48.34078
#
# Poissons Ratio (x) = -0.05093 0.42972
# Poissons Ratio (y) = -0.01519 0.14742
# Poissons Ratio (z) = 0.24062 0.27672
#
# Static dielectric constant tensor:
#      x y z
#    x 1.697710 0.000000 0.013180 
#    y 0.000000 1.718220 0.000000 
#    z 0.013180 0.000000 1.699680 
# 
# From -- ./inp_files/181955.got.cif
#   From: 2010.05.17/outbox.cif.g08.bks.cpg/sg15_91_cif.got.tgz:181955.got - 2010.06.03 18:47:42.
