data_PCOD9274546
_publ_section_title
;
Structure prediction by ZEFSAII (Michael W. Deem and Ramdas Pophale) SiO2 
 PCOD9274546
Probable space group: C 2/C
;
_chemical_formula_sum "Si O2"
_cell_formula_units_Z 36
_cell_length_a 19.663800
_cell_length_b 15.872573
_cell_length_c 8.276439
_cell_angle_alpha 90.000000
_cell_angle_beta 41.983495
_cell_angle_gamma 90.000000
_cell_volume 1727.946178
_symmetry_space_group_name_H-M "C 2/C"
_symmetry_group_IT_number 15
_symmetry_cell_setting 'monoclinic'
loop_
_space_group_symop_operation_xyz
x,y,z
-x,y,1/2-z
-x,-y,-z
x,-y,1/2+z
1/2+x,1/2+y,z
1/2-x,1/2+y,1/2-z
1/2-x,1/2-y,-z
1/2+x,1/2-y,1/2+z
loop_
_atom_site_type_symbol
_atom_site_label
_atom_site_fract_x
_atom_site_fract_y
_atom_site_fract_z
Si Si1 0.550003 0.263109 0.332463
Si Si2 0.212111 0.891549 0.953098
Si Si3 0.450621 0.085719 0.013018
Si Si4 0.000000 0.856472 0.750000
Si Si5 0.108872 0.006394 0.898673
O O1 0.500000 0.283040 0.250000
O O2 0.535092 0.164262 0.390903
O O3 0.502442 0.304684 0.579268
O O4 0.662406 0.304894 0.108686
O O5 0.328862 0.905187 0.702534
O O6 0.144016 0.922353 0.922739
O O7 0.190873 0.958266 0.132227
O O8 0.500000 0.099143 0.750000
O O9 0.500000 0.000000 0.000000
O O10 0.093738 0.920564 0.560098
O O11 0.000000 0.000000 0.000000
#
# Coordination Sequence:
#
# PCOD9274546 Si02
#       5
#     8   8   8   4   8
#     4  11  24  43  72 101 141 177 231 298 359 413
#     4  11  23  39  70 104 138 182 231 289 353 422
#     4  12  26  49  68  93 139 194 242 286 345 426
#     4  10  20  38  64 104 138 170 214 280 362 418
#     4  11  19  36  66 106 142 169 221 291 359 422
#
# _framework density 20.833981000000001
#
# number of rings (size 3 to 8) (size 9 to 14) (size 15 to 20)
#    0.000    0.889    3.333    5.333    0.000    0.000 
#    0.000    1.111    0.000    0.000    0.000    0.000 
#    0.000    0.000    0.000    0.000    0.000    0.000 
#
# Total GULP energy -100236.725783 kJ/mol
# GULP energy per Si atom -5568.706988 kJ/mol
# Density = 2.078656 g / cm^3
# Si number density = 20.833981 Si / 1000 Ang^3
#
#
#
# Elastic Constant Matrix: (Units=GPa)
#
#
# Indices 1 2 3 4 5 6 
#
# 1 108.1784 48.7716 74.7129 0.0000 9.7931 0.0000
# 2 48.7716 130.3972 57.4993 0.0000 -3.5109 0.0000
# 3 74.7129 57.4993 191.9348 0.0000 -1.2512 0.0000
# 4 0.0000 0.0000 0.0000 26.2382 0.0000 7.4388
# 5 9.7931 -3.5109 -1.2512 0.0000 24.9520 0.0000
# 6 0.0000 0.0000 0.0000 7.4388 0.0000 36.6370
#
#
#
# Elastic Compliance Matrix: (Units=1/GPa)
#
#
# Indices 1 2 3 4 5 6 
#
# 1 0.014692 -0.003606 -0.004681 0.000000 -0.006508 0.000000
# 2 -0.003606 0.009752 -0.001500 0.000000 0.002712 0.000000
# 3 -0.004681 -0.001500 0.007495 0.000000 0.002002 0.000000
# 4 0.000000 0.000000 0.000000 0.040440 0.000000 -0.008211
# 5 -0.006508 0.002712 0.002002 0.000000 0.043113 0.000000
# 6 0.000000 0.000000 0.000000 -0.008211 0.000000 0.028962
#
#
# Mechanical properties :
#
#
# Convention : Reuss Voigt Hill
#
# Bulk Modulus (GPa) = 80.87958 88.05310 84.46634
# Shear Modulus (GPa) = 29.73518 34.20054 31.96786
#
# Velocity S-wave (km/s) = 3.78199 4.05603 3.92140
# Velocity P-wave (km/s) = 7.61423 8.01817 7.81881
#
# Compressibility (1/GPa) = 0.01236406
#
# Stress axis : x y z
#
# Youngs Moduli (GPa) = 68.06408 102.54104 133.42703
#
# Poissons Ratio (x) = 0.36979 0.62459
# Poissons Ratio (y) = 0.24545 0.20015
# Poissons Ratio (z) = 0.31862 0.15382
#
# Static dielectric constant tensor:
#      x y z
#    x 1.812480 0.000000 -0.036370 
#    y 0.000000 1.816570 0.000000 
#    z -0.036370 0.000000 1.852000 
# 
# From -- ./inp_files/55582.got.cif
#   From: 2010.05.17/outbox.cif.g08.bks.cpg/sg15_28_cif.got.tgz:55582.got - 2010.06.03 18:47:42.
