data_PCOD9274172
_publ_section_title
;
Structure prediction by ZEFSAII (Michael W. Deem and Ramdas Pophale) SiO2 
 PCOD9274172
Probable space group: C 2/C
;
_chemical_formula_sum "Si O2"
_cell_formula_units_Z 56
_cell_length_a 17.971489
_cell_length_b 9.093545
_cell_length_c 23.516745
_cell_angle_alpha 90.000000
_cell_angle_beta 135.809414
_cell_angle_gamma 90.000000
_cell_volume 2678.901477
_symmetry_space_group_name_H-M "C 2/C"
_symmetry_group_IT_number 15
_symmetry_cell_setting 'monoclinic'
loop_
_space_group_symop_operation_xyz
x,y,z
-x,y,1/2-z
-x,-y,-z
x,-y,1/2+z
1/2+x,1/2+y,z
1/2-x,1/2+y,1/2-z
1/2-x,1/2-y,-z
1/2+x,1/2-y,1/2+z
loop_
_atom_site_type_symbol
_atom_site_label
_atom_site_fract_x
_atom_site_fract_y
_atom_site_fract_z
Si Si1 0.228857 0.119362 0.660780
Si Si2 0.052356 0.439863 0.086994
Si Si3 0.505530 0.674828 0.997798
Si Si4 0.083992 0.141538 0.746603
Si Si5 0.870162 0.588011 0.165909
Si Si6 0.065127 0.322596 0.916306
Si Si7 0.720283 0.582625 0.259725
O O1 0.121555 0.199974 0.580899
O O2 0.281162 0.244374 0.729383
O O3 0.303671 0.050779 0.652429
O O4 0.202295 0.982096 0.687139
O O5 0.167348 0.509351 0.159960
O O6 0.980514 0.515720 0.095396
O O7 0.000000 0.500000 0.000000
O O8 0.043771 0.266149 0.073452
O O9 0.576038 0.736826 0.982784
O O10 0.500000 0.500000 0.000000
O O11 0.160210 0.268120 0.813542
O O12 0.000000 0.110610 0.750000
O O13 0.024415 0.221061 0.662188
O O14 0.136076 0.994504 0.754432
O O15 0.854731 0.640935 0.091972
O O16 0.000000 0.567717 0.250000
#
# Coordination Sequence:
#
# PCOD9274172 Si02
#       7
#     8   8   8   8   8   8   8
#     4  12  24  38  63  98 116 160 215 260 302 378
#     4  10  20  38  62  83 120 167 194 247 314 372
#     4  11  24  40  60  92 125 156 216 257 305 375
#     4   9  19  36  62  91 123 157 202 259 307 372
#     4   9  20  38  61  89 126 159 202 256 318 368
#     4   9  17  42  60  82 122 164 195 243 320 363
#     4  12  21  37  65  91 123 156 215 255 310 366
#
# _framework density 20.904091999999999
#
# number of rings (size 3 to 8) (size 9 to 14) (size 15 to 20)
#    0.000    2.000    4.286    2.571    4.000    0.571 
#    0.000    4.286    3.143    0.000    0.000    0.000 
#    0.000    0.000    0.000    0.000    0.000    0.000 
#
# Total GULP energy -155920.829012 kJ/mol
# GULP energy per Si atom -5568.601036 kJ/mol
# Density = 2.085651 g / cm^3
# Si number density = 20.904092 Si / 1000 Ang^3
#
#
#
# Elastic Constant Matrix: (Units=GPa)
#
#
# Indices 1 2 3 4 5 6 
#
# 1 60.5790 33.3179 0.5525 0.0000 -9.6223 0.0000
# 2 33.3179 146.1056 -1.0803 0.0000 -6.3467 0.0000
# 3 0.5525 -1.0803 33.8722 0.0000 1.5892 0.0000
# 4 0.0000 0.0000 0.0000 25.4841 0.0000 -4.5804
# 5 -9.6223 -6.3467 1.5892 0.0000 17.9543 0.0000
# 6 0.0000 0.0000 0.0000 -4.5804 0.0000 47.1567
#
#
#
# Elastic Compliance Matrix: (Units=1/GPa)
#
#
# Indices 1 2 3 4 5 6 
#
# 1 0.020353 -0.004236 -0.000912 0.000000 0.009491 0.000000
# 2 -0.004236 0.007833 0.000297 0.000000 0.000473 0.000000
# 3 -0.000912 0.000297 0.029688 0.000000 -0.003012 0.000000
# 4 0.000000 0.000000 0.000000 0.039937 0.000000 0.003879
# 5 0.009491 0.000473 -0.003012 0.000000 0.061217 0.000000
# 6 0.000000 0.000000 0.000000 0.003879 0.000000 0.021583
#
#
# Mechanical properties :
#
#
# Convention : Reuss Voigt Hill
#
# Bulk Modulus (GPa) = 20.75913 34.01522 27.38717
# Shear Modulus (GPa) = 24.22815 31.97012 28.09913
#
# Velocity S-wave (km/s) = 3.40812 3.91496 3.67030
# Velocity P-wave (km/s) = 5.04374 6.06162 5.57595
#
# Compressibility (1/GPa) = 0.04817157
#
# Stress axis : x y z
#
# Youngs Moduli (GPa) = 49.13311 127.66497 33.68315
#
# Poissons Ratio (x) = 0.54075 0.03073
# Poissons Ratio (y) = 0.20811 -0.00999
# Poissons Ratio (z) = 0.04483 -0.03788
#
# Static dielectric constant tensor:
#      x y z
#    x 1.817780 0.000000 0.017340 
#    y 0.000000 1.798670 0.000000 
#    z 0.017340 0.000000 1.852200 
# 
# From -- ./inp_files/276604.got.cif
#   From: 2010.05.17/outbox.cif.g08.bks.cpg/sg15_139_cif.got.tgz:276604.got - 2010.06.03 18:47:42.
