data_PCOD9274551
_publ_section_title
;
Structure prediction by ZEFSAII (Michael W. Deem and Ramdas Pophale) SiO2 
 PCOD9274551
Probable space group: C 2/C
;
_chemical_formula_sum "Si O2"
_cell_formula_units_Z 40
_cell_length_a 7.339183
_cell_length_b 18.702656
_cell_length_c 13.536609
_cell_angle_alpha 90.000000
_cell_angle_beta 73.307494
_cell_angle_gamma 90.000000
_cell_volume 1779.766212
_symmetry_space_group_name_H-M "C 2/C"
_symmetry_group_IT_number 15
_symmetry_cell_setting 'monoclinic'
loop_
_space_group_symop_operation_xyz
x,y,z
-x,y,1/2-z
-x,-y,-z
x,-y,1/2+z
1/2+x,1/2+y,z
1/2-x,1/2+y,1/2-z
1/2-x,1/2-y,-z
1/2+x,1/2-y,1/2+z
loop_
_atom_site_type_symbol
_atom_site_label
_atom_site_fract_x
_atom_site_fract_y
_atom_site_fract_z
Si Si1 0.172361 0.512930 0.143514
Si Si2 0.374730 0.859506 0.975649
Si Si3 0.616769 0.854713 0.130934
Si Si4 0.729920 0.794297 0.840233
Si Si5 0.575540 0.356925 0.879768
O O1 0.111269 0.557008 0.055788
O O2 0.000000 0.515659 0.250000
O O3 0.219181 0.431566 0.110285
O O4 0.347793 0.562611 0.152918
O O5 0.515810 0.819820 0.878242
O O6 0.162612 0.838778 0.973644
O O7 0.461003 0.846089 0.068603
O O8 0.500000 0.857430 0.250000
O O9 0.745054 0.785032 0.122837
O O10 0.823045 0.807089 0.718718
O O11 0.854917 0.844549 0.894711
#
# Coordination Sequence:
#
# PCOD9274551 Si02
#       5
#     8   8   8   8   8
#     4   9  18  37  61  82 111 154 189 225 288 340
#     4  10  20  38  64  81 112 157 193 222 288 349
#     4  11  22  35  59  88 117 148 188 247 282 319
#     4  11  19  38  60  86 114 145 193 237 280 340
#     4   9  19  36  62  81 112 149 192 223 286 345
#
# _framework density 22.474862999999999
#
# number of rings (size 3 to 8) (size 9 to 14) (size 15 to 20)
#    1.200    0.800    4.000    1.800    0.000    0.800 
#    0.000    1.000   13.200    0.000    0.000    0.000 
#    0.000    0.000    0.000    0.000    0.000    0.000 
#
# Total GULP energy -111552.022842 kJ/mol
# GULP energy per Si atom -5577.601142 kJ/mol
# Density = 2.242371 g / cm^3
# Si number density = 22.474863 Si / 1000 Ang^3
#
#
#
# Elastic Constant Matrix: (Units=GPa)
#
#
# Indices 1 2 3 4 5 6 
#
# 1 79.9969 30.2886 0.2763 0.0000 21.4839 0.0000
# 2 30.2886 162.1458 5.7275 0.0000 16.7841 0.0000
# 3 0.2763 5.7275 84.6528 0.0000 19.1533 0.0000
# 4 0.0000 0.0000 0.0000 27.5834 0.0000 11.2043
# 5 21.4839 16.7841 19.1533 0.0000 27.7555 0.0000
# 6 0.0000 0.0000 0.0000 11.2043 0.0000 13.1974
#
#
#
# Elastic Compliance Matrix: (Units=1/GPa)
#
#
# Indices 1 2 3 4 5 6 
#
# 1 0.017038 -0.001811 0.003322 0.000000 -0.014385 0.000000
# 2 -0.001811 0.006792 0.000188 0.000000 -0.002835 0.000000
# 3 0.003322 0.000188 0.014691 0.000000 -0.012822 0.000000
# 4 0.000000 0.000000 0.000000 0.055337 0.000000 -0.046980
# 5 -0.014385 -0.002835 -0.012822 0.000000 0.057726 0.000000
# 6 0.000000 0.000000 0.000000 -0.046980 0.000000 0.115658
#
#
# Mechanical properties :
#
#
# Convention : Reuss Voigt Hill
#
# Bulk Modulus (GPa) = 23.85607 44.37561 34.11584
# Shear Modulus (GPa) = 17.99741 33.07413 25.53577
#
# Velocity S-wave (km/s) = 2.83287 3.84031 3.37440
# Velocity P-wave (km/s) = 4.61929 6.28104 5.51313
#
# Compressibility (1/GPa) = 0.04191806
#
# Stress axis : x y z
#
# Youngs Moduli (GPa) = 58.69249 147.22274 68.07106
#
# Poissons Ratio (x) = 0.26661 -0.22611
# Poissons Ratio (y) = 0.10629 -0.01279
# Poissons Ratio (z) = -0.19496 -0.02766
#
# Static dielectric constant tensor:
#      x y z
#    x 1.782260 0.000000 -0.009160 
#    y 0.000000 1.846140 0.000000 
#    z -0.009160 0.000000 1.861040 
# 
# From -- ./inp_files/135190.got.cif
#   From: 2010.05.17/outbox.cif.g08.bks.cpg/sg15_68_cif.got.tgz:135190.got - 2010.06.03 18:47:42.
