data_PCOD9274828
_publ_section_title
;
Structure prediction by ZEFSAII (Michael W. Deem and Ramdas Pophale) SiO2 
 PCOD9274828
Probable space group: C 2/C
;
_chemical_formula_sum "Si O2"
_cell_formula_units_Z 36
_cell_length_a 8.477562
_cell_length_b 22.348420
_cell_length_c 9.457185
_cell_angle_alpha 90.000000
_cell_angle_beta 64.836392
_cell_angle_gamma 90.000000
_cell_volume 1621.716581
_symmetry_space_group_name_H-M "C 2/C"
_symmetry_group_IT_number 15
_symmetry_cell_setting 'monoclinic'
loop_
_space_group_symop_operation_xyz
x,y,z
-x,y,1/2-z
-x,-y,-z
x,-y,1/2+z
1/2+x,1/2+y,z
1/2-x,1/2+y,1/2-z
1/2-x,1/2-y,-z
1/2+x,1/2-y,1/2+z
loop_
_atom_site_type_symbol
_atom_site_label
_atom_site_fract_x
_atom_site_fract_y
_atom_site_fract_z
Si Si1 0.874453 0.541863 0.131829
Si Si2 0.377633 0.672458 0.655460
Si Si3 0.825147 0.961336 0.068634
Si Si4 0.821434 0.229804 0.124399
Si Si5 0.000000 0.643980 0.250000
O O1 0.802630 0.505521 0.294378
O O2 0.992274 0.599274 0.121771
O O3 0.724236 0.553554 0.074569
O O4 0.000000 0.500000 0.000000
O O5 0.500000 0.674287 0.750000
O O6 0.337632 0.603262 0.639615
O O7 0.787648 0.714912 0.743561
O O8 0.490217 0.701616 0.482931
O O9 0.000000 0.000000 0.000000
O O10 0.674643 0.180532 0.212528
O O11 0.750000 0.250000 0.000000
#
# Coordination Sequence:
#
# PCOD9274828 Si02
#       5
#     8   8   8   8   4
#     4  12  26  44  68 104 136 183 227 281 345 410
#     4  10  21  38  68  96 133 175 230 269 339 404
#     4  12  25  45  69 104 140 178 228 286 348 406
#     4  10  20  38  65  96 125 184 219 269 333 408
#     4  12  22  42  72  92 142 174 236 270 338 410
#
# _framework density 22.198699000000001
#
# number of rings (size 3 to 8) (size 9 to 14) (size 15 to 20)
#    0.000    0.889    5.556    3.333    6.222    0.000 
#    0.000    1.111    4.889    0.000    0.000    0.000 
#    0.000    0.000    0.000    0.000    0.000    0.000 
#
# Total GULP energy -100338.654839 kJ/mol
# GULP energy per Si atom -5574.369713 kJ/mol
# Density = 2.214817 g / cm^3
# Si number density = 22.198699 Si / 1000 Ang^3
#
#
#
# Elastic Constant Matrix: (Units=GPa)
#
#
# Indices 1 2 3 4 5 6 
#
# 1 43.4577 13.7535 13.1092 0.0000 5.3891 0.0000
# 2 13.7535 133.6102 39.2568 0.0000 -7.1600 0.0000
# 3 13.1092 39.2568 76.2039 0.0000 -14.4302 0.0000
# 4 0.0000 0.0000 0.0000 55.4855 0.0000 4.0082
# 5 5.3891 -7.1600 -14.4302 0.0000 42.4726 0.0000
# 6 0.0000 0.0000 0.0000 4.0082 0.0000 -4.4137
#
#
#
# Elastic Compliance Matrix: (Units=1/GPa)
#
#
# Indices 1 2 3 4 5 6 
#
# 1 0.025499 -0.001562 -0.004536 0.000000 -0.005040 0.000000
# 2 -0.001562 0.008915 -0.004277 0.000000 0.000248 0.000000
# 3 -0.004536 -0.004277 0.017184 0.000000 0.005693 0.000000
# 4 0.000000 0.000000 0.000000 0.016913 0.000000 0.015359
# 5 -0.005040 0.000248 0.005693 0.000000 0.026160 0.000000
# 6 0.000000 0.000000 0.000000 0.015359 0.000000 -0.212617
#
#
# Mechanical properties :
#
#
# Convention : Reuss Voigt Hill
#
# Bulk Modulus (GPa) = 32.41728 42.83454 37.62591
# Shear Modulus (GPa) = -57.52899 31.18569 -13.17165
#
# Velocity S-wave (km/s) = -5.09625 3.75219 -2.43852
# Velocity P-wave (km/s) = 4.47147 6.17331 3.00963
#
# Compressibility (1/GPa) = 0.03084775
#
# Stress axis : x y z
#
# Youngs Moduli (GPa) = 39.21789 112.16791 58.19234
#
# Poissons Ratio (x) = 0.17521 0.26397
# Poissons Ratio (y) = 0.06126 0.24889
# Poissons Ratio (z) = 0.17790 0.47975
#
# Static dielectric constant tensor:
#      x y z
#    x 1.914440 0.000000 0.067750 
#    y 0.000000 1.708840 0.000000 
#    z 0.067750 0.000000 1.810440 
# 
# From -- ./inp_files/23343.got.cif
#   From: 2010.05.17/outbox.cif.g08.bks.cpg/sg15_12_cif.got.tgz:23343.got - 2010.06.03 18:47:42.
