data_PCOD9274524
_publ_section_title
;
Structure prediction by ZEFSAII (Michael W. Deem and Ramdas Pophale) SiO2 
 PCOD9274524
Probable space group: C 2/C
;
_chemical_formula_sum "Si O2"
_cell_formula_units_Z 52
_cell_length_a 7.333203
_cell_length_b 19.813630
_cell_length_c 19.001866
_cell_angle_alpha 90.000000
_cell_angle_beta 127.071749
_cell_angle_gamma 90.000000
_cell_volume 2202.887257
_symmetry_space_group_name_H-M "C 2/C"
_symmetry_group_IT_number 15
_symmetry_cell_setting 'monoclinic'
loop_
_space_group_symop_operation_xyz
x,y,z
-x,y,1/2-z
-x,-y,-z
x,-y,1/2+z
1/2+x,1/2+y,z
1/2-x,1/2+y,1/2-z
1/2-x,1/2-y,-z
1/2+x,1/2-y,1/2+z
loop_
_atom_site_type_symbol
_atom_site_label
_atom_site_fract_x
_atom_site_fract_y
_atom_site_fract_z
Si Si1 0.872554 0.301589 0.821777
Si Si2 0.000000 0.541844 0.750000
Si Si3 0.773285 0.494028 0.064310
Si Si4 0.817826 0.372880 0.505313
Si Si5 0.485560 0.704552 0.137777
Si Si6 0.365972 0.159280 0.548906
Si Si7 0.907749 0.858560 0.308464
O O1 0.690662 0.317266 0.842024
O O2 0.735140 0.320974 0.718556
O O3 0.884041 0.221295 0.814934
O O4 0.107998 0.331603 0.907401
O O5 0.121988 0.494556 0.834885
O O6 0.192289 0.592273 0.764603
O O7 0.877203 0.549716 0.036525
O O8 0.844741 0.417623 0.065579
O O9 0.500000 0.500000 0.000000
O O10 0.567543 0.376544 0.412909
O O11 0.957944 0.339209 0.474597
O O12 0.457692 0.786126 0.125730
O O13 0.380287 0.680525 0.039542
O O14 0.000000 0.868047 0.250000
#
# Coordination Sequence:
#
# PCOD9274524 Si02
#       7
#     8   4   8   8   8   8   8
#     4  10  20  38  63  98 140 171 222 280 339 407
#     4  12  26  48  72  94 138 186 230 282 344 420
#     4  12  25  45  66  93 136 182 224 278 341 410
#     4  11  24  42  65  98 135 176 226 284 339 406
#     4   9  19  38  68 100 133 181 219 280 352 396
#     4  10  21  40  70  99 134 176 231 282 337 409
#     4  12  24  43  70 103 131 177 230 283 342 410
#
# _framework density 23.605384000000001
#
# number of rings (size 3 to 8) (size 9 to 14) (size 15 to 20)
#    0.000    1.231    1.538    5.538    0.000    1.231 
#    6.923    0.000    0.000    0.923    0.000    0.000 
#    0.000    0.000    0.000    0.000    0.000    0.000 
#
# Total GULP energy -145211.820789 kJ/mol
# GULP energy per Si atom -5585.070030 kJ/mol
# Density = 2.355166 g / cm^3
# Si number density = 23.605384 Si / 1000 Ang^3
#
#
#
# Elastic Constant Matrix: (Units=GPa)
#
#
# Indices 1 2 3 4 5 6 
#
# 1 62.5484 -11.9932 27.2641 0.0000 7.4911 0.0000
# 2 -11.9932 53.2052 37.7175 0.0000 4.7277 0.0000
# 3 27.2641 37.7175 206.1287 0.0000 25.6250 0.0000
# 4 0.0000 0.0000 0.0000 40.0100 0.0000 -6.0660
# 5 7.4911 4.7277 25.6250 0.0000 31.2550 0.0000
# 6 0.0000 0.0000 0.0000 -6.0660 0.0000 12.9252
#
#
#
# Elastic Compliance Matrix: (Units=1/GPa)
#
#
# Indices 1 2 3 4 5 6 
#
# 1 0.019190 0.007040 -0.003477 0.000000 -0.002814 0.000000
# 2 0.007040 0.024180 -0.005224 0.000000 -0.001062 0.000000
# 3 -0.003477 -0.005224 0.006754 0.000000 -0.003914 0.000000
# 4 0.000000 0.000000 0.000000 0.026908 0.000000 0.012629
# 5 -0.002814 -0.001062 -0.003914 0.000000 0.036039 0.000000
# 6 0.000000 0.000000 0.000000 0.012629 0.000000 0.083295
#
#
# Mechanical properties :
#
#
# Convention : Reuss Voigt Hill
#
# Bulk Modulus (GPa) = 21.36597 47.53987 34.45292
# Shear Modulus (GPa) = 23.22494 34.76430 28.99462
#
# Velocity S-wave (km/s) = 3.14009 3.84178 3.50852
# Velocity P-wave (km/s) = 4.71358 6.31365 5.57136
#
# Compressibility (1/GPa) = 0.04680341
#
# Stress axis : x y z
#
# Youngs Moduli (GPa) = 52.11048 41.35730 148.07114
#
# Poissons Ratio (x) = -0.29117 0.51479
# Poissons Ratio (y) = -0.36688 0.77345
# Poissons Ratio (z) = 0.18117 0.21603
#
# Static dielectric constant tensor:
#      x y z
#    x 1.952110 0.000000 0.029870 
#    y 0.000000 1.867080 0.000000 
#    z 0.029870 0.000000 2.067600 
# 
# From -- ./inp_files/233094.got.cif
#   From: 2010.05.17/outbox.cif.g08.bks.cpg/sg15_117_cif.got.tgz:233094.got - 2010.06.03 18:47:42.
