data_PCOD9274187
_publ_section_title
;
Structure prediction by ZEFSAII (Michael W. Deem and Ramdas Pophale) SiO2 
 PCOD9274187
Probable space group: C 2/C
;
_chemical_formula_sum "Si O2"
_cell_formula_units_Z 60
_cell_length_a 13.056479
_cell_length_b 26.555461
_cell_length_c 8.226308
_cell_angle_alpha 90.000000
_cell_angle_beta 89.571243
_cell_angle_gamma 90.000000
_cell_volume 2852.152386
_symmetry_space_group_name_H-M "C 2/C"
_symmetry_group_IT_number 15
_symmetry_cell_setting 'monoclinic'
loop_
_space_group_symop_operation_xyz
x,y,z
-x,y,1/2-z
-x,-y,-z
x,-y,1/2+z
1/2+x,1/2+y,z
1/2-x,1/2+y,1/2-z
1/2-x,1/2-y,-z
1/2+x,1/2-y,1/2+z
loop_
_atom_site_type_symbol
_atom_site_label
_atom_site_fract_x
_atom_site_fract_y
_atom_site_fract_z
Si Si1 0.961810 0.446863 0.567484
Si Si2 0.106536 0.841676 0.658540
Si Si3 0.639272 0.534827 0.479473
Si Si4 0.630195 0.751945 0.949698
Si Si5 0.228119 0.061284 0.152996
Si Si6 0.213362 0.709996 0.128074
Si Si7 0.500000 0.535370 0.750000
Si Si8 0.981071 0.657684 0.446809
O O1 0.842143 0.434072 0.587055
O O2 0.000000 0.448599 0.750000
O O3 0.000000 0.500000 0.500000
O O4 0.005156 0.397442 0.479379
O O5 0.086139 0.799629 0.521585
O O6 0.155998 0.893396 0.593101
O O7 0.193588 0.817520 0.777989
O O8 0.000000 0.852710 0.750000
O O9 0.712970 0.562249 0.349681
O O10 0.696539 0.492843 0.583984
O O11 0.571497 0.563732 0.616784
O O12 0.565571 0.502708 0.361342
O O13 0.641441 0.760308 0.757914
O O14 0.561011 0.799649 0.007611
O O15 0.750000 0.750000 0.000000
O O16 0.136519 0.672877 0.037708
O O17 0.250000 0.750000 0.000000
O O18 0.000000 0.653639 0.250000
#
# Coordination Sequence:
#
# PCOD9274187 Si02
#       8
#     8   8   8   8   8   8   4   8
#     4  11  22  39  60  87 121 159 212 261 309 369
#     4  11  23  36  58  90 122 158 206 263 320 385
#     4   9  19  34  59  80 113 156 209 251 307 374
#     4   9  18  36  59  86 117 152 202 252 309 380
#     4  11  22  38  60  87 121 166 210 266 324 378
#     4  10  20  38  62  85 117 154 204 255 316 387
#     4   8  16  32  56  78 104 150 210 240 300 366
#     4   9  18  36  64  83 111 164 198 241 315 368
#
# _framework density 21.036743000000001
#
# number of rings (size 3 to 8) (size 9 to 14) (size 15 to 20)
#    0.000    2.133    0.000    4.800    5.600    0.000 
#    0.000    8.667    4.400    0.000    0.000    0.000 
#    0.000    0.000    0.000    0.000    0.000    0.000 
#
# Total GULP energy -167121.076373 kJ/mol
# GULP energy per Si atom -5570.702546 kJ/mol
# Density = 2.098886 g / cm^3
# Si number density = 21.036743 Si / 1000 Ang^3
#
#
#
# Elastic Constant Matrix: (Units=GPa)
#
#
# Indices 1 2 3 4 5 6 
#
# 1 112.8306 47.1038 14.6104 0.0000 -14.1670 0.0000
# 2 47.1038 134.9226 25.1118 0.0000 -17.3044 0.0000
# 3 14.6104 25.1118 47.3652 0.0000 -13.6862 0.0000
# 4 0.0000 0.0000 0.0000 41.5815 0.0000 21.7548
# 5 -14.1670 -17.3044 -13.6862 0.0000 24.1819 0.0000
# 6 0.0000 0.0000 0.0000 21.7548 0.0000 92.9986
#
#
#
# Elastic Compliance Matrix: (Units=1/GPa)
#
#
# Indices 1 2 3 4 5 6 
#
# 1 0.010721 -0.003164 -0.000561 0.000000 0.003699 0.000000
# 2 -0.003164 0.009509 -0.003150 0.000000 0.003168 0.000000
# 3 -0.000561 -0.003150 0.026551 0.000000 0.012445 0.000000
# 4 0.000000 0.000000 0.000000 0.027403 0.000000 -0.006410
# 5 0.003699 0.003168 0.012445 0.000000 0.052831 0.000000
# 6 0.000000 0.000000 0.000000 -0.006410 0.000000 0.012252
#
#
# Mechanical properties :
#
#
# Convention : Reuss Voigt Hill
#
# Bulk Modulus (GPa) = 30.27364 52.08561 41.17963
# Shear Modulus (GPa) = 30.48275 45.63853 38.06064
#
# Velocity S-wave (km/s) = 3.81073 4.66281 4.25814
# Velocity P-wave (km/s) = 5.81243 7.33499 6.61765
#
# Compressibility (1/GPa) = 0.03303203
#
# Stress axis : x y z
#
# Youngs Moduli (GPa) = 93.27631 105.16502 37.66281
#
# Poissons Ratio (x) = 0.33275 0.02111
# Poissons Ratio (y) = 0.29513 0.11864
# Poissons Ratio (z) = 0.05228 0.33127
#
# Static dielectric constant tensor:
#      x y z
#    x 1.656240 0.000000 0.011930 
#    y 0.000000 1.814230 0.000000 
#    z 0.011930 0.000000 1.774070 
# 
# From -- ./inp_files/42208.got.cif
#   From: 2010.05.17/outbox.cif.g08.bks.cpg/sg15_22_cif.got.tgz:42208.got - 2010.06.03 18:47:42.
