data_PCOD9274112
_publ_section_title
;
Structure prediction by ZEFSAII (Michael W. Deem and Ramdas Pophale) SiO2 
 PCOD9274112
Probable space group: C 2/C
;
_chemical_formula_sum "Si O2"
_cell_formula_units_Z 52
_cell_length_a 9.557386
_cell_length_b 15.229024
_cell_length_c 28.931171
_cell_angle_alpha 90.000000
_cell_angle_beta 37.647162
_cell_angle_gamma 90.000000
_cell_volume 2572.019090
_symmetry_space_group_name_H-M "C 2/C"
_symmetry_group_IT_number 15
_symmetry_cell_setting 'monoclinic'
loop_
_space_group_symop_operation_xyz
x,y,z
-x,y,1/2-z
-x,-y,-z
x,-y,1/2+z
1/2+x,1/2+y,z
1/2-x,1/2+y,1/2-z
1/2-x,1/2-y,-z
1/2+x,1/2-y,1/2+z
loop_
_atom_site_type_symbol
_atom_site_label
_atom_site_fract_x
_atom_site_fract_y
_atom_site_fract_z
Si Si1 0.269087 0.103250 0.923211
Si Si2 0.744930 0.395659 0.947736
Si Si3 0.500000 0.349013 0.750000
Si Si4 0.575403 0.878989 0.019725
Si Si5 0.318551 0.226474 0.713864
Si Si6 0.193130 0.747751 0.142230
Si Si7 0.868655 0.570306 0.091202
O O1 0.268222 0.135219 0.976745
O O2 0.489223 0.149942 0.842590
O O3 0.278436 0.997558 0.923973
O O4 0.017558 0.123525 0.970107
O O5 0.826805 0.339068 0.882946
O O6 0.901844 0.382082 0.951325
O O7 0.403769 0.289034 0.733125
O O8 0.310332 0.411258 0.822156
O O9 0.386460 0.804928 0.067193
O O10 0.436029 0.969420 0.065622
O O11 0.708208 0.889917 0.937400
O O12 0.281155 0.266737 0.671899
O O13 0.052801 0.202717 0.794045
#
# Coordination Sequence:
#
# PCOD9274112 Si02
#       7
#     8   8   4   8   8   8   8
#     4   9  21  39  63  86 124 160 206 257 311 372
#     4  10  20  38  61  91 119 158 206 258 308 368
#     4  12  24  38  60  90 124 162 198 264 310 376
#     4   9  21  39  63  88 116 164 208 251 304 370
#     4  10  23  40  57  88 124 158 209 253 316 367
#     4  10  21  40  63  87 118 165 211 252 308 377
#     4  10  22  39  58  91 125 156 205 252 312 372
#
# _framework density 20.217578
#
# number of rings (size 3 to 8) (size 9 to 14) (size 15 to 20)
#    0.000    2.154    1.538    0.000    4.308    6.769 
#    0.000    1.538    0.000    0.000    0.000    0.000 
#    0.000    0.000    0.000    0.000    0.000    0.000 
#
# Total GULP energy -144969.061095 kJ/mol
# GULP energy per Si atom -5575.733119 kJ/mol
# Density = 2.017156 g / cm^3
# Si number density = 20.217578 Si / 1000 Ang^3
#
#
#
# Elastic Constant Matrix: (Units=GPa)
#
#
# Indices 1 2 3 4 5 6 
#
# 1 71.6930 27.8747 27.3968 0.0006 -10.1063 -0.0001
# 2 27.8747 48.5642 40.2113 0.0003 1.0290 0.0001
# 3 27.3968 40.2113 84.2201 0.0004 -5.7713 -0.0010
# 4 0.0006 0.0003 0.0004 27.8036 -0.0017 2.5499
# 5 -10.1063 1.0290 -5.7713 -0.0017 31.8848 0.0003
# 6 -0.0001 0.0001 -0.0010 2.5499 0.0003 20.5060
#
#
#
# Elastic Compliance Matrix: (Units=1/GPa)
#
#
# Indices 1 2 3 4 5 6 
#
# 1 0.019226 -0.010496 -0.000812 0.000000 0.006286 0.000000
# 2 -0.010496 0.040320 -0.016357 0.000000 -0.007589 -0.000001
# 3 -0.000812 -0.016357 0.020217 0.000000 0.003930 0.000001
# 4 0.000000 0.000000 0.000000 0.036381 0.000002 -0.004524
# 5 0.006286 -0.007589 0.003930 0.000002 0.034311 -0.000001
# 6 0.000000 -0.000001 0.000001 -0.004524 -0.000001 0.049329
#
#
# Mechanical properties :
#
#
# Convention : Reuss Voigt Hill
#
# Bulk Modulus (GPa) = 40.92824 43.93812 42.43318
# Shear Modulus (GPa) = 18.99284 23.30517 21.14901
#
# Velocity S-wave (km/s) = 3.06832 3.39885 3.23781
# Velocity P-wave (km/s) = 5.73068 6.09777 5.91707
#
# Compressibility (1/GPa) = 0.02443301
#
# Stress axis : x y z
#
# Youngs Moduli (GPa) = 52.01407 24.80171 49.46412
#
# Poissons Ratio (x) = 0.26031 0.04017
# Poissons Ratio (y) = 0.54593 0.80907
# Poissons Ratio (z) = 0.04224 0.40567
#
# Static dielectric constant tensor:
#      x y z
#    x 1.737890 0.000000 -0.017400 
#    y 0.000000 1.717400 0.000000 
#    z -0.017400 0.000000 1.704330 
# 
# From -- ./inp_files/289551.got.cif
#   From: 2010.05.17/outbox.cif.g08.bks.cpg/sg15_145_cif.got.tgz:289551.got - 2010.06.03 18:47:42.
