data_PCOD9274916
_publ_section_title
;
Structure prediction by ZEFSAII (Michael W. Deem and Ramdas Pophale) SiO2 
 PCOD9274916
Probable space group: C 2/C
;
_chemical_formula_sum "Si O2"
_cell_formula_units_Z 44
_cell_length_a 9.935383
_cell_length_b 12.221118
_cell_length_c 26.094253
_cell_angle_alpha 90.000000
_cell_angle_beta 29.729795
_cell_angle_gamma 90.000000
_cell_volume 1571.243721
_symmetry_space_group_name_H-M "C 2/C"
_symmetry_group_IT_number 15
_symmetry_cell_setting 'monoclinic'
loop_
_space_group_symop_operation_xyz
x,y,z
-x,y,1/2-z
-x,-y,-z
x,-y,1/2+z
1/2+x,1/2+y,z
1/2-x,1/2+y,1/2-z
1/2-x,1/2-y,-z
1/2+x,1/2-y,1/2+z
loop_
_atom_site_type_symbol
_atom_site_label
_atom_site_fract_x
_atom_site_fract_y
_atom_site_fract_z
Si Si1 0.385831 0.633098 0.896240
Si Si2 0.000000 0.866647 0.250000
Si Si3 0.353500 0.608071 0.205905
Si Si4 0.933262 0.156121 0.465938
Si Si5 0.755133 0.281939 0.362267
Si Si6 0.512316 0.970935 0.590723
O O1 0.968103 0.799065 0.108160
O O2 0.086092 0.602511 0.016791
O O3 0.441074 0.690350 0.823672
O O4 0.518632 0.513583 0.841578
O O5 0.731917 0.944043 0.337334
O O6 0.552215 0.684691 0.175939
O O7 0.082706 0.592386 0.327828
O O8 0.333767 0.648265 0.153961
O O9 0.750000 0.250000 0.500000
O O10 0.915221 0.179327 0.531836
O O11 0.776071 0.041253 0.514364
O O12 0.000000 0.345660 0.250000
#
# Coordination Sequence:
#
# PCOD9274916 Si02
#       6
#     8   4   8   8   8   8
#     4  10  22  40  68 106 137 197 256 302 383 460
#     4  10  20  38  66  92 146 186 244 304 372 446
#     4   9  21  39  69 100 149 196 242 310 382 448
#     4   9  20  42  70 102 151 195 242 314 386 443
#     4  11  22  40  71 105 148 194 249 314 380 448
#     4  10  20  39  71 103 134 203 252 298 386 458
#
# _framework density 28.003294
#
# number of rings (size 3 to 8) (size 9 to 14) (size 15 to 20)
#    0.000    2.182    0.000    2.727    5.091    2.909 
#    3.273    5.455   24.000    0.000    7.091    0.000 
#    0.000    0.000    0.000    0.000    0.000    0.000 
#
# Total GULP energy -122822.673759 kJ/mol
# GULP energy per Si atom -5582.848807 kJ/mol
# Density = 2.793956 g / cm^3
# Si number density = 28.003294 Si / 1000 Ang^3
#
#
#
# Elastic Constant Matrix: (Units=GPa)
#
#
# Indices 1 2 3 4 5 6 
#
# 1 155.6145 45.1646 100.3513 -0.0003 74.5983 0.0008
# 2 45.1646 84.7900 51.7197 0.0043 29.5705 0.0021
# 3 100.3513 51.7197 315.8826 0.0026 69.7176 0.0011
# 4 -0.0003 0.0043 0.0026 51.9670 0.0010 10.5144
# 5 74.5983 29.5705 69.7176 0.0010 72.5334 0.0004
# 6 0.0008 0.0021 0.0011 10.5144 0.0004 38.5544
#
#
#
# Elastic Compliance Matrix: (Units=1/GPa)
#
#
# Indices 1 2 3 4 5 6 
#
# 1 0.013600 -0.002327 -0.001348 0.000001 -0.011743 0.000000
# 2 -0.002327 0.014572 -0.001096 -0.000001 -0.002494 0.000000
# 3 -0.001348 -0.001096 0.004276 0.000000 -0.002277 0.000000
# 4 0.000001 -0.000001 0.000000 0.020367 0.000000 -0.005554
# 5 -0.011743 -0.002494 -0.002277 0.000000 0.029069 0.000000
# 6 0.000000 0.000000 0.000000 -0.005554 0.000000 0.027452
#
#
# Mechanical properties :
#
#
# Convention : Reuss Voigt Hill
#
# Bulk Modulus (GPa) = 43.65640 105.63982 74.64811
# Shear Modulus (GPa) = 39.52176 56.54773 48.03474
#
# Velocity S-wave (km/s) = 3.76084 4.49856 4.14614
# Velocity P-wave (km/s) = 5.87215 8.04915 7.04524
#
# Compressibility (1/GPa) = 0.02290615
#
# Stress axis : x y z
#
# Youngs Moduli (GPa) = 73.52960 68.62648 233.86857
#
# Poissons Ratio (x) = 0.15967 0.31520
# Poissons Ratio (y) = 0.17108 0.25637
# Poissons Ratio (z) = 0.09910 0.07523
#
# Static dielectric constant tensor:
#      x y z
#    x 2.437810 0.000100 0.097370 
#    y 0.000100 2.368890 0.000060 
#    z 0.097370 0.000060 2.206920 
# 
# From -- ./inp_files/198648.got.cif
#   From: 2010.05.17/outbox.cif.g08.bks.cpg/sg15_100_cif.got.tgz:198648.got - 2010.06.03 18:47:42.
