data_PCOD9274611
_publ_section_title
;
Structure prediction by ZEFSAII (Michael W. Deem and Ramdas Pophale) SiO2 
 PCOD9274611
Probable space group: C 2/C
;
_chemical_formula_sum "Si O2"
_cell_formula_units_Z 48
_cell_length_a 13.283946
_cell_length_b 10.860343
_cell_length_c 25.029495
_cell_angle_alpha 90.000000
_cell_angle_beta 144.962227
_cell_angle_gamma 90.000000
_cell_volume 2073.111422
_symmetry_space_group_name_H-M "C 2/C"
_symmetry_group_IT_number 15
_symmetry_cell_setting 'monoclinic'
loop_
_space_group_symop_operation_xyz
x,y,z
-x,y,1/2-z
-x,-y,-z
x,-y,1/2+z
1/2+x,1/2+y,z
1/2-x,1/2+y,1/2-z
1/2-x,1/2-y,-z
1/2+x,1/2-y,1/2+z
loop_
_atom_site_type_symbol
_atom_site_label
_atom_site_fract_x
_atom_site_fract_y
_atom_site_fract_z
Si Si1 0.454226 0.484125 0.880017
Si Si2 0.288501 0.667056 0.466739
Si Si3 0.743617 0.675986 0.838879
Si Si4 0.398624 0.238272 0.520285
Si Si5 0.938646 0.588614 0.281519
Si Si6 0.860185 0.920969 0.652348
O O1 0.245208 0.472563 0.782509
O O2 0.549947 0.463182 0.864498
O O3 0.527491 0.603967 0.940594
O O4 0.523260 0.375276 0.948765
O O5 0.250000 0.750000 0.500000
O O6 0.282184 0.745422 0.409682
O O7 0.118176 0.576860 0.392193
O O8 0.612500 0.764058 0.748220
O O9 0.686504 0.542993 0.834218
O O10 0.926999 0.664084 0.887656
O O11 0.250000 0.250000 0.500000
O O12 0.305710 0.164643 0.432365
O O13 0.000000 0.544175 0.250000
O O14 0.000000 0.850767 0.750000
#
# Coordination Sequence:
#
# PCOD9274611 Si02
#       6
#     8   8   8   8   8   8
#     4  10  22  42  62  93 131 162 209 272 322 374
#     4  11  21  38  66  95 125 166 221 256 315 396
#     4  10  20  38  64  89 122 163 217 266 314 375
#     4   9  21  40  59  85 125 169 199 259 326 376
#     4   9  21  39  61  90 127 167 209 268 324 372
#     4  11  21  38  62  90 125 163 216 259 318 381
#
# _framework density 23.153604000000001
#
# number of rings (size 3 to 8) (size 9 to 14) (size 15 to 20)
#    0.000    2.000    1.667    2.000    0.000    7.333 
#    6.000    5.833    0.000    0.000    0.000    0.000 
#    0.000    0.000    0.000    0.000    0.000    0.000 
#
# Total GULP energy -133926.521510 kJ/mol
# GULP energy per Si atom -5580.271730 kJ/mol
# Density = 2.310091 g / cm^3
# Si number density = 23.153604 Si / 1000 Ang^3
#
#
#
# Elastic Constant Matrix: (Units=GPa)
#
#
# Indices 1 2 3 4 5 6 
#
# 1 75.8799 5.8884 19.0903 0.0000 26.8424 0.0000
# 2 5.8884 50.2339 14.4306 0.0000 1.3805 0.0000
# 3 19.0903 14.4306 92.9328 0.0000 15.7738 0.0000
# 4 0.0000 0.0000 0.0000 30.4504 0.0000 7.6289
# 5 26.8424 1.3805 15.7738 0.0000 41.2594 0.0000
# 6 0.0000 0.0000 0.0000 7.6289 0.0000 21.9792
#
#
#
# Elastic Compliance Matrix: (Units=1/GPa)
#
#
# Indices 1 2 3 4 5 6 
#
# 1 0.017466 -0.001303 -0.001566 0.000000 -0.010721 0.000000
# 2 -0.001303 0.020946 -0.003219 0.000000 0.001377 0.000000
# 3 -0.001566 -0.003219 0.012181 0.000000 -0.003531 0.000000
# 4 0.000000 0.000000 0.000000 0.035968 0.000000 -0.012484
# 5 -0.010721 0.001377 -0.003531 0.000000 0.032515 0.000000
# 6 0.000000 0.000000 0.000000 -0.012484 0.000000 0.049831
#
#
# Mechanical properties :
#
#
# Convention : Reuss Voigt Hill
#
# Bulk Modulus (GPa) = 26.02894 33.09613 29.56253
# Shear Modulus (GPa) = 25.78790 30.71362 28.25076
#
# Velocity S-wave (km/s) = 3.34095 3.64609 3.49685
# Velocity P-wave (km/s) = 5.11359 5.66131 5.39441
#
# Compressibility (1/GPa) = 0.03841878
#
# Stress axis : x y z
#
# Youngs Moduli (GPa) = 57.25310 47.74092 82.09389
#
# Poissons Ratio (x) = 0.06220 0.12855
# Poissons Ratio (y) = 0.07460 0.26423
# Poissons Ratio (z) = 0.08965 0.15366
#
# Static dielectric constant tensor:
#      x y z
#    x 1.913910 0.000000 0.055660 
#    y 0.000000 1.916620 0.000000 
#    z 0.055660 0.000000 1.897840 
# 
# From -- ./inp_files/296206.got.cif
#   From: 2010.05.17/outbox.cif.g08.bks.cpg/sg15_149_cif.got.tgz:296206.got - 2010.06.03 18:47:42.
