data_PCOD9274994
_publ_section_title
;
Structure prediction by ZEFSAII (Michael W. Deem and Ramdas Pophale) SiO2 
 PCOD9274994
Probable space group: C 2/C
;
_chemical_formula_sum "Si O2"
_cell_formula_units_Z 32
_cell_length_a 12.063508
_cell_length_b 7.793329
_cell_length_c 12.669296
_cell_angle_alpha 90.000000
_cell_angle_beta 82.903734
_cell_angle_gamma 90.000000
_cell_volume 1181.978573
_symmetry_space_group_name_H-M "C 2/C"
_symmetry_group_IT_number 15
_symmetry_cell_setting 'monoclinic'
loop_
_space_group_symop_operation_xyz
x,y,z
-x,y,1/2-z
-x,-y,-z
x,-y,1/2+z
1/2+x,1/2+y,z
1/2-x,1/2+y,1/2-z
1/2-x,1/2-y,-z
1/2+x,1/2-y,1/2+z
loop_
_atom_site_type_symbol
_atom_site_label
_atom_site_fract_x
_atom_site_fract_y
_atom_site_fract_z
Si Si1 0.250000 0.250000 0.000000
Si Si2 0.918399 0.711561 0.410711
Si Si3 0.381995 0.959589 0.116143
Si Si4 0.000000 0.001821 0.250000
Si Si5 0.276423 0.530496 0.174160
O O1 0.315364 0.086591 0.045030
O O2 0.299706 0.379205 0.088216
O O3 0.913601 0.701905 0.537871
O O4 0.961726 0.883363 0.352140
O O5 0.798604 0.673209 0.374160
O O6 0.002726 0.557385 0.371352
O O7 0.306985 0.952189 0.228101
O O8 0.887147 0.090959 0.224132
#
# Coordination Sequence:
#
# PCOD9274994 Si02
#       5
#     4   8   8   4   8
#     4  10  20  38  68  96 130 172 222 272 332 396
#     4  10  20  39  64  92 129 173 221 280 328 400
#     4  10  20  38  67  93 130 175 224 276 338 392
#     4  12  22  40  66  92 136 178 218 284 336 388
#     4  11  21  37  66  96 129 179 219 274 338 400
#
# _framework density 27.073248
#
# number of rings (size 3 to 8) (size 9 to 14) (size 15 to 20)
#    0.000    1.500    5.000    0.000    0.000    1.000 
#    0.000    5.000   44.000    0.000    0.000    0.000 
#    0.000    0.000    0.000    0.000    0.000    0.000 
#
# Total GULP energy -89181.043200 kJ/mol
# GULP energy per Si atom -5573.815200 kJ/mol
# Density = 2.701163 g / cm^3
# Si number density = 27.073248 Si / 1000 Ang^3
#
#
#
# Elastic Constant Matrix: (Units=GPa)
#
#
# Indices 1 2 3 4 5 6 
#
# 1 169.4429 18.3069 51.0332 0.0000 26.4096 0.0000
# 2 18.3069 41.2333 14.7204 0.0000 -3.2599 0.0000
# 3 51.0332 14.7204 98.4934 0.0000 16.0087 0.0000
# 4 0.0000 0.0000 0.0000 28.6811 0.0000 8.8284
# 5 26.4096 -3.2599 16.0087 0.0000 39.4918 0.0000
# 6 0.0000 0.0000 0.0000 8.8284 0.0000 38.4954
#
#
#
# Elastic Compliance Matrix: (Units=1/GPa)
#
#
# Indices 1 2 3 4 5 6 
#
# 1 0.007730 -0.002725 -0.002913 0.000000 -0.004214 0.000000
# 2 -0.002725 0.027161 -0.003541 0.000000 0.005500 0.000000
# 3 -0.002913 -0.003541 0.012763 0.000000 -0.003518 0.000000
# 4 0.000000 0.000000 0.000000 0.037514 0.000000 -0.008603
# 5 -0.004214 0.005500 -0.003518 0.000000 0.030020 0.000000
# 6 0.000000 0.000000 0.000000 -0.008603 0.000000 0.027950
#
#
# Mechanical properties :
#
#
# Convention : Reuss Voigt Hill
#
# Bulk Modulus (GPa) = 34.13483 53.03227 43.58355
# Shear Modulus (GPa) = 29.19470 36.34094 32.76782
#
# Velocity S-wave (km/s) = 3.28740 3.66774 3.48277
# Velocity P-wave (km/s) = 5.20048 6.12923 5.68386
#
# Compressibility (1/GPa) = 0.02929559
#
# Stress axis : x y z
#
# Youngs Moduli (GPa) = 129.36177 36.81704 78.34850
#
# Poissons Ratio (x) = 0.10033 0.22824
# Poissons Ratio (y) = 0.35254 0.27746
# Poissons Ratio (z) = 0.37686 0.13038
#
# Static dielectric constant tensor:
#      x y z
#    x 2.212170 0.000000 -0.150340 
#    y 0.000000 2.125720 0.000000 
#    z -0.150340 0.000000 2.191010 
# 
# From -- ./inp_files/84073.got.cif
#   From: 2010.05.17/outbox.cif.g08.bks.cpg/sg15_43_cif.got.tgz:84073.got - 2010.06.03 18:47:42.
