data_PCOD9274625
_publ_section_title
;
Structure prediction by ZEFSAII (Michael W. Deem and Ramdas Pophale) SiO2 
 PCOD9274625
Probable space group: C 2/C
;
_chemical_formula_sum "Si O2"
_cell_formula_units_Z 56
_cell_length_a 21.522003
_cell_length_b 17.642914
_cell_length_c 12.696701
_cell_angle_alpha 90.000000
_cell_angle_beta 148.338516
_cell_angle_gamma 90.000000
_cell_volume 2530.580349
_symmetry_space_group_name_H-M "C 2/C"
_symmetry_group_IT_number 15
_symmetry_cell_setting 'monoclinic'
loop_
_space_group_symop_operation_xyz
x,y,z
-x,y,1/2-z
-x,-y,-z
x,-y,1/2+z
1/2+x,1/2+y,z
1/2-x,1/2+y,1/2-z
1/2-x,1/2-y,-z
1/2+x,1/2-y,1/2+z
loop_
_atom_site_type_symbol
_atom_site_label
_atom_site_fract_x
_atom_site_fract_y
_atom_site_fract_z
Si Si1 0.374787 0.109198 0.700789
Si Si2 0.678908 0.761110 0.233591
Si Si3 0.456280 0.320128 0.349548
Si Si4 0.246978 0.998990 0.167127
Si Si5 0.000000 0.952341 0.250000
Si Si6 0.852528 0.633485 0.431138
Si Si7 0.500000 0.185361 0.250000
Si Si8 0.216175 0.375333 0.106202
O O1 0.304716 0.181776 0.646354
O O2 0.339550 0.038589 0.721133
O O3 0.348099 0.096042 0.540589
O O4 0.511807 0.132533 0.907884
O O5 0.794115 0.714673 0.366473
O O6 0.651704 0.815757 0.094069
O O7 0.567320 0.704959 0.082855
O O8 0.489997 0.396384 0.335346
O O9 0.444939 0.250983 0.251433
O O10 0.333644 0.338256 0.229938
O O11 0.251872 0.948366 0.279795
O O12 0.278477 0.084533 0.242335
O O13 0.117387 0.998110 0.930167
O O14 0.603805 0.121183 0.369263
#
# Coordination Sequence:
#
# PCOD9274625 Si02
#       8
#     8   8   8   8   4   8   4   8
#     4  10  24  41  66  99 130 171 219 263 328 384
#     4  10  20  41  64  96 128 163 219 272 318 387
#     4  10  20  38  64  90 123 166 213 269 325 377
#     4  11  25  43  61  95 132 170 219 267 318 396
#     4  11  24  42  60  90 125 168 220 264 323 382
#     4  11  22  43  68  92 132 176 213 266 330 385
#     4   9  20  38  60  94 123 160 216 268 325 386
#     4  10  22  38  61  93 127 165 212 266 326 382
#
# _framework density 22.129311000000001
#
# number of rings (size 3 to 8) (size 9 to 14) (size 15 to 20)
#    0.000    1.714    1.429    2.143    2.000    2.857 
#    7.714    5.714    0.000    0.000    0.000    0.000 
#    0.000    0.000    0.000    0.000    0.000    0.000 
#
# Total GULP energy -156126.263985 kJ/mol
# GULP energy per Si atom -5575.937999 kJ/mol
# Density = 2.207894 g / cm^3
# Si number density = 22.129311 Si / 1000 Ang^3
#
#
#
# Elastic Constant Matrix: (Units=GPa)
#
#
# Indices 1 2 3 4 5 6 
#
# 1 66.4756 30.6393 10.2057 0.0000 22.7565 0.0000
# 2 30.6393 65.8850 15.9943 0.0000 10.7879 0.0000
# 3 10.2057 15.9943 87.7284 0.0000 16.6242 0.0000
# 4 0.0000 0.0000 0.0000 41.4922 0.0000 0.9655
# 5 22.7565 10.7879 16.6242 0.0000 32.0808 0.0000
# 6 0.0000 0.0000 0.0000 0.9655 0.0000 24.6021
#
#
#
# Elastic Compliance Matrix: (Units=1/GPa)
#
#
# Indices 1 2 3 4 5 6 
#
# 1 0.024117 -0.009187 0.001692 0.000000 -0.014894 0.000000
# 2 -0.009187 0.019923 -0.002804 0.000000 0.001270 0.000000
# 3 0.001692 -0.002804 0.013043 0.000000 -0.007016 0.000000
# 4 0.000000 0.000000 0.000000 0.024123 0.000000 -0.000947
# 5 -0.014894 0.001270 -0.007016 0.000000 0.044945 0.000000
# 6 0.000000 0.000000 0.000000 -0.000947 0.000000 0.040684
#
#
# Mechanical properties :
#
#
# Convention : Reuss Voigt Hill
#
# Bulk Modulus (GPa) = 27.40984 37.08528 32.24756
# Shear Modulus (GPa) = 25.05076 30.51833 27.78454
#
# Velocity S-wave (km/s) = 3.36820 3.71764 3.54722
# Velocity P-wave (km/s) = 5.24780 5.93486 5.60188
#
# Compressibility (1/GPa) = 0.03648325
#
# Stress axis : x y z
#
# Youngs Moduli (GPa) = 41.46521 50.19292 76.67112
#
# Poissons Ratio (x) = 0.46113 -0.12972
# Poissons Ratio (y) = 0.38095 0.21501
# Poissons Ratio (z) = -0.07015 0.14075
#
# Static dielectric constant tensor:
#      x y z
#    x 1.719010 0.000000 0.164720 
#    y 0.000000 1.795520 0.000000 
#    z 0.164720 0.000000 1.388360 
# 
# From -- ./inp_files/98281.got.cif
#   From: 2010.05.17/outbox.cif.g08.bks.cpg/sg15_50_cif.got.tgz:98281.got - 2010.06.03 18:47:42.
