data_PCOD9274360
_publ_section_title
;
Structure prediction by ZEFSAII (Michael W. Deem and Ramdas Pophale) SiO2 
 PCOD9274360
Probable space group: C 2/C
;
_chemical_formula_sum "Si O2"
_cell_formula_units_Z 56
_cell_length_a 14.290278
_cell_length_b 18.413794
_cell_length_c 11.388025
_cell_angle_alpha 90.000000
_cell_angle_beta 53.071632
_cell_angle_gamma 90.000000
_cell_volume 2395.463760
_symmetry_space_group_name_H-M "C 2/C"
_symmetry_group_IT_number 15
_symmetry_cell_setting 'monoclinic'
loop_
_space_group_symop_operation_xyz
x,y,z
-x,y,1/2-z
-x,-y,-z
x,-y,1/2+z
1/2+x,1/2+y,z
1/2-x,1/2+y,1/2-z
1/2-x,1/2-y,-z
1/2+x,1/2-y,1/2+z
loop_
_atom_site_type_symbol
_atom_site_label
_atom_site_fract_x
_atom_site_fract_y
_atom_site_fract_z
Si Si1 0.058157 0.176509 0.409865
Si Si2 0.173890 0.543753 0.314803
Si Si3 0.000000 0.571731 0.250000
Si Si4 0.062642 0.314441 0.957007
Si Si5 0.285837 0.745039 0.837044
Si Si6 0.500000 0.435612 0.750000
Si Si7 0.409188 0.456038 0.488572
Si Si8 0.833150 0.391857 0.066954
O O1 0.180142 0.218379 0.340967
O O2 0.046056 0.127039 0.537370
O O3 0.958691 0.237910 0.461926
O O4 0.052830 0.118614 0.308027
O O5 0.061031 0.532720 0.314321
O O6 0.151937 0.618248 0.403831
O O7 0.187000 0.473924 0.384393
O O8 0.284495 0.547579 0.145772
O O9 0.889762 0.611329 0.394431
O O10 0.098709 0.282923 0.800883
O O11 0.939263 0.355461 0.059128
O O12 0.277966 0.658347 0.825492
O O13 0.250000 0.750000 0.000000
O O14 0.592177 0.493352 0.625173
O O15 0.500000 0.500000 0.500000
#
# Coordination Sequence:
#
# PCOD9274360 Si02
#       8
#     8   8   4   8   8   4   8   8
#     4  10  23  44  64  99 136 181 237 290 364 428
#     4  11  22  43  66 101 133 180 236 286 353 420
#     4  10  20  38  62  94 136 166 222 284 336 410
#     4  10  21  41  65  94 142 171 226 294 349 424
#     4  11  22  39  66  98 133 176 225 295 363 423
#     4  10  24  46  68  96 140 188 236 290 352 446
#     4  10  23  42  68  96 139 179 236 294 347 425
#     4  10  23  38  64  95 131 177 225 283 342 426
#
# _framework density 23.377518999999999
#
# number of rings (size 3 to 8) (size 9 to 14) (size 15 to 20)
#    0.000    1.714    1.429    3.429    4.000    5.143 
#    2.571    7.143    0.000    0.000    0.000    0.000 
#    0.000    0.000    0.000    0.000    0.000    0.000 
#
# Total GULP energy -155878.898736 kJ/mol
# GULP energy per Si atom -5567.103526 kJ/mol
# Density = 2.332431 g / cm^3
# Si number density = 23.377519 Si / 1000 Ang^3
#
#
#
# Elastic Constant Matrix: (Units=GPa)
#
#
# Indices 1 2 3 4 5 6 
#
# 1 74.8243 23.1685 14.6137 0.0000 -4.3536 0.0000
# 2 23.1685 204.6769 52.9987 0.0000 -1.4457 0.0000
# 3 14.6137 52.9987 64.2616 0.0000 -15.9836 0.0000
# 4 0.0000 0.0000 0.0000 51.9519 0.0000 1.4114
# 5 -4.3536 -1.4457 -15.9836 0.0000 30.0922 0.0000
# 6 0.0000 0.0000 0.0000 1.4114 0.0000 20.9729
#
#
#
# Elastic Compliance Matrix: (Units=1/GPa)
#
#
# Indices 1 2 3 4 5 6 
#
# 1 0.014156 -0.001040 -0.002148 0.000000 0.000857 0.000000
# 2 -0.001040 0.006499 -0.005857 0.000000 -0.002949 0.000000
# 3 -0.002148 -0.005857 0.023889 0.000000 0.012097 0.000000
# 4 0.000000 0.000000 0.000000 0.019284 0.000000 -0.001298
# 5 0.000857 -0.002949 0.012097 0.000000 0.039639 0.000000
# 6 0.000000 0.000000 0.000000 -0.001298 0.000000 0.047768
#
#
# Mechanical properties :
#
#
# Convention : Reuss Voigt Hill
#
# Bulk Modulus (GPa) = 37.80205 58.36939 48.08572
# Shear Modulus (GPa) = 28.06713 37.46887 32.76800
#
# Velocity S-wave (km/s) = 3.46873 4.00781 3.74797
# Velocity P-wave (km/s) = 5.67875 6.81462 6.27245
#
# Compressibility (1/GPa) = 0.02645359
#
# Stress axis : x y z
#
# Youngs Moduli (GPa) = 70.64076 153.86229 41.85959
#
# Poissons Ratio (x) = 0.16003 0.08993
# Poissons Ratio (y) = 0.07347 0.24518
# Poissons Ratio (z) = 0.15176 0.90121
#
# Static dielectric constant tensor:
#      x y z
#    x 1.970620 0.000000 0.014060 
#    y 0.000000 1.934590 0.000000 
#    z 0.014060 0.000000 1.909170 
# 
# From -- ./inp_files/106654.got.cif
#   From: 2010.05.17/outbox.cif.g08.bks.cpg/sg15_54_cif.got.tgz:106654.got - 2010.06.03 18:47:42.
