data_PCOD9274207
_publ_section_title
;
Structure prediction by ZEFSAII (Michael W. Deem and Ramdas Pophale) SiO2 
 PCOD9274207
Probable space group: C 2/C
;
_chemical_formula_sum "Si O2"
_cell_formula_units_Z 52
_cell_length_a 11.958605
_cell_length_b 30.576662
_cell_length_c 8.235360
_cell_angle_alpha 90.000000
_cell_angle_beta 62.807093
_cell_angle_gamma 90.000000
_cell_volume 2678.464713
_symmetry_space_group_name_H-M "C 2/C"
_symmetry_group_IT_number 15
_symmetry_cell_setting 'monoclinic'
loop_
_space_group_symop_operation_xyz
x,y,z
-x,y,1/2-z
-x,-y,-z
x,-y,1/2+z
1/2+x,1/2+y,z
1/2-x,1/2+y,1/2-z
1/2-x,1/2-y,-z
1/2+x,1/2-y,1/2+z
loop_
_atom_site_type_symbol
_atom_site_label
_atom_site_fract_x
_atom_site_fract_y
_atom_site_fract_z
Si Si1 0.066750 0.458633 0.874191
Si Si2 0.848222 0.948800 0.604131
Si Si3 0.965191 0.718598 0.084861
Si Si4 0.094278 0.368618 0.039029
Si Si5 0.863871 0.145039 0.253076
Si Si6 0.292779 0.737982 0.156670
Si Si7 0.000000 0.992388 0.250000
O O1 0.210771 0.467066 0.732259
O O2 0.000000 0.446975 0.750000
O O3 0.069001 0.417196 0.991576
O O4 0.000000 0.500000 0.000000
O O5 0.856760 0.897891 0.643785
O O6 0.893092 0.961420 0.395541
O O7 0.941582 0.974972 0.658592
O O8 0.832388 0.743808 0.150873
O O9 0.000000 0.725281 0.250000
O O10 0.941504 0.667737 0.070106
O O11 0.081630 0.734143 0.899162
O O12 0.000000 0.360819 0.250000
O O13 0.245559 0.361598 0.956666
O O14 0.835388 0.188103 0.164095
O O15 0.000000 0.147753 0.250000
O O16 0.250000 0.750000 0.000000
#
# Coordination Sequence:
#
# PCOD9274207 Si02
#       7
#     8   8   8   8   8   8   4
#     4  11  22  38  59  86 119 156 200 247 300 358
#     4  10  21  39  60  88 121 162 201 254 301 365
#     4   9  18  36  58  81 112 150 191 243 300 350
#     4  10  22  38  58  85 117 155 200 243 302 362
#     4  10  21  40  60  87 123 159 202 257 309 363
#     4   9  19  36  59  83 115 154 194 247 302 365
#     4  10  20  38  62  86 122 158 204 244 310 350
#
# _framework density 19.414106
#
# number of rings (size 3 to 8) (size 9 to 14) (size 15 to 20)
#    0.000    2.154    0.769    1.846    0.000    4.308 
#    6.923    3.077    0.000    0.000    0.000    0.000 
#    0.000    0.000    0.000    0.000    0.000    0.000 
#
# Total GULP energy -144857.977349 kJ/mol
# GULP energy per Si atom -5571.460667 kJ/mol
# Density = 1.936992 g / cm^3
# Si number density = 19.414106 Si / 1000 Ang^3
#
#
#
# Elastic Constant Matrix: (Units=GPa)
#
#
# Indices 1 2 3 4 5 6 
#
# 1 84.3182 40.3522 16.6330 0.0000 -26.7474 0.0000
# 2 40.3522 93.1497 31.0107 0.0000 -25.6858 0.0000
# 3 16.6330 31.0107 51.5248 0.0000 -24.7592 0.0000
# 4 0.0000 0.0000 0.0000 31.5995 0.0000 -1.9858
# 5 -26.7474 -25.6858 -24.7592 0.0000 34.0795 0.0000
# 6 0.0000 0.0000 0.0000 -1.9858 0.0000 30.2493
#
#
#
# Elastic Compliance Matrix: (Units=1/GPa)
#
#
# Indices 1 2 3 4 5 6 
#
# 1 0.017672 -0.005417 0.003470 0.000000 0.012308 0.000000
# 2 -0.005417 0.016102 -0.006382 0.000000 0.003249 0.000000
# 3 0.003470 -0.006382 0.032457 0.000000 0.021494 0.000000
# 4 0.000000 0.000000 0.000000 0.031777 0.000000 0.002086
# 5 0.012308 0.003249 0.021494 0.000000 0.057067 0.000000
# 6 0.000000 0.000000 0.000000 0.002086 0.000000 0.033196
#
#
# Mechanical properties :
#
#
# Convention : Reuss Voigt Hill
#
# Bulk Modulus (GPa) = 20.17162 44.99826 32.58494
# Shear Modulus (GPa) = 22.57807 28.58545 25.58176
#
# Velocity S-wave (km/s) = 3.41394 3.84136 3.63394
# Velocity P-wave (km/s) = 5.09438 6.55005 5.86753
#
# Compressibility (1/GPa) = 0.04957460
#
# Stress axis : x y z
#
# Youngs Moduli (GPa) = 56.58658 62.10328 30.80959
#
# Poissons Ratio (x) = 0.33639 -0.10690
# Poissons Ratio (y) = 0.30651 0.19662
# Poissons Ratio (z) = -0.19634 0.39632
#
# Static dielectric constant tensor:
#      x y z
#    x 1.706580 0.000000 -0.015140 
#    y 0.000000 1.649490 0.000000 
#    z -0.015140 0.000000 1.715460 
# 
# From -- ./inp_files/35089.got.cif
#   From: 2010.05.17/outbox.cif.g08.bks.cpg/sg15_18_cif.got.tgz:35089.got - 2010.06.03 18:47:42.
