data_PCOD9274699
_publ_section_title
;
Structure prediction by ZEFSAII (Michael W. Deem and Ramdas Pophale) SiO2 
 PCOD9274699
Probable space group: C 2/C
;
_chemical_formula_sum "Si O2"
_cell_formula_units_Z 52
_cell_length_a 11.215361
_cell_length_b 24.214044
_cell_length_c 12.434108
_cell_angle_alpha 90.000000
_cell_angle_beta 139.106465
_cell_angle_gamma 90.000000
_cell_volume 2210.589259
_symmetry_space_group_name_H-M "C 2/C"
_symmetry_group_IT_number 15
_symmetry_cell_setting 'monoclinic'
loop_
_space_group_symop_operation_xyz
x,y,z
-x,y,1/2-z
-x,-y,-z
x,-y,1/2+z
1/2+x,1/2+y,z
1/2-x,1/2+y,1/2-z
1/2-x,1/2-y,-z
1/2+x,1/2-y,1/2+z
loop_
_atom_site_type_symbol
_atom_site_label
_atom_site_fract_x
_atom_site_fract_y
_atom_site_fract_z
Si Si1 0.212216 0.077838 0.929871
Si Si2 0.684838 0.610961 0.151962
Si Si3 0.750000 0.750000 0.500000
Si Si4 0.165448 0.328316 0.135699
Si Si5 0.278139 0.455764 0.611463
Si Si6 0.263629 0.626846 0.920327
Si Si7 0.313348 0.227482 0.313262
O O1 0.312262 0.129223 0.944488
O O2 0.000000 0.082502 0.750000
O O3 0.280749 0.019161 0.932726
O O4 0.228760 0.082618 0.069157
O O5 0.761164 0.576760 0.305487
O O6 0.753238 0.674136 0.206408
O O7 0.466834 0.613237 0.016749
O O8 0.728114 0.683682 0.507978
O O9 0.815665 0.758639 0.673806
O O10 0.149284 0.361857 0.235100
O O11 0.330040 0.284360 0.259687
O O12 0.997127 0.288055 0.000467
O O13 0.500000 0.456017 0.750000
O O14 0.207656 0.422004 0.461086
#
# Coordination Sequence:
#
# PCOD9274699 Si02
#       7
#     8   8   4   8   8   8   8
#     4  11  24  42  68  96 135 177 226 275 326 399
#     4  11  22  42  68  96 131 173 224 269 335 394
#     4  10  20  38  64  94 132 160 214 266 338 376
#     4  11  25  42  66 101 133 176 224 268 337 398
#     4   9  21  38  68 100 127 174 226 281 324 386
#     4  10  20  38  67  98 130 166 220 278 327 392
#     4  11  24  42  67 100 133 176 216 278 333 405
#
# _framework density 23.523140000000001
#
# number of rings (size 3 to 8) (size 9 to 14) (size 15 to 20)
#    0.000    1.538    3.077    1.846    2.154    8.000 
#    0.000    0.769    3.385    0.000    0.000    0.000 
#    0.000    0.000    0.000    0.000    0.000    0.000 
#
# Total GULP energy -145062.739734 kJ/mol
# GULP energy per Si atom -5579.336144 kJ/mol
# Density = 2.346960 g / cm^3
# Si number density = 23.523140 Si / 1000 Ang^3
#
#
#
# Elastic Constant Matrix: (Units=GPa)
#
#
# Indices 1 2 3 4 5 6 
#
# 1 45.3914 46.0359 29.3400 0.0000 -18.1920 0.0000
# 2 46.0359 151.5590 36.4832 0.0000 -22.3464 0.0000
# 3 29.3400 36.4832 86.8982 0.0000 -17.0886 0.0000
# 4 0.0000 0.0000 0.0000 34.8375 0.0000 3.5637
# 5 -18.1920 -22.3464 -17.0886 0.0000 39.3640 0.0000
# 6 0.0000 0.0000 0.0000 3.5637 0.0000 109.6213
#
#
#
# Elastic Compliance Matrix: (Units=1/GPa)
#
#
# Indices 1 2 3 4 5 6 
#
# 1 0.040078 -0.008791 -0.007850 0.000000 0.010124 0.000000
# 2 -0.008791 0.009630 -0.000873 0.000000 0.001025 0.000000
# 3 -0.007850 -0.000873 0.014994 0.000000 0.002386 0.000000
# 4 0.000000 0.000000 0.000000 0.028800 0.000000 -0.000936
# 5 0.010124 0.001025 0.002386 0.000000 0.031700 0.000000
# 6 0.000000 0.000000 0.000000 -0.000936 0.000000 0.009153
#
#
# Mechanical properties :
#
#
# Convention : Reuss Voigt Hill
#
# Bulk Modulus (GPa) = 33.70115 56.39632 45.04873
# Shear Modulus (GPa) = 27.89008 48.23052 38.06030
#
# Velocity S-wave (km/s) = 3.44705 4.53298 4.02679
# Velocity P-wave (km/s) = 5.49553 7.17106 6.38846
#
# Compressibility (1/GPa) = 0.02967258
#
# Stress axis : x y z
#
# Youngs Moduli (GPa) = 24.95115 103.84502 66.69381
#
# Poissons Ratio (x) = 0.91294 0.52356
# Poissons Ratio (y) = 0.21936 0.05823
# Poissons Ratio (z) = 0.19587 0.09067
#
# Static dielectric constant tensor:
#      x y z
#    x 2.015010 0.000000 0.075610 
#    y 0.000000 1.881700 0.000000 
#    z 0.075610 0.000000 1.900490 
# 
# From -- ./inp_files/91326.got.cif
#   From: 2010.05.17/outbox.cif.g08.bks.cpg/sg15_46_cif.got.tgz:91326.got - 2010.06.03 18:47:42.
