data_PCOD9274234
_publ_section_title
;
Structure prediction by ZEFSAII (Michael W. Deem and Ramdas Pophale) SiO2 
 PCOD9274234
Probable space group: C 2/C
;
_chemical_formula_sum "Si O2"
_cell_formula_units_Z 40
_cell_length_a 7.927576
_cell_length_b 13.619834
_cell_length_c 13.874117
_cell_angle_alpha 90.000000
_cell_angle_beta 83.348996
_cell_angle_gamma 90.000000
_cell_volume 1487.938305
_symmetry_space_group_name_H-M "C 2/C"
_symmetry_group_IT_number 15
_symmetry_cell_setting 'monoclinic'
loop_
_space_group_symop_operation_xyz
x,y,z
-x,y,1/2-z
-x,-y,-z
x,-y,1/2+z
1/2+x,1/2+y,z
1/2-x,1/2+y,1/2-z
1/2-x,1/2-y,-z
1/2+x,1/2-y,1/2+z
loop_
_atom_site_type_symbol
_atom_site_label
_atom_site_fract_x
_atom_site_fract_y
_atom_site_fract_z
Si Si1 0.897495 0.573366 0.172697
Si Si2 0.774884 0.408378 0.956056
Si Si3 0.335923 0.792771 0.123288
Si Si4 0.208558 0.737834 0.644850
Si Si5 0.357224 0.547306 0.678699
O O1 0.771356 0.650992 0.132489
O O2 0.803332 0.492245 0.245103
O O3 0.000000 0.631884 0.250000
O O4 0.045423 0.545268 0.088849
O O5 0.763418 0.299183 0.913645
O O6 0.632592 0.466996 0.906658
O O7 0.770792 0.388754 0.070162
O O8 0.320824 0.781576 0.238760
O O9 0.538936 0.781764 0.095414
O O10 0.339304 0.649177 0.621888
O O11 0.500000 0.551903 0.750000
#
# Coordination Sequence:
#
# PCOD9274234 Si02
#       5
#     8   8   8   8   8
#     4  10  20  38  62  88 120 159 208 255 302 371
#     4  10  22  41  64  91 124 161 208 257 311 367
#     4  10  22  39  65  89 126 163 201 256 318 364
#     4  11  22  39  65  90 122 167 205 250 315 371
#     4  11  23  39  63  90 122 166 211 256 306 366
#
# _framework density 26.882836000000001
#
# number of rings (size 3 to 8) (size 9 to 14) (size 15 to 20)
#    0.000    1.600    4.000    1.800    8.400    1.600 
#    0.000    1.000    0.000    0.000    0.000    0.000 
#    0.000    0.000    0.000    0.000    0.000    0.000 
#
# Total GULP energy -111733.755119 kJ/mol
# GULP energy per Si atom -5586.687756 kJ/mol
# Density = 2.682165 g / cm^3
# Si number density = 26.882836 Si / 1000 Ang^3
#
#
#
# Elastic Constant Matrix: (Units=GPa)
#
#
# Indices 1 2 3 4 5 6 
#
# 1 90.0215 4.8814 16.0063 0.0000 14.8770 0.0000
# 2 4.8814 68.9923 7.0298 0.0000 -0.0873 0.0000
# 3 16.0063 7.0298 126.9425 0.0000 8.4534 0.0000
# 4 0.0000 0.0000 0.0000 43.3039 0.0000 3.7318
# 5 14.8770 -0.0873 8.4534 0.0000 21.1986 0.0000
# 6 0.0000 0.0000 0.0000 3.7318 0.0000 31.2424
#
#
#
# Elastic Compliance Matrix: (Units=1/GPa)
#
#
# Indices 1 2 3 4 5 6 
#
# 1 0.012742 -0.000811 -0.000992 0.000000 -0.008550 0.000000
# 2 -0.000811 0.014631 -0.000770 0.000000 0.000937 0.000000
# 3 -0.000992 -0.000770 0.008217 0.000000 -0.002584 0.000000
# 4 0.000000 0.000000 0.000000 0.023333 0.000000 -0.002787
# 5 -0.008550 0.000937 -0.002584 0.000000 0.054207 0.000000
# 6 0.000000 0.000000 0.000000 -0.002787 0.000000 0.032341
#
#
# Mechanical properties :
#
#
# Convention : Reuss Voigt Hill
#
# Bulk Modulus (GPa) = 32.84842 37.97678 35.41260
# Shear Modulus (GPa) = 31.10094 36.35157 33.72626
#
# Velocity S-wave (km/s) = 3.40502 3.68125 3.54583
# Velocity P-wave (km/s) = 5.26351 5.67681 5.47406
#
# Compressibility (1/GPa) = 0.03044286
#
# Stress axis : x y z
#
# Youngs Moduli (GPa) = 78.48171 68.34591 121.69279
#
# Poissons Ratio (x) = 0.05544 0.12076
# Poissons Ratio (y) = 0.06367 0.09375
# Poissons Ratio (z) = 0.07788 0.05265
#
# Static dielectric constant tensor:
#      x y z
#    x 2.162080 0.000000 -0.099720 
#    y 0.000000 2.096470 0.000000 
#    z -0.099720 0.000000 2.157620 
# 
# From -- ./inp_files/133157.got.cif
#   From: 2010.05.17/outbox.cif.g08.bks.cpg/sg15_67_cif.got.tgz:133157.got - 2010.06.03 18:47:42.
