data_PCOD9274541
_publ_section_title
;
Structure prediction by ZEFSAII (Michael W. Deem and Ramdas Pophale) SiO2 
 PCOD9274541
Probable space group: C 2/C
;
_chemical_formula_sum "Si O2"
_cell_formula_units_Z 44
_cell_length_a 11.177410
_cell_length_b 21.684195
_cell_length_c 9.649273
_cell_angle_alpha 90.000000
_cell_angle_beta 116.935758
_cell_angle_gamma 90.000000
_cell_volume 2085.008027
_symmetry_space_group_name_H-M "C 2/C"
_symmetry_group_IT_number 15
_symmetry_cell_setting 'monoclinic'
loop_
_space_group_symop_operation_xyz
x,y,z
-x,y,1/2-z
-x,-y,-z
x,-y,1/2+z
1/2+x,1/2+y,z
1/2-x,1/2+y,1/2-z
1/2-x,1/2-y,-z
1/2+x,1/2-y,1/2+z
loop_
_atom_site_type_symbol
_atom_site_label
_atom_site_fract_x
_atom_site_fract_y
_atom_site_fract_z
Si Si1 0.000000 0.987099 0.750000
Si Si2 0.211269 0.998652 0.118687
Si Si3 0.003905 0.810140 0.483861
Si Si4 0.279092 0.875211 0.586042
Si Si5 0.778588 0.365246 0.253575
Si Si6 0.500000 0.786206 0.750000
Si Si7 0.500000 0.228492 0.750000
O O1 0.890197 0.996190 0.564471
O O2 0.122790 0.981539 0.703889
O O3 0.282061 0.933679 0.190158
O O4 0.310179 0.054767 0.138760
O O5 0.873101 0.843219 0.355915
O O6 0.970316 0.775138 0.608020
O O7 0.127399 0.857365 0.549948
O O8 0.043944 0.757126 0.397492
O O9 0.296437 0.866413 0.429443
O O10 0.375389 0.829290 0.719221
O O11 0.879701 0.316549 0.235973
#
# Coordination Sequence:
#
# PCOD9274541 Si02
#       7
#     4   8   8   8   8   4   4
#     4  10  20  38  64 102 140 162 230 282 330 402
#     4  11  24  41  71 105 136 185 227 284 353 407
#     4  12  24  45  77 102 133 184 239 290 336 405
#     4  12  25  46  73 103 141 183 233 288 345 419
#     4  12  25  47  71 102 147 180 226 297 345 410
#     4  12  24  44  74  99 136 191 232 266 356 424
#     4  12  28  46  66 109 146 179 230 284 352 410
#
# _framework density 21.103034999999998
#
# number of rings (size 3 to 8) (size 9 to 14) (size 15 to 20)
#    0.000    0.364    5.455    4.364    0.000    5.091 
#    0.000    1.818    0.000    0.000    0.000    0.000 
#    0.000    0.000    0.000    0.000    0.000    0.000 
#
# Total GULP energy -122493.127557 kJ/mol
# GULP energy per Si atom -5567.869434 kJ/mol
# Density = 2.105500 g / cm^3
# Si number density = 21.103035 Si / 1000 Ang^3
#
#
#
# Elastic Constant Matrix: (Units=GPa)
#
#
# Indices 1 2 3 4 5 6 
#
# 1 59.8327 10.0955 -6.6385 0.0000 -4.0542 0.0000
# 2 10.0955 125.0704 12.3534 0.0000 -1.2780 0.0000
# 3 -6.6385 12.3534 89.5113 0.0000 -37.1749 0.0000
# 4 0.0000 0.0000 0.0000 1.6332 0.0000 15.6744
# 5 -4.0542 -1.2780 -37.1749 0.0000 39.6167 0.0000
# 6 0.0000 0.0000 0.0000 15.6744 0.0000 173.0212
#
#
#
# Elastic Compliance Matrix: (Units=1/GPa)
#
#
# Indices 1 2 3 4 5 6 
#
# 1 0.017784 -0.001753 0.003758 0.000000 0.005289 0.000000
# 2 -0.001753 0.008319 -0.002034 0.000000 -0.001819 0.000000
# 3 0.003758 -0.002034 0.019439 0.000000 0.018560 0.000000
# 4 0.000000 0.000000 0.000000 4.689093 0.000000 -0.424795
# 5 0.005289 -0.001819 0.018560 0.000000 0.043141 0.000000
# 6 0.000000 0.000000 0.000000 -0.424795 0.000000 0.044263
#
#
# Mechanical properties :
#
#
# Convention : Reuss Voigt Hill
#
# Bulk Modulus (GPa) = 21.98512 34.00391 27.99452
# Shear Modulus (GPa) = 1.03364 60.09448 30.56406
#
# Velocity S-wave (km/s) = 0.70062 5.34215 3.80982
# Velocity P-wave (km/s) = 3.33093 7.36204 5.71379
#
# Compressibility (1/GPa) = 0.04548532
#
# Stress axis : x y z
#
# Youngs Moduli (GPa) = 56.22934 120.20315 51.44225
#
# Poissons Ratio (x) = 0.21067 -0.19330
# Poissons Ratio (y) = 0.09855 0.10462
# Poissons Ratio (z) = -0.21129 0.24446
#
# Static dielectric constant tensor:
#      x y z
#    x 1.726190 0.000000 -0.000990 
#    y 0.000000 1.789790 0.000000 
#    z -0.000990 0.000000 1.728030 
# 
# From -- ./inp_files/30788.got.cif
#   From: 2010.05.17/outbox.cif.g08.bks.cpg/sg15_16_cif.got.tgz:30788.got - 2010.06.03 18:47:42.
