data_PCOD9274474
_publ_section_title
;
Structure prediction by ZEFSAII (Michael W. Deem and Ramdas Pophale) SiO2 
 PCOD9274474
Probable space group: C 2/C
;
_chemical_formula_sum "Si O2"
_cell_formula_units_Z 64
_cell_length_a 15.713652
_cell_length_b 10.098147
_cell_length_c 18.330582
_cell_angle_alpha 90.000000
_cell_angle_beta 64.894761
_cell_angle_gamma 90.000000
_cell_volume 2633.891738
_symmetry_space_group_name_H-M "C 2/C"
_symmetry_group_IT_number 15
_symmetry_cell_setting 'monoclinic'
loop_
_space_group_symop_operation_xyz
x,y,z
-x,y,1/2-z
-x,-y,-z
x,-y,1/2+z
1/2+x,1/2+y,z
1/2-x,1/2+y,1/2-z
1/2-x,1/2-y,-z
1/2+x,1/2-y,1/2+z
loop_
_atom_site_type_symbol
_atom_site_label
_atom_site_fract_x
_atom_site_fract_y
_atom_site_fract_z
Si Si1 0.770304 0.054297 0.458334
Si Si2 0.908595 0.849887 0.133219
Si Si3 0.698348 0.084923 0.751069
Si Si4 0.080917 0.868752 0.890076
Si Si5 0.734977 0.789069 0.397731
Si Si6 0.096614 0.336388 0.738602
Si Si7 0.609865 0.328136 0.720441
Si Si8 0.603260 0.751606 0.010287
O O1 0.824654 0.107539 0.365193
O O2 0.670945 0.128466 0.504720
O O3 0.836522 0.117634 0.496274
O O4 0.749299 0.899750 0.454137
O O5 0.798742 0.885641 0.178361
O O6 0.934225 0.789044 0.201168
O O7 0.959364 0.983510 0.089975
O O8 0.921884 0.743359 0.065378
O O9 0.709243 0.133538 0.830792
O O10 0.630017 0.173213 0.724507
O O11 0.658888 0.937560 0.762577
O O12 0.150479 0.817702 0.927619
O O13 0.134101 0.877581 0.792980
O O14 0.994960 0.766325 0.913045
O O15 0.833488 0.715311 0.349014
O O16 0.000000 0.401434 0.750000
O O17 0.500000 0.358879 0.750000
#
# Coordination Sequence:
#
# PCOD9274474 Si02
#       8
#     8   8   8   8   8   8   8   8
#     4  11  23  41  63  93 124 163 213 262 313 370
#     4  11  22  40  63  86 129 168 206 258 315 384
#     4  10  20  38  63  92 126 161 206 258 324 367
#     4  11  23  40  63  93 121 167 212 255 321 378
#     4  10  23  39  64  91 127 161 211 265 306 377
#     4  11  23  39  65 100 127 162 210 268 318 373
#     4  11  20  37  66  93 121 158 212 271 304 371
#     4  11  24  41  64  89 125 168 212 255 319 385
#
# _framework density 24.298645
#
# number of rings (size 3 to 8) (size 9 to 14) (size 15 to 20)
#    0.000    1.250    3.750    3.000    3.500    1.500 
#    0.000    1.875    0.000    0.000    0.000    0.000 
#    0.000    0.000    0.000    0.000    0.000    0.000 
#
# Total GULP energy -178809.367569 kJ/mol
# GULP energy per Si atom -5587.792737 kJ/mol
# Density = 2.424334 g / cm^3
# Si number density = 24.298645 Si / 1000 Ang^3
#
#
#
# Elastic Constant Matrix: (Units=GPa)
#
#
# Indices 1 2 3 4 5 6 
#
# 1 88.3541 -6.2231 2.6930 0.0000 -16.0111 0.0000
# 2 -6.2231 51.2215 -14.5447 0.0000 -3.7001 0.0000
# 3 2.6930 -14.5447 56.8632 0.0000 -1.6470 0.0000
# 4 0.0000 0.0000 0.0000 25.6073 0.0000 6.1008
# 5 -16.0111 -3.7001 -1.6470 0.0000 29.2309 0.0000
# 6 0.0000 0.0000 0.0000 6.1008 0.0000 27.3457
#
#
#
# Elastic Compliance Matrix: (Units=1/GPa)
#
#
# Indices 1 2 3 4 5 6 
#
# 1 0.012782 0.002121 0.000148 0.000000 0.007278 0.000000
# 2 0.002121 0.021665 0.005563 0.000000 0.004217 0.000000
# 3 0.000148 0.005563 0.019056 0.000000 0.001859 0.000000
# 4 0.000000 0.000000 0.000000 0.041244 0.000000 -0.009201
# 5 0.007278 0.004217 0.001859 0.000000 0.038835 0.000000
# 6 0.000000 0.000000 0.000000 -0.009201 0.000000 0.038622
#
#
# Mechanical properties :
#
#
# Convention : Reuss Voigt Hill
#
# Bulk Modulus (GPa) = 14.45789 17.80993 16.13391
# Shear Modulus (GPa) = 27.84039 30.73768 29.28903
#
# Velocity S-wave (km/s) = 3.38858 3.56054 3.47562
# Velocity P-wave (km/s) = 4.61226 4.92430 4.77083
#
# Compressibility (1/GPa) = 0.06916639
#
# Stress axis : x y z
#
# Youngs Moduli (GPa) = 78.23615 46.15726 52.47715
#
# Poissons Ratio (x) = -0.09788 -0.00776
# Poissons Ratio (y) = -0.16591 -0.29195
# Poissons Ratio (z) = -0.01157 -0.25679
#
# Static dielectric constant tensor:
#      x y z
#    x 1.918540 0.000000 0.002790 
#    y 0.000000 2.067200 0.000000 
#    z 0.002790 0.000000 1.946200 
# 
# From -- ./inp_files/243713.got.cif
#   From: 2010.05.17/outbox.cif.g08.bks.cpg/sg15_122_cif.got.tgz:243713.got - 2010.06.03 18:47:42.
