data_PCOD9274053
_publ_section_title
;
Structure prediction by ZEFSAII (Michael W. Deem and Ramdas Pophale) SiO2 
 PCOD9274053
Probable space group: C 2/C
;
_chemical_formula_sum "Si O2"
_cell_formula_units_Z 40
_cell_length_a 25.886609
_cell_length_b 11.190940
_cell_length_c 18.781866
_cell_angle_alpha 90.000000
_cell_angle_beta 164.516373
_cell_angle_gamma 90.000000
_cell_volume 1452.551489
_symmetry_space_group_name_H-M "C 2/C"
_symmetry_group_IT_number 15
_symmetry_cell_setting 'monoclinic'
loop_
_space_group_symop_operation_xyz
x,y,z
-x,y,1/2-z
-x,-y,-z
x,-y,1/2+z
1/2+x,1/2+y,z
1/2-x,1/2+y,1/2-z
1/2-x,1/2-y,-z
1/2+x,1/2-y,1/2+z
loop_
_atom_site_type_symbol
_atom_site_label
_atom_site_fract_x
_atom_site_fract_y
_atom_site_fract_z
Si Si1 0.324247 0.393338 0.555584
Si Si2 0.543661 0.392862 0.612703
Si Si3 0.398905 0.896452 0.999529
Si Si4 0.767595 0.620288 0.164507
Si Si5 0.109003 0.335249 0.015444
O O1 0.390673 0.432433 0.722170
O O2 0.289500 0.506959 0.457936
O O3 0.500000 0.327361 0.750000
O O4 0.110256 0.336496 0.278503
O O5 0.500000 0.500000 0.500000
O O6 0.730356 0.336707 0.821631
O O7 0.665940 0.669001 0.659984
O O8 0.330836 0.919486 0.827759
O O9 0.424701 0.033365 0.062726
O O10 0.604485 0.720393 0.959025
O O11 0.951101 0.676779 0.367351
#
# Coordination Sequence:
#
# PCOD9274053 Si02
#       5
#     8   8   8   8   8
#     4  11  21  37  62  91 125 168 212 263 322 380
#     4  10  20  38  61  86 120 168 213 259 317 382
#     4  10  21  40  63  91 128 173 218 268 324 386
#     4  11  22  40  65  96 131 173 218 268 325 390
#     4  10  21  39  63  92 128 170 213 264 322 384
#
# _framework density 27.537749999999999
#
# number of rings (size 3 to 8) (size 9 to 14) (size 15 to 20)
#    0.000    1.600    0.000    7.800    0.000    1.600 
#    0.000   17.000    0.000    2.400    0.000    0.000 
#    0.000    0.000    0.000    0.000    0.000    0.000 
#
# Total GULP energy -112128.484520 kJ/mol
# GULP energy per Si atom -5606.424226 kJ/mol
# Density = 2.747507 g / cm^3
# Si number density = 27.537750 Si / 1000 Ang^3
#
#
#
# Elastic Constant Matrix: (Units=GPa)
#
#
# Indices 1 2 3 4 5 6 
#
# 1 228.6704 29.2004 88.9454 0.0028 19.3618 0.0019
# 2 29.2004 93.1002 7.7615 0.0030 7.8812 0.0026
# 3 88.9454 7.7615 150.4211 0.0039 20.5895 0.0032
# 4 0.0028 0.0030 0.0039 47.5565 0.0022 17.3647
# 5 19.3618 7.8812 20.5895 0.0022 89.2928 0.0018
# 6 0.0019 0.0026 0.0032 17.3647 0.0018 48.5639
#
#
#
# Elastic Compliance Matrix: (Units=1/GPa)
#
#
# Indices 1 2 3 4 5 6 
#
# 1 0.005910 -0.001542 -0.003364 0.000000 -0.000370 0.000000
# 2 -0.001542 0.011253 0.000435 0.000000 -0.000759 0.000000
# 3 -0.003364 0.000435 0.008798 0.000000 -0.001338 0.000000
# 4 0.000000 0.000000 0.000000 0.024185 0.000000 -0.008648
# 5 -0.000370 -0.000759 -0.001338 0.000000 0.011655 0.000000
# 6 0.000000 0.000000 0.000000 -0.008648 0.000000 0.023684
#
#
# Mechanical properties :
#
#
# Convention : Reuss Voigt Hill
#
# Bulk Modulus (GPa) = 58.76089 80.44515 69.60302
# Shear Modulus (GPa) = 49.95026 60.16826 55.05926
#
# Velocity S-wave (km/s) = 4.26359 4.67940 4.47633
# Velocity P-wave (km/s) = 6.75442 7.64669 7.21436
#
# Compressibility (1/GPa) = 0.01701812
#
# Stress axis : x y z
#
# Youngs Moduli (GPa) = 169.20595 88.86747 113.66118
#
# Poissons Ratio (x) = 0.13702 0.38241
# Poissons Ratio (y) = 0.26089 -0.04944
# Poissons Ratio (z) = 0.56929 -0.03866
#
# Static dielectric constant tensor:
#      x y z
#    x 2.070490 0.000000 0.028800 
#    y 0.000000 2.238410 0.000000 
#    z 0.028800 0.000000 2.220330 
# 
# From -- ./inp_files/219628.got.cif
#   From: 2010.05.17/outbox.cif.g08.bks.cpg/sg15_110_cif.got.tgz:219628.got - 2010.06.03 18:47:42.
