data_PCOD9274306
_publ_section_title
;
Structure prediction by ZEFSAII (Michael W. Deem and Ramdas Pophale) SiO2 
 PCOD9274306
Probable space group: C 2/C
;
_chemical_formula_sum "Si O2"
_cell_formula_units_Z 64
_cell_length_a 14.266435
_cell_length_b 25.127778
_cell_length_c 16.706757
_cell_angle_alpha 90.000000
_cell_angle_beta 147.110926
_cell_angle_gamma 90.000000
_cell_volume 3252.168165
_symmetry_space_group_name_H-M "C 2/C"
_symmetry_group_IT_number 15
_symmetry_cell_setting 'monoclinic'
loop_
_space_group_symop_operation_xyz
x,y,z
-x,y,1/2-z
-x,-y,-z
x,-y,1/2+z
1/2+x,1/2+y,z
1/2-x,1/2+y,1/2-z
1/2-x,1/2-y,-z
1/2+x,1/2-y,1/2+z
loop_
_atom_site_type_symbol
_atom_site_label
_atom_site_fract_x
_atom_site_fract_y
_atom_site_fract_z
Si Si1 0.976661 0.797363 0.051948
Si Si2 0.182488 0.546284 0.423034
Si Si3 0.460680 0.506329 0.358236
Si Si4 0.550009 0.116143 0.693704
Si Si5 0.132901 0.481335 0.528094
Si Si6 0.062632 0.089254 0.556482
Si Si7 0.361554 0.191707 0.890690
Si Si8 0.687525 0.653119 0.924425
O O1 0.853824 0.799615 0.042109
O O2 0.970453 0.854800 0.004135
O O3 0.170738 0.795389 0.222908
O O4 0.947577 0.747619 0.974099
O O5 0.337165 0.505523 0.512398
O O6 0.148247 0.534838 0.489701
O O7 0.249422 0.606043 0.472193
O O8 0.000000 0.538243 0.250000
O O9 0.327343 0.529024 0.198248
O O10 0.452468 0.548935 0.423787
O O11 0.397727 0.446947 0.337060
O O12 0.500000 0.131503 0.750000
O O13 0.441586 0.065767 0.581463
O O14 0.750555 0.100391 0.845619
O O15 0.549169 0.158433 0.617878
O O16 0.000000 0.500000 0.500000
O O17 0.322093 0.163479 0.948680
O O18 0.500000 0.639730 0.750000
#
# Coordination Sequence:
#
# PCOD9274306 Si02
#       8
#     8   8   8   8   8   8   8   8
#     4  10  21  39  64  89 127 163 206 268 327 386
#     4  12  25  37  58  93 130 171 209 253 315 393
#     4  11  22  39  62  90 130 165 211 260 322 395
#     4  11  23  43  63  91 130 170 222 274 323 378
#     4  12  23  36  62  92 126 168 215 260 317 391
#     4  10  21  39  62  90 126 167 202 266 333 376
#     4  10  23  40  63  91 122 168 215 265 324 381
#     4  10  20  38  62  91 128 164 202 261 326 390
#
# _framework density 19.679179000000001
#
# number of rings (size 3 to 8) (size 9 to 14) (size 15 to 20)
#    0.000    1.250    2.500    4.125    3.500    2.000 
#    0.000    2.500    0.000    1.500    0.000    0.000 
#    0.000    0.000    0.000    0.000    0.000    0.000 
#
# Total GULP energy -178161.344630 kJ/mol
# GULP energy per Si atom -5567.542020 kJ/mol
# Density = 1.963439 g / cm^3
# Si number density = 19.679179 Si / 1000 Ang^3
#
#
#
# Elastic Constant Matrix: (Units=GPa)
#
#
# Indices 1 2 3 4 5 6 
#
# 1 108.4086 27.8486 28.6215 0.0000 8.0137 0.0000
# 2 27.8486 93.0492 33.9536 0.0000 -1.0806 0.0000
# 3 28.6215 33.9536 68.6521 0.0001 -2.7763 0.0000
# 4 0.0000 0.0000 0.0001 61.2866 0.0000 1.0940
# 5 8.0137 -1.0806 -2.7763 0.0000 24.2300 0.0000
# 6 0.0000 0.0000 0.0000 1.0940 0.0000 36.2297
#
#
#
# Elastic Compliance Matrix: (Units=1/GPa)
#
#
# Indices 1 2 3 4 5 6 
#
# 1 0.011041 -0.001967 -0.003799 0.000000 -0.004175 0.000000
# 2 -0.001967 0.013465 -0.005816 0.000000 0.000585 0.000000
# 3 -0.003799 -0.005816 0.019156 0.000000 0.003192 0.000000
# 4 0.000000 0.000000 0.000000 0.016326 0.000000 -0.000493
# 5 -0.004175 0.000585 0.003192 0.000000 0.043044 0.000000
# 6 0.000000 0.000000 0.000000 -0.000493 0.000000 0.027617
#
#
# Mechanical properties :
#
#
# Convention : Reuss Voigt Hill
#
# Bulk Modulus (GPa) = 48.78523 50.10636 49.44580
# Shear Modulus (GPa) = 31.12490 36.32833 33.72662
#
# Velocity S-wave (km/s) = 3.98127 4.30120 4.14432
# Velocity P-wave (km/s) = 6.78071 7.08407 6.93405
#
# Compressibility (1/GPa) = 0.02049801
#
# Stress axis : x y z
#
# Youngs Moduli (GPa) = 90.56953 74.26926 52.20425
#
# Poissons Ratio (x) = 0.14606 0.19834
# Poissons Ratio (y) = 0.17812 0.30360
# Poissons Ratio (z) = 0.34411 0.43193
#
# Static dielectric constant tensor:
#      x y z
#    x 1.790750 0.000000 0.011380 
#    y 0.000000 1.694030 0.000000 
#    z 0.011380 0.000000 1.660950 
# 
# From -- ./inp_files/207363.got.cif
#   From: 2010.05.17/outbox.cif.g08.bks.cpg/sg15_104_cif.got.tgz:207363.got - 2010.06.03 18:47:42.
