data_PCOD9274636
_publ_section_title
;
Structure prediction by ZEFSAII (Michael W. Deem and Ramdas Pophale) SiO2 
 PCOD9274636
Probable space group: C 2/C
;
_chemical_formula_sum "Si O2"
_cell_formula_units_Z 36
_cell_length_a 16.330896
_cell_length_b 18.257882
_cell_length_c 16.946678
_cell_angle_alpha 90.000000
_cell_angle_beta 160.043151
_cell_angle_gamma 90.000000
_cell_volume 1724.634124
_symmetry_space_group_name_H-M "C 2/C"
_symmetry_group_IT_number 15
_symmetry_cell_setting 'monoclinic'
loop_
_space_group_symop_operation_xyz
x,y,z
-x,y,1/2-z
-x,-y,-z
x,-y,1/2+z
1/2+x,1/2+y,z
1/2-x,1/2+y,1/2-z
1/2-x,1/2-y,-z
1/2+x,1/2-y,1/2+z
loop_
_atom_site_type_symbol
_atom_site_label
_atom_site_fract_x
_atom_site_fract_y
_atom_site_fract_z
Si Si1 0.305522 0.321259 0.141985
Si Si2 0.287934 0.941097 0.805373
Si Si3 0.244725 0.272126 0.745782
Si Si4 0.500000 0.090577 0.250000
Si Si5 0.944569 0.033195 0.574257
O O1 0.500000 0.300116 0.250000
O O2 0.274149 0.261260 0.181759
O O3 0.407793 0.393267 0.276758
O O4 0.075771 0.354918 0.888943
O O5 0.339383 0.855265 0.846921
O O6 0.167279 0.957555 0.612667
O O7 0.113593 0.962954 0.720043
O O8 0.500000 0.000000 0.000000
O O9 0.040220 0.229604 0.507620
O O10 0.727130 0.039472 0.438227
#
# Coordination Sequence:
#
# PCOD9274636 Si02
#       5
#     8   8   8   4   8
#     4  10  22  39  59  92 133 172 214 258 319 393
#     4  11  23  39  61  85 127 174 220 269 319 385
#     4  12  25  41  59  92 129 171 218 265 320 387
#     4  10  20  38  64  90 128 174 218 266 318 390
#     4  10  20  39  58  88 123 168 219 269 317 379
#
# _framework density 20.873992000000001
#
# number of rings (size 3 to 8) (size 9 to 14) (size 15 to 20)
#    0.000    1.333    2.222    4.000    6.222    0.889 
#    2.000    0.000    0.000    0.000    0.000    1.556 
#    0.000    0.000    0.000    0.000    0.000    0.000 
#
# Total GULP energy -100308.550783 kJ/mol
# GULP energy per Si atom -5572.697266 kJ/mol
# Density = 2.082648 g / cm^3
# Si number density = 20.873992 Si / 1000 Ang^3
#
#
#
# Elastic Constant Matrix: (Units=GPa)
#
#
# Indices 1 2 3 4 5 6 
#
# 1 52.4943 50.9745 14.2340 0.0746 12.3187 -0.0066
# 2 50.9745 135.4523 40.1645 0.2761 2.7992 0.0909
# 3 14.2340 40.1645 131.6740 0.2829 -8.3615 0.1349
# 4 0.0746 0.2761 0.2829 27.0012 0.1214 -3.6609
# 5 12.3187 2.7992 -8.3615 0.1214 28.9736 0.0272
# 6 -0.0066 0.0909 0.1349 -3.6609 0.0272 47.0735
#
#
#
# Elastic Compliance Matrix: (Units=1/GPa)
#
#
# Indices 1 2 3 4 5 6 
#
# 1 0.034651 -0.012518 -0.000801 0.000109 -0.013755 0.000048
# 2 -0.012518 0.012706 -0.002305 -0.000091 0.003430 -0.000029
# 3 -0.000801 -0.002305 0.008577 -0.000082 0.003039 -0.000028
# 4 0.000109 -0.000091 -0.000082 0.037433 -0.000221 0.002912
# 5 -0.013755 0.003430 0.003039 -0.000221 0.040909 -0.000058
# 6 0.000048 -0.000029 -0.000028 0.002912 -0.000058 0.021470
#
#
# Mechanical properties :
#
#
# Convention : Reuss Voigt Hill
#
# Bulk Modulus (GPa) = 40.50839 58.92964 49.71901
# Shear Modulus (GPa) = 25.61183 34.89283 30.25233
#
# Velocity S-wave (km/s) = 3.50662 4.09295 3.81108
# Velocity P-wave (km/s) = 5.98694 7.11539 6.57541
#
# Compressibility (1/GPa) = 0.02468624
#
# Stress axis : x y z
#
# Youngs Moduli (GPa) = 28.85957 78.70056 116.58787
#
# Poissons Ratio (x) = 0.98521 0.09338
# Poissons Ratio (y) = 0.36128 0.26868
# Poissons Ratio (z) = 0.02311 0.18137
#
# Static dielectric constant tensor:
#      x y z
#    x 1.834060 -0.000250 0.122270 
#    y -0.000250 1.776870 -0.000280 
#    z 0.122270 -0.000280 1.996840 
# 
# From -- ./inp_files/9692.got.cif
#   From: 2010.05.17/outbox.cif.g08.bks.cpg/sg15_5_cif.got.tgz:9692.got - 2010.06.03 18:47:42.
