data_PCOD9274879
_publ_section_title
;
Structure prediction by ZEFSAII (Michael W. Deem and Ramdas Pophale) SiO2 
 PCOD9274879
Probable space group: C 2/C
;
_chemical_formula_sum "Si O2"
_cell_formula_units_Z 56
_cell_length_a 8.511977
_cell_length_b 17.731513
_cell_length_c 25.012319
_cell_angle_alpha 90.000000
_cell_angle_beta 136.218838
_cell_angle_gamma 90.000000
_cell_volume 2612.024142
_symmetry_space_group_name_H-M "C 2/C"
_symmetry_group_IT_number 15
_symmetry_cell_setting 'monoclinic'
loop_
_space_group_symop_operation_xyz
x,y,z
-x,y,1/2-z
-x,-y,-z
x,-y,1/2+z
1/2+x,1/2+y,z
1/2-x,1/2+y,1/2-z
1/2-x,1/2-y,-z
1/2+x,1/2-y,1/2+z
loop_
_atom_site_type_symbol
_atom_site_label
_atom_site_fract_x
_atom_site_fract_y
_atom_site_fract_z
Si Si1 0.771073 0.916274 0.939329
Si Si2 0.257320 0.693550 0.815219
Si Si3 0.438044 0.819386 0.421571
Si Si4 0.258603 0.514460 0.832835
Si Si5 0.256746 0.959203 0.442983
Si Si6 0.045311 0.297562 0.818818
Si Si7 0.337894 0.297579 0.452552
O O1 0.569409 0.861765 0.869199
O O2 0.773207 0.985428 0.897927
O O3 0.758732 0.935421 0.998474
O O4 0.991509 0.863181 0.987158
O O5 0.264843 0.603548 0.821947
O O6 0.371830 0.733561 0.793842
O O7 0.373363 0.717761 0.898955
O O8 0.000000 0.718355 0.750000
O O9 0.297512 0.887966 0.412964
O O10 0.273722 0.750208 0.369848
O O11 0.613810 0.782597 0.507341
O O12 0.590404 0.830955 0.406426
O O13 0.517279 0.495554 0.873507
O O14 0.000000 0.492910 0.750000
O O15 0.500000 0.000000 0.500000
O O16 0.000000 0.331241 0.750000
#
# Coordination Sequence:
#
# PCOD9274879 Si02
#       7
#     8   8   8   8   8   8   8
#     4  11  23  42  66  90 129 179 221 268 335 404
#     4  11  22  38  63  92 126 169 210 268 332 404
#     4  10  21  37  60  99 124 162 217 281 319 387
#     4  11  24  43  64  95 134 177 218 265 345 409
#     4  12  24  41  67  99 133 174 232 278 327 395
#     4  11  22  41  65  93 127 164 218 278 332 393
#     4  10  20  38  66  88 128 167 217 268 332 390
#
# _framework density 21.439312000000001
#
# number of rings (size 3 to 8) (size 9 to 14) (size 15 to 20)
#    0.000    1.143    2.857    3.429    2.000    2.286 
#    0.000    5.000    0.000    0.000    0.000    0.000 
#    0.000    0.000    0.000    0.000    0.000    0.000 
#
# Total GULP energy -155925.106004 kJ/mol
# GULP energy per Si atom -5568.753786 kJ/mol
# Density = 2.139052 g / cm^3
# Si number density = 21.439312 Si / 1000 Ang^3
#
#
#
# Elastic Constant Matrix: (Units=GPa)
#
#
# Indices 1 2 3 4 5 6 
#
# 1 98.7023 25.6771 22.2615 0.0000 18.5333 0.0000
# 2 25.6771 70.2302 10.4516 0.0000 1.7886 0.0000
# 3 22.2615 10.4516 71.3451 0.0002 13.0543 -0.0001
# 4 0.0000 0.0000 0.0002 14.1787 0.0000 -2.9695
# 5 18.5333 1.7886 13.0543 0.0000 37.1247 0.0000
# 6 0.0000 0.0000 -0.0001 -2.9695 0.0000 24.7998
#
#
#
# Elastic Compliance Matrix: (Units=1/GPa)
#
#
# Indices 1 2 3 4 5 6 
#
# 1 0.012757 -0.004172 -0.002395 0.000000 -0.005325 0.000000
# 2 -0.004172 0.015921 -0.001359 0.000000 0.001793 0.000000
# 3 -0.002395 -0.001359 0.015745 0.000000 -0.004275 0.000000
# 4 0.000000 0.000000 0.000000 0.072343 0.000000 0.008662
# 5 -0.005325 0.001793 -0.004275 0.000000 0.031012 0.000000
# 6 0.000000 0.000000 0.000000 0.008662 0.000000 0.041360
#
#
# Mechanical properties :
#
#
# Convention : Reuss Voigt Hill
#
# Bulk Modulus (GPa) = 35.00001 39.67310 37.33655
# Shear Modulus (GPa) = 23.30869 27.34645 25.32757
#
# Velocity S-wave (km/s) = 3.30084 3.57533 3.44082
# Velocity P-wave (km/s) = 5.55770 5.96565 5.76528
#
# Compressibility (1/GPa) = 0.02857142
#
# Stress axis : x y z
#
# Youngs Moduli (GPa) = 78.38880 62.81100 63.51228
#
# Poissons Ratio (x) = 0.26205 0.15211
# Poissons Ratio (y) = 0.32704 0.08629
# Poissons Ratio (z) = 0.18773 0.08534
#
# Static dielectric constant tensor:
#      x y z
#    x 1.812090 0.000000 0.015670 
#    y 0.000000 1.795990 0.000000 
#    z 0.015670 0.000000 1.903240 
# 
# From -- ./inp_files/232777.got.cif
#   From: 2010.05.17/outbox.cif.g08.bks.cpg/sg15_117_cif.got.tgz:232777.got - 2010.06.03 18:47:42.
