data_PCOD9274893
_publ_section_title
;
Structure prediction by ZEFSAII (Michael W. Deem and Ramdas Pophale) SiO2 
 PCOD9274893
Probable space group: C 2/C
;
_chemical_formula_sum "Si O2"
_cell_formula_units_Z 44
_cell_length_a 15.595929
_cell_length_b 13.391550
_cell_length_c 19.302998
_cell_angle_alpha 90.000000
_cell_angle_beta 24.749630
_cell_angle_gamma 90.000000
_cell_volume 1687.803859
_symmetry_space_group_name_H-M "C 2/C"
_symmetry_group_IT_number 15
_symmetry_cell_setting 'monoclinic'
loop_
_space_group_symop_operation_xyz
x,y,z
-x,y,1/2-z
-x,-y,-z
x,-y,1/2+z
1/2+x,1/2+y,z
1/2-x,1/2+y,1/2-z
1/2-x,1/2-y,-z
1/2+x,1/2-y,1/2+z
loop_
_atom_site_type_symbol
_atom_site_label
_atom_site_fract_x
_atom_site_fract_y
_atom_site_fract_z
Si Si1 0.948569 0.908276 0.689535
Si Si2 0.500000 0.083620 0.250000
Si Si3 0.087315 0.122341 0.614140
Si Si4 0.184089 0.405638 0.754295
Si Si5 0.287787 0.771818 0.371506
Si Si6 0.965154 0.777184 0.072946
O O1 0.107531 0.822350 0.547991
O O2 0.818397 0.948730 0.718797
O O3 0.806045 0.849265 0.849352
O O4 0.073206 0.002372 0.624321
O O5 0.318758 0.144358 0.420609
O O6 0.394499 0.036456 0.257099
O O7 0.000000 0.158191 0.750000
O O8 0.947545 0.163368 0.656245
O O9 0.017752 0.338848 0.917594
O O10 0.339997 0.323613 0.608172
O O11 0.500000 0.806354 0.250000
O O12 0.225289 0.796731 0.338328
#
# Coordination Sequence:
#
# PCOD9274893 Si02
#       6
#     8   4   8   8   8   8
#     4  10  22  42  62  93 129 159 215 266 318 373
#     4  10  24  40  64  98 126 176 216 246 324 392
#     4  11  25  43  64  96 134 165 206 274 322 369
#     4   9  20  38  63  90 127 167 214 256 310 389
#     4  10  20  38  66  90 121 170 212 254 311 386
#     4   9  21  37  62  94 126 165 209 262 318 370
#
# _framework density 26.069379000000001
#
# number of rings (size 3 to 8) (size 9 to 14) (size 15 to 20)
#    0.000    2.182    0.000    1.091    5.091    8.000 
#    0.000    0.909    0.000    0.000    0.000    0.000 
#    0.000    0.000    0.000    0.000    0.000    0.000 
#
# Total GULP energy -122747.251361 kJ/mol
# GULP energy per Si atom -5579.420516 kJ/mol
# Density = 2.601004 g / cm^3
# Si number density = 26.069379 Si / 1000 Ang^3
#
#
#
# Elastic Constant Matrix: (Units=GPa)
#
#
# Indices 1 2 3 4 5 6 
#
# 1 173.0515 23.4122 56.7723 -0.0018 -8.9441 0.0003
# 2 23.4122 81.7925 38.2409 0.0004 4.5673 0.0029
# 3 56.7723 38.2409 88.3135 -0.0035 2.3052 0.0052
# 4 -0.0018 0.0004 -0.0035 8.9293 0.0048 -2.9368
# 5 -8.9441 4.5673 2.3052 0.0048 45.9006 0.0000
# 6 0.0003 0.0029 0.0052 -2.9368 0.0000 30.9597
#
#
#
# Elastic Compliance Matrix: (Units=1/GPa)
#
#
# Indices 1 2 3 4 5 6 
#
# 1 0.007453 0.000041 -0.004853 -0.000001 0.001692 0.000001
# 2 0.000041 0.015395 -0.006662 -0.000003 -0.001189 -0.000001
# 3 -0.004853 -0.006662 0.017358 0.000006 -0.001154 -0.000002
# 4 -0.000001 -0.000003 0.000006 0.115598 -0.000012 0.010965
# 5 0.001692 -0.001189 -0.001154 -0.000012 0.022292 -0.000001
# 6 0.000001 -0.000001 -0.000002 0.010965 -0.000001 0.033340
#
#
# Mechanical properties :
#
#
# Convention : Reuss Voigt Hill
#
# Bulk Modulus (GPa) = 57.94195 64.44536 61.19365
# Shear Modulus (GPa) = 20.82158 32.14006 26.48082
#
# Velocity S-wave (km/s) = 2.82919 3.51503 3.19059
# Velocity P-wave (km/s) = 5.73993 6.42248 6.09077
#
# Compressibility (1/GPa) = 0.01725865
#
# Stress axis : x y z
#
# Youngs Moduli (GPa) = 134.18221 64.95485 57.61114
#
# Poissons Ratio (x) = -0.00268 0.27958
# Poissons Ratio (y) = -0.00553 0.38379
# Poissons Ratio (z) = 0.65117 0.43272
#
# Static dielectric constant tensor:
#      x y z
#    x 2.100130 0.000000 -0.020350 
#    y 0.000000 2.041790 0.000020 
#    z -0.020350 0.000020 2.102360 
# 
# From -- ./inp_files/62820.got.cif
#   From: 2010.05.17/outbox.cif.g08.bks.cpg/sg15_32_cif.got.tgz:62820.got - 2010.06.03 18:47:42.
