data_PCOD9274773
_publ_section_title
;
Structure prediction by ZEFSAII (Michael W. Deem and Ramdas Pophale) SiO2 
 PCOD9274773
Probable space group: C 2/C
;
_chemical_formula_sum "Si O2"
_cell_formula_units_Z 36
_cell_length_a 16.526133
_cell_length_b 7.728630
_cell_length_c 14.925245
_cell_angle_alpha 90.000000
_cell_angle_beta 57.546486
_cell_angle_gamma 90.000000
_cell_volume 1608.602341
_symmetry_space_group_name_H-M "C 2/C"
_symmetry_group_IT_number 15
_symmetry_cell_setting 'monoclinic'
loop_
_space_group_symop_operation_xyz
x,y,z
-x,y,1/2-z
-x,-y,-z
x,-y,1/2+z
1/2+x,1/2+y,z
1/2-x,1/2+y,1/2-z
1/2-x,1/2-y,-z
1/2+x,1/2-y,1/2+z
loop_
_atom_site_type_symbol
_atom_site_label
_atom_site_fract_x
_atom_site_fract_y
_atom_site_fract_z
Si Si1 0.000000 0.317704 0.750000
Si Si2 0.692076 0.862815 0.963764
Si Si3 0.017507 0.651786 0.840222
Si Si4 0.696168 0.678981 0.650273
Si Si5 0.300483 0.369899 0.723335
O O1 0.033713 0.449375 0.808243
O O2 0.094032 0.213876 0.666804
O O3 0.580242 0.839216 0.046821
O O4 0.750000 0.750000 0.000000
O O5 0.726936 0.810499 0.844843
O O6 0.729622 0.061511 0.949672
O O7 0.107476 0.744897 0.830220
O O8 0.000000 0.728496 0.750000
O O9 0.672957 0.555075 0.750489
O O10 0.748859 0.847027 0.659143
#
# Coordination Sequence:
#
# PCOD9274773 Si02
#       5
#     4   8   8   8   8
#     4  10  22  38  64  90 126 166 212 252 318 364
#     4  10  21  37  69  92 123 170 212 253 324 370
#     4  10  20  38  65  89 127 162 210 259 309 369
#     4  10  23  40  64  91 129 164 208 262 312 376
#     4  10  22  40  64  89 131 161 209 261 315 367
#
# _framework density 22.379677000000001
#
# number of rings (size 3 to 8) (size 9 to 14) (size 15 to 20)
#    2.000    0.000    2.222    1.333    4.667    1.778 
#    0.000    1.111    0.000    0.000    0.000    0.000 
#    0.000    0.000    0.000    0.000    0.000    0.000 
#
# Total GULP energy -100324.179793 kJ/mol
# GULP energy per Si atom -5573.565544 kJ/mol
# Density = 2.232874 g / cm^3
# Si number density = 22.379677 Si / 1000 Ang^3
#
#
#
# Elastic Constant Matrix: (Units=GPa)
#
#
# Indices 1 2 3 4 5 6 
#
# 1 77.7901 5.3436 34.2361 0.0000 -27.4874 0.0000
# 2 5.3436 46.9903 2.0255 0.0000 -8.6774 0.0000
# 3 34.2361 2.0255 98.1501 0.0000 -44.7653 0.0000
# 4 0.0000 0.0000 0.0000 7.3661 0.0000 17.3638
# 5 -27.4874 -8.6774 -44.7653 0.0000 45.4713 0.0000
# 6 0.0000 0.0000 0.0000 17.3638 0.0000 19.3182
#
#
#
# Elastic Compliance Matrix: (Units=1/GPa)
#
#
# Indices 1 2 3 4 5 6 
#
# 1 0.016611 -0.000359 -0.002247 0.000000 0.007760 0.000000
# 2 -0.000359 0.022455 0.002754 0.000000 0.006779 0.000000
# 3 -0.002247 0.002754 0.019121 0.000000 0.017991 0.000000
# 4 0.000000 0.000000 0.000000 -0.121343 0.000000 0.109067
# 5 0.007760 0.006779 0.017991 0.000000 0.045689 0.000000
# 6 0.000000 0.000000 0.000000 0.109067 0.000000 -0.046269
#
#
# Mechanical properties :
#
#
# Convention : Reuss Voigt Hill
#
# Bulk Modulus (GPa) = 17.09929 34.01566 25.55747
# Shear Modulus (GPa) = -112.26653 26.51946 -42.87354
#
# Velocity S-wave (km/s) = -7.09037 3.44609 -4.38166
# Velocity P-wave (km/s) = 7.70546 5.57372 3.76216
#
# Compressibility (1/GPa) = 0.05848196
#
# Stress axis : x y z
#
# Youngs Moduli (GPa) = 60.20109 44.53359 52.29801
#
# Poissons Ratio (x) = 0.01599 0.11753
# Poissons Ratio (y) = 0.02161 -0.14401
# Poissons Ratio (z) = 0.13529 -0.12263
#
# Static dielectric constant tensor:
#      x y z
#    x 1.807180 0.000000 0.029460 
#    y 0.000000 1.936560 0.000000 
#    z 0.029460 0.000000 1.846560 
# 
# From -- ./inp_files/158487.got.cif
#   From: 2010.05.17/outbox.cif.g08.bks.cpg/sg15_80_cif.got.tgz:158487.got - 2010.06.03 18:47:42.
