data_PCOD9274193
_publ_section_title
;
Structure prediction by ZEFSAII (Michael W. Deem and Ramdas Pophale) SiO2 
 PCOD9274193
Probable space group: C 2/C
;
_chemical_formula_sum "Si O2"
_cell_formula_units_Z 56
_cell_length_a 19.068326
_cell_length_b 13.109918
_cell_length_c 16.306844
_cell_angle_alpha 90.000000
_cell_angle_beta 38.495069
_cell_angle_gamma 90.000000
_cell_volume 2537.377208
_symmetry_space_group_name_H-M "C 2/C"
_symmetry_group_IT_number 15
_symmetry_cell_setting 'monoclinic'
loop_
_space_group_symop_operation_xyz
x,y,z
-x,y,1/2-z
-x,-y,-z
x,-y,1/2+z
1/2+x,1/2+y,z
1/2-x,1/2+y,1/2-z
1/2-x,1/2-y,-z
1/2+x,1/2-y,1/2+z
loop_
_atom_site_type_symbol
_atom_site_label
_atom_site_fract_x
_atom_site_fract_y
_atom_site_fract_z
Si Si1 0.539497 0.775664 0.882395
Si Si2 0.000000 0.294746 0.250000
Si Si3 0.978872 0.946981 0.432359
Si Si4 0.836958 0.533262 0.958133
Si Si5 0.500000 0.119404 0.250000
Si Si6 0.742256 0.412351 0.788204
Si Si7 0.619214 0.610769 0.225234
Si Si8 0.609687 0.068182 0.916795
O O1 0.551721 0.655520 0.867563
O O2 0.499192 0.812152 0.830365
O O3 0.655790 0.833216 0.794761
O O4 0.440100 0.817938 0.033480
O O5 0.082344 0.368060 0.122521
O O6 0.070573 0.219391 0.243634
O O7 0.848909 0.912908 0.555851
O O8 0.000000 0.000000 0.500000
O O9 0.020910 0.027264 0.327395
O O10 0.891138 0.454922 0.843669
O O11 0.709900 0.571964 0.075471
O O12 0.850724 0.470472 0.030184
O O13 0.682893 0.386625 0.755174
O O14 0.795666 0.526595 0.731060
O O15 0.500000 0.000000 0.000000
#
# Coordination Sequence:
#
# PCOD9274193 Si02
#       8
#     8   4   8   8   4   8   8   8
#     4  10  20  38  62  86 112 150 190 230 283 338
#     4  11  22  37  58  82 114 157 192 225 280 342
#     4  10  23  39  54  84 119 147 190 237 280 335
#     4   9  19  38  58  86 117 143 188 237 280 334
#     4   9  20  37  62  88 112 145 190 235 278 338
#     4   9  20  38  60  85 113 147 189 239 285 330
#     4  10  22  38  55  82 118 151 187 235 282 333
#     4   8  16  33  59  86 109 138 183 233 276 325
#
# _framework density 22.070032999999999
#
# number of rings (size 3 to 8) (size 9 to 14) (size 15 to 20)
#    0.000    2.571    0.000    0.429    0.000   13.143 
#    0.000   14.286    0.000    0.000    0.000    0.000 
#    0.000    0.000    0.000    0.000    0.000    0.000 
#
# Total GULP energy -156230.799368 kJ/mol
# GULP energy per Si atom -5579.671406 kJ/mol
# Density = 2.201980 g / cm^3
# Si number density = 22.070033 Si / 1000 Ang^3
#
#
#
# Elastic Constant Matrix: (Units=GPa)
#
#
# Indices 1 2 3 4 5 6 
#
# 1 51.2490 8.7230 4.8944 0.0000 -12.3534 0.0000
# 2 8.7230 100.7308 28.5809 0.0000 0.5934 0.0000
# 3 4.8944 28.5809 114.9991 0.0000 -11.0690 0.0000
# 4 0.0000 0.0000 0.0000 25.6752 0.0000 -7.2094
# 5 -12.3534 0.5934 -11.0690 0.0000 21.8937 0.0000
# 6 0.0000 0.0000 0.0000 -7.2094 0.0000 10.6607
#
#
#
# Elastic Compliance Matrix: (Units=1/GPa)
#
#
# Indices 1 2 3 4 5 6 
#
# 1 0.023089 -0.002335 0.000902 0.000000 0.013547 0.000000
# 2 -0.002335 0.010978 -0.002927 0.000000 -0.003095 0.000000
# 3 0.000902 -0.002927 0.009924 0.000000 0.005606 0.000000
# 4 0.000000 0.000000 0.000000 0.048077 0.000000 0.032513
# 5 0.013547 -0.003095 0.005606 0.000000 0.056237 0.000000
# 6 0.000000 0.000000 0.000000 0.032513 0.000000 0.115790
#
#
# Mechanical properties :
#
#
# Convention : Reuss Voigt Hill
#
# Bulk Modulus (GPa) = 28.35170 39.04172 33.69671
# Shear Modulus (GPa) = 17.57007 26.63128 22.10068
#
# Velocity S-wave (km/s) = 2.82459 3.47749 3.16791
# Velocity P-wave (km/s) = 4.84891 5.81827 5.35556
#
# Compressibility (1/GPa) = 0.03527126
#
# Stress axis : x y z
#
# Youngs Moduli (GPa) = 43.30976 91.08805 100.76218
#
# Poissons Ratio (x) = 0.21270 -0.09085
# Poissons Ratio (y) = 0.10113 0.29493
# Poissons Ratio (z) = -0.03905 0.26661
#
# Static dielectric constant tensor:
#      x y z
#    x 1.818350 0.000000 -0.009780 
#    y 0.000000 1.658210 0.000000 
#    z -0.009780 0.000000 1.875800 
# 
# From -- ./inp_files/255449.got.cif
#   From: 2010.05.17/outbox.cif.g08.bks.cpg/sg15_128_cif.got.tgz:255449.got - 2010.06.03 18:47:42.
