data_PCOD9274747
_publ_section_title
;
Structure prediction by ZEFSAII (Michael W. Deem and Ramdas Pophale) SiO2 
 PCOD9274747
Probable space group: C 2/C
;
_chemical_formula_sum "Si O2"
_cell_formula_units_Z 32
_cell_length_a 12.860151
_cell_length_b 17.574995
_cell_length_c 8.906186
_cell_angle_alpha 90.000000
_cell_angle_beta 135.097633
_cell_angle_gamma 90.000000
_cell_volume 1420.943250
_symmetry_space_group_name_H-M "C 2/C"
_symmetry_group_IT_number 15
_symmetry_cell_setting 'monoclinic'
loop_
_space_group_symop_operation_xyz
x,y,z
-x,y,1/2-z
-x,-y,-z
x,-y,1/2+z
1/2+x,1/2+y,z
1/2-x,1/2+y,1/2-z
1/2-x,1/2-y,-z
1/2+x,1/2-y,1/2+z
loop_
_atom_site_type_symbol
_atom_site_label
_atom_site_fract_x
_atom_site_fract_y
_atom_site_fract_z
Si Si1 0.822977 0.832080 0.055769
Si Si2 0.000000 0.093845 0.250000
Si Si3 0.742974 0.884039 0.295022
Si Si4 0.500000 0.110857 0.750000
Si Si5 0.254763 0.551961 0.223368
O O1 0.758679 0.873750 0.135759
O O2 0.000000 0.828926 0.250000
O O3 0.750000 0.750000 0.000000
O O4 0.778799 0.877123 0.860084
O O5 0.898573 0.047095 0.262760
O O6 0.112056 0.141005 0.467061
O O7 0.604593 0.847184 0.237239
O O8 0.734822 0.975899 0.299166
O O9 0.385945 0.065691 0.526761
#
# Coordination Sequence:
#
# PCOD9274747 Si02
#       5
#     8   4   8   4   8
#     4  12  28  47  71 104 143 185 227 288 356 418
#     4  10  20  38  65 100 127 172 240 290 328 390
#     4  11  23  42  72 102 141 183 237 286 342 408
#     4  10  24  40  63 104 137 180 224 286 344 404
#     4  11  23  42  72 102 141 183 237 286 342 408
#
# _framework density 22.520250999999998
#
# number of rings (size 3 to 8) (size 9 to 14) (size 15 to 20)
#    0.000    1.000    2.500    4.500    7.000    0.000 
#    0.000    7.500    0.000    0.000    0.000    0.000 
#    0.000    0.000    0.000    0.000    0.000    0.000 
#
# Total GULP energy -89387.471372 kJ/mol
# GULP energy per Si atom -5586.716961 kJ/mol
# Density = 2.246899 g / cm^3
# Si number density = 22.520251 Si / 1000 Ang^3
#
#
#
# Elastic Constant Matrix: (Units=GPa)
#
#
# Indices 1 2 3 4 5 6 
#
# 1 170.3277 18.6702 64.8706 0.0000 -1.8529 0.0000
# 2 18.6702 79.9011 34.0997 0.0000 -8.9935 0.0000
# 3 64.8706 34.0997 156.3485 0.0000 -1.6836 0.0000
# 4 0.0000 0.0000 0.0000 12.0871 0.0000 -5.0305
# 5 -1.8529 -8.9935 -1.6836 0.0000 45.8609 0.0000
# 6 0.0000 0.0000 0.0000 -5.0305 0.0000 12.7049
#
#
#
# Elastic Compliance Matrix: (Units=1/GPa)
#
#
# Indices 1 2 3 4 5 6 
#
# 1 0.006987 -0.000425 -0.002805 0.000000 0.000096 0.000000
# 2 -0.000425 0.014142 -0.002880 0.000000 0.002650 0.000000
# 3 -0.002805 -0.002880 0.008184 0.000000 -0.000378 0.000000
# 4 0.000000 0.000000 0.000000 0.099057 0.000000 0.039222
# 5 0.000096 0.002650 -0.000378 0.000000 0.022315 0.000000
# 6 0.000000 0.000000 0.000000 0.039222 0.000000 0.094239
#
#
# Mechanical properties :
#
#
# Convention : Reuss Voigt Hill
#
# Bulk Modulus (GPa) = 58.50092 71.31759 64.90925
# Shear Modulus (GPa) = 19.02289 33.39303 26.20796
#
# Velocity S-wave (km/s) = 2.90953 3.85489 3.41508
# Velocity P-wave (km/s) = 6.10906 7.17987 6.66600
#
# Compressibility (1/GPa) = 0.01709375
#
# Stress axis : x y z
#
# Youngs Moduli (GPa) = 143.12163 70.71145 122.19054
#
# Poissons Ratio (x) = 0.03002 0.34279
# Poissons Ratio (y) = 0.06077 0.35187
# Poissons Ratio (z) = 0.40151 0.20363
#
# Static dielectric constant tensor:
#      x y z
#    x 1.867780 0.000000 0.023370 
#    y 0.000000 1.882180 0.000000 
#    z 0.023370 0.000000 1.826240 
# 
# From -- ./inp_files/30060.got.cif
#   From: 2010.05.17/outbox.cif.g08.bks.cpg/sg15_16_cif.got.tgz:30060.got - 2010.06.03 18:47:42.
