data_PCOD9274733
_publ_section_title
;
Structure prediction by ZEFSAII (Michael W. Deem and Ramdas Pophale) SiO2 
 PCOD9274733
Probable space group: C 2/C
;
_chemical_formula_sum "Si O2"
_cell_formula_units_Z 52
_cell_length_a 17.215848
_cell_length_b 5.410598
_cell_length_c 24.498558
_cell_angle_alpha 90.000000
_cell_angle_beta 87.215598
_cell_angle_gamma 90.000000
_cell_volume 2279.298361
_symmetry_space_group_name_H-M "C 2/C"
_symmetry_group_IT_number 15
_symmetry_cell_setting 'monoclinic'
loop_
_space_group_symop_operation_xyz
x,y,z
-x,y,1/2-z
-x,-y,-z
x,-y,1/2+z
1/2+x,1/2+y,z
1/2-x,1/2+y,1/2-z
1/2-x,1/2-y,-z
1/2+x,1/2-y,1/2+z
loop_
_atom_site_type_symbol
_atom_site_label
_atom_site_fract_x
_atom_site_fract_y
_atom_site_fract_z
Si Si1 0.500000 0.750923 0.250000
Si Si2 0.942918 0.895620 0.346092
Si Si3 0.801776 0.244779 0.589578
Si Si4 0.147761 0.256023 0.475735
Si Si5 0.999916 0.256120 0.074246
Si Si6 0.153118 0.563778 0.090292
Si Si7 0.914186 0.534762 0.168925
O O1 0.455622 0.598249 0.299056
O O2 0.427033 0.897703 0.225556
O O3 0.864046 0.742148 0.357818
O O4 0.012174 0.711795 0.331169
O O5 0.963728 0.005708 0.404707
O O6 0.820009 0.489430 0.553144
O O7 0.842864 0.310021 0.646246
O O8 0.834491 0.002199 0.556244
O O9 0.713069 0.157269 0.599916
O O10 0.177305 0.275815 0.536814
O O11 0.052989 0.259046 0.476836
O O12 0.071867 0.439906 0.075721
O O13 0.936159 0.333735 0.122192
#
# Coordination Sequence:
#
# PCOD9274733 Si02
#       7
#     4   8   8   8   8   8   8
#     4  10  20  38  72 100 116 164 232 304 356 416
#     4  10  20  38  64  98 123 164 227 287 344 396
#     4  11  24  41  63  98 140 187 222 266 332 408
#     4  11  23  41  62  93 144 194 228 256 318 409
#     4   9  20  37  59  94 131 176 225 274 315 391
#     4  11  24  36  62 101 140 178 222 276 331 399
#     4   9  19  39  61  99 120 168 225 281 338 411
#
# _framework density 22.814039000000001
#
# number of rings (size 3 to 8) (size 9 to 14) (size 15 to 20)
#    0.000    1.846    1.538    1.846    4.308    0.615 
#    0.000    0.000    0.000    0.000   68.000    0.000 
#    0.000    0.000    0.000    0.000    0.000    0.000 
#
# Total GULP energy -144893.053528 kJ/mol
# GULP energy per Si atom -5572.809751 kJ/mol
# Density = 2.276211 g / cm^3
# Si number density = 22.814039 Si / 1000 Ang^3
#
#
#
# Elastic Constant Matrix: (Units=GPa)
#
#
# Indices 1 2 3 4 5 6 
#
# 1 109.3207 50.3723 46.8085 0.0000 11.4146 0.0000
# 2 50.3723 140.3016 57.7399 0.0000 0.8272 0.0000
# 3 46.8085 57.7399 116.3295 0.0000 17.8354 0.0000
# 4 0.0000 0.0000 0.0000 43.7735 0.0000 -3.2644
# 5 11.4146 0.8272 17.8354 0.0000 15.8783 0.0000
# 6 0.0000 0.0000 0.0000 -3.2644 0.0000 29.0696
#
#
#
# Elastic Compliance Matrix: (Units=1/GPa)
#
#
# Indices 1 2 3 4 5 6 
#
# 1 0.012370 -0.003445 -0.002334 0.000000 -0.006092 0.000000
# 2 -0.003445 0.010328 -0.004877 0.000000 0.007417 0.000000
# 3 -0.002334 -0.004877 0.014086 0.000000 -0.013890 0.000000
# 4 0.000000 0.000000 0.000000 0.023038 0.000000 0.002587
# 5 -0.006092 0.007417 -0.013890 0.000000 0.082574 0.000000
# 6 0.000000 0.000000 0.000000 0.002587 0.000000 0.034691
#
#
# Mechanical properties :
#
#
# Convention : Reuss Voigt Hill
#
# Bulk Modulus (GPa) = 64.63206 75.08814 69.86010
# Shear Modulus (GPa) = 24.56344 31.81301 28.18822
#
# Velocity S-wave (km/s) = 3.28484 3.73828 3.51887
# Velocity P-wave (km/s) = 6.54052 7.18454 6.87008
#
# Compressibility (1/GPa) = 0.01547220
#
# Stress axis : x y z
#
# Youngs Moduli (GPa) = 80.84090 96.82683 70.99459
#
# Poissons Ratio (x) = 0.33356 0.16567
# Poissons Ratio (y) = 0.27849 0.34625
# Poissons Ratio (z) = 0.18865 0.47223
#
# Static dielectric constant tensor:
#      x y z
#    x 1.946500 0.000000 -0.032680 
#    y 0.000000 1.955840 0.000000 
#    z -0.032680 0.000000 1.927640 
# 
# From -- ./inp_files/297499.got.cif
#   From: 2010.05.17/outbox.cif.g08.bks.cpg/sg15_149_cif.got.tgz:297499.got - 2010.06.03 18:47:42.
