data_PCOD9274305
_publ_section_title
;
Structure prediction by ZEFSAII (Michael W. Deem and Ramdas Pophale) SiO2 
 PCOD9274305
Probable space group: C 2/C
;
_chemical_formula_sum "Si O2"
_cell_formula_units_Z 48
_cell_length_a 15.306812
_cell_length_b 11.121876
_cell_length_c 16.511219
_cell_angle_alpha 90.000000
_cell_angle_beta 49.301066
_cell_angle_gamma 90.000000
_cell_volume 2131.056926
_symmetry_space_group_name_H-M "C 2/C"
_symmetry_group_IT_number 15
_symmetry_cell_setting 'monoclinic'
loop_
_space_group_symop_operation_xyz
x,y,z
-x,y,1/2-z
-x,-y,-z
x,-y,1/2+z
1/2+x,1/2+y,z
1/2-x,1/2+y,1/2-z
1/2-x,1/2-y,-z
1/2+x,1/2-y,1/2+z
loop_
_atom_site_type_symbol
_atom_site_label
_atom_site_fract_x
_atom_site_fract_y
_atom_site_fract_z
Si Si1 0.212798 0.466799 0.717739
Si Si2 0.132983 0.741119 0.910464
Si Si3 0.079400 0.883990 0.455653
Si Si4 0.176653 0.476400 0.925595
Si Si5 0.510802 0.118678 0.841365
Si Si6 0.394835 0.346232 0.868826
O O1 0.277455 0.351684 0.641114
O O2 0.305338 0.576718 0.659225
O O3 0.182194 0.438329 0.828813
O O4 0.094200 0.517797 0.752771
O O5 0.183459 0.621329 0.919754
O O6 0.096980 0.709672 0.838681
O O7 0.007811 0.780690 0.021962
O O8 0.104813 0.867391 0.535299
O O9 0.000000 0.000000 0.500000
O O10 0.062121 0.442964 0.043026
O O11 0.280109 0.404118 0.904342
O O12 0.582477 0.202424 0.648592
O O13 0.500000 0.396889 0.750000
#
# Coordination Sequence:
#
# PCOD9274305 Si02
#       6
#     8   8   8   8   8   8
#     4  10  20  38  62  91 125 170 216 260 314 380
#     4   9  19  35  59  88 119 163 209 256 310 373
#     4   9  19  38  61  87 120 162 209 258 312 377
#     4  11  22  37  59  93 129 164 213 268 318 374
#     4  10  22  36  57  90 126 164 209 259 314 375
#     4  11  23  40  62  91 124 165 211 263 319 377
#
# _framework density 22.524035999999999
#
# number of rings (size 3 to 8) (size 9 to 14) (size 15 to 20)
#    0.000    2.000    0.000    5.500    0.000   12.000 
#    0.000    3.333    0.000    1.000    0.000    0.000 
#    0.000    0.000    0.000    0.000    0.000    0.000 
#
# Total GULP energy -133850.274475 kJ/mol
# GULP energy per Si atom -5577.094770 kJ/mol
# Density = 2.247277 g / cm^3
# Si number density = 22.524036 Si / 1000 Ang^3
#
#
#
# Elastic Constant Matrix: (Units=GPa)
#
#
# Indices 1 2 3 4 5 6 
#
# 1 130.9278 71.4680 36.7903 0.0000 -21.3783 0.0000
# 2 71.4680 150.1357 34.0492 0.0000 -18.4885 0.0000
# 3 36.7903 34.0492 80.4361 0.0000 -33.5111 0.0000
# 4 0.0000 0.0000 0.0000 25.3859 0.0000 -6.4987
# 5 -21.3783 -18.4885 -33.5111 0.0000 41.6007 0.0000
# 6 0.0000 0.0000 0.0000 -6.4987 0.0000 49.2579
#
#
#
# Elastic Compliance Matrix: (Units=1/GPa)
#
#
# Indices 1 2 3 4 5 6 
#
# 1 0.011060 -0.004500 -0.002437 0.000000 0.001721 0.000000
# 2 -0.004500 0.009236 -0.001663 0.000000 0.000453 0.000000
# 3 -0.002437 -0.001663 0.020200 0.000000 0.014281 0.000000
# 4 0.000000 0.000000 0.000000 0.040769 0.000000 0.005379
# 5 0.001721 0.000453 0.014281 0.000000 0.036627 0.000000
# 6 0.000000 0.000000 0.000000 0.005379 0.000000 0.021011
#
#
# Mechanical properties :
#
#
# Convention : Reuss Voigt Hill
#
# Bulk Modulus (GPa) = 42.92476 71.79053 57.35765
# Shear Modulus (GPa) = 30.51235 37.86171 34.18703
#
# Velocity S-wave (km/s) = 3.68456 4.10438 3.90012
# Velocity P-wave (km/s) = 6.09918 7.37586 6.76769
#
# Compressibility (1/GPa) = 0.02329658
#
# Stress axis : x y z
#
# Youngs Moduli (GPa) = 90.41590 108.27574 49.50420
#
# Poissons Ratio (x) = 0.48727 0.12063
# Poissons Ratio (y) = 0.40690 0.08231
# Poissons Ratio (z) = 0.22033 0.18002
#
# Static dielectric constant tensor:
#      x y z
#    x 1.819260 0.000000 -0.038570 
#    y 0.000000 2.349010 0.000000 
#    z -0.038570 0.000000 1.851140 
# 
# From -- ./inp_files/209904.got.cif
#   From: 2010.05.17/outbox.cif.g08.bks.cpg/sg15_105_cif.got.tgz:209904.got - 2010.06.03 18:47:42.
