data_PCOD9274891
_publ_section_title
;
Structure prediction by ZEFSAII (Michael W. Deem and Ramdas Pophale) SiO2 
 PCOD9274891
Probable space group: C 2/C
;
_chemical_formula_sum "Si O2"
_cell_formula_units_Z 40
_cell_length_a 8.986353
_cell_length_b 26.631830
_cell_length_c 9.023302
_cell_angle_alpha 90.000000
_cell_angle_beta 92.746068
_cell_angle_gamma 90.000000
_cell_volume 2157.004148
_symmetry_space_group_name_H-M "C 2/C"
_symmetry_group_IT_number 15
_symmetry_cell_setting 'monoclinic'
loop_
_space_group_symop_operation_xyz
x,y,z
-x,y,1/2-z
-x,-y,-z
x,-y,1/2+z
1/2+x,1/2+y,z
1/2-x,1/2+y,1/2-z
1/2-x,1/2-y,-z
1/2+x,1/2-y,1/2+z
loop_
_atom_site_type_symbol
_atom_site_label
_atom_site_fract_x
_atom_site_fract_y
_atom_site_fract_z
Si Si1 0.758573 0.692085 0.958123
Si Si2 0.618653 0.997643 0.877430
Si Si3 0.263048 0.403710 0.445918
Si Si4 0.000000 0.650249 0.750000
Si Si5 0.500000 0.352999 0.250000
Si Si6 0.175832 0.385271 0.778208
O O1 0.618829 0.678898 0.847710
O O2 0.904519 0.681211 0.865243
O O3 0.750000 0.750000 0.000000
O O4 0.761145 0.654883 0.101166
O O5 0.500000 0.014847 0.750000
O O6 0.746975 0.036632 0.923109
O O7 0.677340 0.941993 0.844481
O O8 0.500000 0.000000 0.000000
O O9 0.407562 0.384714 0.366320
O O10 0.250104 0.387891 0.618105
O O11 0.119868 0.381128 0.351515
O O12 0.000000 0.373506 0.750000
#
# Coordination Sequence:
#
# PCOD9274891 Si02
#       6
#     8   8   8   4   4   8
#     4  11  25  44  66  91 128 164 219 264 328 373
#     4  11  19  33  64  99 123 163 219 256 301 370
#     4  11  21  40  63  95 134 164 210 257 319 382
#     4  10  20  38  66  90 120 170 214 258 300 390
#     4  10  28  42  62  96 130 172 204 268 330 382
#     4  11  22  38  66  98 121 164 223 265 301 370
#
# _framework density 18.544236999999999
#
# number of rings (size 3 to 8) (size 9 to 14) (size 15 to 20)
#    0.000    1.200    7.000    0.000    4.200    2.400 
#    0.000    8.000    0.000    0.000    0.000    0.000 
#    0.000    0.000    0.000    0.000    0.000    0.000 
#
# Total GULP energy -111489.727980 kJ/mol
# GULP energy per Si atom -5574.486399 kJ/mol
# Density = 1.850203 g / cm^3
# Si number density = 18.544237 Si / 1000 Ang^3
#
#
#
# Elastic Constant Matrix: (Units=GPa)
#
#
# Indices 1 2 3 4 5 6 
#
# 1 88.0096 51.9761 47.3733 0.0000 -16.4363 0.0000
# 2 51.9761 132.2652 69.3176 0.0000 -10.6147 0.0000
# 3 47.3733 69.3176 172.8957 0.0000 -25.6920 0.0000
# 4 0.0000 0.0000 0.0000 28.2919 0.0000 -0.9217
# 5 -16.4363 -10.6147 -25.6920 0.0000 34.8258 0.0000
# 6 0.0000 0.0000 0.0000 -0.9217 0.0000 11.0465
#
#
#
# Elastic Compliance Matrix: (Units=1/GPa)
#
#
# Indices 1 2 3 4 5 6 
#
# 1 0.016174 -0.005092 -0.001670 0.000000 0.004850 0.000000
# 2 -0.005092 0.011175 -0.003298 0.000000 -0.001430 0.000000
# 3 -0.001670 -0.003298 0.008195 0.000000 0.004253 0.000000
# 4 0.000000 0.000000 0.000000 0.035442 0.000000 0.002957
# 5 0.004850 -0.001430 0.004253 0.000000 0.033705 0.000000
# 6 0.000000 0.000000 0.000000 0.002957 0.000000 0.090773
#
#
# Mechanical properties :
#
#
# Convention : Reuss Voigt Hill
#
# Bulk Modulus (GPa) = 64.82394 81.16715 72.99554
# Shear Modulus (GPa) = 22.65271 29.79973 26.22622
#
# Velocity S-wave (km/s) = 3.49886 4.01303 3.76473
# Velocity P-wave (km/s) = 7.16624 8.08313 7.63846
#
# Compressibility (1/GPa) = 0.01542640
#
# Stress axis : x y z
#
# Youngs Moduli (GPa) = 61.82854 89.48647 122.02012
#
# Poissons Ratio (x) = 0.45563 0.20373
# Poissons Ratio (y) = 0.31480 0.40238
# Poissons Ratio (z) = 0.10323 0.29509
#
# Static dielectric constant tensor:
#      x y z
#    x 1.607220 0.000000 0.004130 
#    y 0.000000 1.643140 0.000000 
#    z 0.004130 0.000000 1.627700 
# 
# From -- ./inp_files/23525.got.cif
#   From: 2010.05.17/outbox.cif.g08.bks.cpg/sg15_12_cif.got.tgz:23525.got - 2010.06.03 18:47:42.
