data_PCOD9274899
_publ_section_title
;
Structure prediction by ZEFSAII (Michael W. Deem and Ramdas Pophale) SiO2 
 PCOD9274899
Probable space group: C 2/C
;
_chemical_formula_sum "Si O2"
_cell_formula_units_Z 48
_cell_length_a 22.131298
_cell_length_b 24.476041
_cell_length_c 8.747277
_cell_angle_alpha 90.000000
_cell_angle_beta 151.329762
_cell_angle_gamma 90.000000
_cell_volume 2273.275322
_symmetry_space_group_name_H-M "C 2/C"
_symmetry_group_IT_number 15
_symmetry_cell_setting 'monoclinic'
loop_
_space_group_symop_operation_xyz
x,y,z
-x,y,1/2-z
-x,-y,-z
x,-y,1/2+z
1/2+x,1/2+y,z
1/2-x,1/2+y,1/2-z
1/2-x,1/2-y,-z
1/2+x,1/2-y,1/2+z
loop_
_atom_site_type_symbol
_atom_site_label
_atom_site_fract_x
_atom_site_fract_y
_atom_site_fract_z
Si Si1 0.500000 0.784391 0.750000
Si Si2 0.680847 0.028341 0.399615
Si Si3 0.186603 0.693119 0.914153
Si Si4 0.000000 0.506484 0.750000
Si Si5 0.207579 0.788038 0.543251
Si Si6 0.171361 0.919140 0.767700
Si Si7 0.893493 0.906946 0.232316
O O1 0.435503 0.815126 0.463713
O O2 0.395326 0.745813 0.591501
O O3 0.598395 0.028259 0.368851
O O4 0.804676 0.064393 0.658854
O O5 0.729767 0.966656 0.478772
O O6 0.583017 0.042474 0.048561
O O7 0.250000 0.750000 0.000000
O O8 0.181987 0.697795 0.088920
O O9 0.274979 0.640953 0.083404
O O10 0.250000 0.750000 0.500000
O O11 0.138509 0.842868 0.333548
O O12 0.144584 0.924057 0.525817
O O13 0.039815 0.922816 0.566487
#
# Coordination Sequence:
#
# PCOD9274899 Si02
#       7
#     4   8   8   4   8   8   8
#     4  10  20  41  64  88 128 168 209 266 318 380
#     4  11  21  43  62  92 121 169 202 256 316 374
#     4   9  19  38  62  91 124 165 211 256 319 369
#     4  10  24  41  62  84 136 154 213 254 302 382
#     4  10  21  40  62  92 124 164 213 260 316 379
#     4  10  20  38  66  91 122 161 211 260 312 376
#     4  10  20  39  65  90 124 163 208 258 314 376
#
# _framework density 21.114908
#
# number of rings (size 3 to 8) (size 9 to 14) (size 15 to 20)
#    0.000    2.000    1.667    3.500    0.000    1.333 
#   12.000    0.000    0.000    0.000    0.000    0.000 
#    0.000    0.000    0.000    0.000    0.000    0.000 
#
# Total GULP energy -133899.460374 kJ/mol
# GULP energy per Si atom -5579.144182 kJ/mol
# Density = 2.106685 g / cm^3
# Si number density = 21.114908 Si / 1000 Ang^3
#
#
#
# Elastic Constant Matrix: (Units=GPa)
#
#
# Indices 1 2 3 4 5 6 
#
# 1 133.7932 29.2205 48.5678 0.0000 28.0152 0.0000
# 2 29.2205 52.5830 26.2996 0.0000 11.5154 0.0000
# 3 48.5678 26.2996 106.3409 0.0000 0.5943 0.0000
# 4 0.0000 0.0000 0.0000 19.8153 0.0000 5.9425
# 5 28.0152 11.5154 0.5943 0.0000 30.4284 0.0000
# 6 0.0000 0.0000 0.0000 5.9425 0.0000 21.2733
#
#
#
# Elastic Compliance Matrix: (Units=1/GPa)
#
#
# Indices 1 2 3 4 5 6 
#
# 1 0.011738 -0.001920 -0.004830 0.000000 -0.009986 0.000000
# 2 -0.001920 0.024220 -0.005072 0.000000 -0.007299 0.000000
# 3 -0.004830 -0.005072 0.012830 0.000000 0.006116 0.000000
# 4 0.000000 0.000000 0.000000 0.055080 0.000000 -0.015386
# 5 -0.009986 -0.007299 0.006116 0.000000 0.044701 0.000000
# 6 0.000000 0.000000 0.000000 -0.015386 0.000000 0.051305
#
#
# Mechanical properties :
#
#
# Convention : Reuss Voigt Hill
#
# Bulk Modulus (GPa) = 39.77277 55.65477 47.71377
# Shear Modulus (GPa) = 21.56098 26.87868 24.21983
#
# Velocity S-wave (km/s) = 3.19897 3.57174 3.39049
# Velocity P-wave (km/s) = 5.70279 6.58977 6.16226
#
# Compressibility (1/GPa) = 0.02514283
#
# Stress axis : x y z
#
# Youngs Moduli (GPa) = 85.19328 41.28843 77.94188
#
# Poissons Ratio (x) = 0.07927 0.37648
# Poissons Ratio (y) = 0.16357 0.39534
# Poissons Ratio (z) = 0.41151 0.20942
#
# Static dielectric constant tensor:
#      x y z
#    x 1.664370 0.000000 0.178430 
#    y 0.000000 1.730900 0.000000 
#    z 0.178430 0.000000 1.332590 
# 
# From -- ./inp_files/59171.got.cif
#   From: 2010.05.17/outbox.cif.g08.bks.cpg/sg15_30_cif.got.tgz:59171.got - 2010.06.03 18:47:42.
