data_PCOD9274236
_publ_section_title
;
Structure prediction by ZEFSAII (Michael W. Deem and Ramdas Pophale) SiO2 
 PCOD9274236
Probable space group: C 2/C
;
_chemical_formula_sum "Si O2"
_cell_formula_units_Z 56
_cell_length_a 9.521160
_cell_length_b 12.367766
_cell_length_c 32.200340
_cell_angle_alpha 90.000000
_cell_angle_beta 143.466532
_cell_angle_gamma 90.000000
_cell_volume 2257.209147
_symmetry_space_group_name_H-M "C 2/C"
_symmetry_group_IT_number 15
_symmetry_cell_setting 'monoclinic'
loop_
_space_group_symop_operation_xyz
x,y,z
-x,y,1/2-z
-x,-y,-z
x,-y,1/2+z
1/2+x,1/2+y,z
1/2-x,1/2+y,1/2-z
1/2-x,1/2-y,-z
1/2+x,1/2-y,1/2+z
loop_
_atom_site_type_symbol
_atom_site_label
_atom_site_fract_x
_atom_site_fract_y
_atom_site_fract_z
Si Si1 0.525604 0.601120 0.065844
Si Si2 0.060445 0.653948 0.454560
Si Si3 0.529496 0.218794 0.303020
Si Si4 0.678887 0.456584 0.415159
Si Si5 0.274109 0.270755 0.320795
Si Si6 0.679818 0.958365 0.421128
Si Si7 0.170507 0.952997 0.319712
O O1 0.708230 0.694342 0.118764
O O2 0.395643 0.559335 0.075499
O O3 0.687271 0.500879 0.087580
O O4 0.340861 0.624089 0.985213
O O5 0.250000 0.750000 0.500000
O O6 0.102741 0.603704 0.510404
O O7 0.160661 0.564058 0.446250
O O8 0.833887 0.706686 0.377726
O O9 0.500000 0.167119 0.250000
O O10 0.356113 0.197603 0.300318
O O11 0.519996 0.346440 0.293854
O O12 0.455073 0.373149 0.363444
O O13 0.731142 0.490870 0.380414
O O14 0.000000 0.299658 0.250000
O O15 0.411428 0.923824 0.353387
O O16 0.000000 0.022788 0.250000
#
# Coordination Sequence:
#
# PCOD9274236 Si02
#       7
#     8   8   8   8   8   8   8
#     4  10  21  39  63  89 121 159 208 250 301 369
#     4   9  18  37  62  89 120 156 200 254 297 352
#     4  10  22  41  58  86 127 160 198 257 310 362
#     4   9  21  39  63  87 121 160 204 254 303 365
#     4  10  20  38  62  88 120 162 206 248 305 369
#     4  10  21  39  64  90 122 162 204 252 311 361
#     4  10  23  42  62  88 129 163 199 257 313 360
#
# _framework density 24.809398000000002
#
# number of rings (size 3 to 8) (size 9 to 14) (size 15 to 20)
#    0.000    2.286    1.429    0.000    0.000    8.571 
#    5.143    0.000    0.000    0.000    0.000    0.000 
#    0.000    0.000    0.000    0.000    0.000    0.000 
#
# Total GULP energy -156347.640870 kJ/mol
# GULP energy per Si atom -5583.844317 kJ/mol
# Density = 2.475293 g / cm^3
# Si number density = 24.809398 Si / 1000 Ang^3
#
#
#
# Elastic Constant Matrix: (Units=GPa)
#
#
# Indices 1 2 3 4 5 6 
#
# 1 119.1755 -1.5273 54.2088 0.0000 2.7121 0.0000
# 2 -1.5273 37.7339 9.5170 0.0000 -1.3892 0.0000
# 3 54.2088 9.5170 182.7750 0.0000 12.3691 0.0000
# 4 0.0000 0.0000 0.0000 28.1721 0.0000 6.4808
# 5 2.7121 -1.3892 12.3691 0.0000 42.4456 0.0000
# 6 0.0000 0.0000 0.0000 6.4808 0.0000 24.8418
#
#
#
# Elastic Compliance Matrix: (Units=1/GPa)
#
#
# Indices 1 2 3 4 5 6 
#
# 1 0.009751 0.001154 -0.002971 0.000000 0.000281 0.000000
# 2 0.001154 0.027063 -0.001843 0.000000 0.001349 0.000000
# 3 -0.002971 -0.001843 0.006569 0.000000 -0.001785 0.000000
# 4 0.000000 0.000000 0.000000 0.037762 0.000000 -0.009852
# 5 0.000281 0.001349 -0.001785 0.000000 0.024106 0.000000
# 6 0.000000 0.000000 0.000000 -0.009852 0.000000 0.042825
#
#
# Mechanical properties :
#
#
# Convention : Reuss Voigt Hill
#
# Bulk Modulus (GPa) = 27.72890 51.56460 39.64675
# Shear Modulus (GPa) = 29.86576 37.59096 33.72836
#
# Velocity S-wave (km/s) = 3.47336 3.89677 3.69114
# Velocity P-wave (km/s) = 5.22366 6.40904 5.84647
#
# Compressibility (1/GPa) = 0.03606345
#
# Stress axis : x y z
#
# Youngs Moduli (GPa) = 102.55540 36.95148 152.22731
#
# Poissons Ratio (x) = -0.04265 0.45228
# Poissons Ratio (y) = -0.11838 0.28052
# Poissons Ratio (z) = 0.30470 0.06809
#
# Static dielectric constant tensor:
#      x y z
#    x 1.979870 0.000000 -0.048140 
#    y 0.000000 2.021550 0.000000 
#    z -0.048140 0.000000 2.097160 
# 
# From -- ./inp_files/308650.got.cif
#   From: 2010.05.17/outbox.cif.g08.bks.cpg/sg15_155_cif.got.tgz:308650.got - 2010.06.03 18:47:42.
