data_PCOD9274214
_publ_section_title
;
Structure prediction by ZEFSAII (Michael W. Deem and Ramdas Pophale) SiO2 
 PCOD9274214
Probable space group: C 2/C
;
_chemical_formula_sum "Si O2"
_cell_formula_units_Z 64
_cell_length_a 12.743738
_cell_length_b 15.016078
_cell_length_c 27.789713
_cell_angle_alpha 90.000000
_cell_angle_beta 140.031442
_cell_angle_gamma 90.000000
_cell_volume 3416.022508
_symmetry_space_group_name_H-M "C 2/C"
_symmetry_group_IT_number 15
_symmetry_cell_setting 'monoclinic'
loop_
_space_group_symop_operation_xyz
x,y,z
-x,y,1/2-z
-x,-y,-z
x,-y,1/2+z
1/2+x,1/2+y,z
1/2-x,1/2+y,1/2-z
1/2-x,1/2-y,-z
1/2+x,1/2-y,1/2+z
loop_
_atom_site_type_symbol
_atom_site_label
_atom_site_fract_x
_atom_site_fract_y
_atom_site_fract_z
Si Si1 0.156482 0.432699 0.336769
Si Si2 0.410704 0.374851 0.667951
Si Si3 0.711502 0.291879 0.723695
Si Si4 0.956974 0.380389 0.678106
Si Si5 0.601980 0.583612 0.835119
Si Si6 0.359056 0.271840 0.432522
Si Si7 0.183915 0.744447 0.602141
Si Si8 0.869660 0.857034 0.339441
O O1 0.112879 0.519948 0.351772
O O2 0.230395 0.353139 0.394313
O O3 0.000000 0.405887 0.250000
O O4 0.708102 0.440835 0.158652
O O5 0.500000 0.356721 0.750000
O O6 0.548203 0.345160 0.678405
O O7 0.370673 0.478812 0.651706
O O8 0.249280 0.316146 0.607094
O O9 0.704966 0.262364 0.666090
O O10 0.735538 0.204549 0.765355
O O11 0.875249 0.351998 0.788630
O O12 0.815797 0.307751 0.621573
O O13 0.000000 0.378358 0.750000
O O14 0.500000 0.601751 0.750000
O O15 0.762894 0.643545 0.889476
O O16 0.495768 0.614348 0.843477
O O17 0.503715 0.266537 0.521034
O O18 0.432420 0.295533 0.405480
#
# Coordination Sequence:
#
# PCOD9274214 Si02
#       8
#     8   8   8   8   8   8   8   8
#     4   9  19  36  62  87 115 150 206 247 294 351
#     4  11  23  40  62  90 122 158 210 252 295 361
#     4  11  20  39  68  86 119 159 204 252 301 357
#     4   9  19  35  59  92 115 152 198 254 297 349
#     4  11  22  39  61  92 119 160 208 250 297 355
#     4  10  23  40  62  88 124 163 197 253 307 354
#     4  11  22  39  60  88 132 154 198 254 305 365
#     4  10  20  38  62  87 112 162 203 240 298 355
#
# _framework density 18.735239
#
# number of rings (size 3 to 8) (size 9 to 14) (size 15 to 20)
#    0.750    1.000    3.750    1.500    5.250    2.000 
#    0.000    0.000    0.000    3.000    0.000    0.000 
#    0.000    0.000    0.000    0.000    0.000    0.000 
#
# Total GULP energy -178295.603631 kJ/mol
# GULP energy per Si atom -5571.737613 kJ/mol
# Density = 1.869260 g / cm^3
# Si number density = 18.735239 Si / 1000 Ang^3
#
#
#
# Elastic Constant Matrix: (Units=GPa)
#
#
# Indices 1 2 3 4 5 6 
#
# 1 70.6208 29.7289 -8.1716 0.0000 -0.3506 0.0000
# 2 29.7289 94.8804 46.6366 0.0000 11.6222 0.0000
# 3 -8.1716 46.6366 52.0355 0.0000 7.4701 0.0000
# 4 0.0000 0.0000 0.0000 -20.6908 0.0000 -0.5582
# 5 -0.3506 11.6222 7.4701 0.0000 18.6432 0.0000
# 6 0.0000 0.0000 0.0000 -0.5582 0.0000 18.3391
#
#
#
# Elastic Compliance Matrix: (Units=1/GPa)
#
#
# Indices 1 2 3 4 5 6 
#
# 1 0.023216 -0.016535 0.017955 0.000000 0.003550 0.000000
# 2 -0.016535 0.031118 -0.029345 0.000000 -0.007952 0.000000
# 3 0.017955 -0.029345 0.048450 0.000000 -0.000782 0.000000
# 4 0.000000 0.000000 0.000000 -0.048291 0.000000 -0.001470
# 5 0.003550 -0.007952 -0.000782 0.000000 0.058976 0.000000
# 6 0.000000 0.000000 0.000000 -0.001470 0.000000 0.054484
#
#
# Mechanical properties :
#
#
# Convention : Reuss Voigt Hill
#
# Bulk Modulus (GPa) = 21.30566 39.32494 30.31530
# Shear Modulus (GPa) = 20.88154 13.21450 17.04802
#
# Velocity S-wave (km/s) = 3.34212 2.65868 3.01980
# Velocity P-wave (km/s) = 5.12735 5.51908 5.32681
#
# Compressibility (1/GPa) = 0.04693589
#
# Stress axis : x y z
#
# Youngs Moduli (GPa) = 43.07384 32.13544 20.64000
#
# Poissons Ratio (x) = 0.53135 -0.37060
# Poissons Ratio (y) = 0.71221 0.60567
# Poissons Ratio (z) = -0.77341 0.94300
#
# Static dielectric constant tensor:
#      x y z
#    x 1.681510 0.000000 0.009950 
#    y 0.000000 1.685040 0.000000 
#    z 0.009950 0.000000 1.620670 
# 
# From -- ./inp_files/293085.got.cif
#   From: 2010.05.17/outbox.cif.g08.bks.cpg/sg15_147_cif.got.tgz:293085.got - 2010.06.03 18:47:42.
