data_PCOD9274151
_publ_section_title
;
Structure prediction by ZEFSAII (Michael W. Deem and Ramdas Pophale) SiO2 
 PCOD9274151
Probable space group: C 2/C
;
_chemical_formula_sum "Si O2"
_cell_formula_units_Z 64
_cell_length_a 15.342267
_cell_length_b 14.844327
_cell_length_c 14.970986
_cell_angle_alpha 90.000000
_cell_angle_beta 54.586969
_cell_angle_gamma 90.000000
_cell_volume 2778.791391
_symmetry_space_group_name_H-M "C 2/C"
_symmetry_group_IT_number 15
_symmetry_cell_setting 'monoclinic'
loop_
_space_group_symop_operation_xyz
x,y,z
-x,y,1/2-z
-x,-y,-z
x,-y,1/2+z
1/2+x,1/2+y,z
1/2-x,1/2+y,1/2-z
1/2-x,1/2-y,-z
1/2+x,1/2-y,1/2+z
loop_
_atom_site_type_symbol
_atom_site_label
_atom_site_fract_x
_atom_site_fract_y
_atom_site_fract_z
Si Si1 0.282715 0.856007 0.972651
Si Si2 0.022263 0.096866 0.841683
Si Si3 0.370567 0.724059 0.405072
Si Si4 0.726898 0.140605 0.233198
Si Si5 0.501606 0.205947 0.139354
Si Si6 0.249819 0.938290 0.273879
Si Si7 0.406418 0.219926 0.681445
Si Si8 0.653221 0.473435 0.526167
O O1 0.287706 0.870653 0.863858
O O2 0.400979 0.858152 0.944507
O O3 0.250000 0.750000 0.000000
O O4 0.213591 0.943544 0.040463
O O5 0.972894 0.191676 0.901159
O O6 0.147307 0.103597 0.786170
O O7 0.000000 0.085157 0.750000
O O8 0.961507 0.017337 0.927800
O O9 0.250000 0.750000 0.500000
O O10 0.467877 0.760682 0.409603
O O11 0.391552 0.763851 0.295621
O O12 0.370787 0.615718 0.403694
O O13 0.613455 0.180900 0.330380
O O14 0.827059 0.205804 0.187032
O O15 0.741261 0.041139 0.263021
O O16 0.500000 0.206195 0.250000
O O17 0.354321 0.877834 0.195095
O O18 0.216740 0.942818 0.399179
#
# Coordination Sequence:
#
# PCOD9274151 Si02
#       8
#     8   8   8   8   8   8   8   8
#     4  10  20  38  61  95 131 165 205 265 333 383
#     4  11  22  36  64  93 131 171 214 268 329 380
#     4  11  25  46  67  93 125 173 224 263 328 384
#     4  10  22  40  62  95 126 167 220 259 325 392
#     4   9  18  36  59  88 127 167 203 258 324 387
#     4  11  23  41  66  96 128 171 218 268 325 388
#     4  11  24  45  68  91 134 173 212 280 326 385
#     4  11  23  39  66  96 128 170 222 271 312 401
#
# _framework density 23.031594999999999
#
# number of rings (size 3 to 8) (size 9 to 14) (size 15 to 20)
#    0.000    1.500    3.750    1.125    3.500    2.000 
#    6.750    0.000    0.000    1.500    0.000    0.000 
#    0.000    0.000    0.000    0.000    0.000    0.000 
#
# Total GULP energy -178684.871783 kJ/mol
# GULP energy per Si atom -5583.902243 kJ/mol
# Density = 2.297917 g / cm^3
# Si number density = 23.031595 Si / 1000 Ang^3
#
#
#
# Elastic Constant Matrix: (Units=GPa)
#
#
# Indices 1 2 3 4 5 6 
#
# 1 104.3198 33.3982 34.8771 0.0000 -37.0129 0.0000
# 2 33.3982 91.7220 17.8403 0.0000 -9.3440 0.0000
# 3 34.8771 17.8403 65.3470 0.0000 -22.8184 0.0000
# 4 0.0000 0.0000 0.0000 31.4123 0.0000 -14.6951
# 5 -37.0129 -9.3440 -22.8184 0.0000 38.8590 0.0000
# 6 0.0000 0.0000 0.0000 -14.6951 0.0000 24.4345
#
#
#
# Elastic Compliance Matrix: (Units=1/GPa)
#
#
# Indices 1 2 3 4 5 6 
#
# 1 0.016539 -0.004085 -0.003213 0.000000 0.012885 0.000000
# 2 -0.004085 0.012565 -0.001954 0.000000 -0.002017 0.000000
# 3 -0.003213 -0.001954 0.020528 0.000000 0.008524 0.000000
# 4 0.000000 0.000000 0.000000 0.044298 0.000000 0.026641
# 5 0.012885 -0.002017 0.008524 0.000000 0.042527 0.000000
# 6 0.000000 0.000000 0.000000 0.026641 0.000000 0.056948
#
#
# Mechanical properties :
#
#
# Convention : Reuss Voigt Hill
#
# Bulk Modulus (GPa) = 32.12641 48.18000 40.15321
# Shear Modulus (GPa) = 22.49371 30.62605 26.55988
#
# Velocity S-wave (km/s) = 3.12852 3.65052 3.39955
# Velocity P-wave (km/s) = 5.19897 6.22357 5.73420
#
# Compressibility (1/GPa) = 0.03112704
#
# Stress axis : x y z
#
# Youngs Moduli (GPa) = 60.46173 79.58903 48.71451
#
# Poissons Ratio (x) = 0.32511 0.15652
# Poissons Ratio (y) = 0.24698 0.09521
# Poissons Ratio (z) = 0.19427 0.15555
#
# Static dielectric constant tensor:
#      x y z
#    x 1.903710 0.000000 -0.020690 
#    y 0.000000 1.892540 0.000000 
#    z -0.020690 0.000000 1.940790 
# 
# From -- ./inp_files/205708.got.cif
#   From: 2010.05.17/outbox.cif.g08.bks.cpg/sg15_103_cif.got.tgz:205708.got - 2010.06.03 18:47:42.
