data_PCOD9274426
_publ_section_title
;
Structure prediction by ZEFSAII (Michael W. Deem and Ramdas Pophale) SiO2 
 PCOD9274426
Probable space group: C 2/C
;
_chemical_formula_sum "Si O2"
_cell_formula_units_Z 60
_cell_length_a 26.026031
_cell_length_b 21.349615
_cell_length_c 9.162762
_cell_angle_alpha 90.000000
_cell_angle_beta 36.537705
_cell_angle_gamma 90.000000
_cell_volume 3031.083939
_symmetry_space_group_name_H-M "C 2/C"
_symmetry_group_IT_number 15
_symmetry_cell_setting 'monoclinic'
loop_
_space_group_symop_operation_xyz
x,y,z
-x,y,1/2-z
-x,-y,-z
x,-y,1/2+z
1/2+x,1/2+y,z
1/2-x,1/2+y,1/2-z
1/2-x,1/2-y,-z
1/2+x,1/2-y,1/2+z
loop_
_atom_site_type_symbol
_atom_site_label
_atom_site_fract_x
_atom_site_fract_y
_atom_site_fract_z
Si Si1 0.582793 0.164140 0.952390
Si Si2 0.697040 0.090384 0.189692
Si Si3 0.433547 0.978366 0.031214
Si Si4 0.000000 0.011989 0.750000
Si Si5 0.904165 0.076968 0.698823
Si Si6 0.877517 0.790214 0.164405
Si Si7 0.697192 0.809352 0.449552
Si Si8 0.081705 0.674992 0.626824
O O1 0.598995 0.091912 0.874336
O O2 0.571603 0.193516 0.818205
O O3 0.500000 0.170743 0.250000
O O4 0.662214 0.187759 0.867221
O O5 0.667042 0.130753 0.115320
O O6 0.666459 0.134504 0.393771
O O7 0.644185 0.026350 0.312824
O O8 0.799581 0.078580 0.952146
O O9 0.500000 0.974285 0.750000
O O10 0.500000 0.000000 0.000000
O O11 0.052994 0.053098 0.747933
O O12 0.062636 0.968262 0.507350
O O13 0.928258 0.148744 0.601022
O O14 0.799070 0.812130 0.239749
O O15 0.836359 0.754091 0.397098
O O16 0.917820 0.735122 0.978616
O O17 0.000000 0.635925 0.750000
#
# Coordination Sequence:
#
# PCOD9274426 Si02
#       8
#     8   8   8   4   8   8   8   8
#     4  11  22  35  53  88 130 166 211 266 304 359
#     4  10  20  38  63  88 125 174 210 251 320 381
#     4  11  21  33  54  85 128 170 205 241 297 373
#     4  10  24  46  68  94 128 150 212 278 316 380
#     4  10  23  45  68  93 122 162 206 266 328 379
#     4   9  20  40  64  84 116 166 203 250 329 384
#     4   9  19  38  58  85 123 155 208 268 307 371
#     4  11  22  38  61  90 129 169 211 256 306 379
#
# _framework density 19.794899000000001
#
# number of rings (size 3 to 8) (size 9 to 14) (size 15 to 20)
#    0.000    1.867    0.000    6.000    0.933    4.800 
#    3.600    2.667    0.000    0.000    0.000    0.000 
#    0.000    0.000    0.000    0.000    0.000    0.000 
#
# Total GULP energy -167270.726951 kJ/mol
# GULP energy per Si atom -5575.690898 kJ/mol
# Density = 1.974984 g / cm^3
# Si number density = 19.794899 Si / 1000 Ang^3
#
#
#
# Elastic Constant Matrix: (Units=GPa)
#
#
# Indices 1 2 3 4 5 6 
#
# 1 144.1372 36.5497 38.4616 0.0000 17.1117 0.0000
# 2 36.5497 92.9491 23.7378 0.0000 -8.0000 0.0000
# 3 38.4616 23.7378 85.6269 0.0000 0.0542 0.0000
# 4 0.0000 0.0000 0.0000 26.0020 0.0000 -5.5131
# 5 17.1117 -8.0000 0.0542 0.0000 30.2945 0.0000
# 6 0.0000 0.0000 0.0000 -5.5131 0.0000 29.7730
#
#
#
# Elastic Compliance Matrix: (Units=1/GPa)
#
#
# Indices 1 2 3 4 5 6 
#
# 1 0.009412 -0.003397 -0.003282 0.000000 -0.006208 0.000000
# 2 -0.003397 0.013096 -0.002108 0.000000 0.005381 0.000000
# 3 -0.003282 -0.002108 0.013736 0.000000 0.001273 0.000000
# 4 0.000000 0.000000 0.000000 0.040030 0.000000 0.007412
# 5 -0.006208 0.005381 0.001273 0.000000 0.037934 0.000000
# 6 0.000000 0.000000 0.000000 0.007412 0.000000 0.034960
#
#
# Mechanical properties :
#
#
# Convention : Reuss Voigt Hill
#
# Bulk Modulus (GPa) = 53.56166 57.80126 55.68146
# Shear Modulus (GPa) = 28.90737 32.14481 30.52609
#
# Velocity S-wave (km/s) = 3.82559 4.03413 3.93124
# Velocity P-wave (km/s) = 6.82866 7.13879 6.98545
#
# Compressibility (1/GPa) = 0.01867007
#
# Stress axis : x y z
#
# Youngs Moduli (GPa) = 106.24785 76.35988 72.79964
#
# Poissons Ratio (x) = 0.25940 0.23892
# Poissons Ratio (y) = 0.36094 0.15346
# Poissons Ratio (z) = 0.34870 0.16097
#
# Static dielectric constant tensor:
#      x y z
#    x 1.676100 0.000000 -0.006820 
#    y 0.000000 1.735500 0.000000 
#    z -0.006820 0.000000 1.753400 
# 
# From -- ./inp_files/63509.got.cif
#   From: 2010.05.17/outbox.cif.g08.bks.cpg/sg15_32_cif.got.tgz:63509.got - 2010.06.03 18:47:42.
