data_PCOD9274040
_publ_section_title
;
Structure prediction by ZEFSAII (Michael W. Deem and Ramdas Pophale) SiO2 
 PCOD9274040
Probable space group: C 2/C
;
_chemical_formula_sum "Si O2"
_cell_formula_units_Z 44
_cell_length_a 21.116836
_cell_length_b 10.694844
_cell_length_c 9.335919
_cell_angle_alpha 90.000000
_cell_angle_beta 122.719823
_cell_angle_gamma 90.000000
_cell_volume 1773.877242
_symmetry_space_group_name_H-M "C 2/C"
_symmetry_group_IT_number 15
_symmetry_cell_setting 'monoclinic'
loop_
_space_group_symop_operation_xyz
x,y,z
-x,y,1/2-z
-x,-y,-z
x,-y,1/2+z
1/2+x,1/2+y,z
1/2-x,1/2+y,1/2-z
1/2-x,1/2-y,-z
1/2+x,1/2-y,1/2+z
loop_
_atom_site_type_symbol
_atom_site_label
_atom_site_fract_x
_atom_site_fract_y
_atom_site_fract_z
Si Si1 0.500000 0.668434 0.750000
Si Si2 0.899052 0.965290 0.351162
Si Si3 0.338018 0.379156 0.559472
Si Si4 0.295171 0.759358 0.757192
Si Si5 0.626849 0.838750 0.050903
Si Si6 0.831048 0.514752 0.641399
O O1 0.531021 0.589322 0.651093
O O2 0.562880 0.757593 0.898063
O O3 0.889521 0.958504 0.510185
O O4 0.833537 0.862896 0.232401
O O5 0.876848 0.098238 0.257753
O O6 0.326426 0.251063 0.458788
O O7 0.253908 0.432091 0.466326
O O8 0.206761 0.734276 0.643144
O O9 0.320484 0.884721 0.715621
O O10 0.637543 0.964483 0.968918
O O11 0.618847 0.890594 0.202945
#
# Coordination Sequence:
#
# PCOD9274040 Si02
#       6
#     4   8   8   8   8   8
#     4  12  24  38  58  88 122 170 182 226 306 372
#     4  10  20  38  61  85 119 152 198 236 293 346
#     4   9  18  35  62  88 109 154 199 250 276 336
#     4   9  19  37  64  82 114 152 199 241 286 334
#     4  11  22  36  62  88 117 156 198 238 292 350
#     4  11  18  38  62  87 114 155 199 249 282 339
#
# _framework density 24.80442
#
# number of rings (size 3 to 8) (size 9 to 14) (size 15 to 20)
#    1.091    0.727    3.636    1.636    0.000    1.455 
#    0.000   10.000    0.000    3.273    0.000    0.000 
#    0.000    0.000    0.000    0.000    0.000    0.000 
#
# Total GULP energy -122956.414126 kJ/mol
# GULP energy per Si atom -5588.927915 kJ/mol
# Density = 2.474796 g / cm^3
# Si number density = 24.804420 Si / 1000 Ang^3
#
#
#
# Elastic Constant Matrix: (Units=GPa)
#
#
# Indices 1 2 3 4 5 6 
#
# 1 114.9102 15.6154 35.2636 0.0000 -6.8574 0.0000
# 2 15.6154 61.3519 13.3224 0.0000 -2.0893 0.0000
# 3 35.2636 13.3224 87.1497 0.0000 -7.4063 0.0000
# 4 0.0000 0.0000 0.0000 34.5144 0.0000 -13.8942
# 5 -6.8574 -2.0893 -7.4063 0.0000 42.8194 0.0000
# 6 0.0000 0.0000 0.0000 -13.8942 0.0000 43.7439
#
#
#
# Elastic Compliance Matrix: (Units=1/GPa)
#
#
# Indices 1 2 3 4 5 6 
#
# 1 0.010147 -0.001735 -0.003765 0.000000 0.000889 0.000000
# 2 -0.001735 0.017162 -0.001902 0.000000 0.000231 0.000000
# 3 -0.003765 -0.001902 0.013427 0.000000 0.001627 0.000000
# 4 0.000000 0.000000 0.000000 0.033221 0.000000 0.010552
# 5 0.000889 0.000231 0.001627 0.000000 0.023789 0.000000
# 6 0.000000 0.000000 0.000000 0.010552 0.000000 0.026212
#
#
# Mechanical properties :
#
#
# Convention : Reuss Voigt Hill
#
# Bulk Modulus (GPa) = 38.56220 43.53495 41.04857
# Shear Modulus (GPa) = 33.92023 37.49622 35.70823
#
# Velocity S-wave (km/s) = 3.70199 3.89224 3.79831
# Velocity P-wave (km/s) = 5.81836 6.14726 5.98507
#
# Compressibility (1/GPa) = 0.02593213
#
# Stress axis : x y z
#
# Youngs Moduli (GPa) = 98.55499 58.26894 74.47730
#
# Poissons Ratio (x) = 0.10108 0.28040
# Poissons Ratio (y) = 0.17097 0.14165
# Poissons Ratio (z) = 0.37105 0.11083
#
# Static dielectric constant tensor:
#      x y z
#    x 1.960480 0.000000 -0.060610 
#    y 0.000000 2.003390 0.000000 
#    z -0.060610 0.000000 2.043000 
# 
# From -- ./inp_files/122744.got.cif
#   From: 2010.05.17/outbox.cif.g08.bks.cpg/sg15_62_cif.got.tgz:122744.got - 2010.06.03 18:47:42.
