data_PCOD9274534
_publ_section_title
;
Structure prediction by ZEFSAII (Michael W. Deem and Ramdas Pophale) SiO2 
 PCOD9274534
Probable space group: C 2/C
;
_chemical_formula_sum "Si O2"
_cell_formula_units_Z 48
_cell_length_a 24.632971
_cell_length_b 10.511060
_cell_length_c 14.443593
_cell_angle_alpha 90.000000
_cell_angle_beta 150.825440
_cell_angle_gamma 90.000000
_cell_volume 1823.006633
_symmetry_space_group_name_H-M "C 2/C"
_symmetry_group_IT_number 15
_symmetry_cell_setting 'monoclinic'
loop_
_space_group_symop_operation_xyz
x,y,z
-x,y,1/2-z
-x,-y,-z
x,-y,1/2+z
1/2+x,1/2+y,z
1/2-x,1/2+y,1/2-z
1/2-x,1/2-y,-z
1/2+x,1/2-y,1/2+z
loop_
_atom_site_type_symbol
_atom_site_label
_atom_site_fract_x
_atom_site_fract_y
_atom_site_fract_z
Si Si1 0.916997 0.710289 0.977219
Si Si2 0.864651 0.546863 0.297269
Si Si3 0.589883 0.427127 0.192968
Si Si4 0.620854 0.456424 0.920200
Si Si5 0.669057 0.808943 0.577650
Si Si6 0.837357 0.429846 0.536903
O O1 0.920333 0.587201 0.912722
O O2 0.801720 0.782517 0.781070
O O3 0.900695 0.654872 0.055661
O O4 0.020673 0.805569 0.124869
O O5 0.887204 0.652578 0.408867
O O6 0.731345 0.524298 0.119966
O O7 0.867275 0.573420 0.190722
O O8 0.632000 0.535570 0.327326
O O9 0.708821 0.386387 0.330598
O O10 0.500000 0.500000 0.000000
O O11 0.500000 0.519996 0.750000
O O12 0.617607 0.320371 0.962115
O O13 0.649419 0.926317 0.479399
#
# Coordination Sequence:
#
# PCOD9274534 Si02
#       6
#     8   8   8   8   8   8
#     4  10  21  38  68 101 153 193 243 309 364 438
#     4   9  21  39  64  99 144 199 244 292 375 433
#     4  11  22  37  69 112 145 185 250 302 369 441
#     4  10  22  37  67 101 144 186 243 302 349 435
#     4  10  20  38  64 100 146 193 242 300 369 435
#     4  10  22  40  66 102 148 199 241 305 371 436
#
# _framework density 26.330127999999998
#
# number of rings (size 3 to 8) (size 9 to 14) (size 15 to 20)
#    0.000    2.000    1.667    1.000    7.000    2.667 
#    0.000    0.000    0.000   37.000    0.000    4.667 
#    0.000    0.000    0.000    0.000    0.000    0.000 
#
# Total GULP energy -134380.913773 kJ/mol
# GULP energy per Si atom -5599.204741 kJ/mol
# Density = 2.627020 g / cm^3
# Si number density = 26.330128 Si / 1000 Ang^3
#
#
#
# Elastic Constant Matrix: (Units=GPa)
#
#
# Indices 1 2 3 4 5 6 
#
# 1 180.4867 96.7842 50.1440 0.0000 -11.4717 0.0000
# 2 96.7842 159.5334 56.4921 0.0000 -37.5982 0.0000
# 3 50.1440 56.4921 136.9632 0.0000 -8.2435 0.0000
# 4 0.0000 0.0000 0.0000 -6.5446 0.0000 -15.8166
# 5 -11.4717 -37.5982 -8.2435 0.0000 40.9206 0.0000
# 6 0.0000 0.0000 0.0000 -15.8166 0.0000 40.1850
#
#
#
# Elastic Compliance Matrix: (Units=1/GPa)
#
#
# Indices 1 2 3 4 5 6 
#
# 1 0.008617 -0.005537 -0.001044 0.000000 -0.002882 0.000000
# 2 -0.005537 0.012877 -0.002698 0.000000 0.009736 0.000000
# 3 -0.001044 -0.002698 0.008736 0.000000 -0.001012 0.000000
# 4 0.000000 0.000000 0.000000 -0.078309 0.000000 -0.030822
# 5 -0.002882 0.009736 -0.001012 0.000000 0.032371 0.000000
# 6 0.000000 0.000000 0.000000 -0.030822 0.000000 0.012754
#
#
# Mechanical properties :
#
#
# Convention : Reuss Voigt Hill
#
# Bulk Modulus (GPa) = 85.68617 98.20266 91.94442
# Shear Modulus (GPa) = 256.47398 33.14973 144.81185
#
# Velocity S-wave (km/s) = 9.88021 3.55209 7.42415
# Velocity P-wave (km/s) = 12.75820 7.36212 10.41567
#
# Compressibility (1/GPa) = 0.01167049
#
# Stress axis : x y z
#
# Youngs Moduli (GPa) = 116.05446 77.65543 114.47386
#
# Poissons Ratio (x) = 0.42997 0.11955
# Poissons Ratio (y) = 0.64258 0.30889
# Poissons Ratio (z) = 0.12121 0.20954
#
# Static dielectric constant tensor:
#      x y z
#    x 2.438460 0.000000 0.184200 
#    y 0.000000 1.945840 0.000000 
#    z 0.184200 0.000000 2.178470 
# 
# From -- ./inp_files/177894.got.cif
#   From: 2010.05.17/outbox.cif.g08.bks.cpg/sg15_89_cif.got.tgz:177894.got - 2010.06.03 18:47:42.
