data_PCOD9274374
_publ_section_title
;
Structure prediction by ZEFSAII (Michael W. Deem and Ramdas Pophale) SiO2 
 PCOD9274374
Probable space group: C 2/C
;
_chemical_formula_sum "Si O2"
_cell_formula_units_Z 60
_cell_length_a 24.687079
_cell_length_b 16.120979
_cell_length_c 20.368640
_cell_angle_alpha 90.000000
_cell_angle_beta 161.896401
_cell_angle_gamma 90.000000
_cell_volume 2518.923112
_symmetry_space_group_name_H-M "C 2/C"
_symmetry_group_IT_number 15
_symmetry_cell_setting 'monoclinic'
loop_
_space_group_symop_operation_xyz
x,y,z
-x,y,1/2-z
-x,-y,-z
x,-y,1/2+z
1/2+x,1/2+y,z
1/2-x,1/2+y,1/2-z
1/2-x,1/2-y,-z
1/2+x,1/2-y,1/2+z
loop_
_atom_site_type_symbol
_atom_site_label
_atom_site_fract_x
_atom_site_fract_y
_atom_site_fract_z
Si Si1 0.046833 0.827140 0.192542
Si Si2 0.500000 0.600987 0.250000
Si Si3 0.265354 0.954811 0.521214
Si Si4 0.989189 0.902230 0.481301
Si Si5 0.395715 0.142317 0.439463
Si Si6 0.862628 0.354641 0.750707
Si Si7 0.005315 0.181665 0.122937
Si Si8 0.373241 0.086428 0.548707
O O1 0.158331 0.872909 0.376633
O O2 0.070794 0.730432 0.205461
O O3 0.104312 0.871505 0.191031
O O4 0.845298 0.845243 0.975957
O O5 0.653315 0.534814 0.414398
O O6 0.446037 0.659740 0.127502
O O7 0.376570 0.924350 0.711161
O O8 0.335951 0.995774 0.535407
O O9 0.183010 0.861966 0.696368
O O10 0.907749 0.872290 0.455431
O O11 0.000000 0.000000 0.500000
O O12 0.441080 0.130824 0.414682
O O13 0.477113 0.227226 0.562038
O O14 0.441308 0.081951 0.552651
O O15 0.202021 0.144779 0.350510
O O16 0.500000 0.124338 0.750000
#
# Coordination Sequence:
#
# PCOD9274374 Si02
#       8
#     8   4   8   8   8   8   8   8
#     4  11  21  39  65 100 138 188 233 292 350 427
#     4  10  20  38  62  98 120 184 230 282 338 408
#     4  11  22  42  64  97 137 181 239 283 351 420
#     4  10  20  38  66  97 136 182 232 287 350 419
#     4  10  22  41  63 102 135 178 229 290 351 423
#     4  11  23  39  67 102 143 181 237 292 357 425
#     4  10  21  40  64  96 134 176 230 283 355 418
#     4  10  24  44  68  96 133 181 233 290 357 418
#
# _framework density 23.819703000000001
#
# number of rings (size 3 to 8) (size 9 to 14) (size 15 to 20)
#    0.000    1.600    2.667    2.800    2.800    1.600 
#    7.200    0.667    0.000    0.000    0.000    0.000 
#    0.000    0.000    0.000    0.000    0.000    0.000 
#
# Total GULP energy -167269.365576 kJ/mol
# GULP energy per Si atom -5575.645519 kJ/mol
# Density = 2.376549 g / cm^3
# Si number density = 23.819703 Si / 1000 Ang^3
#
#
#
# Elastic Constant Matrix: (Units=GPa)
#
#
# Indices 1 2 3 4 5 6 
#
# 1 146.0597 73.6969 61.8510 0.0059 -57.0073 0.0062
# 2 73.6969 131.8737 48.4166 0.0081 -24.8417 0.0221
# 3 61.8510 48.4166 76.7706 -0.0018 -31.2224 0.0108
# 4 0.0059 0.0081 -0.0018 48.4779 0.0031 -15.1174
# 5 -57.0073 -24.8417 -31.2224 0.0031 44.5260 0.0098
# 6 0.0062 0.0221 0.0108 -15.1174 0.0098 45.6841
#
#
#
# Elastic Compliance Matrix: (Units=1/GPa)
#
#
# Indices 1 2 3 4 5 6 
#
# 1 0.017962 -0.005278 -0.004179 -0.000004 0.017122 -0.000004
# 2 -0.005278 0.011501 -0.004392 -0.000002 -0.003421 -0.000004
# 3 -0.004179 -0.004392 0.022369 0.000000 0.007885 -0.000004
# 4 -0.000004 -0.000002 0.000000 0.023002 -0.000009 0.007612
# 5 0.017122 -0.003421 0.007885 -0.000009 0.048001 -0.000016
# 6 -0.000004 -0.000004 -0.000004 0.007612 -0.000016 0.024408
#
#
# Mechanical properties :
#
#
# Convention : Reuss Voigt Hill
#
# Bulk Modulus (GPa) = 41.43620 80.29255 60.86438
# Shear Modulus (GPa) = 27.32443 39.12024 33.22233
#
# Velocity S-wave (km/s) = 3.39061 4.05699 3.73868
# Velocity P-wave (km/s) = 5.72380 7.46506 6.65165
#
# Compressibility (1/GPa) = 0.02413348
#
# Stress axis : x y z
#
# Youngs Moduli (GPa) = 55.67222 86.95004 44.70392
#
# Poissons Ratio (x) = 0.45896 0.18682
# Poissons Ratio (y) = 0.29386 0.19634
# Poissons Ratio (z) = 0.23266 0.38189
#
# Static dielectric constant tensor:
#      x y z
#    x 2.027360 -0.000010 0.049370 
#    y -0.000010 1.922030 -0.000010 
#    z 0.049370 -0.000010 1.949360 
# 
# From -- ./inp_files/257888.got.cif
#   From: 2010.05.17/outbox.cif.g08.bks.cpg/sg15_129_cif.got.tgz:257888.got - 2010.06.03 18:47:42.
