data_PCOD9274252
_publ_section_title
;
Structure prediction by ZEFSAII (Michael W. Deem and Ramdas Pophale) SiO2 
 PCOD9274252
Probable space group: C 2/C
;
_chemical_formula_sum "Si O2"
_cell_formula_units_Z 60
_cell_length_a 27.928073
_cell_length_b 9.106744
_cell_length_c 21.308504
_cell_angle_alpha 90.000000
_cell_angle_beta 149.679556
_cell_angle_gamma 90.000000
_cell_volume 2735.943269
_symmetry_space_group_name_H-M "C 2/C"
_symmetry_group_IT_number 15
_symmetry_cell_setting 'monoclinic'
loop_
_space_group_symop_operation_xyz
x,y,z
-x,y,1/2-z
-x,-y,-z
x,-y,1/2+z
1/2+x,1/2+y,z
1/2-x,1/2+y,1/2-z
1/2-x,1/2-y,-z
1/2+x,1/2-y,1/2+z
loop_
_atom_site_type_symbol
_atom_site_label
_atom_site_fract_x
_atom_site_fract_y
_atom_site_fract_z
Si Si1 0.792212 0.215133 0.367398
Si Si2 0.050146 0.004686 0.984421
Si Si3 0.500000 0.847044 0.750000
Si Si4 0.354154 0.311499 0.612543
Si Si5 0.075019 0.772911 0.117662
Si Si6 0.962291 0.752229 0.611944
Si Si7 0.318181 0.646496 0.536552
Si Si8 0.959764 0.446200 0.566736
O O1 0.685353 0.254965 0.227511
O O2 0.780011 0.142953 0.422256
O O3 0.860717 0.357319 0.451406
O O4 0.856739 0.105070 0.398336
O O5 0.029985 0.872922 0.011021
O O6 0.073529 0.910184 0.950351
O O7 0.960270 0.110425 0.868664
O O8 0.412692 0.740459 0.642129
O O9 0.504643 0.931060 0.688131
O O10 0.250000 0.250000 0.500000
O O11 0.405300 0.231809 0.611748
O O12 0.425657 0.273152 0.749745
O O13 0.341209 0.485860 0.588852
O O14 0.027168 0.624676 0.089555
O O15 0.943559 0.619436 0.543286
O O16 0.250000 0.750000 0.500000
#
# Coordination Sequence:
#
# PCOD9274252 Si02
#       8
#     8   8   4   8   8   8   8   8
#     4  10  22  41  66  94 128 167 223 271 326 393
#     4  10  23  45  66  94 126 171 214 274 332 380
#     4  10  20  38  62  88 130 164 204 262 316 380
#     4  11  26  40  60  97 134 173 213 264 330 396
#     4  10  23  43  69  92 126 164 224 274 322 393
#     4  11  24  42  62  89 139 169 210 272 327 388
#     4  11  23  35  65  93 125 171 219 258 325 401
#     4  10  23  38  64  96 127 172 215 265 324 391
#
# _framework density 21.93028
#
# number of rings (size 3 to 8) (size 9 to 14) (size 15 to 20)
#    0.000    1.600    1.333    2.400   13.067    1.600 
#    0.000    5.333    0.000    0.000    0.000    0.000 
#    0.000    0.000    0.000    0.000    0.000    0.000 
#
# Total GULP energy -167215.736766 kJ/mol
# GULP energy per Si atom -5573.857892 kJ/mol
# Density = 2.188037 g / cm^3
# Si number density = 21.930280 Si / 1000 Ang^3
#
#
#
# Elastic Constant Matrix: (Units=GPa)
#
#
# Indices 1 2 3 4 5 6 
#
# 1 49.0452 20.1062 8.5288 0.0000 21.7750 0.0000
# 2 20.1062 127.6752 25.7560 0.0000 18.1364 0.0000
# 3 8.5288 25.7560 83.1769 0.0000 31.6300 0.0000
# 4 0.0000 0.0000 0.0000 25.0011 0.0000 3.1157
# 5 21.7750 18.1364 31.6300 0.0000 29.1697 0.0000
# 6 0.0000 0.0000 0.0000 3.1157 0.0000 32.1616
#
#
#
# Elastic Compliance Matrix: (Units=1/GPa)
#
#
# Indices 1 2 3 4 5 6 
#
# 1 0.036338 -0.002654 0.011544 0.000000 -0.037994 0.000000
# 2 -0.002654 0.008841 -0.001921 0.000000 -0.001433 0.000000
# 3 0.011544 -0.001921 0.024260 0.000000 -0.033729 0.000000
# 4 0.000000 0.000000 0.000000 0.040487 0.000000 -0.003922
# 5 -0.037994 -0.001433 -0.033729 0.000000 0.100110 0.000000
# 6 0.000000 0.000000 0.000000 -0.003922 0.000000 0.031473
#
#
# Mechanical properties :
#
#
# Convention : Reuss Voigt Hill
#
# Bulk Modulus (GPa) = 11.99361 40.96437 26.47899
# Shear Modulus (GPa) = 19.57988 30.96689 25.27339
#
# Velocity S-wave (km/s) = 2.99126 3.76182 3.39845
# Velocity P-wave (km/s) = 4.17265 6.13093 5.24401
#
# Compressibility (1/GPa) = 0.08337771
#
# Stress axis : x y z
#
# Youngs Moduli (GPa) = 27.51912 113.10432 41.22004
#
# Poissons Ratio (x) = 0.30021 -0.47584
# Poissons Ratio (y) = 0.07304 0.07917
# Poissons Ratio (z) = -0.31767 0.21723
#
# Static dielectric constant tensor:
#      x y z
#    x 2.035150 0.000000 -0.079120 
#    y 0.000000 1.955720 0.000000 
#    z -0.079120 0.000000 1.804350 
# 
# From -- ./inp_files/283391.got.cif
#   From: 2010.05.17/outbox.cif.g08.bks.cpg/sg15_142_cif.got.tgz:283391.got - 2010.06.03 18:47:42.
