data_PCOD9274820
_publ_section_title
;
Structure prediction by ZEFSAII (Michael W. Deem and Ramdas Pophale) SiO2 
 PCOD9274820
Probable space group: C 2/C
;
_chemical_formula_sum "Si O2"
_cell_formula_units_Z 56
_cell_length_a 22.168104
_cell_length_b 19.671273
_cell_length_c 8.593826
_cell_angle_alpha 90.000000
_cell_angle_beta 131.540612
_cell_angle_gamma 90.000000
_cell_volume 2804.989060
_symmetry_space_group_name_H-M "C 2/C"
_symmetry_group_IT_number 15
_symmetry_cell_setting 'monoclinic'
loop_
_space_group_symop_operation_xyz
x,y,z
-x,y,1/2-z
-x,-y,-z
x,-y,1/2+z
1/2+x,1/2+y,z
1/2-x,1/2+y,1/2-z
1/2-x,1/2-y,-z
1/2+x,1/2-y,1/2+z
loop_
_atom_site_type_symbol
_atom_site_label
_atom_site_fract_x
_atom_site_fract_y
_atom_site_fract_z
Si Si1 0.182884 0.424078 0.000159
Si Si2 0.146701 0.195837 0.208400
Si Si3 0.534287 0.894041 0.544787
Si Si4 0.623043 0.069257 0.882479
Si Si5 0.283888 0.158303 0.646373
Si Si6 0.023120 0.239802 0.607102
Si Si7 0.697868 0.317860 0.455201
O O1 0.091055 0.405359 0.791389
O O2 0.181005 0.504614 0.974554
O O3 0.201556 0.400923 0.206665
O O4 0.248370 0.379984 0.017492
O O5 0.193284 0.172426 0.441607
O O6 0.173370 0.273986 0.222783
O O7 0.177566 0.164012 0.100127
O O8 0.051892 0.194082 0.073071
O O9 0.447927 0.929713 0.369841
O O10 0.583914 0.923133 0.483843
O O11 0.523011 0.812520 0.520398
O O12 0.672235 0.137255 0.936145
O O13 0.108761 0.202225 0.738872
O O14 0.000000 0.253601 0.750000
O O15 0.750000 0.250000 0.500000
#
# Coordination Sequence:
#
# PCOD9274820 Si02
#       7
#     8   8   8   8   8   8   8
#     4  12  23  39  58  84 126 168 216 244 309 390
#     4  10  21  38  59  91 126 156 213 268 327 365
#     4  11  22  39  60  87 130 167 207 251 320 386
#     4  11  25  38  55  93 124 172 204 258 311 384
#     4  11  22  37  60  85 125 167 208 265 313 372
#     4  10  20  38  65  95 126 162 207 268 325 374
#     4  11  20  37  64  92 120 168 207 264 314 383
#
# _framework density 19.964427000000001
#
# number of rings (size 3 to 8) (size 9 to 14) (size 15 to 20)
#    0.000    1.143    4.286    3.000    0.000    1.143 
#    0.000    0.000    0.000    0.857    0.000    2.000 
#    0.000    0.000    0.000    0.000    0.000    0.000 
#
# Total GULP energy -156173.321312 kJ/mol
# GULP energy per Si atom -5577.618618 kJ/mol
# Density = 1.991899 g / cm^3
# Si number density = 19.964427 Si / 1000 Ang^3
#
#
#
# Elastic Constant Matrix: (Units=GPa)
#
#
# Indices 1 2 3 4 5 6 
#
# 1 75.3757 32.9838 26.7974 0.0000 26.3699 0.0000
# 2 32.9838 55.7230 15.4880 0.0000 -2.4956 0.0000
# 3 26.7974 15.4880 108.6430 0.0000 28.2894 0.0000
# 4 0.0000 0.0000 0.0000 27.8660 0.0000 -6.2472
# 5 26.3699 -2.4956 28.2894 0.0000 26.0112 0.0000
# 6 0.0000 0.0000 0.0000 -6.2472 0.0000 27.0431
#
#
#
# Elastic Compliance Matrix: (Units=1/GPa)
#
#
# Indices 1 2 3 4 5 6 
#
# 1 0.042802 -0.030039 0.008056 0.000000 -0.055035 0.000000
# 2 -0.030039 0.040602 -0.010216 0.000000 0.045460 0.000000
# 3 0.008056 -0.010216 0.015423 0.000000 -0.025921 0.000000
# 4 0.000000 0.000000 0.000000 0.037846 0.000000 0.008743
# 5 -0.055035 0.045460 -0.025921 0.000000 0.126792 0.000000
# 6 0.000000 0.000000 0.000000 0.008743 0.000000 0.038998
#
#
# Mechanical properties :
#
#
# Convention : Reuss Voigt Hill
#
# Bulk Modulus (GPa) = 29.04596 43.36445 36.20520
# Shear Modulus (GPa) = 13.21567 27.14890 20.18228
#
# Velocity S-wave (km/s) = 2.57565 3.69163 3.18293
# Velocity P-wave (km/s) = 4.84002 6.31972 5.62870
#
# Compressibility (1/GPa) = 0.03442819
#
# Stress axis : x y z
#
# Youngs Moduli (GPa) = 23.36356 24.62921 64.83621
#
# Poissons Ratio (x) = 0.73984 -0.52229
# Poissons Ratio (y) = 0.70182 0.66237
# Poissons Ratio (z) = -0.18821 0.25161
#
# Static dielectric constant tensor:
#      x y z
#    x 1.755890 0.000000 -0.018680 
#    y 0.000000 1.698310 0.000000 
#    z -0.018680 0.000000 1.787250 
# 
# From -- ./inp_files/57923.got.cif
#   From: 2010.05.17/outbox.cif.g08.bks.cpg/sg15_29_cif.got.tgz:57923.got - 2010.06.03 18:47:42.
