data_PCOD9274796
_publ_section_title
;
Structure prediction by ZEFSAII (Michael W. Deem and Ramdas Pophale) SiO2 
 PCOD9274796
Probable space group: C 2/C
;
_chemical_formula_sum "Si O2"
_cell_formula_units_Z 56
_cell_length_a 11.984703
_cell_length_b 10.773743
_cell_length_c 20.484100
_cell_angle_alpha 90.000000
_cell_angle_beta 91.886762
_cell_angle_gamma 90.000000
_cell_volume 2643.475308
_symmetry_space_group_name_H-M "C 2/C"
_symmetry_group_IT_number 15
_symmetry_cell_setting 'monoclinic'
loop_
_space_group_symop_operation_xyz
x,y,z
-x,y,1/2-z
-x,-y,-z
x,-y,1/2+z
1/2+x,1/2+y,z
1/2-x,1/2+y,1/2-z
1/2-x,1/2-y,-z
1/2+x,1/2-y,1/2+z
loop_
_atom_site_type_symbol
_atom_site_label
_atom_site_fract_x
_atom_site_fract_y
_atom_site_fract_z
Si Si1 0.850885 0.426986 0.943733
Si Si2 0.350137 0.450008 0.127962
Si Si3 0.226441 0.883028 0.240028
Si Si4 0.403978 0.052710 0.199814
Si Si5 0.535879 0.723342 0.647897
Si Si6 0.049123 0.610661 0.920216
Si Si7 0.082717 0.203828 0.311055
O O1 0.730560 0.483391 0.925077
O O2 0.889630 0.319936 0.893208
O O3 0.934338 0.545229 0.939299
O O4 0.871407 0.373662 0.016163
O O5 0.281230 0.373647 0.181821
O O6 0.452972 0.366066 0.105801
O O7 0.397297 0.561998 0.172063
O O8 0.309041 0.781200 0.209986
O O9 0.112766 0.858139 0.197787
O O10 0.286151 0.016862 0.228687
O O11 0.500000 0.997680 0.250000
O O12 0.451014 0.188303 0.186452
O O13 0.400654 0.988054 0.129660
O O14 0.037064 0.732096 0.876221
O O15 0.000000 0.213839 0.250000
#
# Coordination Sequence:
#
# PCOD9274796 Si02
#       7
#     8   8   8   8   8   8   8
#     4  10  21  44  66  85 125 171 206 258 321 359
#     4  12  24  37  62  93 130 162 205 262 313 377
#     4  11  21  37  62  90 124 164 201 254 322 358
#     4  10  20  38  65  92 122 161 211 258 313 370
#     4  11  23  41  61  94 126 165 209 256 313 380
#     4   9  20  40  67  89 117 167 217 253 307 386
#     4  11  22  39  61  96 125 157 214 259 308 378
#
# _framework density 21.184234
#
# number of rings (size 3 to 8) (size 9 to 14) (size 15 to 20)
#    0.000    1.429    1.429    6.429    2.000    0.571 
#    2.571    7.143    3.143    0.000    0.000    0.000 
#    0.000    0.000    0.000    0.000    0.000    0.000 
#
# Total GULP energy -156188.505127 kJ/mol
# GULP energy per Si atom -5578.160897 kJ/mol
# Density = 2.113602 g / cm^3
# Si number density = 21.184234 Si / 1000 Ang^3
#
#
#
# Elastic Constant Matrix: (Units=GPa)
#
#
# Indices 1 2 3 4 5 6 
#
# 1 71.9557 32.4961 26.3161 0.0000 30.6138 0.0000
# 2 32.4961 70.9371 22.0286 0.0000 16.6786 0.0000
# 3 26.3161 22.0286 109.0704 0.0000 28.1465 0.0000
# 4 0.0000 0.0000 0.0000 -29.1337 0.0000 32.8142
# 5 30.6138 16.6786 28.1465 0.0000 31.7595 0.0000
# 6 0.0000 0.0000 0.0000 32.8142 0.0000 5.2866
#
#
#
# Elastic Compliance Matrix: (Units=1/GPa)
#
#
# Indices 1 2 3 4 5 6 
#
# 1 0.026301 -0.007046 0.000862 0.000000 -0.022416 0.000000
# 2 -0.007046 0.018133 -0.001630 0.000000 -0.001286 0.000000
# 3 0.000862 -0.001630 0.012036 0.000000 -0.010641 0.000000
# 4 0.000000 0.000000 0.000000 -0.004295 0.000000 0.026661
# 5 -0.022416 -0.001286 -0.010641 0.000000 0.063200 0.000000
# 6 0.000000 0.000000 0.000000 0.026661 0.000000 0.023671
#
#
# Mechanical properties :
#
#
# Convention : Reuss Voigt Hill
#
# Bulk Modulus (GPa) = 24.48484 45.96054 35.22269
# Shear Modulus (GPa) = 29.71092 12.99065 21.35078
#
# Velocity S-wave (km/s) = 3.74906 2.47902 3.17813
# Velocity P-wave (km/s) = 5.50670 5.47145 5.48910
#
# Compressibility (1/GPa) = 0.04084160
#
# Stress axis : x y z
#
# Youngs Moduli (GPa) = 38.02109 55.14701 83.08577
#
# Poissons Ratio (x) = 0.38855 -0.07160
# Poissons Ratio (y) = 0.26789 0.13547
# Poissons Ratio (z) = -0.03277 0.08991
#
# Static dielectric constant tensor:
#      x y z
#    x 1.808880 0.000000 -0.009170 
#    y 0.000000 1.822130 0.000000 
#    z -0.009170 0.000000 1.764960 
# 
# From -- ./inp_files/237645.got.cif
#   From: 2010.05.17/outbox.cif.g08.bks.cpg/sg15_119_cif.got.tgz:237645.got - 2010.06.03 18:47:42.
