data_PCOD9274961
_publ_section_title
;
Structure prediction by ZEFSAII (Michael W. Deem and Ramdas Pophale) SiO2 
 PCOD9274961
Probable space group: C 2/C
;
_chemical_formula_sum "Si O2"
_cell_formula_units_Z 56
_cell_length_a 26.182074
_cell_length_b 17.597834
_cell_length_c 9.746020
_cell_angle_alpha 90.000000
_cell_angle_beta 37.309370
_cell_angle_gamma 90.000000
_cell_volume 2721.749098
_symmetry_space_group_name_H-M "C 2/C"
_symmetry_group_IT_number 15
_symmetry_cell_setting 'monoclinic'
loop_
_space_group_symop_operation_xyz
x,y,z
-x,y,1/2-z
-x,-y,-z
x,-y,1/2+z
1/2+x,1/2+y,z
1/2-x,1/2+y,1/2-z
1/2-x,1/2-y,-z
1/2+x,1/2-y,1/2+z
loop_
_atom_site_type_symbol
_atom_site_label
_atom_site_fract_x
_atom_site_fract_y
_atom_site_fract_z
Si Si1 0.386259 0.747355 0.398806
Si Si2 0.599584 0.283851 0.072240
Si Si3 0.425669 0.212906 0.104731
Si Si4 0.904211 0.954581 0.509156
Si Si5 0.345015 0.422635 0.933456
Si Si6 0.994473 0.424469 0.924696
Si Si7 0.678100 0.163587 0.704234
O O1 0.375639 0.784994 0.570014
O O2 0.383882 0.656255 0.406594
O O3 0.319671 0.782651 0.434862
O O4 0.478972 0.766199 0.142709
O O5 0.500000 0.269520 0.250000
O O6 0.608042 0.274362 0.216289
O O7 0.619353 0.368102 0.980020
O O8 0.653134 0.220001 0.881260
O O9 0.435711 0.134590 0.166862
O O10 0.893726 0.956169 0.696211
O O11 0.000000 0.966621 0.250000
O O12 0.847682 0.015334 0.548205
O O13 0.255016 0.391837 0.072498
O O14 0.000000 0.436598 0.750000
O O15 0.903454 0.388394 0.144878
O O16 0.000000 0.500000 0.000000
#
# Coordination Sequence:
#
# PCOD9274961 Si02
#       7
#     8   8   8   8   8   8   8
#     4  10  21  37  67  94 126 169 217 270 313 387
#     4  11  18  42  70  95 126 177 219 267 314 385
#     4  10  20  38  66  97 122 163 232 264 309 382
#     4  11  26  43  69  95 132 169 219 270 330 390
#     4  12  26  44  64  99 132 171 210 272 343 384
#     4  11  23  39  64  95 129 170 218 265 321 381
#     4  11  22  44  66  90 135 172 216 269 326 390
#
# _framework density 20.575004
#
# number of rings (size 3 to 8) (size 9 to 14) (size 15 to 20)
#    0.000    1.143    5.714    1.714    8.000    1.143 
#    0.000    0.714    0.000    0.000    0.000    0.000 
#    0.000    0.000    0.000    0.000    0.000    0.000 
#
# Total GULP energy -156411.077500 kJ/mol
# GULP energy per Si atom -5586.109911 kJ/mol
# Density = 2.052817 g / cm^3
# Si number density = 20.575004 Si / 1000 Ang^3
#
#
#
# Elastic Constant Matrix: (Units=GPa)
#
#
# Indices 1 2 3 4 5 6 
#
# 1 95.7845 36.0818 39.9583 0.0000 29.0805 0.0000
# 2 36.0818 95.2031 30.0324 0.0000 12.5100 0.0000
# 3 39.9583 30.0324 62.5633 0.0000 19.3435 0.0000
# 4 0.0000 0.0000 0.0000 25.4286 0.0000 6.4861
# 5 29.0805 12.5100 19.3435 0.0000 43.2993 0.0000
# 6 0.0000 0.0000 0.0000 6.4861 0.0000 33.9368
#
#
#
# Elastic Compliance Matrix: (Units=1/GPa)
#
#
# Indices 1 2 3 4 5 6 
#
# 1 0.016722 -0.003210 -0.006908 0.000000 -0.007218 0.000000
# 2 -0.003210 0.013037 -0.004305 0.000000 0.000312 0.000000
# 3 -0.006908 -0.004305 0.023951 0.000000 -0.004817 0.000000
# 4 0.000000 0.000000 0.000000 0.041341 0.000000 -0.007901
# 5 -0.007218 0.000312 -0.004817 0.000000 0.030004 0.000000
# 6 0.000000 0.000000 0.000000 -0.007901 0.000000 0.030977
#
#
# Mechanical properties :
#
#
# Convention : Reuss Voigt Hill
#
# Bulk Modulus (GPa) = 40.21568 51.74399 45.97984
# Shear Modulus (GPa) = 25.88431 30.36482 28.12456
#
# Velocity S-wave (km/s) = 3.55074 3.84580 3.70121
# Velocity P-wave (km/s) = 6.03313 6.70252 6.37662
#
# Compressibility (1/GPa) = 0.02486592
#
# Stress axis : x y z
#
# Youngs Moduli (GPa) = 59.80008 76.70242 41.75121
#
# Poissons Ratio (x) = 0.24623 0.28841
# Poissons Ratio (y) = 0.19197 0.17972
# Poissons Ratio (z) = 0.41309 0.33017
#
# Static dielectric constant tensor:
#      x y z
#    x 1.780400 0.000000 0.000380 
#    y 0.000000 1.720120 0.000000 
#    z 0.000380 0.000000 1.761910 
# 
# From -- ./inp_files/67106.got.cif
#   From: 2010.05.17/outbox.cif.g08.bks.cpg/sg15_34_cif.got.tgz:67106.got - 2010.06.03 18:47:42.
