data_PCOD9274783
_publ_section_title
;
Structure prediction by ZEFSAII (Michael W. Deem and Ramdas Pophale) SiO2 
 PCOD9274783
Probable space group: C 2/C
;
_chemical_formula_sum "Si O2"
_cell_formula_units_Z 28
_cell_length_a 9.732530
_cell_length_b 16.686570
_cell_length_c 9.748634
_cell_angle_alpha 90.000000
_cell_angle_beta 61.761003
_cell_angle_gamma 90.000000
_cell_volume 1394.772699
_symmetry_space_group_name_H-M "C 2/C"
_symmetry_group_IT_number 15
_symmetry_cell_setting 'monoclinic'
loop_
_space_group_symop_operation_xyz
x,y,z
-x,y,1/2-z
-x,-y,-z
x,-y,1/2+z
1/2+x,1/2+y,z
1/2-x,1/2+y,1/2-z
1/2-x,1/2-y,-z
1/2+x,1/2-y,1/2+z
loop_
_atom_site_type_symbol
_atom_site_label
_atom_site_fract_x
_atom_site_fract_y
_atom_site_fract_z
Si Si1 0.000000 0.951091 0.250000
Si Si2 0.732955 0.844832 0.514574
Si Si3 0.278254 0.947843 0.713001
Si Si4 0.503208 0.901335 0.103177
O O1 0.117192 0.893601 0.111887
O O2 0.111726 0.008592 0.286904
O O3 0.750000 0.750000 0.500000
O O4 0.707273 0.880485 0.678330
O O5 0.592250 0.863503 0.476667
O O6 0.325397 0.917015 0.538590
O O7 0.407172 0.016812 0.676953
O O8 0.500000 0.856502 0.250000
#
# Coordination Sequence:
#
# PCOD9274783 Si02
#       4
#     4   8   8   8
#     4  10  22  38  64  94 124 166 220 256 304 376
#     4  11  24  39  62  94 133 164 204 266 323 367
#     4  10  20  39  66  90 123 165 214 255 303 378
#     4  10  20  38  65  91 118 166 214 253 307 377
#
# _framework density 20.074956
#
# number of rings (size 3 to 8) (size 9 to 14) (size 15 to 20)
#    0.000    1.714    0.000    6.857    4.000    2.286 
#    2.571    1.429    0.000    0.000    0.000    0.000 
#    0.000    0.000    0.000    0.000    0.000    0.000 
#
# Total GULP energy -78123.261756 kJ/mol
# GULP energy per Si atom -5580.232983 kJ/mol
# Density = 2.002926 g / cm^3
# Si number density = 20.074956 Si / 1000 Ang^3
#
#
#
# Elastic Constant Matrix: (Units=GPa)
#
#
# Indices 1 2 3 4 5 6 
#
# 1 84.6305 37.6321 40.7691 0.0000 -3.2106 0.0000
# 2 37.6321 131.6259 41.8732 0.0000 13.6434 0.0000
# 3 40.7691 41.8732 121.8651 0.0000 4.4738 0.0000
# 4 0.0000 0.0000 0.0000 15.9864 0.0000 10.6827
# 5 -3.2106 13.6434 4.4738 0.0000 29.4370 0.0000
# 6 0.0000 0.0000 0.0000 10.6827 0.0000 12.2535
#
#
#
# Elastic Compliance Matrix: (Units=1/GPa)
#
#
# Indices 1 2 3 4 5 6 
#
# 1 0.015526 -0.003537 -0.004124 0.000000 0.003960 0.000000
# 2 -0.003537 0.009716 -0.001987 0.000000 -0.004587 0.000000
# 3 -0.004124 -0.001987 0.010308 0.000000 -0.001096 0.000000
# 4 0.000000 0.000000 0.000000 0.149852 0.000000 -0.130641
# 5 0.003960 -0.004587 -0.001096 0.000000 0.036695 0.000000
# 6 0.000000 0.000000 0.000000 -0.130641 0.000000 0.195502
#
#
# Mechanical properties :
#
#
# Convention : Reuss Voigt Hill
#
# Bulk Modulus (GPa) = 61.52253 64.29669 62.90961
# Shear Modulus (GPa) = 11.30421 26.05854 18.68138
#
# Velocity S-wave (km/s) = 2.37555 3.60677 3.05385
# Velocity P-wave (km/s) = 6.18363 7.03156 6.62118
#
# Compressibility (1/GPa) = 0.01625421
#
# Stress axis : x y z
#
# Youngs Moduli (GPa) = 64.40866 102.92198 97.00923
#
# Poissons Ratio (x) = 0.36407 0.40006
# Poissons Ratio (y) = 0.22784 0.19273
# Poissons Ratio (z) = 0.26562 0.20447
#
# Static dielectric constant tensor:
#      x y z
#    x 1.744970 0.000000 0.000370 
#    y 0.000000 1.701640 0.000000 
#    z 0.000370 0.000000 1.819300 
# 
# From -- ./inp_files/21504.got.cif
#   From: 2010.05.17/outbox.cif.g08.bks.cpg/sg15_11_cif.got.tgz:21504.got - 2010.06.03 18:47:42.
