data_PCOD9274282
_publ_section_title
;
Structure prediction by ZEFSAII (Michael W. Deem and Ramdas Pophale) SiO2 
 PCOD9274282
Probable space group: C 2/C
;
_chemical_formula_sum "Si O2"
_cell_formula_units_Z 40
_cell_length_a 20.846925
_cell_length_b 9.190499
_cell_length_c 8.047068
_cell_angle_alpha 90.000000
_cell_angle_beta 85.770700
_cell_angle_gamma 90.000000
_cell_volume 1537.568682
_symmetry_space_group_name_H-M "C 2/C"
_symmetry_group_IT_number 15
_symmetry_cell_setting 'monoclinic'
loop_
_space_group_symop_operation_xyz
x,y,z
-x,y,1/2-z
-x,-y,-z
x,-y,1/2+z
1/2+x,1/2+y,z
1/2-x,1/2+y,1/2-z
1/2-x,1/2-y,-z
1/2+x,1/2-y,1/2+z
loop_
_atom_site_type_symbol
_atom_site_label
_atom_site_fract_x
_atom_site_fract_y
_atom_site_fract_z
Si Si1 0.181576 0.651733 0.839822
Si Si2 0.000000 0.000000 0.500000
Si Si3 0.808897 0.944030 0.493428
Si Si4 0.617834 0.332456 0.323820
Si Si5 0.888246 0.569033 0.965508
Si Si6 0.500000 0.765023 0.250000
O O1 0.244074 0.571902 0.901470
O O2 0.167104 0.610230 0.655208
O O3 0.193271 0.822333 0.862125
O O4 0.123078 0.593195 0.967076
O O5 0.949346 0.101771 0.607461
O O6 0.024528 0.146782 0.381372
O O7 0.865623 0.891311 0.359815
O O8 0.828883 0.096229 0.564894
O O9 0.618164 0.163165 0.363974
O O10 0.950653 0.628685 0.856783
#
# Coordination Sequence:
#
# PCOD9274282 Si02
#       6
#     8   4   8   8   8   4
#     4  11  24  41  59  89 127 163 204 255 313 378
#     4  10  20  38  62  90 122 152 200 252 304 370
#     4  11  23  39  63  89 122 165 207 254 313 373
#     4  11  22  39  64  92 119 159 209 260 310 373
#     4  11  24  41  62  90 125 162 209 260 316 372
#     4  10  22  40  66  94 124 164 206 260 316 378
#
# _framework density 26.015094999999999
#
# number of rings (size 3 to 8) (size 9 to 14) (size 15 to 20)
#    0.000    1.200    0.000    7.200    0.000    7.200 
#    0.000    2.000    0.000    0.000    0.000    0.000 
#    0.000    0.000    0.000    0.000    0.000    0.000 
#
# Total GULP energy -111497.166272 kJ/mol
# GULP energy per Si atom -5574.858314 kJ/mol
# Density = 2.595588 g / cm^3
# Si number density = 26.015095 Si / 1000 Ang^3
#
#
#
# Elastic Constant Matrix: (Units=GPa)
#
#
# Indices 1 2 3 4 5 6 
#
# 1 43.2268 19.0356 4.8323 0.0000 -1.0617 0.0000
# 2 19.0356 97.9109 -1.3457 0.0000 -8.4839 0.0000
# 3 4.8323 -1.3457 88.0883 0.0000 -11.4612 0.0000
# 4 0.0000 0.0000 0.0000 23.0170 0.0000 15.9031
# 5 -1.0617 -8.4839 -11.4612 0.0000 34.3751 0.0000
# 6 0.0000 0.0000 0.0000 15.9031 0.0000 -31.0360
#
#
#
# Elastic Compliance Matrix: (Units=1/GPa)
#
#
# Indices 1 2 3 4 5 6 
#
# 1 0.025522 -0.005071 -0.001608 0.000000 -0.000999 0.000000
# 2 -0.005071 0.011467 0.000838 0.000000 0.002953 0.000000
# 3 -0.001608 0.000838 0.011994 0.000000 0.004156 0.000000
# 4 0.000000 0.000000 0.000000 0.032086 0.000000 0.016441
# 5 -0.000999 0.002953 0.004156 0.000000 0.031174 0.000000
# 6 0.000000 0.000000 0.000000 0.016441 0.000000 -0.023796
#
#
# Mechanical properties :
#
#
# Convention : Reuss Voigt Hill
#
# Bulk Modulus (GPa) = 26.80883 30.47450 28.64166
# Shear Modulus (GPa) = 44.41992 19.05146 31.73569
#
# Velocity S-wave (km/s) = 4.13663 2.70908 3.49649
# Velocity P-wave (km/s) = 5.75701 4.63951 5.22820
#
# Compressibility (1/GPa) = 0.03730115
#
# Stress axis : x y z
#
# Youngs Moduli (GPa) = 39.18211 87.21036 83.37519
#
# Poissons Ratio (x) = 0.44221 0.13403
# Poissons Ratio (y) = 0.19868 -0.06983
# Poissons Ratio (z) = 0.06299 -0.07304
#
# Static dielectric constant tensor:
#      x y z
#    x 2.172550 0.000000 0.013150 
#    y 0.000000 1.961980 0.000000 
#    z 0.013150 0.000000 2.022750 
# 
# From -- ./inp_files/59958.got.cif
#   From: 2010.05.17/outbox.cif.g08.bks.cpg/sg15_30_cif.got.tgz:59958.got - 2010.06.03 18:47:42.
