data_PCOD9274006
_publ_section_title
;
Structure prediction by ZEFSAII (Michael W. Deem and Ramdas Pophale) SiO2 
 PCOD9274006
Probable space group: C 2/C
;
_chemical_formula_sum "Si O2"
_cell_formula_units_Z 60
_cell_length_a 17.887849
_cell_length_b 12.384928
_cell_length_c 16.288886
_cell_angle_alpha 90.000000
_cell_angle_beta 66.843257
_cell_angle_gamma 90.000000
_cell_volume 3317.896532
_symmetry_space_group_name_H-M "C 2/C"
_symmetry_group_IT_number 15
_symmetry_cell_setting 'monoclinic'
loop_
_space_group_symop_operation_xyz
x,y,z
-x,y,1/2-z
-x,-y,-z
x,-y,1/2+z
1/2+x,1/2+y,z
1/2-x,1/2+y,1/2-z
1/2-x,1/2-y,-z
1/2+x,1/2-y,1/2+z
loop_
_atom_site_type_symbol
_atom_site_label
_atom_site_fract_x
_atom_site_fract_y
_atom_site_fract_z
Si Si1 0.273735 0.375240 0.493219
Si Si2 0.297344 0.930900 0.143641
Si Si3 0.585280 0.558428 0.448727
Si Si4 0.879501 0.354780 0.562726
Si Si5 0.954123 0.291661 0.091436
Si Si6 0.701253 0.365965 0.345936
Si Si7 0.837336 0.444197 0.400700
Si Si8 0.000000 0.615450 0.750000
O O1 0.250000 0.250000 0.500000
O O2 0.262851 0.426644 0.407881
O O3 0.360920 0.400313 0.496567
O O4 0.204920 0.439610 0.573957
O O5 0.372407 0.850470 0.098448
O O6 0.246751 0.885844 0.241301
O O7 0.343262 0.046400 0.132489
O O8 0.500000 0.500000 0.500000
O O9 0.562831 0.664951 0.407733
O O10 0.642058 0.468060 0.383173
O O11 0.845526 0.245049 0.616681
O O12 0.850017 0.390549 0.484271
O O13 0.974716 0.333079 0.501078
O O14 0.975171 0.320546 0.177328
O O15 0.772825 0.370560 0.381812
O O16 0.921022 0.449325 0.314450
#
# Coordination Sequence:
#
# PCOD9274006 Si02
#       8
#     8   8   8   8   8   8   8   4
#     4  10  21  40  64  85 123 168 208 244 314 382
#     4  11  23  38  63  93 120 162 209 262 301 373
#     4  11  23  43  63  88 123 171 208 252 318 393
#     4  10  22  38  61  89 123 164 204 252 308 374
#     4  11  21  41  65  88 127 159 210 253 318 370
#     4  11  22  38  60  91 125 160 206 255 311 363
#     4   9  20  36  61  90 120 160 204 253 306 370
#     4  10  20  38  60  98 118 150 204 270 308 346
#
# _framework density 18.083746999999999
#
# number of rings (size 3 to 8) (size 9 to 14) (size 15 to 20)
#    0.000    1.600    4.000    0.800    1.867    0.000 
#    2.400    0.000    0.000    0.000    0.000    0.000 
#    0.000    0.000    0.000    0.000    0.000    0.000 
#
# Total GULP energy -167103.987168 kJ/mol
# GULP energy per Si atom -5570.132906 kJ/mol
# Density = 1.804259 g / cm^3
# Si number density = 18.083747 Si / 1000 Ang^3
#
#
#
# Elastic Constant Matrix: (Units=GPa)
#
#
# Indices 1 2 3 4 5 6 
#
# 1 102.7208 30.1632 43.9514 0.0000 -18.5547 0.0000
# 2 30.1632 103.1302 42.2791 0.0000 -9.7010 0.0000
# 3 43.9514 42.2791 100.8537 0.0000 -27.8359 0.0000
# 4 0.0000 0.0000 0.0000 -67.0704 0.0000 37.4187
# 5 -18.5547 -9.7010 -27.8359 0.0000 25.6021 0.0000
# 6 0.0000 0.0000 0.0000 37.4187 0.0000 3.8733
#
#
#
# Elastic Compliance Matrix: (Units=1/GPa)
#
#
# Indices 1 2 3 4 5 6 
#
# 1 0.012587 -0.001839 -0.003413 0.000000 0.004714 0.000000
# 2 -0.001839 0.012007 -0.004778 0.000000 -0.001978 0.000000
# 3 -0.003413 -0.004778 0.017464 0.000000 0.014704 0.000000
# 4 0.000000 0.000000 0.000000 -0.002333 0.000000 0.022542
# 5 0.004714 -0.001978 0.014704 0.000000 0.057713 0.000000
# 6 0.000000 0.000000 0.000000 0.022542 0.000000 0.040405
#
#
# Mechanical properties :
#
#
# Convention : Reuss Voigt Hill
#
# Bulk Modulus (GPa) = 45.45876 59.94356 52.70116
# Shear Modulus (GPa) = 30.25969 5.16841 17.71405
#
# Velocity S-wave (km/s) = 4.09505 1.69241 3.13318
# Velocity P-wave (km/s) = 6.89577 6.08594 6.50348
#
# Compressibility (1/GPa) = 0.02199796
#
# Stress axis : x y z
#
# Youngs Moduli (GPa) = 79.44642 83.28460 57.25998
#
# Poissons Ratio (x) = 0.15313 0.19545
# Poissons Ratio (y) = 0.14607 0.27360
# Poissons Ratio (z) = 0.27118 0.39795
#
# Static dielectric constant tensor:
#      x y z
#    x 1.614370 0.000000 0.024690 
#    y 0.000000 1.639940 0.000000 
#    z 0.024690 0.000000 1.623390 
# 
# From -- ./inp_files/210604.got.cif
#   From: 2010.05.17/outbox.cif.g08.bks.cpg/sg15_106_cif.got.tgz:210604.got - 2010.06.03 18:47:42.
