data_PCOD9274447
_publ_section_title
;
Structure prediction by ZEFSAII (Michael W. Deem and Ramdas Pophale) SiO2 
 PCOD9274447
Probable space group: C 2/C
;
_chemical_formula_sum "Si O2"
_cell_formula_units_Z 40
_cell_length_a 12.790781
_cell_length_b 13.550176
_cell_length_c 13.966308
_cell_angle_alpha 90.000000
_cell_angle_beta 141.502848
_cell_angle_gamma 90.000000
_cell_volume 1506.766796
_symmetry_space_group_name_H-M "C 2/C"
_symmetry_group_IT_number 15
_symmetry_cell_setting 'monoclinic'
loop_
_space_group_symop_operation_xyz
x,y,z
-x,y,1/2-z
-x,-y,-z
x,-y,1/2+z
1/2+x,1/2+y,z
1/2-x,1/2+y,1/2-z
1/2-x,1/2-y,-z
1/2+x,1/2-y,1/2+z
loop_
_atom_site_type_symbol
_atom_site_label
_atom_site_fract_x
_atom_site_fract_y
_atom_site_fract_z
Si Si1 0.021429 0.836869 0.065466
Si Si2 0.500000 0.228976 0.750000
Si Si3 0.335840 0.157724 0.448707
Si Si4 0.250000 0.250000 0.000000
Si Si5 0.650414 0.961279 0.977832
Si Si6 0.245238 0.486288 0.830403
O O1 0.863952 0.890480 0.898441
O O2 0.089184 0.736908 0.068615
O O3 0.931912 0.801656 0.098005
O O4 0.167741 0.919006 0.156416
O O5 0.461004 0.163508 0.629818
O O6 0.341877 0.298187 0.650460
O O7 0.313952 0.041869 0.415145
O O8 0.205169 0.349385 0.029686
O O9 0.743453 0.998635 0.946592
O O10 0.448914 0.959281 0.822801
#
# Coordination Sequence:
#
# PCOD9274447 Si02
#       6
#     8   4   8   4   8   8
#     4  10  21  38  62  91 128 170 219 265 319 390
#     4  10  22  38  64 102 132 154 208 282 332 372
#     4  11  21  38  66  98 128 167 215 270 327 387
#     4  10  24  42  56  88 138 178 214 266 324 390
#     4  10  20  38  63  90 125 164 215 271 329 386
#     4   9  19  38  63  89 122 175 216 250 325 419
#
# _framework density 26.546907999999998
#
# number of rings (size 3 to 8) (size 9 to 14) (size 15 to 20)
#    0.000    2.000    0.000    4.800    0.000    4.000 
#    0.000    4.000    0.000    0.000    0.000    0.000 
#    0.000    0.000    0.000    0.000    0.000    0.000 
#
# Total GULP energy -111378.917318 kJ/mol
# GULP energy per Si atom -5568.945866 kJ/mol
# Density = 2.648649 g / cm^3
# Si number density = 26.546908 Si / 1000 Ang^3
#
#
#
# Elastic Constant Matrix: (Units=GPa)
#
#
# Indices 1 2 3 4 5 6 
#
# 1 106.5487 55.8196 50.7472 0.0000 34.0279 0.0000
# 2 55.8196 231.6838 52.4257 0.0000 22.0464 0.0000
# 3 50.7472 52.4257 105.8707 0.0000 37.8205 0.0000
# 4 0.0000 0.0000 0.0000 6.0907 0.0000 9.1994
# 5 34.0279 22.0464 37.8205 0.0000 44.1307 0.0000
# 6 0.0000 0.0000 0.0000 9.1994 0.0000 32.4728
#
#
#
# Elastic Compliance Matrix: (Units=1/GPa)
#
#
# Indices 1 2 3 4 5 6 
#
# 1 0.014310 -0.002018 -0.003283 0.000000 -0.007212 0.000000
# 2 -0.002018 0.005154 -0.001760 0.000000 0.000490 0.000000
# 3 -0.003283 -0.001760 0.015381 0.000000 -0.009771 0.000000
# 4 0.000000 0.000000 0.000000 0.286977 0.000000 -0.081299
# 5 -0.007212 0.000490 -0.009771 0.000000 0.036350 0.000000
# 6 0.000000 0.000000 0.000000 -0.081299 0.000000 0.053827
#
#
# Mechanical properties :
#
#
# Convention : Reuss Voigt Hill
#
# Bulk Modulus (GPa) = 48.25750 84.67648 66.46699
# Shear Modulus (GPa) = 11.54658 35.54622 23.54640
#
# Velocity S-wave (km/s) = 2.08781 3.66320 2.98144
# Velocity P-wave (km/s) = 4.90200 7.06104 6.07815
#
# Compressibility (1/GPa) = 0.02072217
#
# Stress axis : x y z
#
# Youngs Moduli (GPa) = 69.88227 194.01963 65.01434
#
# Poissons Ratio (x) = 0.39162 0.21347
# Poissons Ratio (y) = 0.14105 0.11440
# Poissons Ratio (z) = 0.22945 0.34140
#
# Static dielectric constant tensor:
#      x y z
#    x 2.150590 0.000000 -0.071010 
#    y 0.000000 1.999020 0.000000 
#    z -0.071010 0.000000 1.903140 
# 
# From -- ./inp_files/244435.got.cif
#   From: 2010.05.17/outbox.cif.g08.bks.cpg/sg15_123_cif.got.tgz:244435.got - 2010.06.03 18:47:42.
