data_PCOD9274437
_publ_section_title
;
Structure prediction by ZEFSAII (Michael W. Deem and Ramdas Pophale) SiO2 
 PCOD9274437
Probable space group: C 2/C
;
_chemical_formula_sum "Si O2"
_cell_formula_units_Z 56
_cell_length_a 16.796036
_cell_length_b 16.568587
_cell_length_c 19.223897
_cell_angle_alpha 90.000000
_cell_angle_beta 149.329834
_cell_angle_gamma 90.000000
_cell_volume 2728.882718
_symmetry_space_group_name_H-M "C 2/C"
_symmetry_group_IT_number 15
_symmetry_cell_setting 'monoclinic'
loop_
_space_group_symop_operation_xyz
x,y,z
-x,y,1/2-z
-x,-y,-z
x,-y,1/2+z
1/2+x,1/2+y,z
1/2-x,1/2+y,1/2-z
1/2-x,1/2-y,-z
1/2+x,1/2-y,1/2+z
loop_
_atom_site_type_symbol
_atom_site_label
_atom_site_fract_x
_atom_site_fract_y
_atom_site_fract_z
Si Si1 0.415440 0.111288 0.869151
Si Si2 0.352262 0.478633 0.092375
Si Si3 0.704015 0.556442 0.595397
Si Si4 0.739196 0.240635 0.308529
Si Si5 0.203477 0.523643 0.112952
Si Si6 0.627733 0.409991 0.641877
Si Si7 0.890394 0.797120 0.066884
O O1 0.354391 0.094047 0.745463
O O2 0.326022 0.187512 0.833648
O O3 0.364348 0.036711 0.880059
O O4 0.600643 0.101786 0.015744
O O5 0.500000 0.506828 0.250000
O O6 0.223144 0.475045 0.056258
O O7 0.389086 0.389684 0.090692
O O8 0.294278 0.532907 0.984302
O O9 0.667024 0.474153 0.610960
O O10 0.553977 0.612551 0.499958
O O11 0.746616 0.160985 0.267096
O O12 0.844973 0.213212 0.452668
O O13 0.566762 0.263584 0.205739
O O14 0.356600 0.550345 0.270305
O O15 0.750000 0.750000 0.000000
#
# Coordination Sequence:
#
# PCOD9274437 Si02
#       7
#     8   8   8   8   8   8   8
#     4  10  22  39  60  91 123 165 214 266 312 370
#     4  12  22  40  64  90 129 170 212 265 318 378
#     4  10  21  38  62  89 120 164 222 257 307 378
#     4  12  23  41  64  92 131 166 208 262 318 382
#     4  10  21  38  61  87 125 164 213 260 312 378
#     4  10  20  38  63  90 117 166 217 257 303 377
#     4  12  25  39  59  96 135 169 196 252 339 403
#
# _framework density 20.521218999999999
#
# number of rings (size 3 to 8) (size 9 to 14) (size 15 to 20)
#    0.000    1.143    2.857    4.714    2.000    2.857 
#    2.571    0.000    0.000    5.143    0.000    0.000 
#    0.000    0.000    0.000    0.000    0.000    0.000 
#
# Total GULP energy -156036.612429 kJ/mol
# GULP energy per Si atom -5572.736158 kJ/mol
# Density = 2.047451 g / cm^3
# Si number density = 20.521219 Si / 1000 Ang^3
#
#
#
# Elastic Constant Matrix: (Units=GPa)
#
#
# Indices 1 2 3 4 5 6 
#
# 1 51.5365 11.4203 28.5137 0.0027 -35.8735 0.0006
# 2 11.4203 41.8857 5.7182 -0.0029 -3.7072 -0.0005
# 3 28.5137 5.7182 90.0045 -0.0051 -29.3707 -0.0005
# 4 0.0027 -0.0029 -0.0051 19.4474 -0.0001 -2.4753
# 5 -35.8735 -3.7072 -29.3707 -0.0001 39.6318 0.0005
# 6 0.0006 -0.0005 -0.0005 -2.4753 0.0005 31.9437
#
#
#
# Elastic Compliance Matrix: (Units=1/GPa)
#
#
# Indices 1 2 3 4 5 6 
#
# 1 0.057233 -0.011030 -0.001137 -0.000010 0.049931 -0.000003
# 2 -0.011030 0.026275 -0.000832 0.000005 -0.008143 0.000001
# 3 -0.001137 -0.000832 0.014723 0.000004 0.009804 0.000000
# 4 -0.000010 0.000005 0.000004 0.051933 -0.000005 0.004024
# 5 0.049931 -0.008143 0.009804 -0.000005 0.076933 -0.000003
# 6 -0.000003 0.000001 0.000000 0.004024 -0.000003 0.031617
#
#
# Mechanical properties :
#
#
# Convention : Reuss Voigt Hill
#
# Bulk Modulus (GPa) = 13.84430 30.52567 22.18499
# Shear Modulus (GPa) = 16.19223 27.38956 21.79089
#
# Velocity S-wave (km/s) = 2.81205 3.65731 3.26217
# Velocity P-wave (km/s) = 4.15986 5.72206 5.00232
#
# Compressibility (1/GPa) = 0.07223189
#
# Stress axis : x y z
#
# Youngs Moduli (GPa) = 17.47233 38.05925 67.92132
#
# Poissons Ratio (x) = 0.41981 0.07723
# Poissons Ratio (y) = 0.19273 0.05653
# Poissons Ratio (z) = 0.01987 0.03167
#
# Static dielectric constant tensor:
#      x y z
#    x 1.818410 0.000000 0.019670 
#    y 0.000000 1.747220 0.000000 
#    z 0.019670 0.000000 1.808220 
# 
# From -- ./inp_files/249269.got.cif
#   From: 2010.05.17/outbox.cif.g08.bks.cpg/sg15_125_cif.got.tgz:249269.got - 2010.06.03 18:47:42.
