data_PCOD9274557
_publ_section_title
;
Structure prediction by ZEFSAII (Michael W. Deem and Ramdas Pophale) SiO2 
 PCOD9274557
Probable space group: C 2/C
;
_chemical_formula_sum "Si O2"
_cell_formula_units_Z 56
_cell_length_a 20.250702
_cell_length_b 11.276086
_cell_length_c 11.195994
_cell_angle_alpha 90.000000
_cell_angle_beta 96.764051
_cell_angle_gamma 90.000000
_cell_volume 2538.795314
_symmetry_space_group_name_H-M "C 2/C"
_symmetry_group_IT_number 15
_symmetry_cell_setting 'monoclinic'
loop_
_space_group_symop_operation_xyz
x,y,z
-x,y,1/2-z
-x,-y,-z
x,-y,1/2+z
1/2+x,1/2+y,z
1/2-x,1/2+y,1/2-z
1/2-x,1/2-y,-z
1/2+x,1/2-y,1/2+z
loop_
_atom_site_type_symbol
_atom_site_label
_atom_site_fract_x
_atom_site_fract_y
_atom_site_fract_z
Si Si1 0.451375 0.395855 0.345842
Si Si2 0.243484 0.582265 0.534894
Si Si3 0.964290 0.156603 0.438171
Si Si4 0.239022 0.173303 0.377844
Si Si5 0.840396 0.420272 0.709129
Si Si6 0.372492 0.313983 0.137773
Si Si7 0.363738 0.170375 0.799646
O O1 0.500000 0.350599 0.250000
O O2 0.465890 0.534187 0.367564
O O3 0.466530 0.329840 0.473908
O O4 0.381300 0.378873 0.266333
O O5 0.278283 0.460739 0.587009
O O6 0.220486 0.560384 0.395643
O O7 0.297961 0.680113 0.575326
O O8 0.179456 0.620584 0.598170
O O9 0.914724 0.133020 0.539079
O O10 0.929845 0.260790 0.356199
O O11 0.250000 0.250000 0.500000
O O12 0.306219 0.145119 0.315579
O O13 0.183905 0.240267 0.285368
O O14 0.889169 0.323165 0.663518
O O15 0.874703 0.546744 0.733569
#
# Coordination Sequence:
#
# PCOD9274557 Si02
#       7
#     8   8   8   8   8   8   8
#     4   9  21  39  62  91 114 147 203 254 300 349
#     4  11  21  36  57  87 124 160 200 237 300 363
#     4  10  20  38  64  84 114 153 197 254 303 350
#     4  11  22  35  51  80 123 160 197 242 286 354
#     4  11  22  35  55  84 121 158 198 241 293 365
#     4  11  20  36  60  87 117 155 199 247 298 357
#     4  11  21  37  59  86 124 163 195 243 303 355
#
# _framework density 22.057704999999999
#
# number of rings (size 3 to 8) (size 9 to 14) (size 15 to 20)
#    0.000    1.429    4.286    2.143    0.000    2.286 
#    0.000    2.143    0.000    2.571    0.000    0.000 
#    0.000    0.000    0.000    0.000    0.000    0.000 
#
# Total GULP energy -156114.261606 kJ/mol
# GULP energy per Si atom -5575.509343 kJ/mol
# Density = 2.200750 g / cm^3
# Si number density = 22.057705 Si / 1000 Ang^3
#
#
#
# Elastic Constant Matrix: (Units=GPa)
#
#
# Indices 1 2 3 4 5 6 
#
# 1 24.8887 17.1453 23.2739 0.0000 17.1523 0.0000
# 2 17.1453 140.6631 58.4655 0.0000 16.0777 0.0000
# 3 23.2739 58.4655 126.9797 0.0000 38.3672 0.0000
# 4 0.0000 0.0000 0.0000 38.1471 0.0000 3.4743
# 5 17.1523 16.0777 38.3672 0.0000 33.2776 0.0000
# 6 0.0000 0.0000 0.0000 3.4743 0.0000 31.5255
#
#
#
# Elastic Compliance Matrix: (Units=1/GPa)
#
#
# Indices 1 2 3 4 5 6 
#
# 1 0.064736 -0.004085 -0.000766 0.000000 -0.030510 0.000000
# 2 -0.004085 0.009058 -0.004199 0.000000 0.002570 0.000000
# 3 -0.000766 -0.004199 0.014144 0.000000 -0.013884 0.000000
# 4 0.000000 0.000000 0.000000 0.026480 0.000000 -0.002918
# 5 -0.030510 0.002570 -0.013884 0.000000 0.060542 0.000000
# 6 0.000000 0.000000 0.000000 -0.002918 0.000000 0.032042
#
#
# Mechanical properties :
#
#
# Convention : Reuss Voigt Hill
#
# Bulk Modulus (GPa) = 14.31855 54.47788 34.39821
# Shear Modulus (GPa) = 20.13045 33.49984 26.81515
#
# Velocity S-wave (km/s) = 3.02425 3.90132 3.49045
# Velocity P-wave (km/s) = 4.32438 6.71158 5.64560
#
# Compressibility (1/GPa) = 0.06983948
#
# Stress axis : x y z
#
# Youngs Moduli (GPa) = 15.44746 110.39396 70.70255
#
# Poissons Ratio (x) = 0.45096 0.05413
# Poissons Ratio (y) = 0.06310 0.29685
# Poissons Ratio (z) = 0.01183 0.46349
#
# Static dielectric constant tensor:
#      x y z
#    x 1.887050 0.000000 0.049600 
#    y 0.000000 1.835010 0.000000 
#    z 0.049600 0.000000 1.913210 
# 
# From -- ./inp_files/111126.got.cif
#   From: 2010.05.17/outbox.cif.g08.bks.cpg/sg15_56_cif.got.tgz:111126.got - 2010.06.03 18:47:42.
