data_PCOD9274849
_publ_section_title
;
Structure prediction by ZEFSAII (Michael W. Deem and Ramdas Pophale) SiO2 
 PCOD9274849
Probable space group: C 2/C
;
_chemical_formula_sum "Si O2"
_cell_formula_units_Z 60
_cell_length_a 11.775846
_cell_length_b 12.054886
_cell_length_c 23.202856
_cell_angle_alpha 90.000000
_cell_angle_beta 129.588134
_cell_angle_gamma 90.000000
_cell_volume 2538.348037
_symmetry_space_group_name_H-M "C 2/C"
_symmetry_group_IT_number 15
_symmetry_cell_setting 'monoclinic'
loop_
_space_group_symop_operation_xyz
x,y,z
-x,y,1/2-z
-x,-y,-z
x,-y,1/2+z
1/2+x,1/2+y,z
1/2-x,1/2+y,1/2-z
1/2-x,1/2-y,-z
1/2+x,1/2-y,1/2+z
loop_
_atom_site_type_symbol
_atom_site_label
_atom_site_fract_x
_atom_site_fract_y
_atom_site_fract_z
Si Si1 0.746240 0.258597 0.121974
Si Si2 0.468839 0.207519 0.606106
Si Si3 0.480215 0.376200 0.970128
Si Si4 0.875812 0.652179 0.314252
Si Si5 0.277517 0.062808 0.841836
Si Si6 0.201614 0.451435 0.538847
Si Si7 0.000000 0.207148 0.750000
Si Si8 0.213871 0.636988 0.456740
O O1 0.885299 0.318058 0.138826
O O2 0.595143 0.306492 0.046492
O O3 0.712634 0.243690 0.177367
O O4 0.778670 0.135995 0.106654
O O5 0.482247 0.330244 0.581520
O O6 0.629158 0.157913 0.658210
O O7 0.379828 0.133743 0.530496
O O8 0.500000 0.500000 0.000000
O O9 0.308137 0.355843 0.928766
O O10 0.783639 0.539621 0.298088
O O11 0.922398 0.710233 0.270286
O O12 0.038413 0.624749 0.393638
O O13 0.125207 0.120121 0.811437
O O14 0.359148 0.028973 0.928579
O O15 0.269906 0.537776 0.515887
O O16 0.250000 0.750000 0.500000
#
# Coordination Sequence:
#
# PCOD9274849 Si02
#       8
#     8   8   8   8   8   8   4   8
#     4  10  22  38  60  98 144 172 219 273 347 435
#     4  11  20  40  63 103 140 179 218 282 359 443
#     4  11  21  31  54 101 148 178 203 266 346 430
#     4  11  25  48  71  97 134 187 241 297 346 425
#     4  11  25  46  77  96 134 193 233 296 363 418
#     4  10  20  38  66 102 139 169 215 277 357 440
#     4  12  28  56  68 100 138 184 268 300 344 416
#     4  12  20  35  65 101 134 173 218 272 358 425
#
# _framework density 23.637419999999999
#
# number of rings (size 3 to 8) (size 9 to 14) (size 15 to 20)
#    0.000    1.067    2.667    6.000    1.867    0.000 
#    7.200    0.000    0.000    0.000    0.000    0.000 
#    0.000    0.000    0.000    0.000    0.000    0.000 
#
# Total GULP energy -167018.423935 kJ/mol
# GULP energy per Si atom -5567.280798 kJ/mol
# Density = 2.358362 g / cm^3
# Si number density = 23.637420 Si / 1000 Ang^3
#
#
#
# Elastic Constant Matrix: (Units=GPa)
#
#
# Indices 1 2 3 4 5 6 
#
# 1 168.2945 27.1544 29.8972 0.0000 -39.3078 0.0000
# 2 27.1544 115.8461 22.9931 0.0000 -14.1720 0.0000
# 3 29.8972 22.9931 40.5465 0.0000 -14.4279 0.0000
# 4 0.0000 0.0000 0.0000 11.6435 0.0000 -3.0420
# 5 -39.3078 -14.1720 -14.4279 0.0000 36.8774 0.0000
# 6 0.0000 0.0000 0.0000 -3.0420 0.0000 41.9726
#
#
#
# Elastic Compliance Matrix: (Units=1/GPa)
#
#
# Indices 1 2 3 4 5 6 
#
# 1 0.008324 -0.000392 -0.003267 0.000000 0.007444 0.000000
# 2 -0.000392 0.009854 -0.004763 0.000000 0.001505 0.000000
# 3 -0.003267 -0.004763 0.032392 0.000000 0.007361 0.000000
# 4 0.000000 0.000000 0.000000 0.087542 0.000000 0.006345
# 5 0.007444 0.001505 0.007361 0.000000 0.038510 0.000000
# 6 0.000000 0.000000 0.000000 0.006345 0.000000 0.024285
#
#
# Mechanical properties :
#
#
# Convention : Reuss Voigt Hill
#
# Bulk Modulus (GPa) = 29.65058 53.86406 41.75732
# Shear Modulus (GPa) = 21.83479 34.40820 28.12150
#
# Velocity S-wave (km/s) = 3.04260 3.81946 3.45295
# Velocity P-wave (km/s) = 4.99143 6.50293 5.79666
#
# Compressibility (1/GPa) = 0.03372616
#
# Stress axis : x y z
#
# Youngs Moduli (GPa) = 120.13107 101.48607 30.87185
#
# Poissons Ratio (x) = 0.03980 0.10085
# Poissons Ratio (y) = 0.04711 0.14704
# Poissons Ratio (z) = 0.39243 0.48338
#
# Static dielectric constant tensor:
#      x y z
#    x 2.078380 0.000000 0.037780 
#    y 0.000000 1.995640 0.000000 
#    z 0.037780 0.000000 1.984510 
# 
# From -- ./inp_files/292266.got.cif
#   From: 2010.05.17/outbox.cif.g08.bks.cpg/sg15_147_cif.got.tgz:292266.got - 2010.06.03 18:47:42.
