data_PCOD9274246
_publ_section_title
;
Structure prediction by ZEFSAII (Michael W. Deem and Ramdas Pophale) SiO2 
 PCOD9274246
Probable space group: C 2/C
;
_chemical_formula_sum "Si O2"
_cell_formula_units_Z 64
_cell_length_a 7.884548
_cell_length_b 31.974109
_cell_length_c 14.128515
_cell_angle_alpha 90.000000
_cell_angle_beta 128.559719
_cell_angle_gamma 90.000000
_cell_volume 2785.195537
_symmetry_space_group_name_H-M "C 2/C"
_symmetry_group_IT_number 15
_symmetry_cell_setting 'monoclinic'
loop_
_space_group_symop_operation_xyz
x,y,z
-x,y,1/2-z
-x,-y,-z
x,-y,1/2+z
1/2+x,1/2+y,z
1/2-x,1/2+y,1/2-z
1/2-x,1/2-y,-z
1/2+x,1/2-y,1/2+z
loop_
_atom_site_type_symbol
_atom_site_label
_atom_site_fract_x
_atom_site_fract_y
_atom_site_fract_z
Si Si1 0.771364 0.325521 0.208127
Si Si2 0.213042 0.894694 0.031308
Si Si3 0.615082 0.014251 0.890418
Si Si4 0.535827 0.807298 0.896474
Si Si5 0.154859 0.371310 0.077443
Si Si6 0.077204 0.832999 0.670476
Si Si7 0.707232 0.536762 0.881322
Si Si8 0.031688 0.232227 0.006818
O O1 0.747559 0.367515 0.137481
O O2 0.766681 0.339961 0.313886
O O3 0.000000 0.307052 0.250000
O O4 0.587092 0.293040 0.117905
O O5 0.242644 0.943177 0.067410
O O6 0.410550 0.883634 0.027173
O O7 0.997526 0.875133 0.909241
O O8 0.500000 0.003162 0.750000
O O9 0.414242 0.024581 0.889813
O O10 0.756843 0.981294 0.000543
O O11 0.330984 0.823009 0.767493
O O12 0.710854 0.776593 0.910420
O O13 0.652436 0.848030 0.977196
O O14 0.471738 0.779953 0.967441
O O15 0.292297 0.413150 0.116374
O O16 0.970185 0.793331 0.579378
O O17 0.000000 0.836270 0.750000
O O18 0.500000 0.521199 0.750000
#
# Coordination Sequence:
#
# PCOD9274246 Si02
#       8
#     8   8   8   8   8   8   8   8
#     4   9  19  37  63  94 117 164 220 264 308 380
#     4   9  18  39  63  91 122 161 209 259 320 369
#     4  10  21  43  70  96 136 171 211 271 332 402
#     4  11  24  41  60  89 129 168 210 266 327 387
#     4  10  20  38  62  88 123 164 211 257 319 381
#     4  11  22  41  63  91 125 165 219 274 317 380
#     4  10  23  40  65 101 132 166 218 269 325 406
#     4  10  25  41  59  89 127 170 214 266 330 383
#
# _framework density 22.978639000000001
#
# number of rings (size 3 to 8) (size 9 to 14) (size 15 to 20)
#    0.000    2.000    1.250    2.250    3.500    2.000 
#    2.250    1.250    0.000    0.000    0.000    0.000 
#    0.000    0.000    0.000    0.000    0.000    0.000 
#
# Total GULP energy -178742.112344 kJ/mol
# GULP energy per Si atom -5585.691011 kJ/mol
# Density = 2.292634 g / cm^3
# Si number density = 22.978639 Si / 1000 Ang^3
#
#
#
# Elastic Constant Matrix: (Units=GPa)
#
#
# Indices 1 2 3 4 5 6 
#
# 1 55.4719 14.7500 29.0036 0.0000 17.7000 0.0000
# 2 14.7500 72.1502 61.2006 0.0000 8.4502 0.0000
# 3 29.0036 61.2006 172.0125 0.0000 8.9973 0.0000
# 4 0.0000 0.0000 0.0000 71.2752 0.0000 -14.8768
# 5 17.7000 8.4502 8.9973 0.0000 38.7460 0.0000
# 6 0.0000 0.0000 0.0000 -14.8768 0.0000 27.1884
#
#
#
# Elastic Compliance Matrix: (Units=1/GPa)
#
#
# Indices 1 2 3 4 5 6 
#
# 1 0.022914 -0.001021 -0.003001 0.000000 -0.009548 0.000000
# 2 -0.001021 0.020184 -0.006887 0.000000 -0.002337 0.000000
# 3 -0.003001 -0.006887 0.008726 0.000000 0.000847 0.000000
# 4 0.000000 0.000000 0.000000 0.015839 0.000000 0.008667
# 5 -0.009548 -0.002337 0.000847 0.000000 0.030484 0.000000
# 6 0.000000 0.000000 0.000000 0.008667 0.000000 0.041523
#
#
# Mechanical properties :
#
#
# Convention : Reuss Voigt Hill
#
# Bulk Modulus (GPa) = 33.32594 56.61588 44.97091
# Shear Modulus (GPa) = 29.15634 40.42062 34.78848
#
# Velocity S-wave (km/s) = 3.56595 4.19866 3.89517
# Velocity P-wave (km/s) = 5.61152 6.94240 6.31213
#
# Compressibility (1/GPa) = 0.03000666
#
# Stress axis : x y z
#
# Youngs Moduli (GPa) = 43.64084 49.54385 114.60500
#
# Poissons Ratio (x) = 0.05056 0.34394
# Poissons Ratio (y) = 0.04454 0.78929
# Poissons Ratio (z) = 0.13097 0.34121
#
# Static dielectric constant tensor:
#      x y z
#    x 2.008110 0.000000 -0.023640 
#    y 0.000000 1.834410 0.000000 
#    z -0.023640 0.000000 1.884570 
# 
# From -- ./inp_files/139866.got.cif
#   From: 2010.05.17/outbox.cif.g08.bks.cpg/sg15_70_cif.got.tgz:139866.got - 2010.06.03 18:47:42.
