data_PCOD9274831
_publ_section_title
;
Structure prediction by ZEFSAII (Michael W. Deem and Ramdas Pophale) SiO2 
 PCOD9274831
Probable space group: C 2/C
;
_chemical_formula_sum "Si O2"
_cell_formula_units_Z 52
_cell_length_a 16.169290
_cell_length_b 18.240175
_cell_length_c 14.220287
_cell_angle_alpha 90.000000
_cell_angle_beta 37.550621
_cell_angle_gamma 90.000000
_cell_volume 2556.083469
_symmetry_space_group_name_H-M "C 2/C"
_symmetry_group_IT_number 15
_symmetry_cell_setting 'monoclinic'
loop_
_space_group_symop_operation_xyz
x,y,z
-x,y,1/2-z
-x,-y,-z
x,-y,1/2+z
1/2+x,1/2+y,z
1/2-x,1/2+y,1/2-z
1/2-x,1/2-y,-z
1/2+x,1/2-y,1/2+z
loop_
_atom_site_type_symbol
_atom_site_label
_atom_site_fract_x
_atom_site_fract_y
_atom_site_fract_z
Si Si1 0.942553 0.768979 0.551267
Si Si2 0.958516 0.009825 0.427258
Si Si3 0.706870 0.596325 0.216879
Si Si4 0.202593 0.821327 0.202395
Si Si5 0.500000 0.618391 0.750000
Si Si6 0.976234 0.641709 0.881437
Si Si7 0.705385 0.955297 0.251689
O O1 0.869473 0.841886 0.654117
O O2 0.835392 0.728691 0.579878
O O3 0.085996 0.786330 0.373832
O O4 0.968148 0.712721 0.613594
O O5 0.813432 0.047981 0.568303
O O6 0.085169 0.054905 0.272447
O O7 0.000000 0.000000 0.500000
O O8 0.953076 0.933872 0.377550
O O9 0.782012 0.536422 0.215876
O O10 0.819735 0.630791 0.048851
O O11 0.126789 0.836173 0.173497
O O12 0.246313 0.898010 0.211757
O O13 0.000000 0.648723 0.750000
O O14 0.061674 0.572312 0.844009
#
# Coordination Sequence:
#
# PCOD9274831 Si02
#       7
#     8   8   8   8   4   8   8
#     4  11  23  44  65  87 133 176 206 263 327 374
#     4  10  20  38  65  97 122 161 213 270 308 367
#     4  11  20  42  66  90 122 175 206 261 332 368
#     4  11  22  42  65  93 127 169 214 260 316 385
#     4  12  22  38  70 100 126 164 228 256 318 386
#     4  11  26  41  61  96 132 168 213 262 326 395
#     4  10  21  42  67  92 128 165 209 270 322 372
#
# _framework density 20.343623999999998
#
# number of rings (size 3 to 8) (size 9 to 14) (size 15 to 20)
#    0.000    1.231    6.154    1.385    2.154    1.231 
#    1.385    0.000    1.692    0.000    0.000    0.000 
#    0.000    0.000    0.000    0.000    0.000    0.000 
#
# Total GULP energy -145234.195664 kJ/mol
# GULP energy per Si atom -5585.930602 kJ/mol
# Density = 2.029732 g / cm^3
# Si number density = 20.343624 Si / 1000 Ang^3
#
#
#
# Elastic Constant Matrix: (Units=GPa)
#
#
# Indices 1 2 3 4 5 6 
#
# 1 83.4397 16.6829 16.5429 -0.0002 6.1531 0.0001
# 2 16.6829 78.3444 7.1191 -0.0001 3.8238 0.0001
# 3 16.5429 7.1191 75.4843 -0.0001 -7.9475 0.0000
# 4 -0.0002 -0.0001 -0.0001 19.1616 0.0001 1.6110
# 5 6.1531 3.8238 -7.9475 0.0001 26.4778 0.0000
# 6 0.0001 0.0001 0.0000 1.6110 0.0000 25.0182
#
#
#
# Elastic Compliance Matrix: (Units=1/GPa)
#
#
# Indices 1 2 3 4 5 6 
#
# 1 0.013345 -0.002381 -0.003088 0.000000 -0.003684 0.000000
# 2 -0.002381 0.013436 -0.000920 0.000000 -0.001663 0.000000
# 3 -0.003088 -0.000920 0.014561 0.000000 0.005221 0.000000
# 4 0.000000 0.000000 0.000000 0.052472 0.000000 -0.003379
# 5 -0.003684 -0.001663 0.005221 0.000000 0.040431 0.000000
# 6 0.000000 0.000000 0.000000 -0.003379 0.000000 0.040189
#
#
# Mechanical properties :
#
#
# Convention : Reuss Voigt Hill
#
# Bulk Modulus (GPa) = 35.01080 35.32870 35.16975
# Shear Modulus (GPa) = 25.41513 27.25974 26.33743
#
# Velocity S-wave (km/s) = 3.53837 3.66452 3.60200
# Velocity P-wave (km/s) = 5.82584 5.94211 5.88426
#
# Compressibility (1/GPa) = 0.02856262
#
# Stress axis : x y z
#
# Youngs Moduli (GPa) = 74.93616 74.42668 68.67642
#
# Poissons Ratio (x) = 0.17723 0.21206
# Poissons Ratio (y) = 0.17844 0.06321
# Poissons Ratio (z) = 0.23139 0.06851
#
# Static dielectric constant tensor:
#      x y z
#    x 1.731930 0.000000 -0.007790 
#    y 0.000000 1.744090 0.000000 
#    z -0.007790 0.000000 1.745470 
# 
# From -- ./inp_files/155446.got.cif
#   From: 2010.05.17/outbox.cif.g08.bks.cpg/sg15_78_cif.got.tgz:155446.got - 2010.06.03 18:47:42.
