data_PCOD9274681
_publ_section_title
;
Structure prediction by ZEFSAII (Michael W. Deem and Ramdas Pophale) SiO2 
 PCOD9274681
Probable space group: C 2/C
;
_chemical_formula_sum "Si O2"
_cell_formula_units_Z 40
_cell_length_a 11.575396
_cell_length_b 12.318180
_cell_length_c 21.025790
_cell_angle_alpha 90.000000
_cell_angle_beta 35.395357
_cell_angle_gamma 90.000000
_cell_volume 1736.499302
_symmetry_space_group_name_H-M "C 2/C"
_symmetry_group_IT_number 15
_symmetry_cell_setting 'monoclinic'
loop_
_space_group_symop_operation_xyz
x,y,z
-x,y,1/2-z
-x,-y,-z
x,-y,1/2+z
1/2+x,1/2+y,z
1/2-x,1/2+y,1/2-z
1/2-x,1/2-y,-z
1/2+x,1/2-y,1/2+z
loop_
_atom_site_type_symbol
_atom_site_label
_atom_site_fract_x
_atom_site_fract_y
_atom_site_fract_z
Si Si1 0.191541 0.964298 0.135847
Si Si2 0.446348 0.802594 0.941546
Si Si3 0.261052 0.120217 0.991320
Si Si4 0.258310 0.125506 0.851531
Si Si5 0.651040 0.011353 0.303348
O O1 0.245672 0.028774 0.175338
O O2 0.000000 0.901118 0.250000
O O3 0.359486 0.882993 0.034949
O O4 0.160381 0.050597 0.092649
O O5 0.614832 0.722192 0.892454
O O6 0.537757 0.876593 0.844423
O O7 0.250000 0.750000 0.000000
O O8 0.191955 0.089822 0.951473
O O9 0.490796 0.082901 0.890293
O O10 0.250000 0.250000 0.000000
O O11 0.500000 0.151861 0.750000
O O12 0.238400 0.031827 0.807715
#
# Coordination Sequence:
#
# PCOD9274681 Si02
#       5
#     8   8   8   8   8
#     4  11  23  42  66  97 137 185 230 282 344 412
#     4  11  23  44  69  99 140 179 225 286 352 415
#     4  10  20  38  64  93 127 172 227 283 334 403
#     4  10  22  43  70 104 136 179 234 286 346 420
#     4  10  22  41  63  95 134 171 224 283 343 418
#
# _framework density 23.034849000000001
#
# number of rings (size 3 to 8) (size 9 to 14) (size 15 to 20)
#    0.000    1.600    0.000    6.000    0.000    6.400 
#    0.000   37.000    0.000    0.000    0.000    0.000 
#    0.000    0.000    0.000    0.000    0.000    0.000 
#
# Total GULP energy -111563.981944 kJ/mol
# GULP energy per Si atom -5578.199097 kJ/mol
# Density = 2.298242 g / cm^3
# Si number density = 23.034849 Si / 1000 Ang^3
#
#
#
# Elastic Constant Matrix: (Units=GPa)
#
#
# Indices 1 2 3 4 5 6 
#
# 1 134.4175 75.4540 71.5222 0.0001 30.9005 -0.0001
# 2 75.4540 98.5304 67.8523 -0.0001 23.1866 0.0000
# 3 71.5222 67.8523 149.4713 -0.0004 26.8446 -0.0001
# 4 0.0001 -0.0001 -0.0004 27.6982 -0.0001 -7.7453
# 5 30.9005 23.1866 26.8446 -0.0001 50.7273 0.0001
# 6 -0.0001 0.0000 -0.0001 -7.7453 0.0001 30.0147
#
#
#
# Elastic Compliance Matrix: (Units=1/GPa)
#
#
# Indices 1 2 3 4 5 6 
#
# 1 0.014259 -0.008469 -0.002336 0.000000 -0.003579 0.000000
# 2 -0.008469 0.020392 -0.004925 0.000000 -0.001556 0.000000
# 3 -0.002336 -0.004925 0.010369 0.000000 -0.001813 0.000000
# 4 0.000000 0.000000 0.000000 0.038911 0.000000 0.010041
# 5 -0.003579 -0.001556 -0.001813 0.000000 0.023564 0.000000
# 6 0.000000 0.000000 0.000000 0.010041 0.000000 0.035908
#
#
# Mechanical properties :
#
#
# Convention : Reuss Voigt Hill
#
# Bulk Modulus (GPa) = 73.74088 90.23069 81.98579
# Shear Modulus (GPa) = 27.87315 32.86075 30.36695
#
# Velocity S-wave (km/s) = 3.48234 3.78109 3.63479
# Velocity P-wave (km/s) = 6.94631 7.63666 7.29965
#
# Compressibility (1/GPa) = 0.01356100
#
# Stress axis : x y z
#
# Youngs Moduli (GPa) = 70.13179 49.03792 96.43681
#
# Poissons Ratio (x) = 0.41528 0.22526
# Poissons Ratio (y) = 0.59392 0.47499
# Poissons Ratio (z) = 0.16381 0.24153
#
# Static dielectric constant tensor:
#      x y z
#    x 2.098760 0.000000 -0.135580 
#    y 0.000000 1.858490 0.000000 
#    z -0.135580 0.000000 1.968310 
# 
# From -- ./inp_files/237362.got.cif
#   From: 2010.05.17/outbox.cif.g08.bks.cpg/sg15_119_cif.got.tgz:237362.got - 2010.06.03 18:47:42.
