data_PCOD9274690
_publ_section_title
;
Structure prediction by ZEFSAII (Michael W. Deem and Ramdas Pophale) SiO2 
 PCOD9274690
Probable space group: C 2/C
;
_chemical_formula_sum "Si O2"
_cell_formula_units_Z 60
_cell_length_a 11.016047
_cell_length_b 19.045539
_cell_length_c 25.067106
_cell_angle_alpha 90.000000
_cell_angle_beta 144.636371
_cell_angle_gamma 90.000000
_cell_volume 3043.858561
_symmetry_space_group_name_H-M "C 2/C"
_symmetry_group_IT_number 15
_symmetry_cell_setting 'monoclinic'
loop_
_space_group_symop_operation_xyz
x,y,z
-x,y,1/2-z
-x,-y,-z
x,-y,1/2+z
1/2+x,1/2+y,z
1/2-x,1/2+y,1/2-z
1/2-x,1/2-y,-z
1/2+x,1/2-y,1/2+z
loop_
_atom_site_type_symbol
_atom_site_label
_atom_site_fract_x
_atom_site_fract_y
_atom_site_fract_z
Si Si1 0.001760 0.570143 0.642941
Si Si2 0.694913 0.956074 0.777996
Si Si3 0.396844 0.251665 0.360967
Si Si4 0.217538 0.296532 0.797105
Si Si5 0.747466 0.657423 0.853259
Si Si6 0.900271 0.994972 0.022947
Si Si7 0.000000 0.663860 0.750000
Si Si8 0.282105 0.858876 0.489064
O O1 0.768983 0.557287 0.537184
O O2 0.000912 0.614879 0.697646
O O3 0.101292 0.494233 0.692871
O O4 0.137747 0.609504 0.648187
O O5 0.500000 0.959272 0.750000
O O6 0.782256 0.876407 0.808639
O O7 0.896556 0.000667 0.867198
O O8 0.319572 0.239982 0.272904
O O9 0.204831 0.286509 0.323483
O O10 0.500131 0.179047 0.417683
O O11 0.589671 0.305640 0.430276
O O12 0.330083 0.238125 0.874446
O O13 0.000000 0.307064 0.750000
O O14 0.500000 0.658342 0.750000
O O15 0.780065 0.629980 0.924693
O O16 0.774333 0.925590 0.995090
O O17 0.000000 0.000000 0.000000
#
# Coordination Sequence:
#
# PCOD9274690 Si02
#       8
#     8   8   8   8   8   8   4   8
#     4  12  23  41  67  95 136 175 224 281 337 403
#     4  11  22  38  65  98 130 166 220 278 332 389
#     4  11  22  40  67  93 129 170 218 282 333 400
#     4  10  20  38  64  94 123 170 218 264 328 402
#     4  11  21  42  67  92 131 181 221 269 339 412
#     4  12  24  41  65  97 130 170 220 280 337 396
#     4  12  22  42  64 102 126 170 226 284 340 392
#     4  11  24  41  65  96 131 174 225 270 340 416
#
# _framework density 19.711822999999999
#
# number of rings (size 3 to 8) (size 9 to 14) (size 15 to 20)
#    0.000    0.800    6.000    3.200    1.867    1.600 
#    2.400    1.333    2.933    0.000    0.000    0.000 
#    0.000    0.000    0.000    0.000    0.000    0.000 
#
# Total GULP energy -167341.828637 kJ/mol
# GULP energy per Si atom -5578.060955 kJ/mol
# Density = 1.966696 g / cm^3
# Si number density = 19.711823 Si / 1000 Ang^3
#
#
#
# Elastic Constant Matrix: (Units=GPa)
#
#
# Indices 1 2 3 4 5 6 
#
# 1 112.7504 57.3302 30.8953 0.0000 -2.0748 -0.0001
# 2 57.3302 109.1085 11.7560 0.0000 4.7431 0.0000
# 3 30.8953 11.7560 62.9809 0.0003 8.8661 0.0000
# 4 0.0000 0.0000 0.0003 25.5441 0.0000 5.0220
# 5 -2.0748 4.7431 8.8661 0.0000 27.7915 -0.0001
# 6 -0.0001 0.0000 0.0000 5.0220 -0.0001 20.8572
#
#
#
# Elastic Compliance Matrix: (Units=1/GPa)
#
#
# Indices 1 2 3 4 5 6 
#
# 1 0.014213 -0.006977 -0.006268 0.000000 0.004252 0.000000
# 2 -0.006977 0.012810 0.001479 0.000000 -0.003179 0.000000
# 3 -0.006268 0.001479 0.019661 0.000000 -0.006993 0.000000
# 4 0.000000 0.000000 0.000000 0.041093 0.000000 -0.009894
# 5 0.004252 -0.003179 -0.006993 0.000000 0.039073 0.000000
# 6 0.000000 0.000000 0.000000 -0.009894 0.000000 0.050327
#
#
# Mechanical properties :
#
#
# Convention : Reuss Voigt Hill
#
# Bulk Modulus (GPa) = 43.19454 53.86700 48.53077
# Shear Modulus (GPa) = 23.98912 27.16245 25.57578
#
# Velocity S-wave (km/s) = 3.49233 3.71614 3.60597
# Velocity P-wave (km/s) = 6.18242 6.76753 6.48158
#
# Compressibility (1/GPa) = 0.02315107
#
# Stress axis : x y z
#
# Youngs Moduli (GPa) = 70.35912 78.06234 50.86218
#
# Poissons Ratio (x) = 0.54468 0.31881
# Poissons Ratio (y) = 0.49093 -0.07523
# Poissons Ratio (z) = 0.44103 -0.11547
#
# Static dielectric constant tensor:
#      x y z
#    x 1.654600 0.000000 -0.040360 
#    y 0.000000 1.771140 0.000000 
#    z -0.040360 0.000000 1.791100 
# 
# From -- ./inp_files/293560.got.cif
#   From: 2010.05.17/outbox.cif.g08.bks.cpg/sg15_147_cif.got.tgz:293560.got - 2010.06.03 18:47:42.
