data_PCOD9274793
_publ_section_title
;
Structure prediction by ZEFSAII (Michael W. Deem and Ramdas Pophale) SiO2 
 PCOD9274793
Probable space group: C 2/C
;
_chemical_formula_sum "Si O2"
_cell_formula_units_Z 56
_cell_length_a 27.644655
_cell_length_b 12.356280
_cell_length_c 9.004040
_cell_angle_alpha 90.000000
_cell_angle_beta 64.758474
_cell_angle_gamma 90.000000
_cell_volume 2781.977754
_symmetry_space_group_name_H-M "C 2/C"
_symmetry_group_IT_number 15
_symmetry_cell_setting 'monoclinic'
loop_
_space_group_symop_operation_xyz
x,y,z
-x,y,1/2-z
-x,-y,-z
x,-y,1/2+z
1/2+x,1/2+y,z
1/2-x,1/2+y,1/2-z
1/2-x,1/2-y,-z
1/2+x,1/2-y,1/2+z
loop_
_atom_site_type_symbol
_atom_site_label
_atom_site_fract_x
_atom_site_fract_y
_atom_site_fract_z
Si Si1 0.265970 0.628721 0.024914
Si Si2 0.460279 0.183640 0.525913
Si Si3 0.075351 0.670216 0.273680
Si Si4 0.946250 0.067078 0.039357
Si Si5 0.889182 0.905181 0.307463
Si Si6 0.867523 0.551503 0.781894
Si Si7 0.705428 0.017631 0.366098
O O1 0.239216 0.595226 0.215642
O O2 0.250000 0.750000 0.000000
O O3 0.329437 0.610155 0.945100
O O4 0.242054 0.548573 0.931573
O O5 0.521886 0.147919 0.438081
O O6 0.439822 0.172325 0.381850
O O7 0.455404 0.309361 0.575604
O O8 0.421875 0.114438 0.680194
O O9 0.095412 0.790137 0.285431
O O10 0.118256 0.576168 0.236907
O O11 0.898481 0.004369 0.184522
O O12 0.930328 0.073796 0.887977
O O13 0.000000 0.000000 0.000000
O O14 0.826605 0.565034 0.699240
O O15 0.838302 0.577432 0.973755
#
# Coordination Sequence:
#
# PCOD9274793 Si02
#       7
#     8   8   8   8   8   8   8
#     4  11  24  45  69  95 128 174 229 277 328 390
#     4  10  21  37  63  95 130 167 206 256 319 394
#     4  10  20  38  65  91 126 173 207 248 331 392
#     4  11  22  41  63  96 130 167 210 261 314 399
#     4  11  22  41  67  88 128 170 212 261 326 374
#     4  11  20  41  63  94 131 165 210 270 329 386
#     4  10  23  42  64  96 127 165 222 274 322 385
#
# _framework density 20.129563000000001
#
# number of rings (size 3 to 8) (size 9 to 14) (size 15 to 20)
#    0.000    1.429    2.857    3.429    2.000    0.000 
#    7.714    1.429    0.000    0.000    0.000    0.000 
#    0.000    0.000    0.000    0.000    0.000    0.000 
#
# Total GULP energy -156464.987144 kJ/mol
# GULP energy per Si atom -5588.035255 kJ/mol
# Density = 2.008375 g / cm^3
# Si number density = 20.129563 Si / 1000 Ang^3
#
#
#
# Elastic Constant Matrix: (Units=GPa)
#
#
# Indices 1 2 3 4 5 6 
#
# 1 81.9473 20.7357 34.9301 0.0000 -19.5217 0.0000
# 2 20.7357 81.5665 37.5159 0.0000 -5.2460 0.0000
# 3 34.9301 37.5159 125.4343 0.0000 -27.8855 0.0000
# 4 0.0000 0.0000 0.0000 24.8921 0.0000 -8.2506
# 5 -19.5217 -5.2460 -27.8855 0.0000 37.2951 0.0000
# 6 0.0000 0.0000 0.0000 -8.2506 0.0000 24.6873
#
#
#
# Elastic Compliance Matrix: (Units=1/GPa)
#
#
# Indices 1 2 3 4 5 6 
#
# 1 0.015174 -0.002483 -0.002153 0.000000 0.005984 0.000000
# 2 -0.002483 0.014684 -0.004234 0.000000 -0.002400 0.000000
# 3 -0.002153 -0.004234 0.011340 0.000000 0.006757 0.000000
# 4 0.000000 0.000000 0.000000 0.045178 0.000000 0.015099
# 5 0.005984 -0.002400 0.006757 0.000000 0.034660 0.000000
# 6 0.000000 0.000000 0.000000 0.015099 0.000000 0.045553
#
#
# Mechanical properties :
#
#
# Convention : Reuss Voigt Hill
#
# Bulk Modulus (GPa) = 42.62598 52.81238 47.71918
# Shear Modulus (GPa) = 26.02162 30.42598 28.22380
#
# Velocity S-wave (km/s) = 3.59932 3.89203 3.74853
# Velocity P-wave (km/s) = 6.20446 6.81838 6.51865
#
# Compressibility (1/GPa) = 0.02345987
#
# Stress axis : x y z
#
# Youngs Moduli (GPa) = 65.90087 68.10092 88.18174
#
# Poissons Ratio (x) = 0.16906 0.18984
# Poissons Ratio (y) = 0.16360 0.37336
# Poissons Ratio (z) = 0.14187 0.28834
#
# Static dielectric constant tensor:
#      x y z
#    x 1.717310 0.000000 -0.005060 
#    y 0.000000 1.685840 0.000000 
#    z -0.005060 0.000000 1.715090 
# 
# From -- ./inp_files/65434.got.cif
#   From: 2010.05.17/outbox.cif.g08.bks.cpg/sg15_33_cif.got.tgz:65434.got - 2010.06.03 18:47:42.
