data_PCOD9274716
_publ_section_title
;
Structure prediction by ZEFSAII (Michael W. Deem and Ramdas Pophale) SiO2 
 PCOD9274716
Probable space group: C 2/C
;
_chemical_formula_sum "Si O2"
_cell_formula_units_Z 64
_cell_length_a 16.363231
_cell_length_b 11.909893
_cell_length_c 17.318816
_cell_angle_alpha 90.000000
_cell_angle_beta 102.209929
_cell_angle_gamma 90.000000
_cell_volume 3298.817104
_symmetry_space_group_name_H-M "C 2/C"
_symmetry_group_IT_number 15
_symmetry_cell_setting 'monoclinic'
loop_
_space_group_symop_operation_xyz
x,y,z
-x,y,1/2-z
-x,-y,-z
x,-y,1/2+z
1/2+x,1/2+y,z
1/2-x,1/2+y,1/2-z
1/2-x,1/2-y,-z
1/2+x,1/2-y,1/2+z
loop_
_atom_site_type_symbol
_atom_site_label
_atom_site_fract_x
_atom_site_fract_y
_atom_site_fract_z
Si Si1 0.297492 0.513963 0.344408
Si Si2 0.954849 0.667834 0.061376
Si Si3 0.219681 0.278399 0.906475
Si Si4 0.343609 0.644925 0.068799
Si Si5 0.602124 0.990080 0.556907
Si Si6 0.717226 0.467044 0.337374
Si Si7 0.545126 0.606802 0.544955
Si Si8 0.681892 0.116701 0.926450
O O1 0.286230 0.637849 0.379308
O O2 0.296292 0.503675 0.252719
O O3 0.378797 0.444660 0.389654
O O4 0.214526 0.456785 0.363119
O O5 0.872725 0.667604 0.099219
O O6 0.034199 0.584022 0.089508
O O7 0.988255 0.795860 0.069723
O O8 0.923960 0.616808 0.972311
O O9 0.211238 0.164282 0.855910
O O10 0.250000 0.250000 0.000000
O O11 0.347698 0.535977 0.122167
O O12 0.336804 0.761355 0.111492
O O13 0.415796 0.664483 0.022409
O O14 0.262191 0.628661 0.998960
O O15 0.615838 0.933388 0.474245
O O16 0.690054 0.994215 0.617814
O O17 0.500000 0.500000 0.500000
#
# Coordination Sequence:
#
# PCOD9274716 Si02
#       8
#     8   8   8   8   8   8   8   8
#     4  11  25  39  62  93 127 169 215 265 324 387
#     4  11  21  37  68  94 120 159 221 275 314 373
#     4  12  22  44  67  93 130 177 223 266 317 402
#     4   9  18  34  60  86 116 157 205 249 305 380
#     4  10  20  38  64  96 122 156 215 272 320 378
#     4  11  24  39  64  93 128 169 212 267 329 385
#     4  11  22  38  62  91 123 164 216 261 313 386
#     4   9  16  36  60  85 115 155 206 255 301 376
#
# _framework density 19.400894000000001
#
# number of rings (size 3 to 8) (size 9 to 14) (size 15 to 20)
#    0.000    1.500    3.750    3.000    3.500    0.000 
#    0.000    4.375    0.000    0.000    0.000    0.000 
#    0.000    0.000    0.000    0.000    0.000    0.000 
#
# Total GULP energy -178143.315244 kJ/mol
# GULP energy per Si atom -5566.978601 kJ/mol
# Density = 1.935674 g / cm^3
# Si number density = 19.400894 Si / 1000 Ang^3
#
#
#
# Elastic Constant Matrix: (Units=GPa)
#
#
# Indices 1 2 3 4 5 6 
#
# 1 54.9551 -12.1983 -4.1889 0.0000 1.4611 0.0000
# 2 -12.1983 80.6444 7.0459 0.0000 -0.5229 0.0000
# 3 -4.1889 7.0459 64.3378 0.0000 -3.1001 0.0000
# 4 0.0000 0.0000 0.0000 19.5911 0.0000 -9.5937
# 5 1.4611 -0.5229 -3.1001 0.0000 15.5522 0.0000
# 6 0.0000 0.0000 0.0000 -9.5937 0.0000 40.1487
#
#
#
# Elastic Compliance Matrix: (Units=1/GPa)
#
#
# Indices 1 2 3 4 5 6 
#
# 1 0.018919 0.002777 0.000855 0.000000 -0.001514 0.000000
# 2 0.002777 0.012928 -0.001238 0.000000 -0.000073 0.000000
# 3 0.000855 -0.001238 0.015881 0.000000 0.003044 0.000000
# 4 0.000000 0.000000 0.000000 0.057808 0.000000 0.013813
# 5 -0.001514 -0.000073 0.003044 0.000000 0.065046 0.000000
# 6 0.000000 0.000000 0.000000 0.013813 0.000000 0.028208
#
#
# Mechanical properties :
#
#
# Convention : Reuss Voigt Hill
#
# Bulk Modulus (GPa) = 19.04256 20.13941 19.59098
# Shear Modulus (GPa) = 23.63985 29.01032 26.32509
#
# Velocity S-wave (km/s) = 3.49448 3.87112 3.68761
# Velocity P-wave (km/s) = 5.11062 5.51216 5.31518
#
# Compressibility (1/GPa) = 0.05251395
#
# Stress axis : x y z
#
# Youngs Moduli (GPa) = 52.85829 77.35197 62.96878
#
# Poissons Ratio (x) = -0.21482 -0.05382
# Poissons Ratio (y) = -0.14679 0.07799
# Poissons Ratio (z) = -0.04518 0.09580
#
# Static dielectric constant tensor:
#      x y z
#    x 2.085670 0.000000 -0.162720 
#    y 0.000000 1.648230 0.000000 
#    z -0.162720 0.000000 1.717280 
# 
# From -- ./inp_files/210367.got.cif
#   From: 2010.05.17/outbox.cif.g08.bks.cpg/sg15_106_cif.got.tgz:210367.got - 2010.06.03 18:47:42.
