data_PCOD9274741
_publ_section_title
;
Structure prediction by ZEFSAII (Michael W. Deem and Ramdas Pophale) SiO2 
 PCOD9274741
Probable space group: C 2/C
;
_chemical_formula_sum "Si O2"
_cell_formula_units_Z 44
_cell_length_a 4.753757
_cell_length_b 19.007217
_cell_length_c 18.378306
_cell_angle_alpha 90.000000
_cell_angle_beta 99.870359
_cell_angle_gamma 90.000000
_cell_volume 1636.004794
_symmetry_space_group_name_H-M "C 2/C"
_symmetry_group_IT_number 15
_symmetry_cell_setting 'monoclinic'
loop_
_space_group_symop_operation_xyz
x,y,z
-x,y,1/2-z
-x,-y,-z
x,-y,1/2+z
1/2+x,1/2+y,z
1/2-x,1/2+y,1/2-z
1/2-x,1/2-y,-z
1/2+x,1/2-y,1/2+z
loop_
_atom_site_type_symbol
_atom_site_label
_atom_site_fract_x
_atom_site_fract_y
_atom_site_fract_z
Si Si1 0.808483 0.236470 0.866610
Si Si2 0.248650 0.643553 0.538840
Si Si3 0.697315 0.118578 0.197041
Si Si4 0.064035 0.409716 0.333783
Si Si5 0.623677 0.032868 0.432308
Si Si6 0.250000 0.250000 0.500000
O O1 0.899825 0.301077 0.823761
O O2 0.717072 0.165232 0.825084
O O3 0.006381 0.204284 0.942188
O O4 0.573799 0.265966 0.911519
O O5 0.181830 0.611350 0.616936
O O6 0.331494 0.590385 0.477866
O O7 0.952411 0.677150 0.500817
O O8 0.500000 0.088044 0.250000
O O9 0.627089 0.070452 0.124953
O O10 0.000000 0.121407 0.250000
O O11 0.000000 0.435165 0.250000
O O12 0.233857 0.469879 0.385580
O O13 0.500000 0.000000 0.500000
#
# Coordination Sequence:
#
# PCOD9274741 Si02
#       6
#     8   8   8   8   8   4
#     4  11  24  39  72 105 141 186 250 311 385 443
#     4  10  22  40  68 102 135 185 244 315 366 451
#     4  12  29  49  78 114 158 201 255 322 394 463
#     4  10  23  43  65  97 145 188 246 301 382 455
#     4  10  23  50  70 105 148 202 258 312 382 460
#     4  10  20  38  64  98 138 174 244 306 372 434
#
# _framework density 26.894787999999998
#
# number of rings (size 3 to 8) (size 9 to 14) (size 15 to 20)
#    0.000    1.455    1.818    1.636    7.636    0.727 
#   13.091    0.000    0.000    0.000    0.000    0.000 
#    0.000    0.000    0.000    0.000    0.000    0.000 
#
# Total GULP energy -122510.129223 kJ/mol
# GULP energy per Si atom -5568.642237 kJ/mol
# Density = 2.683357 g / cm^3
# Si number density = 26.894788 Si / 1000 Ang^3
#
#
#
# Elastic Constant Matrix: (Units=GPa)
#
#
# Indices 1 2 3 4 5 6 
#
# 1 84.4045 41.1420 36.5675 0.0000 17.6034 0.0000
# 2 41.1420 184.3676 98.4419 0.0000 4.1978 0.0000
# 3 36.5675 98.4419 219.3181 0.0000 0.6108 0.0000
# 4 0.0000 0.0000 0.0000 60.5554 0.0000 10.8919
# 5 17.6034 4.1978 0.6108 0.0000 43.9986 0.0000
# 6 0.0000 0.0000 0.0000 10.8919 0.0000 32.7044
#
#
#
# Elastic Compliance Matrix: (Units=1/GPa)
#
#
# Indices 1 2 3 4 5 6 
#
# 1 0.014813 -0.002454 -0.001352 0.000000 -0.005674 0.000000
# 2 -0.002454 0.007558 -0.002984 0.000000 0.000302 0.000000
# 3 -0.001352 -0.002984 0.006122 0.000000 0.000741 0.000000
# 4 0.000000 0.000000 0.000000 0.017566 0.000000 -0.005850
# 5 -0.005674 0.000302 0.000741 0.000000 0.024959 0.000000
# 6 0.000000 0.000000 0.000000 -0.005850 0.000000 0.032525
#
#
# Mechanical properties :
#
#
# Convention : Reuss Voigt Hill
#
# Bulk Modulus (GPa) = 67.05959 93.37702 80.21830
# Shear Modulus (GPa) = 40.95122 48.24758 44.59940
#
# Velocity S-wave (km/s) = 3.90634 4.24009 4.07663
# Velocity P-wave (km/s) = 6.73307 7.66589 7.21457
#
# Compressibility (1/GPa) = 0.01491211
#
# Stress axis : x y z
#
# Youngs Moduli (GPa) = 67.50708 132.30837 163.33323
#
# Poissons Ratio (x) = 0.32473 0.22090
# Poissons Ratio (y) = 0.16568 0.48741
# Poissons Ratio (z) = 0.09130 0.39482
#
# Static dielectric constant tensor:
#      x y z
#    x 2.451520 0.000000 -0.168430 
#    y 0.000000 2.331800 0.000000 
#    z -0.168430 0.000000 2.139760 
# 
# From -- ./inp_files/184990.got.cif
#   From: 2010.05.17/outbox.cif.g08.bks.cpg/sg15_93_cif.got.tgz:184990.got - 2010.06.03 18:47:42.
