data_PCOD9274044
_publ_section_title
;
Structure prediction by ZEFSAII (Michael W. Deem and Ramdas Pophale) SiO2 
 PCOD9274044
Probable space group: C 2/C
;
_chemical_formula_sum "Si O2"
_cell_formula_units_Z 60
_cell_length_a 17.272637
_cell_length_b 11.456695
_cell_length_c 12.240998
_cell_angle_alpha 90.000000
_cell_angle_beta 94.265694
_cell_angle_gamma 90.000000
_cell_volume 2415.628215
_symmetry_space_group_name_H-M "C 2/C"
_symmetry_group_IT_number 15
_symmetry_cell_setting 'monoclinic'
loop_
_space_group_symop_operation_xyz
x,y,z
-x,y,1/2-z
-x,-y,-z
x,-y,1/2+z
1/2+x,1/2+y,z
1/2-x,1/2+y,1/2-z
1/2-x,1/2-y,-z
1/2+x,1/2-y,1/2+z
loop_
_atom_site_type_symbol
_atom_site_label
_atom_site_fract_x
_atom_site_fract_y
_atom_site_fract_z
Si Si1 0.688321 0.407275 0.446542
Si Si2 0.105459 0.456198 0.458935
Si Si3 0.849479 0.302494 0.819688
Si Si4 0.704610 0.738332 0.171059
Si Si5 0.018682 0.124305 0.951554
Si Si6 0.051596 0.661564 0.600392
Si Si7 0.264982 0.370459 0.440207
Si Si8 0.500000 0.232002 0.250000
O O1 0.693485 0.346363 0.566129
O O2 0.747601 0.347382 0.372331
O O3 0.601675 0.385898 0.401839
O O4 0.699132 0.541861 0.469732
O O5 0.122625 0.378277 0.571642
O O6 0.093538 0.585195 0.508653
O O7 0.183618 0.430967 0.399157
O O8 0.026454 0.415301 0.389741
O O9 0.763160 0.328353 0.759152
O O10 0.825216 0.169907 0.855321
O O11 0.916793 0.332865 0.736443
O O12 0.619425 0.792729 0.189184
O O13 0.975814 0.189470 0.849875
O O14 0.019704 0.218119 0.047834
O O15 0.000000 0.000000 0.000000
O O16 0.250000 0.250000 0.500000
#
# Coordination Sequence:
#
# PCOD9274044 Si02
#       8
#     8   8   8   8   8   8   8   4
#     4  10  20  38  61  85 127 170 208 268 338 395
#     4  10  21  40  69  93 135 175 224 275 344 421
#     4  11  23  39  64 101 127 171 229 280 338 402
#     4  10  21  38  62  92 125 165 223 276 322 400
#     4  11  23  40  67  96 132 175 230 285 343 409
#     4  10  21  41  67  95 126 181 221 272 346 409
#     4  10  22  40  63  93 129 174 214 272 349 409
#     4  12  22  40  66  98 132 172 238 286 328 416
#
# _framework density 24.838259999999998
#
# number of rings (size 3 to 8) (size 9 to 14) (size 15 to 20)
#    0.000    1.600    4.000    0.800    1.867    1.067 
#    0.000    3.333    0.000    0.000    0.000    0.000 
#    0.000    0.000    0.000    0.000    0.000    0.000 
#
# Total GULP energy -167129.337296 kJ/mol
# GULP energy per Si atom -5570.977910 kJ/mol
# Density = 2.478173 g / cm^3
# Si number density = 24.838260 Si / 1000 Ang^3
#
#
#
# Elastic Constant Matrix: (Units=GPa)
#
#
# Indices 1 2 3 4 5 6 
#
# 1 158.2905 -14.9103 7.3353 0.0000 8.8193 0.0000
# 2 -14.9103 101.7813 -12.0007 0.0000 -7.6922 0.0000
# 3 7.3353 -12.0007 51.5001 0.0000 0.9069 0.0000
# 4 0.0000 0.0000 0.0000 -0.5239 0.0000 0.8172
# 5 8.8193 -7.6922 0.9069 0.0000 25.6340 0.0000
# 6 0.0000 0.0000 0.0000 0.8172 0.0000 33.4703
#
#
#
# Elastic Compliance Matrix: (Units=1/GPa)
#
#
# Indices 1 2 3 4 5 6 
#
# 1 0.006531 0.000719 -0.000727 0.000000 -0.002005 0.000000
# 2 0.000719 0.010410 0.002274 0.000000 0.002796 0.000000
# 3 -0.000727 0.002274 0.020047 0.000000 0.000223 0.000000
# 4 0.000000 0.000000 0.000000 -1.838890 0.000000 0.044899
# 5 -0.002005 0.002796 0.000223 0.000000 0.040532 0.000000
# 6 0.000000 0.000000 0.000000 0.044899 0.000000 0.028781
#
#
# Mechanical properties :
#
#
# Convention : Reuss Voigt Hill
#
# Bulk Modulus (GPa) = 24.08486 30.26894 27.17690
# Shear Modulus (GPa) = -2.90144 33.79259 15.44557
#
# Velocity S-wave (km/s) = -1.08197 3.69250 2.49639
# Velocity P-wave (km/s) = 2.85602 5.51292 4.39028
#
# Compressibility (1/GPa) = 0.04151986
#
# Stress axis : x y z
#
# Youngs Moduli (GPa) = 153.12319 96.06336 49.88283
#
# Poissons Ratio (x) = -0.06911 0.03628
# Poissons Ratio (y) = -0.11016 -0.11343
# Poissons Ratio (z) = 0.11136 -0.21845
#
# Static dielectric constant tensor:
#      x y z
#    x -0.440850 0.000000 0.079000 
#    y 0.000000 2.040400 0.000000 
#    z 0.079000 0.000000 2.108890 
# 
# From -- ./inp_files/160976.got.cif
#   From: 2010.05.17/outbox.cif.g08.bks.cpg/sg15_81_cif.got.tgz:160976.got - 2010.06.03 18:47:42.
