data_PCOD9274110
_publ_section_title
;
Structure prediction by ZEFSAII (Michael W. Deem and Ramdas Pophale) SiO2 
 PCOD9274110
Probable space group: C 2/C
;
_chemical_formula_sum "Si O2"
_cell_formula_units_Z 48
_cell_length_a 16.488170
_cell_length_b 9.214934
_cell_length_c 22.111765
_cell_angle_alpha 90.000000
_cell_angle_beta 43.384585
_cell_angle_gamma 90.000000
_cell_volume 2307.685165
_symmetry_space_group_name_H-M "C 2/C"
_symmetry_group_IT_number 15
_symmetry_cell_setting 'monoclinic'
loop_
_space_group_symop_operation_xyz
x,y,z
-x,y,1/2-z
-x,-y,-z
x,-y,1/2+z
1/2+x,1/2+y,z
1/2-x,1/2+y,1/2-z
1/2-x,1/2-y,-z
1/2+x,1/2-y,1/2+z
loop_
_atom_site_type_symbol
_atom_site_label
_atom_site_fract_x
_atom_site_fract_y
_atom_site_fract_z
Si Si1 0.434698 0.181445 0.349225
Si Si2 0.359617 0.515509 0.083332
Si Si3 0.113527 0.875533 0.553218
Si Si4 0.234352 0.334595 0.385545
Si Si5 0.602157 0.411839 0.312193
Si Si6 0.850426 0.440921 0.484107
O O1 0.500000 0.153235 0.250000
O O2 0.324079 0.283769 0.390729
O O3 0.522732 0.268113 0.345954
O O4 0.393874 0.038443 0.404993
O O5 0.321244 0.682763 0.106304
O O6 0.330606 0.430878 0.160624
O O7 0.500000 0.500000 0.000000
O O8 0.322348 0.444651 0.040485
O O9 0.082529 0.711072 0.552705
O O10 0.213217 0.891402 0.550442
O O11 0.995610 0.960711 0.635451
O O12 0.309285 0.407593 0.291724
O O13 0.145433 0.451755 0.461185
#
# Coordination Sequence:
#
# PCOD9274110 Si02
#       6
#     8   8   8   8   8   8
#     4  10  20  38  61  91 117 164 217 252 300 379
#     4  10  21  40  61  87 124 164 204 256 309 372
#     4  10  21  37  58  90 124 158 200 264 309 355
#     4  11  21  38  66  86 121 169 212 246 313 382
#     4  10  22  40  60  90 123 161 208 261 301 371
#     4  11  20  36  61  91 120 159 205 255 315 362
#
# _framework density 20.800065
#
# number of rings (size 3 to 8) (size 9 to 14) (size 15 to 20)
#    0.000    1.667    3.333    2.500    0.000    1.333 
#    6.000   14.167    0.000    0.000    0.000    0.000 
#    0.000    0.000    0.000    0.000    0.000    0.000 
#
# Total GULP energy -133902.581913 kJ/mol
# GULP energy per Si atom -5579.274246 kJ/mol
# Density = 2.075272 g / cm^3
# Si number density = 20.800065 Si / 1000 Ang^3
#
#
#
# Elastic Constant Matrix: (Units=GPa)
#
#
# Indices 1 2 3 4 5 6 
#
# 1 42.5482 17.7589 14.5162 0.0000 9.2919 0.0000
# 2 17.7589 155.5660 89.5544 0.0000 9.2615 0.0000
# 3 14.5162 89.5544 99.5833 0.0000 9.1648 0.0000
# 4 0.0000 0.0000 0.0000 34.0440 0.0000 -0.6045
# 5 9.2919 9.2615 9.1648 0.0000 21.1211 0.0000
# 6 0.0000 0.0000 0.0000 -0.6045 0.0000 32.4557
#
#
#
# Elastic Compliance Matrix: (Units=1/GPa)
#
#
# Indices 1 2 3 4 5 6 
#
# 1 0.026981 -0.001549 -0.001573 0.000000 -0.010508 0.000000
# 2 -0.001549 0.013426 -0.011842 0.000000 -0.000067 0.000000
# 3 -0.001573 -0.011842 0.021226 0.000000 -0.003326 0.000000
# 4 0.000000 0.000000 0.000000 0.029383 0.000000 0.000547
# 5 -0.010508 -0.000067 -0.003326 0.000000 0.053441 0.000000
# 6 0.000000 0.000000 0.000000 0.000547 0.000000 0.030821
#
#
# Mechanical properties :
#
#
# Convention : Reuss Voigt Hill
#
# Bulk Modulus (GPa) = 31.54011 60.15070 45.84540
# Shear Modulus (GPa) = 23.17223 29.24870 26.21046
#
# Velocity S-wave (km/s) = 3.34135 3.75398 3.55366
# Velocity P-wave (km/s) = 5.48476 6.91166 6.23914
#
# Compressibility (1/GPa) = 0.03170566
#
# Stress axis : x y z
#
# Youngs Moduli (GPa) = 37.06354 74.48264 47.11098
#
# Poissons Ratio (x) = 0.11537 0.07410
# Poissons Ratio (y) = 0.05741 0.55788
# Poissons Ratio (z) = 0.05830 0.88201
#
# Static dielectric constant tensor:
#      x y z
#    x 1.862240 0.000000 0.029490 
#    y 0.000000 1.734780 0.000000 
#    z 0.029490 0.000000 1.744870 
# 
# From -- ./inp_files/247267.got.cif
#   From: 2010.05.17/outbox.cif.g08.bks.cpg/sg15_124_cif.got.tgz:247267.got - 2010.06.03 18:47:42.
