data_PCOD9274377
_publ_section_title
;
Structure prediction by ZEFSAII (Michael W. Deem and Ramdas Pophale) SiO2 
 PCOD9274377
Probable space group: C 2/C
;
_chemical_formula_sum "Si O2"
_cell_formula_units_Z 28
_cell_length_a 4.933475
_cell_length_b 31.285460
_cell_length_c 8.415046
_cell_angle_alpha 90.000000
_cell_angle_beta 68.170610
_cell_angle_gamma 90.000000
_cell_volume 1205.696724
_symmetry_space_group_name_H-M "C 2/C"
_symmetry_group_IT_number 15
_symmetry_cell_setting 'monoclinic'
loop_
_space_group_symop_operation_xyz
x,y,z
-x,y,1/2-z
-x,-y,-z
x,-y,1/2+z
1/2+x,1/2+y,z
1/2-x,1/2+y,1/2-z
1/2-x,1/2-y,-z
1/2+x,1/2-y,1/2+z
loop_
_atom_site_type_symbol
_atom_site_label
_atom_site_fract_x
_atom_site_fract_y
_atom_site_fract_z
Si Si1 0.325482 0.779094 0.137206
Si Si2 0.723770 0.940532 0.916524
Si Si3 0.338892 0.846845 0.626963
Si Si4 0.000000 0.516825 0.750000
O O1 0.500000 0.758273 0.250000
O O2 0.000000 0.795698 0.250000
O O3 0.250000 0.750000 0.000000
O O4 0.549435 0.816059 0.035148
O O5 0.556052 0.895591 0.937416
O O6 0.000000 0.929690 0.750000
O O7 0.630407 0.983526 0.846178
O O8 0.726208 0.954142 0.100785
O O9 0.500000 0.832576 0.750000
O O10 0.000000 0.844295 0.750000
#
# Coordination Sequence:
#
# PCOD9274377 Si02
#       4
#     8   8   8   4
#     4  12  27  48  76 108 141 186 240 301 368 441
#     4  10  21  38  63  93 139 184 236 292 355 418
#     4  11  24  46  70 102 143 188 234 296 361 427
#     4  10  20  38  62  98 130 184 242 284 358 412
#
# _framework density 23.223085000000001
#
# number of rings (size 3 to 8) (size 9 to 14) (size 15 to 20)
#    0.000    1.143    1.429    4.286    2.000    2.286 
#    0.000    1.429    0.000    0.000    0.000    0.000 
#    0.000    0.000    0.000    0.000    0.000    0.000 
#
# Total GULP energy -77957.680118 kJ/mol
# GULP energy per Si atom -5568.405723 kJ/mol
# Density = 2.317023 g / cm^3
# Si number density = 23.223085 Si / 1000 Ang^3
#
#
#
# Elastic Constant Matrix: (Units=GPa)
#
#
# Indices 1 2 3 4 5 6 
#
# 1 110.4741 2.9135 43.9074 0.0000 -0.9124 0.0000
# 2 2.9135 81.4581 74.1071 0.0000 -5.4209 0.0000
# 3 43.9074 74.1071 150.9853 0.0000 -4.3705 0.0000
# 4 0.0000 0.0000 0.0000 10.1463 0.0000 -22.0803
# 5 -0.9124 -5.4209 -4.3705 0.0000 47.2954 0.0000
# 6 0.0000 0.0000 0.0000 -22.0803 0.0000 13.2868
#
#
#
# Elastic Compliance Matrix: (Units=1/GPa)
#
#
# Indices 1 2 3 4 5 6 
#
# 1 0.011114 0.004611 -0.005488 0.000000 0.000236 0.000000
# 2 0.004611 0.024206 -0.013174 0.000000 0.001646 0.000000
# 3 -0.005488 -0.013174 0.014678 0.000000 -0.000260 0.000000
# 4 0.000000 0.000000 0.000000 -0.037669 0.000000 -0.062599
# 5 0.000236 0.001646 -0.000260 0.000000 0.021313 0.000000
# 6 0.000000 0.000000 0.000000 -0.062599 0.000000 -0.028765
#
#
# Mechanical properties :
#
#
# Convention : Reuss Voigt Hill
#
# Bulk Modulus (GPa) = 45.67260 64.97482 55.32371
# Shear Modulus (GPa) = 124.13757 28.94501 76.54129
#
# Velocity S-wave (km/s) = 7.31918 3.53425 5.74723
# Velocity P-wave (km/s) = 9.54656 6.68535 8.24108
#
# Compressibility (1/GPa) = 0.02189496
#
# Stress axis : x y z
#
# Youngs Moduli (GPa) = 89.98006 41.31146 68.12909
#
# Poissons Ratio (x) = -0.19050 0.37392
# Poissons Ratio (y) = -0.41493 0.89756
# Poissons Ratio (z) = 0.49385 0.54425
#
# Static dielectric constant tensor:
#      x y z
#    x 1.968380 0.000000 -0.144790 
#    y 0.000000 1.950800 0.000000 
#    z -0.144790 0.000000 2.526230 
# 
# From -- ./inp_files/19884.got.cif
#   From: 2010.05.17/outbox.cif.g08.bks.cpg/sg15_10_cif.got.tgz:19884.got - 2010.06.03 18:47:42.
