data_PCOD9274710
_publ_section_title
;
Structure prediction by ZEFSAII (Michael W. Deem and Ramdas Pophale) SiO2 
 PCOD9274710
Probable space group: C 2/C
;
_chemical_formula_sum "Si O2"
_cell_formula_units_Z 56
_cell_length_a 9.411491
_cell_length_b 25.885087
_cell_length_c 10.934072
_cell_angle_alpha 90.000000
_cell_angle_beta 77.460763
_cell_angle_gamma 90.000000
_cell_volume 2600.192261
_symmetry_space_group_name_H-M "C 2/C"
_symmetry_group_IT_number 15
_symmetry_cell_setting 'monoclinic'
loop_
_space_group_symop_operation_xyz
x,y,z
-x,y,1/2-z
-x,-y,-z
x,-y,1/2+z
1/2+x,1/2+y,z
1/2-x,1/2+y,1/2-z
1/2-x,1/2-y,-z
1/2+x,1/2-y,1/2+z
loop_
_atom_site_type_symbol
_atom_site_label
_atom_site_fract_x
_atom_site_fract_y
_atom_site_fract_z
Si Si1 0.302312 0.788156 0.152526
Si Si2 0.330035 0.678742 0.278213
Si Si3 0.640946 0.888285 0.968023
Si Si4 0.000000 0.835680 0.250000
Si Si5 0.500000 0.871371 0.250000
Si Si6 0.568352 0.578126 0.568901
Si Si7 0.336755 0.145742 0.427823
Si Si8 0.389128 0.465117 0.875142
O O1 0.337184 0.736984 0.222795
O O2 0.133328 0.799658 0.195726
O O3 0.385641 0.834763 0.203178
O O4 0.340556 0.799564 0.002520
O O5 0.500000 0.662561 0.250000
O O6 0.247899 0.661502 0.419183
O O7 0.226392 0.653123 0.195148
O O8 0.493941 0.878777 0.918697
O O9 0.735022 0.936639 0.903363
O O10 0.588048 0.896645 0.119018
O O11 0.971741 0.877094 0.148301
O O12 0.715024 0.608468 0.508614
O O13 0.619915 0.527118 0.631414
O O14 0.470527 0.554472 0.480983
O O15 0.500000 0.448785 0.750000
#
# Coordination Sequence:
#
# PCOD9274710 Si02
#       8
#     8   8   8   4   4   8   8   8
#     4  10  22  39  64  92 133 175 224 265 325 399
#     4  12  24  42  66  99 134 176 222 276 335 394
#     4  11  24  40  69  92 137 169 216 281 330 394
#     4  10  20  38  64  95 125 180 216 270 318 382
#     4  10  22  46  56  95 129 172 222 264 332 388
#     4  10  21  40  64  92 132 171 221 270 321 397
#     4  10  23  42  62  94 138 173 218 273 332 395
#     4  11  22  40  68 101 126 169 222 271 334 394
#
# _framework density 21.536868999999999
#
# number of rings (size 3 to 8) (size 9 to 14) (size 15 to 20)
#    0.000    1.429    1.429    3.857    2.000    2.286 
#    2.571    0.000    3.143    0.000    0.000    0.000 
#    0.000    0.000    0.000    0.000    0.000    0.000 
#
# Total GULP energy -156029.346292 kJ/mol
# GULP energy per Si atom -5572.476653 kJ/mol
# Density = 2.148785 g / cm^3
# Si number density = 21.536869 Si / 1000 Ang^3
#
#
#
# Elastic Constant Matrix: (Units=GPa)
#
#
# Indices 1 2 3 4 5 6 
#
# 1 95.1200 1.1980 21.2544 0.0000 -10.3645 0.0000
# 2 1.1980 85.8718 15.3155 0.0000 -9.9639 0.0000
# 3 21.2544 15.3155 95.9784 0.0000 -15.4652 0.0000
# 4 0.0000 0.0000 0.0000 32.0679 0.0000 -7.0328
# 5 -10.3645 -9.9639 -15.4652 0.0000 30.1378 0.0000
# 6 0.0000 0.0000 0.0000 -7.0328 0.0000 43.8058
#
#
#
# Elastic Compliance Matrix: (Units=1/GPa)
#
#
# Indices 1 2 3 4 5 6 
#
# 1 0.011304 0.000566 -0.002112 0.000000 0.002991 0.000000
# 2 0.000566 0.012314 -0.001529 0.000000 0.003481 0.000000
# 3 -0.002112 -0.001529 0.011918 0.000000 0.004884 0.000000
# 4 0.000000 0.000000 0.000000 0.032322 0.000000 0.005189
# 5 0.002991 0.003481 0.004884 0.000000 0.037866 0.000000
# 6 0.000000 0.000000 0.000000 0.005189 0.000000 0.023661
#
#
# Mechanical properties :
#
#
# Convention : Reuss Voigt Hill
#
# Bulk Modulus (GPa) = 34.03074 39.16733 36.59904
# Shear Modulus (GPa) = 34.40450 37.14911 35.77681
#
# Velocity S-wave (km/s) = 4.00117 4.15771 4.08019
# Velocity P-wave (km/s) = 6.09765 6.42451 6.26321
#
# Compressibility (1/GPa) = 0.02938520
#
# Stress axis : x y z
#
# Youngs Moduli (GPa) = 88.46717 81.20810 83.90951
#
# Poissons Ratio (x) = -0.04596 0.17718
# Poissons Ratio (y) = -0.05007 0.12833
# Poissons Ratio (z) = 0.18680 0.12420
#
# Static dielectric constant tensor:
#      x y z
#    x 1.740340 0.000000 0.011910 
#    y 0.000000 1.808820 0.000000 
#    z 0.011910 0.000000 1.882020 
# 
# From -- ./inp_files/81344.got.cif
#   From: 2010.05.17/outbox.cif.g08.bks.cpg/sg15_41_cif.got.tgz:81344.got - 2010.06.03 18:47:42.
