data_PCOD9274195
_publ_section_title
;
Structure prediction by ZEFSAII (Michael W. Deem and Ramdas Pophale) SiO2 
 PCOD9274195
Probable space group: C 2/C
;
_chemical_formula_sum "Si O2"
_cell_formula_units_Z 48
_cell_length_a 11.970413
_cell_length_b 12.194438
_cell_length_c 15.023474
_cell_angle_alpha 90.000000
_cell_angle_beta 80.435007
_cell_angle_gamma 90.000000
_cell_volume 2162.525616
_symmetry_space_group_name_H-M "C 2/C"
_symmetry_group_IT_number 15
_symmetry_cell_setting 'monoclinic'
loop_
_space_group_symop_operation_xyz
x,y,z
-x,y,1/2-z
-x,-y,-z
x,-y,1/2+z
1/2+x,1/2+y,z
1/2-x,1/2+y,1/2-z
1/2-x,1/2-y,-z
1/2+x,1/2-y,1/2+z
loop_
_atom_site_type_symbol
_atom_site_label
_atom_site_fract_x
_atom_site_fract_y
_atom_site_fract_z
Si Si1 0.805235 0.363674 0.462259
Si Si2 0.880138 0.953151 0.543522
Si Si3 0.788234 0.187629 0.191435
Si Si4 0.447929 0.871661 0.126493
Si Si5 0.388858 0.887174 0.642715
Si Si6 0.104547 0.271552 0.560924
O O1 0.750000 0.250000 0.500000
O O2 0.713700 0.451276 0.441378
O O3 0.849631 0.412473 0.548542
O O4 0.918686 0.342623 0.390458
O O5 0.877890 0.899729 0.641637
O O6 0.867693 0.851087 0.475859
O O7 0.000000 0.000000 0.500000
O O8 0.859809 0.297922 0.192892
O O9 0.716198 0.150153 0.284572
O O10 0.697504 0.196069 0.121801
O O11 0.440364 0.995876 0.161493
O O12 0.408038 0.843819 0.028597
O O13 0.483749 0.792587 0.624352
#
# Coordination Sequence:
#
# PCOD9274195 Si02
#       6
#     8   8   8   8   8   8
#     4  11  22  40  61  84 118 159 198 239 300 374
#     4  11  22  40  63  86 115 158 202 245 299 367
#     4  11  22  38  59  89 119 151 200 250 295 352
#     4  10  21  39  60  84 116 158 198 239 298 364
#     4  11  22  37  60  89 118 152 195 249 301 348
#     4  10  20  38  62  86 115 156 201 240 293 365
#
# _framework density 22.196269999999998
#
# number of rings (size 3 to 8) (size 9 to 14) (size 15 to 20)
#    0.000    1.333    0.000   10.500    0.000    2.667 
#    0.000    6.667    0.000    0.000    0.000    0.000 
#    0.000    0.000    0.000    0.000    0.000    0.000 
#
# Total GULP energy -133985.832355 kJ/mol
# GULP energy per Si atom -5582.743015 kJ/mol
# Density = 2.214575 g / cm^3
# Si number density = 22.196270 Si / 1000 Ang^3
#
#
#
# Elastic Constant Matrix: (Units=GPa)
#
#
# Indices 1 2 3 4 5 6 
#
# 1 72.9973 8.4475 17.7660 0.0000 -24.4216 0.0000
# 2 8.4475 93.5945 0.4858 0.0000 -13.4089 0.0000
# 3 17.7660 0.4858 70.1816 0.0000 -24.1137 0.0000
# 4 0.0000 0.0000 0.0000 14.2570 0.0000 -19.5468
# 5 -24.4216 -13.4089 -24.1137 0.0000 49.7904 0.0000
# 6 0.0000 0.0000 0.0000 -19.5468 0.0000 37.3445
#
#
#
# Elastic Compliance Matrix: (Units=1/GPa)
#
#
# Indices 1 2 3 4 5 6 
#
# 1 0.016571 -0.000460 -0.001729 0.000000 0.007166 0.000000
# 2 -0.000460 0.011203 0.001197 0.000000 0.003371 0.000000
# 3 -0.001729 0.001197 0.017392 0.000000 0.007897 0.000000
# 4 0.000000 0.000000 0.000000 0.248397 0.000000 0.130016
# 5 0.007166 0.003371 0.007897 0.000000 0.028332 0.000000
# 6 0.000000 0.000000 0.000000 0.130016 0.000000 0.094831
#
#
# Mechanical properties :
#
#
# Convention : Reuss Voigt Hill
#
# Bulk Modulus (GPa) = 23.15838 32.24133 27.69986
# Shear Modulus (GPa) = 11.54462 34.28333 22.91397
#
# Velocity S-wave (km/s) = 2.28308 3.93434 3.21648
# Velocity P-wave (km/s) = 4.17205 5.93261 5.12844
#
# Compressibility (1/GPa) = 0.04318091
#
# Stress axis : x y z
#
# Youngs Moduli (GPa) = 60.34716 89.26455 57.49918
#
# Poissons Ratio (x) = 0.04106 0.09943
# Poissons Ratio (y) = 0.02776 -0.06884
# Poissons Ratio (z) = 0.10436 -0.10687
#
# Static dielectric constant tensor:
#      x y z
#    x 1.955700 0.000000 0.043780 
#    y 0.000000 1.878660 0.000000 
#    z 0.043780 0.000000 1.875400 
# 
# From -- ./inp_files/196485.got.cif
#   From: 2010.05.17/outbox.cif.g08.bks.cpg/sg15_99_cif.got.tgz:196485.got - 2010.06.03 18:47:42.
