data_PCOD9274018
_publ_section_title
;
Structure prediction by ZEFSAII (Michael W. Deem and Ramdas Pophale) SiO2 
 PCOD9274018
Probable space group: C 2/C
;
_chemical_formula_sum "Si O2"
_cell_formula_units_Z 32
_cell_length_a 10.599066
_cell_length_b 10.331539
_cell_length_c 13.857554
_cell_angle_alpha 90.000000
_cell_angle_beta 87.986423
_cell_angle_gamma 90.000000
_cell_volume 1516.529799
_symmetry_space_group_name_H-M "C 2/C"
_symmetry_group_IT_number 15
_symmetry_cell_setting 'monoclinic'
loop_
_space_group_symop_operation_xyz
x,y,z
-x,y,1/2-z
-x,-y,-z
x,-y,1/2+z
1/2+x,1/2+y,z
1/2-x,1/2+y,1/2-z
1/2-x,1/2-y,-z
1/2+x,1/2-y,1/2+z
loop_
_atom_site_type_symbol
_atom_site_label
_atom_site_fract_x
_atom_site_fract_y
_atom_site_fract_z
Si Si1 0.643095 0.866189 0.220996
Si Si2 0.814124 0.359601 0.063273
Si Si3 0.459956 0.703432 0.439126
Si Si4 0.669407 0.520023 0.927925
O O1 0.500000 0.912304 0.250000
O O2 0.705524 0.839469 0.322834
O O3 0.622878 0.741883 0.151446
O O4 0.732449 0.963603 0.160669
O O5 0.961805 0.334539 0.042921
O O6 0.750000 0.250000 0.000000
O O7 0.749503 0.485023 0.021801
O O8 0.394749 0.653777 0.537821
O O9 0.561015 0.588039 0.412357
#
# Coordination Sequence:
#
# PCOD9274018 Si02
#       4
#     8   8   8   8
#     4  10  21  36  57  83 112 146 184 228 276 326
#     4   9  20  37  54  82 115 141 181 230 271 324
#     4   9  20  38  58  82 113 145 184 231 271 323
#     4  10  20  38  61  81 109 150 186 223 277 328
#
# _framework density 21.100807
#
# number of rings (size 3 to 8) (size 9 to 14) (size 15 to 20)
#    0.000    2.500    0.000    0.750    0.000   12.000 
#    0.000   17.500    0.000    0.000    0.000    0.000 
#    0.000    0.000    0.000    0.000    0.000    0.000 
#
# Total GULP energy -89079.138999 kJ/mol
# GULP energy per Si atom -5567.446187 kJ/mol
# Density = 2.105278 g / cm^3
# Si number density = 21.100807 Si / 1000 Ang^3
#
#
#
# Elastic Constant Matrix: (Units=GPa)
#
#
# Indices 1 2 3 4 5 6 
#
# 1 59.2087 14.5530 43.2334 0.0000 -13.8039 0.0000
# 2 14.5530 18.7163 -0.7441 0.0000 3.9575 0.0000
# 3 43.2334 -0.7441 105.9805 0.0000 20.6300 0.0000
# 4 0.0000 0.0000 0.0000 25.0782 0.0000 2.4318
# 5 -13.8039 3.9575 20.6300 0.0000 44.8011 0.0000
# 6 0.0000 0.0000 0.0000 2.4318 0.0000 23.3863
#
#
#
# Elastic Compliance Matrix: (Units=1/GPa)
#
#
# Indices 1 2 3 4 5 6 
#
# 1 0.074058 -0.069174 -0.039905 0.000000 0.047304 0.000000
# 2 -0.069174 0.119260 0.038727 0.000000 -0.049681 0.000000
# 3 -0.039905 0.038727 0.031906 0.000000 -0.030408 0.000000
# 4 0.000000 0.000000 0.000000 0.040281 0.000000 -0.004189
# 5 0.047304 -0.049681 -0.030408 0.000000 0.055287 0.000000
# 6 0.000000 0.000000 0.000000 -0.004189 0.000000 0.043196
#
#
# Mechanical properties :
#
#
# Convention : Reuss Voigt Hill
#
# Bulk Modulus (GPa) = 11.83148 33.11001 22.47075
# Shear Modulus (GPa) = 9.38323 27.11068 18.24695
#
# Velocity S-wave (km/s) = 2.11104 3.58832 2.94386
# Velocity P-wave (km/s) = 3.40019 5.73529 4.71459
#
# Compressibility (1/GPa) = 0.08452027
#
# Stress axis : x y z
#
# Youngs Moduli (GPa) = 13.50284 8.38502 31.34250
#
# Poissons Ratio (x) = 0.58002 1.25073
# Poissons Ratio (y) = 0.93404 -1.21379
# Poissons Ratio (z) = 0.53883 -0.32472
#
# Static dielectric constant tensor:
#      x y z
#    x 1.869420 0.000000 0.026480 
#    y 0.000000 1.812390 0.000000 
#    z 0.026480 0.000000 1.766240 
# 
# From -- ./inp_files/83935.got.cif
#   From: 2010.05.17/outbox.cif.g08.bks.cpg/sg15_42_cif.got.tgz:83935.got - 2010.06.03 18:47:42.
