data_PCOD9274576
_publ_section_title
;
Structure prediction by ZEFSAII (Michael W. Deem and Ramdas Pophale) SiO2 
 PCOD9274576
Probable space group: C 2/C
;
_chemical_formula_sum "Si O2"
_cell_formula_units_Z 52
_cell_length_a 8.908513
_cell_length_b 21.857608
_cell_length_c 13.701485
_cell_angle_alpha 90.000000
_cell_angle_beta 108.403747
_cell_angle_gamma 90.000000
_cell_volume 2531.485878
_symmetry_space_group_name_H-M "C 2/C"
_symmetry_group_IT_number 15
_symmetry_cell_setting 'monoclinic'
loop_
_space_group_symop_operation_xyz
x,y,z
-x,y,1/2-z
-x,-y,-z
x,-y,1/2+z
1/2+x,1/2+y,z
1/2-x,1/2+y,1/2-z
1/2-x,1/2-y,-z
1/2+x,1/2-y,1/2+z
loop_
_atom_site_type_symbol
_atom_site_label
_atom_site_fract_x
_atom_site_fract_y
_atom_site_fract_z
Si Si1 0.885772 0.646603 0.815108
Si Si2 0.637235 0.804683 0.509458
Si Si3 0.645566 0.587229 0.400348
Si Si4 0.855109 0.482454 0.399583
Si Si5 0.660713 0.246736 0.226962
Si Si6 0.500000 0.054821 0.250000
Si Si7 0.305564 0.373737 0.816549
O O1 0.830824 0.588124 0.866876
O O2 0.753346 0.689495 0.738892
O O3 0.000000 0.626302 0.750000
O O4 0.985595 0.688299 0.910785
O O5 0.750000 0.750000 0.500000
O O6 0.729806 0.869136 0.520011
O O7 0.611476 0.787571 0.617014
O O8 0.701959 0.517148 0.411843
O O9 0.667425 0.607193 0.291365
O O10 0.468262 0.603092 0.397772
O O11 0.911433 0.514395 0.311172
O O12 0.000000 0.500000 0.500000
O O13 0.500000 0.257736 0.250000
O O14 0.774764 0.198499 0.306198
O O15 0.357212 0.096353 0.178492
#
# Coordination Sequence:
#
# PCOD9274576 Si02
#       7
#     8   8   8   8   8   4   8
#     4  12  24  42  66  93 135 183 221 274 345 404
#     4  11  21  39  69  96 131 177 224 274 336 419
#     4   9  19  35  61  93 120 167 217 258 313 401
#     4  11  22  40  62  90 129 171 223 265 327 400
#     4  11  24  41  64 102 135 168 222 288 346 399
#     4  10  20  38  64  86 122 170 212 268 324 394
#     4   9  18  36  62  90 121 162 213 267 326 387
#
# _framework density 20.541295000000002
#
# number of rings (size 3 to 8) (size 9 to 14) (size 15 to 20)
#    0.000    1.538    4.615    0.923    2.154    0.615 
#    5.538    2.308    0.000    0.000    0.000    0.000 
#    0.000    0.000    0.000    0.000    0.000    0.000 
#
# Total GULP energy -144988.523780 kJ/mol
# GULP energy per Si atom -5576.481684 kJ/mol
# Density = 2.049454 g / cm^3
# Si number density = 20.541295 Si / 1000 Ang^3
#
#
#
# Elastic Constant Matrix: (Units=GPa)
#
#
# Indices 1 2 3 4 5 6 
#
# 1 95.9258 27.0978 1.5340 0.0000 2.7217 0.0000
# 2 27.0978 112.4796 7.3623 0.0000 -0.8254 0.0000
# 3 1.5340 7.3623 46.4622 0.0000 11.3553 0.0000
# 4 0.0000 0.0000 0.0000 24.0918 0.0000 -5.1948
# 5 2.7217 -0.8254 11.3553 0.0000 15.1344 0.0000
# 6 0.0000 0.0000 0.0000 -5.1948 0.0000 24.5366
#
#
#
# Elastic Compliance Matrix: (Units=1/GPa)
#
#
# Indices 1 2 3 4 5 6 
#
# 1 0.011277 -0.002785 0.000737 0.000000 -0.002733 0.000000
# 2 -0.002785 0.009717 -0.002081 0.000000 0.002592 0.000000
# 3 0.000737 -0.002081 0.026803 0.000000 -0.020357 0.000000
# 4 0.000000 0.000000 0.000000 0.043494 0.000000 0.009208
# 5 -0.002733 0.002592 -0.020357 0.000000 0.081981 0.000000
# 6 0.000000 0.000000 0.000000 0.009208 0.000000 0.042705
#
#
# Mechanical properties :
#
#
# Convention : Reuss Voigt Hill
#
# Bulk Modulus (GPa) = 25.29189 36.31731 30.80460
# Shear Modulus (GPa) = 21.06012 27.34411 24.20212
#
# Velocity S-wave (km/s) = 3.20544 3.65249 3.43624
# Velocity P-wave (km/s) = 5.10286 5.95870 5.54731
#
# Compressibility (1/GPa) = 0.03953836
#
# Stress axis : x y z
#
# Youngs Moduli (GPa) = 88.67418 102.91534 37.30859
#
# Poissons Ratio (x) = 0.28663 -0.02749
# Poissons Ratio (y) = 0.24697 0.07765
# Poissons Ratio (z) = -0.06534 0.21420
#
# Static dielectric constant tensor:
#      x y z
#    x 1.741010 0.000000 0.065540 
#    y 0.000000 1.764750 0.000000 
#    z 0.065540 0.000000 2.139780 
# 
# From -- ./inp_files/136145.got.cif
#   From: 2010.05.17/outbox.cif.g08.bks.cpg/sg15_69_cif.got.tgz:136145.got - 2010.06.03 18:47:42.
