data_PCOD9274270
_publ_section_title
;
Structure prediction by ZEFSAII (Michael W. Deem and Ramdas Pophale) SiO2 
 PCOD9274270
Probable space group: C 2/C
;
_chemical_formula_sum "Si O2"
_cell_formula_units_Z 44
_cell_length_a 7.641035
_cell_length_b 11.003598
_cell_length_c 23.291171
_cell_angle_alpha 90.000000
_cell_angle_beta 112.303286
_cell_angle_gamma 90.000000
_cell_volume 1811.791419
_symmetry_space_group_name_H-M "C 2/C"
_symmetry_group_IT_number 15
_symmetry_cell_setting 'monoclinic'
loop_
_space_group_symop_operation_xyz
x,y,z
-x,y,1/2-z
-x,-y,-z
x,-y,1/2+z
1/2+x,1/2+y,z
1/2-x,1/2+y,1/2-z
1/2-x,1/2-y,-z
1/2+x,1/2-y,1/2+z
loop_
_atom_site_type_symbol
_atom_site_label
_atom_site_fract_x
_atom_site_fract_y
_atom_site_fract_z
Si Si1 0.380021 0.620035 0.998247
Si Si2 0.307099 0.499881 0.105922
Si Si3 0.892148 0.836847 0.794141
Si Si4 0.907348 0.520029 0.617875
Si Si5 0.500000 0.964649 0.750000
Si Si6 0.204658 0.242016 0.093710
O O1 0.290173 0.584256 0.048207
O O2 0.525915 0.728403 0.028638
O O3 0.500000 0.500000 0.000000
O O4 0.224704 0.618622 0.929493
O O5 0.477146 0.552835 0.165080
O O6 0.332735 0.357277 0.094302
O O7 0.107382 0.496401 0.112592
O O8 0.680317 0.883666 0.753440
O O9 0.000000 0.795268 0.750000
O O10 0.861363 0.753556 0.847266
O O11 0.932091 0.542109 0.687938
O O12 0.810113 0.386727 0.602435
#
# Coordination Sequence:
#
# PCOD9274270 Si02
#       6
#     8   8   8   8   4   8
#     4   9  20  39  62  90 130 166 208 267 321 371
#     4  11  21  40  66  93 123 167 216 262 321 379
#     4  10  20  42  63  88 130 167 211 268 315 382
#     4  10  20  38  62  89 125 169 204 261 315 370
#     4  10  20  40  64  86 130 166 206 260 316 370
#     4   9  22  40  62  93 127 163 211 267 319 373
#
# _framework density 24.285354999999999
#
# number of rings (size 3 to 8) (size 9 to 14) (size 15 to 20)
#    0.000    2.182    1.818    1.636    0.000    3.636 
#    8.182   14.545    0.000    0.000    0.000    0.000 
#    0.000    0.000    0.000    0.000    0.000    0.000 
#
# Total GULP energy -123007.354406 kJ/mol
# GULP energy per Si atom -5591.243382 kJ/mol
# Density = 2.423008 g / cm^3
# Si number density = 24.285355 Si / 1000 Ang^3
#
#
#
# Elastic Constant Matrix: (Units=GPa)
#
#
# Indices 1 2 3 4 5 6 
#
# 1 113.0644 6.3206 24.8366 0.0000 10.8915 0.0000
# 2 6.3206 81.4129 12.9233 0.0000 22.8188 0.0000
# 3 24.8366 12.9233 123.4584 0.0000 33.4468 0.0000
# 4 0.0000 0.0000 0.0000 19.1531 0.0000 1.9863
# 5 10.8915 22.8188 33.4468 0.0000 36.5036 0.0000
# 6 0.0000 0.0000 0.0000 1.9863 0.0000 38.0112
#
#
#
# Elastic Compliance Matrix: (Units=1/GPa)
#
#
# Indices 1 2 3 4 5 6 
#
# 1 0.009309 -0.000111 -0.001500 0.000000 -0.001334 0.000000
# 2 -0.000111 0.015048 0.001312 0.000000 -0.010576 0.000000
# 3 -0.001500 0.001312 0.011127 0.000000 -0.010568 0.000000
# 4 0.000000 0.000000 0.000000 0.052495 0.000000 -0.002743
# 5 -0.001334 -0.010576 -0.010568 0.000000 0.044087 0.000000
# 6 0.000000 0.000000 0.000000 -0.002743 0.000000 0.026451
#
#
# Mechanical properties :
#
#
# Convention : Reuss Voigt Hill
#
# Bulk Modulus (GPa) = 28.66359 45.12185 36.89272
# Shear Modulus (GPa) = 29.28383 36.99060 33.13721
#
# Velocity S-wave (km/s) = 3.47626 3.90701 3.69791
# Velocity P-wave (km/s) = 5.28592 6.24285 5.78421
#
# Compressibility (1/GPa) = 0.03488746
#
# Stress axis : x y z
#
# Youngs Moduli (GPa) = 107.42699 66.45587 89.86849
#
# Poissons Ratio (x) = 0.00736 0.13477
# Poissons Ratio (y) = 0.01189 -0.11793
# Poissons Ratio (z) = 0.16110 -0.08721
#
# Static dielectric constant tensor:
#      x y z
#    x 1.940900 0.000000 -0.003750 
#    y 0.000000 1.981790 0.000000 
#    z -0.003750 0.000000 1.942510 
# 
# From -- ./inp_files/263306.got.cif
#   From: 2010.05.17/outbox.cif.g08.bks.cpg/sg15_132_cif.got.tgz:263306.got - 2010.06.03 18:47:42.
