data_PCOD9274763
_publ_section_title
;
Structure prediction by ZEFSAII (Michael W. Deem and Ramdas Pophale) SiO2 
 PCOD9274763
Probable space group: C 2/C
;
_chemical_formula_sum "Si O2"
_cell_formula_units_Z 48
_cell_length_a 17.992036
_cell_length_b 8.294175
_cell_length_c 21.490423
_cell_angle_alpha 90.000000
_cell_angle_beta 48.786434
_cell_angle_gamma 90.000000
_cell_volume 2412.491662
_symmetry_space_group_name_H-M "C 2/C"
_symmetry_group_IT_number 15
_symmetry_cell_setting 'monoclinic'
loop_
_space_group_symop_operation_xyz
x,y,z
-x,y,1/2-z
-x,-y,-z
x,-y,1/2+z
1/2+x,1/2+y,z
1/2-x,1/2+y,1/2-z
1/2-x,1/2-y,-z
1/2+x,1/2-y,1/2+z
loop_
_atom_site_type_symbol
_atom_site_label
_atom_site_fract_x
_atom_site_fract_y
_atom_site_fract_z
Si Si1 0.654425 0.975732 0.926026
Si Si2 0.985263 0.583062 0.108166
Si Si3 0.095018 0.477401 0.227610
Si Si4 0.324622 0.697191 0.402797
Si Si5 0.893925 0.875917 0.414741
Si Si6 0.756143 0.205664 0.100321
O O1 0.691310 0.155413 0.889442
O O2 0.588978 0.898178 0.908498
O O3 0.749510 0.877170 0.893689
O O4 0.585506 0.007207 0.024621
O O5 0.938533 0.459212 0.183080
O O6 0.014657 0.755469 0.122643
O O7 0.117583 0.335560 0.166239
O O8 0.192845 0.583691 0.174859
O O9 0.000000 0.565664 0.250000
O O10 0.250000 0.750000 0.500000
O O11 0.398946 0.558451 0.386959
O O12 0.835530 0.881328 0.512538
O O13 0.821100 0.788320 0.405428
#
# Coordination Sequence:
#
# PCOD9274763 Si02
#       6
#     8   8   8   8   8   8
#     4   9  21  40  62  85 116 170 203 246 319 397
#     4  10  20  38  65  86 121 156 212 260 312 374
#     4  12  22  35  59  91 121 153 206 271 305 359
#     4  11  21  37  61  88 125 162 208 254 321 384
#     4   9  17  36  60  82 111 161 199 241 307 383
#     4   9  17  34  61  82 109 155 204 237 303 377
#
# _framework density 19.896442
#
# number of rings (size 3 to 8) (size 9 to 14) (size 15 to 20)
#    0.000    2.000    3.333    2.000    0.000    1.333 
#    6.000    0.833    3.667    0.000    0.000    0.000 
#    0.000    0.000    0.000    0.000    0.000    0.000 
#
# Total GULP energy -133709.718012 kJ/mol
# GULP energy per Si atom -5571.238250 kJ/mol
# Density = 1.985116 g / cm^3
# Si number density = 19.896442 Si / 1000 Ang^3
#
#
#
# Elastic Constant Matrix: (Units=GPa)
#
#
# Indices 1 2 3 4 5 6 
#
# 1 61.6606 30.0274 21.2359 0.0000 -5.8009 0.0001
# 2 30.0274 89.6595 57.4688 0.0000 -4.5309 0.0002
# 3 21.2359 57.4688 84.5650 0.0000 0.8074 0.0000
# 4 0.0000 0.0000 0.0000 21.5886 0.0000 -0.8068
# 5 -5.8009 -4.5309 0.8074 0.0000 17.2052 0.0000
# 6 0.0001 0.0002 0.0000 -0.8068 0.0000 31.3275
#
#
#
# Elastic Compliance Matrix: (Units=1/GPa)
#
#
# Indices 1 2 3 4 5 6 
#
# 1 0.019865 -0.005592 -0.001239 0.000000 0.005283 0.000000
# 2 -0.005592 0.021939 -0.013548 0.000000 0.004528 0.000000
# 3 -0.001239 -0.013548 0.021391 0.000000 -0.004989 0.000000
# 4 0.000000 0.000000 0.000000 0.046365 0.000000 0.001194
# 5 0.005283 0.004528 -0.004989 0.000000 0.061330 0.000000
# 6 0.000000 0.000000 0.000000 0.001194 0.000000 0.031952
#
#
# Mechanical properties :
#
#
# Convention : Reuss Voigt Hill
#
# Bulk Modulus (GPa) = 44.56942 50.37217 47.47079
# Shear Modulus (GPa) = 19.91416 22.50112 21.20764
#
# Velocity S-wave (km/s) = 3.16712 3.36655 3.26836
# Velocity P-wave (km/s) = 5.98527 6.36268 6.17686
#
# Compressibility (1/GPa) = 0.02243691
#
# Stress axis : x y z
#
# Youngs Moduli (GPa) = 50.34092 45.58138 46.74851
#
# Poissons Ratio (x) = 0.25488 0.05791
# Poissons Ratio (y) = 0.28149 0.63336
# Poissons Ratio (z) = 0.06236 0.61755
#
# Static dielectric constant tensor:
#      x y z
#    x 1.696850 0.000000 -0.005890 
#    y 0.000000 1.746770 0.000000 
#    z -0.005890 0.000000 1.740470 
# 
# From -- ./inp_files/247288.got.cif
#   From: 2010.05.17/outbox.cif.g08.bks.cpg/sg15_124_cif.got.tgz:247288.got - 2010.06.03 18:47:42.
