data_PCOD9274329
_publ_section_title
;
Structure prediction by ZEFSAII (Michael W. Deem and Ramdas Pophale) SiO2 
 PCOD9274329
Probable space group: C 2/C
;
_chemical_formula_sum "Si O2"
_cell_formula_units_Z 52
_cell_length_a 13.152033
_cell_length_b 14.190380
_cell_length_c 14.822477
_cell_angle_alpha 90.000000
_cell_angle_beta 120.355251
_cell_angle_gamma 90.000000
_cell_volume 2387.110436
_symmetry_space_group_name_H-M "C 2/C"
_symmetry_group_IT_number 15
_symmetry_cell_setting 'monoclinic'
loop_
_space_group_symop_operation_xyz
x,y,z
-x,y,1/2-z
-x,-y,-z
x,-y,1/2+z
1/2+x,1/2+y,z
1/2-x,1/2+y,1/2-z
1/2-x,1/2-y,-z
1/2+x,1/2-y,1/2+z
loop_
_atom_site_type_symbol
_atom_site_label
_atom_site_fract_x
_atom_site_fract_y
_atom_site_fract_z
Si Si1 0.792350 0.270394 0.132946
Si Si2 0.588222 0.124646 0.034759
Si Si3 0.851668 0.365300 0.331663
Si Si4 0.110748 0.447040 0.745931
Si Si5 0.375476 0.468217 0.188578
Si Si6 0.500000 0.649488 0.250000
Si Si7 0.265969 0.023365 0.540323
O O1 0.682578 0.206014 0.059639
O O2 0.814495 0.279791 0.250784
O O3 0.914045 0.219512 0.156773
O O4 0.761379 0.374030 0.083637
O O5 0.613486 0.099180 0.149586
O O6 0.454641 0.151475 0.950297
O O7 0.629153 0.038207 0.987427
O O8 0.906206 0.442746 0.287592
O O9 0.733143 0.412845 0.317666
O O10 0.211152 0.451267 0.867744
O O11 0.000000 0.408506 0.750000
O O12 0.500000 0.414972 0.250000
O O13 0.407389 0.570727 0.247883
O O14 0.342156 0.494029 0.070947
#
# Coordination Sequence:
#
# PCOD9274329 Si02
#       7
#     8   8   8   8   8   4   8
#     4  11  24  36  63 103 133 169 222 280 349 392
#     4  12  21  39  64  95 139 165 222 285 335 383
#     4  11  22  39  63  93 132 173 216 278 332 395
#     4  11  21  35  61  98 124 168 221 264 328 400
#     4  10  22  41  65  88 130 181 219 272 336 393
#     4  10  20  38  62  92 134 166 214 270 336 386
#     4  11  21  38  64  97 130 171 221 283 333 389
#
# _framework density 21.783659
#
# number of rings (size 3 to 8) (size 9 to 14) (size 15 to 20)
#    0.462    0.615    4.615    2.769    4.308    0.000 
#    0.000    5.385    0.000    2.769    0.000    0.000 
#    0.000    0.000    0.000    0.000    0.000    0.000 
#
# Total GULP energy -144778.231478 kJ/mol
# GULP energy per Si atom -5568.393518 kJ/mol
# Density = 2.173408 g / cm^3
# Si number density = 21.783659 Si / 1000 Ang^3
#
#
#
# Elastic Constant Matrix: (Units=GPa)
#
#
# Indices 1 2 3 4 5 6 
#
# 1 95.1833 19.7757 73.1042 0.0000 28.4058 0.0000
# 2 19.7757 31.9072 40.5055 0.0000 11.2846 0.0000
# 3 73.1042 40.5055 198.8061 0.0000 23.8460 0.0000
# 4 0.0000 0.0000 0.0000 33.0344 0.0000 -0.2635
# 5 28.4058 11.2846 23.8460 0.0000 46.7146 0.0000
# 6 0.0000 0.0000 0.0000 -0.2635 0.0000 18.1810
#
#
#
# Elastic Compliance Matrix: (Units=1/GPa)
#
#
# Indices 1 2 3 4 5 6 
#
# 1 0.016854 -0.001487 -0.005016 0.000000 -0.007329 0.000000
# 2 -0.001487 0.044159 -0.007754 0.000000 -0.005805 0.000000
# 3 -0.005016 -0.007754 0.008377 0.000000 0.000647 0.000000
# 4 0.000000 0.000000 0.000000 0.030275 0.000000 0.000439
# 5 -0.007329 -0.005805 0.000647 0.000000 0.026935 0.000000
# 6 0.000000 0.000000 0.000000 0.000439 0.000000 0.055009
#
#
# Mechanical properties :
#
#
# Convention : Reuss Voigt Hill
#
# Bulk Modulus (GPa) = 24.46359 65.85193 45.15776
# Shear Modulus (GPa) = 22.34654 32.42005 27.38330
#
# Velocity S-wave (km/s) = 3.20635 3.86200 3.54935
# Velocity P-wave (km/s) = 4.99622 7.08395 6.12962
#
# Compressibility (1/GPa) = 0.04087707
#
# Stress axis : x y z
#
# Youngs Moduli (GPa) = 59.33170 22.64531 119.38027
#
# Poissons Ratio (x) = 0.03367 0.59876
# Poissons Ratio (y) = 0.08822 0.92569
# Poissons Ratio (z) = 0.29758 0.17560
#
# Static dielectric constant tensor:
#      x y z
#    x 1.866780 0.000000 -0.008120 
#    y 0.000000 1.822470 0.000000 
#    z -0.008120 0.000000 1.878820 
# 
# From -- ./inp_files/154086.got.cif
#   From: 2010.05.17/outbox.cif.g08.bks.cpg/sg15_78_cif.got.tgz:154086.got - 2010.06.03 18:47:42.
