data_PCOD9274450
_publ_section_title
;
Structure prediction by ZEFSAII (Michael W. Deem and Ramdas Pophale) SiO2 
 PCOD9274450
Probable space group: C 2/C
;
_chemical_formula_sum "Si O2"
_cell_formula_units_Z 52
_cell_length_a 9.175107
_cell_length_b 27.094174
_cell_length_c 14.260526
_cell_angle_alpha 90.000000
_cell_angle_beta 135.290870
_cell_angle_gamma 90.000000
_cell_volume 2493.972228
_symmetry_space_group_name_H-M "C 2/C"
_symmetry_group_IT_number 15
_symmetry_cell_setting 'monoclinic'
loop_
_space_group_symop_operation_xyz
x,y,z
-x,y,1/2-z
-x,-y,-z
x,-y,1/2+z
1/2+x,1/2+y,z
1/2-x,1/2+y,1/2-z
1/2-x,1/2-y,-z
1/2+x,1/2-y,1/2+z
loop_
_atom_site_type_symbol
_atom_site_label
_atom_site_fract_x
_atom_site_fract_y
_atom_site_fract_z
Si Si1 0.692420 0.475393 0.407651
Si Si2 0.259314 0.170612 0.187439
Si Si3 0.000000 0.864155 0.750000
Si Si4 0.198817 0.577111 0.975210
Si Si5 0.735239 0.728166 0.889486
Si Si6 0.512829 0.595147 0.558232
Si Si7 0.803173 0.376814 0.352216
O O1 0.500000 0.488690 0.250000
O O2 0.830319 0.522301 0.496174
O O3 0.601250 0.454145 0.461904
O O4 0.792431 0.425775 0.411073
O O5 0.500000 0.168691 0.250000
O O6 0.184395 0.226794 0.136737
O O7 0.173898 0.159967 0.255885
O O8 0.133649 0.132292 0.065119
O O9 0.861099 0.896945 0.618444
O O10 0.301579 0.576935 0.921320
O O11 0.001640 0.611916 0.881036
O O12 0.500000 0.721177 0.750000
O O13 0.831517 0.674248 0.919900
O O14 0.750000 0.750000 0.000000
O O15 0.603995 0.621800 0.692863
#
# Coordination Sequence:
#
# PCOD9274450 Si02
#       7
#     8   8   4   8   8   8   8
#     4  10  20  38  63  90 127 171 217 265 328 394
#     4  10  23  43  70  95 132 176 224 271 338 397
#     4  10  24  42  62 100 130 166 224 284 316 396
#     4  11  22  40  62  89 135 167 213 272 332 387
#     4  11  23  41  69  98 130 174 224 274 334 403
#     4  10  22  42  61  97 130 167 217 270 329 404
#     4  11  23  39  66  94 129 168 219 270 334 395
#
# _framework density 20.850272
#
# number of rings (size 3 to 8) (size 9 to 14) (size 15 to 20)
#    0.000    1.538    0.769    4.615    6.462    0.000 
#    2.769    1.538    0.000    0.000    0.000    0.000 
#    0.000    0.000    0.000    0.000    0.000    0.000 
#
# Total GULP energy -144783.296065 kJ/mol
# GULP energy per Si atom -5568.588310 kJ/mol
# Density = 2.080282 g / cm^3
# Si number density = 20.850272 Si / 1000 Ang^3
#
#
#
# Elastic Constant Matrix: (Units=GPa)
#
#
# Indices 1 2 3 4 5 6 
#
# 1 123.8348 52.3276 19.9313 0.0000 -15.3982 0.0000
# 2 52.3276 146.2472 37.6429 0.0000 -11.2199 0.0000
# 3 19.9313 37.6429 56.0156 0.0000 -7.2025 0.0000
# 4 0.0000 0.0000 0.0000 -329.5279 0.0000 -135.5200
# 5 -15.3982 -11.2199 -7.2025 0.0000 33.3955 0.0000
# 6 0.0000 0.0000 0.0000 -135.5200 0.0000 -20.6106
#
#
#
# Elastic Compliance Matrix: (Units=1/GPa)
#
#
# Indices 1 2 3 4 5 6 
#
# 1 0.009941 -0.003024 -0.001076 0.000000 0.003336 0.000000
# 2 -0.003024 0.009274 -0.005076 0.000000 0.000627 0.000000
# 3 -0.001076 -0.005076 0.021972 0.000000 0.002537 0.000000
# 4 0.000000 0.000000 0.000000 0.001781 0.000000 -0.011709
# 5 0.003336 0.000627 0.002537 0.000000 0.032240 0.000000
# 6 0.000000 0.000000 0.000000 -0.011709 0.000000 0.028472
#
#
# Mechanical properties :
#
#
# Convention : Reuss Voigt Hill
#
# Bulk Modulus (GPa) = 43.79100 60.65570 52.22335
# Shear Modulus (GPa) = 38.56715 -48.93555 -5.18420
#
# Velocity S-wave (km/s) = 4.30550 -4.84984 -1.57854
# Velocity P-wave (km/s) = 6.76496 1.48560 4.66678
#
# Compressibility (1/GPa) = 0.02283574
#
# Stress axis : x y z
#
# Youngs Moduli (GPa) = 100.59258 107.82471 45.51186
#
# Poissons Ratio (x) = 0.32607 0.04898
# Poissons Ratio (y) = 0.30420 0.23101
# Poissons Ratio (z) = 0.10825 0.54730
#
# Static dielectric constant tensor:
#      x y z
#    x 1.841820 0.000000 0.000800 
#    y 0.000000 1.735830 0.000000 
#    z 0.000800 0.000000 1.758870 
# 
# From -- ./inp_files/138780.got.cif
#   From: 2010.05.17/outbox.cif.g08.bks.cpg/sg15_70_cif.got.tgz:138780.got - 2010.06.03 18:47:42.
