data_PCOD9274038
_publ_section_title
;
Structure prediction by ZEFSAII (Michael W. Deem and Ramdas Pophale) SiO2 
 PCOD9274038
Probable space group: C 2/C
;
_chemical_formula_sum "Si O2"
_cell_formula_units_Z 56
_cell_length_a 17.630532
_cell_length_b 9.790554
_cell_length_c 18.922989
_cell_angle_alpha 90.000000
_cell_angle_beta 62.940328
_cell_angle_gamma 90.000000
_cell_volume 2908.791197
_symmetry_space_group_name_H-M "C 2/C"
_symmetry_group_IT_number 15
_symmetry_cell_setting 'monoclinic'
loop_
_space_group_symop_operation_xyz
x,y,z
-x,y,1/2-z
-x,-y,-z
x,-y,1/2+z
1/2+x,1/2+y,z
1/2-x,1/2+y,1/2-z
1/2-x,1/2-y,-z
1/2+x,1/2-y,1/2+z
loop_
_atom_site_type_symbol
_atom_site_label
_atom_site_fract_x
_atom_site_fract_y
_atom_site_fract_z
Si Si1 0.920085 0.853705 0.733531
Si Si2 0.826519 0.507840 0.589489
Si Si3 0.339124 0.004101 0.932159
Si Si4 0.407182 0.140806 0.267676
Si Si5 0.033353 0.589032 0.867089
Si Si6 0.686852 0.391305 0.260839
Si Si7 0.744029 0.781266 0.125436
O O1 0.945296 0.742692 0.664236
O O2 0.845197 0.786350 0.812419
O O3 0.000000 0.880895 0.750000
O O4 0.882626 0.989733 0.715076
O O5 0.811218 0.563926 0.517260
O O6 0.918234 0.544403 0.582626
O O7 0.760583 0.567671 0.674486
O O8 0.808605 0.345358 0.589836
O O9 0.432417 0.066907 0.909703
O O10 0.275130 0.121598 0.932594
O O11 0.356498 0.904485 0.858907
O O12 0.500000 0.198404 0.250000
O O13 0.354028 0.248618 0.245640
O O14 0.428853 0.008399 0.211027
O O15 0.724298 0.373147 0.322734
#
# Coordination Sequence:
#
# PCOD9274038 Si02
#       7
#     8   8   8   8   8   8   8
#     4  11  20  37  61  87 111 153 207 239 281 349
#     4  11  23  36  58  91 120 152 197 247 304 345
#     4  11  22  36  61  88 119 157 195 251 294 349
#     4  10  20  38  61  85 115 154 199 241 289 348
#     4  11  19  39  61  84 112 157 205 237 281 359
#     4  11  23  36  61  87 119 155 197 246 297 349
#     4  11  21  38  60  86 119 155 195 247 290 352
#
# _framework density 19.251982999999999
#
# number of rings (size 3 to 8) (size 9 to 14) (size 15 to 20)
#    0.000    1.143    5.714    1.714    2.000    0.571 
#    0.000    0.000    0.000    0.857    0.000    0.000 
#    0.000    0.000    0.000    0.000    0.000    0.000 
#
# Total GULP energy -156457.767333 kJ/mol
# GULP energy per Si atom -5587.777405 kJ/mol
# Density = 1.920816 g / cm^3
# Si number density = 19.251983 Si / 1000 Ang^3
#
#
#
# Elastic Constant Matrix: (Units=GPa)
#
#
# Indices 1 2 3 4 5 6 
#
# 1 118.8374 44.4940 26.3075 0.0000 24.6038 0.0000
# 2 44.4940 64.5929 19.9161 0.0000 4.0808 0.0000
# 3 26.3075 19.9161 74.1915 0.0000 25.3102 0.0000
# 4 0.0000 0.0000 0.0000 20.8807 0.0000 10.2526
# 5 24.6038 4.0808 25.3102 0.0000 30.0466 0.0000
# 6 0.0000 0.0000 0.0000 10.2526 0.0000 26.6904
#
#
#
# Elastic Compliance Matrix: (Units=1/GPa)
#
#
# Indices 1 2 3 4 5 6 
#
# 1 0.013941 -0.009328 0.001435 0.000000 -0.011358 0.000000
# 2 -0.009328 0.023219 -0.006252 0.000000 0.009751 0.000000
# 3 0.001435 -0.006252 0.020711 0.000000 -0.017772 0.000000
# 4 0.000000 0.000000 0.000000 0.059024 0.000000 -0.022673
# 5 -0.011358 0.009751 -0.017772 0.000000 0.056229 0.000000
# 6 0.000000 0.000000 0.000000 -0.022673 0.000000 0.046176
#
#
# Mechanical properties :
#
#
# Convention : Reuss Voigt Hill
#
# Bulk Modulus (GPa) = 33.80474 48.78411 41.29442
# Shear Modulus (GPa) = 19.42132 26.65051 23.03591
#
# Velocity S-wave (km/s) = 3.17960 3.72465 3.46287
# Velocity P-wave (km/s) = 5.57468 6.62512 6.12247
#
# Compressibility (1/GPa) = 0.02958165
#
# Stress axis : x y z
#
# Youngs Moduli (GPa) = 71.72951 43.06847 48.28381
#
# Poissons Ratio (x) = 0.40176 -0.06931
# Poissons Ratio (y) = 0.66911 0.30186
# Poissons Ratio (z) = -0.10297 0.26926
#
# Static dielectric constant tensor:
#      x y z
#    x 1.679010 0.000000 -0.014500 
#    y 0.000000 1.656250 0.000000 
#    z -0.014500 0.000000 1.682820 
# 
# From -- ./inp_files/209513.got.cif
#   From: 2010.05.17/outbox.cif.g08.bks.cpg/sg15_105_cif.got.tgz:209513.got - 2010.06.03 18:47:42.
