data_PCOD9274788
_publ_section_title
;
Structure prediction by ZEFSAII (Michael W. Deem and Ramdas Pophale) SiO2 
 PCOD9274788
Probable space group: C 2/C
;
_chemical_formula_sum "Si O2"
_cell_formula_units_Z 40
_cell_length_a 13.404760
_cell_length_b 24.352786
_cell_length_c 9.078829
_cell_angle_alpha 90.000000
_cell_angle_beta 136.087153
_cell_angle_gamma 90.000000
_cell_volume 2055.529351
_symmetry_space_group_name_H-M "C 2/C"
_symmetry_group_IT_number 15
_symmetry_cell_setting 'monoclinic'
loop_
_space_group_symop_operation_xyz
x,y,z
-x,y,1/2-z
-x,-y,-z
x,-y,1/2+z
1/2+x,1/2+y,z
1/2-x,1/2+y,1/2-z
1/2-x,1/2-y,-z
1/2+x,1/2-y,1/2+z
loop_
_atom_site_type_symbol
_atom_site_label
_atom_site_fract_x
_atom_site_fract_y
_atom_site_fract_z
Si Si1 0.878601 0.229126 0.495581
Si Si2 0.749652 0.343036 0.391087
Si Si3 0.160325 0.459722 0.960427
Si Si4 0.975986 0.140214 0.398123
Si Si5 0.846878 0.030415 0.369084
O O1 0.807438 0.286901 0.381876
O O2 0.790667 0.181874 0.490897
O O3 0.924507 0.199860 0.395621
O O4 0.000000 0.241214 0.750000
O O5 0.850674 0.395291 0.511252
O O6 0.615637 0.365462 0.153040
O O7 0.286169 0.464140 0.969935
O O8 0.000000 0.478882 0.750000
O O9 0.223580 0.495984 0.157999
O O10 0.869493 0.091043 0.327994
O O11 0.000000 0.137299 0.250000
O O12 0.000000 0.000000 0.500000
#
# Coordination Sequence:
#
# PCOD9274788 Si02
#       5
#     8   8   8   8   8
#     4   9  19  37  63  92 125 163 220 266 318 382
#     4  10  20  38  65  91 122 169 217 268 318 383
#     4  12  25  42  66  97 133 168 217 275 330 380
#     4  11  22  38  63  95 128 169 222 263 316 393
#     4  12  24  42  67  95 130 176 220 265 318 397
#
# _framework density 19.459709
#
# number of rings (size 3 to 8) (size 9 to 14) (size 15 to 20)
#    0.000    1.200    4.000    3.000    0.000    0.800 
#    0.000    0.000    0.000    0.000    0.000    0.000 
#    0.000    0.000    0.000    0.000    0.000    0.000 
#
# Total GULP energy -111422.705019 kJ/mol
# GULP energy per Si atom -5571.135251 kJ/mol
# Density = 1.941542 g / cm^3
# Si number density = 19.459709 Si / 1000 Ang^3
#
#
#
# Elastic Constant Matrix: (Units=GPa)
#
#
# Indices 1 2 3 4 5 6 
#
# 1 46.3289 4.9693 -9.3733 0.0000 -13.9829 0.0000
# 2 4.9693 92.1086 37.3563 0.0000 1.1662 0.0000
# 3 -9.3733 37.3563 46.5487 0.0000 10.6327 0.0000
# 4 0.0000 0.0000 0.0000 15.4243 0.0000 7.3899
# 5 -13.9829 1.1662 10.6327 0.0000 37.7673 0.0000
# 6 0.0000 0.0000 0.0000 7.3899 0.0000 23.9337
#
#
#
# Elastic Compliance Matrix: (Units=1/GPa)
#
#
# Indices 1 2 3 4 5 6 
#
# 1 0.025763 -0.004262 0.006839 0.000000 0.007745 0.000000
# 2 -0.004262 0.017208 -0.015161 0.000000 0.002159 0.000000
# 3 0.006839 -0.015161 0.036702 0.000000 -0.007333 0.000000
# 4 0.000000 0.000000 0.000000 0.076089 0.000000 -0.023494
# 5 0.007745 0.002159 -0.007333 0.000000 0.031343 0.000000
# 6 0.000000 0.000000 0.000000 -0.023494 0.000000 0.049036
#
#
# Mechanical properties :
#
#
# Convention : Reuss Voigt Hill
#
# Bulk Modulus (GPa) = 18.34693 27.87677 23.11185
# Shear Modulus (GPa) = 17.89047 25.56065 21.72556
#
# Velocity S-wave (km/s) = 3.03538 3.62818 3.34494
# Velocity P-wave (km/s) = 4.66191 5.64872 5.17887
#
# Compressibility (1/GPa) = 0.05450503
#
# Stress axis : x y z
#
# Youngs Moduli (GPa) = 38.81542 58.11152 27.24629
#
# Poissons Ratio (x) = 0.24764 -0.18633
# Poissons Ratio (y) = 0.16541 0.41309
# Poissons Ratio (z) = -0.26545 0.88105
#
# Static dielectric constant tensor:
#      x y z
#    x 1.742440 0.000000 0.056420 
#    y 0.000000 1.670870 0.000000 
#    z 0.056420 0.000000 1.688400 
# 
# From -- ./inp_files/42416.got.cif
#   From: 2010.05.17/outbox.cif.g08.bks.cpg/sg15_22_cif.got.tgz:42416.got - 2010.06.03 18:47:42.
