data_PCOD9274058
_publ_section_title
;
Structure prediction by ZEFSAII (Michael W. Deem and Ramdas Pophale) SiO2 
 PCOD9274058
Probable space group: C 2/C
;
_chemical_formula_sum "Si O2"
_cell_formula_units_Z 44
_cell_length_a 19.180141
_cell_length_b 18.838062
_cell_length_c 8.406881
_cell_angle_alpha 90.000000
_cell_angle_beta 137.339351
_cell_angle_gamma 90.000000
_cell_volume 2058.407783
_symmetry_space_group_name_H-M "C 2/C"
_symmetry_group_IT_number 15
_symmetry_cell_setting 'monoclinic'
loop_
_space_group_symop_operation_xyz
x,y,z
-x,y,1/2-z
-x,-y,-z
x,-y,1/2+z
1/2+x,1/2+y,z
1/2-x,1/2+y,1/2-z
1/2-x,1/2-y,-z
1/2+x,1/2-y,1/2+z
loop_
_atom_site_type_symbol
_atom_site_label
_atom_site_fract_x
_atom_site_fract_y
_atom_site_fract_z
Si Si1 0.738050 0.642878 0.839293
Si Si2 0.064462 0.373999 0.021474
Si Si3 0.926556 0.792900 0.974836
Si Si4 0.195185 0.699460 0.210678
Si Si5 0.000000 0.619611 0.750000
Si Si6 0.472019 0.575505 0.021531
O O1 0.680771 0.716013 0.695428
O O2 0.647851 0.588212 0.716970
O O3 0.817833 0.617290 0.839436
O O4 0.798144 0.665859 0.100888
O O5 0.058131 0.289013 0.051716
O O6 0.000000 0.387627 0.750000
O O7 0.028408 0.413703 0.122581
O O8 0.000000 0.798246 0.250000
O O9 0.808150 0.806352 0.822758
O O10 0.964215 0.856577 0.930443
O O11 0.103731 0.662747 0.964162
O O12 0.500000 0.571172 0.250000
O O13 0.500000 0.500000 0.000000
#
# Coordination Sequence:
#
# PCOD9274058 Si02
#       6
#     8   8   8   8   4   8
#     4  10  21  40  60  90 134 176 217 274 345 395
#     4  10  21  36  58  97 132 171 207 273 339 397
#     4  10  20  38  61  86 130 169 219 269 333 397
#     4  10  21  35  63  96 130 176 213 277 344 402
#     4  12  22  32  58  92 134 166 214 252 340 410
#     4  12  27  42  63  93 132 183 227 271 328 403
#
# _framework density 21.375745999999999
#
# number of rings (size 3 to 8) (size 9 to 14) (size 15 to 20)
#    0.000    1.455    3.636    1.636    7.636    1.455 
#    0.000    0.000    0.000    0.000    2.364    3.818 
#    0.000    0.000    0.000    0.000    0.000    0.000 
#
# Total GULP energy -122826.647602 kJ/mol
# GULP energy per Si atom -5583.029436 kJ/mol
# Density = 2.132709 g / cm^3
# Si number density = 21.375746 Si / 1000 Ang^3
#
#
#
# Elastic Constant Matrix: (Units=GPa)
#
#
# Indices 1 2 3 4 5 6 
#
# 1 131.3491 39.2955 25.7103 0.0000 -1.8875 0.0000
# 2 39.2955 45.7883 12.2060 0.0000 6.8507 0.0000
# 3 25.7103 12.2060 49.7087 0.0000 15.2334 0.0000
# 4 0.0000 0.0000 0.0000 39.9715 0.0000 -2.9317
# 5 -1.8875 6.8507 15.2334 0.0000 43.5376 0.0000
# 6 0.0000 0.0000 0.0000 -2.9317 0.0000 30.2539
#
#
#
# Elastic Compliance Matrix: (Units=1/GPa)
#
#
# Indices 1 2 3 4 5 6 
#
# 1 0.011261 -0.008938 -0.004716 0.000000 0.003545 0.000000
# 2 -0.008938 0.030599 -0.001452 0.000000 -0.004694 0.000000
# 3 -0.004716 -0.001452 0.025657 0.000000 -0.008953 0.000000
# 4 0.000000 0.000000 0.000000 0.025197 0.000000 0.002442
# 5 0.003545 -0.004694 -0.008953 0.000000 0.026994 0.000000
# 6 0.000000 0.000000 0.000000 0.002442 0.000000 0.033290
#
#
# Mechanical properties :
#
#
# Convention : Reuss Voigt Hill
#
# Bulk Modulus (GPa) = 26.80603 42.36328 34.58465
# Shear Modulus (GPa) = 25.55643 32.72822 29.14232
#
# Velocity S-wave (km/s) = 3.46147 3.91716 3.69634
# Velocity P-wave (km/s) = 5.34259 6.34983 5.86786
#
# Compressibility (1/GPa) = 0.03730505
#
# Stress axis : x y z
#
# Youngs Moduli (GPa) = 88.80036 32.68045 38.97590
#
# Poissons Ratio (x) = 0.29208 0.18382
# Poissons Ratio (y) = 0.79365 0.05661
# Poissons Ratio (z) = 0.41880 0.04747
#
# Static dielectric constant tensor:
#      x y z
#    x 1.825890 0.000000 -0.002050 
#    y 0.000000 1.693740 0.000000 
#    z -0.002050 0.000000 1.819840 
# 
# From -- ./inp_files/49896.got.cif
#   From: 2010.05.17/outbox.cif.g08.bks.cpg/sg15_25_cif.got.tgz:49896.got - 2010.06.03 18:47:42.
