data_PCOD9274477
_publ_section_title
;
Structure prediction by ZEFSAII (Michael W. Deem and Ramdas Pophale) SiO2 
 PCOD9274477
Probable space group: C 2/C
;
_chemical_formula_sum "Si O2"
_cell_formula_units_Z 20
_cell_length_a 11.374099
_cell_length_b 13.518823
_cell_length_c 12.469577
_cell_angle_alpha 90.000000
_cell_angle_beta 22.951869
_cell_angle_gamma 90.000000
_cell_volume 747.696136
_symmetry_space_group_name_H-M "C 2/C"
_symmetry_group_IT_number 15
_symmetry_cell_setting 'monoclinic'
loop_
_space_group_symop_operation_xyz
x,y,z
-x,y,1/2-z
-x,-y,-z
x,-y,1/2+z
1/2+x,1/2+y,z
1/2-x,1/2+y,1/2-z
1/2-x,1/2-y,-z
1/2+x,1/2-y,1/2+z
loop_
_atom_site_type_symbol
_atom_site_label
_atom_site_fract_x
_atom_site_fract_y
_atom_site_fract_z
Si Si1 0.250000 0.250000 0.000000
Si Si2 0.141701 0.100601 0.743104
Si Si3 0.664405 0.378240 0.791326
O O1 0.000000 0.339102 0.250000
O O2 0.891325 0.198016 0.258631
O O3 0.497492 0.110761 0.452025
O O4 0.000000 0.132032 0.750000
O O5 0.066328 0.985218 0.829237
O O6 0.014128 0.155638 0.954059
#
# Coordination Sequence:
#
# PCOD9274477 Si02
#       3
#     4   8   8
#     4  12  24  40  64  92 130 168 216 268 326 396
#     4  10  20  38  63  92 128 166 219 276 324 378
#     4  10  22  37  61  96 127 168 217 270 327 389
#
# _framework density 26.748833999999999
#
# number of rings (size 3 to 8) (size 9 to 14) (size 15 to 20)
#    0.000    1.600    0.000    4.800    0.000    6.400 
#    0.000    0.000    0.000   24.000    0.000    0.000 
#    0.000    0.000    0.000    0.000    0.000    0.000 
#
# Total GULP energy -55899.094571 kJ/mol
# GULP energy per Si atom -5589.909457 kJ/mol
# Density = 2.668795 g / cm^3
# Si number density = 26.748834 Si / 1000 Ang^3
#
#
#
# Elastic Constant Matrix: (Units=GPa)
#
#
# Indices 1 2 3 4 5 6 
#
# 1 253.0343 36.8664 45.8123 -0.0186 -19.8466 -0.0154
# 2 36.8664 92.2594 -18.5403 -0.0086 -12.9184 -0.0144
# 3 45.8123 -18.5403 195.1629 0.0871 22.0481 -0.0774
# 4 -0.0186 -0.0086 0.0871 28.2290 -0.0223 3.9428
# 5 -19.8466 -12.9184 22.0481 -0.0223 50.1450 0.0086
# 6 -0.0154 -0.0144 -0.0774 3.9428 0.0086 34.7676
#
#
#
# Elastic Compliance Matrix: (Units=1/GPa)
#
#
# Indices 1 2 3 4 5 6 
#
# 1 0.004656 -0.001879 -0.001499 0.000009 0.002018 -0.000004
# 2 -0.001879 0.012117 0.001393 -0.000001 0.001765 0.000007
# 3 -0.001499 0.001393 0.005929 -0.000023 -0.002842 0.000016
# 4 0.000009 -0.000001 -0.000023 0.035995 0.000030 -0.004082
# 5 0.002018 0.001765 -0.002842 0.000030 0.022445 -0.000014
# 6 -0.000004 0.000007 0.000016 -0.004082 -0.000014 0.029225
#
#
# Mechanical properties :
#
#
# Convention : Reuss Voigt Hill
#
# Bulk Modulus (GPa) = 53.38905 74.30369 63.84637
# Shear Modulus (GPa) = 41.46566 54.38286 47.92426
#
# Velocity S-wave (km/s) = 3.94151 4.51387 4.23737
# Velocity P-wave (km/s) = 6.38097 7.41656 6.91817
#
# Compressibility (1/GPa) = 0.01873043
#
# Stress axis : x y z
#
# Youngs Moduli (GPa) = 214.79871 82.52890 168.65626
#
# Poissons Ratio (x) = 0.15508 0.25287
# Poissons Ratio (y) = 0.40363 -0.23490
# Poissons Ratio (z) = 0.32205 -0.11494
#
# Static dielectric constant tensor:
#      x y z
#    x 2.051080 0.000010 0.036710 
#    y 0.000010 2.029880 0.000000 
#    z 0.036710 0.000000 2.273660 
# 
# From -- ./inp_files/3173.got.cif
#   From: 2010.05.17/outbox.cif.g08.bks.cpg/sg15_2_cif.got.tgz:3173.got - 2010.06.03 18:47:42.
