data_PCOD9274014
_publ_section_title
;
Structure prediction by ZEFSAII (Michael W. Deem and Ramdas Pophale) SiO2 
 PCOD9274014
Probable space group: C 2/C
;
_chemical_formula_sum "Si O2"
_cell_formula_units_Z 60
_cell_length_a 21.195816
_cell_length_b 28.362512
_cell_length_c 14.667985
_cell_angle_alpha 90.000000
_cell_angle_beta 160.389461
_cell_angle_gamma 90.000000
_cell_volume 2959.507159
_symmetry_space_group_name_H-M "C 2/C"
_symmetry_group_IT_number 15
_symmetry_cell_setting 'monoclinic'
loop_
_space_group_symop_operation_xyz
x,y,z
-x,y,1/2-z
-x,-y,-z
x,-y,1/2+z
1/2+x,1/2+y,z
1/2-x,1/2+y,1/2-z
1/2-x,1/2-y,-z
1/2+x,1/2-y,1/2+z
loop_
_atom_site_type_symbol
_atom_site_label
_atom_site_fract_x
_atom_site_fract_y
_atom_site_fract_z
Si Si1 0.500000 0.910478 0.750000
Si Si2 0.215133 0.394003 0.216115
Si Si3 0.177388 0.435514 0.555810
Si Si4 0.621834 0.652364 0.239995
Si Si5 0.237190 0.996062 0.670195
Si Si6 0.141924 0.678654 0.755494
Si Si7 0.162673 0.268079 0.548621
Si Si8 0.307147 0.484339 0.100717
O O1 0.409225 0.883700 0.542036
O O2 0.330331 0.943384 0.554235
O O3 0.419876 0.369854 0.486386
O O4 0.240829 0.450379 0.263973
O O5 0.112173 0.369379 0.160462
O O6 0.281427 0.386165 0.694010
O O7 0.141086 0.460305 0.603032
O O8 0.291691 0.473701 0.652197
O O9 0.000000 0.427978 0.250000
O O10 0.735346 0.662808 0.488850
O O11 0.656384 0.701071 0.234080
O O12 0.258428 0.997170 0.590490
O O13 0.027957 0.974811 0.398708
O O14 0.262991 0.714656 0.856847
O O15 0.952560 0.706409 0.527294
O O16 0.000000 0.269893 0.250000
#
# Coordination Sequence:
#
# PCOD9274014 Si02
#       8
#     4   8   8   8   8   8   8   8
#     4  12  26  42  58  82 124 168 214 264 298 356
#     4  12  23  40  60  86 119 165 212 251 308 364
#     4  12  21  36  57  86 123 160 208 255 300 364
#     4  11  22  35  62  91 125 158 199 249 312 375
#     4  11  24  38  61  83 120 166 212 258 309 365
#     4  11  22  38  65  96 126 158 196 251 317 382
#     4  10  20  38  60  99 133 153 186 247 323 386
#     4  11  22  40  56  83 115 160 209 256 309 357
#
# _framework density 20.273645999999999
#
# number of rings (size 3 to 8) (size 9 to 14) (size 15 to 20)
#    0.000    0.800    3.333    6.800    1.867    4.267 
#    0.000    0.000    0.000    3.200    0.000    0.000 
#    0.000    0.000    0.000    0.000    0.000    0.000 
#
# Total GULP energy -167423.948958 kJ/mol
# GULP energy per Si atom -5580.798299 kJ/mol
# Density = 2.022750 g / cm^3
# Si number density = 20.273646 Si / 1000 Ang^3
#
#
#
# Elastic Constant Matrix: (Units=GPa)
#
#
# Indices 1 2 3 4 5 6 
#
# 1 82.6054 11.7675 -30.2448 -0.0001 -4.8184 -0.0001
# 2 11.7675 123.3507 78.3082 0.0001 -12.7549 0.0001
# 3 -30.2448 78.3082 293.7704 0.0004 -27.4945 0.0003
# 4 -0.0001 0.0001 0.0004 8.3282 0.0000 -0.8355
# 5 -4.8184 -12.7549 -27.4945 0.0000 33.7743 0.0000
# 6 -0.0001 0.0001 0.0003 -0.8355 0.0000 33.7143
#
#
#
# Elastic Compliance Matrix: (Units=1/GPa)
#
#
# Indices 1 2 3 4 5 6 
#
# 1 0.013469 -0.002454 0.002310 0.000000 0.002875 0.000000
# 2 -0.002454 0.010296 -0.002886 0.000000 0.001189 0.000000
# 3 0.002310 -0.002886 0.004698 0.000000 0.003064 0.000000
# 4 0.000000 0.000000 0.000000 0.120373 0.000000 0.002983
# 5 0.002875 0.001189 0.003064 0.000000 0.032962 0.000000
# 6 0.000000 0.000000 0.000000 0.002983 0.000000 0.029735
#
#
# Mechanical properties :
#
#
# Convention : Reuss Voigt Hill
#
# Bulk Modulus (GPa) = 44.63753 68.82094 56.72923
# Shear Modulus (GPa) = 22.21622 44.48972 33.35297
#
# Velocity S-wave (km/s) = 3.31391 4.68959 4.06043
# Velocity P-wave (km/s) = 6.05871 7.95881 7.07286
#
# Compressibility (1/GPa) = 0.02240267
#
# Stress axis : x y z
#
# Youngs Moduli (GPa) = 74.24578 97.12388 212.86166
#
# Poissons Ratio (x) = 0.23834 -0.49169
# Poissons Ratio (y) = 0.18220 0.61431
# Poissons Ratio (z) = -0.17150 0.28029
#
# Static dielectric constant tensor:
#      x y z
#    x 1.826170 0.000000 0.051450 
#    y 0.000000 1.718860 0.000000 
#    z 0.051450 0.000000 1.759830 
# 
# From -- ./inp_files/169967.got.cif
#   From: 2010.05.17/outbox.cif.g08.bks.cpg/sg15_85_cif.got.tgz:169967.got - 2010.06.03 18:47:42.
