data_PCOD9274726
_publ_section_title
;
Structure prediction by ZEFSAII (Michael W. Deem and Ramdas Pophale) SiO2 
 PCOD9274726
Probable space group: C 2/C
;
_chemical_formula_sum "Si O2"
_cell_formula_units_Z 28
_cell_length_a 12.188554
_cell_length_b 17.814256
_cell_length_c 12.892580
_cell_angle_alpha 90.000000
_cell_angle_beta 22.689801
_cell_angle_gamma 90.000000
_cell_volume 1079.832597
_symmetry_space_group_name_H-M "C 2/C"
_symmetry_group_IT_number 15
_symmetry_cell_setting 'monoclinic'
loop_
_space_group_symop_operation_xyz
x,y,z
-x,y,1/2-z
-x,-y,-z
x,-y,1/2+z
1/2+x,1/2+y,z
1/2-x,1/2+y,1/2-z
1/2-x,1/2-y,-z
1/2+x,1/2-y,1/2+z
loop_
_atom_site_type_symbol
_atom_site_label
_atom_site_fract_x
_atom_site_fract_y
_atom_site_fract_z
Si Si1 0.107890 0.300910 0.270069
Si Si2 0.680359 0.484020 0.680011
Si Si3 0.000000 0.399847 0.750000
Si Si4 0.882539 0.894636 0.580390
O O1 0.000000 0.325860 0.250000
O O2 0.820018 0.271143 0.574117
O O3 0.326904 0.358161 0.132200
O O4 0.500000 0.440964 0.750000
O O5 0.860103 0.543299 0.456726
O O6 0.791489 0.425876 0.668053
O O7 0.474453 0.535013 0.928940
O O8 0.199926 0.351069 0.652425
#
# Coordination Sequence:
#
# PCOD9274726 Si02
#       4
#     8   8   4   8
#     4  10  24  46  69  97 129 172 231 285 329 389
#     4   9  20  38  60 100 130 174 218 270 333 402
#     4  10  20  38  64  96 140 168 222 268 330 414
#     4  10  21  40  65  95 133 176 216 276 336 395
#
# _framework density 25.929943999999999
#
# number of rings (size 3 to 8) (size 9 to 14) (size 15 to 20)
#    0.000    2.286    0.000    0.857    4.000    3.429 
#   23.143    1.429    0.000    0.000    0.000    0.000 
#    0.000    0.000    0.000    0.000    0.000    0.000 
#
# Total GULP energy -78049.858608 kJ/mol
# GULP energy per Si atom -5574.989901 kJ/mol
# Density = 2.587093 g / cm^3
# Si number density = 25.929944 Si / 1000 Ang^3
#
#
#
# Elastic Constant Matrix: (Units=GPa)
#
#
# Indices 1 2 3 4 5 6 
#
# 1 280.1783 43.7150 8.6602 -0.1420 -13.6018 0.1993
# 2 43.7150 48.7491 1.3514 -0.3412 -3.9151 -0.0864
# 3 8.6602 1.3514 86.7434 -0.2853 6.0708 0.1391
# 4 -0.1420 -0.3412 -0.2853 24.2914 0.0195 -16.3107
# 5 -13.6018 -3.9151 6.0708 0.0195 42.4381 0.0067
# 6 0.1993 -0.0864 0.1391 -16.3107 0.0067 12.0328
#
#
#
# Elastic Compliance Matrix: (Units=1/GPa)
#
#
# Indices 1 2 3 4 5 6 
#
# 1 0.004211 -0.003688 -0.000439 -0.001056 0.001073 -0.001523
# 2 -0.003688 0.023955 -0.000072 0.005232 0.001035 0.007325
# 3 -0.000439 -0.000072 0.011702 0.000554 -0.001822 0.000623
# 4 -0.001056 0.005232 0.000554 0.459477 -0.000245 0.622878
# 5 0.001073 0.001035 -0.001822 -0.000245 0.024264 -0.000334
# 6 -0.001523 0.007325 0.000623 0.622878 -0.000334 0.927501
#
#
# Mechanical properties :
#
#
# Convention : Reuss Voigt Hill
#
# Bulk Modulus (GPa) = 31.77672 58.12489 44.95081
# Shear Modulus (GPa) = 3.40137 39.88209 21.64173
#
# Velocity S-wave (km/s) = 1.14656 3.92608 2.89212
# Velocity P-wave (km/s) = 3.74623 6.55873 5.34093
#
# Compressibility (1/GPa) = 0.03146958
#
# Stress axis : x y z
#
# Youngs Moduli (GPa) = 237.48854 41.74542 85.45896
#
# Poissons Ratio (x) = 0.15394 0.03752
# Poissons Ratio (y) = 0.87578 0.00615
# Poissons Ratio (z) = 0.10427 0.00301
#
# Static dielectric constant tensor:
#      x y z
#    x 2.238710 -0.001200 -0.102230 
#    y -0.001200 2.118030 -0.000130 
#    z -0.102230 -0.000130 2.098140 
# 
# From -- ./inp_files/88698.got.cif
#   From: 2010.05.17/outbox.cif.g08.bks.cpg/sg15_45_cif.got.tgz:88698.got - 2010.06.03 18:47:42.
