data_PCOD9274448
_publ_section_title
;
Structure prediction by ZEFSAII (Michael W. Deem and Ramdas Pophale) SiO2 
 PCOD9274448
Probable space group: C 2/C
;
_chemical_formula_sum "Si O2"
_cell_formula_units_Z 52
_cell_length_a 16.780398
_cell_length_b 11.523974
_cell_length_c 14.685804
_cell_angle_alpha 90.000000
_cell_angle_beta 76.014732
_cell_angle_gamma 90.000000
_cell_volume 2755.714362
_symmetry_space_group_name_H-M "C 2/C"
_symmetry_group_IT_number 15
_symmetry_cell_setting 'monoclinic'
loop_
_space_group_symop_operation_xyz
x,y,z
-x,y,1/2-z
-x,-y,-z
x,-y,1/2+z
1/2+x,1/2+y,z
1/2-x,1/2+y,1/2-z
1/2-x,1/2-y,-z
1/2+x,1/2-y,1/2+z
loop_
_atom_site_type_symbol
_atom_site_label
_atom_site_fract_x
_atom_site_fract_y
_atom_site_fract_z
Si Si1 0.380022 0.984532 0.521896
Si Si2 0.014489 0.458203 0.343003
Si Si3 0.573673 0.526216 0.548906
Si Si4 0.623825 0.271681 0.776719
Si Si5 0.288095 0.351078 0.930257
Si Si6 0.000000 0.964512 0.750000
Si Si7 0.668766 0.247207 0.962597
O O1 0.432864 0.968559 0.599086
O O2 0.374232 0.123248 0.510066
O O3 0.430375 0.931960 0.422225
O O4 0.288517 0.938010 0.562819
O O5 0.066848 0.343086 0.301568
O O6 0.000000 0.518028 0.250000
O O7 0.500000 0.500000 0.500000
O O8 0.639876 0.421426 0.537826
O O9 0.544390 0.537750 0.661064
O O10 0.614159 0.645057 0.507237
O O11 0.676099 0.292774 0.671230
O O12 0.561298 0.380121 0.788977
O O13 0.680037 0.264955 0.850935
O O14 0.250000 0.250000 0.000000
O O15 0.750000 0.250000 0.000000
#
# Coordination Sequence:
#
# PCOD9274448 Si02
#       7
#     8   8   8   8   8   4   8
#     4  10  23  38  63  94 128 164 215 261 320 392
#     4  10  20  38  63  90 125 167 204 260 325 376
#     4  11  23  42  67  92 130 173 217 268 326 392
#     4  10  21  38  66  90 126 169 209 265 321 388
#     4  11  24  42  65  99 128 167 223 271 316 396
#     4  10  20  38  64  92 120 170 224 252 322 392
#     4  11  22  43  61  90 133 168 206 272 332 377
#
# _framework density 18.869879999999998
#
# number of rings (size 3 to 8) (size 9 to 14) (size 15 to 20)
#    0.000    1.538    3.846    0.923    2.154    2.462 
#    9.692    0.000    0.000    0.000    0.000    0.000 
#    0.000    0.000    0.000    0.000    0.000    0.000 
#
# Total GULP energy -145001.954707 kJ/mol
# GULP energy per Si atom -5576.998258 kJ/mol
# Density = 1.882693 g / cm^3
# Si number density = 18.869880 Si / 1000 Ang^3
#
#
#
# Elastic Constant Matrix: (Units=GPa)
#
#
# Indices 1 2 3 4 5 6 
#
# 1 130.4164 36.8103 66.3129 0.0000 12.6460 0.0000
# 2 36.8103 91.4987 59.6601 0.0000 -10.4222 0.0000
# 3 66.3129 59.6601 134.6689 0.0000 -2.2914 0.0000
# 4 0.0000 0.0000 0.0000 27.9812 0.0000 -5.2981
# 5 12.6460 -10.4222 -2.2914 0.0000 42.6232 0.0000
# 6 0.0000 0.0000 0.0000 -5.2981 0.0000 20.2571
#
#
#
# Elastic Compliance Matrix: (Units=1/GPa)
#
#
# Indices 1 2 3 4 5 6 
#
# 1 0.010921 -0.001816 -0.004640 0.000000 -0.003934 0.000000
# 2 -0.001816 0.016177 -0.006202 0.000000 0.004161 0.000000
# 3 -0.004640 -0.006202 0.012467 0.000000 0.000530 0.000000
# 4 0.000000 0.000000 0.000000 0.037600 0.000000 0.009834
# 5 -0.003934 0.004161 0.000530 0.000000 0.025675 0.000000
# 6 0.000000 0.000000 0.000000 0.009834 0.000000 0.051937
#
#
# Mechanical properties :
#
#
# Convention : Reuss Voigt Hill
#
# Bulk Modulus (GPa) = 70.17753 75.79451 72.98602
# Shear Modulus (GPa) = 27.04989 31.09236 29.07112
#
# Velocity S-wave (km/s) = 3.79026 4.06362 3.92932
# Velocity P-wave (km/s) = 7.51171 7.89123 7.70380
#
# Compressibility (1/GPa) = 0.01424958
#
# Stress axis : x y z
#
# Youngs Moduli (GPa) = 91.56539 61.81429 80.21240
#
# Poissons Ratio (x) = 0.11227 0.37219
# Poissons Ratio (y) = 0.16631 0.49745
# Poissons Ratio (z) = 0.42487 0.38335
#
# Static dielectric constant tensor:
#      x y z
#    x 1.702460 0.000000 0.003240 
#    y 0.000000 1.650880 0.000000 
#    z 0.003240 0.000000 1.680280 
# 
# From -- ./inp_files/160386.got.cif
#   From: 2010.05.17/outbox.cif.g08.bks.cpg/sg15_81_cif.got.tgz:160386.got - 2010.06.03 18:47:42.
