data_PCOD9274355
_publ_section_title
;
Structure prediction by ZEFSAII (Michael W. Deem and Ramdas Pophale) SiO2 
 PCOD9274355
Probable space group: C 2/C
;
_chemical_formula_sum "Si O2"
_cell_formula_units_Z 60
_cell_length_a 9.112141
_cell_length_b 27.193914
_cell_length_c 23.934906
_cell_angle_alpha 90.000000
_cell_angle_beta 149.646902
_cell_angle_gamma 90.000000
_cell_volume 2997.069748
_symmetry_space_group_name_H-M "C 2/C"
_symmetry_group_IT_number 15
_symmetry_cell_setting 'monoclinic'
loop_
_space_group_symop_operation_xyz
x,y,z
-x,y,1/2-z
-x,-y,-z
x,-y,1/2+z
1/2+x,1/2+y,z
1/2-x,1/2+y,1/2-z
1/2-x,1/2-y,-z
1/2+x,1/2-y,1/2+z
loop_
_atom_site_type_symbol
_atom_site_label
_atom_site_fract_x
_atom_site_fract_y
_atom_site_fract_z
Si Si1 0.902118 0.433465 0.525501
Si Si2 0.125210 0.849167 0.503116
Si Si3 0.169094 0.535969 0.627070
Si Si4 0.682299 0.135684 0.672386
Si Si5 0.210227 0.687154 0.244122
Si Si6 0.500000 0.623812 0.250000
Si Si7 0.161892 0.806882 0.983154
Si Si8 0.713072 0.292424 0.193109
O O1 0.666273 0.401117 0.483117
O O2 0.840576 0.439568 0.438589
O O3 0.953156 0.490083 0.560119
O O4 0.214114 0.407631 0.640553
O O5 0.424005 0.842076 0.634058
O O6 0.891896 0.832185 0.473631
O O7 0.059177 0.809248 0.433319
O O8 0.500000 0.520377 0.750000
O O9 0.090973 0.579067 0.644467
O O10 0.446226 0.163703 0.556952
O O11 0.717326 0.163592 0.741904
O O12 0.000000 0.136820 0.750000
O O13 0.448330 0.660498 0.284215
O O14 0.356374 0.686258 0.352095
O O15 0.157535 0.743207 0.209266
O O16 0.250000 0.750000 0.000000
O O17 0.000000 0.283767 0.250000
#
# Coordination Sequence:
#
# PCOD9274355 Si02
#       8
#     8   8   8   8   8   4   8   8
#     4  10  21  40  66  96 128 163 212 276 329 381
#     4  11  24  40  62  91 131 170 213 272 328 395
#     4  10  20  40  68  97 123 161 220 273 324 389
#     4  11  24  40  67  94 125 168 222 270 319 392
#     4  11  23  37  62  90 125 177 212 259 320 388
#     4  10  20  38  62  94 128 158 218 262 318 384
#     4  12  24  41  60  90 135 174 218 263 324 391
#     4  12  22  42  60  90 131 169 214 264 324 384
#
# _framework density 20.019552999999998
#
# number of rings (size 3 to 8) (size 9 to 14) (size 15 to 20)
#    0.000    1.067    4.000    3.200    1.867    1.067 
#    0.000    0.667    0.000    0.000    0.000    0.000 
#    0.000    0.000    0.000    0.000    0.000    0.000 
#
# Total GULP energy -167064.650731 kJ/mol
# GULP energy per Si atom -5568.821691 kJ/mol
# Density = 1.997399 g / cm^3
# Si number density = 20.019553 Si / 1000 Ang^3
#
#
#
# Elastic Constant Matrix: (Units=GPa)
#
#
# Indices 1 2 3 4 5 6 
#
# 1 58.3561 38.3393 4.8720 -0.0004 -9.9008 0.0002
# 2 38.3393 122.6613 13.1836 -0.0001 -3.2367 -0.0003
# 3 4.8720 13.1836 100.5834 0.0028 -10.0348 -0.0089
# 4 -0.0004 -0.0001 0.0028 34.4974 0.0007 -5.1264
# 5 -9.9008 -3.2367 -10.0348 0.0007 25.3081 -0.0007
# 6 0.0002 -0.0003 -0.0089 -5.1264 -0.0007 50.1100
#
#
#
# Elastic Compliance Matrix: (Units=1/GPa)
#
#
# Indices 1 2 3 4 5 6 
#
# 1 0.023167 -0.007088 0.000646 0.000000 0.008413 0.000000
# 2 -0.007088 0.010448 -0.001218 0.000000 -0.001920 0.000000
# 3 0.000646 -0.001218 0.010495 -0.000001 0.004258 0.000002
# 4 0.000000 0.000000 -0.000001 0.029435 -0.000001 0.003011
# 5 0.008413 -0.001920 0.004258 -0.000001 0.044247 0.000001
# 6 0.000000 0.000000 0.000002 0.003011 0.000001 0.020264
#
#
# Mechanical properties :
#
#
# Convention : Reuss Voigt Hill
#
# Bulk Modulus (GPa) = 34.73384 43.82117 39.27751
# Shear Modulus (GPa) = 30.67992 36.99683 33.83837
#
# Velocity S-wave (km/s) = 3.91896 4.30354 4.11574
# Velocity P-wave (km/s) = 6.15348 6.82866 6.49984
#
# Compressibility (1/GPa) = 0.02879036
#
# Stress axis : x y z
#
# Youngs Moduli (GPa) = 43.16566 95.70913 95.28220
#
# Poissons Ratio (x) = 0.67843 -0.06158
# Poissons Ratio (y) = 0.30598 0.11602
# Poissons Ratio (z) = -0.02790 0.11654
#
# Static dielectric constant tensor:
#      x y z
#    x 1.904300 0.000000 -0.085020 
#    y 0.000000 1.711050 0.000000 
#    z -0.085020 0.000000 1.796380 
# 
# From -- ./inp_files/266697.got.cif
#   From: 2010.05.17/outbox.cif.g08.bks.cpg/sg15_134_cif.got.tgz:266697.got - 2010.06.03 18:47:42.
