data_PCOD9274130
_publ_section_title
;
Structure prediction by ZEFSAII (Michael W. Deem and Ramdas Pophale) SiO2 
 PCOD9274130
Probable space group: C 2/C
;
_chemical_formula_sum "Si O2"
_cell_formula_units_Z 52
_cell_length_a 20.073296
_cell_length_b 10.871371
_cell_length_c 9.573888
_cell_angle_alpha 90.000000
_cell_angle_beta 73.766660
_cell_angle_gamma 90.000000
_cell_volume 2005.958398
_symmetry_space_group_name_H-M "C 2/C"
_symmetry_group_IT_number 15
_symmetry_cell_setting 'monoclinic'
loop_
_space_group_symop_operation_xyz
x,y,z
-x,y,1/2-z
-x,-y,-z
x,-y,1/2+z
1/2+x,1/2+y,z
1/2-x,1/2+y,1/2-z
1/2-x,1/2-y,-z
1/2+x,1/2-y,1/2+z
loop_
_atom_site_type_symbol
_atom_site_label
_atom_site_fract_x
_atom_site_fract_y
_atom_site_fract_z
Si Si1 0.894858 0.213750 0.786788
Si Si2 0.898051 0.072240 0.299089
Si Si3 0.602332 0.192581 0.515251
Si Si4 0.242166 0.574659 0.504516
Si Si5 0.500000 0.095848 0.750000
Si Si6 0.738824 0.854095 0.323895
Si Si7 0.090361 0.255398 0.419754
O O1 0.915154 0.284290 0.634790
O O2 0.810649 0.207611 0.827296
O O3 0.916920 0.070706 0.789442
O O4 0.922182 0.273162 0.911255
O O5 0.922659 0.182045 0.389616
O O6 0.816345 0.077218 0.384512
O O7 0.920613 0.118459 0.133063
O O8 0.685003 0.174268 0.489017
O O9 0.566072 0.074295 0.607846
O O10 0.215259 0.446608 0.459027
O O11 0.250442 0.580087 0.666576
O O12 0.453023 0.155425 0.652686
O O13 0.672351 0.769883 0.342701
#
# Coordination Sequence:
#
# PCOD9274130 Si02
#       7
#     8   8   8   8   4   8   8
#     4  11  23  35  65  99 122 154 205 258 316 381
#     4  10  20  38  61  92 127 162 191 249 322 382
#     4  11  21  42  63  85 124 174 201 255 311 351
#     4  11  22  37  64  93 129 158 203 249 326 377
#     4  10  24  44  66  78 122 180 216 252 292 362
#     4  11  23  38  63  98 128 155 200 259 318 383
#     4  11  23  42  61  88 129 164 210 255 306 359
#
# _framework density 25.92277
#
# number of rings (size 3 to 8) (size 9 to 14) (size 15 to 20)
#    0.000    1.231    4.615    2.769    8.615    0.615 
#    0.000   13.077    0.000    0.000    0.000    0.000 
#    0.000    0.000    0.000    0.000    0.000    0.000 
#
# Total GULP energy -145090.562245 kJ/mol
# GULP energy per Si atom -5580.406240 kJ/mol
# Density = 2.586377 g / cm^3
# Si number density = 25.922770 Si / 1000 Ang^3
#
#
#
# Elastic Constant Matrix: (Units=GPa)
#
#
# Indices 1 2 3 4 5 6 
#
# 1 130.4038 3.6481 27.4252 0.0000 0.2711 0.0000
# 2 3.6481 59.1495 19.7680 0.0000 7.7220 0.0000
# 3 27.4252 19.7680 187.0013 0.0000 36.2615 0.0000
# 4 0.0000 0.0000 0.0000 19.5977 0.0000 7.1480
# 5 0.2711 7.7220 36.2615 0.0000 42.8192 0.0000
# 6 0.0000 0.0000 0.0000 7.1480 0.0000 -7.3648
#
#
#
# Elastic Compliance Matrix: (Units=1/GPa)
#
#
# Indices 1 2 3 4 5 6 
#
# 1 0.007959 -0.000182 -0.001370 0.000000 0.001142 0.000000
# 2 -0.000182 0.017660 -0.001463 0.000000 -0.001945 0.000000
# 3 -0.001370 -0.001463 0.006760 0.000000 -0.005452 0.000000
# 4 0.000000 0.000000 0.000000 0.037685 0.000000 0.036577
# 5 0.001142 -0.001945 -0.005452 0.000000 0.028315 0.000000
# 6 0.000000 0.000000 0.000000 0.036577 0.000000 -0.100282
#
#
# Mechanical properties :
#
#
# Convention : Reuss Voigt Hill
#
# Bulk Modulus (GPa) = 37.95034 53.13747 45.54391
# Shear Modulus (GPa) = 387.23858 32.72465 209.98162
#
# Velocity S-wave (km/s) = 12.23544 3.55687 9.00992
# Velocity P-wave (km/s) = 14.63829 6.11648 11.21808
#
# Compressibility (1/GPa) = 0.02635022
#
# Stress axis : x y z
#
# Youngs Moduli (GPa) = 125.64018 56.62388 147.92113
#
# Poissons Ratio (x) = 0.01032 0.20258
# Poissons Ratio (y) = 0.02291 0.21642
# Poissons Ratio (z) = 0.17206 0.08284
#
# Static dielectric constant tensor:
#      x y z
#    x 2.079110 0.000000 -0.045770 
#    y 0.000000 2.158740 0.000000 
#    z -0.045770 0.000000 2.001020 
# 
# From -- ./inp_files/55282.got.cif
#   From: 2010.05.17/outbox.cif.g08.bks.cpg/sg15_28_cif.got.tgz:55282.got - 2010.06.03 18:47:42.
