data_PCOD9274968
_publ_section_title
;
Structure prediction by ZEFSAII (Michael W. Deem and Ramdas Pophale) SiO2 
 PCOD9274968
Probable space group: C 2/C
;
_chemical_formula_sum "Si O2"
_cell_formula_units_Z 44
_cell_length_a 5.345472
_cell_length_b 19.475520
_cell_length_c 19.028880
_cell_angle_alpha 90.000000
_cell_angle_beta 97.493508
_cell_angle_gamma 90.000000
_cell_volume 1964.099072
_symmetry_space_group_name_H-M "C 2/C"
_symmetry_group_IT_number 15
_symmetry_cell_setting 'monoclinic'
loop_
_space_group_symop_operation_xyz
x,y,z
-x,y,1/2-z
-x,-y,-z
x,-y,1/2+z
1/2+x,1/2+y,z
1/2-x,1/2+y,1/2-z
1/2-x,1/2-y,-z
1/2+x,1/2-y,1/2+z
loop_
_atom_site_type_symbol
_atom_site_label
_atom_site_fract_x
_atom_site_fract_y
_atom_site_fract_z
Si Si1 0.762742 0.152643 0.639780
Si Si2 0.009033 0.097515 0.413352
Si Si3 0.464751 0.916848 0.501949
Si Si4 0.423969 0.467318 0.328812
Si Si5 0.000000 0.424892 0.250000
Si Si6 0.725644 0.704114 0.203225
O O1 0.582853 0.122357 0.573315
O O2 0.677242 0.124492 0.712659
O O3 0.773872 0.233401 0.650185
O O4 0.020145 0.109305 0.641870
O O5 0.790422 0.096274 0.463445
O O6 0.895968 0.142236 0.345613
O O7 0.284257 0.115454 0.453296
O O8 0.043034 0.021117 0.384102
O O9 0.500000 0.000000 0.500000
O O10 0.500000 0.480174 0.250000
O O11 0.125101 0.473275 0.312548
O O12 0.500000 0.722560 0.250000
O O13 0.000000 0.690222 0.250000
#
# Coordination Sequence:
#
# PCOD9274968 Si02
#       6
#     8   8   8   8   4   8
#     4  11  24  42  71  99 141 183 242 288 359 419
#     4  12  27  45  69 104 144 190 230 296 365 425
#     4  12  26  46  72 104 145 190 238 297 354 433
#     4  10  22  38  66 100 132 181 241 300 349 411
#     4  10  20  38  66  98 124 176 238 296 340 406
#     4  12  27  48  74 105 147 189 240 302 362 430
#
# _framework density 22.402128000000001
#
# number of rings (size 3 to 8) (size 9 to 14) (size 15 to 20)
#    0.000    0.727    2.727    4.909    6.364    1.455 
#    0.000    0.000    0.000    0.000    0.000    0.000 
#    0.000    0.000    0.000    0.000    0.000    0.000 
#
# Total GULP energy -122696.707641 kJ/mol
# GULP energy per Si atom -5577.123075 kJ/mol
# Density = 2.235114 g / cm^3
# Si number density = 22.402128 Si / 1000 Ang^3
#
#
#
# Elastic Constant Matrix: (Units=GPa)
#
#
# Indices 1 2 3 4 5 6 
#
# 1 121.3802 13.2724 51.5667 0.0000 24.5680 0.0000
# 2 13.2724 65.7940 21.9873 0.0000 8.4535 0.0000
# 3 51.5667 21.9873 77.4586 0.0000 23.1969 0.0000
# 4 0.0000 0.0000 0.0000 30.8199 0.0000 4.5978
# 5 24.5680 8.4535 23.1969 0.0000 52.7598 0.0000
# 6 0.0000 0.0000 0.0000 4.5978 0.0000 17.1384
#
#
#
# Elastic Compliance Matrix: (Units=1/GPa)
#
#
# Indices 1 2 3 4 5 6 
#
# 1 0.011740 0.000343 -0.007208 0.000000 -0.002352 0.000000
# 2 0.000343 0.016823 -0.004778 0.000000 -0.000755 0.000000
# 3 -0.007208 -0.004778 0.020534 0.000000 -0.004906 0.000000
# 4 0.000000 0.000000 0.000000 0.033799 0.000000 -0.009067
# 5 -0.002352 -0.000755 -0.004906 0.000000 0.022327 0.000000
# 6 0.000000 0.000000 0.000000 -0.009067 0.000000 0.060781
#
#
# Mechanical properties :
#
#
# Convention : Reuss Voigt Hill
#
# Bulk Modulus (GPa) = 38.74302 48.69839 43.72070
# Shear Modulus (GPa) = 25.26594 31.99738 28.63166
#
# Velocity S-wave (km/s) = 3.36197 3.78341 3.57890
# Velocity P-wave (km/s) = 5.69231 6.39305 6.05283
#
# Compressibility (1/GPa) = 0.02581110
#
# Stress axis : x y z
#
# Youngs Moduli (GPa) = 85.18221 59.44108 48.69868
#
# Poissons Ratio (x) = -0.02039 0.35103
# Poissons Ratio (y) = -0.02921 0.23267
# Poissons Ratio (z) = 0.61402 0.28400
#
# Static dielectric constant tensor:
#      x y z
#    x 2.032660 0.000000 0.011980 
#    y 0.000000 1.859630 0.000000 
#    z 0.011980 0.000000 1.873790 
# 
# From -- ./inp_files/184933.got.cif
#   From: 2010.05.17/outbox.cif.g08.bks.cpg/sg15_93_cif.got.tgz:184933.got - 2010.06.03 18:47:42.
