data_PCOD9274141
_publ_section_title
;
Structure prediction by ZEFSAII (Michael W. Deem and Ramdas Pophale) SiO2 
 PCOD9274141
Probable space group: C 2/C
;
_chemical_formula_sum "Si O2"
_cell_formula_units_Z 48
_cell_length_a 23.771263
_cell_length_b 6.100967
_cell_length_c 20.698040
_cell_angle_alpha 90.000000
_cell_angle_beta 126.191113
_cell_angle_gamma 90.000000
_cell_volume 2422.599506
_symmetry_space_group_name_H-M "C 2/C"
_symmetry_group_IT_number 15
_symmetry_cell_setting 'monoclinic'
loop_
_space_group_symop_operation_xyz
x,y,z
-x,y,1/2-z
-x,-y,-z
x,-y,1/2+z
1/2+x,1/2+y,z
1/2-x,1/2+y,1/2-z
1/2-x,1/2-y,-z
1/2+x,1/2-y,1/2+z
loop_
_atom_site_type_symbol
_atom_site_label
_atom_site_fract_x
_atom_site_fract_y
_atom_site_fract_z
Si Si1 0.770967 0.551672 0.466115
Si Si2 0.403107 0.114728 0.492358
Si Si3 0.024865 0.915743 0.858477
Si Si4 0.142605 0.237863 0.880723
Si Si5 0.519375 0.223276 0.081848
Si Si6 0.441999 0.028760 0.762994
O O1 0.750000 0.750000 0.500000
O O2 0.820249 0.620714 0.440521
O O3 0.820385 0.373192 0.536349
O O4 0.700571 0.433408 0.397113
O O5 0.427275 0.230250 0.575816
O O6 0.434089 0.228651 0.450055
O O7 0.443292 0.881862 0.516300
O O8 0.961229 0.786345 0.780717
O O9 0.075786 0.091704 0.858250
O O10 0.989793 0.042615 0.893357
O O11 0.124884 0.422222 0.815511
O O12 0.549807 0.071394 0.160233
O O13 0.500000 0.952701 0.750000
#
# Coordination Sequence:
#
# PCOD9274141 Si02
#       6
#     8   8   8   8   8   8
#     4  11  22  39  65  89 125 173 205 253 303 383
#     4  10  20  38  61  94 124 160 212 248 313 372
#     4  11  20  36  61  92 126 157 202 266 318 363
#     4  11  23  39  61  94 128 161 210 255 313 372
#     4  10  21  37  62  92 126 158 200 266 310 364
#     4  11  23  36  59  92 123 158 203 261 320 365
#
# _framework density 19.813428999999999
#
# number of rings (size 3 to 8) (size 9 to 14) (size 15 to 20)
#    0.000    1.333    5.000    1.500    2.333    0.000 
#    0.000    0.000    3.667    0.000    0.000    0.000 
#    0.000    0.000    0.000    0.000    0.000    0.000 
#
# Total GULP energy -133704.905895 kJ/mol
# GULP energy per Si atom -5571.037746 kJ/mol
# Density = 1.976833 g / cm^3
# Si number density = 19.813429 Si / 1000 Ang^3
#
#
#
# Elastic Constant Matrix: (Units=GPa)
#
#
# Indices 1 2 3 4 5 6 
#
# 1 142.9223 46.6585 28.1450 0.0001 5.8286 0.0002
# 2 46.6585 90.2470 29.2571 0.0003 11.8642 0.0009
# 3 28.1450 29.2571 62.3576 0.0001 5.5593 0.0001
# 4 0.0001 0.0003 0.0001 51.6333 0.0001 -2.3155
# 5 5.8286 11.8642 5.5593 0.0001 17.9767 0.0001
# 6 0.0002 0.0009 0.0001 -2.3155 0.0001 27.1382
#
#
#
# Elastic Compliance Matrix: (Units=1/GPa)
#
#
# Indices 1 2 3 4 5 6 
#
# 1 0.008653 -0.003830 -0.002143 0.000000 0.000385 0.000000
# 2 -0.003830 0.015658 -0.004943 0.000000 -0.007563 0.000000
# 3 -0.002143 -0.004943 0.019508 0.000000 -0.002075 0.000000
# 4 0.000000 0.000000 0.000000 0.019442 0.000000 0.001659
# 5 0.000385 -0.007563 -0.002075 0.000000 0.061136 0.000000
# 6 0.000000 0.000000 0.000000 0.001659 0.000000 0.036990
#
#
# Mechanical properties :
#
#
# Convention : Reuss Voigt Hill
#
# Bulk Modulus (GPa) = 45.48217 55.96091 50.72154
# Shear Modulus (GPa) = 26.24004 32.11408 29.17706
#
# Velocity S-wave (km/s) = 3.64312 4.03031 3.84160
# Velocity P-wave (km/s) = 6.37977 7.06846 6.73293
#
# Compressibility (1/GPa) = 0.02198664
#
# Stress axis : x y z
#
# Youngs Moduli (GPa) = 115.56155 63.86696 51.26022
#
# Poissons Ratio (x) = 0.24459 0.10986
# Poissons Ratio (y) = 0.44256 0.25340
# Poissons Ratio (z) = 0.24767 0.31572
#
# Static dielectric constant tensor:
#      x y z
#    x 1.709500 0.000000 0.006230 
#    y 0.000000 1.777480 0.000000 
#    z 0.006230 0.000000 1.777610 
# 
# From -- ./inp_files/254442.got.cif
#   From: 2010.05.17/outbox.cif.g08.bks.cpg/sg15_128_cif.got.tgz:254442.got - 2010.06.03 18:47:42.
