data_PCOD9274076
_publ_section_title
;
Structure prediction by ZEFSAII (Michael W. Deem and Ramdas Pophale) SiO2 
 PCOD9274076
Probable space group: C 2/C
;
_chemical_formula_sum "Si O2"
_cell_formula_units_Z 44
_cell_length_a 15.790396
_cell_length_b 13.376021
_cell_length_c 11.792478
_cell_angle_alpha 90.000000
_cell_angle_beta 129.580726
_cell_angle_gamma 90.000000
_cell_volume 1919.667286
_symmetry_space_group_name_H-M "C 2/C"
_symmetry_group_IT_number 15
_symmetry_cell_setting 'monoclinic'
loop_
_space_group_symop_operation_xyz
x,y,z
-x,y,1/2-z
-x,-y,-z
x,-y,1/2+z
1/2+x,1/2+y,z
1/2-x,1/2+y,1/2-z
1/2-x,1/2-y,-z
1/2+x,1/2-y,1/2+z
loop_
_atom_site_type_symbol
_atom_site_label
_atom_site_fract_x
_atom_site_fract_y
_atom_site_fract_z
Si Si1 0.401520 0.048767 0.982514
Si Si2 0.699759 0.752128 0.080742
Si Si3 0.376594 0.399244 0.813684
Si Si4 0.691256 0.403343 0.174792
Si Si5 0.699250 0.886211 0.466221
Si Si6 0.000000 0.232411 0.250000
O O1 0.366969 0.988661 0.065145
O O2 0.400122 0.167113 0.002834
O O3 0.302257 0.039818 0.808862
O O4 0.500000 0.000000 0.000000
O O5 0.655828 0.649991 0.094640
O O6 0.793156 0.800274 0.243602
O O7 0.750000 0.750000 0.000000
O O8 0.395330 0.517632 0.848831
O O9 0.275762 0.374477 0.641664
O O10 0.474217 0.337600 0.836668
O O11 0.714458 0.390646 0.062823
O O12 0.605736 0.803500 0.363255
#
# Coordination Sequence:
#
# PCOD9274076 Si02
#       6
#     8   8   8   8   8   4
#     4   9  18  32  55  87 119 147 198 254 304 346
#     4  10  20  38  61  88 121 166 205 245 310 371
#     4  11  23  38  64  92 124 163 205 257 308 364
#     4   9  21  36  60  88 118 164 202 247 309 360
#     4  11  20  39  61  89 122 160 208 255 299 367
#     4  12  22  36  64  96 122 158 216 254 304 366
#
# _framework density 22.920639000000001
#
# number of rings (size 3 to 8) (size 9 to 14) (size 15 to 20)
#    1.091    0.727    1.818    3.818    0.000    0.000 
#    0.000    0.909    0.000    3.273    0.000    0.000 
#    0.000    0.000    0.000    0.000    0.000    0.000 
#
# Total GULP energy -122623.907749 kJ/mol
# GULP energy per Si atom -5573.813989 kJ/mol
# Density = 2.286847 g / cm^3
# Si number density = 22.920639 Si / 1000 Ang^3
#
#
#
# Elastic Constant Matrix: (Units=GPa)
#
#
# Indices 1 2 3 4 5 6 
#
# 1 76.2101 1.9154 35.3576 0.0000 -23.5100 0.0000
# 2 1.9154 67.0413 -6.6523 0.0000 -8.6415 0.0000
# 3 35.3576 -6.6523 36.9882 0.0000 -4.1639 0.0000
# 4 0.0000 0.0000 0.0000 17.7692 0.0000 -9.6669
# 5 -23.5100 -8.6415 -4.1639 0.0000 49.9606 0.0000
# 6 0.0000 0.0000 0.0000 -9.6669 0.0000 43.9201
#
#
#
# Elastic Compliance Matrix: (Units=1/GPa)
#
#
# Indices 1 2 3 4 5 6 
#
# 1 0.029088 -0.002075 -0.026931 0.000000 0.011084 0.000000
# 2 -0.002075 0.015758 0.005061 0.000000 0.002171 0.000000
# 3 -0.026931 0.005061 0.052857 0.000000 -0.007392 0.000000
# 4 0.000000 0.000000 0.000000 0.063933 0.000000 0.014072
# 5 0.011084 0.002171 -0.007392 0.000000 0.024991 0.000000
# 6 0.000000 0.000000 0.000000 0.014072 0.000000 0.025866
#
#
# Mechanical properties :
#
#
# Convention : Reuss Voigt Hill
#
# Bulk Modulus (GPa) = 20.07425 26.83122 23.45273
# Shear Modulus (GPa) = 18.05156 32.30455 25.17805
#
# Velocity S-wave (km/s) = 2.80941 3.75828 3.31794
# Velocity P-wave (km/s) = 4.39327 5.52851 4.99326
#
# Compressibility (1/GPa) = 0.04981507
#
# Stress axis : x y z
#
# Youngs Moduli (GPa) = 34.37889 63.46165 18.91888
#
# Poissons Ratio (x) = 0.13165 0.50950
# Poissons Ratio (y) = 0.07132 -0.09576
# Poissons Ratio (z) = 0.92584 -0.32121
#
# Static dielectric constant tensor:
#      x y z
#    x 1.815760 0.000000 -0.011460 
#    y 0.000000 1.922230 0.000000 
#    z -0.011460 0.000000 1.851090 
# 
# From -- ./inp_files/87966.got.cif
#   From: 2010.05.17/outbox.cif.g08.bks.cpg/sg15_44_cif.got.tgz:87966.got - 2010.06.03 18:47:42.
