data_PCOD9274855
_publ_section_title
;
Structure prediction by ZEFSAII (Michael W. Deem and Ramdas Pophale) SiO2 
 PCOD9274855
Probable space group: C 2/C
;
_chemical_formula_sum "Si O2"
_cell_formula_units_Z 36
_cell_length_a 11.556728
_cell_length_b 18.627994
_cell_length_c 7.903446
_cell_angle_alpha 90.000000
_cell_angle_beta 51.883672
_cell_angle_gamma 90.000000
_cell_volume 1338.626053
_symmetry_space_group_name_H-M "C 2/C"
_symmetry_group_IT_number 15
_symmetry_cell_setting 'monoclinic'
loop_
_space_group_symop_operation_xyz
x,y,z
-x,y,1/2-z
-x,-y,-z
x,-y,1/2+z
1/2+x,1/2+y,z
1/2-x,1/2+y,1/2-z
1/2-x,1/2-y,-z
1/2+x,1/2-y,1/2+z
loop_
_atom_site_type_symbol
_atom_site_label
_atom_site_fract_x
_atom_site_fract_y
_atom_site_fract_z
Si Si1 0.221283 0.658348 0.686254
Si Si2 0.484521 0.746574 0.465274
Si Si3 0.004550 0.906063 0.055958
Si Si4 0.000000 0.544256 0.250000
Si Si5 0.197748 0.428402 0.873458
O O1 0.312074 0.731451 0.640009
O O2 0.071150 0.679748 0.913187
O O3 0.337031 0.598522 0.640948
O O4 0.190022 0.633619 0.523592
O O5 0.500000 0.729986 0.250000
O O6 0.549250 0.679138 0.510621
O O7 0.000000 0.932096 0.250000
O O8 0.130261 0.940809 0.827127
O O9 0.892391 0.493373 0.458955
O O10 0.884519 0.583446 0.230979
#
# Coordination Sequence:
#
# PCOD9274855 Si02
#       5
#     8   8   8   4   8
#     4  10  22  41  72 101 142 189 226 275 343 421
#     4  10  20  38  66 103 137 193 223 259 341 424
#     4  10  23  41  68 105 148 181 228 281 343 412
#     4  10  28  46  76  98 128 180 244 304 350 406
#     4  11  23  50  69 105 132 178 240 293 356 406
#
# _framework density 26.893246999999999
#
# number of rings (size 3 to 8) (size 9 to 14) (size 15 to 20)
#    1.333    0.444    2.222    1.333    1.556    4.444 
#    0.000    7.778    0.000    1.333    0.000    0.000 
#    0.000    0.000    0.000    0.000    0.000    0.000 
#
# Total GULP energy -100435.119615 kJ/mol
# GULP energy per Si atom -5579.728867 kJ/mol
# Density = 2.683204 g / cm^3
# Si number density = 26.893247 Si / 1000 Ang^3
#
#
#
# Elastic Constant Matrix: (Units=GPa)
#
#
# Indices 1 2 3 4 5 6 
#
# 1 189.8026 60.1417 47.5521 0.0000 -16.6140 0.0000
# 2 60.1417 93.2524 41.1229 0.0000 -12.7618 0.0000
# 3 47.5521 41.1229 134.8960 0.0000 -24.2127 0.0000
# 4 0.0000 0.0000 0.0000 18.9517 0.0000 -3.0474
# 5 -16.6140 -12.7618 -24.2127 0.0000 38.6818 0.0000
# 6 0.0000 0.0000 0.0000 -3.0474 0.0000 33.7205
#
#
#
# Elastic Compliance Matrix: (Units=1/GPa)
#
#
# Indices 1 2 3 4 5 6 
#
# 1 0.006827 -0.003793 -0.001069 0.000000 0.001012 0.000000
# 2 -0.003793 0.014627 -0.002871 0.000000 0.001400 0.000000
# 3 -0.001069 -0.002871 0.009477 0.000000 0.004526 0.000000
# 4 0.000000 0.000000 0.000000 0.053544 0.000000 0.004839
# 5 0.001012 0.001400 0.004526 0.000000 0.029582 0.000000
# 6 0.000000 0.000000 0.000000 0.004839 0.000000 0.030093
#
#
# Mechanical properties :
#
#
# Convention : Reuss Voigt Hill
#
# Bulk Modulus (GPa) = 64.65539 79.50937 72.08238
# Shear Modulus (GPa) = 30.34521 36.21307 33.27914
#
# Velocity S-wave (km/s) = 3.36275 3.67352 3.52156
# Velocity P-wave (km/s) = 6.25868 6.90087 6.58760
#
# Compressibility (1/GPa) = 0.01546662
#
# Stress axis : x y z
#
# Youngs Moduli (GPa) = 146.48078 68.36451 105.51439
#
# Poissons Ratio (x) = 0.25932 0.11275
# Poissons Ratio (y) = 0.55563 0.30291
# Poissons Ratio (z) = 0.15652 0.19626
#
# Static dielectric constant tensor:
#      x y z
#    x 2.094610 0.000000 -0.026970 
#    y 0.000000 2.151390 0.000000 
#    z -0.026970 0.000000 2.038950 
# 
# From -- ./inp_files/31685.got.cif
#   From: 2010.05.17/outbox.cif.g08.bks.cpg/sg15_16_cif.got.tgz:31685.got - 2010.06.03 18:47:42.
