data_PCOD9274901
_publ_section_title
;
Structure prediction by ZEFSAII (Michael W. Deem and Ramdas Pophale) SiO2 
 PCOD9274901
Probable space group: C 2/C
;
_chemical_formula_sum "Si O2"
_cell_formula_units_Z 40
_cell_length_a 18.409716
_cell_length_b 4.896384
_cell_length_c 22.360257
_cell_angle_alpha 90.000000
_cell_angle_beta 133.364557
_cell_angle_gamma 90.000000
_cell_volume 1465.323448
_symmetry_space_group_name_H-M "C 2/C"
_symmetry_group_IT_number 15
_symmetry_cell_setting 'monoclinic'
loop_
_space_group_symop_operation_xyz
x,y,z
-x,y,1/2-z
-x,-y,-z
x,-y,1/2+z
1/2+x,1/2+y,z
1/2-x,1/2+y,1/2-z
1/2-x,1/2-y,-z
1/2+x,1/2-y,1/2+z
loop_
_atom_site_type_symbol
_atom_site_label
_atom_site_fract_x
_atom_site_fract_y
_atom_site_fract_z
Si Si1 0.732630 0.353618 0.316647
Si Si2 0.035915 0.694191 0.137996
Si Si3 0.641514 0.624131 0.594827
Si Si4 0.261108 0.048480 0.061349
Si Si5 0.048795 0.188547 0.344056
O O1 0.645902 0.280299 0.222674
O O2 0.768180 0.662021 0.341058
O O3 0.697949 0.237178 0.361077
O O4 0.830189 0.167558 0.360654
O O5 0.964941 0.890477 0.136217
O O6 0.043582 0.755300 0.071230
O O7 0.010803 0.393320 0.145551
O O8 0.659394 0.572901 0.534231
O O9 0.339598 0.808406 0.094571
O O10 0.250000 0.250000 0.000000
O O11 0.000000 0.199502 0.250000
#
# Coordination Sequence:
#
# PCOD9274901 Si02
#       5
#     8   8   8   8   8
#     4  10  20  38  66  91 125 165 218 256 323 381
#     4  12  22  39  65  97 130 157 216 275 329 370
#     4  10  22  39  63  95 124 172 211 266 319 388
#     4  10  25  45  65  93 132 179 217 253 325 404
#     4  12  24  40  64  99 129 165 211 276 328 372
#
# _framework density 27.297729
#
# number of rings (size 3 to 8) (size 9 to 14) (size 15 to 20)
#    1.200    0.000    2.000    5.400    2.800    0.800 
#    0.000    2.000    0.000    0.000    0.000    0.000 
#    0.000    0.000    0.000    0.000    0.000    0.000 
#
# Total GULP energy -112059.248659 kJ/mol
# GULP energy per Si atom -5602.962433 kJ/mol
# Density = 2.723560 g / cm^3
# Si number density = 27.297729 Si / 1000 Ang^3
#
#
#
# Elastic Constant Matrix: (Units=GPa)
#
#
# Indices 1 2 3 4 5 6 
#
# 1 174.5121 13.4052 30.5539 0.0006 -32.2677 0.0003
# 2 13.4052 94.8529 11.8558 0.0007 -3.5802 0.0010
# 3 30.5539 11.8558 89.1108 0.0005 -13.2808 0.0000
# 4 0.0006 0.0007 0.0005 31.3583 -0.0002 1.5821
# 5 -32.2677 -3.5802 -13.2808 -0.0002 45.3453 -0.0001
# 6 0.0003 0.0010 0.0000 1.5821 -0.0001 55.6346
#
#
#
# Elastic Compliance Matrix: (Units=1/GPa)
#
#
# Indices 1 2 3 4 5 6 
#
# 1 0.006868 -0.000603 -0.001624 0.000000 0.004364 0.000000
# 2 -0.000603 0.010783 -0.001218 0.000000 0.000066 0.000000
# 3 -0.001624 -0.001218 0.012291 0.000000 0.002348 0.000000
# 4 0.000000 0.000000 0.000000 0.031935 0.000000 -0.000908
# 5 0.004364 0.000066 0.002348 0.000000 0.025851 0.000000
# 6 0.000000 0.000000 0.000000 -0.000908 0.000000 0.018000
#
#
# Mechanical properties :
#
#
# Convention : Reuss Voigt Hill
#
# Bulk Modulus (GPa) = 43.38232 52.23395 47.80814
# Shear Modulus (GPa) = 41.56211 46.64504 44.10357
#
# Velocity S-wave (km/s) = 3.90622 4.13819 4.02388
# Velocity P-wave (km/s) = 6.02258 6.48146 6.25623
#
# Compressibility (1/GPa) = 0.02305086
#
# Stress axis : x y z
#
# Youngs Moduli (GPa) = 145.60644 92.74230 81.36134
#
# Poissons Ratio (x) = 0.05591 0.13215
# Poissons Ratio (y) = 0.08778 0.09911
# Poissons Ratio (z) = 0.23650 0.11297
#
# Static dielectric constant tensor:
#      x y z
#    x 2.210220 0.000000 -0.004950 
#    y 0.000000 2.035240 0.000000 
#    z -0.004950 0.000000 2.132680 
# 
# From -- ./inp_files/278528.got.cif
#   From: 2010.05.17/outbox.cif.g08.bks.cpg/sg15_140_cif.got.tgz:278528.got - 2010.06.03 18:47:42.
