data_PCOD9274478
_publ_section_title
;
Structure prediction by ZEFSAII (Michael W. Deem and Ramdas Pophale) SiO2 
 PCOD9274478
Probable space group: C 2/C
;
_chemical_formula_sum "Si O2"
_cell_formula_units_Z 48
_cell_length_a 24.864640
_cell_length_b 7.785312
_cell_length_c 14.154800
_cell_angle_alpha 90.000000
_cell_angle_beta 38.046140
_cell_angle_gamma 90.000000
_cell_volume 1688.694866
_symmetry_space_group_name_H-M "C 2/C"
_symmetry_group_IT_number 15
_symmetry_cell_setting 'monoclinic'
loop_
_space_group_symop_operation_xyz
x,y,z
-x,y,1/2-z
-x,-y,-z
x,-y,1/2+z
1/2+x,1/2+y,z
1/2-x,1/2+y,1/2-z
1/2-x,1/2-y,-z
1/2+x,1/2-y,1/2+z
loop_
_atom_site_type_symbol
_atom_site_label
_atom_site_fract_x
_atom_site_fract_y
_atom_site_fract_z
Si Si1 0.360760 0.801684 0.449649
Si Si2 0.829821 0.609887 0.613738
Si Si3 0.587581 0.916738 0.841417
Si Si4 0.376659 0.423393 0.095024
Si Si5 0.900277 0.182363 0.852694
Si Si6 0.347582 0.638374 0.293146
O O1 0.391634 0.636740 0.467510
O O2 0.392542 0.777390 0.299340
O O3 0.254532 0.818787 0.585142
O O4 0.382695 0.965106 0.481983
O O5 0.844619 0.547289 0.701345
O O6 0.726977 0.590866 0.748037
O O7 0.849450 0.775984 0.520959
O O8 0.588007 0.733745 0.893621
O O9 0.600951 0.850296 0.715683
O O10 0.500000 0.000000 0.000000
O O11 0.397104 0.594426 0.127099
O O12 0.000000 0.155205 0.750000
O O13 0.856719 0.033091 0.847527
#
# Coordination Sequence:
#
# PCOD9274478 Si02
#       6
#     8   8   8   8   8   8
#     4   9  19  38  61  90 129 162 205 266 325 385
#     4  10  21  37  62  96 125 171 218 266 320 388
#     4  10  20  38  63  92 131 171 216 264 329 391
#     4   9  20  35  62  95 127 160 215 269 315 388
#     4  11  22  38  63  92 131 169 220 270 322 387
#     4   9  20  36  61  89 125 162 211 262 324 381
#
# _framework density 28.424318
#
# number of rings (size 3 to 8) (size 9 to 14) (size 15 to 20)
#    0.000    2.333    1.667    0.000    0.000   14.000 
#    0.000    0.833    7.333    6.000    0.000    0.000 
#    0.000    0.000    0.000    0.000    0.000    0.000 
#
# Total GULP energy -134031.464158 kJ/mol
# GULP energy per Si atom -5584.644340 kJ/mol
# Density = 2.835962 g / cm^3
# Si number density = 28.424318 Si / 1000 Ang^3
#
#
#
# Elastic Constant Matrix: (Units=GPa)
#
#
# Indices 1 2 3 4 5 6 
#
# 1 147.0099 39.6655 62.3616 -0.0002 48.1679 0.0002
# 2 39.6655 88.1231 18.2155 0.0012 11.6199 0.0006
# 3 62.3616 18.2155 80.7007 0.0009 28.6859 -0.0006
# 4 -0.0002 0.0012 0.0009 43.0714 -0.0001 18.5914
# 5 48.1679 11.6199 28.6859 -0.0001 90.7752 -0.0004
# 6 0.0002 0.0006 -0.0006 18.5914 -0.0004 41.7010
#
#
#
# Elastic Compliance Matrix: (Units=1/GPa)
#
#
# Indices 1 2 3 4 5 6 
#
# 1 0.011964 -0.003421 -0.007178 0.000000 -0.003642 0.000000
# 2 -0.003421 0.012928 -0.000373 0.000000 0.000278 0.000000
# 3 -0.007178 -0.000373 0.018759 -0.000001 -0.002071 0.000001
# 4 0.000000 0.000000 -0.000001 0.028750 0.000000 -0.012817
# 5 -0.003642 0.000278 -0.002071 0.000000 0.013568 0.000000
# 6 0.000000 0.000000 0.000001 -0.012817 0.000000 0.029695
#
#
# Mechanical properties :
#
#
# Convention : Reuss Voigt Hill
#
# Bulk Modulus (GPa) = 46.07148 61.81320 53.94234
# Shear Modulus (GPa) = 34.52017 48.14892 41.33455
#
# Velocity S-wave (km/s) = 3.48869 4.12021 3.81753
# Velocity P-wave (km/s) = 5.69839 6.66548 6.20082
#
# Compressibility (1/GPa) = 0.02170540
#
# Stress axis : x y z
#
# Youngs Moduli (GPa) = 83.58738 77.35093 53.30794
#
# Poissons Ratio (x) = 0.26462 0.38265
# Poissons Ratio (y) = 0.28595 0.01991
# Poissons Ratio (z) = 0.60000 0.02889
#
# Static dielectric constant tensor:
#      x y z
#    x 2.358560 0.000000 0.088720 
#    y 0.000000 2.421230 0.000000 
#    z 0.088720 0.000000 2.180840 
# 
# From -- ./inp_files/176870.got.cif
#   From: 2010.05.17/outbox.cif.g08.bks.cpg/sg15_89_cif.got.tgz:176870.got - 2010.06.03 18:47:42.
