data_PCOD9274460
_publ_section_title
;
Structure prediction by ZEFSAII (Michael W. Deem and Ramdas Pophale) SiO2 
 PCOD9274460
Probable space group: C 2/C
;
_chemical_formula_sum "Si O2"
_cell_formula_units_Z 48
_cell_length_a 15.516265
_cell_length_b 8.969474
_cell_length_c 31.918306
_cell_angle_alpha 90.000000
_cell_angle_beta 145.267121
_cell_angle_gamma 90.000000
_cell_volume 2530.924891
_symmetry_space_group_name_H-M "C 2/C"
_symmetry_group_IT_number 15
_symmetry_cell_setting 'monoclinic'
loop_
_space_group_symop_operation_xyz
x,y,z
-x,y,1/2-z
-x,-y,-z
x,-y,1/2+z
1/2+x,1/2+y,z
1/2-x,1/2+y,1/2-z
1/2-x,1/2-y,-z
1/2+x,1/2-y,1/2+z
loop_
_atom_site_type_symbol
_atom_site_label
_atom_site_fract_x
_atom_site_fract_y
_atom_site_fract_z
Si Si1 0.728332 0.648442 0.451337
Si Si2 0.921189 0.647243 0.938687
Si Si3 0.078566 0.323132 0.586767
Si Si4 0.112726 0.816140 0.418438
Si Si5 0.634010 0.826903 0.335782
Si Si6 0.135497 0.677886 0.335952
O O1 0.750000 0.750000 0.500000
O O2 0.647124 0.493336 0.430613
O O3 0.631094 0.730403 0.376808
O O4 0.903527 0.643251 0.505539
O O5 0.859391 0.492736 0.893920
O O6 0.796221 0.772548 0.879871
O O7 0.943711 0.666773 0.998143
O O8 0.207128 0.213463 0.621914
O O9 0.024718 0.256982 0.609582
O O10 0.250000 0.750000 0.500000
O O11 0.109936 0.762294 0.369498
O O12 0.500000 0.791493 0.250000
O O13 0.632577 0.002292 0.344308
O O14 0.000000 0.711901 0.250000
#
# Coordination Sequence:
#
# PCOD9274460 Si02
#       6
#     8   8   8   8   8   8
#     4  11  24  38  65  96 123 160 210 260 307 372
#     4  10  20  38  63  91 122 163 207 249 313 367
#     4  10  21  38  65  93 121 163 205 255 305 371
#     4  12  21  40  66  94 124 157 208 261 307 369
#     4  10  24  44  60  87 129 167 206 254 314 373
#     4  11  24  42  62  91 128 167 205 258 315 369
#
# _framework density 18.965399000000001
#
# number of rings (size 3 to 8) (size 9 to 14) (size 15 to 20)
#    0.000    1.333    3.333    3.000    2.333    4.000 
#    3.000    0.000    0.000    0.000    0.000    0.000 
#    0.000    0.000    0.000    0.000    0.000    0.000 
#
# Total GULP energy -133604.575158 kJ/mol
# GULP energy per Si atom -5566.857298 kJ/mol
# Density = 1.892223 g / cm^3
# Si number density = 18.965399 Si / 1000 Ang^3
#
#
#
# Elastic Constant Matrix: (Units=GPa)
#
#
# Indices 1 2 3 4 5 6 
#
# 1 90.2060 48.5718 30.6938 0.0000 -19.3458 0.0000
# 2 48.5718 129.5487 77.7936 0.0000 -25.3939 0.0000
# 3 30.6938 77.7936 90.7971 0.0000 -13.2041 0.0000
# 4 0.0000 0.0000 0.0000 27.1124 0.0000 2.6175
# 5 -19.3458 -25.3939 -13.2041 0.0000 23.5374 0.0000
# 6 0.0000 0.0000 0.0000 2.6175 0.0000 30.0457
#
#
#
# Elastic Compliance Matrix: (Units=1/GPa)
#
#
# Indices 1 2 3 4 5 6 
#
# 1 0.015006 -0.003514 -0.000893 0.000000 0.008042 0.000000
# 2 -0.003514 0.019436 -0.013976 0.000000 0.010241 0.000000
# 3 -0.000893 -0.013976 0.022854 0.000000 -0.002991 0.000000
# 4 0.000000 0.000000 0.000000 0.037196 0.000000 -0.003240
# 5 0.008042 0.010241 -0.002991 0.000000 0.058467 0.000000
# 6 0.000000 0.000000 0.000000 -0.003240 0.000000 0.033565
#
#
# Mechanical properties :
#
#
# Convention : Reuss Voigt Hill
#
# Bulk Modulus (GPa) = 48.70251 69.40780 59.05516
# Shear Modulus (GPa) = 21.72652 26.37194 24.04923
#
# Velocity S-wave (km/s) = 3.38832 3.73303 3.56484
# Velocity P-wave (km/s) = 6.40649 7.43352 6.93903
#
# Compressibility (1/GPa) = 0.02053282
#
# Stress axis : x y z
#
# Youngs Moduli (GPa) = 66.63883 51.45023 43.75514
#
# Poissons Ratio (x) = 0.18079 0.03906
# Poissons Ratio (y) = 0.23416 0.61150
# Poissons Ratio (z) = 0.05949 0.71904
#
# Static dielectric constant tensor:
#      x y z
#    x 1.728920 0.000000 0.019620 
#    y 0.000000 1.701730 0.000000 
#    z 0.019620 0.000000 1.640990 
# 
# From -- ./inp_files/313001.got.cif
#   From: 2010.05.17/outbox.cif.g08.bks.cpg/sg15_157_cif.got.tgz:313001.got - 2010.06.03 18:47:42.
