data_PCOD9274100
_publ_section_title
;
Structure prediction by ZEFSAII (Michael W. Deem and Ramdas Pophale) SiO2 
 PCOD9274100
Probable space group: C 2/C
;
_chemical_formula_sum "Si O2"
_cell_formula_units_Z 40
_cell_length_a 8.092292
_cell_length_b 26.765243
_cell_length_c 10.810401
_cell_angle_alpha 90.000000
_cell_angle_beta 128.798225
_cell_angle_gamma 90.000000
_cell_volume 1824.824866
_symmetry_space_group_name_H-M "C 2/C"
_symmetry_group_IT_number 15
_symmetry_cell_setting 'monoclinic'
loop_
_space_group_symop_operation_xyz
x,y,z
-x,y,1/2-z
-x,-y,-z
x,-y,1/2+z
1/2+x,1/2+y,z
1/2-x,1/2+y,1/2-z
1/2-x,1/2-y,-z
1/2+x,1/2-y,1/2+z
loop_
_atom_site_type_symbol
_atom_site_label
_atom_site_fract_x
_atom_site_fract_y
_atom_site_fract_z
Si Si1 0.750604 0.727125 0.168657
Si Si2 0.500000 0.492332 0.750000
Si Si3 0.276904 0.330851 0.083343
Si Si4 0.500000 0.671635 0.250000
Si Si5 0.814560 0.914890 0.493380
Si Si6 0.840788 0.425987 0.352487
O O1 0.672474 0.783171 0.103671
O O2 0.671825 0.706271 0.261004
O O3 0.000000 0.729459 0.250000
O O4 0.674698 0.687739 0.030937
O O5 0.478930 0.456520 0.620181
O O6 0.294451 0.527514 0.663195
O O7 0.500000 0.340866 0.250000
O O8 0.152385 0.381641 0.043431
O O9 0.617267 0.635672 0.404040
O O10 0.584097 0.933863 0.430926
O O11 0.783230 0.909296 0.331778
#
# Coordination Sequence:
#
# PCOD9274100 Si02
#       6
#     8   4   8   4   8   8
#     4  10  22  39  61  91 128 162 210 250 303 370
#     4  11  22  40  64  84 124 162 202 259 320 354
#     4  10  20  38  61  90 120 162 209 251 299 373
#     4  11  22  40  62  90 134 164 196 259 316 350
#     4  10  24  39  58  95 122 152 216 254 295 389
#     4  11  21  40  64  86 121 162 203 254 317 360
#
# _framework density 21.919910999999999
#
# number of rings (size 3 to 8) (size 9 to 14) (size 15 to 20)
#    0.000    1.600    1.000    3.600    0.000    1.600 
#    0.000   11.000    0.000    0.000    0.000    0.000 
#    0.000    0.000    0.000    0.000    0.000    0.000 
#
# Total GULP energy -111647.519151 kJ/mol
# GULP energy per Si atom -5582.375958 kJ/mol
# Density = 2.187002 g / cm^3
# Si number density = 21.919911 Si / 1000 Ang^3
#
#
#
# Elastic Constant Matrix: (Units=GPa)
#
#
# Indices 1 2 3 4 5 6 
#
# 1 82.0939 54.1227 3.3641 0.0000 -1.1142 0.0000
# 2 54.1227 114.5537 9.3576 0.0000 -12.6288 0.0000
# 3 3.3641 9.3576 44.0075 0.0000 1.4232 0.0000
# 4 0.0000 0.0000 0.0000 27.8104 0.0000 -2.5726
# 5 -1.1142 -12.6288 1.4232 0.0000 27.6414 0.0000
# 6 0.0000 0.0000 0.0000 -2.5726 0.0000 6.4814
#
#
#
# Elastic Compliance Matrix: (Units=1/GPa)
#
#
# Indices 1 2 3 4 5 6 
#
# 1 0.017994 -0.008927 0.000632 0.000000 -0.003386 0.000000
# 2 -0.008927 0.013818 -0.002452 0.000000 0.006079 0.000000
# 3 0.000632 -0.002452 0.023271 0.000000 -0.002293 0.000000
# 4 0.000000 0.000000 0.000000 0.037328 0.000000 0.014816
# 5 -0.003386 0.006079 -0.002293 0.000000 0.038937 0.000000
# 6 0.000000 0.000000 0.000000 0.014816 0.000000 0.160168
#
#
# Mechanical properties :
#
#
# Convention : Reuss Voigt Hill
#
# Bulk Modulus (GPa) = 29.77176 41.59377 35.68276
# Shear Modulus (GPa) = 15.42230 23.97403 19.69817
#
# Velocity S-wave (km/s) = 2.65538 3.31072 3.00099
# Velocity P-wave (km/s) = 4.79718 5.79922 5.32184
#
# Compressibility (1/GPa) = 0.03358887
#
# Stress axis : x y z
#
# Youngs Moduli (GPa) = 55.57268 72.37144 42.97254
#
# Poissons Ratio (x) = 0.64603 -0.02716
# Poissons Ratio (y) = 0.49608 0.10538
# Poissons Ratio (z) = -0.03512 0.17748
#
# Static dielectric constant tensor:
#      x y z
#    x 1.778090 0.000000 -0.016130 
#    y 0.000000 1.820860 0.000000 
#    z -0.016130 0.000000 1.882810 
# 
# From -- ./inp_files/23537.got.cif
#   From: 2010.05.17/outbox.cif.g08.bks.cpg/sg15_12_cif.got.tgz:23537.got - 2010.06.03 18:47:42.
