data_PCOD9274600
_publ_section_title
;
Structure prediction by ZEFSAII (Michael W. Deem and Ramdas Pophale) SiO2 
 PCOD9274600
Probable space group: C 2/C
;
_chemical_formula_sum "Si O2"
_cell_formula_units_Z 36
_cell_length_a 13.489864
_cell_length_b 12.089332
_cell_length_c 13.395718
_cell_angle_alpha 90.000000
_cell_angle_beta 42.248022
_cell_angle_gamma 90.000000
_cell_volume 1468.810036
_symmetry_space_group_name_H-M "C 2/C"
_symmetry_group_IT_number 15
_symmetry_cell_setting 'monoclinic'
loop_
_space_group_symop_operation_xyz
x,y,z
-x,y,1/2-z
-x,-y,-z
x,-y,1/2+z
1/2+x,1/2+y,z
1/2-x,1/2+y,1/2-z
1/2-x,1/2-y,-z
1/2+x,1/2-y,1/2+z
loop_
_atom_site_type_symbol
_atom_site_label
_atom_site_fract_x
_atom_site_fract_y
_atom_site_fract_z
Si Si1 0.723988 0.014879 0.856532
Si Si2 0.047149 0.700907 0.109027
Si Si3 0.387183 0.228219 0.034183
Si Si4 0.623411 0.126922 0.737753
Si Si5 0.500000 0.405889 0.250000
O O1 0.675127 0.034670 0.778407
O O2 0.895045 0.026883 0.755474
O O3 0.670927 0.896490 0.932817
O O4 0.639865 0.113088 0.978011
O O5 0.100820 0.821536 0.108106
O O6 0.000000 0.650116 0.250000
O O7 0.916864 0.738215 0.130600
O O8 0.271924 0.319039 0.084383
O O9 0.541921 0.225850 0.860719
O O10 0.500000 0.094814 0.750000
#
# Coordination Sequence:
#
# PCOD9274600 Si02
#       5
#     8   8   8   8   4
#     4  11  23  40  65  95 123 165 210 256 314 371
#     4   9  19  38  66  91 120 164 200 261 317 359
#     4  11  24  41  67  92 127 167 210 259 310 377
#     4  11  23  45  63  92 129 171 204 256 316 372
#     4  10  20  38  64  88 130 152 210 262 306 350
#
# _framework density 24.509636
#
# number of rings (size 3 to 8) (size 9 to 14) (size 15 to 20)
#    0.667    0.889    2.222    4.000    1.556    3.556 
#    0.000    1.111    0.000    0.000    0.000    0.000 
#    0.000    0.000    0.000    0.000    0.000    0.000 
#
# Total GULP energy -100512.288916 kJ/mol
# GULP energy per Si atom -5584.016051 kJ/mol
# Density = 2.445385 g / cm^3
# Si number density = 24.509636 Si / 1000 Ang^3
#
#
#
# Elastic Constant Matrix: (Units=GPa)
#
#
# Indices 1 2 3 4 5 6 
#
# 1 190.6712 24.6665 6.5909 0.0000 12.6160 0.0000
# 2 24.6665 26.9456 -18.8486 0.0000 -5.9408 0.0000
# 3 6.5909 -18.8486 27.9848 0.0000 9.1731 0.0000
# 4 0.0000 0.0000 0.0000 23.2921 0.0000 -4.5568
# 5 12.6160 -5.9408 9.1731 0.0000 38.3236 0.0000
# 6 0.0000 0.0000 0.0000 -4.5568 0.0000 13.4600
#
#
#
# Elastic Compliance Matrix: (Units=1/GPa)
#
#
# Indices 1 2 3 4 5 6 
#
# 1 0.007883 -0.016063 -0.011946 0.000000 -0.002226 0.000000
# 2 -0.016063 0.102913 0.071766 0.000000 0.004063 0.000000
# 3 -0.011946 0.071766 0.088925 0.000000 -0.006227 0.000000
# 4 0.000000 0.000000 0.000000 0.045978 0.000000 0.015566
# 5 -0.002226 0.004063 -0.006227 0.000000 0.028947 0.000000
# 6 0.000000 0.000000 0.000000 0.015566 0.000000 0.079564
#
#
# Mechanical properties :
#
#
# Convention : Reuss Voigt Hill
#
# Bulk Modulus (GPa) = 3.48146 30.04656 16.76401
# Shear Modulus (GPa) = 13.79535 30.56133 22.17834
#
# Velocity S-wave (km/s) = 2.37503 3.53499 3.01139
# Velocity P-wave (km/s) = 2.99074 5.38027 4.35269
#
# Compressibility (1/GPa) = 0.28723571
#
# Stress axis : x y z
#
# Youngs Moduli (GPa) = 126.85760 9.71693 11.24541
#
# Poissons Ratio (x) = 0.15608 0.13434
# Poissons Ratio (y) = 2.03773 -0.80704
# Poissons Ratio (z) = 1.51543 -0.69735
#
# Static dielectric constant tensor:
#      x y z
#    x 1.986390 0.000000 0.010070 
#    y 0.000000 1.881510 0.000000 
#    z 0.010070 0.000000 2.035480 
# 
# From -- ./inp_files/153210.got.cif
#   From: 2010.05.17/outbox.cif.g08.bks.cpg/sg15_77_cif.got.tgz:153210.got - 2010.06.03 18:47:42.
