data_PCOD9274971
_publ_section_title
;
Structure prediction by ZEFSAII (Michael W. Deem and Ramdas Pophale) SiO2 
 PCOD9274971
Probable space group: C 2/C
;
_chemical_formula_sum "Si O2"
_cell_formula_units_Z 40
_cell_length_a 6.903734
_cell_length_b 19.658945
_cell_length_c 14.310051
_cell_angle_alpha 90.000000
_cell_angle_beta 60.071367
_cell_angle_gamma 90.000000
_cell_volume 1683.169840
_symmetry_space_group_name_H-M "C 2/C"
_symmetry_group_IT_number 15
_symmetry_cell_setting 'monoclinic'
loop_
_space_group_symop_operation_xyz
x,y,z
-x,y,1/2-z
-x,-y,-z
x,-y,1/2+z
1/2+x,1/2+y,z
1/2-x,1/2+y,1/2-z
1/2-x,1/2-y,-z
1/2+x,1/2-y,1/2+z
loop_
_atom_site_type_symbol
_atom_site_label
_atom_site_fract_x
_atom_site_fract_y
_atom_site_fract_z
Si Si1 0.522004 0.906045 0.430314
Si Si2 0.696045 0.672548 0.771499
Si Si3 0.793441 0.171680 0.227403
Si Si4 0.247180 0.548718 0.345426
Si Si5 0.839290 0.172589 0.997981
O O1 0.576873 0.856182 0.329580
O O2 0.289745 0.920687 0.540826
O O3 0.676878 0.875696 0.476650
O O4 0.610497 0.979284 0.376233
O O5 0.500000 0.645978 0.750000
O O6 0.695347 0.753829 0.763887
O O7 0.589021 0.659462 0.898030
O O8 0.659338 0.107017 0.296964
O O9 0.842952 0.163313 0.107268
O O10 0.000000 0.172154 0.250000
O O11 0.500000 0.534019 0.250000
O O12 0.750000 0.250000 0.000000
#
# Coordination Sequence:
#
# PCOD9274971 Si02
#       5
#     8   8   8   8   8
#     4  10  21  40  70  92 130 175 225 269 325 403
#     4  10  20  38  66  98 127 172 227 271 317 400
#     4  11  24  39  62  99 140 170 216 279 334 385
#     4  10  22  41  61  94 137 171 209 279 336 389
#     4  11  20  38  70  99 125 176 229 269 325 398
#
# _framework density 23.764683999999999
#
# number of rings (size 3 to 8) (size 9 to 14) (size 15 to 20)
#    0.000    1.600    4.000    3.000    0.000    0.800 
#    3.600    9.000    4.400    0.000    0.000    0.000 
#    0.000    0.000    0.000    0.000    0.000    0.000 
#
# Total GULP energy -111559.692211 kJ/mol
# GULP energy per Si atom -5577.984611 kJ/mol
# Density = 2.371059 g / cm^3
# Si number density = 23.764684 Si / 1000 Ang^3
#
#
#
# Elastic Constant Matrix: (Units=GPa)
#
#
# Indices 1 2 3 4 5 6 
#
# 1 79.0636 5.4709 47.1024 0.0000 -0.6803 0.0000
# 2 5.4709 143.0287 59.2339 0.0000 8.6415 0.0000
# 3 47.1024 59.2339 252.3442 0.0000 4.3136 0.0000
# 4 0.0000 0.0000 0.0000 52.3137 0.0000 2.1261
# 5 -0.6803 8.6415 4.3136 0.0000 48.4109 0.0000
# 6 0.0000 0.0000 0.0000 2.1261 0.0000 14.3092
#
#
#
# Elastic Compliance Matrix: (Units=1/GPa)
#
#
# Indices 1 2 3 4 5 6 
#
# 1 0.014285 0.000598 -0.002813 0.000000 0.000345 0.000000
# 2 0.000598 0.007842 -0.001932 0.000000 -0.001219 0.000000
# 3 -0.002813 -0.001932 0.004944 0.000000 -0.000135 0.000000
# 4 0.000000 0.000000 0.000000 0.019232 0.000000 -0.002857
# 5 0.000345 -0.001219 -0.000135 0.000000 0.020891 0.000000
# 6 0.000000 0.000000 0.000000 -0.002857 0.000000 0.070310
#
#
# Mechanical properties :
#
#
# Convention : Reuss Voigt Hill
#
# Bulk Modulus (GPa) = 53.25391 77.56121 65.40756
# Shear Modulus (GPa) = 32.88254 47.18203 40.03228
#
# Velocity S-wave (km/s) = 3.72381 4.46060 4.10875
# Velocity P-wave (km/s) = 6.39895 7.69658 7.07756
#
# Compressibility (1/GPa) = 0.01877796
#
# Stress axis : x y z
#
# Youngs Moduli (GPa) = 70.00197 127.51262 202.28296
#
# Poissons Ratio (x) = -0.07620 0.56895
# Poissons Ratio (y) = -0.04183 0.39072
# Poissons Ratio (z) = 0.19689 0.24630
#
# Static dielectric constant tensor:
#      x y z
#    x 1.997930 0.000000 -0.070440 
#    y 0.000000 1.906180 0.000000 
#    z -0.070440 0.000000 1.963600 
# 
# From -- ./inp_files/135771.got.cif
#   From: 2010.05.17/outbox.cif.g08.bks.cpg/sg15_68_cif.got.tgz:135771.got - 2010.06.03 18:47:42.
