data_PCOD9274179
_publ_section_title
;
Structure prediction by ZEFSAII (Michael W. Deem and Ramdas Pophale) SiO2 
 PCOD9274179
Probable space group: C 2/C
;
_chemical_formula_sum "Si O2"
_cell_formula_units_Z 48
_cell_length_a 16.351092
_cell_length_b 26.680660
_cell_length_c 9.984405
_cell_angle_alpha 90.000000
_cell_angle_beta 153.821614
_cell_angle_gamma 90.000000
_cell_volume 1921.626048
_symmetry_space_group_name_H-M "C 2/C"
_symmetry_group_IT_number 15
_symmetry_cell_setting 'monoclinic'
loop_
_space_group_symop_operation_xyz
x,y,z
-x,y,1/2-z
-x,-y,-z
x,-y,1/2+z
1/2+x,1/2+y,z
1/2-x,1/2+y,1/2-z
1/2-x,1/2-y,-z
1/2+x,1/2-y,1/2+z
loop_
_atom_site_type_symbol
_atom_site_label
_atom_site_fract_x
_atom_site_fract_y
_atom_site_fract_z
Si Si1 0.780968 0.039445 0.601891
Si Si2 0.281048 0.205204 0.148534
Si Si3 0.221078 0.647915 0.592232
Si Si4 0.781226 0.296389 0.151108
Si Si5 0.277207 0.453011 0.792661
Si Si6 0.217938 0.342710 0.595578
O O1 0.749891 0.088941 0.647972
O O2 0.702696 0.040907 0.334911
O O3 0.709429 0.992888 0.583166
O O4 0.000988 0.038564 0.894245
O O5 0.499789 0.202584 0.497831
O O6 0.203941 0.199160 0.185373
O O7 0.250000 0.250000 0.000000
O O8 0.203974 0.159840 0.945875
O O9 0.292782 0.687099 0.810314
O O10 0.000000 0.656001 0.250000
O O11 0.707700 0.340377 0.945102
O O12 0.750000 0.250000 0.000000
O O13 0.237731 0.396438 0.689717
O O14 0.000000 0.332698 0.250000
#
# Coordination Sequence:
#
# PCOD9274179 Si02
#       6
#     8   8   8   8   8   8
#     4  10  22  41  63  90 122 159 203 256 307 371
#     4  10  20  38  62  84 121 163 207 256 300 363
#     4  10  21  39  61  91 124 161 207 251 301 370
#     4  10  22  38  57  91 127 161 204 256 308 358
#     4  10  22  41  63  90 122 158 204 253 312 369
#     4  10  21  39  60  87 123 158 203 254 306 360
#
# _framework density 24.978846000000001
#
# number of rings (size 3 to 8) (size 9 to 14) (size 15 to 20)
#    0.000    2.000    1.667    1.000    2.333    2.000 
#    0.000    3.333    0.000    0.000    0.000    0.000 
#    0.000    0.000    0.000    0.000    0.000    0.000 
#
# Total GULP energy -133727.906390 kJ/mol
# GULP energy per Si atom -5571.996100 kJ/mol
# Density = 2.492199 g / cm^3
# Si number density = 24.978846 Si / 1000 Ang^3
#
#
#
# Elastic Constant Matrix: (Units=GPa)
#
#
# Indices 1 2 3 4 5 6 
#
# 1 94.1430 29.8728 80.8026 0.0000 -46.6114 0.0000
# 2 29.8728 126.4228 47.1636 0.0000 -51.7648 0.0000
# 3 80.8026 47.1636 108.2710 0.0000 -38.8938 0.0000
# 4 0.0000 0.0000 0.0000 37.8738 0.0000 -7.7979
# 5 -46.6114 -51.7648 -38.8938 0.0000 70.1481 0.0000
# 6 0.0000 0.0000 0.0000 -7.7979 0.0000 25.4472
#
#
#
# Elastic Compliance Matrix: (Units=1/GPa)
#
#
# Indices 1 2 3 4 5 6 
#
# 1 0.039664 0.007635 -0.026767 0.000000 0.017149 0.000000
# 2 0.007635 0.013333 -0.007679 0.000000 0.010655 0.000000
# 3 -0.026767 -0.007679 0.030134 0.000000 -0.006744 0.000000
# 4 0.000000 0.000000 0.000000 0.028182 0.000000 0.008636
# 5 0.017149 0.010655 -0.006744 0.000000 0.029774 0.000000
# 6 0.000000 0.000000 0.000000 0.008636 0.000000 0.041943
#
#
# Mechanical properties :
#
#
# Convention : Reuss Voigt Hill
#
# Bulk Modulus (GPa) = 33.88578 71.61276 52.74927
# Shear Modulus (GPa) = 20.28506 38.09367 29.18936
#
# Velocity S-wave (km/s) = 2.85281 3.90941 3.42213
# Velocity P-wave (km/s) = 4.94435 7.00782 6.06449
#
# Compressibility (1/GPa) = 0.02951090
#
# Stress axis : x y z
#
# Youngs Moduli (GPa) = 25.21201 75.00096 33.18488
#
# Poissons Ratio (x) = -0.57264 0.88825
# Poissons Ratio (y) = -0.19250 0.25481
# Poissons Ratio (z) = 0.67484 0.57590
#
# Static dielectric constant tensor:
#      x y z
#    x 2.075590 0.000000 0.018340 
#    y 0.000000 2.071380 0.000000 
#    z 0.018340 0.000000 1.973030 
# 
# From -- ./inp_files/52879.got.cif
#   From: 2010.05.17/outbox.cif.g08.bks.cpg/sg15_27_cif.got.tgz:52879.got - 2010.06.03 18:47:42.
