data_PCOD9274799
_publ_section_title
;
Structure prediction by ZEFSAII (Michael W. Deem and Ramdas Pophale) SiO2 
 PCOD9274799
Probable space group: C 2/C
;
_chemical_formula_sum "Si O2"
_cell_formula_units_Z 60
_cell_length_a 25.742692
_cell_length_b 28.066854
_cell_length_c 10.240300
_cell_angle_alpha 90.000000
_cell_angle_beta 154.301156
_cell_angle_gamma 90.000000
_cell_volume 3208.415587
_symmetry_space_group_name_H-M "C 2/C"
_symmetry_group_IT_number 15
_symmetry_cell_setting 'monoclinic'
loop_
_space_group_symop_operation_xyz
x,y,z
-x,y,1/2-z
-x,-y,-z
x,-y,1/2+z
1/2+x,1/2+y,z
1/2-x,1/2+y,1/2-z
1/2-x,1/2-y,-z
1/2+x,1/2-y,1/2+z
loop_
_atom_site_type_symbol
_atom_site_label
_atom_site_fract_x
_atom_site_fract_y
_atom_site_fract_z
Si Si1 0.916623 0.489823 0.687414
Si Si2 0.897988 0.232495 0.749818
Si Si3 0.795579 0.949244 0.895373
Si Si4 0.323964 0.705492 0.115015
Si Si5 0.142426 0.844277 0.555302
Si Si6 0.500000 0.483478 0.750000
Si Si7 0.762378 0.813479 0.175795
Si Si8 0.226418 0.075699 0.861810
O O1 0.812530 0.529218 0.433594
O O2 0.836489 0.442582 0.523813
O O3 0.000000 0.487906 0.750000
O O4 0.000000 0.500000 0.000000
O O5 0.835101 0.198032 0.498680
O O6 0.850310 0.218237 0.784693
O O7 0.863637 0.286584 0.636016
O O8 0.037592 0.221125 0.064619
O O9 0.820500 0.895339 0.911837
O O10 0.753503 0.945639 0.949001
O O11 0.915816 0.981473 0.147583
O O12 0.304418 0.665667 0.181584
O O13 0.250000 0.750000 0.000000
O O14 0.291973 0.689888 0.896155
O O15 0.000000 0.845189 0.250000
O O16 0.400620 0.448220 0.463995
O O17 0.775361 0.867330 0.153950
#
# Coordination Sequence:
#
# PCOD9274799 Si02
#       8
#     8   8   8   8   8   4   8   8
#     4  11  24  46  66  90 128 175 216 263 320 384
#     4  10  22  41  64  89 129 165 211 258 315 388
#     4  11  21  42  67  95 132 165 216 267 326 392
#     4  11  23  40  61  93 129 167 208 262 318 373
#     4  10  20  38  65  92 126 166 203 260 325 377
#     4  10  24  38  66 104 132 160 218 276 336 392
#     4  11  23  41  65  93 127 168 211 263 320 382
#     4  11  24  41  67  97 129 170 213 275 327 386
#
# _framework density 18.70082
#
# number of rings (size 3 to 8) (size 9 to 14) (size 15 to 20)
#    0.000    1.333    4.667    0.800    1.867    1.067 
#    7.200    0.000    2.933    0.000    0.000    0.000 
#    0.000    0.000    0.000    0.000    0.000    0.000 
#
# Total GULP energy -167298.581222 kJ/mol
# GULP energy per Si atom -5576.619374 kJ/mol
# Density = 1.865826 g / cm^3
# Si number density = 18.700820 Si / 1000 Ang^3
#
#
#
# Elastic Constant Matrix: (Units=GPa)
#
#
# Indices 1 2 3 4 5 6 
#
# 1 67.8780 -0.1038 2.8610 0.0000 -11.4315 0.0000
# 2 -0.1038 86.8243 10.5717 0.0000 -2.6869 0.0000
# 3 2.8610 10.5717 55.5795 0.0000 -14.5247 0.0000
# 4 0.0000 0.0000 0.0000 17.3143 0.0000 -0.0702
# 5 -11.4315 -2.6869 -14.5247 0.0000 33.2182 0.0000
# 6 0.0000 0.0000 0.0000 -0.0702 0.0000 27.6894
#
#
#
# Elastic Compliance Matrix: (Units=1/GPa)
#
#
# Indices 1 2 3 4 5 6 
#
# 1 0.015663 0.000115 0.000658 0.000000 0.005687 0.000000
# 2 0.000115 0.011791 -0.002246 0.000000 0.000011 0.000000
# 3 0.000658 -0.002246 0.020771 0.000000 0.009127 0.000000
# 4 0.000000 0.000000 0.000000 0.057756 0.000000 0.000146
# 5 0.005687 0.000011 0.009127 0.000000 0.036053 0.000000
# 6 0.000000 0.000000 0.000000 0.000146 0.000000 0.036115
#
#
# Mechanical properties :
#
#
# Convention : Reuss Voigt Hill
#
# Bulk Modulus (GPa) = 22.08551 26.32662 24.20606
# Shear Modulus (GPa) = 25.48578 28.77457 27.13018
#
# Velocity S-wave (km/s) = 3.69564 3.92686 3.81300
# Velocity P-wave (km/s) = 5.48141 5.88801 5.68834
#
# Compressibility (1/GPa) = 0.04527856
#
# Stress axis : x y z
#
# Youngs Moduli (GPa) = 63.84669 84.80720 48.14479
#
# Poissons Ratio (x) = -0.00972 -0.03169
# Poissons Ratio (y) = -0.00732 0.10812
# Poissons Ratio (z) = -0.04202 0.19046
#
# Static dielectric constant tensor:
#      x y z
#    x 1.676000 0.000000 -0.020650 
#    y 0.000000 1.687480 0.000000 
#    z -0.020650 0.000000 1.652440 
# 
# From -- ./inp_files/64123.got.cif
#   From: 2010.05.17/outbox.cif.g08.bks.cpg/sg15_33_cif.got.tgz:64123.got - 2010.06.03 18:47:42.
