data_PCOD9274607
_publ_section_title
;
Structure prediction by ZEFSAII (Michael W. Deem and Ramdas Pophale) SiO2 
 PCOD9274607
Probable space group: C 2/C
;
_chemical_formula_sum "Si O2"
_cell_formula_units_Z 56
_cell_length_a 7.496239
_cell_length_b 30.156788
_cell_length_c 12.097169
_cell_angle_alpha 90.000000
_cell_angle_beta 110.394894
_cell_angle_gamma 90.000000
_cell_volume 2563.285133
_symmetry_space_group_name_H-M "C 2/C"
_symmetry_group_IT_number 15
_symmetry_cell_setting 'monoclinic'
loop_
_space_group_symop_operation_xyz
x,y,z
-x,y,1/2-z
-x,-y,-z
x,-y,1/2+z
1/2+x,1/2+y,z
1/2-x,1/2+y,1/2-z
1/2-x,1/2-y,-z
1/2+x,1/2-y,1/2+z
loop_
_atom_site_type_symbol
_atom_site_label
_atom_site_fract_x
_atom_site_fract_y
_atom_site_fract_z
Si Si1 0.268904 0.532086 0.220123
Si Si2 0.294011 0.737501 0.639607
Si Si3 0.923292 0.348036 0.344561
Si Si4 0.744437 0.888112 0.568436
Si Si5 0.650365 0.589771 0.059642
Si Si6 0.279449 0.434646 0.174578
Si Si7 0.272779 0.171304 0.219559
O O1 0.500000 0.532248 0.250000
O O2 0.177947 0.567228 0.116256
O O3 0.257316 0.553819 0.337776
O O4 0.196187 0.482498 0.187863
O O5 0.500000 0.734034 0.750000
O O6 0.250000 0.750000 0.500000
O O7 0.207936 0.688683 0.629649
O O8 0.198924 0.778939 0.685367
O O9 0.813923 0.392801 0.287098
O O10 0.000000 0.326421 0.250000
O O11 0.090751 0.364292 0.460170
O O12 0.784190 0.853501 0.678403
O O13 0.924177 0.905425 0.535536
O O14 0.713719 0.638444 0.109199
O O15 0.716973 0.576483 0.953914
O O16 0.500000 0.436822 0.250000
O O17 0.500000 0.173755 0.250000
#
# Coordination Sequence:
#
# PCOD9274607 Si02
#       7
#     8   8   8   8   8   8   8
#     4   8  19  36  60  88 115 157 211 255 298 362
#     4  11  24  45  69  94 125 167 215 260 316 384
#     4  12  26  40  58  92 131 160 197 257 322 380
#     4  10  21  40  60  89 125 162 211 257 303 370
#     4  10  20  38  64  89 118 159 209 257 303 371
#     4  11  22  38  59  84 120 165 202 249 317 373
#     4  10  20  39  66  91 118 161 213 261 307 369
#
# _framework density 21.846965000000001
#
# number of rings (size 3 to 8) (size 9 to 14) (size 15 to 20)
#    0.000    1.714    0.000    6.000    0.000    9.143 
#    0.000    5.000    0.000    0.000    0.000    0.000 
#    0.000    0.000    0.000    0.000    0.000    0.000 
#
# Total GULP energy -156167.718796 kJ/mol
# GULP energy per Si atom -5577.418528 kJ/mol
# Density = 2.179724 g / cm^3
# Si number density = 21.846965 Si / 1000 Ang^3
#
#
#
# Elastic Constant Matrix: (Units=GPa)
#
#
# Indices 1 2 3 4 5 6 
#
# 1 44.3008 14.6214 24.7984 0.0000 5.7628 0.0000
# 2 14.6214 156.0231 31.6030 0.0000 16.3646 0.0000
# 3 24.7984 31.6030 95.0555 0.0000 15.3237 0.0000
# 4 0.0000 0.0000 0.0000 76.1504 0.0000 -14.6054
# 5 5.7628 16.3646 15.3237 0.0000 26.6186 0.0000
# 6 0.0000 0.0000 0.0000 -14.6054 0.0000 32.4618
#
#
#
# Elastic Compliance Matrix: (Units=1/GPa)
#
#
# Indices 1 2 3 4 5 6 
#
# 1 0.026679 -0.001056 -0.006374 0.000000 -0.001457 0.000000
# 2 -0.001056 0.007172 -0.001582 0.000000 -0.003270 0.000000
# 3 -0.006374 -0.001582 0.013591 0.000000 -0.005472 0.000000
# 4 0.000000 0.000000 0.000000 0.014372 0.000000 0.006466
# 5 -0.001457 -0.003270 -0.005472 0.000000 0.043043 0.000000
# 6 0.000000 0.000000 0.000000 0.006466 0.000000 0.033715
#
#
# Mechanical properties :
#
#
# Convention : Reuss Voigt Hill
#
# Bulk Modulus (GPa) = 33.99306 48.60276 41.29791
# Shear Modulus (GPa) = 30.04774 42.00327 36.02551
#
# Velocity S-wave (km/s) = 3.71263 4.38952 4.06519
# Velocity P-wave (km/s) = 5.82851 6.92717 6.40145
#
# Compressibility (1/GPa) = 0.02941777
#
# Stress axis : x y z
#
# Youngs Moduli (GPa) = 37.48248 139.43862 73.57821
#
# Poissons Ratio (x) = 0.14728 0.46899
# Poissons Ratio (y) = 0.03959 0.11638
# Poissons Ratio (z) = 0.23892 0.22055
#
# Static dielectric constant tensor:
#      x y z
#    x 1.420990 0.000000 0.044550 
#    y 0.000000 1.783910 0.000000 
#    z 0.044550 0.000000 1.811910 
# 
# From -- ./inp_files/81411.got.cif
#   From: 2010.05.17/outbox.cif.g08.bks.cpg/sg15_41_cif.got.tgz:81411.got - 2010.06.03 18:47:42.
