data_PCOD9274946
_publ_section_title
;
Structure prediction by ZEFSAII (Michael W. Deem and Ramdas Pophale) SiO2 
 PCOD9274946
Probable space group: C 2/C
;
_chemical_formula_sum "Si O2"
_cell_formula_units_Z 56
_cell_length_a 22.401780
_cell_length_b 14.367551
_cell_length_c 12.465936
_cell_angle_alpha 90.000000
_cell_angle_beta 147.506360
_cell_angle_gamma 90.000000
_cell_volume 2155.415549
_symmetry_space_group_name_H-M "C 2/C"
_symmetry_group_IT_number 15
_symmetry_cell_setting 'monoclinic'
loop_
_space_group_symop_operation_xyz
x,y,z
-x,y,1/2-z
-x,-y,-z
x,-y,1/2+z
1/2+x,1/2+y,z
1/2-x,1/2+y,1/2-z
1/2-x,1/2-y,-z
1/2+x,1/2-y,1/2+z
loop_
_atom_site_type_symbol
_atom_site_label
_atom_site_fract_x
_atom_site_fract_y
_atom_site_fract_z
Si Si1 0.111398 0.042372 0.115507
Si Si2 0.000000 0.951889 0.750000
Si Si3 0.372333 0.805404 0.447188
Si Si4 0.335825 0.966565 0.564845
Si Si5 0.357347 0.705121 0.988486
Si Si6 0.975485 0.197352 0.938095
Si Si7 0.700038 0.337504 0.489143
Si Si8 0.500000 0.884451 0.250000
O O1 0.093700 0.147861 0.124909
O O2 0.227689 0.007314 0.337132
O O3 0.000000 0.000000 0.000000
O O4 0.082353 0.013200 0.948898
O O5 0.911027 0.871177 0.649417
O O6 0.374130 0.885343 0.539913
O O7 0.271148 0.818410 0.212721
O O8 0.488101 0.794867 0.558960
O O9 0.337084 0.710324 0.457796
O O10 0.286360 0.920514 0.599078
O O11 0.432880 0.043029 0.724624
O O12 0.403965 0.691327 0.936527
O O13 0.401737 0.809547 0.075308
O O14 0.909308 0.143079 0.745294
O O15 0.750000 0.250000 0.500000
#
# Coordination Sequence:
#
# PCOD9274946 Si02
#       8
#     8   4   8   8   8   8   8   4
#     4  12  22  42  68 103 131 167 235 296 347 405
#     4  11  22  42  71  92 138 180 211 296 358 399
#     4  11  23  41  70  97 137 190 231 286 355 411
#     4  11  23  46  68 100 144 181 230 299 342 417
#     4  11  23  50  63  94 147 183 230 280 356 435
#     4  12  23  41  69 102 132 181 234 291 342 428
#     4  10  20  38  66  95 133 175 226 289 343 394
#     4  11  28  44  69 100 142 194 225 280 364 431
#
# _framework density 25.981066999999999
#
# number of rings (size 3 to 8) (size 9 to 14) (size 15 to 20)
#    0.000    0.857    7.143    1.286    6.000    0.000 
#    2.571    6.429    0.000    0.000    0.000    0.000 
#    0.000    0.000    0.000    0.000    0.000    0.000 
#
# Total GULP energy -156019.909436 kJ/mol
# GULP energy per Si atom -5572.139623 kJ/mol
# Density = 2.592193 g / cm^3
# Si number density = 25.981067 Si / 1000 Ang^3
#
#
#
# Elastic Constant Matrix: (Units=GPa)
#
#
# Indices 1 2 3 4 5 6 
#
# 1 63.6610 -4.4740 -6.4419 0.0000 10.4751 0.0000
# 2 -4.4740 87.3181 2.1214 0.0000 12.1972 0.0000
# 3 -6.4419 2.1214 86.5356 0.0000 11.6293 0.0000
# 4 0.0000 0.0000 0.0000 38.3717 0.0000 10.3982
# 5 10.4751 12.1972 11.6293 0.0000 35.7481 0.0000
# 6 0.0000 0.0000 0.0000 10.3982 0.0000 28.2466
#
#
#
# Elastic Compliance Matrix: (Units=1/GPa)
#
#
# Indices 1 2 3 4 5 6 
#
# 1 0.017066 0.001698 0.002069 0.000000 -0.006253 0.000000
# 2 0.001698 0.012200 0.000474 0.000000 -0.004814 0.000000
# 3 0.002069 0.000474 0.012341 0.000000 -0.004783 0.000000
# 4 0.000000 0.000000 0.000000 0.028949 0.000000 -0.010657
# 5 -0.006253 -0.004814 -0.004783 0.000000 0.033004 0.000000
# 6 0.000000 0.000000 0.000000 -0.010657 0.000000 0.039325
#
#
# Mechanical properties :
#
#
# Convention : Reuss Voigt Hill
#
# Bulk Modulus (GPa) = 19.96432 24.43617 22.20024
# Shear Modulus (GPa) = 33.09064 36.89389 34.99227
#
# Velocity S-wave (km/s) = 3.57269 3.77242 3.67391
# Velocity P-wave (km/s) = 4.97189 5.32922 5.15365
#
# Compressibility (1/GPa) = 0.05008936
#
# Stress axis : x y z
#
# Youngs Moduli (GPa) = 58.59670 81.96477 81.03008
#
# Poissons Ratio (x) = -0.13914 -0.16766
# Poissons Ratio (y) = -0.09947 -0.03843
# Poissons Ratio (z) = -0.12124 -0.03888
#
# Static dielectric constant tensor:
#      x y z
#    x 2.096010 0.000000 -0.030790 
#    y 0.000000 2.345000 0.000000 
#    z -0.030790 0.000000 2.196050 
# 
# From -- ./inp_files/178453.got.cif
#   From: 2010.05.17/outbox.cif.g08.bks.cpg/sg15_90_cif.got.tgz:178453.got - 2010.06.03 18:47:42.
