data_PCOD9274440
_publ_section_title
;
Structure prediction by ZEFSAII (Michael W. Deem and Ramdas Pophale) SiO2 
 PCOD9274440
Probable space group: C 2/C
;
_chemical_formula_sum "Si O2"
_cell_formula_units_Z 44
_cell_length_a 14.012376
_cell_length_b 30.332757
_cell_length_c 5.032656
_cell_angle_alpha 90.000000
_cell_angle_beta 62.942981
_cell_angle_gamma 90.000000
_cell_volume 1904.940048
_symmetry_space_group_name_H-M "C 2/C"
_symmetry_group_IT_number 15
_symmetry_cell_setting 'monoclinic'
loop_
_space_group_symop_operation_xyz
x,y,z
-x,y,1/2-z
-x,-y,-z
x,-y,1/2+z
1/2+x,1/2+y,z
1/2-x,1/2+y,1/2-z
1/2-x,1/2-y,-z
1/2+x,1/2-y,1/2+z
loop_
_atom_site_type_symbol
_atom_site_label
_atom_site_fract_x
_atom_site_fract_y
_atom_site_fract_z
Si Si1 0.199370 0.842736 0.730681
Si Si2 0.000000 0.032146 0.750000
Si Si3 0.764832 0.969128 0.542647
Si Si4 0.500000 0.694552 0.250000
Si Si5 0.162406 0.733584 0.323439
Si Si6 0.000000 0.667742 0.250000
Si Si7 0.800741 0.383603 0.118349
O O1 0.266847 0.797796 0.572406
O O2 0.237039 0.879883 0.474518
O O3 0.073777 0.833885 0.853492
O O4 0.235708 0.855175 0.980343
O O5 0.116356 0.053862 0.616122
O O6 0.000000 0.000000 0.500000
O O7 0.688263 0.931274 0.530196
O O8 0.755652 0.990620 0.843922
O O9 0.412931 0.726112 0.497372
O O10 0.074489 0.699326 0.326668
O O11 0.250000 0.750000 0.000000
O O12 0.917212 0.637441 0.513998
#
# Coordination Sequence:
#
# PCOD9274440 Si02
#       7
#     8   4   8   4   8   4   8
#     4  11  25  40  60  92 127 166 208 259 325 380
#     4   8  16  30  53  81 110 144 186 238 302 359
#     4  10  20  38  63  90 119 158 208 260 313 386
#     4  12  22  38  63  92 127 168 215 272 316 376
#     4  11  22  40  65  93 126 173 226 269 311 385
#     4  10  22  40  64  89 127 174 209 262 334 377
#     4  11  24  43  62  91 129 165 209 264 325 393
#
# _framework density 23.097840000000001
#
# number of rings (size 3 to 8) (size 9 to 14) (size 15 to 20)
#    0.000    1.455    0.000    6.000    0.000    5.818 
#    0.000    2.727    0.000    0.000    0.000    0.000 
#    0.000    0.000    0.000    0.000    0.000    0.000 
#
# Total GULP energy -122877.305794 kJ/mol
# GULP energy per Si atom -5585.332082 kJ/mol
# Density = 2.304527 g / cm^3
# Si number density = 23.097840 Si / 1000 Ang^3
#
#
#
# Elastic Constant Matrix: (Units=GPa)
#
#
# Indices 1 2 3 4 5 6 
#
# 1 142.6663 25.5261 29.3808 0.0000 -17.3567 0.0000
# 2 25.5261 66.7090 0.7741 0.0000 -12.8986 0.0000
# 3 29.3808 0.7741 78.8886 0.0000 -1.3893 0.0000
# 4 0.0000 0.0000 0.0000 28.1374 0.0000 8.0845
# 5 -17.3567 -12.8986 -1.3893 0.0000 35.0653 0.0000
# 6 0.0000 0.0000 0.0000 8.0845 0.0000 40.3319
#
#
#
# Elastic Compliance Matrix: (Units=1/GPa)
#
#
# Indices 1 2 3 4 5 6 
#
# 1 0.008491 -0.002610 -0.003082 0.000000 0.003121 0.000000
# 2 -0.002610 0.016941 0.000893 0.000000 0.004975 0.000000
# 3 -0.003082 0.000893 0.013804 0.000000 -0.000650 0.000000
# 4 0.000000 0.000000 0.000000 0.037712 0.000000 -0.007559
# 5 0.003121 0.004975 -0.000650 0.000000 0.031867 0.000000
# 6 0.000000 0.000000 0.000000 -0.007559 0.000000 0.026310
#
#
# Mechanical properties :
#
#
# Convention : Reuss Voigt Hill
#
# Bulk Modulus (GPa) = 33.73951 44.40288 39.07119
# Shear Modulus (GPa) = 32.34171 36.21245 34.27708
#
# Velocity S-wave (km/s) = 3.74599 3.96382 3.85644
# Velocity P-wave (km/s) = 5.77485 6.34151 6.06480
#
# Compressibility (1/GPa) = 0.02963884
#
# Stress axis : x y z
#
# Youngs Moduli (GPa) = 117.77738 59.02935 72.44491
#
# Poissons Ratio (x) = 0.15405 0.22325
# Poissons Ratio (y) = 0.30737 -0.06472
# Poissons Ratio (z) = 0.36295 -0.05273
#
# Static dielectric constant tensor:
#      x y z
#    x 2.202820 0.000000 0.137980 
#    y 0.000000 1.938370 0.000000 
#    z 0.137980 0.000000 1.944850 
# 
# From -- ./inp_files/8628.got.cif
#   From: 2010.05.17/outbox.cif.g08.bks.cpg/sg15_5_cif.got.tgz:8628.got - 2010.06.03 18:47:42.
