data_PCOD9274579
_publ_section_title
;
Structure prediction by ZEFSAII (Michael W. Deem and Ramdas Pophale) SiO2 
 PCOD9274579
Probable space group: C 2/C
;
_chemical_formula_sum "Si O2"
_cell_formula_units_Z 44
_cell_length_a 12.020244
_cell_length_b 14.048674
_cell_length_c 26.847075
_cell_angle_alpha 90.000000
_cell_angle_beta 148.947126
_cell_angle_gamma 90.000000
_cell_volume 2338.574666
_symmetry_space_group_name_H-M "C 2/C"
_symmetry_group_IT_number 15
_symmetry_cell_setting 'monoclinic'
loop_
_space_group_symop_operation_xyz
x,y,z
-x,y,1/2-z
-x,-y,-z
x,-y,1/2+z
1/2+x,1/2+y,z
1/2-x,1/2+y,1/2-z
1/2-x,1/2-y,-z
1/2+x,1/2-y,1/2+z
loop_
_atom_site_type_symbol
_atom_site_label
_atom_site_fract_x
_atom_site_fract_y
_atom_site_fract_z
Si Si1 0.413596 0.938638 0.848974
Si Si2 0.463158 0.144355 0.603274
Si Si3 0.706753 0.180610 0.529007
Si Si4 0.591820 0.759566 0.729948
Si Si5 0.811995 0.289183 0.944542
Si Si6 0.500000 0.604149 0.250000
O O1 0.407161 0.853402 0.805577
O O2 0.183650 0.948862 0.788792
O O3 0.475354 0.041629 0.852475
O O4 0.590450 0.909278 0.958983
O O5 0.670656 0.213829 0.678987
O O6 0.283050 0.195027 0.567295
O O7 0.369607 0.139321 0.511469
O O8 0.750000 0.250000 0.500000
O O9 0.528312 0.226126 0.496563
O O10 0.929233 0.180041 0.644456
O O11 0.500000 0.781585 0.750000
O O12 0.633640 0.331781 0.839720
#
# Coordination Sequence:
#
# PCOD9274579 Si02
#       6
#     8   8   8   8   8   4
#     4  10  23  39  60  92 119 159 206 248 298 359
#     4  11  23  39  64  89 123 158 203 247 306 353
#     4   9  20  39  61  84 123 160 199 247 301 350
#     4  11  21  42  60  88 123 164 197 249 299 359
#     4  10  21  40  62  88 121 162 197 250 305 353
#     4  10  20  38  64  86 124 154 202 254 294 354
#
# _framework density 18.814879999999999
#
# number of rings (size 3 to 8) (size 9 to 14) (size 15 to 20)
#    0.000    1.818    3.636    0.000    1.273    4.364 
#    1.636    3.636    0.000    0.000    0.000    0.000 
#    0.000    0.000    0.000    0.000    0.000    0.000 
#
# Total GULP energy -122649.894023 kJ/mol
# GULP energy per Si atom -5574.995183 kJ/mol
# Density = 1.877206 g / cm^3
# Si number density = 18.814880 Si / 1000 Ang^3
#
#
#
# Elastic Constant Matrix: (Units=GPa)
#
#
# Indices 1 2 3 4 5 6 
#
# 1 61.6388 22.3271 -3.1654 0.0000 -1.8702 0.0000
# 2 22.3271 84.9124 15.6669 0.0000 1.8722 0.0000
# 3 -3.1654 15.6669 83.1594 0.0002 -15.2622 0.0000
# 4 0.0000 0.0000 0.0002 13.1232 0.0001 -1.9327
# 5 -1.8702 1.8722 -15.2622 0.0001 28.6742 0.0000
# 6 0.0000 0.0000 0.0000 -1.9327 0.0000 -2.4003
#
#
#
# Elastic Compliance Matrix: (Units=1/GPa)
#
#
# Indices 1 2 3 4 5 6 
#
# 1 0.018332 -0.005284 0.002190 0.000000 0.002706 0.000000
# 2 -0.005284 0.013855 -0.003370 0.000000 -0.003043 0.000000
# 3 0.002190 -0.003370 0.014197 0.000000 0.007919 0.000000
# 4 0.000000 0.000000 0.000000 0.068123 0.000000 -0.054852
# 5 0.002706 -0.003043 0.007919 0.000000 0.039465 0.000000
# 6 0.000000 0.000000 0.000000 -0.054852 0.000000 -0.372445
#
#
# Mechanical properties :
#
#
# Convention : Reuss Voigt Hill
#
# Bulk Modulus (GPa) = 29.88985 33.26309 31.57647
# Shear Modulus (GPa) = -25.72098 20.87154 -2.42472
#
# Velocity S-wave (km/s) = -3.70138 3.33424 -1.13645
# Velocity P-wave (km/s) = 1.53173 5.70442 3.88550
#
# Compressibility (1/GPa) = 0.03345617
#
# Stress axis : x y z
#
# Youngs Moduli (GPa) = 54.54899 72.17557 70.43871
#
# Poissons Ratio (x) = 0.38138 -0.15426
# Poissons Ratio (y) = 0.28824 0.23737
# Poissons Ratio (z) = -0.11946 0.24322
#
# Static dielectric constant tensor:
#      x y z
#    x 1.614370 0.000000 0.019110 
#    y 0.000000 1.614180 0.000000 
#    z 0.019110 0.000000 1.661710 
# 
# From -- ./inp_files/86066.got.cif
#   From: 2010.05.17/outbox.cif.g08.bks.cpg/sg15_44_cif.got.tgz:86066.got - 2010.06.03 18:47:42.
