data_PCOD9274186
_publ_section_title
;
Structure prediction by ZEFSAII (Michael W. Deem and Ramdas Pophale) SiO2 
 PCOD9274186
Probable space group: C 2/C
;
_chemical_formula_sum "Si O2"
_cell_formula_units_Z 40
_cell_length_a 21.407454
_cell_length_b 12.338128
_cell_length_c 15.232780
_cell_angle_alpha 90.000000
_cell_angle_beta 22.002853
_cell_angle_gamma 90.000000
_cell_volume 1507.378785
_symmetry_space_group_name_H-M "C 2/C"
_symmetry_group_IT_number 15
_symmetry_cell_setting 'monoclinic'
loop_
_space_group_symop_operation_xyz
x,y,z
-x,y,1/2-z
-x,-y,-z
x,-y,1/2+z
1/2+x,1/2+y,z
1/2-x,1/2+y,1/2-z
1/2-x,1/2-y,-z
1/2+x,1/2-y,1/2+z
loop_
_atom_site_type_symbol
_atom_site_label
_atom_site_fract_x
_atom_site_fract_y
_atom_site_fract_z
Si Si1 0.755019 0.111569 0.926521
Si Si2 0.609340 0.457622 0.995271
Si Si3 0.658308 0.078061 0.447851
Si Si4 0.709186 0.310945 0.323419
Si Si5 0.058248 0.384811 0.842321
O O1 0.784012 0.167121 0.792826
O O2 0.681407 0.988922 0.006855
O O3 0.620979 0.162884 0.167380
O O4 0.930632 0.091100 0.744737
O O5 0.655717 0.434418 0.833867
O O6 0.624488 0.586620 0.981019
O O7 0.769233 0.404369 0.833078
O O8 0.627430 0.203794 0.471430
O O9 0.532314 0.000515 0.557847
O O10 0.909987 0.315913 0.078750
#
# Coordination Sequence:
#
# PCOD9274186 Si02
#       5
#     8   8   8   8   8
#     4  10  21  40  61  88 122 156 196 250 299 346
#     4  10  21  36  59  88 122 160 198 240 297 362
#     4  10  20  38  62  85 115 163 205 241 292 359
#     4  10  20  38  62  85 115 163 205 241 292 359
#     4  10  21  40  61  88 122 156 196 250 299 346
#
# _framework density 26.536131999999998
#
# number of rings (size 3 to 8) (size 9 to 14) (size 15 to 20)
#    0.000    2.400    0.000    7.800    0.000    6.400 
#    0.000   12.000    0.000    0.000    0.000    0.000 
#    0.000    0.000    0.000    0.000    0.000    0.000 
#
# Total GULP energy -111650.621992 kJ/mol
# GULP energy per Si atom -5582.531100 kJ/mol
# Density = 2.647574 g / cm^3
# Si number density = 26.536132 Si / 1000 Ang^3
#
#
#
# Elastic Constant Matrix: (Units=GPa)
#
#
# Indices 1 2 3 4 5 6 
#
# 1 80.4067 13.0556 36.9725 0.0000 -30.3361 0.0000
# 2 13.0556 219.9302 24.7899 -0.0001 -14.2742 0.0000
# 3 36.9725 24.7899 138.0959 -0.0001 -21.1431 0.0000
# 4 0.0000 -0.0001 -0.0001 25.4655 0.0001 -4.7540
# 5 -30.3361 -14.2742 -21.1431 0.0001 54.5181 0.0000
# 6 0.0000 0.0000 0.0000 -4.7540 0.0000 3.8824
#
#
#
# Elastic Compliance Matrix: (Units=1/GPa)
#
#
# Indices 1 2 3 4 5 6 
#
# 1 0.017057 -0.000110 -0.003294 0.000000 0.008185 0.000000
# 2 -0.000110 0.004688 -0.000674 0.000000 0.000905 0.000000
# 3 -0.003294 -0.000674 0.008437 0.000000 0.001263 0.000000
# 4 0.000000 0.000000 0.000000 0.050905 0.000000 0.062333
# 5 0.008185 0.000905 0.001263 0.000000 0.023624 0.000000
# 6 0.000000 0.000000 0.000000 0.062333 0.000000 0.333899
#
#
# Mechanical properties :
#
#
# Convention : Reuss Voigt Hill
#
# Bulk Modulus (GPa) = 45.39660 65.34098 55.36879
# Shear Modulus (GPa) = 11.01059 41.01419 26.01239
#
# Velocity S-wave (km/s) = 2.03919 3.93567 3.13431
# Velocity P-wave (km/s) = 4.76330 6.73272 5.83175
#
# Compressibility (1/GPa) = 0.02202808
#
# Stress axis : x y z
#
# Youngs Moduli (GPa) = 58.62579 213.30652 118.51868
#
# Poissons Ratio (x) = 0.02347 0.39038
# Poissons Ratio (y) = 0.00645 0.07983
# Poissons Ratio (z) = 0.19310 0.14367
#
# Static dielectric constant tensor:
#      x y z
#    x 2.345240 0.000000 0.064330 
#    y 0.000000 2.212860 0.000000 
#    z 0.064330 0.000000 2.059990 
# 
# From -- ./inp_files/219557.got.cif
#   From: 2010.05.17/outbox.cif.g08.bks.cpg/sg15_110_cif.got.tgz:219557.got - 2010.06.03 18:47:42.
