data_PCOD9274368
_publ_section_title
;
Structure prediction by ZEFSAII (Michael W. Deem and Ramdas Pophale) SiO2 
 PCOD9274368
Probable space group: C 2/C
;
_chemical_formula_sum "Si O2"
_cell_formula_units_Z 60
_cell_length_a 17.200955
_cell_length_b 28.254277
_cell_length_c 11.112231
_cell_angle_alpha 90.000000
_cell_angle_beta 31.965644
_cell_angle_gamma 90.000000
_cell_volume 2859.108912
_symmetry_space_group_name_H-M "C 2/C"
_symmetry_group_IT_number 15
_symmetry_cell_setting 'monoclinic'
loop_
_space_group_symop_operation_xyz
x,y,z
-x,y,1/2-z
-x,-y,-z
x,-y,1/2+z
1/2+x,1/2+y,z
1/2-x,1/2+y,1/2-z
1/2-x,1/2-y,-z
1/2+x,1/2-y,1/2+z
loop_
_atom_site_type_symbol
_atom_site_label
_atom_site_fract_x
_atom_site_fract_y
_atom_site_fract_z
Si Si1 0.759618 0.988284 0.789593
Si Si2 0.687689 0.600002 0.143896
Si Si3 0.795689 0.354011 0.264425
Si Si4 0.886190 0.087697 0.658569
Si Si5 0.368753 0.156596 0.094093
Si Si6 0.756628 0.915681 0.571788
Si Si7 0.837923 0.242865 0.508498
Si Si8 0.000000 0.460897 0.750000
O O1 0.795051 0.955987 0.859656
O O2 0.773925 0.954110 0.655984
O O3 0.862652 0.033990 0.645089
O O4 0.597229 0.007694 0.030528
O O5 0.531574 0.610664 0.411406
O O6 0.818326 0.625012 0.046745
O O7 0.703600 0.619156 0.989619
O O8 0.755931 0.383169 0.198620
O O9 0.736187 0.301116 0.328900
O O10 0.963536 0.351852 0.086711
O O11 0.883517 0.085972 0.805711
O O12 0.271394 0.135012 0.329531
O O13 0.344635 0.210207 0.081589
O O14 0.613442 0.931918 0.683539
O O15 0.750000 0.250000 0.500000
O O16 0.000000 0.230820 0.250000
#
# Coordination Sequence:
#
# PCOD9274368 Si02
#       8
#     8   8   8   8   8   8   8   4
#     4  10  23  36  64  90 130 171 224 269 320 381
#     4  11  23  40  63  97 129 170 221 269 328 380
#     4  12  25  41  69  99 133 164 223 274 325 386
#     4  11  25  43  62  94 132 181 214 269 321 389
#     4  11  23  41  68  98 129 168 207 275 334 389
#     4  10  23  42  63  91 134 175 220 263 328 392
#     4  12  22  42  68 102 133 162 211 276 334 385
#     4  10  20  38  62  96 126 174 224 272 316 376
#
# _framework density 20.985558999999999
#
# number of rings (size 3 to 8) (size 9 to 14) (size 15 to 20)
#    0.000    1.067    2.667    4.000    7.467    2.133 
#    2.400    0.667    0.000    1.600    0.000    0.000 
#    0.000    0.000    0.000    0.000    0.000    0.000 
#
# Total GULP energy -167679.264121 kJ/mol
# GULP energy per Si atom -5589.308804 kJ/mol
# Density = 2.093779 g / cm^3
# Si number density = 20.985559 Si / 1000 Ang^3
#
#
#
# Elastic Constant Matrix: (Units=GPa)
#
#
# Indices 1 2 3 4 5 6 
#
# 1 101.3937 42.2883 38.8158 0.0003 -0.1246 -0.0009
# 2 42.2883 120.3057 23.2772 0.0002 2.4672 -0.0003
# 3 38.8158 23.2772 89.7745 -0.0004 0.9178 -0.0011
# 4 0.0003 0.0002 -0.0004 24.4048 0.0000 2.6958
# 5 -0.1246 2.4672 0.9178 0.0000 40.6074 0.0007
# 6 -0.0009 -0.0003 -0.0011 2.6958 0.0007 38.4188
#
#
#
# Elastic Compliance Matrix: (Units=1/GPa)
#
#
# Indices 1 2 3 4 5 6 
#
# 1 0.013247 -0.003743 -0.004761 0.000000 0.000376 0.000000
# 2 -0.003743 0.009818 -0.000921 0.000000 -0.000587 0.000000
# 3 -0.004761 -0.000921 0.013439 0.000000 -0.000262 0.000000
# 4 0.000000 0.000000 0.000000 0.041296 0.000000 -0.002898
# 5 0.000376 -0.000587 -0.000262 0.000000 0.024669 0.000000
# 6 0.000000 0.000000 0.000000 -0.002898 0.000000 0.026232
#
#
# Mechanical properties :
#
#
# Convention : Reuss Voigt Hill
#
# Bulk Modulus (GPa) = 56.64548 57.80404 57.22476
# Shear Modulus (GPa) = 32.58707 34.49237 33.53972
#
# Velocity S-wave (km/s) = 3.94488 4.05856 4.00212
# Velocity P-wave (km/s) = 6.91380 7.04039 6.97738
#
# Compressibility (1/GPa) = 0.01765366
#
# Stress axis : x y z
#
# Youngs Moduli (GPa) = 75.49120 101.85262 74.41014
#
# Poissons Ratio (x) = 0.38122 0.35425
# Poissons Ratio (y) = 0.28255 0.06856
# Poissons Ratio (z) = 0.35940 0.09385
#
# Static dielectric constant tensor:
#      x y z
#    x 1.759240 0.000000 -0.014700 
#    y 0.000000 1.751390 0.000000 
#    z -0.014700 0.000000 1.782210 
# 
# From -- ./inp_files/108397.got.cif
#   From: 2010.05.17/outbox.cif.g08.bks.cpg/sg15_55_cif.got.tgz:108397.got - 2010.06.03 18:47:42.
