data_PCOD9274760
_publ_section_title
;
Structure prediction by ZEFSAII (Michael W. Deem and Ramdas Pophale) SiO2 
 PCOD9274760
Probable space group: C 2/C
;
_chemical_formula_sum "Si O2"
_cell_formula_units_Z 32
_cell_length_a 11.520005
_cell_length_b 7.948800
_cell_length_c 15.112973
_cell_angle_alpha 90.000000
_cell_angle_beta 73.839852
_cell_angle_gamma 90.000000
_cell_volume 1329.216928
_symmetry_space_group_name_H-M "C 2/C"
_symmetry_group_IT_number 15
_symmetry_cell_setting 'monoclinic'
loop_
_space_group_symop_operation_xyz
x,y,z
-x,y,1/2-z
-x,-y,-z
x,-y,1/2+z
1/2+x,1/2+y,z
1/2-x,1/2+y,1/2-z
1/2-x,1/2-y,-z
1/2+x,1/2-y,1/2+z
loop_
_atom_site_type_symbol
_atom_site_label
_atom_site_fract_x
_atom_site_fract_y
_atom_site_fract_z
Si Si1 0.735398 0.941082 0.470923
Si Si2 0.879749 0.606467 0.158288
Si Si3 0.998816 0.058655 0.898492
Si Si4 0.761832 0.568931 0.835416
O O1 0.750000 0.750000 0.500000
O O2 0.864693 0.986183 0.397896
O O3 0.634597 0.978362 0.419687
O O4 0.716766 0.045516 0.564868
O O5 0.863870 0.510728 0.253302
O O6 0.767681 0.737971 0.176910
O O7 0.987244 0.739881 0.120995
O O8 0.128549 0.989745 0.838829
O O9 0.000000 0.000000 0.000000
#
# Coordination Sequence:
#
# PCOD9274760 Si02
#       4
#     8   8   8   8
#     4  11  21  37  63  89 124 168 209 263 329 380
#     4  10  20  38  65  85 129 167 213 266 321 378
#     4   8  20  37  61  86 120 160 215 253 320 380
#     4   9  20  38  57  88 121 160 212 262 313 381
#
# _framework density 24.074324000000001
#
# number of rings (size 3 to 8) (size 9 to 14) (size 15 to 20)
#    1.500    1.000    0.000    2.250    0.000    2.000 
#    0.000    0.000    5.500    0.000    0.000    0.000 
#    0.000    0.000    0.000    0.000    0.000    0.000 
#
# Total GULP energy -89131.070258 kJ/mol
# GULP energy per Si atom -5570.691891 kJ/mol
# Density = 2.401953 g / cm^3
# Si number density = 24.074324 Si / 1000 Ang^3
#
#
#
# Elastic Constant Matrix: (Units=GPa)
#
#
# Indices 1 2 3 4 5 6 
#
# 1 71.2398 -2.2373 40.5288 0.0000 -15.8807 0.0000
# 2 -2.2373 59.4097 34.4319 0.0000 -4.3457 0.0000
# 3 40.5288 34.4319 122.5511 0.0000 -7.6778 0.0000
# 4 0.0000 0.0000 0.0000 46.2600 0.0000 -3.1028
# 5 -15.8807 -4.3457 -7.6778 0.0000 13.8104 0.0000
# 6 0.0000 0.0000 0.0000 -3.1028 0.0000 25.4166
#
#
#
# Elastic Compliance Matrix: (Units=1/GPa)
#
#
# Indices 1 2 3 4 5 6 
#
# 1 0.025370 0.008126 -0.008998 0.000000 0.026727 0.000000
# 2 0.008126 0.022855 -0.008364 0.000000 0.011886 0.000000
# 3 -0.008998 -0.008364 0.013130 0.000000 -0.005680 0.000000
# 4 0.000000 0.000000 0.000000 0.021795 0.000000 0.002661
# 5 0.026727 0.011886 -0.005680 0.000000 0.103725 0.000000
# 6 0.000000 0.000000 0.000000 0.002661 0.000000 0.039669
#
#
# Mechanical properties :
#
#
# Convention : Reuss Voigt Hill
#
# Bulk Modulus (GPa) = 23.32037 44.29416 33.80726
# Shear Modulus (GPa) = 19.28180 29.12919 24.20550
#
# Velocity S-wave (km/s) = 2.83314 3.48223 3.17432
# Velocity P-wave (km/s) = 4.51775 5.88276 5.24485
#
# Compressibility (1/GPa) = 0.04288097
#
# Stress axis : x y z
#
# Youngs Moduli (GPa) = 39.41741 43.75373 76.16244
#
# Poissons Ratio (x) = -0.35553 0.68535
# Poissons Ratio (y) = -0.32029 0.63702
# Poissons Ratio (z) = 0.35470 0.36596
#
# Static dielectric constant tensor:
#      x y z
#    x 1.985770 0.000000 -0.031930 
#    y 0.000000 1.938240 0.000000 
#    z -0.031930 0.000000 1.902280 
# 
# From -- ./inp_files/149798.got.cif
#   From: 2010.05.17/outbox.cif.g08.bks.cpg/sg15_75_cif.got.tgz:149798.got - 2010.06.03 18:47:42.
