data_PCOD9274664
_publ_section_title
;
Structure prediction by ZEFSAII (Michael W. Deem and Ramdas Pophale) SiO2 
 PCOD9274664
Probable space group: C 2/C
;
_chemical_formula_sum "Si O2"
_cell_formula_units_Z 60
_cell_length_a 23.284775
_cell_length_b 8.786963
_cell_length_c 17.941384
_cell_angle_alpha 90.000000
_cell_angle_beta 55.668135
_cell_angle_gamma 90.000000
_cell_volume 3031.333016
_symmetry_space_group_name_H-M "C 2/C"
_symmetry_group_IT_number 15
_symmetry_cell_setting 'monoclinic'
loop_
_space_group_symop_operation_xyz
x,y,z
-x,y,1/2-z
-x,-y,-z
x,-y,1/2+z
1/2+x,1/2+y,z
1/2-x,1/2+y,1/2-z
1/2-x,1/2-y,-z
1/2+x,1/2-y,1/2+z
loop_
_atom_site_type_symbol
_atom_site_label
_atom_site_fract_x
_atom_site_fract_y
_atom_site_fract_z
Si Si1 0.810997 0.167244 0.279892
Si Si2 0.426102 0.091357 0.262260
Si Si3 0.500000 0.641729 0.250000
Si Si4 0.025865 0.828606 0.472402
Si Si5 0.655272 0.160968 0.426894
Si Si6 0.133951 0.317288 0.112284
Si Si7 0.910822 0.095438 0.722039
Si Si8 0.089084 0.600671 0.877631
O O1 0.728561 0.173616 0.331439
O O2 0.827119 0.216281 0.354002
O O3 0.852106 0.285396 0.197404
O O4 0.844595 0.000249 0.242499
O O5 0.500000 0.101088 0.250000
O O6 0.392868 0.259338 0.284581
O O7 0.376117 0.982334 0.345509
O O8 0.432731 0.003587 0.177466
O O9 0.556009 0.744718 0.166049
O O10 0.542419 0.532932 0.273590
O O11 0.101505 0.797378 0.451246
O O12 0.040649 0.821926 0.374007
O O13 0.972607 0.706364 0.545220
O O14 0.000000 0.000000 0.500000
O O15 0.665721 0.164873 0.507817
O O16 0.617649 0.011057 0.420920
#
# Coordination Sequence:
#
# PCOD9274664 Si02
#       8
#     8   8   4   8   8   8   8   8
#     4  10  25  45  62  91 134 176 211 258 328 393
#     4  11  21  38  63  92 130 163 215 267 328 372
#     4  10  20  38  64  92 128 164 212 260 334 370
#     4  12  24  40  64  97 129 157 220 270 316 377
#     4  12  25  41  69  92 133 169 217 263 328 380
#     4  10  22  40  65  91 126 172 216 263 315 390
#     4  11  22  38  62  93 128 165 210 269 318 380
#     4  11  25  40  64  96 129 170 216 267 323 383
#
# _framework density 19.793272000000002
#
# number of rings (size 3 to 8) (size 9 to 14) (size 15 to 20)
#    0.000    1.067    4.000    2.400    5.600    0.000 
#    0.000    2.000    0.000    0.000    0.000    0.000 
#    0.000    0.000    0.000    0.000    0.000    0.000 
#
# Total GULP energy -167436.257900 kJ/mol
# GULP energy per Si atom -5581.208597 kJ/mol
# Density = 1.974822 g / cm^3
# Si number density = 19.793272 Si / 1000 Ang^3
#
#
#
# Elastic Constant Matrix: (Units=GPa)
#
#
# Indices 1 2 3 4 5 6 
#
# 1 56.4884 32.8478 26.8015 0.0001 -24.1916 -0.0001
# 2 32.8478 133.1441 32.3473 0.0005 -18.1044 -0.0005
# 3 26.8015 32.3473 96.1577 0.0002 -12.6623 -0.0001
# 4 0.0001 0.0005 0.0002 19.2565 -0.0001 8.1926
# 5 -24.1916 -18.1044 -12.6623 -0.0001 37.7720 0.0001
# 6 -0.0001 -0.0005 -0.0001 8.1926 0.0001 17.9144
#
#
#
# Elastic Compliance Matrix: (Units=1/GPa)
#
#
# Indices 1 2 3 4 5 6 
#
# 1 0.028547 -0.003883 -0.004695 0.000000 0.014848 0.000000
# 2 -0.003883 0.009079 -0.001806 0.000000 0.001259 0.000000
# 3 -0.004695 -0.001806 0.012351 0.000000 0.000268 0.000000
# 4 0.000000 0.000000 0.000000 0.064475 0.000000 -0.029485
# 5 0.014848 0.001259 0.000268 0.000000 0.036678 0.000000
# 6 0.000000 0.000000 0.000000 -0.029485 0.000000 0.069305
#
#
# Mechanical properties :
#
#
# Convention : Reuss Voigt Hill
#
# Bulk Modulus (GPa) = 34.23678 52.19816 43.21747
# Shear Modulus (GPa) = 19.92511 27.90816 23.91664
#
# Velocity S-wave (km/s) = 3.17623 3.75905 3.47986
# Velocity P-wave (km/s) = 5.54851 6.72826 6.16666
#
# Compressibility (1/GPa) = 0.02920835
#
# Stress axis : x y z
#
# Youngs Moduli (GPa) = 35.02937 110.14900 80.96483
#
# Poissons Ratio (x) = 0.42773 0.38016
# Poissons Ratio (y) = 0.13602 0.14621
# Poissons Ratio (z) = 0.16447 0.19892
#
# Static dielectric constant tensor:
#      x y z
#    x 1.747410 0.000000 0.055510 
#    y 0.000000 1.785430 0.000000 
#    z 0.055510 0.000000 1.794520 
# 
# From -- ./inp_files/214272.got.cif
#   From: 2010.05.17/outbox.cif.g08.bks.cpg/sg15_108_cif.got.tgz:214272.got - 2010.06.03 18:47:42.
