data_PCOD9274749
_publ_section_title
;
Structure prediction by ZEFSAII (Michael W. Deem and Ramdas Pophale) SiO2 
 PCOD9274749
Probable space group: C 2/C
;
_chemical_formula_sum "Si O2"
_cell_formula_units_Z 48
_cell_length_a 9.408235
_cell_length_b 18.912364
_cell_length_c 21.788281
_cell_angle_alpha 90.000000
_cell_angle_beta 136.625081
_cell_angle_gamma 90.000000
_cell_volume 2662.489307
_symmetry_space_group_name_H-M "C 2/C"
_symmetry_group_IT_number 15
_symmetry_cell_setting 'monoclinic'
loop_
_space_group_symop_operation_xyz
x,y,z
-x,y,1/2-z
-x,-y,-z
x,-y,1/2+z
1/2+x,1/2+y,z
1/2-x,1/2+y,1/2-z
1/2-x,1/2-y,-z
1/2+x,1/2-y,1/2+z
loop_
_atom_site_type_symbol
_atom_site_label
_atom_site_fract_x
_atom_site_fract_y
_atom_site_fract_z
Si Si1 0.980892 0.945077 0.313750
Si Si2 0.272376 0.166401 0.504203
Si Si3 0.065348 0.581664 0.506124
Si Si4 0.646581 0.582785 0.150800
Si Si5 0.522982 0.069664 0.351089
Si Si6 0.456758 0.096163 0.808545
O O1 0.786547 0.891829 0.255172
O O2 0.000000 0.974284 0.250000
O O3 0.198779 0.910839 0.398447
O O4 0.936645 0.007525 0.349104
O O5 0.250000 0.250000 0.500000
O O6 0.419509 0.134810 0.497284
O O7 0.383014 0.140625 0.601468
O O8 0.048703 0.131993 0.421789
O O9 0.000000 0.500000 0.500000
O O10 0.049720 0.593218 0.428719
O O11 0.776330 0.578053 0.128662
O O12 0.821844 0.604139 0.255664
O O13 0.484055 0.985346 0.337807
O O14 0.500000 0.101368 0.750000
#
# Coordination Sequence:
#
# PCOD9274749 Si02
#       6
#     8   8   8   8   8   8
#     4  11  19  34  63 100 125 151 207 285 328 372
#     4  12  27  44  59  90 137 180 215 259 333 412
#     4  12  21  37  66  97 124 164 215 275 321 378
#     4  10  21  38  62  90 129 159 206 275 322 385
#     4  10  20  38  65 101 119 154 218 276 335 370
#     4  11  21  39  64  96 129 159 210 274 336 377
#
# _framework density 18.028241999999999
#
# number of rings (size 3 to 8) (size 9 to 14) (size 15 to 20)
#    0.000    1.000    8.333    1.000    2.333    1.333 
#    3.000    4.167    0.000    0.000    0.000    0.000 
#    0.000    0.000    0.000    0.000    0.000    0.000 
#
# Total GULP energy -133944.389883 kJ/mol
# GULP energy per Si atom -5581.016245 kJ/mol
# Density = 1.798721 g / cm^3
# Si number density = 18.028242 Si / 1000 Ang^3
#
#
#
# Elastic Constant Matrix: (Units=GPa)
#
#
# Indices 1 2 3 4 5 6 
#
# 1 129.5118 29.6324 77.6538 0.0000 3.5604 0.0000
# 2 29.6324 77.3162 60.1321 0.0000 10.6802 0.0000
# 3 77.6538 60.1321 147.7204 0.0002 10.1129 0.0001
# 4 0.0000 0.0000 0.0002 3.4211 0.0001 2.7086
# 5 3.5604 10.6802 10.1129 0.0001 53.2483 0.0000
# 6 0.0000 0.0000 0.0001 2.7086 0.0000 13.2255
#
#
#
# Elastic Compliance Matrix: (Units=1/GPa)
#
#
# Indices 1 2 3 4 5 6 
#
# 1 0.011290 0.000382 -0.006113 0.000000 0.000330 0.000000
# 2 0.000382 0.019237 -0.007868 0.000001 -0.002390 0.000000
# 3 -0.006113 -0.007868 0.013222 -0.000001 -0.000524 0.000000
# 4 0.000000 0.000001 -0.000001 0.348870 -0.000001 -0.071450
# 5 0.000330 -0.002390 -0.000524 -0.000001 0.019337 0.000000
# 6 0.000000 0.000000 0.000000 -0.071450 0.000000 0.090245
#
#
# Mechanical properties :
#
#
# Convention : Reuss Voigt Hill
#
# Bulk Modulus (GPa) = 60.42081 76.59833 68.50957
# Shear Modulus (GPa) = 9.34728 26.45431 17.90080
#
# Velocity S-wave (km/s) = 2.27949 3.83480 3.15450
# Velocity P-wave (km/s) = 6.36517 7.88592 7.16600
#
# Compressibility (1/GPa) = 0.01655059
#
# Stress axis : x y z
#
# Youngs Moduli (GPa) = 88.57252 51.98375 75.63382
#
# Poissons Ratio (x) = -0.01984 0.46235
# Poissons Ratio (y) = -0.03381 0.59507
# Poissons Ratio (z) = 0.54144 0.40899
#
# Static dielectric constant tensor:
#      x y z
#    x 1.645400 0.000000 0.013470 
#    y 0.000000 1.597390 0.000000 
#    z 0.013470 0.000000 1.644000 
# 
# From -- ./inp_files/233988.got.cif
#   From: 2010.05.17/outbox.cif.g08.bks.cpg/sg15_117_cif.got.tgz:233988.got - 2010.06.03 18:47:42.
