data_PCOD9274857
_publ_section_title
;
Structure prediction by ZEFSAII (Michael W. Deem and Ramdas Pophale) SiO2 
 PCOD9274857
Probable space group: C 2/C
;
_chemical_formula_sum "Si O2"
_cell_formula_units_Z 44
_cell_length_a 15.033519
_cell_length_b 5.556582
_cell_length_c 23.614086
_cell_angle_alpha 90.000000
_cell_angle_beta 109.928141
_cell_angle_gamma 90.000000
_cell_volume 1854.484453
_symmetry_space_group_name_H-M "C 2/C"
_symmetry_group_IT_number 15
_symmetry_cell_setting 'monoclinic'
loop_
_space_group_symop_operation_xyz
x,y,z
-x,y,1/2-z
-x,-y,-z
x,-y,1/2+z
1/2+x,1/2+y,z
1/2-x,1/2+y,1/2-z
1/2-x,1/2-y,-z
1/2+x,1/2-y,1/2+z
loop_
_atom_site_type_symbol
_atom_site_label
_atom_site_fract_x
_atom_site_fract_y
_atom_site_fract_z
Si Si1 0.000000 0.811115 0.750000
Si Si2 0.722707 0.169315 0.111375
Si Si3 0.636529 0.700143 0.827163
Si Si4 0.449681 0.249749 0.506609
Si Si5 0.804102 0.604562 0.268709
Si Si6 0.925067 0.400281 0.128110
O O1 0.996289 0.682669 0.809796
O O2 0.088739 0.981977 0.782773
O O3 0.651027 0.232407 0.046570
O O4 0.671064 0.183318 0.161659
O O5 0.816697 0.331121 0.122318
O O6 0.767944 0.900947 0.124096
O O7 0.635725 0.893084 0.776051
O O8 0.575550 0.811088 0.864998
O O9 0.500000 0.500000 0.500000
O O10 0.441641 0.223085 0.572297
O O11 0.500000 0.000000 0.500000
O O12 0.763139 0.334364 0.262410
#
# Coordination Sequence:
#
# PCOD9274857 Si02
#       6
#     4   8   8   8   8   8
#     4  10  24  40  70 112 142 188 236 312 372 442
#     4  10  24  45  73 103 143 194 247 302 368 452
#     4  10  22  40  72 106 145 190 245 306 372 448
#     4  12  32  50  73 108 149 199 252 317 372 438
#     4  10  20  38  66 106 136 175 236 297 359 426
#     4  11  24  48  75 104 147 199 249 302 375 449
#
# _framework density 23.726272999999999
#
# number of rings (size 3 to 8) (size 9 to 14) (size 15 to 20)
#    0.000    1.455    1.818    1.091   10.182    2.182 
#    3.273    0.000    0.000    0.000    0.000    0.000 
#    0.000    0.000    0.000    0.000    0.000    0.000 
#
# Total GULP energy -122532.963686 kJ/mol
# GULP energy per Si atom -5569.680168 kJ/mol
# Density = 2.367227 g / cm^3
# Si number density = 23.726273 Si / 1000 Ang^3
#
#
#
# Elastic Constant Matrix: (Units=GPa)
#
#
# Indices 1 2 3 4 5 6 
#
# 1 58.8448 35.6588 56.3529 0.0000 6.1482 0.0000
# 2 35.6588 112.4982 75.7448 0.0000 1.9520 0.0000
# 3 56.3529 75.7448 220.6914 0.0000 8.7170 0.0000
# 4 0.0000 0.0000 0.0000 29.4938 0.0000 3.1431
# 5 6.1482 1.9520 8.7170 0.0000 43.1657 0.0000
# 6 0.0000 0.0000 0.0000 3.1431 0.0000 35.1573
#
#
#
# Elastic Compliance Matrix: (Units=1/GPa)
#
#
# Indices 1 2 3 4 5 6 
#
# 1 0.024402 -0.004631 -0.004549 0.000000 -0.002348 0.000000
# 2 -0.004631 0.012443 -0.003117 0.000000 0.000726 0.000000
# 3 -0.004549 -0.003117 0.006785 0.000000 -0.000581 0.000000
# 4 0.000000 0.000000 0.000000 0.034232 0.000000 -0.003060
# 5 -0.002348 0.000726 -0.000581 0.000000 0.023585 0.000000
# 6 0.000000 0.000000 0.000000 -0.003060 0.000000 0.028717
#
#
# Mechanical properties :
#
#
# Convention : Reuss Voigt Hill
#
# Bulk Modulus (GPa) = 52.53040 80.83859 66.68450
# Shear Modulus (GPa) = 31.03609 36.51525 33.77567
#
# Velocity S-wave (km/s) = 3.62068 3.92729 3.77710
# Velocity P-wave (km/s) = 6.29820 7.39663 6.86940
#
# Compressibility (1/GPa) = 0.01903659
#
# Stress axis : x y z
#
# Youngs Moduli (GPa) = 40.98089 80.36718 147.37638
#
# Poissons Ratio (x) = 0.37221 0.67036
# Poissons Ratio (y) = 0.18980 0.45933
# Poissons Ratio (z) = 0.18641 0.25048
#
# Static dielectric constant tensor:
#      x y z
#    x 2.174220 0.000000 -0.050010 
#    y 0.000000 2.111720 0.000000 
#    z -0.050010 0.000000 1.892840 
# 
# From -- ./inp_files/246530.got.cif
#   From: 2010.05.17/outbox.cif.g08.bks.cpg/sg15_124_cif.got.tgz:246530.got - 2010.06.03 18:47:42.
