data_PCOD9274755
_publ_section_title
;
Structure prediction by ZEFSAII (Michael W. Deem and Ramdas Pophale) SiO2 
 PCOD9274755
Probable space group: C 2/C
;
_chemical_formula_sum "Si O2"
_cell_formula_units_Z 28
_cell_length_a 22.557640
_cell_length_b 7.356690
_cell_length_c 13.952949
_cell_angle_alpha 90.000000
_cell_angle_beta 150.837429
_cell_angle_gamma 90.000000
_cell_volume 1128.311485
_symmetry_space_group_name_H-M "C 2/C"
_symmetry_group_IT_number 15
_symmetry_cell_setting 'monoclinic'
loop_
_space_group_symop_operation_xyz
x,y,z
-x,y,1/2-z
-x,-y,-z
x,-y,1/2+z
1/2+x,1/2+y,z
1/2-x,1/2+y,1/2-z
1/2-x,1/2-y,-z
1/2+x,1/2-y,1/2+z
loop_
_atom_site_type_symbol
_atom_site_label
_atom_site_fract_x
_atom_site_fract_y
_atom_site_fract_z
Si Si1 0.500000 0.840389 0.750000
Si Si2 0.894341 0.600046 0.733657
Si Si3 0.749968 0.313983 0.652484
Si Si4 0.190102 0.912463 0.784792
O O1 0.379347 0.720651 0.582286
O O2 0.501560 0.973668 0.844868
O O3 0.819893 0.481059 0.704853
O O4 0.914308 0.794274 0.810635
O O5 0.807845 0.623290 0.518627
O O6 0.718606 0.344739 0.718736
O O7 0.823702 0.128256 0.739190
#
# Coordination Sequence:
#
# PCOD9274755 Si02
#       4
#     4   8   8   8
#     4  10  22  38  64  90 124 156 200 250 296 352
#     4  10  22  42  61  89 124 159 199 247 298 362
#     4  11  21  42  62  90 121 161 199 247 300 356
#     4  10  20  38  65  83 120 163 195 242 304 349
#
# _framework density 24.815843999999998
#
# number of rings (size 3 to 8) (size 9 to 14) (size 15 to 20)
#    0.000    1.714    2.857    3.429    0.000    1.143 
#    0.000   28.571    0.000    0.000    0.000    0.000 
#    0.000    0.000    0.000    0.000    0.000    0.000 
#
# Total GULP energy -78378.960918 kJ/mol
# GULP energy per Si atom -5598.497208 kJ/mol
# Density = 2.475936 g / cm^3
# Si number density = 24.815844 Si / 1000 Ang^3
#
#
#
# Elastic Constant Matrix: (Units=GPa)
#
#
# Indices 1 2 3 4 5 6 
#
# 1 112.5681 6.6412 14.4444 0.0000 -25.0298 0.0000
# 2 6.6412 92.2274 24.3826 0.0000 -8.4302 0.0000
# 3 14.4444 24.3826 70.5874 0.0000 -2.8089 0.0000
# 4 0.0000 0.0000 0.0000 -10.3333 0.0000 31.2746
# 5 -25.0298 -8.4302 -2.8089 0.0000 32.8268 0.0000
# 6 0.0000 0.0000 0.0000 31.2746 0.0000 -7.9806
#
#
#
# Elastic Compliance Matrix: (Units=1/GPa)
#
#
# Indices 1 2 3 4 5 6 
#
# 1 0.010972 0.000524 -0.002095 0.000000 0.008321 0.000000
# 2 0.000524 0.012205 -0.004197 0.000000 0.003175 0.000000
# 3 -0.002095 -0.004197 0.015993 0.000000 -0.001307 0.000000
# 4 0.000000 0.000000 0.000000 0.008911 0.000000 0.034919
# 5 0.008321 0.003175 -0.001307 0.000000 0.037511 0.000000
# 6 0.000000 0.000000 0.000000 0.034919 0.000000 0.011537
#
#
# Mechanical properties :
#
#
# Convention : Reuss Voigt Hill
#
# Bulk Modulus (GPa) = 36.18651 40.70215 38.44433
# Shear Modulus (GPa) = 42.41764 18.23021 30.32392
#
# Velocity S-wave (km/s) = 4.13885 2.71333 3.49944
# Velocity P-wave (km/s) = 6.11995 5.12381 5.64390
#
# Compressibility (1/GPa) = 0.02763461
#
# Stress axis : x y z
#
# Youngs Moduli (GPa) = 91.14415 81.93535 62.52644
#
# Poissons Ratio (x) = -0.04297 0.13100
# Poissons Ratio (y) = -0.04780 0.26241
# Poissons Ratio (z) = 0.19096 0.34386
#
# Static dielectric constant tensor:
#      x y z
#    x 1.922290 0.000000 0.008920 
#    y 0.000000 1.972830 0.000000 
#    z 0.008920 0.000000 1.991720 
# 
# From -- ./inp_files/93122.got.cif
#   From: 2010.05.17/outbox.cif.g08.bks.cpg/sg15_47_cif.got.tgz:93122.got - 2010.06.03 18:47:42.
