data_PCOD9274761
_publ_section_title
;
Structure prediction by ZEFSAII (Michael W. Deem and Ramdas Pophale) SiO2 
 PCOD9274761
Probable space group: C 2/C
;
_chemical_formula_sum "Si O2"
_cell_formula_units_Z 40
_cell_length_a 23.449614
_cell_length_b 14.480385
_cell_length_c 19.246108
_cell_angle_alpha 90.000000
_cell_angle_beta 18.095189
_cell_angle_gamma 90.000000
_cell_volume 2029.810268
_symmetry_space_group_name_H-M "C 2/C"
_symmetry_group_IT_number 15
_symmetry_cell_setting 'monoclinic'
loop_
_space_group_symop_operation_xyz
x,y,z
-x,y,1/2-z
-x,-y,-z
x,-y,1/2+z
1/2+x,1/2+y,z
1/2-x,1/2+y,1/2-z
1/2-x,1/2-y,-z
1/2+x,1/2-y,1/2+z
loop_
_atom_site_type_symbol
_atom_site_label
_atom_site_fract_x
_atom_site_fract_y
_atom_site_fract_z
Si Si1 0.224036 0.336710 0.238822
Si Si2 0.000000 0.462973 0.750000
Si Si3 0.124727 0.375775 0.202481
Si Si4 0.401425 0.629897 0.132302
Si Si5 0.000000 0.228679 0.250000
Si Si6 0.257372 0.562966 0.835770
O O1 0.131262 0.377641 0.277770
O O2 0.159509 0.386764 0.384182
O O3 0.184545 0.227835 0.286309
O O4 0.443662 0.355527 0.987287
O O5 0.906776 0.529044 0.800391
O O6 0.157322 0.413391 0.523149
O O7 0.987220 0.299516 0.329409
O O8 0.322201 0.334232 0.952078
O O9 0.268232 0.547432 0.309601
O O10 0.530168 0.594877 0.919237
#
# Coordination Sequence:
#
# PCOD9274761 Si02
#       6
#     8   4   8   8   4   8
#     4  10  20  38  65  86 112 159 201 238 291 361
#     4  11  24  38  54  80 131 156 192 245 304 326
#     4  10  21  31  56  84 118 155 184 238 302 367
#     4   9  21  40  64  85 122 149 200 246 294 344
#     4   9  20  32  46  90 125 138 186 235 304 370
#     4   9  23  41  58  88 125 151 194 258 285 348
#
# _framework density 19.706275000000002
#
# number of rings (size 3 to 8) (size 9 to 14) (size 15 to 20)
#    1.200    1.200    0.000    1.200   14.000    0.800 
#    0.000    1.000    0.000    0.000    0.000    0.000 
#    0.000    0.000    0.000    0.000    0.000    0.000 
#
# Total GULP energy -111471.715138 kJ/mol
# GULP energy per Si atom -5573.585757 kJ/mol
# Density = 1.966142 g / cm^3
# Si number density = 19.706275 Si / 1000 Ang^3
#
#
#
# Elastic Constant Matrix: (Units=GPa)
#
#
# Indices 1 2 3 4 5 6 
#
# 1 87.5578 45.1313 34.4096 -0.0004 17.3981 0.0008
# 2 45.1313 64.0713 13.7813 0.0016 1.8579 -0.0001
# 3 34.4096 13.7813 80.9881 -0.0007 27.8185 0.0014
# 4 -0.0004 0.0016 -0.0007 26.6124 0.0007 -0.8403
# 5 17.3981 1.8579 27.8185 0.0007 38.7966 -0.0005
# 6 0.0008 -0.0001 0.0014 -0.8403 -0.0005 22.2467
#
#
#
# Elastic Compliance Matrix: (Units=1/GPa)
#
#
# Indices 1 2 3 4 5 6 
#
# 1 0.021710 -0.014072 -0.004932 0.000001 -0.005526 -0.000001
# 2 -0.014072 0.025396 -0.000123 -0.000002 0.005182 0.000001
# 3 -0.004932 -0.000123 0.018180 0.000001 -0.010818 -0.000001
# 4 0.000001 -0.000002 0.000001 0.037621 -0.000002 0.001421
# 5 -0.005526 0.005182 -0.010818 -0.000002 0.035762 0.000002
# 6 -0.000001 0.000001 -0.000001 0.001421 0.000002 0.045004
#
#
# Mechanical properties :
#
#
# Convention : Reuss Voigt Hill
#
# Bulk Modulus (GPa) = 36.99110 46.58463 41.78786
# Shear Modulus (GPa) = 21.65101 26.81747 24.23424
#
# Velocity S-wave (km/s) = 3.31824 3.69299 3.51062
# Velocity P-wave (km/s) = 5.78731 6.47109 6.13873
#
# Compressibility (1/GPa) = 0.02703353
#
# Stress axis : x y z
#
# Youngs Moduli (GPa) = 46.06121 39.37681 55.00701
#
# Poissons Ratio (x) = 0.55409 0.27127
# Poissons Ratio (y) = 0.64815 0.00676
# Poissons Ratio (z) = 0.22715 0.00484
#
# Static dielectric constant tensor:
#      x y z
#    x 1.705520 0.000000 0.010740 
#    y 0.000000 1.691730 0.000000 
#    z 0.010740 0.000000 1.774570 
# 
# From -- ./inp_files/219814.got.cif
#   From: 2010.05.17/outbox.cif.g08.bks.cpg/sg15_110_cif.got.tgz:219814.got - 2010.06.03 18:47:42.
