data_PCOD9274231
_publ_section_title
;
Structure prediction by ZEFSAII (Michael W. Deem and Ramdas Pophale) SiO2 
 PCOD9274231
Probable space group: C 2/C
;
_chemical_formula_sum "Si O2"
_cell_formula_units_Z 52
_cell_length_a 22.006503
_cell_length_b 12.012582
_cell_length_c 12.547986
_cell_angle_alpha 90.000000
_cell_angle_beta 50.949790
_cell_angle_gamma 90.000000
_cell_volume 2576.057499
_symmetry_space_group_name_H-M "C 2/C"
_symmetry_group_IT_number 15
_symmetry_cell_setting 'monoclinic'
loop_
_space_group_symop_operation_xyz
x,y,z
-x,y,1/2-z
-x,-y,-z
x,-y,1/2+z
1/2+x,1/2+y,z
1/2-x,1/2+y,1/2-z
1/2-x,1/2-y,-z
1/2+x,1/2-y,1/2+z
loop_
_atom_site_type_symbol
_atom_site_label
_atom_site_fract_x
_atom_site_fract_y
_atom_site_fract_z
Si Si1 0.793045 0.787616 0.788382
Si Si2 0.168941 0.626392 0.086810
Si Si3 0.409769 0.425076 0.020530
Si Si4 0.793836 0.186228 0.795659
Si Si5 0.000000 0.327900 0.750000
Si Si6 0.959583 0.826868 0.498246
Si Si7 0.767806 0.080717 0.521072
O O1 0.724933 0.774326 0.776286
O O2 0.876005 0.796080 0.639647
O O3 0.785382 0.674765 0.865420
O O4 0.777535 0.886782 0.887437
O O5 0.171780 0.745825 0.143109
O O6 0.078036 0.599490 0.179989
O O7 0.224783 0.536908 0.082076
O O8 0.210764 0.640242 0.926770
O O9 0.350379 0.407266 0.186083
O O10 0.448983 0.545804 0.970141
O O11 0.352834 0.412963 0.982506
O O12 0.476312 0.335490 0.977565
O O13 0.015799 0.251239 0.627630
#
# Coordination Sequence:
#
# PCOD9274231 Si02
#       7
#     8   8   8   8   4   8   8
#     4  10  21  41  62  88 122 162 209 268 311 375
#     4  11  22  38  62  89 126 164 208 256 311 377
#     4  10  22  37  63  94 121 164 209 262 319 367
#     4  10  20  38  62  88 119 165 207 260 309 371
#     4  12  24  40  60  96 132 168 206 264 318 386
#     4  11  22  39  61  93 131 157 208 267 322 369
#     4  10  23  40  63  92 122 167 218 252 313 379
#
# _framework density 20.185884999999999
#
# number of rings (size 3 to 8) (size 9 to 14) (size 15 to 20)
#    0.000    1.538    3.077    1.846    2.154    4.308 
#    0.000    5.385    0.000    0.000    0.000    0.000 
#    0.000    0.000    0.000    0.000    0.000    0.000 
#
# Total GULP energy -145007.467412 kJ/mol
# GULP energy per Si atom -5577.210285 kJ/mol
# Density = 2.013994 g / cm^3
# Si number density = 20.185885 Si / 1000 Ang^3
#
#
#
# Elastic Constant Matrix: (Units=GPa)
#
#
# Indices 1 2 3 4 5 6 
#
# 1 69.4882 1.2349 -13.3629 0.0000 -13.2263 0.0000
# 2 1.2349 37.7188 -4.2538 0.0000 7.3027 0.0000
# 3 -13.3629 -4.2538 34.4786 0.0000 -7.1530 0.0000
# 4 0.0000 0.0000 0.0000 29.8789 0.0000 -3.9767
# 5 -13.2263 7.3027 -7.1530 0.0000 28.5795 0.0000
# 6 0.0000 0.0000 0.0000 -3.9767 0.0000 15.0713
#
#
#
# Elastic Compliance Matrix: (Units=1/GPa)
#
#
# Indices 1 2 3 4 5 6 
#
# 1 0.018334 -0.001736 0.009223 0.000000 0.011237 0.000000
# 2 -0.001736 0.028197 0.001207 0.000000 -0.007706 0.000000
# 3 0.009223 0.001207 0.035386 0.000000 0.012816 0.000000
# 4 0.000000 0.000000 0.000000 0.034687 0.000000 0.009152
# 5 0.011237 -0.007706 0.012816 0.000000 0.045367 0.000000
# 6 0.000000 0.000000 0.000000 0.009152 0.000000 0.068766
#
#
# Mechanical properties :
#
#
# Convention : Reuss Voigt Hill
#
# Bulk Modulus (GPa) = 10.06988 12.10245 11.08616
# Shear Modulus (GPa) = 20.28813 25.24377 22.76595
#
# Velocity S-wave (km/s) = 3.17372 3.54017 3.36194
# Velocity P-wave (km/s) = 4.29294 4.76644 4.53587
#
# Compressibility (1/GPa) = 0.09930607
#
# Stress axis : x y z
#
# Youngs Moduli (GPa) = 54.54312 35.46481 28.25986
#
# Poissons Ratio (x) = 0.06155 -0.26064
# Poissons Ratio (y) = 0.09467 -0.03412
# Poissons Ratio (z) = -0.50304 -0.04282
#
# Static dielectric constant tensor:
#      x y z
#    x 1.767180 0.000000 0.011810 
#    y 0.000000 1.721760 0.000000 
#    z 0.011810 0.000000 1.715650 
# 
# From -- ./inp_files/112781.got.cif
#   From: 2010.05.17/outbox.cif.g08.bks.cpg/sg15_57_cif.got.tgz:112781.got - 2010.06.03 18:47:42.
