data_PCOD9274504
_publ_section_title
;
Structure prediction by ZEFSAII (Michael W. Deem and Ramdas Pophale) SiO2 
 PCOD9274504
Probable space group: C 2/C
;
_chemical_formula_sum "Si O2"
_cell_formula_units_Z 56
_cell_length_a 20.161415
_cell_length_b 11.650414
_cell_length_c 21.190192
_cell_angle_alpha 90.000000
_cell_angle_beta 149.097670
_cell_angle_gamma 90.000000
_cell_volume 2556.242806
_symmetry_space_group_name_H-M "C 2/C"
_symmetry_group_IT_number 15
_symmetry_cell_setting 'monoclinic'
loop_
_space_group_symop_operation_xyz
x,y,z
-x,y,1/2-z
-x,-y,-z
x,-y,1/2+z
1/2+x,1/2+y,z
1/2-x,1/2+y,1/2-z
1/2-x,1/2-y,-z
1/2+x,1/2-y,1/2+z
loop_
_atom_site_type_symbol
_atom_site_label
_atom_site_fract_x
_atom_site_fract_y
_atom_site_fract_z
Si Si1 0.486254 0.334103 0.047584
Si Si2 0.888401 0.184522 0.610973
Si Si3 0.851129 0.312975 0.906473
Si Si4 0.930884 0.314349 0.108028
Si Si5 0.310969 0.539194 0.306456
Si Si6 0.692993 0.090671 0.816780
Si Si7 0.670318 0.427827 0.946363
O O1 0.436673 0.312557 0.077597
O O2 0.566870 0.227062 0.086563
O O3 0.583077 0.443615 0.124636
O O4 0.381110 0.365067 0.907372
O O5 0.750000 0.250000 0.500000
O O6 0.000000 0.230578 0.750000
O O7 0.868857 0.049688 0.613563
O O8 0.759294 0.416294 0.812747
O O9 0.755349 0.210738 0.847725
O O10 0.940533 0.324579 0.040217
O O11 0.795497 0.372694 0.015284
O O12 0.054926 0.382080 0.232604
O O13 0.926729 0.180585 0.125599
O O14 0.202485 0.487303 0.263746
O O15 0.785925 0.042265 0.946597
#
# Coordination Sequence:
#
# PCOD9274504 Si02
#       7
#     8   8   8   8   8   8   8
#     4  10  23  43  65  93 130 179 226 278 343 414
#     4  12  30  49  74 100 137 192 238 286 345 422
#     4  10  22  36  65  98 131 173 232 289 346 417
#     4  10  22  38  65 105 135 174 228 295 354 411
#     4  10  21  39  66  91 131 176 220 282 346 408
#     4  10  20  38  63  95 130 185 229 283 356 414
#     4  10  23  43  65  96 138 181 228 284 355 415
#
# _framework density 21.907152
#
# number of rings (size 3 to 8) (size 9 to 14) (size 15 to 20)
#    0.000    1.714    1.429    1.286    8.000    5.143 
#    0.000    0.000    0.000    0.000    0.000    0.000 
#    0.000    0.000    0.000    0.000    0.000    0.000 
#
# Total GULP energy -156387.158056 kJ/mol
# GULP energy per Si atom -5585.255645 kJ/mol
# Density = 2.185729 g / cm^3
# Si number density = 21.907152 Si / 1000 Ang^3
#
#
#
# Elastic Constant Matrix: (Units=GPa)
#
#
# Indices 1 2 3 4 5 6 
#
# 1 120.6983 12.8587 29.8926 -0.0001 7.4095 0.0000
# 2 12.8587 48.0058 31.2442 -0.0002 1.5889 -0.0001
# 3 29.8926 31.2442 95.9970 -0.0002 3.8951 -0.0001
# 4 -0.0001 -0.0002 -0.0002 18.2215 -0.0001 -8.7650
# 5 7.4095 1.5889 3.8951 -0.0001 31.6234 0.0000
# 6 0.0000 -0.0001 -0.0001 -8.7650 0.0000 14.6585
#
#
#
# Elastic Compliance Matrix: (Units=1/GPa)
#
#
# Indices 1 2 3 4 5 6 
#
# 1 0.009097 -0.000737 -0.002520 0.000000 -0.001784 0.000000
# 2 -0.000737 0.026491 -0.008387 0.000000 -0.000125 0.000000
# 3 -0.002520 -0.008387 0.013960 0.000000 -0.000708 0.000000
# 4 0.000000 0.000000 0.000000 0.077039 0.000000 0.046065
# 5 -0.001784 -0.000125 -0.000708 0.000000 0.032134 0.000000
# 6 0.000000 0.000000 0.000000 0.046065 0.000000 0.095764
#
#
# Mechanical properties :
#
#
# Convention : Reuss Voigt Hill
#
# Bulk Modulus (GPa) = 38.08268 45.85467 41.96868
# Shear Modulus (GPa) = 17.45023 25.61440 21.53232
#
# Velocity S-wave (km/s) = 2.82539 3.42310 3.13851
# Velocity P-wave (km/s) = 5.29766 6.04982 5.68619
#
# Compressibility (1/GPa) = 0.02625865
#
# Stress axis : x y z
#
# Youngs Moduli (GPa) = 109.92124 37.74811 71.63102
#
# Poissons Ratio (x) = 0.02783 0.18054
# Poissons Ratio (y) = 0.08105 0.60080
# Poissons Ratio (z) = 0.27705 0.31661
#
# Static dielectric constant tensor:
#      x y z
#    x 1.823950 0.000000 -0.053780 
#    y 0.000000 1.813280 0.000000 
#    z -0.053780 0.000000 1.899820 
# 
# From -- ./inp_files/280021.got.cif
#   From: 2010.05.17/outbox.cif.g08.bks.cpg/sg15_141_cif.got.tgz:280021.got - 2010.06.03 18:47:42.
