data_PCOD9274161
_publ_section_title
;
Structure prediction by ZEFSAII (Michael W. Deem and Ramdas Pophale) SiO2 
 PCOD9274161
Probable space group: C 2/C
;
_chemical_formula_sum "Si O2"
_cell_formula_units_Z 60
_cell_length_a 23.287461
_cell_length_b 18.202632
_cell_length_c 5.817853
_cell_angle_alpha 90.000000
_cell_angle_beta 89.738811
_cell_angle_gamma 90.000000
_cell_volume 2466.122019
_symmetry_space_group_name_H-M "C 2/C"
_symmetry_group_IT_number 15
_symmetry_cell_setting 'monoclinic'
loop_
_space_group_symop_operation_xyz
x,y,z
-x,y,1/2-z
-x,-y,-z
x,-y,1/2+z
1/2+x,1/2+y,z
1/2-x,1/2+y,1/2-z
1/2-x,1/2-y,-z
1/2+x,1/2-y,1/2+z
loop_
_atom_site_type_symbol
_atom_site_label
_atom_site_fract_x
_atom_site_fract_y
_atom_site_fract_z
Si Si1 0.888866 0.423681 0.012923
Si Si2 0.500000 0.070580 0.750000
Si Si3 0.336842 0.225461 0.644174
Si Si4 0.385512 0.321116 0.968868
Si Si5 0.442854 0.172632 0.126852
Si Si6 0.220725 0.184169 0.729817
Si Si7 0.565974 0.474210 0.496606
Si Si8 0.240927 0.534061 0.990552
O O1 0.945058 0.464124 0.117648
O O2 0.872520 0.348930 0.150714
O O3 0.829314 0.466989 0.003287
O O4 0.907111 0.385214 0.776765
O O5 0.529988 0.124501 0.572111
O O6 0.283083 0.210679 0.814177
O O7 0.307678 0.247812 0.405658
O O8 0.373255 0.296754 0.709037
O O9 0.406849 0.244210 0.070169
O O10 0.325396 0.343115 0.086584
O O11 0.429172 0.386591 0.997580
O O12 0.500000 0.201374 0.250000
O O13 0.236571 0.116717 0.558002
O O14 0.500000 0.500000 0.500000
O O15 0.590965 0.500494 0.745951
O O16 0.257848 0.492698 0.748682
#
# Coordination Sequence:
#
# PCOD9274161 Si02
#       8
#     8   4   8   8   8   8   8   8
#     4  10  21  42  68  99 142 169 225 284 352 424
#     4  10  20  38  62 100 138 168 204 284 346 420
#     4  10  21  41  65 105 129 173 221 296 368 397
#     4  12  23  38  73  94 136 182 239 284 353 414
#     4  10  22  36  64 103 135 172 222 285 359 408
#     4  10  24  42  67  98 139 168 231 295 347 417
#     4  10  26  47  63  90 136 194 237 284 324 399
#     4  11  28  48  72  98 136 190 232 278 345 423
#
# _framework density 24.329694
#
# number of rings (size 3 to 8) (size 9 to 14) (size 15 to 20)
#    0.000    1.600    2.667    0.400    7.467    2.133 
#    0.000    0.667    0.000    0.000    0.000    0.000 
#    0.000    0.000    0.000    0.000    0.000    0.000 
#
# Total GULP energy -167429.447395 kJ/mol
# GULP energy per Si atom -5580.981580 kJ/mol
# Density = 2.427432 g / cm^3
# Si number density = 24.329694 Si / 1000 Ang^3
#
#
#
# Elastic Constant Matrix: (Units=GPa)
#
#
# Indices 1 2 3 4 5 6 
#
# 1 87.9747 30.1194 18.4739 0.0000 -5.2749 0.0000
# 2 30.1194 117.3141 33.1422 0.0000 0.4830 0.0000
# 3 18.4739 33.1422 106.7216 0.0000 -8.6143 0.0000
# 4 0.0000 0.0000 0.0000 29.6963 0.0000 11.3522
# 5 -5.2749 0.4830 -8.6143 0.0000 29.2794 0.0000
# 6 0.0000 0.0000 0.0000 11.3522 0.0000 33.8786
#
#
#
# Elastic Compliance Matrix: (Units=1/GPa)
#
#
# Indices 1 2 3 4 5 6 
#
# 1 0.012737 -0.002961 -0.001123 0.000000 0.002013 0.000000
# 2 -0.002961 0.010063 -0.002734 0.000000 -0.001504 0.000000
# 3 -0.001123 -0.002734 0.010654 0.000000 0.002977 0.000000
# 4 0.000000 0.000000 0.000000 0.038621 0.000000 -0.012941
# 5 0.002013 -0.001504 0.002977 0.000000 0.035417 0.000000
# 6 0.000000 0.000000 0.000000 -0.012941 0.000000 0.033854
#
#
# Mechanical properties :
#
#
# Convention : Reuss Voigt Hill
#
# Bulk Modulus (GPa) = 50.45832 52.83126 51.64479
# Shear Modulus (GPa) = 30.94289 33.92251 32.43270
#
# Velocity S-wave (km/s) = 3.57012 3.73806 3.65506
# Velocity P-wave (km/s) = 6.14644 6.35552 6.25186
#
# Compressibility (1/GPa) = 0.01981834
#
# Stress axis : x y z
#
# Youngs Moduli (GPa) = 78.51004 99.37474 93.86309
#
# Poissons Ratio (x) = 0.29428 0.10538
# Poissons Ratio (y) = 0.23249 0.25660
# Poissons Ratio (z) = 0.08815 0.27167
#
# Static dielectric constant tensor:
#      x y z
#    x 2.273080 0.000000 -1.367520 
#    y 0.000000 1.859000 0.000000 
#    z -1.367520 0.000000 8.017890 
# 
# From -- ./inp_files/17201.got.cif
#   From: 2010.05.17/outbox.cif.g08.bks.cpg/sg15_9_cif.got.tgz:17201.got - 2010.06.03 18:47:42.
