data_PCOD9274200
_publ_section_title
;
Structure prediction by ZEFSAII (Michael W. Deem and Ramdas Pophale) SiO2 
 PCOD9274200
Probable space group: C 2/C
;
_chemical_formula_sum "Si O2"
_cell_formula_units_Z 48
_cell_length_a 15.744625
_cell_length_b 9.163615
_cell_length_c 28.405152
_cell_angle_alpha 90.000000
_cell_angle_beta 146.883555
_cell_angle_gamma 90.000000
_cell_volume 2239.036449
_symmetry_space_group_name_H-M "C 2/C"
_symmetry_group_IT_number 15
_symmetry_cell_setting 'monoclinic'
loop_
_space_group_symop_operation_xyz
x,y,z
-x,y,1/2-z
-x,-y,-z
x,-y,1/2+z
1/2+x,1/2+y,z
1/2-x,1/2+y,1/2-z
1/2-x,1/2-y,-z
1/2+x,1/2-y,1/2+z
loop_
_atom_site_type_symbol
_atom_site_label
_atom_site_fract_x
_atom_site_fract_y
_atom_site_fract_z
Si Si1 0.332810 0.807126 0.154726
Si Si2 0.066366 0.039937 0.581623
Si Si3 0.395558 0.545023 0.130620
Si Si4 0.131149 0.552493 0.929337
Si Si5 0.502660 0.728255 0.864706
Si Si6 0.636004 0.717098 0.183863
O O1 0.500000 0.855919 0.250000
O O2 0.211828 0.859293 0.136522
O O3 0.335319 0.633187 0.147482
O O4 0.309412 0.883150 0.092912
O O5 0.968560 0.135111 0.573814
O O6 0.114826 0.891397 0.630026
O O7 0.000000 0.000000 0.500000
O O8 0.431178 0.374250 0.146249
O O9 0.555170 0.625235 0.188664
O O10 0.264470 0.573262 0.029983
O O11 0.083298 0.384132 0.903292
O O12 0.975827 0.642462 0.871313
O O13 0.316470 0.746018 0.773486
#
# Coordination Sequence:
#
# PCOD9274200 Si02
#       6
#     8   8   8   8   8   8
#     4  11  21  37  59  85 115 151 193 245 296 345
#     4  11  22  39  61  89 119 152 197 251 298 347
#     4  10  21  38  58  84 116 156 195 233 292 365
#     4  11  21  39  62  85 115 158 198 239 295 362
#     4  11  22  39  61  87 117 157 200 243 294 364
#     4  10  20  38  62  86 116 160 201 235 291 369
#
# _framework density 21.437792999999999
#
# number of rings (size 3 to 8) (size 9 to 14) (size 15 to 20)
#    0.000    1.333    0.000   10.500    0.000    0.000 
#    0.000    9.167    0.000    0.000    0.000    0.000 
#    0.000    0.000    0.000    0.000    0.000    0.000 
#
# Total GULP energy -134155.971822 kJ/mol
# GULP energy per Si atom -5589.832159 kJ/mol
# Density = 2.138900 g / cm^3
# Si number density = 21.437793 Si / 1000 Ang^3
#
#
#
# Elastic Constant Matrix: (Units=GPa)
#
#
# Indices 1 2 3 4 5 6 
#
# 1 72.2224 40.9759 13.2421 0.0000 2.6569 0.0000
# 2 40.9759 158.9305 14.7045 0.0000 -3.5378 0.0000
# 3 13.2421 14.7045 68.8583 0.0000 -0.2243 0.0000
# 4 0.0000 0.0000 0.0000 29.5499 0.0000 7.4197
# 5 2.6569 -3.5378 -0.2243 0.0000 29.5779 0.0000
# 6 0.0000 0.0000 0.0000 7.4197 0.0000 18.3361
#
#
#
# Elastic Compliance Matrix: (Units=1/GPa)
#
#
# Indices 1 2 3 4 5 6 
#
# 1 0.016693 -0.004133 -0.002334 0.000000 -0.002011 0.000000
# 2 -0.004133 0.007459 -0.000794 0.000000 0.001257 0.000000
# 3 -0.002334 -0.000794 0.015142 0.000000 0.000230 0.000000
# 4 0.000000 0.000000 0.000000 0.037668 0.000000 -0.015242
# 5 -0.002011 0.001257 0.000230 0.000000 0.034142 0.000000
# 6 0.000000 0.000000 0.000000 -0.015242 0.000000 0.060705
#
#
# Mechanical properties :
#
#
# Convention : Reuss Voigt Hill
#
# Bulk Modulus (GPa) = 40.36834 48.65068 44.50951
# Shear Modulus (GPa) = 25.69535 30.89869 28.29702
#
# Velocity S-wave (km/s) = 3.46584 3.80059 3.63707
# Velocity P-wave (km/s) = 5.90655 6.48093 6.20040
#
# Compressibility (1/GPa) = 0.02477189
#
# Stress axis : x y z
#
# Youngs Moduli (GPa) = 59.90620 134.06644 66.04241
#
# Poissons Ratio (x) = 0.55404 0.15416
# Poissons Ratio (y) = 0.24757 0.05244
# Poissons Ratio (z) = 0.13983 0.10645
#
# Static dielectric constant tensor:
#      x y z
#    x 1.876790 0.000000 -0.009430 
#    y 0.000000 1.798190 0.000000 
#    z -0.009430 0.000000 1.809400 
# 
# From -- ./inp_files/208913.got.cif
#   From: 2010.05.17/outbox.cif.g08.bks.cpg/sg15_105_cif.got.tgz:208913.got - 2010.06.03 18:47:42.
