data_PCOD9274057
_publ_section_title
;
Structure prediction by ZEFSAII (Michael W. Deem and Ramdas Pophale) SiO2 
 PCOD9274057
Probable space group: C 2/C
;
_chemical_formula_sum "Si O2"
_cell_formula_units_Z 48
_cell_length_a 12.190668
_cell_length_b 14.253217
_cell_length_c 12.982223
_cell_angle_alpha 90.000000
_cell_angle_beta 80.660274
_cell_angle_gamma 90.000000
_cell_volume 2225.838807
_symmetry_space_group_name_H-M "C 2/C"
_symmetry_group_IT_number 15
_symmetry_cell_setting 'monoclinic'
loop_
_space_group_symop_operation_xyz
x,y,z
-x,y,1/2-z
-x,-y,-z
x,-y,1/2+z
1/2+x,1/2+y,z
1/2-x,1/2+y,1/2-z
1/2-x,1/2-y,-z
1/2+x,1/2-y,1/2+z
loop_
_atom_site_type_symbol
_atom_site_label
_atom_site_fract_x
_atom_site_fract_y
_atom_site_fract_z
Si Si1 0.286345 0.608230 0.629266
Si Si2 0.439424 0.137416 0.542074
Si Si3 0.189091 0.244910 0.265634
Si Si4 0.929192 0.480776 0.855910
Si Si5 0.094842 0.792608 0.555568
Si Si6 0.578235 0.432670 0.837351
O O1 0.291126 0.691868 0.712267
O O2 0.172268 0.549728 0.657632
O O3 0.302545 0.657861 0.516348
O O4 0.380711 0.531269 0.629392
O O5 0.363834 0.198115 0.631152
O O6 0.483354 0.048763 0.599376
O O7 0.544323 0.204660 0.502840
O O8 0.390074 0.097258 0.443960
O O9 0.117707 0.241928 0.168965
O O10 0.183817 0.135308 0.295300
O O11 0.000000 0.441370 0.750000
O O12 0.998703 0.871133 0.576416
O O13 0.500000 0.446117 0.750000
#
# Coordination Sequence:
#
# PCOD9274057 Si02
#       6
#     8   8   8   8   8   8
#     4  12  22  36  64  97 122 165 223 262 310 383
#     4  10  20  38  61  86 128 168 196 264 324 360
#     4  10  20  39  64  89 121 169 216 255 309 384
#     4  11  22  37  60  95 134 155 208 271 319 368
#     4  10  20  39  62  87 125 168 219 260 304 383
#     4   9  22  41  61  85 127 169 209 263 317 374
#
# _framework density 21.564903000000001
#
# number of rings (size 3 to 8) (size 9 to 14) (size 15 to 20)
#    0.000    1.667    3.333    2.500    0.000    4.000 
#    0.000    5.833    0.000    0.000    0.000    0.000 
#    0.000    0.000    0.000    0.000    0.000    0.000 
#
# Total GULP energy -133767.932785 kJ/mol
# GULP energy per Si atom -5573.663866 kJ/mol
# Density = 2.151582 g / cm^3
# Si number density = 21.564903 Si / 1000 Ang^3
#
#
#
# Elastic Constant Matrix: (Units=GPa)
#
#
# Indices 1 2 3 4 5 6 
#
# 1 14.9895 14.9167 18.5664 0.0000 -3.1869 0.0000
# 2 14.9167 114.6726 48.5818 0.0000 3.1141 0.0000
# 3 18.5664 48.5818 105.5139 0.0000 -15.0909 0.0000
# 4 0.0000 0.0000 0.0000 38.1684 0.0000 7.2287
# 5 -3.1869 3.1141 -15.0909 0.0000 21.7755 0.0000
# 6 0.0000 0.0000 0.0000 7.2287 0.0000 26.3417
#
#
#
# Elastic Compliance Matrix: (Units=1/GPa)
#
#
# Indices 1 2 3 4 5 6 
#
# 1 0.089269 -0.006803 -0.011731 0.000000 0.005908 0.000000
# 2 -0.006803 0.011994 -0.005232 0.000000 -0.006336 0.000000
# 3 -0.011731 -0.005232 0.015331 0.000000 0.009656 0.000000
# 4 0.000000 0.000000 0.000000 0.027636 0.000000 -0.007584
# 5 0.005908 -0.006336 0.009656 0.000000 0.054386 0.000000
# 6 0.000000 0.000000 0.000000 -0.007584 0.000000 0.040044
#
#
# Mechanical properties :
#
#
# Convention : Reuss Voigt Hill
#
# Bulk Modulus (GPa) = 14.47928 44.36730 29.42329
# Shear Modulus (GPa) = 16.17014 27.46453 21.81733
#
# Velocity S-wave (km/s) = 2.74128 3.57259 3.18418
# Velocity P-wave (km/s) = 4.09248 6.13485 5.21463
#
# Compressibility (1/GPa) = 0.06906423
#
# Stress axis : x y z
#
# Youngs Moduli (GPa) = 11.20208 83.37610 65.22544
#
# Poissons Ratio (x) = 0.56719 0.76514
# Poissons Ratio (y) = 0.07621 0.34123
# Poissons Ratio (z) = 0.13141 0.43619
#
# Static dielectric constant tensor:
#      x y z
#    x 1.820170 0.000000 -0.042310 
#    y 0.000000 1.786150 0.000000 
#    z -0.042310 0.000000 1.807600 
# 
# From -- ./inp_files/96168.got.cif
#   From: 2010.05.17/outbox.cif.g08.bks.cpg/sg15_49_cif.got.tgz:96168.got - 2010.06.03 18:47:42.
