data_PCOD9274555
_publ_section_title
;
Structure prediction by ZEFSAII (Michael W. Deem and Ramdas Pophale) SiO2 
 PCOD9274555
Probable space group: C 2/C
;
_chemical_formula_sum "Si O2"
_cell_formula_units_Z 60
_cell_length_a 26.151203
_cell_length_b 8.584390
_cell_length_c 15.166846
_cell_angle_alpha 90.000000
_cell_angle_beta 43.742459
_cell_angle_gamma 90.000000
_cell_volume 2354.165849
_symmetry_space_group_name_H-M "C 2/C"
_symmetry_group_IT_number 15
_symmetry_cell_setting 'monoclinic'
loop_
_space_group_symop_operation_xyz
x,y,z
-x,y,1/2-z
-x,-y,-z
x,-y,1/2+z
1/2+x,1/2+y,z
1/2-x,1/2+y,1/2-z
1/2-x,1/2-y,-z
1/2+x,1/2-y,1/2+z
loop_
_atom_site_type_symbol
_atom_site_label
_atom_site_fract_x
_atom_site_fract_y
_atom_site_fract_z
Si Si1 0.620921 0.263387 0.855742
Si Si2 0.010342 0.884317 0.872172
Si Si3 0.676615 0.920689 0.761731
Si Si4 0.394838 0.241307 0.904365
Si Si5 0.817341 0.770635 0.524112
Si Si6 0.000000 0.536962 0.250000
Si Si7 0.073950 0.778954 0.276047
Si Si8 0.737425 0.076824 0.384068
O O1 0.539298 0.305709 0.925109
O O2 0.638802 0.272705 0.937339
O O3 0.677224 0.382988 0.736875
O O4 0.641595 0.090719 0.797109
O O5 0.065128 0.810856 0.730448
O O6 0.927556 0.843103 0.944241
O O7 0.029345 0.064250 0.845186
O O8 0.751733 0.895921 0.613070
O O9 0.620782 0.788643 0.798409
O O10 0.700935 0.903363 0.832422
O O11 0.432431 0.070900 0.864274
O O12 0.308602 0.207141 0.005280
O O13 0.869732 0.802498 0.376691
O O14 0.779542 0.598935 0.564594
O O15 0.977773 0.641852 0.195742
#
# Coordination Sequence:
#
# PCOD9274555 Si02
#       8
#     8   8   8   8   8   4   8   8
#     4  10  22  41  64  93 124 160 204 253 303 363
#     4  10  23  40  62  88 127 158 207 249 298 368
#     4  10  22  39  62  93 123 158 202 257 297 368
#     4  10  21  42  63  90 121 161 206 248 309 363
#     4  10  22  40  63  92 123 158 203 251 311 355
#     4  10  20  38  64  82 122 156 200 258 294 362
#     4  12  22  41  61  92 122 161 204 252 305 357
#     4  10  21  41  64  91 123 160 202 254 309 356
#
# _framework density 25.486734999999999
#
# number of rings (size 3 to 8) (size 9 to 14) (size 15 to 20)
#    0.000    1.867    1.333    3.600    1.867    1.600 
#    2.400    2.667    0.000    0.000    0.000    0.000 
#    0.000    0.000    0.000    0.000    0.000    0.000 
#
# Total GULP energy -168207.072769 kJ/mol
# GULP energy per Si atom -5606.902426 kJ/mol
# Density = 2.542873 g / cm^3
# Si number density = 25.486735 Si / 1000 Ang^3
#
#
#
# Elastic Constant Matrix: (Units=GPa)
#
#
# Indices 1 2 3 4 5 6 
#
# 1 110.5738 30.7848 7.5852 0.0001 4.4719 0.0000
# 2 30.7848 124.2915 24.6410 0.0018 1.1697 -0.0009
# 3 7.5852 24.6410 94.1151 0.0002 1.1719 -0.0001
# 4 0.0001 0.0018 0.0002 -9.4656 -0.0001 5.0444
# 5 4.4719 1.1697 1.1719 -0.0001 25.2526 0.0000
# 6 0.0000 -0.0009 -0.0001 5.0444 0.0000 37.3719
#
#
#
# Elastic Compliance Matrix: (Units=1/GPa)
#
#
# Indices 1 2 3 4 5 6 
#
# 1 0.009781 -0.002379 -0.000145 0.000000 -0.001615 0.000000
# 2 -0.002379 0.009067 -0.002183 0.000002 0.000103 0.000000
# 3 -0.000145 -0.002183 0.011214 0.000000 -0.000394 0.000000
# 4 0.000000 0.000002 0.000000 -0.098556 0.000000 0.013303
# 5 -0.001615 0.000103 -0.000394 0.000000 0.039899 0.000000
# 6 0.000000 0.000000 0.000000 0.013303 0.000000 0.024962
#
#
# Mechanical properties :
#
#
# Convention : Reuss Voigt Hill
#
# Bulk Modulus (GPa) = 48.43416 50.55582 49.49499
# Shear Modulus (GPa) = 394.81267 28.36307 211.58787
#
# Velocity S-wave (km/s) = 12.45975 3.33957 9.12135
# Velocity P-wave (km/s) = 15.03459 5.89487 11.41902
#
# Compressibility (1/GPa) = 0.02064659
#
# Stress axis : x y z
#
# Youngs Moduli (GPa) = 102.23631 110.29447 89.17775
#
# Poissons Ratio (x) = 0.26235 0.01297
# Poissons Ratio (y) = 0.24318 0.19471
# Poissons Ratio (z) = 0.01487 0.24081
#
# Static dielectric constant tensor:
#      x y z
#    x 2.006090 0.000000 0.003560 
#    y 0.000000 1.965340 0.000000 
#    z 0.003560 0.000000 2.064770 
# 
# From -- ./inp_files/221882.got.cif
#   From: 2010.05.17/outbox.cif.g08.bks.cpg/sg15_111_cif.got.tgz:221882.got - 2010.06.03 18:47:42.
