data_PCOD9274328
_publ_section_title
;
Structure prediction by ZEFSAII (Michael W. Deem and Ramdas Pophale) SiO2 
 PCOD9274328
Probable space group: C 2/C
;
_chemical_formula_sum "Si O2"
_cell_formula_units_Z 36
_cell_length_a 13.565700
_cell_length_b 12.129884
_cell_length_c 17.296359
_cell_angle_alpha 90.000000
_cell_angle_beta 150.348009
_cell_angle_gamma 90.000000
_cell_volume 1408.063914
_symmetry_space_group_name_H-M "C 2/C"
_symmetry_group_IT_number 15
_symmetry_cell_setting 'monoclinic'
loop_
_space_group_symop_operation_xyz
x,y,z
-x,y,1/2-z
-x,-y,-z
x,-y,1/2+z
1/2+x,1/2+y,z
1/2-x,1/2+y,1/2-z
1/2-x,1/2-y,-z
1/2+x,1/2-y,1/2+z
loop_
_atom_site_type_symbol
_atom_site_label
_atom_site_fract_x
_atom_site_fract_y
_atom_site_fract_z
Si Si1 0.431616 0.198995 0.540340
Si Si2 0.600146 0.556273 0.142475
Si Si3 0.003361 0.361407 0.663422
Si Si4 0.500000 0.229885 0.750000
Si Si5 0.280796 0.628641 0.667148
O O1 0.487544 0.328810 0.578651
O O2 0.470334 0.158292 0.653234
O O3 0.196531 0.197883 0.368415
O O4 0.577970 0.145120 0.579146
O O5 0.609982 0.476705 0.222923
O O6 0.824257 0.580463 0.267914
O O7 0.500000 0.500000 0.000000
O O8 0.800392 0.373078 0.475910
O O9 0.000000 0.399512 0.750000
O O10 0.082148 0.234715 0.722079
#
# Coordination Sequence:
#
# PCOD9274328 Si02
#       5
#     8   8   8   4   8
#     4  10  21  40  64  95 130 180 208 278 333 398
#     4  11  23  43  65  98 136 178 226 273 347 405
#     4  11  24  44  69 101 130 181 227 284 335 408
#     4  10  20  38  62  92 134 164 230 262 330 394
#     4  11  22  43  73  93 141 176 224 276 353 401
#
# _framework density 25.567021
#
# number of rings (size 3 to 8) (size 9 to 14) (size 15 to 20)
#    0.000    1.333    0.000    8.000    0.000    0.000 
#   18.000    0.000    0.000    0.000    0.000    0.000 
#    0.000    0.000    0.000    0.000    0.000    0.000 
#
# Total GULP energy -100913.526824 kJ/mol
# GULP energy per Si atom -5606.307046 kJ/mol
# Density = 2.550883 g / cm^3
# Si number density = 25.567021 Si / 1000 Ang^3
#
#
#
# Elastic Constant Matrix: (Units=GPa)
#
#
# Indices 1 2 3 4 5 6 
#
# 1 128.6698 35.8465 55.7697 -0.0009 -20.3501 -0.0020
# 2 35.8465 124.7682 50.6877 -0.0012 -27.7389 -0.0034
# 3 55.7697 50.6877 140.9491 -0.0049 -18.6157 -0.0043
# 4 -0.0009 -0.0012 -0.0049 21.1233 0.0001 -11.5781
# 5 -20.3501 -27.7389 -18.6157 0.0001 74.3182 -0.0003
# 6 -0.0020 -0.0034 -0.0043 -11.5781 -0.0003 27.6590
#
#
#
# Elastic Compliance Matrix: (Units=1/GPa)
#
#
# Indices 1 2 3 4 5 6 
#
# 1 0.009725 -0.001162 -0.003243 -0.000001 0.001417 0.000000
# 2 -0.001162 0.010101 -0.002810 0.000000 0.002748 0.000001
# 3 -0.003243 -0.002810 0.009445 0.000003 0.000429 0.000002
# 4 -0.000001 0.000000 0.000003 0.061437 0.000001 0.025718
# 5 0.001417 0.002748 0.000429 0.000001 0.014977 0.000001
# 6 0.000000 0.000001 0.000002 0.025718 0.000001 0.046920
#
#
# Mechanical properties :
#
#
# Convention : Reuss Voigt Hill
#
# Bulk Modulus (GPa) = 67.37519 75.44388 71.40953
# Shear Modulus (GPa) = 29.07270 41.42564 35.24917
#
# Velocity S-wave (km/s) = 3.37578 4.02963 3.71711
# Velocity P-wave (km/s) = 6.45012 7.15702 6.81274
#
# Compressibility (1/GPa) = 0.01484226
#
# Stress axis : x y z
#
# Youngs Moduli (GPa) = 102.82529 98.99866 105.87415
#
# Poissons Ratio (x) = 0.11499 0.34337
# Poissons Ratio (y) = 0.11943 0.29751
# Poissons Ratio (z) = 0.33348 0.27819
#
# Static dielectric constant tensor:
#      x y z
#    x 2.037600 0.000000 -0.033570 
#    y 0.000000 2.002700 0.000000 
#    z -0.033570 0.000000 2.011770 
# 
# From -- ./inp_files/298912.got.cif
#   From: 2010.05.17/outbox.cif.g08.bks.cpg/sg15_150_cif.got.tgz:298912.got - 2010.06.03 18:47:42.
