data_PCOD9274330
_publ_section_title
;
Structure prediction by ZEFSAII (Michael W. Deem and Ramdas Pophale) SiO2 
 PCOD9274330
Probable space group: C 2/C
;
_chemical_formula_sum "Si O2"
_cell_formula_units_Z 56
_cell_length_a 26.299402
_cell_length_b 11.086165
_cell_length_c 7.987833
_cell_angle_alpha 90.000000
_cell_angle_beta 121.625146
_cell_angle_gamma 90.000000
_cell_volume 1983.075512
_symmetry_space_group_name_H-M "C 2/C"
_symmetry_group_IT_number 15
_symmetry_cell_setting 'monoclinic'
loop_
_space_group_symop_operation_xyz
x,y,z
-x,y,1/2-z
-x,-y,-z
x,-y,1/2+z
1/2+x,1/2+y,z
1/2-x,1/2+y,1/2-z
1/2-x,1/2-y,-z
1/2+x,1/2-y,1/2+z
loop_
_atom_site_type_symbol
_atom_site_label
_atom_site_fract_x
_atom_site_fract_y
_atom_site_fract_z
Si Si1 0.806070 0.109803 0.467743
Si Si2 0.598126 0.033974 0.425049
Si Si3 0.237230 0.557905 0.672338
Si Si4 0.898142 0.692187 0.753518
Si Si5 0.596542 0.411084 0.916946
Si Si6 0.750000 0.750000 0.500000
Si Si7 0.000000 0.903984 0.250000
Si Si8 0.595793 0.749779 0.728657
O O1 0.757848 0.108048 0.530323
O O2 0.847976 0.223843 0.549083
O O3 0.770563 0.075727 0.238989
O O4 0.852459 0.999509 0.562399
O O5 0.669163 0.023728 0.569065
O O6 0.579626 0.124176 0.540911
O O7 0.586757 0.108971 0.233298
O O8 0.579112 0.898668 0.352707
O O9 0.254565 0.652888 0.846688
O O10 0.925609 0.823018 0.766801
O O11 0.826045 0.717691 0.623938
O O12 0.548007 0.501965 0.906364
O O13 0.615801 0.319298 0.096440
O O14 0.038387 0.819924 0.195730
#
# Coordination Sequence:
#
# PCOD9274330 Si02
#       8
#     8   8   8   8   8   4   4   8
#     4  11  22  39  65  96 136 182 231 285 338 404
#     4  11  26  39  65  97 140 191 230 279 341 415
#     4  11  22  38  61  98 137 189 234 280 334 411
#     4  11  23  42  64  96 138 187 235 284 339 414
#     4  11  23  44  71 102 138 177 233 297 355 409
#     4  10  20  38  62  92 134 188 228 286 328 396
#     4  10  26  46  80 106 132 170 230 302 366 416
#     4  11  24  44  69 105 137 180 229 297 353 420
#
# _framework density 28.238963999999999
#
# number of rings (size 3 to 8) (size 9 to 14) (size 15 to 20)
#    0.000    1.143    2.857    3.000    2.000    4.000 
#    0.000    0.714    0.000    3.429    0.000    0.000 
#    0.000    0.000    0.000    0.000    0.000    0.000 
#
# Total GULP energy -156384.126643 kJ/mol
# GULP energy per Si atom -5585.147380 kJ/mol
# Density = 2.817469 g / cm^3
# Si number density = 28.238964 Si / 1000 Ang^3
#
#
#
# Elastic Constant Matrix: (Units=GPa)
#
#
# Indices 1 2 3 4 5 6 
#
# 1 90.0301 2.7732 14.5843 0.0000 -10.3653 0.0000
# 2 2.7732 135.6702 3.6702 0.0000 5.1643 0.0000
# 3 14.5843 3.6702 82.7177 0.0000 -15.1121 0.0000
# 4 0.0000 0.0000 0.0000 31.6324 0.0000 -15.2734
# 5 -10.3653 5.1643 -15.1121 0.0000 37.2953 0.0000
# 6 0.0000 0.0000 0.0000 -15.2734 0.0000 28.8868
#
#
#
# Elastic Compliance Matrix: (Units=1/GPa)
#
#
# Indices 1 2 3 4 5 6 
#
# 1 0.011675 -0.000297 -0.001560 0.000000 0.002654 0.000000
# 2 -0.000297 0.007441 -0.000520 0.000000 -0.001324 0.000000
# 3 -0.001560 -0.000520 0.013306 0.000000 0.005030 0.000000
# 4 0.000000 0.000000 0.000000 0.042450 0.000000 0.022445
# 5 0.002654 -0.001324 0.005030 0.000000 0.029772 0.000000
# 6 0.000000 0.000000 0.000000 0.022445 0.000000 0.046485
#
#
# Mechanical properties :
#
#
# Convention : Reuss Voigt Hill
#
# Bulk Modulus (GPa) = 36.14310 38.94148 37.54229
# Shear Modulus (GPa) = 30.28327 38.72225 34.50276
#
# Velocity S-wave (km/s) = 3.27829 3.70704 3.49924
# Velocity P-wave (km/s) = 5.21118 5.66946 5.44514
#
# Compressibility (1/GPa) = 0.02766780
#
# Stress axis : x y z
#
# Youngs Moduli (GPa) = 85.65416 134.38449 75.15147
#
# Poissons Ratio (x) = 0.03997 0.11727
# Poissons Ratio (y) = 0.02548 0.03904
# Poissons Ratio (z) = 0.13366 0.06982
#
# Static dielectric constant tensor:
#      x y z
#    x 2.115510 0.000000 0.038720 
#    y 0.000000 2.114210 0.000000 
#    z 0.038720 0.000000 2.082030 
# 
# From -- ./inp_files/69469.got.cif
#   From: 2010.05.17/outbox.cif.g08.bks.cpg/sg15_35_cif.got.tgz:69469.got - 2010.06.03 18:47:42.
