data_PCOD9274703
_publ_section_title
;
Structure prediction by ZEFSAII (Michael W. Deem and Ramdas Pophale) SiO2 
 PCOD9274703
Probable space group: C 2/C
;
_chemical_formula_sum "Si O2"
_cell_formula_units_Z 60
_cell_length_a 13.754407
_cell_length_b 22.702448
_cell_length_c 9.135252
_cell_angle_alpha 90.000000
_cell_angle_beta 67.520294
_cell_angle_gamma 90.000000
_cell_volume 2635.810135
_symmetry_space_group_name_H-M "C 2/C"
_symmetry_group_IT_number 15
_symmetry_cell_setting 'monoclinic'
loop_
_space_group_symop_operation_xyz
x,y,z
-x,y,1/2-z
-x,-y,-z
x,-y,1/2+z
1/2+x,1/2+y,z
1/2-x,1/2+y,1/2-z
1/2-x,1/2-y,-z
1/2+x,1/2-y,1/2+z
loop_
_atom_site_type_symbol
_atom_site_label
_atom_site_fract_x
_atom_site_fract_y
_atom_site_fract_z
Si Si1 0.650492 0.335539 0.871113
Si Si2 0.000000 0.674620 0.250000
Si Si3 0.724181 0.511492 0.554485
Si Si4 0.296099 0.860884 0.047513
Si Si5 0.636271 0.827551 0.917786
Si Si6 0.383482 0.213442 0.764271
Si Si7 0.557461 0.950062 0.062193
Si Si8 0.412422 0.460280 0.627236
O O1 0.755499 0.348006 0.716989
O O2 0.609328 0.275544 0.823751
O O3 0.571119 0.390190 0.896079
O O4 0.699569 0.332458 0.007856
O O5 0.063185 0.708082 0.343524
O O6 0.901155 0.640904 0.383750
O O7 0.761407 0.572847 0.604321
O O8 0.822276 0.469126 0.489580
O O9 0.624848 0.482610 0.693657
O O10 0.691282 0.529383 0.411084
O O11 0.326256 0.827638 0.178716
O O12 0.667416 0.793571 0.046549
O O13 0.567133 0.885918 0.985850
O O14 0.500000 0.196107 0.750000
O O15 0.500000 0.946778 0.250000
O O16 0.500000 0.000000 0.000000
O O17 0.500000 0.500000 0.500000
#
# Coordination Sequence:
#
# PCOD9274703 Si02
#       8
#     8   4   8   8   8   8   8   8
#     4  10  24  46  67  95 137 188 232 291 357 415
#     4  10  20  38  64  94 136 182 206 272 346 420
#     4  11  24  41  65 101 136 178 227 282 352 418
#     4  10  23  41  67  94 139 176 223 281 354 424
#     4  11  23  42  63 100 142 178 229 279 356 421
#     4  12  24  42  68 100 133 180 242 289 342 422
#     4  12  26  37  65 104 145 180 219 274 351 435
#     4  11  24  46  71  97 134 183 239 298 345 400
#
# _framework density 22.763400000000001
#
# number of rings (size 3 to 8) (size 9 to 14) (size 15 to 20)
#    0.000    1.067    2.667    3.200    9.333    1.067 
#    0.000    1.333    5.867    0.000    0.000    0.000 
#    0.000    0.000    0.000    0.000    0.000    0.000 
#
# Total GULP energy -167475.915300 kJ/mol
# GULP energy per Si atom -5582.530510 kJ/mol
# Density = 2.271159 g / cm^3
# Si number density = 22.763400 Si / 1000 Ang^3
#
#
#
# Elastic Constant Matrix: (Units=GPa)
#
#
# Indices 1 2 3 4 5 6 
#
# 1 55.7968 35.5559 29.7391 0.0000 12.9147 0.0000
# 2 35.5559 80.6149 16.7732 0.0000 31.1271 0.0000
# 3 29.7391 16.7732 87.9897 0.0000 19.6746 0.0000
# 4 0.0000 0.0000 0.0000 132.8182 0.0000 91.9617
# 5 12.9147 31.1271 19.6746 0.0000 44.2358 0.0000
# 6 0.0000 0.0000 0.0000 91.9617 0.0000 108.1070
#
#
#
# Elastic Compliance Matrix: (Units=1/GPa)
#
#
# Indices 1 2 3 4 5 6 
#
# 1 0.029768 -0.012994 -0.008534 0.000000 0.004248 0.000000
# 2 -0.012994 0.022736 0.003094 0.000000 -0.013581 0.000000
# 3 -0.008534 0.003094 0.015090 0.000000 -0.006397 0.000000
# 4 0.000000 0.000000 0.000000 0.018318 0.000000 -0.015582
# 5 0.004248 -0.013581 -0.006397 0.000000 0.033768 0.000000
# 6 0.000000 0.000000 0.000000 -0.015582 0.000000 0.022505
#
#
# Mechanical properties :
#
#
# Convention : Reuss Voigt Hill
#
# Bulk Modulus (GPa) = 32.54523 43.17086 37.85805
# Shear Modulus (GPa) = 26.41397 66.52108 46.46752
#
# Velocity S-wave (km/s) = 3.41012 5.41168 4.52301
# Velocity P-wave (km/s) = 5.46200 7.61935 6.62903
#
# Compressibility (1/GPa) = 0.03072647
#
# Stress axis : x y z
#
# Youngs Moduli (GPa) = 33.59356 43.98331 66.26955
#
# Poissons Ratio (x) = 0.57152 0.56554
# Poissons Ratio (y) = 0.43652 -0.20507
# Poissons Ratio (z) = 0.28668 -0.13611
#
# Static dielectric constant tensor:
#      x y z
#    x 1.852770 0.000000 0.036990 
#    y 0.000000 1.869800 0.000000 
#    z 0.036990 0.000000 1.936660 
# 
# From -- ./inp_files/42608.got.cif
#   From: 2010.05.17/outbox.cif.g08.bks.cpg/sg15_22_cif.got.tgz:42608.got - 2010.06.03 18:47:42.
