data_PCOD9274243
_publ_section_title
;
Structure prediction by ZEFSAII (Michael W. Deem and Ramdas Pophale) SiO2 
 PCOD9274243
Probable space group: C 2/C
;
_chemical_formula_sum "Si O2"
_cell_formula_units_Z 52
_cell_length_a 17.079882
_cell_length_b 11.930686
_cell_length_c 17.845801
_cell_angle_alpha 90.000000
_cell_angle_beta 130.059794
_cell_angle_gamma 90.000000
_cell_volume 2783.297216
_symmetry_space_group_name_H-M "C 2/C"
_symmetry_group_IT_number 15
_symmetry_cell_setting 'monoclinic'
loop_
_space_group_symop_operation_xyz
x,y,z
-x,y,1/2-z
-x,-y,-z
x,-y,1/2+z
1/2+x,1/2+y,z
1/2-x,1/2+y,1/2-z
1/2-x,1/2-y,-z
1/2+x,1/2-y,1/2+z
loop_
_atom_site_type_symbol
_atom_site_label
_atom_site_fract_x
_atom_site_fract_y
_atom_site_fract_z
Si Si1 0.167065 0.412436 0.794096
Si Si2 0.346563 0.172257 0.538319
Si Si3 0.562271 0.376588 0.973492
Si Si4 0.115598 0.161633 0.791701
Si Si5 0.000000 0.571740 0.750000
Si Si6 0.280107 0.530674 0.518939
Si Si7 0.139453 0.001325 0.168075
O O1 0.140722 0.282091 0.771927
O O2 0.248004 0.455750 0.783074
O O3 0.066795 0.490635 0.737503
O O4 0.223143 0.428211 0.909196
O O5 0.250000 0.250000 0.500000
O O6 0.408732 0.247532 0.518908
O O7 0.420510 0.146217 0.653980
O O8 0.297138 0.053783 0.486206
O O9 0.624226 0.455325 0.952075
O O10 0.443030 0.398621 0.886645
O O11 0.599899 0.419343 0.077296
O O12 0.184103 0.129222 0.905482
O O13 0.131744 0.064722 0.740551
O O14 0.000000 0.163193 0.750000
#
# Coordination Sequence:
#
# PCOD9274243 Si02
#       7
#     8   8   8   8   4   8   8
#     4  10  22  40  60  85 123 160 195 251 313 355
#     4   9  19  34  59  89 119 157 199 248 307 358
#     4   9  18  37  55  83 120 161 191 248 310 350
#     4  12  22  37  63  91 115 158 206 246 292 366
#     4  10  20  38  62  88 122 160 206 252 304 370
#     4   9  19  37  60  87 116 155 203 247 295 370
#     4  10  22  36  58  85 122 156 204 248 299 367
#
# _framework density 18.682877000000001
#
# number of rings (size 3 to 8) (size 9 to 14) (size 15 to 20)
#    0.000    2.154    2.308    1.385    0.000    4.923 
#    0.000    0.000    0.000    3.692    0.000    0.000 
#    0.000    0.000    0.000    0.000    0.000    0.000 
#
# Total GULP energy -145003.461969 kJ/mol
# GULP energy per Si atom -5577.056230 kJ/mol
# Density = 1.864035 g / cm^3
# Si number density = 18.682877 Si / 1000 Ang^3
#
#
#
# Elastic Constant Matrix: (Units=GPa)
#
#
# Indices 1 2 3 4 5 6 
#
# 1 90.7480 22.8764 17.5908 0.0000 21.6371 0.0000
# 2 22.8764 51.4364 19.2430 0.0000 12.6283 0.0000
# 3 17.5908 19.2430 60.1913 0.0000 18.7505 0.0000
# 4 0.0000 0.0000 0.0000 -5.4952 0.0000 0.4617
# 5 21.6371 12.6283 18.7505 0.0000 27.6903 0.0000
# 6 0.0000 0.0000 0.0000 0.4617 0.0000 33.2717
#
#
#
# Elastic Compliance Matrix: (Units=1/GPa)
#
#
# Indices 1 2 3 4 5 6 
#
# 1 0.014258 -0.004068 0.000034 0.000000 -0.009308 0.000000
# 2 -0.004068 0.024271 -0.005212 0.000000 -0.004361 0.000000
# 3 0.000034 -0.005212 0.022226 0.000000 -0.012700 0.000000
# 4 0.000000 0.000000 0.000000 -0.181765 0.000000 0.002522
# 5 -0.009308 -0.004361 -0.012700 0.000000 0.053976 0.000000
# 6 0.000000 0.000000 0.000000 0.002522 0.000000 0.030021
#
#
# Mechanical properties :
#
#
# Convention : Reuss Voigt Hill
#
# Bulk Modulus (GPa) = 23.66207 35.75512 29.70859
# Shear Modulus (GPa) = -1128.29971 20.60439 -553.84766
#
# Velocity S-wave (km/s) = -24.60148 3.32452 -17.23631
# Velocity P-wave (km/s) = 28.18305 5.82375 19.49831
#
# Compressibility (1/GPa) = 0.04226173
#
# Stress axis : x y z
#
# Youngs Moduli (GPa) = 70.13585 41.20068 44.99167
#
# Poissons Ratio (x) = 0.16762 -0.00151
# Poissons Ratio (y) = 0.28535 0.23450
# Poissons Ratio (z) = -0.00235 0.21474
#
# Static dielectric constant tensor:
#      x y z
#    x 1.659940 0.000000 0.012850 
#    y 0.000000 1.631920 0.000000 
#    z 0.012850 0.000000 1.648530 
# 
# From -- ./inp_files/248663.got.cif
#   From: 2010.05.17/outbox.cif.g08.bks.cpg/sg15_125_cif.got.tgz:248663.got - 2010.06.03 18:47:42.
