data_PCOD9274657
_publ_section_title
;
Structure prediction by ZEFSAII (Michael W. Deem and Ramdas Pophale) SiO2 
 PCOD9274657
Probable space group: C 2/C
;
_chemical_formula_sum "Si O2"
_cell_formula_units_Z 60
_cell_length_a 18.217617
_cell_length_b 8.830646
_cell_length_c 20.373945
_cell_angle_alpha 90.000000
_cell_angle_beta 61.160188
_cell_angle_gamma 90.000000
_cell_volume 2871.106210
_symmetry_space_group_name_H-M "C 2/C"
_symmetry_group_IT_number 15
_symmetry_cell_setting 'monoclinic'
loop_
_space_group_symop_operation_xyz
x,y,z
-x,y,1/2-z
-x,-y,-z
x,-y,1/2+z
1/2+x,1/2+y,z
1/2-x,1/2+y,1/2-z
1/2-x,1/2-y,-z
1/2+x,1/2-y,1/2+z
loop_
_atom_site_type_symbol
_atom_site_label
_atom_site_fract_x
_atom_site_fract_y
_atom_site_fract_z
Si Si1 0.300101 0.720511 0.581382
Si Si2 0.983857 0.243409 0.531511
Si Si3 0.070601 0.894670 0.116863
Si Si4 0.596190 0.069473 0.134253
Si Si5 0.256481 0.008719 0.014331
Si Si6 0.352337 0.858535 0.273367
Si Si7 0.454526 0.067557 0.612806
Si Si8 0.000000 0.870435 0.750000
O O1 0.394862 0.672796 0.551954
O O2 0.293482 0.892003 0.557720
O O3 0.263613 0.620658 0.537709
O O4 0.240285 0.697061 0.669235
O O5 0.959267 0.403154 0.577206
O O6 0.034797 0.138751 0.559546
O O7 0.031059 0.300335 0.446041
O O8 0.057261 0.734104 0.158884
O O9 0.169239 0.934052 0.071734
O O10 0.024550 0.025928 0.177063
O O11 0.629174 0.002058 0.187652
O O12 0.531920 0.947124 0.131027
O O13 0.669150 0.090870 0.048115
O O14 0.372186 0.903053 0.190635
O O15 0.419540 0.731060 0.266067
#
# Coordination Sequence:
#
# PCOD9274657 Si02
#       8
#     8   8   8   8   8   8   8   4
#     4  10  21  40  62  90 126 174 208 256 314 392
#     4  10  23  41  63  90 129 165 210 261 323 380
#     4  11  25  39  61 101 129 157 206 279 321 356
#     4  10  20  38  69  89 120 163 216 260 305 374
#     4  10  20  38  64  92 125 164 213 258 311 378
#     4  11  22  40  66  90 120 168 218 253 306 386
#     4  10  20  39  66  87 117 172 213 248 309 392
#     4  12  24  38  62  96 126 158 204 272 314 362
#
# _framework density 20.897869
#
# number of rings (size 3 to 8) (size 9 to 14) (size 15 to 20)
#    0.000    1.600    4.000    0.400    5.600    0.533 
#    2.400    1.333    0.000    0.000    0.000    0.000 
#    0.000    0.000    0.000    0.000    0.000    0.000 
#
# Total GULP energy -167584.055034 kJ/mol
# GULP energy per Si atom -5586.135168 kJ/mol
# Density = 2.085030 g / cm^3
# Si number density = 20.897869 Si / 1000 Ang^3
#
#
#
# Elastic Constant Matrix: (Units=GPa)
#
#
# Indices 1 2 3 4 5 6 
#
# 1 39.6710 2.0390 -0.2201 0.0000 -0.7702 0.0001
# 2 2.0390 51.4977 19.9791 0.0000 -3.3457 0.0002
# 3 -0.2201 19.9791 129.5631 0.0000 -1.2518 0.0000
# 4 0.0000 0.0000 0.0000 24.8708 0.0000 -3.1873
# 5 -0.7702 -3.3457 -1.2518 0.0000 16.4455 0.0000
# 6 0.0001 0.0002 0.0000 -3.1873 0.0000 17.8636
#
#
#
# Elastic Compliance Matrix: (Units=1/GPa)
#
#
# Indices 1 2 3 4 5 6 
#
# 1 0.025280 -0.001018 0.000209 0.000000 0.000993 0.000000
# 2 -0.001018 0.020956 -0.003195 0.000000 0.003973 0.000000
# 3 0.000209 -0.003195 0.008211 0.000000 -0.000015 0.000000
# 4 0.000000 0.000000 0.000000 0.041149 0.000000 0.007342
# 5 0.000993 0.003973 -0.000015 0.000000 0.061660 0.000000
# 6 0.000000 0.000000 0.000000 0.007342 0.000000 0.057290
#
#
# Mechanical properties :
#
#
# Convention : Reuss Voigt Hill
#
# Bulk Modulus (GPa) = 21.53260 29.36974 25.45117
# Shear Modulus (GPa) = 21.00550 25.09823 23.05187
#
# Velocity S-wave (km/s) = 3.17385 3.46930 3.32486
# Velocity P-wave (km/s) = 4.87414 5.48931 5.19084
#
# Compressibility (1/GPa) = 0.04644120
#
# Stress axis : x y z
#
# Youngs Moduli (GPa) = 39.55683 47.71850 121.78609
#
# Poissons Ratio (x) = 0.04856 -0.02551
# Poissons Ratio (y) = 0.04026 0.38909
# Poissons Ratio (z) = -0.00829 0.15245
#
# Static dielectric constant tensor:
#      x y z
#    x 1.747580 0.000000 0.001990 
#    y 0.000000 1.758550 0.000000 
#    z 0.001990 0.000000 1.756750 
# 
# From -- ./inp_files/252102.got.cif
#   From: 2010.05.17/outbox.cif.g08.bks.cpg/sg15_127_cif.got.tgz:252102.got - 2010.06.03 18:47:42.
