data_PCOD9274310
_publ_section_title
;
Structure prediction by ZEFSAII (Michael W. Deem and Ramdas Pophale) SiO2 
 PCOD9274310
Probable space group: C 2/C
;
_chemical_formula_sum "Si O2"
_cell_formula_units_Z 56
_cell_length_a 23.326138
_cell_length_b 9.675835
_cell_length_c 14.589194
_cell_angle_alpha 90.000000
_cell_angle_beta 118.720415
_cell_angle_gamma 90.000000
_cell_volume 2887.684933
_symmetry_space_group_name_H-M "C 2/C"
_symmetry_group_IT_number 15
_symmetry_cell_setting 'monoclinic'
loop_
_space_group_symop_operation_xyz
x,y,z
-x,y,1/2-z
-x,-y,-z
x,-y,1/2+z
1/2+x,1/2+y,z
1/2-x,1/2+y,1/2-z
1/2-x,1/2-y,-z
1/2+x,1/2-y,1/2+z
loop_
_atom_site_type_symbol
_atom_site_label
_atom_site_fract_x
_atom_site_fract_y
_atom_site_fract_z
Si Si1 0.742305 0.413843 0.480272
Si Si2 0.384209 0.215913 0.343480
Si Si3 0.509159 0.011211 0.115964
Si Si4 0.345193 0.501058 0.749048
Si Si5 0.226763 0.483025 0.796853
Si Si6 0.870711 0.581712 0.534289
Si Si7 0.618402 0.802830 0.260475
O O1 0.750000 0.250000 0.500000
O O2 0.680850 0.449510 0.369835
O O3 0.738754 0.480712 0.578247
O O4 0.807432 0.483272 0.485862
O O5 0.385273 0.378101 0.328924
O O6 0.379109 0.165077 0.445519
O O7 0.445223 0.144486 0.339516
O O8 0.319137 0.151510 0.247624
O O9 0.436587 0.008256 0.099951
O O10 0.551556 0.881891 0.184348
O O11 0.500000 0.000000 0.000000
O O12 0.280138 0.483072 0.759750
O O13 0.380804 0.355191 0.767897
O O14 0.176706 0.612127 0.754926
O O15 0.867001 0.679783 0.620185
#
# Coordination Sequence:
#
# PCOD9274310 Si02
#       7
#     8   8   8   8   8   8   8
#     4  11  23  36  61  96 125 157 205 254 310 366
#     4  10  20  38  62  92 117 162 201 256 300 362
#     4   9  20  41  67  84 110 159 214 241 291 364
#     4  12  23  37  60  91 133 150 199 259 317 360
#     4  10  21  37  57  86 125 163 202 238 306 374
#     4  10  21  40  65  83 119 166 211 240 299 378
#     4  10  23  37  61  88 119 164 201 251 304 369
#
# _framework density 19.392696999999998
#
# number of rings (size 3 to 8) (size 9 to 14) (size 15 to 20)
#    0.000    1.714    2.857    1.286    2.000    1.143 
#    0.000    2.857    6.286    0.000    0.000    0.000 
#    0.000    0.000    0.000    0.000    0.000    0.000 
#
# Total GULP energy -156322.000789 kJ/mol
# GULP energy per Si atom -5582.928600 kJ/mol
# Density = 1.934856 g / cm^3
# Si number density = 19.392697 Si / 1000 Ang^3
#
#
#
# Elastic Constant Matrix: (Units=GPa)
#
#
# Indices 1 2 3 4 5 6 
#
# 1 45.3647 17.5228 11.4192 0.0000 -2.8437 0.0000
# 2 17.5228 126.4886 18.7032 0.0000 0.6436 0.0000
# 3 11.4192 18.7032 83.6272 0.0000 -5.9174 0.0000
# 4 0.0000 0.0000 0.0000 23.0519 0.0000 -5.7761
# 5 -2.8437 0.6436 -5.9174 0.0000 23.1162 0.0000
# 6 0.0000 0.0000 0.0000 -5.7761 0.0000 2.0140
#
#
#
# Elastic Compliance Matrix: (Units=1/GPa)
#
#
# Indices 1 2 3 4 5 6 
#
# 1 0.023955 -0.002971 -0.002436 0.000000 0.002406 0.000000
# 2 -0.002971 0.008556 -0.001579 0.000000 -0.001008 0.000000
# 3 -0.002436 -0.001579 0.012859 0.000000 0.003036 0.000000
# 4 0.000000 0.000000 0.000000 0.154181 0.000000 0.442193
# 5 0.002406 -0.001008 0.003036 0.000000 0.044361 0.000000
# 6 0.000000 0.000000 0.000000 0.442193 0.000000 1.764740
#
#
# Mechanical properties :
#
#
# Convention : Reuss Voigt Hill
#
# Bulk Modulus (GPa) = 31.84998 38.97455 35.41226
# Shear Modulus (GPa) = 2.45931 23.49209 12.97570
#
# Velocity S-wave (km/s) = 1.12735 3.48428 2.58951
# Velocity P-wave (km/s) = 4.26074 6.02728 5.21929
#
# Compressibility (1/GPa) = 0.03139720
#
# Stress axis : x y z
#
# Youngs Moduli (GPa) = 41.74471 116.87693 77.76937
#
# Poissons Ratio (x) = 0.34719 0.18948
# Poissons Ratio (y) = 0.12400 0.12282
# Poissons Ratio (z) = 0.10171 0.18458
#
# Static dielectric constant tensor:
#      x y z
#    x 1.677670 0.000000 -0.011640 
#    y 0.000000 1.670510 0.000000 
#    z -0.011640 0.000000 1.705810 
# 
# From -- ./inp_files/172468.got.cif
#   From: 2010.05.17/outbox.cif.g08.bks.cpg/sg15_87_cif.got.tgz:172468.got - 2010.06.03 18:47:42.
