data_PCOD9274171
_publ_section_title
;
Structure prediction by ZEFSAII (Michael W. Deem and Ramdas Pophale) SiO2 
 PCOD9274171
Probable space group: C 2/C
;
_chemical_formula_sum "Si O2"
_cell_formula_units_Z 48
_cell_length_a 9.767798
_cell_length_b 6.824768
_cell_length_c 29.885758
_cell_angle_alpha 90.000000
_cell_angle_beta 86.438457
_cell_angle_gamma 90.000000
_cell_volume 1988.425168
_symmetry_space_group_name_H-M "C 2/C"
_symmetry_group_IT_number 15
_symmetry_cell_setting 'monoclinic'
loop_
_space_group_symop_operation_xyz
x,y,z
-x,y,1/2-z
-x,-y,-z
x,-y,1/2+z
1/2+x,1/2+y,z
1/2-x,1/2+y,1/2-z
1/2-x,1/2-y,-z
1/2+x,1/2-y,1/2+z
loop_
_atom_site_type_symbol
_atom_site_label
_atom_site_fract_x
_atom_site_fract_y
_atom_site_fract_z
Si Si1 0.071541 0.689557 0.620042
Si Si2 0.100145 0.749887 0.522000
Si Si3 0.882737 0.589412 0.786729
Si Si4 0.738224 0.385779 0.129364
Si Si5 0.373048 0.702909 0.962514
Si Si6 0.136526 0.953993 0.226872
O O1 0.096079 0.631845 0.568200
O O2 0.111769 0.549990 0.660644
O O3 0.901858 0.673598 0.625995
O O4 0.171805 0.888386 0.623371
O O5 0.250000 0.750000 0.500000
O O6 0.000887 0.693820 0.483594
O O7 0.076765 0.975613 0.536852
O O8 0.743827 0.537816 0.764734
O O9 0.000000 0.524642 0.750000
O O10 0.895883 0.825089 0.786399
O O11 0.675743 0.275055 0.087529
O O12 0.691457 0.349083 0.181468
O O13 0.250000 0.750000 0.000000
O O14 0.000000 0.866859 0.250000
#
# Coordination Sequence:
#
# PCOD9274171 Si02
#       6
#     8   8   8   8   8   8
#     4  10  20  38  62  92 125 168 212 270 328 393
#     4  10  22  38  60  90 126 163 215 266 325 393
#     4  10  20  38  62  83 120 160 201 256 320 380
#     4  10  20  38  64  90 126 167 216 265 328 397
#     4  10  20  38  62  86 123 169 209 263 328 389
#     4  10  22  38  60  89 119 157 206 259 316 385
#
# _framework density 24.139709
#
# number of rings (size 3 to 8) (size 9 to 14) (size 15 to 20)
#    0.000    2.000    3.333    0.000    0.000    2.667 
#    0.000    3.333    0.000    0.000    0.000    0.000 
#    0.000    0.000    0.000    0.000    0.000    0.000 
#
# Total GULP energy -133617.873437 kJ/mol
# GULP energy per Si atom -5567.411393 kJ/mol
# Density = 2.408477 g / cm^3
# Si number density = 24.139709 Si / 1000 Ang^3
#
#
#
# Elastic Constant Matrix: (Units=GPa)
#
#
# Indices 1 2 3 4 5 6 
#
# 1 174.4310 -12.8475 75.2529 0.0000 5.8008 0.0000
# 2 -12.8475 103.0565 -7.5134 0.0000 13.5237 0.0000
# 3 75.2529 -7.5134 244.7517 0.0000 17.8118 0.0000
# 4 0.0000 0.0000 0.0000 18.7210 0.0000 8.4202
# 5 5.8008 13.5237 17.8118 0.0000 52.6149 0.0000
# 6 0.0000 0.0000 0.0000 8.4202 0.0000 -77.2507
#
#
#
# Elastic Compliance Matrix: (Units=1/GPa)
#
#
# Indices 1 2 3 4 5 6 
#
# 1 0.006660 0.000715 -0.002008 0.000000 -0.000238 0.000000
# 2 0.000715 0.010181 0.000296 0.000000 -0.002796 0.000000
# 3 -0.002008 0.000296 0.004821 0.000000 -0.001487 0.000000
# 4 0.000000 0.000000 0.000000 0.050920 0.000000 0.005550
# 5 -0.000238 -0.002796 -0.001487 0.000000 0.020254 0.000000
# 6 0.000000 0.000000 0.000000 0.005550 0.000000 -0.012340
#
#
# Mechanical properties :
#
#
# Convention : Reuss Voigt Hill
#
# Bulk Modulus (GPa) = 50.84605 70.22482 60.53544
# Shear Modulus (GPa) = 56.15089 29.97352 43.06221
#
# Velocity S-wave (km/s) = 4.82818 3.52755 4.22818
# Velocity P-wave (km/s) = 7.22431 6.76355 6.99773
#
# Compressibility (1/GPa) = 0.01966721
#
# Stress axis : x y z
#
# Youngs Moduli (GPa) = 150.15027 98.22171 207.44387
#
# Poissons Ratio (x) = -0.07024 0.41664
# Poissons Ratio (y) = -0.10737 -0.06143
# Poissons Ratio (z) = 0.30157 -0.02909
#
# Static dielectric constant tensor:
#      x y z
#    x 1.965230 0.000000 0.117460 
#    y 0.000000 1.722150 0.000000 
#    z 0.117460 0.000000 2.024780 
# 
# From -- ./inp_files/306685.got.cif
#   From: 2010.05.17/outbox.cif.g08.bks.cpg/sg15_154_cif.got.tgz:306685.got - 2010.06.03 18:47:42.
