data_PCOD9274397
_publ_section_title
;
Structure prediction by ZEFSAII (Michael W. Deem and Ramdas Pophale) SiO2 
 PCOD9274397
Probable space group: C 2/C
;
_chemical_formula_sum "Si O2"
_cell_formula_units_Z 60
_cell_length_a 7.819925
_cell_length_b 15.719010
_cell_length_c 22.371552
_cell_angle_alpha 90.000000
_cell_angle_beta 79.028092
_cell_angle_gamma 90.000000
_cell_volume 2699.676986
_symmetry_space_group_name_H-M "C 2/C"
_symmetry_group_IT_number 15
_symmetry_cell_setting 'monoclinic'
loop_
_space_group_symop_operation_xyz
x,y,z
-x,y,1/2-z
-x,-y,-z
x,-y,1/2+z
1/2+x,1/2+y,z
1/2-x,1/2+y,1/2-z
1/2-x,1/2-y,-z
1/2+x,1/2-y,1/2+z
loop_
_atom_site_type_symbol
_atom_site_label
_atom_site_fract_x
_atom_site_fract_y
_atom_site_fract_z
Si Si1 0.500000 0.003139 0.250000
Si Si2 0.830823 0.120924 0.720043
Si Si3 0.632787 0.103519 0.132339
Si Si4 0.502799 0.774298 0.537898
Si Si5 0.496564 0.459912 0.565660
Si Si6 0.109113 0.875203 0.106394
Si Si7 0.313762 0.235461 0.681284
Si Si8 0.599535 0.265965 0.579921
O O1 0.505871 0.056912 0.187673
O O2 0.324710 0.946530 0.264977
O O3 0.919639 0.133395 0.650346
O O4 0.748380 0.208633 0.749801
O O5 0.000000 0.097817 0.750000
O O6 0.557427 0.147595 0.077114
O O7 0.797858 0.045241 0.102855
O O8 0.713064 0.182047 0.164665
O O9 0.610793 0.690246 0.550549
O O10 0.497390 0.785982 0.466797
O O11 0.302580 0.751986 0.564574
O O12 0.500000 0.500000 0.500000
O O13 0.619264 0.525499 0.592744
O O14 0.565536 0.364422 0.565301
O O15 0.246858 0.842412 0.144902
O O16 0.512035 0.248090 0.649399
#
# Coordination Sequence:
#
# PCOD9274397 Si02
#       8
#     4   8   8   8   8   8   8   8
#     4  12  24  42  66  92 132 164 212 264 318 380
#     4  10  23  42  64  93 124 164 212 260 315 384
#     4  10  24  40  62  91 124 168 208 260 320 375
#     4  10  22  39  59  88 126 159 206 260 305 381
#     4  11  21  38  61  89 120 156 205 254 314 375
#     4  10  20  38  63  86 117 161 199 255 313 370
#     4   9  22  39  64  84 121 159 209 251 310 374
#     4  10  22  39  60  91 121 160 210 254 316 374
#
# _framework density 22.224882000000001
#
# number of rings (size 3 to 8) (size 9 to 14) (size 15 to 20)
#    0.000    1.867    2.667    0.000    8.400    3.733 
#    0.000    0.667    0.000    0.000    0.000    0.000 
#    0.000    0.000    0.000    0.000    0.000    0.000 
#
# Total GULP energy -167443.426690 kJ/mol
# GULP energy per Si atom -5581.447556 kJ/mol
# Density = 2.217430 g / cm^3
# Si number density = 22.224882 Si / 1000 Ang^3
#
#
#
# Elastic Constant Matrix: (Units=GPa)
#
#
# Indices 1 2 3 4 5 6 
#
# 1 78.6639 18.1005 5.1919 0.0000 -2.6134 0.0000
# 2 18.1005 65.1084 32.7988 0.0000 1.0241 0.0000
# 3 5.1919 32.7988 52.7919 0.0000 -3.1432 0.0000
# 4 0.0000 0.0000 0.0000 32.2764 0.0000 -5.0074
# 5 -2.6134 1.0241 -3.1432 0.0000 30.5223 0.0000
# 6 0.0000 0.0000 0.0000 -5.0074 0.0000 24.9416
#
#
#
# Elastic Compliance Matrix: (Units=1/GPa)
#
#
# Indices 1 2 3 4 5 6 
#
# 1 0.013727 -0.004665 0.001637 0.000000 0.001501 0.000000
# 2 -0.004665 0.024088 -0.014669 0.000000 -0.002718 0.000000
# 3 0.001637 -0.014669 0.028105 0.000000 0.003527 0.000000
# 4 0.000000 0.000000 0.000000 0.031978 0.000000 0.006420
# 5 0.001501 -0.002718 0.003527 0.000000 0.033346 0.000000
# 6 0.000000 0.000000 0.000000 0.006420 0.000000 0.041383
#
#
# Mechanical properties :
#
#
# Convention : Reuss Voigt Hill
#
# Bulk Modulus (GPa) = 32.75657 34.30517 33.53087
# Shear Modulus (GPa) = 22.91531 26.91292 24.91412
#
# Velocity S-wave (km/s) = 3.21450 3.48363 3.35177
# Velocity P-wave (km/s) = 5.34304 5.62582 5.48625
#
# Compressibility (1/GPa) = 0.03052822
#
# Stress axis : x y z
#
# Youngs Moduli (GPa) = 72.84674 41.51450 35.58142
#
# Poissons Ratio (x) = 0.19366 -0.05826
# Poissons Ratio (y) = 0.33981 0.52193
# Poissons Ratio (z) = -0.11928 0.60896
#
# Static dielectric constant tensor:
#      x y z
#    x 1.820160 0.000000 0.008950 
#    y 0.000000 1.819430 0.000000 
#    z 0.008950 0.000000 1.886800 
# 
# From -- ./inp_files/264298.got.cif
#   From: 2010.05.17/outbox.cif.g08.bks.cpg/sg15_133_cif.got.tgz:264298.got - 2010.06.03 18:47:42.
