data_PCOD9274870
_publ_section_title
;
Structure prediction by ZEFSAII (Michael W. Deem and Ramdas Pophale) SiO2 
 PCOD9274870
Probable space group: C 2/C
;
_chemical_formula_sum "Si O2"
_cell_formula_units_Z 44
_cell_length_a 20.212127
_cell_length_b 24.625826
_cell_length_c 8.713198
_cell_angle_alpha 90.000000
_cell_angle_beta 28.938553
_cell_angle_gamma 90.000000
_cell_volume 2098.506504
_symmetry_space_group_name_H-M "C 2/C"
_symmetry_group_IT_number 15
_symmetry_cell_setting 'monoclinic'
loop_
_space_group_symop_operation_xyz
x,y,z
-x,y,1/2-z
-x,-y,-z
x,-y,1/2+z
1/2+x,1/2+y,z
1/2-x,1/2+y,1/2-z
1/2-x,1/2-y,-z
1/2+x,1/2-y,1/2+z
loop_
_atom_site_type_symbol
_atom_site_label
_atom_site_fract_x
_atom_site_fract_y
_atom_site_fract_z
Si Si1 0.000000 0.777499 0.750000
Si Si2 0.004167 0.391387 0.057655
Si Si3 0.553596 0.361705 0.370912
Si Si4 0.211147 0.071884 0.177974
Si Si5 0.257060 0.455308 0.524041
Si Si6 0.703484 0.796351 0.709331
O O1 0.012581 0.816722 0.578798
O O2 0.128910 0.736287 0.495700
O O3 0.000000 0.396831 0.250000
O O4 0.845681 0.397019 0.339872
O O5 0.100977 0.439437 0.798888
O O6 0.090226 0.335951 0.861462
O O7 0.421845 0.391653 0.574007
O O8 0.646018 0.410499 0.252181
O O9 0.661067 0.331740 0.037745
O O10 0.226794 0.054892 0.325502
O O11 0.202841 0.015409 0.103285
O O12 0.750000 0.750000 0.500000
#
# Coordination Sequence:
#
# PCOD9274870 Si02
#       6
#     4   8   8   8   8   8
#     4  10  20  38  66  86 120 168 200 256 310 366
#     4   9  18  36  62  84 119 163 203 239 305 365
#     4  10  22  36  62  91 123 156 209 249 303 369
#     4  11  22  38  63  92 125 162 200 255 300 368
#     4  10  22  38  61  89 127 163 198 245 311 369
#     4   9  18  37  62  84 117 165 202 244 312 362
#
# _framework density 20.967292
#
# number of rings (size 3 to 8) (size 9 to 14) (size 15 to 20)
#    0.000    2.182    0.909    1.636    2.545    0.000 
#    0.000    3.636    8.000    0.000    0.000    0.000 
#    0.000    0.000    0.000    0.000    0.000    0.000 
#
# Total GULP energy -122612.404388 kJ/mol
# GULP energy per Si atom -5573.291109 kJ/mol
# Density = 2.091957 g / cm^3
# Si number density = 20.967292 Si / 1000 Ang^3
#
#
#
# Elastic Constant Matrix: (Units=GPa)
#
#
# Indices 1 2 3 4 5 6 
#
# 1 13.5660 32.5029 36.9251 0.0005 -0.7228 0.0005
# 2 32.5029 163.2553 98.3203 0.0004 -8.7830 0.0002
# 3 36.9251 98.3203 176.4241 0.0002 -26.2810 -0.0001
# 4 0.0005 0.0004 0.0002 55.3348 -0.0003 4.5981
# 5 -0.7228 -8.7830 -26.2810 -0.0003 27.2547 -0.0003
# 6 0.0005 0.0002 -0.0001 4.5981 -0.0003 22.9184
#
#
#
# Elastic Compliance Matrix: (Units=1/GPa)
#
#
# Indices 1 2 3 4 5 6 
#
# 1 0.264227 -0.026486 -0.047608 -0.000002 -0.047435 -0.000006
# 2 -0.026486 0.012002 -0.000787 0.000000 0.002407 0.000000
# 3 -0.047608 -0.000787 0.018503 0.000000 0.016325 0.000001
# 4 -0.000002 0.000000 0.000000 0.018378 0.000001 -0.003687
# 5 -0.047435 0.002407 0.016325 0.000001 0.051951 0.000002
# 6 -0.000006 0.000000 0.000001 -0.003687 0.000002 0.044373
#
#
# Mechanical properties :
#
#
# Convention : Reuss Voigt Hill
#
# Bulk Modulus (GPa) = 6.89792 76.52687 41.71239
# Shear Modulus (GPa) = 8.23022 33.46805 20.84913
#
# Velocity S-wave (km/s) = 1.98338 3.99958 3.15678
# Velocity P-wave (km/s) = 2.92268 7.60962 5.76404
#
# Compressibility (1/GPa) = 0.14497126
#
# Stress axis : x y z
#
# Youngs Moduli (GPa) = 3.78462 83.32159 54.04654
#
# Poissons Ratio (x) = 2.20685 2.57303
# Poissons Ratio (y) = 0.10024 0.04251
# Poissons Ratio (z) = 0.18018 0.06553
#
# Static dielectric constant tensor:
#      x y z
#    x 1.739910 0.000000 -0.004500 
#    y 0.000000 1.760080 0.000000 
#    z -0.004500 0.000000 1.833340 
# 
# From -- ./inp_files/124219.got.cif
#   From: 2010.05.17/outbox.cif.g08.bks.cpg/sg15_63_cif.got.tgz:124219.got - 2010.06.03 18:47:42.
