data_PCOD9274495
_publ_section_title
;
Structure prediction by ZEFSAII (Michael W. Deem and Ramdas Pophale) SiO2 
 PCOD9274495
Probable space group: C 2/C
;
_chemical_formula_sum "Si O2"
_cell_formula_units_Z 40
_cell_length_a 8.468511
_cell_length_b 23.167669
_cell_length_c 10.290795
_cell_angle_alpha 90.000000
_cell_angle_beta 68.258536
_cell_angle_gamma 90.000000
_cell_volume 1875.386580
_symmetry_space_group_name_H-M "C 2/C"
_symmetry_group_IT_number 15
_symmetry_cell_setting 'monoclinic'
loop_
_space_group_symop_operation_xyz
x,y,z
-x,y,1/2-z
-x,-y,-z
x,-y,1/2+z
1/2+x,1/2+y,z
1/2-x,1/2+y,1/2-z
1/2-x,1/2-y,-z
1/2+x,1/2-y,1/2+z
loop_
_atom_site_type_symbol
_atom_site_label
_atom_site_fract_x
_atom_site_fract_y
_atom_site_fract_z
Si Si1 0.370286 0.941240 0.068652
Si Si2 0.962619 0.202907 0.415202
Si Si3 0.573102 0.411106 0.988176
Si Si4 0.260268 0.985545 0.371467
Si Si5 0.433337 0.830285 0.420084
O O1 0.500724 0.887122 0.024108
O O2 0.352247 0.960644 0.220916
O O3 0.367734 0.994219 0.964579
O O4 0.181048 0.916936 0.087041
O O5 0.075144 0.154076 0.445318
O O6 0.769319 0.182031 0.507032
O O7 0.000671 0.268060 0.448973
O O8 0.000000 0.202035 0.250000
O O9 0.673105 0.453597 0.859267
O O10 0.387983 0.440296 0.049846
O O11 0.500000 0.836538 0.250000
#
# Coordination Sequence:
#
# PCOD9274495 Si02
#       5
#     8   8   8   8   8
#     4  10  20  38  63  93 134 169 217 273 322 391
#     4  10  22  40  67  92 127 178 217 270 335 402
#     4   9  20  33  64  90 130 172 214 258 324 402
#     4   9  20  34  64  95 132 172 213 267 328 393
#     4  10  22  42  63  96 131 167 223 278 332 383
#
# _framework density 21.328935000000001
#
# number of rings (size 3 to 8) (size 9 to 14) (size 15 to 20)
#    1.200    1.200    0.000    1.800    2.800    0.800 
#    0.000    5.000    8.800    7.200    0.000    0.000 
#    0.000    0.000    0.000    0.000    0.000    0.000 
#
# Total GULP energy -111342.181817 kJ/mol
# GULP energy per Si atom -5567.109091 kJ/mol
# Density = 2.128039 g / cm^3
# Si number density = 21.328935 Si / 1000 Ang^3
#
#
#
# Elastic Constant Matrix: (Units=GPa)
#
#
# Indices 1 2 3 4 5 6 
#
# 1 60.4423 32.8827 37.1382 0.0000 7.1837 0.0000
# 2 32.8827 182.5968 44.4414 0.0000 13.2413 0.0000
# 3 37.1382 44.4414 72.0049 0.0000 3.6641 0.0000
# 4 0.0000 0.0000 0.0000 39.4154 0.0000 10.1995
# 5 7.1837 13.2413 3.6641 0.0000 34.4631 0.0000
# 6 0.0000 0.0000 0.0000 10.1995 0.0000 45.4004
#
#
#
# Elastic Compliance Matrix: (Units=1/GPa)
#
#
# Indices 1 2 3 4 5 6 
#
# 1 0.024988 -0.001362 -0.011873 0.000000 -0.003423 0.000000
# 2 -0.001362 0.006668 -0.003315 0.000000 -0.001926 0.000000
# 3 -0.011873 -0.003315 0.021986 0.000000 0.001411 0.000000
# 4 0.000000 0.000000 0.000000 0.026937 0.000000 -0.006052
# 5 -0.003423 -0.001926 0.001411 0.000000 0.030320 0.000000
# 6 0.000000 0.000000 0.000000 -0.006052 0.000000 0.023386
#
#
# Mechanical properties :
#
#
# Convention : Reuss Voigt Hill
#
# Bulk Modulus (GPa) = 48.68191 60.44093 54.56142
# Shear Modulus (GPa) = 28.69717 37.22788 32.96253
#
# Velocity S-wave (km/s) = 3.67203 4.18235 3.93547
# Velocity P-wave (km/s) = 6.39158 7.19179 6.80346
#
# Compressibility (1/GPa) = 0.02054151
#
# Stress axis : x y z
#
# Youngs Moduli (GPa) = 40.01931 149.96237 45.48287
#
# Poissons Ratio (x) = 0.20423 0.54003
# Poissons Ratio (y) = 0.05450 0.15079
# Poissons Ratio (z) = 0.47516 0.49717
#
# Static dielectric constant tensor:
#      x y z
#    x 1.892270 0.000000 -0.025800 
#    y 0.000000 1.838140 0.000000 
#    z -0.025800 0.000000 1.753210 
# 
# From -- ./inp_files/24397.got.cif
#   From: 2010.05.17/outbox.cif.g08.bks.cpg/sg15_13_cif.got.tgz:24397.got - 2010.06.03 18:47:42.
