data_PCOD9274313
_publ_section_title
;
Structure prediction by ZEFSAII (Michael W. Deem and Ramdas Pophale) SiO2 
 PCOD9274313
Probable space group: C 2/C
;
_chemical_formula_sum "Si O2"
_cell_formula_units_Z 44
_cell_length_a 12.579677
_cell_length_b 12.885268
_cell_length_c 11.698454
_cell_angle_alpha 90.000000
_cell_angle_beta 100.976460
_cell_angle_gamma 90.000000
_cell_volume 1861.541144
_symmetry_space_group_name_H-M "C 2/C"
_symmetry_group_IT_number 15
_symmetry_cell_setting 'monoclinic'
loop_
_space_group_symop_operation_xyz
x,y,z
-x,y,1/2-z
-x,-y,-z
x,-y,1/2+z
1/2+x,1/2+y,z
1/2-x,1/2+y,1/2-z
1/2-x,1/2-y,-z
1/2+x,1/2-y,1/2+z
loop_
_atom_site_type_symbol
_atom_site_label
_atom_site_fract_x
_atom_site_fract_y
_atom_site_fract_z
Si Si1 0.872283 0.434672 0.607868
Si Si2 0.039740 0.358448 0.488006
Si Si3 0.652209 0.908600 0.209805
Si Si4 0.000000 0.116936 0.750000
Si Si5 0.172855 0.823966 0.102337
Si Si6 0.176159 0.970001 0.448604
O O1 0.961745 0.355019 0.584074
O O2 0.882106 0.486005 0.732640
O O3 0.747359 0.404057 0.557415
O O4 0.902743 0.532369 0.529751
O O5 0.948858 0.352143 0.369854
O O6 0.133235 0.275715 0.525673
O O7 0.710314 0.834827 0.313763
O O8 0.743393 0.949054 0.141618
O O9 0.093009 0.172450 0.696060
O O10 0.062517 0.056890 0.866023
O O11 0.163236 0.921977 0.014124
#
# Coordination Sequence:
#
# PCOD9274313 Si02
#       6
#     8   8   8   4   8   8
#     4   9  19  38  61  83 123 160 204 244 303 361
#     4  10  20  38  62  92 121 157 199 257 298 350
#     4   9  19  38  64  87 124 166 199 240 310 366
#     4  10  20  40  60  86 124 162 192 244 310 368
#     4  10  21  39  61  92 122 152 208 252 290 363
#     4   9  19  37  61  84 117 163 196 243 299 362
#
# _framework density 23.636329
#
# number of rings (size 3 to 8) (size 9 to 14) (size 15 to 20)
#    0.000    2.545    0.000    1.091    0.000    2.909 
#   16.364    8.182    4.000    0.000    0.000    0.000 
#    0.000    0.000    0.000    0.000    0.000    0.000 
#
# Total GULP energy -122486.339937 kJ/mol
# GULP energy per Si atom -5567.560906 kJ/mol
# Density = 2.358253 g / cm^3
# Si number density = 23.636329 Si / 1000 Ang^3
#
#
#
# Elastic Constant Matrix: (Units=GPa)
#
#
# Indices 1 2 3 4 5 6 
#
# 1 96.7690 18.8186 44.5352 0.0000 42.2126 0.0000
# 2 18.8186 25.9835 25.5203 0.0000 14.7720 0.0000
# 3 44.5352 25.5203 119.0919 0.0000 27.4051 0.0000
# 4 0.0000 0.0000 0.0000 25.7655 0.0000 2.9200
# 5 42.2126 14.7720 27.4051 0.0000 60.7725 0.0000
# 6 0.0000 0.0000 0.0000 2.9200 0.0000 37.5353
#
#
#
# Elastic Compliance Matrix: (Units=1/GPa)
#
#
# Indices 1 2 3 4 5 6 
#
# 1 0.016530 -0.003514 -0.003328 0.000000 -0.009127 0.000000
# 2 -0.003514 0.053211 -0.008562 0.000000 -0.006632 0.000000
# 3 -0.003328 -0.008562 0.011677 0.000000 -0.000873 0.000000
# 4 0.000000 0.000000 0.000000 0.039157 0.000000 -0.003046
# 5 -0.009127 -0.006632 -0.000873 0.000000 0.024800 0.000000
# 6 0.000000 0.000000 0.000000 -0.003046 0.000000 0.026879
#
#
# Mechanical properties :
#
#
# Convention : Reuss Voigt Hill
#
# Bulk Modulus (GPa) = 19.75942 46.62139 33.19041
# Shear Modulus (GPa) = 22.73412 35.01269 28.87341
#
# Velocity S-wave (km/s) = 3.10470 3.85295 3.49889
# Velocity P-wave (km/s) = 4.60762 6.28975 5.51322
#
# Compressibility (1/GPa) = 0.05060878
#
# Stress axis : x y z
#
# Youngs Moduli (GPa) = 60.49448 18.79302 85.63720
#
# Poissons Ratio (x) = 0.06605 0.28503
# Poissons Ratio (y) = 0.21260 0.73325
# Poissons Ratio (z) = 0.20134 0.16091
#
# Static dielectric constant tensor:
#      x y z
#    x 2.020700 0.000000 0.013770 
#    y 0.000000 1.909800 0.000000 
#    z 0.013770 0.000000 2.019470 
# 
# From -- ./inp_files/95730.got.cif
#   From: 2010.05.17/outbox.cif.g08.bks.cpg/sg15_48_cif.got.tgz:95730.got - 2010.06.03 18:47:42.
