data_PCOD9274852
_publ_section_title
;
Structure prediction by ZEFSAII (Michael W. Deem and Ramdas Pophale) SiO2 
 PCOD9274852
Probable space group: C 2/C
;
_chemical_formula_sum "Si O2"
_cell_formula_units_Z 60
_cell_length_a 29.338216
_cell_length_b 20.747027
_cell_length_c 9.464086
_cell_angle_alpha 90.000000
_cell_angle_beta 27.600249
_cell_angle_gamma 90.000000
_cell_volume 2668.888594
_symmetry_space_group_name_H-M "C 2/C"
_symmetry_group_IT_number 15
_symmetry_cell_setting 'monoclinic'
loop_
_space_group_symop_operation_xyz
x,y,z
-x,y,1/2-z
-x,-y,-z
x,-y,1/2+z
1/2+x,1/2+y,z
1/2-x,1/2+y,1/2-z
1/2-x,1/2-y,-z
1/2+x,1/2-y,1/2+z
loop_
_atom_site_type_symbol
_atom_site_label
_atom_site_fract_x
_atom_site_fract_y
_atom_site_fract_z
Si Si1 0.377592 0.317732 0.927541
Si Si2 0.729881 0.882173 0.136306
Si Si3 0.159775 0.932020 0.925452
Si Si4 0.096017 0.867647 0.355157
Si Si5 0.151460 0.512840 0.028558
Si Si6 0.000000 0.986767 0.750000
Si Si7 0.069485 0.706079 0.931539
Si Si8 0.506776 0.100777 0.572507
O O1 0.485145 0.350187 0.614474
O O2 0.387652 0.255677 0.800735
O O3 0.285838 0.357712 0.120988
O O4 0.369565 0.317259 0.120302
O O5 0.663180 0.943788 0.356653
O O6 0.660115 0.829537 0.257830
O O7 0.814951 0.901759 0.794165
O O8 0.242869 0.984395 0.727298
O O9 0.162459 0.877136 0.036944
O O10 0.054998 0.967159 0.208639
O O11 0.082904 0.938709 0.460638
O O12 0.078739 0.452789 0.209024
O O13 0.106097 0.561006 0.269310
O O14 0.008546 0.654091 0.006076
O O15 0.000000 0.732269 0.250000
O O16 0.500000 0.127419 0.750000
#
# Coordination Sequence:
#
# PCOD9274852 Si02
#       8
#     8   8   8   8   8   4   8   8
#     4  10  25  46  70  91 138 179 232 287 334 392
#     4  12  24  43  67 104 134 180 229 275 340 417
#     4  12  22  38  69 103 140 177 220 274 353 412
#     4  10  23  44  67 101 137 176 230 277 342 412
#     4  11  23  42  69 103 149 172 220 286 343 427
#     4  10  20  38  66 102 142 180 216 270 352 426
#     4  12  26  49  69  96 134 181 240 282 339 409
#     4  11  25  42  71 101 136 184 226 285 353 401
#
# _framework density 22.481269000000001
#
# number of rings (size 3 to 8) (size 9 to 14) (size 15 to 20)
#    0.000    1.067    2.667    4.800    5.600    1.067 
#    0.000    0.667    0.000    0.000    0.000    0.000 
#    0.000    0.000    0.000    0.000    0.000    0.000 
#
# Total GULP energy -167700.062579 kJ/mol
# GULP energy per Si atom -5590.002086 kJ/mol
# Density = 2.243010 g / cm^3
# Si number density = 22.481269 Si / 1000 Ang^3
#
#
#
# Elastic Constant Matrix: (Units=GPa)
#
#
# Indices 1 2 3 4 5 6 
#
# 1 97.7630 21.1461 21.9327 0.0000 -1.7667 0.0000
# 2 21.1461 40.8910 5.6090 0.0000 -4.3100 0.0000
# 3 21.9327 5.6090 60.4397 0.0000 12.9160 0.0000
# 4 0.0000 0.0000 0.0000 17.7115 0.0000 7.1302
# 5 -1.7667 -4.3100 12.9160 0.0000 28.4694 0.0000
# 6 0.0000 0.0000 0.0000 7.1302 0.0000 36.9053
#
#
#
# Elastic Compliance Matrix: (Units=1/GPa)
#
#
# Indices 1 2 3 4 5 6 
#
# 1 0.012474 -0.005643 -0.004414 0.000000 0.001922 0.000000
# 2 -0.005643 0.028069 -0.001540 0.000000 0.004598 0.000000
# 3 -0.004414 -0.001540 0.020374 0.000000 -0.009750 0.000000
# 4 0.000000 0.000000 0.000000 0.061222 0.000000 -0.011828
# 5 0.001922 0.004598 -0.009750 0.000000 0.040364 0.000000
# 6 0.000000 0.000000 0.000000 -0.011828 0.000000 0.029382
#
#
# Mechanical properties :
#
#
# Convention : Reuss Voigt Hill
#
# Bulk Modulus (GPa) = 26.50815 32.94102 29.72459
# Shear Modulus (GPa) = 21.96324 26.64429 24.30376
#
# Velocity S-wave (km/s) = 3.12902 3.44638 3.29153
# Velocity P-wave (km/s) = 4.98710 5.52459 5.26271
#
# Compressibility (1/GPa) = 0.03772424
#
# Stress axis : x y z
#
# Youngs Moduli (GPa) = 80.16454 35.62628 49.08298
#
# Poissons Ratio (x) = 0.20103 0.21665
# Poissons Ratio (y) = 0.45235 0.07557
# Poissons Ratio (z) = 0.35384 0.05485
#
# Static dielectric constant tensor:
#      x y z
#    x 1.853380 0.000000 0.044080 
#    y 0.000000 1.840160 0.000000 
#    z 0.044080 0.000000 1.845940 
# 
# From -- ./inp_files/70950.got.cif
#   From: 2010.05.17/outbox.cif.g08.bks.cpg/sg15_36_cif.got.tgz:70950.got - 2010.06.03 18:47:42.
