data_PCOD9274011
_publ_section_title
;
Structure prediction by ZEFSAII (Michael W. Deem and Ramdas Pophale) SiO2 
 PCOD9274011
Probable space group: C 2/C
;
_chemical_formula_sum "Si O2"
_cell_formula_units_Z 44
_cell_length_a 25.722564
_cell_length_b 9.062328
_cell_length_c 10.961739
_cell_angle_alpha 90.000000
_cell_angle_beta 133.979325
_cell_angle_gamma 90.000000
_cell_volume 1838.733814
_symmetry_space_group_name_H-M "C 2/C"
_symmetry_group_IT_number 15
_symmetry_cell_setting 'monoclinic'
loop_
_space_group_symop_operation_xyz
x,y,z
-x,y,1/2-z
-x,-y,-z
x,-y,1/2+z
1/2+x,1/2+y,z
1/2-x,1/2+y,1/2-z
1/2-x,1/2-y,-z
1/2+x,1/2-y,1/2+z
loop_
_atom_site_type_symbol
_atom_site_label
_atom_site_fract_x
_atom_site_fract_y
_atom_site_fract_z
Si Si1 0.220087 0.828157 0.573569
Si Si2 0.000000 0.392656 0.250000
Si Si3 0.944108 0.110052 0.756794
Si Si4 0.544160 0.114586 0.489034
Si Si5 0.408524 0.690626 0.256468
Si Si6 0.232720 0.829983 0.101174
O O1 0.250000 0.750000 0.500000
O O2 0.132717 0.837793 0.421601
O O3 0.244148 0.746247 0.735933
O O4 0.249336 0.996130 0.624847
O O5 0.059640 0.509886 0.397644
O O6 0.025151 0.281583 0.187968
O O7 0.000000 0.041318 0.750000
O O8 0.988903 0.251864 0.872067
O O9 0.924624 0.977750 0.818530
O O10 0.610339 0.199521 0.662012
O O11 0.500000 0.000000 0.500000
O O12 0.354495 0.679230 0.055350
O O13 0.250000 0.750000 0.000000
#
# Coordination Sequence:
#
# PCOD9274011 Si02
#       6
#     8   4   8   8   8   8
#     4  11  27  50  74 104 144 194 241 294 358 428
#     4  10  20  38  60  98 134 172 226 282 352 406
#     4  11  23  45  71  99 137 184 235 286 349 427
#     4  10  22  37  61  99 130 170 217 288 345 400
#     4  10  23  41  66  96 134 182 227 282 349 420
#     4  11  26  46  73 104 142 191 240 293 356 426
#
# _framework density 23.929508999999999
#
# number of rings (size 3 to 8) (size 9 to 14) (size 15 to 20)
#    0.000    1.455    1.818    1.636    2.545   10.182 
#    3.273    0.000    0.000    0.000    0.000    0.000 
#    0.000    0.000    0.000    0.000    0.000    0.000 
#
# Total GULP energy -122638.602735 kJ/mol
# GULP energy per Si atom -5574.481942 kJ/mol
# Density = 2.387504 g / cm^3
# Si number density = 23.929509 Si / 1000 Ang^3
#
#
#
# Elastic Constant Matrix: (Units=GPa)
#
#
# Indices 1 2 3 4 5 6 
#
# 1 83.4768 43.5099 35.1396 0.0000 -15.7607 0.0000
# 2 43.5099 215.5366 78.1665 0.0000 -28.3628 0.0000
# 3 35.1396 78.1665 148.5340 0.0000 -17.7372 0.0000
# 4 0.0000 0.0000 0.0000 50.8248 0.0000 -12.1310
# 5 -15.7607 -28.3628 -17.7372 0.0000 34.7148 0.0000
# 6 0.0000 0.0000 0.0000 -12.1310 0.0000 31.7128
#
#
#
# Elastic Compliance Matrix: (Units=1/GPa)
#
#
# Indices 1 2 3 4 5 6 
#
# 1 0.014489 -0.001621 -0.002074 0.000000 0.004194 0.000000
# 2 -0.001621 0.006305 -0.002564 0.000000 0.003106 0.000000
# 3 -0.002074 -0.002564 0.008743 0.000000 0.001431 0.000000
# 4 0.000000 0.000000 0.000000 0.021652 0.000000 0.008283
# 5 0.004194 0.003106 0.001431 0.000000 0.033979 0.000000
# 6 0.000000 0.000000 0.000000 0.008283 0.000000 0.034701
#
#
# Mechanical properties :
#
#
# Convention : Reuss Voigt Hill
#
# Bulk Modulus (GPa) = 58.75326 84.57548 71.66437
# Shear Modulus (GPa) = 36.21588 42.83256 39.52422
#
# Velocity S-wave (km/s) = 3.89452 4.23537 4.06851
# Velocity P-wave (km/s) = 6.69544 7.70312 7.21689
#
# Compressibility (1/GPa) = 0.01702033
#
# Stress axis : x y z
#
# Youngs Moduli (GPa) = 69.01741 158.59759 114.37427
#
# Poissons Ratio (x) = 0.25706 0.23721
# Poissons Ratio (y) = 0.11186 0.29324
# Poissons Ratio (z) = 0.14314 0.40662
#
# Static dielectric constant tensor:
#      x y z
#    x 2.099730 0.000000 -0.073570 
#    y 0.000000 1.891520 0.000000 
#    z -0.073570 0.000000 2.142040 
# 
# From -- ./inp_files/176311.got.cif
#   From: 2010.05.17/outbox.cif.g08.bks.cpg/sg15_89_cif.got.tgz:176311.got - 2010.06.03 18:47:42.
