data_PCOD9274884
_publ_section_title
;
Structure prediction by ZEFSAII (Michael W. Deem and Ramdas Pophale) SiO2 
 PCOD9274884
Probable space group: C 2/C
;
_chemical_formula_sum "Si O2"
_cell_formula_units_Z 56
_cell_length_a 22.658359
_cell_length_b 8.252592
_cell_length_c 17.713140
_cell_angle_alpha 90.000000
_cell_angle_beta 56.575190
_cell_angle_gamma 90.000000
_cell_volume 2764.379504
_symmetry_space_group_name_H-M "C 2/C"
_symmetry_group_IT_number 15
_symmetry_cell_setting 'monoclinic'
loop_
_space_group_symop_operation_xyz
x,y,z
-x,y,1/2-z
-x,-y,-z
x,-y,1/2+z
1/2+x,1/2+y,z
1/2-x,1/2+y,1/2-z
1/2-x,1/2-y,-z
1/2+x,1/2-y,1/2+z
loop_
_atom_site_type_symbol
_atom_site_label
_atom_site_fract_x
_atom_site_fract_y
_atom_site_fract_z
Si Si1 0.811724 0.617563 0.943552
Si Si2 0.283869 0.389162 0.577639
Si Si3 0.031559 0.750789 0.934711
Si Si4 0.609686 0.417393 0.415522
Si Si5 0.832101 0.363199 0.717063
Si Si6 0.362024 0.940327 0.048369
Si Si7 0.933617 0.569730 0.742699
O O1 0.769426 0.455900 0.946977
O O2 0.870055 0.650792 0.837018
O O3 0.750000 0.750000 0.000000
O O4 0.854988 0.573121 0.988298
O O5 0.342602 0.526723 0.548469
O O6 0.239076 0.377940 0.686057
O O7 0.321666 0.217410 0.545405
O O8 0.062781 0.626910 0.975357
O O9 0.039594 0.678853 0.845701
O O10 0.077878 0.915571 0.905804
O O11 0.953715 0.803017 0.013127
O O12 0.654085 0.315134 0.324339
O O13 0.829673 0.483881 0.647381
O O14 0.895772 0.418154 0.727769
O O15 0.000000 0.530589 0.750000
#
# Coordination Sequence:
#
# PCOD9274884 Si02
#       7
#     8   8   8   8   8   8   8
#     4  11  24  38  59  92 120 164 201 251 311 364
#     4  10  21  38  57  89 125 153 196 254 308 361
#     4   9  22  40  62  89 118 165 203 258 303 367
#     4  10  20  38  66  89 119 154 213 248 309 369
#     4  10  21  36  62  88 114 159 201 250 304 363
#     4  10  21  37  60  87 118 159 202 247 301 367
#     4  10  24  40  58  86 126 157 205 251 307 368
#
# _framework density 20.257712000000001
#
# number of rings (size 3 to 8) (size 9 to 14) (size 15 to 20)
#    0.000    2.000    0.000    2.143    6.000    6.857 
#    0.000    0.714    0.000    0.000    0.000    0.000 
#    0.000    0.000    0.000    0.000    0.000    0.000 
#
# Total GULP energy -156306.049858 kJ/mol
# GULP energy per Si atom -5582.358923 kJ/mol
# Density = 2.021160 g / cm^3
# Si number density = 20.257712 Si / 1000 Ang^3
#
#
#
# Elastic Constant Matrix: (Units=GPa)
#
#
# Indices 1 2 3 4 5 6 
#
# 1 93.5737 34.6888 39.9243 0.0003 15.5962 -0.0001
# 2 34.6888 73.5308 21.3099 0.0008 8.9803 -0.0006
# 3 39.9243 21.3099 65.7875 0.0004 14.1993 -0.0002
# 4 0.0003 0.0008 0.0004 23.2272 -0.0002 1.5115
# 5 15.5962 8.9803 14.1993 -0.0002 31.4432 0.0001
# 6 -0.0001 -0.0006 -0.0002 1.5115 0.0001 27.8138
#
#
#
# Elastic Compliance Matrix: (Units=1/GPa)
#
#
# Indices 1 2 3 4 5 6 
#
# 1 0.016355 -0.005128 -0.007567 0.000000 -0.003230 0.000000
# 2 -0.005128 0.016770 -0.002034 0.000000 -0.001328 0.000000
# 3 -0.007567 -0.002034 0.021623 0.000000 -0.005431 0.000000
# 4 0.000000 0.000000 0.000000 0.043206 0.000000 -0.002348
# 5 -0.003230 -0.001328 -0.005431 0.000000 0.036237 0.000000
# 6 0.000000 0.000000 0.000000 -0.002348 0.000000 0.036081
#
#
# Mechanical properties :
#
#
# Convention : Reuss Voigt Hill
#
# Bulk Modulus (GPa) = 39.53888 47.19312 43.36600
# Shear Modulus (GPa) = 24.01994 25.62809 24.82402
#
# Velocity S-wave (km/s) = 3.44716 3.56069 3.50438
# Velocity P-wave (km/s) = 5.95014 6.34442 6.15044
#
# Compressibility (1/GPa) = 0.02529156
#
# Stress axis : x y z
#
# Youngs Moduli (GPa) = 61.14458 59.62861 46.24610
#
# Poissons Ratio (x) = 0.30578 0.34994
# Poissons Ratio (y) = 0.31355 0.09405
# Poissons Ratio (z) = 0.46267 0.12127
#
# Static dielectric constant tensor:
#      x y z
#    x 1.733760 0.000000 -0.009930 
#    y 0.000000 1.727220 0.000000 
#    z -0.009930 0.000000 1.689190 
# 
# From -- ./inp_files/172290.got.cif
#   From: 2010.05.17/outbox.cif.g08.bks.cpg/sg15_87_cif.got.tgz:172290.got - 2010.06.03 18:47:42.
