data_PCOD9274560
_publ_section_title
;
Structure prediction by ZEFSAII (Michael W. Deem and Ramdas Pophale) SiO2 
 PCOD9274560
Probable space group: C 2/C
;
_chemical_formula_sum "Si O2"
_cell_formula_units_Z 60
_cell_length_a 19.316571
_cell_length_b 29.008724
_cell_length_c 5.152933
_cell_angle_alpha 90.000000
_cell_angle_beta 85.679323
_cell_angle_gamma 90.000000
_cell_volume 2879.235170
_symmetry_space_group_name_H-M "C 2/C"
_symmetry_group_IT_number 15
_symmetry_cell_setting 'monoclinic'
loop_
_space_group_symop_operation_xyz
x,y,z
-x,y,1/2-z
-x,-y,-z
x,-y,1/2+z
1/2+x,1/2+y,z
1/2-x,1/2+y,1/2-z
1/2-x,1/2-y,-z
1/2+x,1/2-y,1/2+z
loop_
_atom_site_type_symbol
_atom_site_label
_atom_site_fract_x
_atom_site_fract_y
_atom_site_fract_z
Si Si1 0.712151 0.028886 0.864757
Si Si2 0.785728 0.877714 0.193118
Si Si3 0.607497 0.177709 0.562159
Si Si4 0.423875 0.914544 0.153220
Si Si5 0.075816 0.824331 0.325652
Si Si6 0.759619 0.674817 0.294450
Si Si7 0.623508 0.270615 0.817754
Si Si8 0.500000 0.145687 0.250000
O O1 0.761441 0.071484 0.775228
O O2 0.631984 0.045709 0.861791
O O3 0.723560 0.988749 0.651958
O O4 0.867003 0.865080 0.198832
O O5 0.747442 0.844256 0.413038
O O6 0.765127 0.864046 0.906197
O O7 0.611573 0.125626 0.666416
O O8 0.664459 0.187079 0.325924
O O9 0.614340 0.217155 0.769455
O O10 0.531627 0.177448 0.459460
O O11 0.500000 0.927028 0.250000
O O12 0.441919 0.888274 0.881577
O O13 0.083368 0.799720 0.603969
O O14 0.000000 0.839413 0.250000
O O15 0.098854 0.787120 0.104095
O O16 0.704676 0.715856 0.273855
#
# Coordination Sequence:
#
# PCOD9274560 Si02
#       8
#     8   8   8   8   8   8   8   4
#     4  12  26  42  68  93 114 149 194 260 311 365
#     4  10  21  41  63  91 120 156 199 246 308 368
#     4  11  22  37  58  84 125 168 210 253 297 341
#     4  10  24  41  59  84 119 164 204 243 310 360
#     4  10  22  39  61  89 127 165 199 244 293 355
#     4  10  20  38  64  84 122 164 203 254 292 352
#     4  10  23  35  58  95 122 162 215 248 286 338
#     4  10  24  38  58  80 118 178 198 248 294 364
#
# _framework density 20.838867
#
# number of rings (size 3 to 8) (size 9 to 14) (size 15 to 20)
#    0.000    1.600    1.333    2.400    6.533    2.667 
#    0.000    4.000    0.000    0.800    0.000    0.000 
#    0.000    0.000    0.000    0.000    0.000    0.000 
#
# Total GULP energy -167806.729320 kJ/mol
# GULP energy per Si atom -5593.557644 kJ/mol
# Density = 2.079144 g / cm^3
# Si number density = 20.838867 Si / 1000 Ang^3
#
#
#
# Elastic Constant Matrix: (Units=GPa)
#
#
# Indices 1 2 3 4 5 6 
#
# 1 83.5859 24.3602 5.2071 0.0000 -3.9994 0.0000
# 2 24.3602 48.3404 -5.5618 0.0000 3.9721 0.0000
# 3 5.2071 -5.5618 69.0614 0.0000 1.6376 0.0000
# 4 0.0000 0.0000 0.0000 20.2390 0.0000 3.9204
# 5 -3.9994 3.9721 1.6376 0.0000 26.8679 0.0000
# 6 0.0000 0.0000 0.0000 3.9204 0.0000 18.7301
#
#
#
# Elastic Compliance Matrix: (Units=1/GPa)
#
#
# Indices 1 2 3 4 5 6 
#
# 1 0.014514 -0.007803 -0.001804 0.000000 0.003424 0.000000
# 2 -0.007803 0.025352 0.002750 0.000000 -0.005077 0.000000
# 3 -0.001804 0.002750 0.014875 0.000000 -0.001582 0.000000
# 4 0.000000 0.000000 0.000000 0.051498 0.000000 -0.010779
# 5 0.003424 -0.005077 -0.001582 0.000000 0.038576 0.000000
# 6 0.000000 0.000000 0.000000 -0.010779 0.000000 0.055646
#
#
# Mechanical properties :
#
#
# Convention : Reuss Voigt Hill
#
# Bulk Modulus (GPa) = 24.37330 27.66651 26.01991
# Shear Modulus (GPa) = 21.94429 24.96621 23.45525
#
# Velocity S-wave (km/s) = 3.24859 3.46506 3.35857
# Velocity P-wave (km/s) = 5.07864 5.41424 5.24912
#
# Compressibility (1/GPa) = 0.04102850
#
# Stress axis : x y z
#
# Youngs Moduli (GPa) = 68.89891 39.44400 67.22737
#
# Poissons Ratio (x) = 0.30778 0.12127
# Poissons Ratio (y) = 0.53761 -0.18491
# Poissons Ratio (z) = 0.12429 -0.10849
#
# Static dielectric constant tensor:
#      x y z
#    x 1.792790 0.000000 0.025080 
#    y 0.000000 1.713820 0.000000 
#    z 0.025080 0.000000 1.783500 
# 
# From -- ./inp_files/11553.got.cif
#   From: 2010.05.17/outbox.cif.g08.bks.cpg/sg15_6_cif.got.tgz:11553.got - 2010.06.03 18:47:42.
