data_PCOD9274347
_publ_section_title
;
Structure prediction by ZEFSAII (Michael W. Deem and Ramdas Pophale) SiO2 
 PCOD9274347
Probable space group: C 2/C
;
_chemical_formula_sum "Si O2"
_cell_formula_units_Z 36
_cell_length_a 15.166894
_cell_length_b 19.550264
_cell_length_c 8.230594
_cell_angle_alpha 90.000000
_cell_angle_beta 46.453193
_cell_angle_gamma 90.000000
_cell_volume 1768.909867
_symmetry_space_group_name_H-M "C 2/C"
_symmetry_group_IT_number 15
_symmetry_cell_setting 'monoclinic'
loop_
_space_group_symop_operation_xyz
x,y,z
-x,y,1/2-z
-x,-y,-z
x,-y,1/2+z
1/2+x,1/2+y,z
1/2-x,1/2+y,1/2-z
1/2-x,1/2-y,-z
1/2+x,1/2-y,1/2+z
loop_
_atom_site_type_symbol
_atom_site_label
_atom_site_fract_x
_atom_site_fract_y
_atom_site_fract_z
Si Si1 0.584277 0.285101 0.857392
Si Si2 0.152037 0.571045 0.355035
Si Si3 0.845954 0.275024 0.581737
Si Si4 0.500000 0.038256 0.250000
Si Si5 0.934181 0.935438 0.502462
O O1 0.704429 0.264678 0.808842
O O2 0.625087 0.263804 0.623536
O O3 0.456090 0.248837 0.057037
O O4 0.562596 0.366126 0.896479
O O5 0.144325 0.643468 0.456243
O O6 0.080665 0.578994 0.276323
O O7 0.088477 0.511470 0.536804
O O8 0.291916 0.551174 0.151514
O O9 0.000000 0.920413 0.250000
O O10 0.000000 0.000000 0.500000
#
# Coordination Sequence:
#
# PCOD9274347 Si02
#       5
#     8   8   8   4   8
#     4   9  19  37  60  89 116 159 204 254 303 368
#     4  10  21  40  63  92 127 163 212 258 311 374
#     4   9  18  37  61  87 117 158 210 251 306 370
#     4  10  20  38  62  94 122 164 210 260 316 360
#     4  11  24  41  61  92 129 165 206 257 315 379
#
# _framework density 20.351517000000001
#
# number of rings (size 3 to 8) (size 9 to 14) (size 15 to 20)
#    0.000    2.222    0.000    2.667    3.111    0.000 
#   18.000    2.222    0.000    0.000    0.000    0.000 
#    0.000    0.000    0.000    0.000    0.000    0.000 
#
# Total GULP energy -100372.682860 kJ/mol
# GULP energy per Si atom -5576.260159 kJ/mol
# Density = 2.030520 g / cm^3
# Si number density = 20.351517 Si / 1000 Ang^3
#
#
#
# Elastic Constant Matrix: (Units=GPa)
#
#
# Indices 1 2 3 4 5 6 
#
# 1 108.2336 54.3611 57.2687 0.0000 -40.0222 0.0000
# 2 54.3611 107.9046 45.0197 0.0000 -10.4176 0.0000
# 3 57.2687 45.0197 88.7671 0.0000 -24.6493 0.0000
# 4 0.0000 0.0000 0.0000 101.1729 0.0000 -2.2127
# 5 -40.0222 -10.4176 -24.6493 0.0000 55.1138 0.0000
# 6 0.0000 0.0000 0.0000 -2.2127 0.0000 32.2886
#
#
#
# Elastic Compliance Matrix: (Units=1/GPa)
#
#
# Indices 1 2 3 4 5 6 
#
# 1 0.019585 -0.006074 -0.006764 0.000000 0.010049 0.000000
# 2 -0.006074 0.013651 -0.004011 0.000000 -0.003625 0.000000
# 3 -0.006764 -0.004011 0.018371 0.000000 0.002546 0.000000
# 4 0.000000 0.000000 0.000000 0.009899 0.000000 0.000678
# 5 0.010049 -0.003625 0.002546 0.000000 0.025895 0.000000
# 6 0.000000 0.000000 0.000000 0.000678 0.000000 0.031017
#
#
# Mechanical properties :
#
#
# Convention : Reuss Voigt Hill
#
# Bulk Modulus (GPa) = 55.84253 68.68937 62.26595
# Shear Modulus (GPa) = 31.62825 47.59879 39.61352
#
# Velocity S-wave (km/s) = 3.94648 4.84139 4.41666
# Velocity P-wave (km/s) = 6.94729 8.06702 7.52801
#
# Compressibility (1/GPa) = 0.01790750
#
# Stress axis : x y z
#
# Youngs Moduli (GPa) = 51.05921 73.25380 54.43452
#
# Poissons Ratio (x) = 0.44497 0.36822
# Poissons Ratio (y) = 0.31015 0.21833
# Poissons Ratio (z) = 0.34538 0.29382
#
# Static dielectric constant tensor:
#      x y z
#    x 1.806710 0.000000 -0.018820 
#    y 0.000000 1.684560 0.000000 
#    z -0.018820 0.000000 1.703300 
# 
# From -- ./inp_files/38900.got.cif
#   From: 2010.05.17/outbox.cif.g08.bks.cpg/sg15_20_cif.got.tgz:38900.got - 2010.06.03 18:47:42.
