data_PCOD9274372
_publ_section_title
;
Structure prediction by ZEFSAII (Michael W. Deem and Ramdas Pophale) SiO2 
 PCOD9274372
Probable space group: C 2/C
;
_chemical_formula_sum "Si O2"
_cell_formula_units_Z 56
_cell_length_a 14.271479
_cell_length_b 12.203563
_cell_length_c 14.467794
_cell_angle_alpha 90.000000
_cell_angle_beta 114.185593
_cell_angle_gamma 90.000000
_cell_volume 2298.576922
_symmetry_space_group_name_H-M "C 2/C"
_symmetry_group_IT_number 15
_symmetry_cell_setting 'monoclinic'
loop_
_space_group_symop_operation_xyz
x,y,z
-x,y,1/2-z
-x,-y,-z
x,-y,1/2+z
1/2+x,1/2+y,z
1/2-x,1/2+y,1/2-z
1/2-x,1/2-y,-z
1/2+x,1/2-y,1/2+z
loop_
_atom_site_type_symbol
_atom_site_label
_atom_site_fract_x
_atom_site_fract_y
_atom_site_fract_z
Si Si1 0.640209 0.892850 0.100807
Si Si2 0.441040 0.848043 0.074079
Si Si3 0.746435 0.389743 0.897315
Si Si4 0.388849 0.581089 0.871314
Si Si5 0.341019 0.008866 0.687608
Si Si6 0.706216 0.221807 0.275998
Si Si7 0.025478 0.883976 0.896577
O O1 0.521308 0.881257 0.026397
O O2 0.706605 0.782320 0.128583
O O3 0.701679 0.990326 0.078451
O O4 0.632172 0.936419 0.203366
O O5 0.496423 0.741213 0.138451
O O6 0.409474 0.936183 0.137270
O O7 0.330815 0.817187 0.985805
O O8 0.745274 0.337648 0.794743
O O9 0.634806 0.403141 0.893495
O O10 0.279900 0.540269 0.869432
O O11 0.364573 0.680518 0.792330
O O12 0.444323 0.478959 0.844030
O O13 0.459248 0.615458 0.985962
O O14 0.348976 0.877722 0.694224
#
# Coordination Sequence:
#
# PCOD9274372 Si02
#       7
#     8   8   8   8   8   8   8
#     4  10  23  39  59  88 130 164 207 257 330 385
#     4  12  21  39  65  95 120 167 222 263 314 384
#     4  11  22  40  63  94 124 165 217 270 313 377
#     4  10  20  38  62  97 125 160 215 265 324 376
#     4  10  21  38  63  91 127 166 215 264 322 382
#     4  10  21  43  63  88 133 175 202 273 329 379
#     4  11  21  36  68  93 121 161 215 271 311 372
#
# _framework density 24.3629
#
# number of rings (size 3 to 8) (size 9 to 14) (size 15 to 20)
#    0.000    1.429    2.857    3.857    0.000    0.000 
#    0.000   17.143    0.000    0.000    0.000    0.000 
#    0.000    0.000    0.000    0.000    0.000    0.000 
#
# Total GULP energy -156633.105590 kJ/mol
# GULP energy per Si atom -5594.039485 kJ/mol
# Density = 2.430745 g / cm^3
# Si number density = 24.362900 Si / 1000 Ang^3
#
#
#
# Elastic Constant Matrix: (Units=GPa)
#
#
# Indices 1 2 3 4 5 6 
#
# 1 101.4840 77.1735 -11.4438 0.0000 16.4983 0.0000
# 2 77.1735 205.4846 17.4387 0.0000 7.1680 0.0000
# 3 -11.4438 17.4387 42.4836 0.0000 3.6326 0.0000
# 4 0.0000 0.0000 0.0000 35.9351 0.0000 7.2121
# 5 16.4983 7.1680 3.6326 0.0000 25.8354 0.0000
# 6 0.0000 0.0000 0.0000 7.2121 0.0000 42.1178
#
#
#
# Elastic Compliance Matrix: (Units=1/GPa)
#
#
# Indices 1 2 3 4 5 6 
#
# 1 0.017994 -0.007121 0.008688 0.000000 -0.010737 0.000000
# 2 -0.007121 0.007892 -0.005425 0.000000 0.003120 0.000000
# 3 0.008688 -0.005425 0.028797 0.000000 -0.008092 0.000000
# 4 0.000000 0.000000 0.000000 0.028818 0.000000 -0.004935
# 5 -0.010737 0.003120 -0.008092 0.000000 0.045835 0.000000
# 6 0.000000 0.000000 0.000000 -0.004935 0.000000 0.024588
#
#
# Mechanical properties :
#
#
# Convention : Reuss Voigt Hill
#
# Bulk Modulus (GPa) = 21.29060 57.30989 39.30024
# Shear Modulus (GPa) = 28.20142 38.52991 33.36566
#
# Velocity S-wave (km/s) = 3.40598 3.98112 3.70473
# Velocity P-wave (km/s) = 4.92194 6.68632 5.87079
#
# Compressibility (1/GPa) = 0.04696909
#
# Stress axis : x y z
#
# Youngs Moduli (GPa) = 55.57443 126.70442 34.72532
#
# Poissons Ratio (x) = 0.90223 -0.30169
# Poissons Ratio (y) = 0.39573 0.18837
# Poissons Ratio (z) = -0.48283 0.68732
#
# Static dielectric constant tensor:
#      x y z
#    x 1.928860 0.000000 0.052550 
#    y 0.000000 1.977870 0.000000 
#    z 0.052550 0.000000 2.025540 
# 
# From -- ./inp_files/204113.got.cif
#   From: 2010.05.17/outbox.cif.g08.bks.cpg/sg15_103_cif.got.tgz:204113.got - 2010.06.03 18:47:42.
