data_PCOD9274941
_publ_section_title
;
Structure prediction by ZEFSAII (Michael W. Deem and Ramdas Pophale) SiO2 
 PCOD9274941
Probable space group: C 2/C
;
_chemical_formula_sum "Si O2"
_cell_formula_units_Z 56
_cell_length_a 10.949964
_cell_length_b 15.760695
_cell_length_c 13.825741
_cell_angle_alpha 90.000000
_cell_angle_beta 106.532866
_cell_angle_gamma 90.000000
_cell_volume 2287.386570
_symmetry_space_group_name_H-M "C 2/C"
_symmetry_group_IT_number 15
_symmetry_cell_setting 'monoclinic'
loop_
_space_group_symop_operation_xyz
x,y,z
-x,y,1/2-z
-x,-y,-z
x,-y,1/2+z
1/2+x,1/2+y,z
1/2-x,1/2+y,1/2-z
1/2-x,1/2-y,-z
1/2+x,1/2-y,1/2+z
loop_
_atom_site_type_symbol
_atom_site_label
_atom_site_fract_x
_atom_site_fract_y
_atom_site_fract_z
Si Si1 0.848076 0.789075 0.328116
Si Si2 0.246553 0.583196 0.940309
Si Si3 0.278043 0.471755 0.652155
Si Si4 0.525981 0.930053 0.092148
Si Si5 0.000000 0.071272 0.750000
Si Si6 0.500000 0.842783 0.750000
Si Si7 0.282330 0.593904 0.360121
Si Si8 0.082677 0.246808 0.167105
O O1 0.807091 0.829016 0.420149
O O2 0.944191 0.712907 0.326389
O O3 0.720834 0.767582 0.241856
O O4 0.909685 0.870261 0.291565
O O5 0.307435 0.493110 0.922965
O O6 0.100994 0.569469 0.871307
O O7 0.239543 0.585328 0.054190
O O8 0.162884 0.534359 0.654809
O O9 0.408322 0.519548 0.659158
O O10 0.309602 0.421130 0.754031
O O11 0.541995 0.827883 0.092223
O O12 0.500000 0.000000 0.000000
O O13 0.371369 0.885603 0.675703
O O14 0.383418 0.669654 0.399879
O O15 0.000000 0.235067 0.250000
#
# Coordination Sequence:
#
# PCOD9274941 Si02
#       8
#     8   8   8   8   4   4   8   8
#     4  10  20  38  66  95 126 188 218 267 341 414
#     4  11  22  42  73 100 128 179 239 275 332 411
#     4  11  24  40  69 101 133 175 232 278 331 413
#     4  10  21  40  70 100 130 174 235 283 324 409
#     4  11  20  38  64  88 133 168 226 265 324 400
#     4   9  22  40  66  94 141 180 214 279 364 402
#     4  11  23  41  68 100 136 177 221 290 349 393
#     4  11  21  38  68  97 136 174 221 280 347 395
#
# _framework density 24.482088999999998
#
# number of rings (size 3 to 8) (size 9 to 14) (size 15 to 20)
#    0.000    1.429    4.286    0.857    1.000    0.571 
#    0.000    5.714   25.143    0.000    0.000    0.000 
#    0.000    0.000    0.000    0.000    0.000    0.000 
#
# Total GULP energy -155974.718998 kJ/mol
# GULP energy per Si atom -5570.525679 kJ/mol
# Density = 2.442637 g / cm^3
# Si number density = 24.482089 Si / 1000 Ang^3
#
#
#
# Elastic Constant Matrix: (Units=GPa)
#
#
# Indices 1 2 3 4 5 6 
#
# 1 85.2988 -1.2094 -6.2111 0.0000 3.3275 0.0000
# 2 -1.2094 86.5324 -5.1688 0.0000 -1.9452 0.0000
# 3 -6.2111 -5.1688 39.5076 0.0000 -9.6423 0.0000
# 4 0.0000 0.0000 0.0000 -6.1601 0.0000 -0.8304
# 5 3.3275 -1.9452 -9.6423 0.0000 26.4702 0.0000
# 6 0.0000 0.0000 0.0000 -0.8304 0.0000 -0.9232
#
#
#
# Elastic Compliance Matrix: (Units=1/GPa)
#
#
# Indices 1 2 3 4 5 6 
#
# 1 0.011884 0.000248 0.001691 0.000000 -0.000860 0.000000
# 2 0.000248 0.011711 0.001947 0.000000 0.001538 0.000000
# 3 0.001691 0.001947 0.028334 0.000000 0.010252 0.000000
# 4 0.000000 0.000000 0.000000 -0.184738 0.000000 0.166184
# 5 -0.000860 0.001538 0.010252 0.000000 0.041734 0.000000
# 6 0.000000 0.000000 0.000000 0.166184 0.000000 -1.232732
#
#
# Mechanical properties :
#
#
# Convention : Reuss Voigt Hill
#
# Bulk Modulus (GPa) = 16.75074 20.68445 18.71759
# Shear Modulus (GPa) = -3.81191 18.80593 7.49701
#
# Velocity S-wave (km/s) = -1.24916 2.77456 1.75183
# Velocity P-wave (km/s) = 2.18549 4.32798 3.42839
#
# Compressibility (1/GPa) = 0.05969887
#
# Stress axis : x y z
#
# Youngs Moduli (GPa) = 84.14911 85.39214 35.29312
#
# Poissons Ratio (x) = -0.02116 -0.05968
# Poissons Ratio (y) = -0.02085 -0.06870
# Poissons Ratio (z) = -0.14228 -0.16622
#
# Static dielectric constant tensor:
#      x y z
#    x 1.669810 0.000000 -0.015720 
#    y 0.000000 2.086880 0.000000 
#    z -0.015720 0.000000 1.957270 
# 
# From -- ./inp_files/145772.got.cif
#   From: 2010.05.17/outbox.cif.g08.bks.cpg/sg15_73_cif.got.tgz:145772.got - 2010.06.03 18:47:42.
