data_PCOD9274987
_publ_section_title
;
Structure prediction by ZEFSAII (Michael W. Deem and Ramdas Pophale) SiO2 
 PCOD9274987
Probable space group: C 2/C
;
_chemical_formula_sum "Si O2"
_cell_formula_units_Z 52
_cell_length_a 10.941496
_cell_length_b 14.771343
_cell_length_c 16.273046
_cell_angle_alpha 90.000000
_cell_angle_beta 116.215624
_cell_angle_gamma 90.000000
_cell_volume 2359.525989
_symmetry_space_group_name_H-M "C 2/C"
_symmetry_group_IT_number 15
_symmetry_cell_setting 'monoclinic'
loop_
_space_group_symop_operation_xyz
x,y,z
-x,y,1/2-z
-x,-y,-z
x,-y,1/2+z
1/2+x,1/2+y,z
1/2-x,1/2+y,1/2-z
1/2-x,1/2-y,-z
1/2+x,1/2-y,1/2+z
loop_
_atom_site_type_symbol
_atom_site_label
_atom_site_fract_x
_atom_site_fract_y
_atom_site_fract_z
Si Si1 0.814053 0.582580 0.893020
Si Si2 0.709798 0.056516 0.384412
Si Si3 0.067018 0.921875 0.416523
Si Si4 0.261527 0.616886 0.805646
Si Si5 0.246736 0.819821 0.762530
Si Si6 0.966674 0.602896 0.439033
Si Si7 0.500000 0.439637 0.750000
O O1 0.689561 0.628821 0.904719
O O2 0.757464 0.566373 0.786433
O O3 0.868678 0.481730 0.933390
O O4 0.951503 0.636928 0.956403
O O5 0.855566 0.055909 0.475732
O O6 0.715671 0.132375 0.313773
O O7 0.586547 0.077168 0.409822
O O8 0.690441 0.953670 0.345923
O O9 0.919830 0.876980 0.379176
O O10 0.039926 0.002838 0.343188
O O11 0.208504 0.714639 0.761383
O O12 0.373288 0.829856 0.861622
O O13 0.123744 0.877442 0.760664
#
# Coordination Sequence:
#
# PCOD9274987 Si02
#       7
#     8   8   8   8   8   8   4
#     4  10  20  38  67  92 120 176 212 254 321 389
#     4  11  24  41  68  98 131 170 218 272 322 387
#     4  11  20  42  75  90 127 176 222 262 321 388
#     4  12  24  41  67  96 131 172 217 267 326 384
#     4  12  26  42  64  98 133 167 217 276 325 386
#     4  10  21  40  64  92 131 164 210 265 324 373
#     4  12  22  46  68  90 132 174 218 270 334 390
#
# _framework density 22.038326000000001
#
# number of rings (size 3 to 8) (size 9 to 14) (size 15 to 20)
#    0.000    0.923    6.154    0.923    0.000    4.923 
#    0.000    3.846    0.000    0.000    0.000    0.000 
#    0.000    0.000    0.000    0.000    0.000    0.000 
#
# Total GULP energy -144766.428598 kJ/mol
# GULP energy per Si atom -5567.939561 kJ/mol
# Density = 2.198817 g / cm^3
# Si number density = 22.038326 Si / 1000 Ang^3
#
#
#
# Elastic Constant Matrix: (Units=GPa)
#
#
# Indices 1 2 3 4 5 6 
#
# 1 49.4418 9.7971 -3.3168 0.0000 5.3575 0.0000
# 2 9.7971 85.0691 3.6727 0.0000 -3.3277 0.0000
# 3 -3.3168 3.6727 87.7666 0.0000 15.7535 0.0000
# 4 0.0000 0.0000 0.0000 13.7615 0.0000 10.5935
# 5 5.3575 -3.3277 15.7535 0.0000 34.9532 0.0000
# 6 0.0000 0.0000 0.0000 10.5935 0.0000 1.9228
#
#
#
# Elastic Compliance Matrix: (Units=1/GPa)
#
#
# Indices 1 2 3 4 5 6 
#
# 1 0.021339 -0.002698 0.001689 0.000000 -0.004289 0.000000
# 2 -0.002698 0.012187 -0.000973 0.000000 0.002012 0.000000
# 3 0.001689 -0.000973 0.012579 0.000000 -0.006021 0.000000
# 4 0.000000 0.000000 0.000000 -0.022421 0.000000 0.123524
# 5 -0.004289 0.002012 -0.006021 0.000000 0.032172 0.000000
# 6 0.000000 0.000000 0.000000 0.123524 0.000000 -0.160464
#
#
# Mechanical properties :
#
#
# Convention : Reuss Voigt Hill
#
# Bulk Modulus (GPa) = 23.73048 26.95373 25.34211
# Shear Modulus (GPa) = -57.73865 24.26914 -16.73475
#
# Velocity S-wave (km/s) = -5.12407 3.32207 -2.75862
# Velocity P-wave (km/s) = 4.92107 5.19344 1.17365
#
# Compressibility (1/GPa) = 0.04213989
#
# Stress axis : x y z
#
# Youngs Moduli (GPa) = 46.86363 82.05715 79.49667
#
# Poissons Ratio (x) = 0.22141 -0.13428
# Poissons Ratio (y) = 0.12645 0.07736
# Poissons Ratio (z) = -0.07916 0.07985
#
# Static dielectric constant tensor:
#      x y z
#    x 1.856760 0.000000 -0.016820 
#    y 0.000000 2.006170 0.000000 
#    z -0.016820 0.000000 1.892380 
# 
# From -- ./inp_files/198046.got.cif
#   From: 2010.05.17/outbox.cif.g08.bks.cpg/sg15_100_cif.got.tgz:198046.got - 2010.06.03 18:47:42.
