data_PCOD9274065
_publ_section_title
;
Structure prediction by ZEFSAII (Michael W. Deem and Ramdas Pophale) SiO2 
 PCOD9274065
Probable space group: C 2/C
;
_chemical_formula_sum "Si O2"
_cell_formula_units_Z 48
_cell_length_a 18.176914
_cell_length_b 19.792279
_cell_length_c 15.103641
_cell_angle_alpha 90.000000
_cell_angle_beta 152.558471
_cell_angle_gamma 90.000000
_cell_volume 2504.094791
_symmetry_space_group_name_H-M "C 2/C"
_symmetry_group_IT_number 15
_symmetry_cell_setting 'monoclinic'
loop_
_space_group_symop_operation_xyz
x,y,z
-x,y,1/2-z
-x,-y,-z
x,-y,1/2+z
1/2+x,1/2+y,z
1/2-x,1/2+y,1/2-z
1/2-x,1/2-y,-z
1/2+x,1/2-y,1/2+z
loop_
_atom_site_type_symbol
_atom_site_label
_atom_site_fract_x
_atom_site_fract_y
_atom_site_fract_z
Si Si1 0.548793 0.322445 0.199377
Si Si2 0.073768 0.959653 0.157945
Si Si3 0.242761 0.152734 0.581669
Si Si4 0.000000 0.046396 0.250000
Si Si5 0.099757 0.431853 0.084519
Si Si6 0.000000 0.740906 0.750000
Si Si7 0.570569 0.177062 0.422492
O O1 0.500000 0.332444 0.250000
O O2 0.495510 0.386116 0.085262
O O3 0.479094 0.250955 0.097806
O O4 0.739237 0.321459 0.389677
O O5 0.257948 0.953846 0.328899
O O6 0.042879 0.999753 0.213825
O O7 0.000000 0.000000 0.000000
O O8 0.317693 0.113545 0.748015
O O9 0.101451 0.210904 0.426836
O O10 0.382613 0.192063 0.679585
O O11 0.152770 0.092867 0.433794
O O12 0.008099 0.377718 0.925609
O O13 0.000000 0.500000 0.000000
O O14 0.500000 0.165282 0.250000
#
# Coordination Sequence:
#
# PCOD9274065 Si02
#       7
#     8   8   8   4   8   4   8
#     4  10  20  38  61  87 118 164 210 257 315 371
#     4  11  23  41  63  93 128 173 217 259 327 397
#     4  10  22  43  67  96 130 172 223 274 333 395
#     4  11  22  42  68  92 135 172 216 276 333 400
#     4  11  26  41  61  99 134 166 219 270 329 397
#     4   9  22  44  70  94 129 174 224 274 339 388
#     4  10  22  39  61  88 121 163 212 258 314 381
#
# _framework density 19.168603999999998
#
# number of rings (size 3 to 8) (size 9 to 14) (size 15 to 20)
#    0.000    1.667    2.500    2.000    2.333    8.000 
#    3.000    0.000    0.000    0.000    0.000    0.000 
#    0.000    0.000    0.000    0.000    0.000    0.000 
#
# Total GULP energy -133648.800914 kJ/mol
# GULP energy per Si atom -5568.700038 kJ/mol
# Density = 1.912498 g / cm^3
# Si number density = 19.168604 Si / 1000 Ang^3
#
#
#
# Elastic Constant Matrix: (Units=GPa)
#
#
# Indices 1 2 3 4 5 6 
#
# 1 108.5984 90.3755 40.3749 0.0000 -0.9506 0.0000
# 2 90.3755 190.0383 67.6824 0.0000 -16.6154 0.0000
# 3 40.3749 67.6824 69.3967 0.0000 -7.6260 0.0000
# 4 0.0000 0.0000 0.0000 18.8551 0.0000 0.9171
# 5 -0.9506 -16.6154 -7.6260 0.0000 32.7215 0.0000
# 6 0.0000 0.0000 0.0000 0.9171 0.0000 44.6771
#
#
#
# Elastic Compliance Matrix: (Units=1/GPa)
#
#
# Indices 1 2 3 4 5 6 
#
# 1 0.016013 -0.006860 -0.003035 0.000000 -0.003726 0.000000
# 2 -0.006860 0.011177 -0.006474 0.000000 0.003967 0.000000
# 3 -0.003035 -0.006474 0.022700 0.000000 0.001915 0.000000
# 4 0.000000 0.000000 0.000000 0.053089 0.000000 -0.001090
# 5 -0.003726 0.003967 0.001915 0.000000 0.032914 0.000000
# 6 0.000000 0.000000 0.000000 -0.001090 0.000000 0.022405
#
#
# Mechanical properties :
#
#
# Convention : Reuss Voigt Hill
#
# Bulk Modulus (GPa) = 58.30189 84.98877 71.64533
# Shear Modulus (GPa) = 25.41259 30.55744 27.98501
#
# Velocity S-wave (km/s) = 3.64502 3.99700 3.82506
# Velocity P-wave (km/s) = 6.94235 8.10772 7.54756
#
# Compressibility (1/GPa) = 0.01715210
#
# Stress axis : x y z
#
# Youngs Moduli (GPa) = 62.44988 89.46995 44.05266
#
# Poissons Ratio (x) = 0.61375 0.13371
# Poissons Ratio (y) = 0.42840 0.28519
# Poissons Ratio (z) = 0.18955 0.57921
#
# Static dielectric constant tensor:
#      x y z
#    x 1.633650 0.000000 -0.023110 
#    y 0.000000 1.686620 0.000000 
#    z -0.023110 0.000000 1.676380 
# 
# From -- ./inp_files/40980.got.cif
#   From: 2010.05.17/outbox.cif.g08.bks.cpg/sg15_21_cif.got.tgz:40980.got - 2010.06.03 18:47:42.
