data_PCOD9275318
_publ_section_title
;
Structure prediction by ZEFSAII (Michael W. Deem and Ramdas Pophale) SiO2 
 PCOD9275318
Probable space group: C 2/C
;
_chemical_formula_sum "Si O2"
_cell_formula_units_Z 48
_cell_length_a 19.768934
_cell_length_b 13.060143
_cell_length_c 22.772598
_cell_angle_alpha 90.000000
_cell_angle_beta 21.698492
_cell_angle_gamma 90.000000
_cell_volume 2173.799141
_symmetry_space_group_name_H-M "C 2/C"
_symmetry_group_IT_number 15
_symmetry_cell_setting 'monoclinic'
loop_
_space_group_symop_operation_xyz
x,y,z
-x,y,1/2-z
-x,-y,-z
x,-y,1/2+z
1/2+x,1/2+y,z
1/2-x,1/2+y,1/2-z
1/2-x,1/2-y,-z
1/2+x,1/2-y,1/2+z
loop_
_atom_site_type_symbol
_atom_site_label
_atom_site_fract_x
_atom_site_fract_y
_atom_site_fract_z
Si Si1 0.243900 0.212185 0.303100
Si Si2 0.858780 0.685542 0.498874
Si Si3 0.131235 0.094437 0.090510
Si Si4 0.970035 0.690618 0.882810
Si Si5 0.137573 0.201209 0.917431
Si Si6 0.282477 0.103271 0.440573
O O1 0.204211 0.301772 0.383100
O O2 0.427294 0.156882 0.176214
O O3 0.300494 0.257396 0.195243
O O4 0.057823 0.150399 0.439726
O O5 0.818467 0.800367 0.507244
O O6 0.763917 0.616242 0.526480
O O7 0.041254 0.192518 0.131880
O O8 0.000000 0.066961 0.250000
O O9 0.324989 0.128996 0.961874
O O10 0.176640 0.000442 0.011708
O O11 0.176198 0.649863 0.709755
O O12 0.907753 0.706524 0.000414
O O13 0.500000 0.104344 0.250000
#
# Coordination Sequence:
#
# PCOD9275318 Si02
#       6
#     8   8   8   8   8   8
#     4   9  18  34  62  86 106 154 195 231 283 338
#     4  10  20  39  60  85 118 147 192 236 287 342
#     4  11  24  36  59  89 117 152 188 237 292 339
#     4  10  20  39  60  85 118 147 192 236 287 342
#     4   9  18  34  62  86 106 154 195 231 283 338
#     4  11  24  36  59  89 117 152 188 237 292 339
#
# _framework density 22.081157000000001
#
# number of rings (size 3 to 8) (size 9 to 14) (size 15 to 20)
#    0.000    2.000    3.333    0.000    4.667    0.000 
#    0.000    0.000    0.000   40.000    0.000    0.000 
#    0.000    0.000    0.000    0.000    0.000    0.000 
#
# Total GULP energy -133734.039247 kJ/mol
# GULP energy per Si atom -5572.251635 kJ/mol
# Density = 2.203090 g / cm^3
# Si number density = 22.081157 Si / 1000 Ang^3
#
#
#
# Elastic Constant Matrix: (Units=GPa)
#
#
# Indices 1 2 3 4 5 6 
#
# 1 83.3700 7.9583 32.3766 -0.0093 8.2749 0.0082
# 2 7.9583 65.8929 19.2326 0.0158 -3.0427 -0.0054
# 3 32.3766 19.2326 116.4408 0.0118 -18.2637 0.0027
# 4 -0.0093 0.0158 0.0118 13.5047 0.0078 6.6986
# 5 8.2749 -3.0427 -18.2637 0.0078 47.1738 -0.0094
# 6 0.0082 -0.0054 0.0027 6.6986 -0.0094 0.4432
#
#
#
# Elastic Compliance Matrix: (Units=1/GPa)
#
#
# Indices 1 2 3 4 5 6 
#
# 1 0.014238 -0.000594 -0.004534 -0.000028 -0.004291 0.000091
# 2 -0.000594 0.015970 -0.002443 0.000020 0.000189 -0.000074
# 3 -0.004534 -0.002443 0.011021 0.000009 0.004905 -0.000044
# 4 -0.000028 0.000020 0.000009 -0.011398 0.000046 0.172263
# 5 -0.004291 0.000189 0.004905 0.000046 0.023862 -0.000136
# 6 0.000091 -0.000074 -0.000044 0.172263 -0.000136 -0.347289
#
#
# Mechanical properties :
#
#
# Convention : Reuss Voigt Hill
#
# Bulk Modulus (GPa) = 38.33329 42.75984 40.54657
# Shear Modulus (GPa) = -18.53516 25.96676 3.71580
#
# Velocity S-wave (km/s) = -2.90040 3.43296 1.29863
# Velocity P-wave (km/s) = 2.48625 5.92626 4.54433
#
# Compressibility (1/GPa) = 0.02608698
#
# Stress axis : x y z
#
# Youngs Moduli (GPa) = 70.23429 62.61877 90.73191
#
# Poissons Ratio (x) = 0.03722 0.41136
# Poissons Ratio (y) = 0.04175 0.22164
# Poissons Ratio (z) = 0.31843 0.15297
#
# Static dielectric constant tensor:
#      x y z
#    x 1.879480 -0.000010 -0.022510 
#    y -0.000010 1.750410 0.000010 
#    z -0.022510 0.000010 1.870760 
# 
# From -- ./inp_files/70020.got.cif
#   From: 2010.05.17/outbox.cif.g08.bks.cpg/sg15_36_cif.got.tgz:70020.got - 2010.06.03 18:47:42.
