data_PCOD9275894
_publ_section_title
;
Structure prediction by ZEFSAII (Michael W. Deem and Ramdas Pophale) SiO2 
 PCOD9275894
Probable space group: C 2/C
;
_chemical_formula_sum "Si O2"
_cell_formula_units_Z 56
_cell_length_a 22.887152
_cell_length_b 6.555582
_cell_length_c 17.256303
_cell_angle_alpha 90.000000
_cell_angle_beta 127.144297
_cell_angle_gamma 90.000000
_cell_volume 2063.825712
_symmetry_space_group_name_H-M "C 2/C"
_symmetry_group_IT_number 15
_symmetry_cell_setting 'monoclinic'
loop_
_space_group_symop_operation_xyz
x,y,z
-x,y,1/2-z
-x,-y,-z
x,-y,1/2+z
1/2+x,1/2+y,z
1/2-x,1/2+y,1/2-z
1/2-x,1/2-y,-z
1/2+x,1/2-y,1/2+z
loop_
_atom_site_type_symbol
_atom_site_label
_atom_site_fract_x
_atom_site_fract_y
_atom_site_fract_z
Si Si1 0.094308 0.324474 0.660648
Si Si2 0.235589 0.018056 0.461377
Si Si3 0.581634 0.620121 0.285066
Si Si4 0.853010 0.910271 0.833309
Si Si5 0.691963 0.905435 0.644737
Si Si6 0.620998 0.907229 0.849883
Si Si7 0.073490 0.644438 0.479904
O O1 0.147104 0.514085 0.683270
O O2 0.146425 0.164814 0.653233
O O3 0.098572 0.293328 0.754384
O O4 0.011906 0.341003 0.570350
O O5 0.250000 0.250000 0.500000
O O6 0.147881 0.009623 0.385212
O O7 0.264495 0.000684 0.396564
O O8 0.291270 0.899822 0.563520
O O9 0.500000 0.571112 0.250000
O O10 0.595276 0.600390 0.202240
O O11 0.595861 0.859911 0.314371
O O12 0.769282 0.856005 0.751299
O O13 0.886348 0.820030 0.938614
O O14 0.612261 0.929275 0.530365
O O15 0.581037 0.836304 0.894704
#
# Coordination Sequence:
#
# PCOD9275894 Si02
#       7
#     8   8   8   8   8   8   8
#     4  12  24  41  67  99 133 174 220 274 329 386
#     4   8  18  37  62  93 124 161 213 266 319 375
#     4  10  20  39  65  94 131 174 220 270 325 389
#     4  11  25  43  62  96 137 174 214 272 338 389
#     4  10  22  43  66  90 126 176 224 261 314 397
#     4  10  22  42  67  97 131 174 223 269 322 398
#     4  11  23  43  68  97 131 171 224 276 324 388
#
# _framework density 27.134074999999999
#
# number of rings (size 3 to 8) (size 9 to 14) (size 15 to 20)
#    0.000    1.714    0.000    3.857    0.000    6.857 
#    0.000   20.000    0.000    0.000    0.000    0.000 
#    0.000    0.000    0.000    0.000    0.000    0.000 
#
# Total GULP energy -156049.687224 kJ/mol
# GULP energy per Si atom -5573.203115 kJ/mol
# Density = 2.707232 g / cm^3
# Si number density = 27.134075 Si / 1000 Ang^3
#
#
#
# Elastic Constant Matrix: (Units=GPa)
#
#
# Indices 1 2 3 4 5 6 
#
# 1 183.9345 34.5390 74.1722 0.0000 17.1656 0.0000
# 2 34.5390 70.7690 51.7680 0.0002 -2.5071 0.0000
# 3 74.1722 51.7680 176.6335 0.0000 19.8364 0.0000
# 4 0.0000 0.0002 0.0000 23.5063 0.0000 -5.7536
# 5 17.1656 -2.5071 19.8364 0.0000 65.0862 0.0000
# 6 0.0000 0.0000 0.0000 -5.7536 0.0000 33.7520
#
#
#
# Elastic Compliance Matrix: (Units=1/GPa)
#
#
# Indices 1 2 3 4 5 6 
#
# 1 0.006758 -0.001733 -0.002198 0.000000 -0.001179 0.000000
# 2 -0.001733 0.018794 -0.005087 0.000000 0.002731 0.000000
# 3 -0.002198 -0.005087 0.008317 0.000000 -0.002151 0.000000
# 4 0.000000 0.000000 0.000000 0.044394 0.000000 0.007568
# 5 -0.001179 0.002731 -0.002151 0.000000 0.016436 0.000000
# 6 0.000000 0.000000 0.000000 0.007568 0.000000 0.030918
#
#
# Mechanical properties :
#
#
# Convention : Reuss Voigt Hill
#
# Bulk Modulus (GPa) = 63.15492 83.58837 73.37164
# Shear Modulus (GPa) = 33.57253 42.52609 38.04931
#
# Velocity S-wave (km/s) = 3.52132 3.96316 3.74875
# Velocity P-wave (km/s) = 6.31337 7.19824 6.77028
#
# Compressibility (1/GPa) = 0.01583408
#
# Stress axis : x y z
#
# Youngs Moduli (GPa) = 147.96463 53.20755 120.23641
#
# Poissons Ratio (x) = 0.09218 0.26425
# Poissons Ratio (y) = 0.25635 0.61170
# Poissons Ratio (z) = 0.32519 0.27069
#
# Static dielectric constant tensor:
#      x y z
#    x 2.021550 0.000000 -0.073310 
#    y 0.000000 2.502460 0.000000 
#    z -0.073310 0.000000 2.126200 
# 
# From -- ./inp_files/218991.got.cif
#   From: 2010.05.17/outbox.cif.g08.bks.cpg/sg15_110_cif.got.tgz:218991.got - 2010.06.03 18:47:42.
