data_PCOD9275015
_publ_section_title
;
Structure prediction by ZEFSAII (Michael W. Deem and Ramdas Pophale) SiO2 
 PCOD9275015
Probable space group: C 2/C
;
_chemical_formula_sum "Si O2"
_cell_formula_units_Z 32
_cell_length_a 7.195021
_cell_length_b 25.386150
_cell_length_c 8.780739
_cell_angle_alpha 90.000000
_cell_angle_beta 118.849801
_cell_angle_gamma 90.000000
_cell_volume 1404.780145
_symmetry_space_group_name_H-M "C 2/C"
_symmetry_group_IT_number 15
_symmetry_cell_setting 'monoclinic'
loop_
_space_group_symop_operation_xyz
x,y,z
-x,y,1/2-z
-x,-y,-z
x,-y,1/2+z
1/2+x,1/2+y,z
1/2-x,1/2+y,1/2-z
1/2-x,1/2-y,-z
1/2+x,1/2-y,1/2+z
loop_
_atom_site_type_symbol
_atom_site_label
_atom_site_fract_x
_atom_site_fract_y
_atom_site_fract_z
Si Si1 0.000000 0.350810 0.750000
Si Si2 0.208649 0.672694 0.736662
Si Si3 0.425343 0.715188 0.395883
Si Si4 0.000000 0.500660 0.250000
Si Si5 0.852069 0.574804 0.959921
O O1 0.212362 0.317271 0.837452
O O2 0.026308 0.387905 0.611259
O O3 0.128642 0.722978 0.608128
O O4 0.279370 0.621854 0.669297
O O5 0.000000 0.656102 0.750000
O O6 0.390690 0.695333 0.919027
O O7 0.500000 0.709331 0.250000
O O8 0.907188 0.464045 0.345032
O O9 0.181207 0.535850 0.408092
#
# Coordination Sequence:
#
# PCOD9275015 Si02
#       5
#     4   8   8   4   8
#     4  11  24  42  68 102 136 174 218 263 330 394
#     4  11  21  39  66  97 136 179 213 265 331 390
#     4  11  24  40  64 101 141 174 216 262 324 403
#     4   9  20  38  66  96 126 170 224 279 332 376
#     4  10  20  38  67  97 125 176 217 275 331 385
#
# _framework density 22.779364999999999
#
# number of rings (size 3 to 8) (size 9 to 14) (size 15 to 20)
#    0.000    1.500    1.250    6.000    0.000    5.000 
#    0.000    0.000    0.000   27.000    0.000    0.000 
#    0.000    0.000    0.000    0.000    0.000    0.000 
#
# Total GULP energy -89171.887676 kJ/mol
# GULP energy per Si atom -5573.242980 kJ/mol
# Density = 2.272752 g / cm^3
# Si number density = 22.779365 Si / 1000 Ang^3
#
#
#
# Elastic Constant Matrix: (Units=GPa)
#
#
# Indices 1 2 3 4 5 6 
#
# 1 92.8356 48.0532 71.9208 0.0000 5.9915 0.0000
# 2 48.0532 164.6283 98.6112 0.0000 -10.1545 0.0000
# 3 71.9208 98.6112 181.1926 0.0000 -12.9920 0.0000
# 4 0.0000 0.0000 0.0000 58.4568 0.0000 -22.8273
# 5 5.9915 -10.1545 -12.9920 0.0000 40.9558 0.0000
# 6 0.0000 0.0000 0.0000 -22.8273 0.0000 1.9098
#
#
#
# Elastic Compliance Matrix: (Units=1/GPa)
#
#
# Indices 1 2 3 4 5 6 
#
# 1 0.016578 -0.001463 -0.006123 0.000000 -0.004730 0.000000
# 2 -0.001463 0.009161 -0.004325 0.000000 0.001113 0.000000
# 3 -0.006123 -0.004325 0.010530 0.000000 0.003164 0.000000
# 4 0.000000 0.000000 0.000000 -0.004664 0.000000 -0.055752
# 5 -0.004730 0.001113 0.003164 0.000000 0.026388 0.000000
# 6 0.000000 0.000000 0.000000 -0.055752 0.000000 -0.142771
#
#
# Mechanical properties :
#
#
# Convention : Reuss Voigt Hill
#
# Bulk Modulus (GPa) = 80.34483 97.31410 88.82947
# Shear Modulus (GPa) = -88.01783 34.93591 -26.54096
#
# Velocity S-wave (km/s) = -6.22279 3.92045 -3.41711
# Velocity P-wave (km/s) = 4.03527 7.95652 4.84886
#
# Compressibility (1/GPa) = 0.01244635
#
# Stress axis : x y z
#
# Youngs Moduli (GPa) = 60.32069 109.16291 94.96481
#
# Poissons Ratio (x) = 0.15969 0.58150
# Poissons Ratio (y) = 0.08824 0.41073
# Poissons Ratio (z) = 0.36937 0.47213
#
# Static dielectric constant tensor:
#      x y z
#    x 1.723440 0.000000 0.011580 
#    y 0.000000 1.907570 0.000000 
#    z 0.011580 0.000000 1.888200 
# 
# From -- ./inp_files/23259.got.cif
#   From: 2010.05.17/outbox.cif.g08.bks.cpg/sg15_12_cif.got.tgz:23259.got - 2010.06.03 18:47:42.
