data_PCOD9275512
_publ_section_title
;
Structure prediction by ZEFSAII (Michael W. Deem and Ramdas Pophale) SiO2 
 PCOD9275512
Probable space group: C 2/C
;
_chemical_formula_sum "Si O2"
_cell_formula_units_Z 64
_cell_length_a 17.204996
_cell_length_b 12.176992
_cell_length_c 15.914820
_cell_angle_alpha 90.000000
_cell_angle_beta 55.440938
_cell_angle_gamma 90.000000
_cell_volume 2745.882944
_symmetry_space_group_name_H-M "C 2/C"
_symmetry_group_IT_number 15
_symmetry_cell_setting 'monoclinic'
loop_
_space_group_symop_operation_xyz
x,y,z
-x,y,1/2-z
-x,-y,-z
x,-y,1/2+z
1/2+x,1/2+y,z
1/2-x,1/2+y,1/2-z
1/2-x,1/2-y,-z
1/2+x,1/2-y,1/2+z
loop_
_atom_site_type_symbol
_atom_site_label
_atom_site_fract_x
_atom_site_fract_y
_atom_site_fract_z
Si Si1 0.653941 0.362649 0.488067
Si Si2 0.055277 0.886759 0.133775
Si Si3 0.546440 0.720742 0.372903
Si Si4 0.502136 0.053022 0.845595
Si Si5 0.614910 0.482850 0.348701
Si Si6 0.736431 0.417431 0.125499
Si Si7 0.306282 0.866657 0.541095
Si Si8 0.942243 0.669844 0.456535
O O1 0.553171 0.334010 0.592526
O O2 0.650129 0.455815 0.420503
O O3 0.685517 0.250711 0.422491
O O4 0.727193 0.370985 0.518087
O O5 0.163512 0.912855 0.091489
O O6 0.049222 0.756619 0.123440
O O7 0.000000 0.924912 0.250000
O O8 0.993670 0.941852 0.097535
O O9 0.569020 0.837830 0.313541
O O10 0.885001 0.114617 0.169403
O O11 0.528059 0.765846 0.478101
O O12 0.500000 0.019913 0.750000
O O13 0.502629 0.940625 0.900691
O O14 0.402359 0.103147 0.935056
O O15 0.673329 0.405178 0.247687
O O16 0.780315 0.536434 0.117924
O O17 0.830559 0.352000 0.042595
#
# Coordination Sequence:
#
# PCOD9275512 Si02
#       8
#     8   8   8   8   8   8   8   8
#     4  10  20  39  62  90 122 164 205 255 318 374
#     4  10  21  39  64  93 126 167 214 264 316 375
#     4  11  23  38  67  93 125 161 210 264 318 376
#     4  10  23  42  63  89 121 167 213 255 313 381
#     4  11  23  38  63  95 125 163 210 268 317 375
#     4  10  23  39  58  92 127 164 211 260 317 372
#     4   9  21  38  62  86 124 163 205 258 309 372
#     4  11  22  41  64  91 128 171 207 258 313 387
#
# _framework density 23.307621000000001
#
# number of rings (size 3 to 8) (size 9 to 14) (size 15 to 20)
#    0.000    1.750    1.250    2.250    1.750    6.500 
#    0.000    0.000    0.000    0.000    0.000    0.000 
#    0.000    0.000    0.000    0.000    0.000    0.000 
#
# Total GULP energy -178219.175726 kJ/mol
# GULP energy per Si atom -5569.349241 kJ/mol
# Density = 2.325457 g / cm^3
# Si number density = 23.307621 Si / 1000 Ang^3
#
#
#
# Elastic Constant Matrix: (Units=GPa)
#
#
# Indices 1 2 3 4 5 6 
#
# 1 67.0045 13.5732 16.4120 0.0000 -10.0240 0.0000
# 2 13.5732 131.7113 11.6529 0.0000 -6.0310 0.0000
# 3 16.4120 11.6529 37.0911 0.0000 5.5923 0.0000
# 4 0.0000 0.0000 0.0000 21.4358 0.0000 2.0468
# 5 -10.0240 -6.0310 5.5923 0.0000 23.9662 0.0000
# 6 0.0000 0.0000 0.0000 2.0468 0.0000 32.4849
#
#
#
# Elastic Compliance Matrix: (Units=1/GPa)
#
#
# Indices 1 2 3 4 5 6 
#
# 1 0.018923 -0.000635 -0.009684 0.000000 0.010015 0.000000
# 2 -0.000635 0.007994 -0.002585 0.000000 0.002349 0.000000
# 3 -0.009684 -0.002585 0.033961 0.000000 -0.012625 0.000000
# 4 0.000000 0.000000 0.000000 0.046933 0.000000 -0.002957
# 5 0.010015 0.002349 -0.012625 0.000000 0.049451 0.000000
# 6 0.000000 0.000000 0.000000 -0.002957 0.000000 0.030970
#
#
# Mechanical properties :
#
#
# Convention : Reuss Voigt Hill
#
# Bulk Modulus (GPa) = 28.51292 35.45370 31.98331
# Shear Modulus (GPa) = 22.15042 28.52196 25.33619
#
# Velocity S-wave (km/s) = 3.08612 3.50196 3.30060
# Velocity P-wave (km/s) = 4.99587 5.62102 5.31764
#
# Compressibility (1/GPa) = 0.03507182
#
# Stress axis : x y z
#
# Youngs Moduli (GPa) = 52.84565 125.09323 29.44553
#
# Poissons Ratio (x) = 0.07941 0.28514
# Poissons Ratio (y) = 0.03355 0.07611
# Poissons Ratio (z) = 0.51173 0.32334
#
# Static dielectric constant tensor:
#      x y z
#    x 1.940570 0.000000 -0.023430 
#    y 0.000000 1.996980 0.000000 
#    z -0.023430 0.000000 1.890000 
# 
# From -- ./inp_files/205721.got.cif
#   From: 2010.05.17/outbox.cif.g08.bks.cpg/sg15_103_cif.got.tgz:205721.got - 2010.06.03 18:47:42.
