data_PCOD9275657
_publ_section_title
;
Structure prediction by ZEFSAII (Michael W. Deem and Ramdas Pophale) SiO2 
 PCOD9275657
Probable space group: C 2/C
;
_chemical_formula_sum "Si O2"
_cell_formula_units_Z 32
_cell_length_a 13.150245
_cell_length_b 13.742135
_cell_length_c 20.401015
_cell_angle_alpha 90.000000
_cell_angle_beta 25.399367
_cell_angle_gamma 90.000000
_cell_volume 1581.325758
_symmetry_space_group_name_H-M "C 2/C"
_symmetry_group_IT_number 15
_symmetry_cell_setting 'monoclinic'
loop_
_space_group_symop_operation_xyz
x,y,z
-x,y,1/2-z
-x,-y,-z
x,-y,1/2+z
1/2+x,1/2+y,z
1/2-x,1/2+y,1/2-z
1/2-x,1/2-y,-z
1/2+x,1/2-y,1/2+z
loop_
_atom_site_type_symbol
_atom_site_label
_atom_site_fract_x
_atom_site_fract_y
_atom_site_fract_z
Si Si1 0.192586 0.676290 0.188774
Si Si2 0.689846 0.271440 0.332666
Si Si3 0.500000 0.012906 0.750000
Si Si4 0.663048 0.137088 0.549886
Si Si5 0.500000 0.361790 0.750000
O O1 0.161703 0.716541 0.279807
O O2 0.129135 0.561720 0.223747
O O3 0.000000 0.720683 0.250000
O O4 0.447756 0.695596 0.007600
O O5 0.824733 0.203201 0.307119
O O6 0.881209 0.355659 0.204511
O O7 0.685625 0.081719 0.604964
O O8 0.750000 0.250000 0.500000
O O9 0.821970 0.085131 0.402948
#
# Coordination Sequence:
#
# PCOD9275657 Si02
#       5
#     8   8   4   8   4
#     4  10  24  42  67  96 135 170 218 256 327 394
#     4  11  20  42  68  97 128 177 208 268 323 395
#     4  10  25  42  64 103 126 170 220 271 312 386
#     4  10  20  39  63  92 127 166 217 260 326 371
#     4  10  21  36  66  95 120 170 222 259 316 380
#
# _framework density 20.236184999999999
#
# number of rings (size 3 to 8) (size 9 to 14) (size 15 to 20)
#    0.750    1.000    2.500    3.750    3.500    1.000 
#    0.000    3.750    0.000    0.000    0.000    0.000 
#    0.000    0.000    0.000    0.000    0.000    0.000 
#
# Total GULP energy -89092.828824 kJ/mol
# GULP energy per Si atom -5568.301801 kJ/mol
# Density = 2.019013 g / cm^3
# Si number density = 20.236185 Si / 1000 Ang^3
#
#
#
# Elastic Constant Matrix: (Units=GPa)
#
#
# Indices 1 2 3 4 5 6 
#
# 1 122.7211 27.3979 35.9419 -0.0073 11.4302 0.0090
# 2 27.3979 57.0522 16.0154 -0.0047 11.6821 -0.0041
# 3 35.9419 16.0154 163.0714 -0.0182 14.5798 0.0204
# 4 -0.0073 -0.0047 -0.0182 12.5563 0.0171 8.7112
# 5 11.4302 11.6821 14.5798 0.0171 45.4830 -0.0234
# 6 0.0090 -0.0041 0.0204 8.7112 -0.0234 14.2674
#
#
#
# Elastic Compliance Matrix: (Units=1/GPa)
#
#
# Indices 1 2 3 4 5 6 
#
# 1 0.009598 -0.003970 -0.001648 0.000013 -0.000864 -0.000014
# 2 -0.003970 0.020474 -0.000777 0.000013 -0.004012 -0.000005
# 3 -0.001648 -0.000777 0.006709 0.000032 -0.001537 -0.000031
# 4 0.000013 0.000013 0.000032 0.138171 -0.000112 -0.084363
# 5 -0.000864 -0.004012 -0.001537 -0.000112 0.023727 0.000109
# 6 -0.000014 -0.000005 -0.000031 -0.084363 0.000109 0.121599
#
#
# Mechanical properties :
#
#
# Convention : Reuss Voigt Hill
#
# Bulk Modulus (GPa) = 41.68231 55.72836 48.70533
# Shear Modulus (GPa) = 14.65997 32.02731 23.34364
#
# Velocity S-wave (km/s) = 2.69447 3.98260 3.40009
# Velocity P-wave (km/s) = 5.50662 6.98190 6.28768
#
# Compressibility (1/GPa) = 0.02399100
#
# Stress axis : x y z
#
# Youngs Moduli (GPa) = 104.18821 48.84311 149.04623
#
# Poissons Ratio (x) = 0.19389 0.24568
# Poissons Ratio (y) = 0.41358 0.11583
# Poissons Ratio (z) = 0.17174 0.03796
#
# Static dielectric constant tensor:
#      x y z
#    x 1.769650 0.000000 0.018060 
#    y 0.000000 1.722450 0.000010 
#    z 0.018060 0.000010 1.786200 
# 
# From -- ./inp_files/37720.got.cif
#   From: 2010.05.17/outbox.cif.g08.bks.cpg/sg15_19_cif.got.tgz:37720.got - 2010.06.03 18:47:42.
