data_PCOD9275666
_publ_section_title
;
Structure prediction by ZEFSAII (Michael W. Deem and Ramdas Pophale) SiO2 
 PCOD9275666
Probable space group: C 2/C
;
_chemical_formula_sum "Si O2"
_cell_formula_units_Z 40
_cell_length_a 19.288103
_cell_length_b 4.720373
_cell_length_c 17.509352
_cell_angle_alpha 90.000000
_cell_angle_beta 99.318013
_cell_angle_gamma 90.000000
_cell_volume 1573.139327
_symmetry_space_group_name_H-M "C 2/C"
_symmetry_group_IT_number 15
_symmetry_cell_setting 'monoclinic'
loop_
_space_group_symop_operation_xyz
x,y,z
-x,y,1/2-z
-x,-y,-z
x,-y,1/2+z
1/2+x,1/2+y,z
1/2-x,1/2+y,1/2-z
1/2-x,1/2-y,-z
1/2+x,1/2-y,1/2+z
loop_
_atom_site_type_symbol
_atom_site_label
_atom_site_fract_x
_atom_site_fract_y
_atom_site_fract_z
Si Si1 0.769200 0.570840 0.201546
Si Si2 0.419830 0.383999 0.352677
Si Si3 0.047371 0.318936 0.950618
Si Si4 0.926911 0.531718 0.713186
Si Si5 0.845373 0.643387 0.906661
O O1 0.612512 0.693465 0.153256
O O2 0.842651 0.417274 0.197968
O O3 0.724561 0.324240 0.235297
O O4 0.732060 0.734966 0.124075
O O5 0.493283 0.417126 0.410995
O O6 0.429478 0.235472 0.273068
O O7 0.368915 0.179711 0.395733
O O8 0.062652 0.474178 0.874439
O O9 0.119073 0.257183 0.008345
O O10 0.000000 0.500000 0.000000
O O11 0.000000 0.691653 0.750000
#
# Coordination Sequence:
#
# PCOD9275666 Si02
#       5
#     8   8   8   8   8
#     4  12  23  42  67  96 131 172 219 276 328 386
#     4  10  20  39  63  93 124 170 212 261 318 391
#     4   9  21  39  64  96 135 170 213 270 330 385
#     4  10  21  41  66  99 130 174 225 267 324 399
#     4  11  20  39  64  89 129 168 208 266 328 376
#
# _framework density 25.426863000000001
#
# number of rings (size 3 to 8) (size 9 to 14) (size 15 to 20)
#    0.000    1.600    4.000    0.600    0.000    0.800 
#    0.000   36.000    0.000    8.400    0.000    0.000 
#    0.000    0.000    0.000    0.000    0.000    0.000 
#
# Total GULP energy -111466.135010 kJ/mol
# GULP energy per Si atom -5573.306750 kJ/mol
# Density = 2.536899 g / cm^3
# Si number density = 25.426863 Si / 1000 Ang^3
#
#
#
# Elastic Constant Matrix: (Units=GPa)
#
#
# Indices 1 2 3 4 5 6 
#
# 1 131.7153 9.2427 39.2212 0.0000 23.2243 0.0000
# 2 9.2427 82.4291 -1.7757 0.0000 -2.4853 0.0000
# 3 39.2212 -1.7757 168.3773 0.0000 35.2771 0.0000
# 4 0.0000 0.0000 0.0000 21.5461 0.0000 17.0895
# 5 23.2243 -2.4853 35.2771 0.0000 59.9933 0.0000
# 6 0.0000 0.0000 0.0000 17.0895 0.0000 22.8188
#
#
#
# Elastic Compliance Matrix: (Units=1/GPa)
#
#
# Indices 1 2 3 4 5 6 
#
# 1 0.008546 -0.001065 -0.001482 0.000000 -0.002481 0.000000
# 2 -0.001065 0.012280 0.000211 0.000000 0.000797 0.000000
# 3 -0.001482 0.000211 0.007031 0.000000 -0.003552 0.000000
# 4 0.000000 0.000000 0.000000 0.114318 0.000000 -0.085615
# 5 -0.002481 0.000797 -0.003552 0.000000 0.019750 0.000000
# 6 0.000000 0.000000 0.000000 -0.085615 0.000000 0.107942
#
#
# Mechanical properties :
#
#
# Convention : Reuss Voigt Hill
#
# Bulk Modulus (GPa) = 43.13521 52.87758 48.00639
# Shear Modulus (GPa) = 17.71370 43.26055 30.48713
#
# Velocity S-wave (km/s) = 2.64228 4.12924 3.46643
# Velocity P-wave (km/s) = 5.12934 6.60116 5.91124
#
# Compressibility (1/GPa) = 0.02318292
#
# Stress axis : x y z
#
# Youngs Moduli (GPa) = 117.01940 81.43577 142.23520
#
# Poissons Ratio (x) = 0.08672 0.21080
# Poissons Ratio (y) = 0.12462 -0.02995
# Poissons Ratio (z) = 0.17343 -0.01715
#
# Static dielectric constant tensor:
#      x y z
#    x 2.144750 0.000000 0.069250 
#    y 0.000000 1.990550 0.000000 
#    z 0.069250 0.000000 2.055090 
# 
# From -- ./inp_files/208331.got.cif
#   From: 2010.05.17/outbox.cif.g08.bks.cpg/sg15_105_cif.got.tgz:208331.got - 2010.06.03 18:47:42.
