data_PCOD9275601
_publ_section_title
;
Structure prediction by ZEFSAII (Michael W. Deem and Ramdas Pophale) SiO2 
 PCOD9275601
Probable space group: C 2/C
;
_chemical_formula_sum "Si O2"
_cell_formula_units_Z 48
_cell_length_a 14.935115
_cell_length_b 8.684606
_cell_length_c 30.141349
_cell_angle_alpha 90.000000
_cell_angle_beta 142.882364
_cell_angle_gamma 90.000000
_cell_volume 2359.202170
_symmetry_space_group_name_H-M "C 2/C"
_symmetry_group_IT_number 15
_symmetry_cell_setting 'monoclinic'
loop_
_space_group_symop_operation_xyz
x,y,z
-x,y,1/2-z
-x,-y,-z
x,-y,1/2+z
1/2+x,1/2+y,z
1/2-x,1/2+y,1/2-z
1/2-x,1/2-y,-z
1/2+x,1/2-y,1/2+z
loop_
_atom_site_type_symbol
_atom_site_label
_atom_site_fract_x
_atom_site_fract_y
_atom_site_fract_z
Si Si1 0.639078 0.309910 0.689203
Si Si2 0.608512 0.672933 0.659563
Si Si3 0.685534 0.191479 0.427874
Si Si4 0.368431 0.603501 0.926520
Si Si5 0.313734 0.823316 0.069187
Si Si6 0.820271 0.317060 0.672536
O O1 0.616294 0.493434 0.676125
O O2 0.740685 0.259353 0.770023
O O3 0.482702 0.229348 0.636010
O O4 0.726316 0.259844 0.678192
O O5 0.484982 0.759707 0.638450
O O6 0.567219 0.682135 0.591611
O O7 0.750000 0.250000 0.500000
O O8 0.731915 0.247378 0.396554
O O9 0.699325 0.007754 0.435683
O O10 0.292302 0.717384 0.931308
O O11 0.236001 0.494161 0.855154
O O12 0.500000 0.500000 0.000000
O O13 0.250000 0.750000 0.000000
O O14 0.000000 0.306383 0.750000
#
# Coordination Sequence:
#
# PCOD9275601 Si02
#       6
#     8   8   8   8   8   8
#     4  11  23  39  63  91 126 164 213 264 314 376
#     4  11  22  40  62  93 128 165 218 263 317 380
#     4  11  22  40  66  92 122 168 216 258 316 382
#     4  10  22  39  65  90 125 170 216 254 316 401
#     4  11  23  41  63  92 126 165 209 264 320 372
#     4  10  20  39  63  88 123 174 213 246 317 397
#
# _framework density 20.345860999999999
#
# number of rings (size 3 to 8) (size 9 to 14) (size 15 to 20)
#    0.000    1.333    1.667    6.000    7.000    0.000 
#    0.000   10.000    0.000    0.000    0.000    0.000 
#    0.000    0.000    0.000    0.000    0.000    0.000 
#
# Total GULP energy -133764.451188 kJ/mol
# GULP energy per Si atom -5573.518800 kJ/mol
# Density = 2.029955 g / cm^3
# Si number density = 20.345861 Si / 1000 Ang^3
#
#
#
# Elastic Constant Matrix: (Units=GPa)
#
#
# Indices 1 2 3 4 5 6 
#
# 1 113.7277 15.1559 25.0833 0.0000 -9.0446 0.0000
# 2 15.1559 39.2596 8.0751 0.0000 -7.3632 0.0000
# 3 25.0833 8.0751 97.5480 0.0000 -1.9167 0.0000
# 4 0.0000 0.0000 0.0000 36.4968 0.0000 -3.0689
# 5 -9.0446 -7.3632 -1.9167 0.0000 44.9821 0.0000
# 6 0.0000 0.0000 0.0000 -3.0689 0.0000 22.3219
#
#
#
# Elastic Compliance Matrix: (Units=1/GPa)
#
#
# Indices 1 2 3 4 5 6 
#
# 1 0.009805 -0.003067 -0.002240 0.000000 0.001374 0.000000
# 2 -0.003067 0.027671 -0.001426 0.000000 0.003852 0.000000
# 3 -0.002240 -0.001426 0.010941 0.000000 -0.000218 0.000000
# 4 0.000000 0.000000 0.000000 0.027720 0.000000 0.003811
# 5 0.001374 0.003852 -0.000218 0.000000 0.023129 0.000000
# 6 0.000000 0.000000 0.000000 0.003811 0.000000 0.045323
#
#
# Mechanical properties :
#
#
# Convention : Reuss Voigt Hill
#
# Bulk Modulus (GPa) = 28.61184 38.57377 33.59280
# Shear Modulus (GPa) = 29.46268 34.24157 31.85213
#
# Velocity S-wave (km/s) = 3.80951 4.10686 3.96097
# Velocity P-wave (km/s) = 5.78300 6.44116 6.12093
#
# Compressibility (1/GPa) = 0.03495057
#
# Stress axis : x y z
#
# Youngs Moduli (GPa) = 101.98861 36.13869 91.39722
#
# Poissons Ratio (x) = 0.11082 0.20476
# Poissons Ratio (y) = 0.31276 0.13037
# Poissons Ratio (z) = 0.22849 0.05155
#
# Static dielectric constant tensor:
#      x y z
#    x 1.766840 0.000000 -0.059030 
#    y 0.000000 1.685340 0.000000 
#    z -0.059030 0.000000 1.705570 
# 
# From -- ./inp_files/242298.got.cif
#   From: 2010.05.17/outbox.cif.g08.bks.cpg/sg15_122_cif.got.tgz:242298.got - 2010.06.03 18:47:42.
