data_PCOD9275507
_publ_section_title
;
Structure prediction by ZEFSAII (Michael W. Deem and Ramdas Pophale) SiO2 
 PCOD9275507
Probable space group: C 2/C
;
_chemical_formula_sum "Si O2"
_cell_formula_units_Z 52
_cell_length_a 9.149285
_cell_length_b 16.841799
_cell_length_c 17.782408
_cell_angle_alpha 90.000000
_cell_angle_beta 55.209213
_cell_angle_gamma 90.000000
_cell_volume 2250.281307
_symmetry_space_group_name_H-M "C 2/C"
_symmetry_group_IT_number 15
_symmetry_cell_setting 'monoclinic'
loop_
_space_group_symop_operation_xyz
x,y,z
-x,y,1/2-z
-x,-y,-z
x,-y,1/2+z
1/2+x,1/2+y,z
1/2-x,1/2+y,1/2-z
1/2-x,1/2-y,-z
1/2+x,1/2-y,1/2+z
loop_
_atom_site_type_symbol
_atom_site_label
_atom_site_fract_x
_atom_site_fract_y
_atom_site_fract_z
Si Si1 0.256574 0.256940 0.130175
Si Si2 0.612889 0.768741 0.337163
Si Si3 0.115983 0.577362 0.917708
Si Si4 0.954604 0.863535 0.529566
Si Si5 0.763272 0.485190 0.436807
Si Si6 0.500000 0.037058 0.250000
Si Si7 0.864790 0.584153 0.128075
O O1 0.098702 0.277971 0.118534
O O2 0.259523 0.161871 0.136115
O O3 0.204830 0.279442 0.229960
O O4 0.441312 0.297405 0.050831
O O5 0.682632 0.839991 0.367990
O O6 0.630677 0.685719 0.376570
O O7 0.940330 0.550048 0.922843
O O8 0.230803 0.498285 0.868873
O O9 0.036377 0.589115 0.023107
O O10 0.819364 0.925973 0.531198
O O11 0.111517 0.924277 0.505095
O O12 0.831985 0.486295 0.329659
O O13 0.428842 0.082487 0.196344
#
# Coordination Sequence:
#
# PCOD9275507 Si02
#       7
#     8   8   8   8   8   4   8
#     4  11  22  36  63  95 123 166 209 268 300 362
#     4  11  22  37  63  94 126 163 217 256 309 359
#     4  10  20  39  62  90 115 165 202 258 300 377
#     4  11  21  37  59  93 127 161 202 265 310 357
#     4  10  22  36  62  91 126 159 206 252 313 367
#     4  10  22  40  62  90 116 170 208 240 302 402
#     4  10  21  37  63  86 121 154 209 250 308 364
#
# _framework density 23.108222000000001
#
# number of rings (size 3 to 8) (size 9 to 14) (size 15 to 20)
#    0.000    1.538    3.077    2.308    4.308    0.000 
#    0.000    3.077    3.385    0.000    0.000    0.000 
#    0.000    0.000    0.000    0.000    0.000    0.000 
#
# Total GULP energy -144844.406921 kJ/mol
# GULP energy per Si atom -5570.938728 kJ/mol
# Density = 2.305563 g / cm^3
# Si number density = 23.108222 Si / 1000 Ang^3
#
#
#
# Elastic Constant Matrix: (Units=GPa)
#
#
# Indices 1 2 3 4 5 6 
#
# 1 19.5875 6.8242 11.1060 0.0000 6.6502 0.0000
# 2 6.8242 130.4602 26.4113 0.0000 14.0065 0.0000
# 3 11.1060 26.4113 85.5350 0.0000 18.9847 0.0000
# 4 0.0000 0.0000 0.0000 18.7307 0.0000 -0.9410
# 5 6.6502 14.0065 18.9847 0.0000 27.4001 0.0000
# 6 0.0000 0.0000 0.0000 -0.9410 0.0000 18.8239
#
#
#
# Elastic Compliance Matrix: (Units=1/GPa)
#
#
# Indices 1 2 3 4 5 6 
#
# 1 0.057607 -0.000928 -0.004958 0.000000 -0.010072 0.000000
# 2 -0.000928 0.008387 -0.001853 0.000000 -0.002778 0.000000
# 3 -0.004958 -0.001853 0.014688 0.000000 -0.008027 0.000000
# 4 0.000000 0.000000 0.000000 0.053523 0.000000 0.002675
# 5 -0.010072 -0.002778 -0.008027 0.000000 0.045923 0.000000
# 6 0.000000 0.000000 0.000000 0.002675 0.000000 0.053258
#
#
# Mechanical properties :
#
#
# Convention : Reuss Voigt Hill
#
# Bulk Modulus (GPa) = 15.33610 36.02951 25.68281
# Shear Modulus (GPa) = 18.47763 25.74037 22.10900
#
# Velocity S-wave (km/s) = 2.83081 3.34114 3.09651
# Velocity P-wave (km/s) = 4.16362 5.52357 4.89109
#
# Compressibility (1/GPa) = 0.06520561
#
# Stress axis : x y z
#
# Youngs Moduli (GPa) = 17.35902 119.23112 68.08074
#
# Poissons Ratio (x) = 0.11069 0.33752
# Poissons Ratio (y) = 0.01611 0.12612
# Poissons Ratio (z) = 0.08606 0.22088
#
# Static dielectric constant tensor:
#      x y z
#    x 2.042510 0.000000 -0.010220 
#    y 0.000000 2.034690 0.000000 
#    z -0.010220 0.000000 1.898480 
# 
# From -- ./inp_files/238662.got.cif
#   From: 2010.05.17/outbox.cif.g08.bks.cpg/sg15_120_cif.got.tgz:238662.got - 2010.06.03 18:47:42.
