data_PCOD9275692
_publ_section_title
;
Structure prediction by ZEFSAII (Michael W. Deem and Ramdas Pophale) SiO2 
 PCOD9275692
Probable space group: C 2/C
;
_chemical_formula_sum "Si O2"
_cell_formula_units_Z 24
_cell_length_a 14.276276
_cell_length_b 9.846471
_cell_length_c 21.689975
_cell_angle_alpha 90.000000
_cell_angle_beta 17.337771
_cell_angle_gamma 90.000000
_cell_volume 908.608927
_symmetry_space_group_name_H-M "C 2/C"
_symmetry_group_IT_number 15
_symmetry_cell_setting 'monoclinic'
loop_
_space_group_symop_operation_xyz
x,y,z
-x,y,1/2-z
-x,-y,-z
x,-y,1/2+z
1/2+x,1/2+y,z
1/2-x,1/2+y,1/2-z
1/2-x,1/2-y,-z
1/2+x,1/2-y,1/2+z
loop_
_atom_site_type_symbol
_atom_site_label
_atom_site_fract_x
_atom_site_fract_y
_atom_site_fract_z
Si Si1 0.610575 0.938117 0.994478
Si Si2 0.832966 0.837665 0.008079
Si Si3 0.672851 0.894665 0.576415
O O1 0.487396 0.780490 0.068923
O O2 0.000000 0.936497 0.750000
O O3 0.500000 0.000000 0.000000
O O4 0.528601 0.021086 0.108646
O O5 0.500000 0.860044 0.250000
O O6 0.934765 0.991223 0.931166
O O7 0.750000 0.750000 0.000000
O O8 0.500000 0.866595 0.750000
O O9 0.750000 0.750000 0.500000
#
# Coordination Sequence:
#
# PCOD9275692 Si02
#       3
#     8   8   8
#     4  10  21  42  69  98 134 177 225 285 353 423
#     4   8  16  33  59  88 120 164 215 267 331 402
#     4  10  20  39  63  96 136 181 231 284 341 411
#
# _framework density 26.414003000000001
#
# number of rings (size 3 to 8) (size 9 to 14) (size 15 to 20)
#    0.000    2.667    0.000    1.000    0.000    1.333 
#    0.000   43.333    0.000    0.000    0.000    0.000 
#    0.000    0.000    0.000    0.000    0.000    0.000 
#
# Total GULP energy -66818.875645 kJ/mol
# GULP energy per Si atom -5568.239637 kJ/mol
# Density = 2.635388 g / cm^3
# Si number density = 26.414003 Si / 1000 Ang^3
#
#
#
# Elastic Constant Matrix: (Units=GPa)
#
#
# Indices 1 2 3 4 5 6 
#
# 1 187.2007 90.0106 83.8630 -0.0609 30.9121 -0.0463
# 2 90.0106 350.3675 36.7226 -0.0384 17.7547 -0.0794
# 3 83.8630 36.7226 89.2200 0.1665 17.3642 -0.1551
# 4 -0.0609 -0.0384 0.1665 25.7686 0.0014 20.1427
# 5 30.9121 17.7547 17.3642 0.0014 70.6125 -0.0463
# 6 -0.0463 -0.0794 -0.1551 20.1427 -0.0463 55.5596
#
#
#
# Elastic Compliance Matrix: (Units=1/GPa)
#
#
# Indices 1 2 3 4 5 6 
#
# 1 0.010339 -0.001649 -0.008654 0.000130 -0.001984 -0.000067
# 2 -0.001649 0.003261 0.000238 -0.000005 -0.000157 0.000006
# 3 -0.008654 0.000238 0.019451 -0.000254 -0.001054 0.000139
# 4 0.000130 -0.000005 -0.000254 0.054157 -0.000007 -0.019635
# 5 -0.001984 -0.000157 -0.001054 -0.000007 0.015329 0.000011
# 6 -0.000067 0.000006 0.000139 -0.019635 0.000011 0.025118
#
#
# Mechanical properties :
#
#
# Convention : Reuss Voigt Hill
#
# Bulk Modulus (GPa) = 77.39237 116.44231 96.91734
# Shear Modulus (GPa) = 32.87541 58.13426 45.50483
#
# Velocity S-wave (km/s) = 3.53175 4.69645 4.15511
# Velocity P-wave (km/s) = 6.78191 8.57835 7.73248
#
# Compressibility (1/GPa) = 0.01292117
#
# Stress axis : x y z
#
# Youngs Moduli (GPa) = 96.72207 306.68639 51.41251
#
# Poissons Ratio (x) = 0.50559 0.44492
# Poissons Ratio (y) = 0.15945 -0.01224
# Poissons Ratio (z) = 0.83702 -0.07299
#
# Static dielectric constant tensor:
#      x y z
#    x 2.181280 -0.000040 -0.088840 
#    y -0.000040 2.245160 0.000510 
#    z -0.088840 0.000510 2.183280 
# 
# From -- ./inp_files/273553.got.cif
#   From: 2010.05.17/outbox.cif.g08.bks.cpg/sg15_137_cif.got.tgz:273553.got - 2010.06.03 18:47:42.
