data_PCOD9275291
_publ_section_title
;
Structure prediction by ZEFSAII (Michael W. Deem and Ramdas Pophale) SiO2 
 PCOD9275291
Probable space group: C 2/C
;
_chemical_formula_sum "Si O2"
_cell_formula_units_Z 64
_cell_length_a 33.447662
_cell_length_b 8.186082
_cell_length_c 19.401146
_cell_angle_alpha 90.000000
_cell_angle_beta 143.575287
_cell_angle_gamma 90.000000
_cell_volume 3154.166149
_symmetry_space_group_name_H-M "C 2/C"
_symmetry_group_IT_number 15
_symmetry_cell_setting 'monoclinic'
loop_
_space_group_symop_operation_xyz
x,y,z
-x,y,1/2-z
-x,-y,-z
x,-y,1/2+z
1/2+x,1/2+y,z
1/2-x,1/2+y,1/2-z
1/2-x,1/2-y,-z
1/2+x,1/2-y,1/2+z
loop_
_atom_site_type_symbol
_atom_site_label
_atom_site_fract_x
_atom_site_fract_y
_atom_site_fract_z
Si Si1 0.151011 0.093544 0.254317
Si Si2 0.055446 0.655228 0.417820
Si Si3 0.225285 0.216602 0.640576
Si Si4 0.024781 0.166942 0.999050
Si Si5 0.382140 0.218818 0.286286
Si Si6 0.332634 0.974281 0.839968
Si Si7 0.094285 0.427873 0.823191
Si Si8 0.824816 0.230238 0.070804
O O1 0.220623 0.160138 0.319870
O O2 0.093551 0.195127 0.134851
O O3 0.140667 0.126284 0.321088
O O4 0.143654 0.900425 0.232973
O O5 0.038894 0.823344 0.436149
O O6 0.104550 0.564073 0.538446
O O7 0.091897 0.659200 0.394433
O O8 0.985026 0.559818 0.307572
O O9 0.266901 0.086564 0.742345
O O10 0.180238 0.319166 0.629734
O O11 0.184121 0.152416 0.517193
O O12 0.961051 0.285854 0.917350
O O13 0.000000 0.000000 0.000000
O O14 0.374939 0.179046 0.195812
O O15 0.345643 0.084901 0.280814
O O16 0.134969 0.598442 0.882276
O O17 0.750000 0.250000 0.000000
#
# Coordination Sequence:
#
# PCOD9275291 Si02
#       8
#     8   8   8   8   8   8   8   8
#     4  10  20  39  59  89 126 165 205 262 323 378
#     4  10  21  38  67  92 124 169 211 270 325 389
#     4  11  23  41  60  87 125 168 214 266 318 386
#     4   9  19  37  64  96 126 162 204 266 321 385
#     4  10  22  37  61  94 123 159 213 259 322 392
#     4  12  23  41  63  93 123 169 220 268 324 382
#     4  10  21  40  63  92 127 162 212 265 327 389
#     4  10  21  38  60  86 125 165 210 262 320 387
#
# _framework density 20.290624000000001
#
# number of rings (size 3 to 8) (size 9 to 14) (size 15 to 20)
#    0.000    1.750    2.500    2.250    1.750    1.000 
#    2.250    3.125    0.000    1.500    0.000    0.000 
#    0.000    0.000    0.000    0.000    0.000    0.000 
#
# Total GULP energy -178320.641497 kJ/mol
# GULP energy per Si atom -5572.520047 kJ/mol
# Density = 2.024444 g / cm^3
# Si number density = 20.290624 Si / 1000 Ang^3
#
#
#
# Elastic Constant Matrix: (Units=GPa)
#
#
# Indices 1 2 3 4 5 6 
#
# 1 95.8678 19.9357 16.1733 0.0000 -24.2001 0.0000
# 2 19.9357 39.7428 19.1108 0.0000 -12.1870 0.0000
# 3 16.1733 19.1108 83.0610 0.0000 -21.2495 0.0000
# 4 0.0000 0.0000 0.0000 19.6780 0.0000 -1.8407
# 5 -24.2001 -12.1870 -21.2495 0.0000 25.0563 0.0000
# 6 0.0000 0.0000 0.0000 -1.8407 0.0000 37.1664
#
#
#
# Elastic Compliance Matrix: (Units=1/GPa)
#
#
# Indices 1 2 3 4 5 6 
#
# 1 0.014315 -0.003839 0.001475 0.000000 0.013210 0.000000
# 2 -0.003839 0.031675 -0.004531 0.000000 0.007856 0.000000
# 3 0.001475 -0.004531 0.016085 0.000000 0.012863 0.000000
# 4 0.000000 0.000000 0.000000 0.051055 0.000000 0.002529
# 5 0.013210 0.007856 0.012863 0.000000 0.067398 0.000000
# 6 0.000000 0.000000 0.000000 0.002529 0.000000 0.027031
#
#
# Mechanical properties :
#
#
# Convention : Reuss Voigt Hill
#
# Bulk Modulus (GPa) = 20.70971 36.56788 28.63880
# Shear Modulus (GPa) = 21.05760 27.27695 24.16727
#
# Velocity S-wave (km/s) = 3.22498 3.67046 3.45491
# Velocity P-wave (km/s) = 4.90877 6.00202 5.48272
#
# Compressibility (1/GPa) = 0.04828652
#
# Stress axis : x y z
#
# Youngs Moduli (GPa) = 69.85621 31.57038 62.16923
#
# Poissons Ratio (x) = 0.12121 -0.09173
# Poissons Ratio (y) = 0.26821 0.28166
# Poissons Ratio (z) = -0.10307 0.14303
#
# Static dielectric constant tensor:
#      x y z
#    x 1.752130 0.000000 0.023020 
#    y 0.000000 1.717820 0.000000 
#    z 0.023020 0.000000 1.792060 
# 
# From -- ./inp_files/224623.got.cif
#   From: 2010.05.17/outbox.cif.g08.bks.cpg/sg15_113_cif.got.tgz:224623.got - 2010.06.03 18:47:42.
