data_PCOD9275388
_publ_section_title
;
Structure prediction by ZEFSAII (Michael W. Deem and Ramdas Pophale) SiO2 
 PCOD9275388
Probable space group: C 2/C
;
_chemical_formula_sum "Si O2"
_cell_formula_units_Z 52
_cell_length_a 18.366726
_cell_length_b 14.230932
_cell_length_c 10.659411
_cell_angle_alpha 90.000000
_cell_angle_beta 81.494121
_cell_angle_gamma 90.000000
_cell_volume 2755.464967
_symmetry_space_group_name_H-M "C 2/C"
_symmetry_group_IT_number 15
_symmetry_cell_setting 'monoclinic'
loop_
_space_group_symop_operation_xyz
x,y,z
-x,y,1/2-z
-x,-y,-z
x,-y,1/2+z
1/2+x,1/2+y,z
1/2-x,1/2+y,1/2-z
1/2-x,1/2-y,-z
1/2+x,1/2-y,1/2+z
loop_
_atom_site_type_symbol
_atom_site_label
_atom_site_fract_x
_atom_site_fract_y
_atom_site_fract_z
Si Si1 0.516235 0.796397 0.007337
Si Si2 0.146295 0.773664 0.622596
Si Si3 0.775428 0.615505 0.447676
Si Si4 0.887079 0.592319 0.207794
Si Si5 0.500000 0.064179 0.750000
Si Si6 0.774568 0.593107 0.012740
Si Si7 0.357130 0.749256 0.084948
O O1 0.575074 0.724813 0.051986
O O2 0.506306 0.874101 0.121750
O O3 0.436774 0.753537 0.001210
O O4 0.551528 0.843758 0.875779
O O5 0.188557 0.676930 0.576125
O O6 0.200280 0.860636 0.584682
O O7 0.127536 0.765547 0.772664
O O8 0.835456 0.639986 0.325172
O O9 0.762899 0.504517 0.445938
O O10 0.699279 0.669730 0.446525
O O11 0.813481 0.654474 0.564445
O O12 0.831096 0.569315 0.109805
O O13 0.929006 0.502982 0.254687
#
# Coordination Sequence:
#
# PCOD9275388 Si02
#       7
#     8   8   8   8   4   8   8
#     4  11  22  36  60  84 122 157 196 246 297 357
#     4  10  20  39  61  85 117 157 202 244 300 344
#     4  11  24  37  61  87 123 157 198 249 299 350
#     4  11  21  36  55  89 121 150 196 242 302 367
#     4  12  20  32  56  90 118 156 184 248 310 350
#     4  10  22  37  60  88 115 157 202 249 289 358
#     4  11  22  40  57  89 121 159 197 248 300 354
#
# _framework density 18.871587999999999
#
# number of rings (size 3 to 8) (size 9 to 14) (size 15 to 20)
#    0.000    1.231    3.077    4.154    2.154    0.000 
#    0.000    0.769    0.000    0.000    0.000    0.000 
#    0.000    0.000    0.000    0.000    0.000    0.000 
#
# Total GULP energy -145202.837536 kJ/mol
# GULP energy per Si atom -5584.724521 kJ/mol
# Density = 1.882864 g / cm^3
# Si number density = 18.871588 Si / 1000 Ang^3
#
#
#
# Elastic Constant Matrix: (Units=GPa)
#
#
# Indices 1 2 3 4 5 6 
#
# 1 133.0341 55.5229 29.5215 0.0000 -24.9590 0.0000
# 2 55.5229 74.6763 19.0733 0.0000 -11.7322 0.0000
# 3 29.5215 19.0733 59.2568 0.0000 -13.8078 0.0000
# 4 0.0000 0.0000 0.0000 8.5135 0.0000 -1.1572
# 5 -24.9590 -11.7322 -13.8078 0.0000 22.9969 0.0000
# 6 0.0000 0.0000 0.0000 -1.1572 0.0000 9.8788
#
#
#
# Elastic Compliance Matrix: (Units=1/GPa)
#
#
# Indices 1 2 3 4 5 6 
#
# 1 0.012775 -0.007636 -0.001841 0.000000 0.008864 0.000000
# 2 -0.007636 0.019749 -0.002484 0.000000 0.000297 0.000000
# 3 -0.001841 -0.002484 0.020732 0.000000 0.009183 0.000000
# 4 0.000000 0.000000 0.000000 0.119362 0.000000 0.013982
# 5 0.008864 0.000297 0.009183 0.000000 0.058770 0.000000
# 6 0.000000 0.000000 0.000000 0.013982 0.000000 0.102865
#
#
# Mechanical properties :
#
#
# Convention : Reuss Voigt Hill
#
# Bulk Modulus (GPa) = 34.08820 52.80028 43.44424
# Shear Modulus (GPa) = 13.58869 19.13447 16.36158
#
# Velocity S-wave (km/s) = 2.68631 3.18768 2.94767
# Velocity P-wave (km/s) = 5.26537 6.44887 5.88693
#
# Compressibility (1/GPa) = 0.02933566
#
# Stress axis : x y z
#
# Youngs Moduli (GPa) = 78.27555 50.63453 48.23428
#
# Poissons Ratio (x) = 0.38663 0.08882
# Poissons Ratio (y) = 0.59769 0.11979
# Poissons Ratio (z) = 0.14413 0.12575
#
# Static dielectric constant tensor:
#      x y z
#    x 1.668280 0.000000 -0.009280 
#    y 0.000000 1.645840 0.000000 
#    z -0.009280 0.000000 1.673480 
# 
# From -- ./inp_files/104885.got.cif
#   From: 2010.05.17/outbox.cif.g08.bks.cpg/sg15_53_cif.got.tgz:104885.got - 2010.06.03 18:47:42.
