data_PCOD9275842
_publ_section_title
;
Structure prediction by ZEFSAII (Michael W. Deem and Ramdas Pophale) SiO2 
 PCOD9275842
Probable space group: C 2/C
;
_chemical_formula_sum "Si O2"
_cell_formula_units_Z 52
_cell_length_a 17.919531
_cell_length_b 8.886486
_cell_length_c 21.538993
_cell_angle_alpha 90.000000
_cell_angle_beta 55.324586
_cell_angle_gamma 90.000000
_cell_volume 2820.713584
_symmetry_space_group_name_H-M "C 2/C"
_symmetry_group_IT_number 15
_symmetry_cell_setting 'monoclinic'
loop_
_space_group_symop_operation_xyz
x,y,z
-x,y,1/2-z
-x,-y,-z
x,-y,1/2+z
1/2+x,1/2+y,z
1/2-x,1/2+y,1/2-z
1/2-x,1/2-y,-z
1/2+x,1/2-y,1/2+z
loop_
_atom_site_type_symbol
_atom_site_label
_atom_site_fract_x
_atom_site_fract_y
_atom_site_fract_z
Si Si1 0.050344 0.834786 0.410334
Si Si2 0.500000 0.008170 0.250000
Si Si3 0.212464 0.399410 0.824715
Si Si4 0.638573 0.847688 0.273900
Si Si5 0.282191 0.137350 0.569237
Si Si6 0.603889 0.785493 0.601500
Si Si7 0.584642 0.673519 0.414057
O O1 0.124469 0.706908 0.365872
O O2 0.971862 0.815591 0.396393
O O3 0.001277 0.813975 0.499896
O O4 0.091447 0.001329 0.389984
O O5 0.574809 0.910188 0.250481
O O6 0.446988 0.110183 0.325170
O O7 0.297762 0.290170 0.776221
O O8 0.199186 0.519154 0.775340
O O9 0.217332 0.493786 0.886164
O O10 0.577971 0.784433 0.359199
O O11 0.344141 0.123447 0.478180
O O12 0.181885 0.186276 0.596733
O O13 0.328637 0.271147 0.587422
#
# Coordination Sequence:
#
# PCOD9275842 Si02
#       7
#     8   4   8   8   8   8   8
#     4  10  20  39  65  90 118 160 201 249 302 362
#     4  12  26  38  60  90 124 162 196 260 298 362
#     4  11  23  39  64  89 118 164 202 253 300 361
#     4  11  25  40  59  90 123 157 202 254 305 361
#     4   9  22  41  65  88 124 163 203 245 298 375
#     4  10  22  40  61  92 125 162 200 243 313 360
#     4   9  21  38  65  89 121 155 206 247 297 368
#
# _framework density 18.435051999999999
#
# number of rings (size 3 to 8) (size 9 to 14) (size 15 to 20)
#    0.000    1.846    1.538    0.923    8.615    4.308 
#    0.000    0.769    0.000    0.000    0.000    0.000 
#    0.000    0.000    0.000    0.000    0.000    0.000 
#
# Total GULP energy -145192.497750 kJ/mol
# GULP energy per Si atom -5584.326837 kJ/mol
# Density = 1.839309 g / cm^3
# Si number density = 18.435052 Si / 1000 Ang^3
#
#
#
# Elastic Constant Matrix: (Units=GPa)
#
#
# Indices 1 2 3 4 5 6 
#
# 1 97.2208 54.2098 61.4459 0.0000 8.6250 0.0002
# 2 54.2098 110.9159 64.5929 0.0000 4.0339 0.0004
# 3 61.4459 64.5929 83.4987 0.0000 4.7723 0.0000
# 4 0.0000 0.0000 0.0000 32.0748 0.0000 -0.6430
# 5 8.6250 4.0339 4.7723 0.0000 24.3826 0.0000
# 6 0.0002 0.0004 0.0000 -0.6430 0.0000 23.2564
#
#
#
# Elastic Compliance Matrix: (Units=1/GPa)
#
#
# Indices 1 2 3 4 5 6 
#
# 1 0.019919 -0.002158 -0.012749 0.000000 -0.004194 0.000000
# 2 -0.002158 0.016643 -0.011299 0.000000 0.000222 0.000000
# 3 -0.012749 -0.011299 0.030070 0.000000 0.000494 0.000000
# 4 0.000000 0.000000 0.000000 0.031194 0.000000 0.000862
# 5 -0.004194 0.000222 0.000494 0.000000 0.042363 0.000000
# 6 0.000000 0.000000 0.000000 0.000862 0.000000 0.043023
#
#
# Mechanical properties :
#
#
# Convention : Reuss Voigt Hill
#
# Bulk Modulus (GPa) = 70.32365 72.45917 71.39141
# Shear Modulus (GPa) = 20.80179 23.36854 22.08516
#
# Velocity S-wave (km/s) = 3.36279 3.56422 3.46497
# Velocity P-wave (km/s) = 7.30118 7.50524 7.40392
#
# Compressibility (1/GPa) = 0.01421997
#
# Stress axis : x y z
#
# Youngs Moduli (GPa) = 50.20338 60.08674 33.25554
#
# Poissons Ratio (x) = 0.12969 0.42397
# Poissons Ratio (y) = 0.10836 0.37574
# Poissons Ratio (z) = 0.64003 0.67890
#
# Static dielectric constant tensor:
#      x y z
#    x 1.607600 0.000000 0.002860 
#    y 0.000000 1.608570 0.000000 
#    z 0.002860 0.000000 1.649090 
# 
# From -- ./inp_files/209016.got.cif
#   From: 2010.05.17/outbox.cif.g08.bks.cpg/sg15_105_cif.got.tgz:209016.got - 2010.06.03 18:47:42.
