data_PCOD9275330
_publ_section_title
;
Structure prediction by ZEFSAII (Michael W. Deem and Ramdas Pophale) SiO2 
 PCOD9275330
Probable space group: C 2/C
;
_chemical_formula_sum "Si O2"
_cell_formula_units_Z 60
_cell_length_a 10.728292
_cell_length_b 31.670962
_cell_length_c 9.842936
_cell_angle_alpha 90.000000
_cell_angle_beta 77.361297
_cell_angle_gamma 90.000000
_cell_volume 3263.349591
_symmetry_space_group_name_H-M "C 2/C"
_symmetry_group_IT_number 15
_symmetry_cell_setting 'monoclinic'
loop_
_space_group_symop_operation_xyz
x,y,z
-x,y,1/2-z
-x,-y,-z
x,-y,1/2+z
1/2+x,1/2+y,z
1/2-x,1/2+y,1/2-z
1/2-x,1/2-y,-z
1/2+x,1/2-y,1/2+z
loop_
_atom_site_type_symbol
_atom_site_label
_atom_site_fract_x
_atom_site_fract_y
_atom_site_fract_z
Si Si1 0.847620 0.282997 0.805683
Si Si2 0.500000 0.365457 0.250000
Si Si3 0.224807 0.193735 0.802000
Si Si4 0.853147 0.088829 0.297186
Si Si5 0.107152 0.659335 0.955890
Si Si6 0.202943 0.087786 0.508409
Si Si7 0.803828 0.663575 0.061963
Si Si8 0.092736 0.003808 0.607560
O O1 0.795151 0.237918 0.770328
O O2 0.788268 0.315365 0.712510
O O3 0.000000 0.280317 0.750000
O O4 0.835355 0.304423 0.956273
O O5 0.397061 0.335585 0.200515
O O6 0.418985 0.391432 0.382641
O O7 0.346782 0.171654 0.704239
O O8 0.249153 0.193554 0.956759
O O9 0.806739 0.088531 0.152340
O O10 0.771349 0.119696 0.411052
O O11 0.000000 0.103416 0.250000
O O12 0.856052 0.041860 0.359640
O O13 0.175407 0.615567 0.978774
O O14 0.955468 0.657623 0.006275
O O15 0.198939 0.038969 0.554088
O O16 0.000000 0.018645 0.750000
O O17 0.000000 0.000000 0.500000
#
# Coordination Sequence:
#
# PCOD9275330 Si02
#       8
#     8   4   8   8   8   8   8   8
#     4  10  20  39  60  86 121 164 205 250 305 356
#     4  10  22  34  62  92 126 158 198 258 302 366
#     4  11  21  38  60  89 122 155 212 257 300 347
#     4  11  22  38  62  91 121 151 204 251 308 364
#     4  10  23  39  63  83 123 171 203 241 308 367
#     4  11  20  38  60  91 121 161 198 243 311 365
#     4  11  23  40  61  89 122 163 205 251 299 367
#     4  11  21  35  60  91 124 150 195 257 308 356
#
# _framework density 18.386016000000001
#
# number of rings (size 3 to 8) (size 9 to 14) (size 15 to 20)
#    0.000    1.333    5.333    2.000    0.000    0.000 
#    0.000    2.000    0.000    0.000    0.000    0.000 
#    0.000    0.000    0.000    0.000    0.000    0.000 
#
# Total GULP energy -167317.277589 kJ/mol
# GULP energy per Si atom -5577.242586 kJ/mol
# Density = 1.834417 g / cm^3
# Si number density = 18.386016 Si / 1000 Ang^3
#
#
#
# Elastic Constant Matrix: (Units=GPa)
#
#
# Indices 1 2 3 4 5 6 
#
# 1 55.2251 36.8044 11.6482 0.0000 1.6551 0.0000
# 2 36.8044 101.4249 12.7981 0.0000 1.8301 0.0000
# 3 11.6482 12.7981 69.1739 0.0000 13.4126 0.0000
# 4 0.0000 0.0000 0.0000 17.7236 0.0000 -19.7317
# 5 1.6551 1.8301 13.4126 0.0000 23.0310 0.0000
# 6 0.0000 0.0000 0.0000 -19.7317 0.0000 -4.0460
#
#
#
# Elastic Compliance Matrix: (Units=1/GPa)
#
#
# Indices 1 2 3 4 5 6 
#
# 1 0.024309 -0.008500 -0.002607 0.000000 0.000447 0.000000
# 2 -0.008500 0.013070 -0.001019 0.000000 0.000166 0.000000
# 3 -0.002607 -0.001019 0.016945 0.000000 -0.009600 0.000000
# 4 0.000000 0.000000 0.000000 0.008776 0.000000 -0.042797
# 5 0.000447 0.000166 -0.009600 0.000000 0.048965 0.000000
# 6 0.000000 0.000000 0.000000 -0.042797 0.000000 -0.038442
#
#
# Mechanical properties :
#
#
# Convention : Reuss Voigt Hill
#
# Bulk Modulus (GPa) = 33.25447 38.70281 35.97864
# Shear Modulus (GPa) = 46.33922 18.31326 32.32624
#
# Velocity S-wave (km/s) = 5.02576 3.15944 4.19763
# Velocity P-wave (km/s) = 7.19748 5.86560 6.56540
#
# Compressibility (1/GPa) = 0.03007115
#
# Stress axis : x y z
#
# Youngs Moduli (GPa) = 41.13667 76.51348 59.01333
#
# Poissons Ratio (x) = 0.65038 0.15387
# Poissons Ratio (y) = 0.34967 0.06012
# Poissons Ratio (z) = 0.10726 0.07795
#
# Static dielectric constant tensor:
#      x y z
#    x 1.608580 0.000000 0.012170 
#    y 0.000000 1.647800 0.000000 
#    z 0.012170 0.000000 1.631320 
# 
# From -- ./inp_files/35644.got.cif
#   From: 2010.05.17/outbox.cif.g08.bks.cpg/sg15_18_cif.got.tgz:35644.got - 2010.06.03 18:47:42.
