data_PCOD9275458
_publ_section_title
;
Structure prediction by ZEFSAII (Michael W. Deem and Ramdas Pophale) SiO2 
 PCOD9275458
Probable space group: C 2/C
;
_chemical_formula_sum "Si O2"
_cell_formula_units_Z 48
_cell_length_a 20.900553
_cell_length_b 18.488138
_cell_length_c 9.594365
_cell_angle_alpha 90.000000
_cell_angle_beta 35.698278
_cell_angle_gamma 90.000000
_cell_volume 2163.318953
_symmetry_space_group_name_H-M "C 2/C"
_symmetry_group_IT_number 15
_symmetry_cell_setting 'monoclinic'
loop_
_space_group_symop_operation_xyz
x,y,z
-x,y,1/2-z
-x,-y,-z
x,-y,1/2+z
1/2+x,1/2+y,z
1/2-x,1/2+y,1/2-z
1/2-x,1/2-y,-z
1/2+x,1/2-y,1/2+z
loop_
_atom_site_type_symbol
_atom_site_label
_atom_site_fract_x
_atom_site_fract_y
_atom_site_fract_z
Si Si1 0.637738 0.342174 0.780660
Si Si2 0.674923 0.965514 0.670286
Si Si3 0.678182 0.503238 0.332698
Si Si4 0.223810 0.703397 0.741680
Si Si5 0.968680 0.594133 0.458234
Si Si6 0.426883 0.648729 0.510021
O O1 0.645262 0.425267 0.808849
O O2 0.706006 0.325040 0.517551
O O3 0.695626 0.287582 0.784010
O O4 0.507387 0.330797 0.992837
O O5 0.722193 0.970296 0.432358
O O6 0.584724 0.901461 0.834816
O O7 0.775802 0.970270 0.599799
O O8 0.605784 0.037607 0.826324
O O9 0.591975 0.437555 0.480491
O O10 0.306630 0.683453 0.719064
O O11 0.107729 0.662798 0.935302
O O12 0.000000 0.564603 0.250000
O O13 0.500000 0.674936 0.250000
#
# Coordination Sequence:
#
# PCOD9275458 Si02
#       6
#     8   8   8   8   8   8
#     4  10  22  36  61  88 117 162 212 246 295 372
#     4  11  22  35  62  91 121 156 202 254 308 358
#     4  12  21  41  61  93 124 161 206 257 302 364
#     4  10  20  40  59  85 123 161 202 255 307 358
#     4  11  20  37  59  88 122 158 197 251 315 359
#     4  10  20  39  62  85 122 164 202 256 311 356
#
# _framework density 22.188127999999999
#
# number of rings (size 3 to 8) (size 9 to 14) (size 15 to 20)
#    0.000    1.333    5.000    1.500    0.000    1.333 
#    0.000    4.167    0.000    4.000    0.000    0.000 
#    0.000    0.000    0.000    0.000    0.000    0.000 
#
# Total GULP energy -133766.941184 kJ/mol
# GULP energy per Si atom -5573.622549 kJ/mol
# Density = 2.213763 g / cm^3
# Si number density = 22.188128 Si / 1000 Ang^3
#
#
#
# Elastic Constant Matrix: (Units=GPa)
#
#
# Indices 1 2 3 4 5 6 
#
# 1 71.0974 30.7420 22.2853 0.0000 -35.9509 0.0000
# 2 30.7420 50.1153 19.7996 0.0000 -36.0447 0.0000
# 3 22.2853 19.7996 56.5475 0.0000 -17.1901 0.0000
# 4 0.0000 0.0000 0.0000 19.2901 0.0000 -1.6664
# 5 -35.9509 -36.0447 -17.1901 0.0000 36.6028 0.0000
# 6 0.0000 0.0000 0.0000 -1.6664 0.0000 15.7409
#
#
#
# Elastic Compliance Matrix: (Units=1/GPa)
#
#
# Indices 1 2 3 4 5 6 
#
# 1 0.029879 0.010299 -0.003939 0.000000 0.037639 0.000000
# 2 0.010299 0.072754 -0.005457 0.000000 0.079197 0.000000
# 3 -0.003939 -0.005457 0.021392 0.000000 0.000803 0.000000
# 4 0.000000 0.000000 0.000000 0.052319 0.000000 0.005539
# 5 0.037639 0.079197 0.000803 0.000000 0.142655 0.000000
# 6 0.000000 0.000000 0.000000 0.005539 0.000000 0.064115
#
#
# Mechanical properties :
#
#
# Convention : Reuss Voigt Hill
#
# Bulk Modulus (GPa) = 7.94731 35.93489 21.94110
# Shear Modulus (GPa) = 11.81329 21.32231 16.56780
#
# Velocity S-wave (km/s) = 2.30991 3.10333 2.73554
# Velocity P-wave (km/s) = 3.27167 5.39181 4.45956
#
# Compressibility (1/GPa) = 0.12582875
#
# Stress axis : x y z
#
# Youngs Moduli (GPa) = 33.46815 13.74499 46.74705
#
# Poissons Ratio (x) = -0.14156 0.18416
# Poissons Ratio (y) = -0.34469 0.25512
# Poissons Ratio (z) = 0.13185 0.07501
#
# Static dielectric constant tensor:
#      x y z
#    x 1.910120 0.000000 -0.026080 
#    y 0.000000 1.842200 0.000000 
#    z -0.026080 0.000000 1.853860 
# 
# From -- ./inp_files/88567.got.cif
#   From: 2010.05.17/outbox.cif.g08.bks.cpg/sg15_45_cif.got.tgz:88567.got - 2010.06.03 18:47:42.
