data_PCOD9275970
_publ_section_title
;
Structure prediction by ZEFSAII (Michael W. Deem and Ramdas Pophale) SiO2 
 PCOD9275970
Probable space group: C 2/C
;
_chemical_formula_sum "Si O2"
_cell_formula_units_Z 60
_cell_length_a 10.917895
_cell_length_b 30.520865
_cell_length_c 16.575215
_cell_angle_alpha 90.000000
_cell_angle_beta 145.997669
_cell_angle_gamma 90.000000
_cell_volume 3088.750059
_symmetry_space_group_name_H-M "C 2/C"
_symmetry_group_IT_number 15
_symmetry_cell_setting 'monoclinic'
loop_
_space_group_symop_operation_xyz
x,y,z
-x,y,1/2-z
-x,-y,-z
x,-y,1/2+z
1/2+x,1/2+y,z
1/2-x,1/2+y,1/2-z
1/2-x,1/2-y,-z
1/2+x,1/2-y,1/2+z
loop_
_atom_site_type_symbol
_atom_site_label
_atom_site_fract_x
_atom_site_fract_y
_atom_site_fract_z
Si Si1 0.758246 0.034155 0.144404
Si Si2 0.825161 0.434055 0.364965
Si Si3 0.186239 0.293678 0.284409
Si Si4 0.500000 0.657982 0.250000
Si Si5 0.807510 0.103775 0.295144
Si Si6 0.052562 0.286402 0.513354
Si Si7 0.049800 0.118669 0.591662
Si Si8 0.350009 0.858830 0.512970
O O1 0.738316 0.056584 0.221169
O O2 0.000000 0.043387 0.250000
O O3 0.731591 0.982016 0.131964
O O4 0.584807 0.058999 0.992373
O O5 0.675206 0.419293 0.209436
O O6 0.806279 0.396248 0.421519
O O7 0.376215 0.259703 0.410897
O O8 0.279040 0.342578 0.330872
O O9 0.000000 0.290628 0.250000
O O10 0.079135 0.281126 0.140940
O O11 0.441102 0.629495 0.297458
O O12 0.720135 0.687095 0.380885
O O13 0.577384 0.128870 0.181266
O O14 0.945177 0.102183 0.451441
O O15 0.904650 0.314681 0.494079
O O16 0.855654 0.139141 0.540382
#
# Coordination Sequence:
#
# PCOD9275970 Si02
#       8
#     8   8   8   4   8   8   8   8
#     4  10  20  39  66  93 128 170 214 260 317 385
#     4  10  22  40  65  93 125 176 215 255 320 383
#     4  12  26  40  63  94 125 163 214 266 324 373
#     4  10  20  42  66  84 132 168 208 254 330 394
#     4  10  22  37  65  96 124 167 214 263 323 377
#     4  11  24  41  64  89 124 167 210 265 318 381
#     4  12  24  40  64  93 132 165 216 268 312 383
#     4  10  22  43  63  88 125 177 214 251 323 389
#
# _framework density 19.425332999999998
#
# number of rings (size 3 to 8) (size 9 to 14) (size 15 to 20)
#    0.000    1.333    2.667    2.800    3.733    2.133 
#    0.000    0.000    0.000    1.600    0.000    0.000 
#    0.000    0.000    0.000    0.000    0.000    0.000 
#
# Total GULP energy -167528.984307 kJ/mol
# GULP energy per Si atom -5584.299477 kJ/mol
# Density = 1.938112 g / cm^3
# Si number density = 19.425333 Si / 1000 Ang^3
#
#
#
# Elastic Constant Matrix: (Units=GPa)
#
#
# Indices 1 2 3 4 5 6 
#
# 1 57.6637 -1.1988 27.1824 0.0000 12.1362 0.0000
# 2 -1.1988 37.8759 -5.7908 0.0000 1.3182 0.0000
# 3 27.1824 -5.7908 128.8160 0.0000 -17.7027 0.0000
# 4 0.0000 0.0000 0.0000 32.0853 0.0000 -2.9511
# 5 12.1362 1.3182 -17.7027 0.0000 29.2548 0.0000
# 6 0.0000 0.0000 0.0000 -2.9511 0.0000 0.8157
#
#
#
# Elastic Compliance Matrix: (Units=1/GPa)
#
#
# Indices 1 2 3 4 5 6 
#
# 1 0.023511 0.000179 -0.006866 0.000000 -0.013916 0.000000
# 2 0.000179 0.026593 0.001072 0.000000 -0.000624 0.000000
# 3 -0.006866 0.001072 0.010520 0.000000 0.009165 0.000000
# 4 0.000000 0.000000 0.000000 0.046709 0.000000 0.168981
# 5 -0.013916 -0.000624 0.009165 0.000000 0.045530 0.000000
# 6 0.000000 0.000000 0.000000 0.168981 0.000000 1.837204
#
#
# Mechanical properties :
#
#
# Convention : Reuss Voigt Hill
#
# Bulk Modulus (GPa) = 20.24530 29.41568 24.83049
# Shear Modulus (GPa) = 2.47799 26.04203 14.26001
#
# Velocity S-wave (km/s) = 1.13067 3.66542 2.71236
# Velocity P-wave (km/s) = 3.48558 5.75235 4.75599
#
# Compressibility (1/GPa) = 0.04939418
#
# Stress axis : x y z
#
# Youngs Moduli (GPa) = 42.53343 37.60350 95.06116
#
# Poissons Ratio (x) = -0.00672 0.65265
# Poissons Ratio (y) = -0.00760 -0.10191
# Poissons Ratio (z) = 0.29202 -0.04031
#
# Static dielectric constant tensor:
#      x y z
#    x 1.670880 0.000000 0.025100 
#    y 0.000000 1.683140 0.000000 
#    z 0.025100 0.000000 1.688600 
# 
# From -- ./inp_files/201419.got.cif
#   From: 2010.05.17/outbox.cif.g08.bks.cpg/sg15_101_cif.got.tgz:201419.got - 2010.06.03 18:47:42.
