data_PCOD9275683
_publ_section_title
;
Structure prediction by ZEFSAII (Michael W. Deem and Ramdas Pophale) SiO2 
 PCOD9275683
Probable space group: C 2/C
;
_chemical_formula_sum "Si O2"
_cell_formula_units_Z 48
_cell_length_a 25.856884
_cell_length_b 10.277828
_cell_length_c 8.833570
_cell_angle_alpha 90.000000
_cell_angle_beta 77.646807
_cell_angle_gamma 90.000000
_cell_volume 2293.192445
_symmetry_space_group_name_H-M "C 2/C"
_symmetry_group_IT_number 15
_symmetry_cell_setting 'monoclinic'
loop_
_space_group_symop_operation_xyz
x,y,z
-x,y,1/2-z
-x,-y,-z
x,-y,1/2+z
1/2+x,1/2+y,z
1/2-x,1/2+y,1/2-z
1/2-x,1/2-y,-z
1/2+x,1/2-y,1/2+z
loop_
_atom_site_type_symbol
_atom_site_label
_atom_site_fract_x
_atom_site_fract_y
_atom_site_fract_z
Si Si1 0.421104 0.073290 0.970266
Si Si2 0.761844 0.113530 0.570417
Si Si3 0.650143 0.923712 0.270554
Si Si4 0.515184 0.200873 0.072576
Si Si5 0.118986 0.168263 0.442749
Si Si6 0.667751 0.552757 0.702998
O O1 0.463043 0.175761 0.006724
O O2 0.375274 0.041236 0.119777
O O3 0.392328 0.108742 0.833752
O O4 0.454112 0.938455 0.929444
O O5 0.750000 0.250000 0.500000
O O6 0.707036 0.051719 0.663158
O O7 0.800108 0.131791 0.690688
O O8 0.790591 0.022331 0.430734
O O9 0.652056 0.796681 0.375478
O O10 0.500000 0.243927 0.250000
O O11 0.557526 0.295431 0.971185
O O12 0.132526 0.132659 0.607283
O O13 0.135101 0.053445 0.319503
#
# Coordination Sequence:
#
# PCOD9275683 Si02
#       6
#     8   8   8   8   8   8
#     4  10  21  36  63  91 138 151 204 259 322 380
#     4  11  22  41  66  95 128 170 215 250 322 376
#     4  11  21  39  62 101 123 171 199 260 326 381
#     4  10  20  39  63  95 120 170 202 259 324 374
#     4  10  23  41  68  85 126 170 217 255 319 364
#     4  10  23  46  62  89 132 168 212 272 296 377
#
# _framework density 20.931519000000002
#
# number of rings (size 3 to 8) (size 9 to 14) (size 15 to 20)
#    0.000    1.667    3.333    1.000    0.000    2.000 
#    6.000    0.833    0.000    0.000    0.000    0.000 
#    0.000    0.000    0.000    0.000    0.000    0.000 
#
# Total GULP energy -134218.215919 kJ/mol
# GULP energy per Si atom -5592.425663 kJ/mol
# Density = 2.088388 g / cm^3
# Si number density = 20.931519 Si / 1000 Ang^3
#
#
#
# Elastic Constant Matrix: (Units=GPa)
#
#
# Indices 1 2 3 4 5 6 
#
# 1 87.7508 46.9814 56.8746 0.0000 -1.3980 0.0000
# 2 46.9814 46.7277 35.5178 0.0000 8.9390 0.0000
# 3 56.8746 35.5178 128.7874 0.0000 5.5457 0.0000
# 4 0.0000 0.0000 0.0000 12.5476 0.0000 -2.9779
# 5 -1.3980 8.9390 5.5457 0.0000 47.1769 0.0000
# 6 0.0000 0.0000 0.0000 -2.9779 0.0000 30.7540
#
#
#
# Elastic Compliance Matrix: (Units=1/GPa)
#
#
# Indices 1 2 3 4 5 6 
#
# 1 0.029535 -0.026348 -0.006060 0.000000 0.006580 0.000000
# 2 -0.026348 0.051467 -0.002115 0.000000 -0.010284 0.000000
# 3 -0.006060 -0.002115 0.011071 0.000000 -0.001080 0.000000
# 4 0.000000 0.000000 0.000000 0.081571 0.000000 0.007898
# 5 0.006580 -0.010284 -0.001080 0.000000 0.023467 0.000000
# 6 0.000000 0.000000 0.000000 0.007898 0.000000 0.033281
#
#
# Mechanical properties :
#
#
# Convention : Reuss Voigt Hill
#
# Bulk Modulus (GPa) = 43.42921 60.22374 51.82647
# Shear Modulus (GPa) = 16.28062 26.35518 21.31790
#
# Velocity S-wave (km/s) = 2.79194 3.55225 3.19479
# Velocity P-wave (km/s) = 5.58449 6.75714 6.19860
#
# Compressibility (1/GPa) = 0.02302598
#
# Stress axis : x y z
#
# Youngs Moduli (GPa) = 33.85810 19.43007 90.32712
#
# Poissons Ratio (x) = 0.51194 0.54739
# Poissons Ratio (y) = 0.89209 0.19107
# Poissons Ratio (z) = 0.20518 0.04110
#
# Static dielectric constant tensor:
#      x y z
#    x 1.742490 0.000000 -0.013830 
#    y 0.000000 1.751200 0.000000 
#    z -0.013830 0.000000 1.751710 
# 
# From -- ./inp_files/60518.got.cif
#   From: 2010.05.17/outbox.cif.g08.bks.cpg/sg15_31_cif.got.tgz:60518.got - 2010.06.03 18:47:42.
