data_PCOD9275722
_publ_section_title
;
Structure prediction by ZEFSAII (Michael W. Deem and Ramdas Pophale) SiO2 
 PCOD9275722
Probable space group: C 2/C
;
_chemical_formula_sum "Si O2"
_cell_formula_units_Z 56
_cell_length_a 23.624163
_cell_length_b 8.779128
_cell_length_c 15.530363
_cell_angle_alpha 90.000000
_cell_angle_beta 61.851394
_cell_angle_gamma 90.000000
_cell_volume 2840.034037
_symmetry_space_group_name_H-M "C 2/C"
_symmetry_group_IT_number 15
_symmetry_cell_setting 'monoclinic'
loop_
_space_group_symop_operation_xyz
x,y,z
-x,y,1/2-z
-x,-y,-z
x,-y,1/2+z
1/2+x,1/2+y,z
1/2-x,1/2+y,1/2-z
1/2-x,1/2-y,-z
1/2+x,1/2-y,1/2+z
loop_
_atom_site_type_symbol
_atom_site_label
_atom_site_fract_x
_atom_site_fract_y
_atom_site_fract_z
Si Si1 0.863293 0.854155 0.953342
Si Si2 0.993733 0.001781 0.403222
Si Si3 0.246142 0.019271 0.371619
Si Si4 0.060303 0.710078 0.153923
Si Si5 0.329710 0.002281 0.984442
Si Si6 0.242818 0.357952 0.301682
Si Si7 0.627017 0.536610 0.720423
O O1 0.938925 0.880070 0.913917
O O2 0.841224 0.682078 0.979620
O O3 0.848894 0.918240 0.868525
O O4 0.822983 0.957906 0.048227
O O5 0.063006 0.026693 0.310878
O O6 0.968748 0.837451 0.388606
O O7 0.000000 0.000000 0.500000
O O8 0.286567 0.033193 0.430903
O O9 0.241082 0.180642 0.327160
O O10 0.277180 0.902075 0.280659
O O11 0.103604 0.586180 0.077057
O O12 0.000000 0.644773 0.250000
O O13 0.104914 0.810602 0.185669
O O14 0.296943 0.942973 0.095174
O O15 0.315931 0.417566 0.257902
#
# Coordination Sequence:
#
# PCOD9275722 Si02
#       7
#     8   8   8   8   8   8   8
#     4  11  23  40  64  92 128 172 216 261 317 386
#     4  10  21  40  64  92 125 168 223 263 316 388
#     4  12  25  41  66  98 132 170 217 261 327 383
#     4   9  20  40  65  89 119 173 211 261 326 379
#     4  12  24  43  66  94 138 167 213 270 323 378
#     4  12  24  40  67  98 128 172 214 268 322 386
#     4  10  20  39  64  87 124 171 214 256 322 380
#
# _framework density 19.718074000000001
#
# number of rings (size 3 to 8) (size 9 to 14) (size 15 to 20)
#    0.000    1.143    2.857    5.571    2.000    1.143 
#    0.000    0.714    0.000    0.000    0.000    0.000 
#    0.000    0.000    0.000    0.000    0.000    0.000 
#
# Total GULP energy -156524.491765 kJ/mol
# GULP energy per Si atom -5590.160420 kJ/mol
# Density = 1.967319 g / cm^3
# Si number density = 19.718074 Si / 1000 Ang^3
#
#
#
# Elastic Constant Matrix: (Units=GPa)
#
#
# Indices 1 2 3 4 5 6 
#
# 1 38.7664 2.8504 26.9900 0.0000 -15.2759 0.0000
# 2 2.8504 77.2986 32.2963 0.0000 -23.1933 0.0000
# 3 26.9900 32.2963 131.0413 0.0000 -10.8845 0.0000
# 4 0.0000 0.0000 0.0000 31.4471 0.0000 -2.7329
# 5 -15.2759 -23.1933 -10.8845 0.0000 35.0743 0.0000
# 6 0.0000 0.0000 0.0000 -2.7329 0.0000 8.5994
#
#
#
# Elastic Compliance Matrix: (Units=1/GPa)
#
#
# Indices 1 2 3 4 5 6 
#
# 1 0.038661 0.007881 -0.008287 0.000000 0.019478 0.000000
# 2 0.007881 0.019142 -0.005137 0.000000 0.014496 0.000000
# 3 -0.008287 -0.005137 0.010287 0.000000 -0.003814 0.000000
# 4 0.000000 0.000000 0.000000 0.032703 0.000000 0.010393
# 5 0.019478 0.014496 -0.003814 0.000000 0.045396 0.000000
# 6 0.000000 0.000000 0.000000 0.010393 0.000000 0.119589
#
#
# Mechanical properties :
#
#
# Convention : Reuss Voigt Hill
#
# Bulk Modulus (GPa) = 17.54252 41.26442 29.40347
# Shear Modulus (GPa) = 16.89951 27.35547 22.12749
#
# Velocity S-wave (km/s) = 2.93073 3.72873 3.35355
# Velocity P-wave (km/s) = 4.51312 6.28574 5.47169
#
# Compressibility (1/GPa) = 0.05700435
#
# Stress axis : x y z
#
# Youngs Moduli (GPa) = 25.86580 52.24093 97.20671
#
# Poissons Ratio (x) = -0.41172 0.80559
# Poissons Ratio (y) = -0.20385 0.49934
# Poissons Ratio (z) = 0.21436 0.26836
#
# Static dielectric constant tensor:
#      x y z
#    x 1.718860 0.000000 0.003160 
#    y 0.000000 1.672450 0.000000 
#    z 0.003160 0.000000 1.689990 
# 
# From -- ./inp_files/172285.got.cif
#   From: 2010.05.17/outbox.cif.g08.bks.cpg/sg15_87_cif.got.tgz:172285.got - 2010.06.03 18:47:42.
