data_PCOD9275259
_publ_section_title
;
Structure prediction by ZEFSAII (Michael W. Deem and Ramdas Pophale) SiO2 
 PCOD9275259
Probable space group: C 2/C
;
_chemical_formula_sum "Si O2"
_cell_formula_units_Z 44
_cell_length_a 7.053385
_cell_length_b 11.884314
_cell_length_c 24.766557
_cell_angle_alpha 90.000000
_cell_angle_beta 120.802660
_cell_angle_gamma 90.000000
_cell_volume 1783.192431
_symmetry_space_group_name_H-M "C 2/C"
_symmetry_group_IT_number 15
_symmetry_cell_setting 'monoclinic'
loop_
_space_group_symop_operation_xyz
x,y,z
-x,y,1/2-z
-x,-y,-z
x,-y,1/2+z
1/2+x,1/2+y,z
1/2-x,1/2+y,1/2-z
1/2-x,1/2-y,-z
1/2+x,1/2-y,1/2+z
loop_
_atom_site_type_symbol
_atom_site_label
_atom_site_fract_x
_atom_site_fract_y
_atom_site_fract_z
Si Si1 0.500000 0.101539 0.750000
Si Si2 0.675780 0.946465 0.086224
Si Si3 0.259121 0.695808 0.406052
Si Si4 0.874099 0.453066 0.817190
Si Si5 0.240243 0.785723 0.717684
Si Si6 0.795847 0.884425 0.509717
O O1 0.665550 0.184569 0.744578
O O2 0.556096 0.020955 0.808392
O O3 0.749816 0.824705 0.075082
O O4 0.750231 0.971684 0.157666
O O5 0.751259 0.047716 0.058939
O O6 0.408572 0.936459 0.053424
O O7 0.016141 0.642550 0.368474
O O8 0.346028 0.707522 0.356069
O O9 0.440783 0.618376 0.462507
O O10 0.715566 0.397717 0.749859
O O11 0.500000 0.774294 0.750000
O O12 0.750000 0.750000 0.500000
#
# Coordination Sequence:
#
# PCOD9275259 Si02
#       6
#     4   8   8   8   8   8
#     4  12  22  42  62  88 132 168 200 258 326 372
#     4  10  21  40  62  87 122 164 203 258 313 362
#     4  10  20  39  58  87 123 155 206 257 304 376
#     4  11  23  40  60  93 128 155 215 257 301 397
#     4  10  23  40  57  95 127 159 214 259 309 390
#     4   9  21  40  62  88 121 161 212 255 307 374
#
# _framework density 24.674845999999999
#
# number of rings (size 3 to 8) (size 9 to 14) (size 15 to 20)
#    0.000    1.818    4.545    0.000    2.545    3.636 
#    1.636    8.182    0.000    0.000    0.000    0.000 
#    0.000    0.000    0.000    0.000    0.000    0.000 
#
# Total GULP energy -122659.749959 kJ/mol
# GULP energy per Si atom -5575.443180 kJ/mol
# Density = 2.461868 g / cm^3
# Si number density = 24.674846 Si / 1000 Ang^3
#
#
#
# Elastic Constant Matrix: (Units=GPa)
#
#
# Indices 1 2 3 4 5 6 
#
# 1 53.0926 29.8593 -1.4958 0.0000 3.4490 0.0000
# 2 29.8593 125.2687 22.8241 0.0000 -9.8039 0.0000
# 3 -1.4958 22.8241 48.2234 0.0000 -5.5621 0.0000
# 4 0.0000 0.0000 0.0000 44.3040 0.0000 -4.2436
# 5 3.4490 -9.8039 -5.5621 0.0000 29.1438 0.0000
# 6 0.0000 0.0000 0.0000 -4.2436 0.0000 43.9962
#
#
#
# Elastic Compliance Matrix: (Units=1/GPa)
#
#
# Indices 1 2 3 4 5 6 
#
# 1 0.022767 -0.006344 0.003223 0.000000 -0.004213 0.000000
# 2 -0.006344 0.010644 -0.004841 0.000000 0.003407 0.000000
# 3 0.003223 -0.004841 0.023412 0.000000 0.002458 0.000000
# 4 0.000000 0.000000 0.000000 0.022782 0.000000 0.002197
# 5 -0.004213 0.003407 0.002458 0.000000 0.036427 0.000000
# 6 0.000000 0.000000 0.000000 0.002197 0.000000 0.022941
#
#
# Mechanical properties :
#
#
# Convention : Reuss Voigt Hill
#
# Bulk Modulus (GPa) = 24.45119 36.55109 30.50114
# Shear Modulus (GPa) = 29.66833 35.18194 32.42513
#
# Velocity S-wave (km/s) = 3.47128 3.78010 3.62898
# Velocity P-wave (km/s) = 5.09875 5.82216 5.47242
#
# Compressibility (1/GPa) = 0.04089780
#
# Stress axis : x y z
#
# Youngs Moduli (GPa) = 43.92274 93.95194 42.71355
#
# Poissons Ratio (x) = 0.59601 -0.13766
# Poissons Ratio (y) = 0.27864 0.20680
# Poissons Ratio (z) = -0.14155 0.45486
#
# Static dielectric constant tensor:
#      x y z
#    x 1.929660 0.000000 0.025410 
#    y 0.000000 2.045730 0.000000 
#    z 0.025410 0.000000 2.032450 
# 
# From -- ./inp_files/262794.got.cif
#   From: 2010.05.17/outbox.cif.g08.bks.cpg/sg15_132_cif.got.tgz:262794.got - 2010.06.03 18:47:42.
