data_PCOD9275564
_publ_section_title
;
Structure prediction by ZEFSAII (Michael W. Deem and Ramdas Pophale) SiO2 
 PCOD9275564
Probable space group: C 2/C
;
_chemical_formula_sum "Si O2"
_cell_formula_units_Z 56
_cell_length_a 10.677519
_cell_length_b 29.108061
_cell_length_c 10.026908
_cell_angle_alpha 90.000000
_cell_angle_beta 119.922390
_cell_angle_gamma 90.000000
_cell_volume 2700.973978
_symmetry_space_group_name_H-M "C 2/C"
_symmetry_group_IT_number 15
_symmetry_cell_setting 'monoclinic'
loop_
_space_group_symop_operation_xyz
x,y,z
-x,y,1/2-z
-x,-y,-z
x,-y,1/2+z
1/2+x,1/2+y,z
1/2-x,1/2+y,1/2-z
1/2-x,1/2-y,-z
1/2+x,1/2-y,1/2+z
loop_
_atom_site_type_symbol
_atom_site_label
_atom_site_fract_x
_atom_site_fract_y
_atom_site_fract_z
Si Si1 0.295904 0.339685 0.829688
Si Si2 0.801770 0.679632 0.516259
Si Si3 0.500000 0.889917 0.250000
Si Si4 0.129610 0.972554 0.211233
Si Si5 0.038708 0.930058 0.615171
Si Si6 0.500000 0.118520 0.250000
Si Si7 0.438271 0.948629 0.471549
Si Si8 0.524898 0.265901 0.921826
O O1 0.266012 0.340319 0.654397
O O2 0.393999 0.384101 0.908158
O O3 0.141743 0.349344 0.814603
O O4 0.388828 0.293500 0.910120
O O5 0.675906 0.707576 0.524610
O O6 0.931831 0.712947 0.533010
O O7 0.864901 0.643022 0.650897
O O8 0.492324 0.921845 0.372139
O O9 0.267074 0.953430 0.360200
O O10 0.000000 0.971250 0.250000
O O11 0.146334 0.026054 0.177586
O O12 0.088116 0.946280 0.052493
O O13 0.000000 0.922055 0.750000
O O14 0.517094 0.083565 0.382489
O O15 0.500000 0.000000 0.500000
O O16 0.500000 0.267992 0.750000
#
# Coordination Sequence:
#
# PCOD9275564 Si02
#       8
#     8   8   4   8   8   4   8   8
#     4  11  22  39  63  93 128 178 210 271 331 402
#     4  10  20  39  63 101 127 163 216 278 325 387
#     4  12  25  40  68  96 128 166 226 274 319 396
#     4  10  23  40  59  89 126 168 212 266 317 391
#     4  10  21  37  63  92 122 159 220 269 322 375
#     4  12  25  44  62  92 140 176 222 262 341 406
#     4  12  27  44  65  93 136 179 219 276 331 393
#     4   9  19  36  66  95 130 163 216 273 333 386
#
# _framework density 20.733260999999999
#
# number of rings (size 3 to 8) (size 9 to 14) (size 15 to 20)
#    0.000    1.429    2.143    3.429    4.000    4.571 
#    0.000    0.714    0.000    0.000    0.000    0.000 
#    0.000    0.000    0.000    0.000    0.000    0.000 
#
# Total GULP energy -156282.034911 kJ/mol
# GULP energy per Si atom -5581.501247 kJ/mol
# Density = 2.068607 g / cm^3
# Si number density = 20.733261 Si / 1000 Ang^3
#
#
#
# Elastic Constant Matrix: (Units=GPa)
#
#
# Indices 1 2 3 4 5 6 
#
# 1 59.7985 29.3323 20.9688 0.0000 8.0886 0.0000
# 2 29.3323 97.9920 33.5720 0.0000 11.2907 0.0000
# 3 20.9688 33.5720 83.5293 0.0000 -2.8670 0.0000
# 4 0.0000 0.0000 0.0000 436.1511 0.0000 -87.0694
# 5 8.0886 11.2907 -2.8670 0.0000 29.5441 0.0000
# 6 0.0000 0.0000 0.0000 -87.0694 0.0000 49.6830
#
#
#
# Elastic Compliance Matrix: (Units=1/GPa)
#
#
# Indices 1 2 3 4 5 6 
#
# 1 0.020758 -0.004501 -0.003550 0.000000 -0.004307 0.000000
# 2 -0.004501 0.013596 -0.004485 0.000000 -0.004399 0.000000
# 3 -0.003550 -0.004485 0.014807 0.000000 0.004123 0.000000
# 4 0.000000 0.000000 0.000000 0.003527 0.000000 0.006180
# 5 -0.004307 -0.004399 0.004123 0.000000 0.037108 0.000000
# 6 0.000000 0.000000 0.000000 0.006180 0.000000 0.030959
#
#
# Mechanical properties :
#
#
# Convention : Reuss Voigt Hill
#
# Bulk Modulus (GPa) = 41.51366 45.45179 43.48272
# Shear Modulus (GPa) = 32.49780 113.57210 73.03495
#
# Velocity S-wave (km/s) = 3.96336 7.40923 5.94159
# Velocity P-wave (km/s) = 6.40395 9.75527 8.25154
#
# Compressibility (1/GPa) = 0.02408846
#
# Stress axis : x y z
#
# Youngs Moduli (GPa) = 48.17392 73.55213 67.53446
#
# Poissons Ratio (x) = 0.33107 0.23973
# Poissons Ratio (y) = 0.21684 0.30292
# Poissons Ratio (z) = 0.17101 0.32991
#
# Static dielectric constant tensor:
#      x y z
#    x 1.762460 0.000000 0.031770 
#    y 0.000000 1.783650 0.000000 
#    z 0.031770 0.000000 1.708790 
# 
# From -- ./inp_files/91873.got.cif
#   From: 2010.05.17/outbox.cif.g08.bks.cpg/sg15_46_cif.got.tgz:91873.got - 2010.06.03 18:47:42.
