data_PCOD9275840
_publ_section_title
;
Structure prediction by ZEFSAII (Michael W. Deem and Ramdas Pophale) SiO2 
 PCOD9275840
Probable space group: C 2/C
;
_chemical_formula_sum "Si O2"
_cell_formula_units_Z 64
_cell_length_a 29.989988
_cell_length_b 8.049149
_cell_length_c 15.355055
_cell_angle_alpha 90.000000
_cell_angle_beta 51.363194
_cell_angle_gamma 90.000000
_cell_volume 2895.310444
_symmetry_space_group_name_H-M "C 2/C"
_symmetry_group_IT_number 15
_symmetry_cell_setting 'monoclinic'
loop_
_space_group_symop_operation_xyz
x,y,z
-x,y,1/2-z
-x,-y,-z
x,-y,1/2+z
1/2+x,1/2+y,z
1/2-x,1/2+y,1/2-z
1/2-x,1/2-y,-z
1/2+x,1/2-y,1/2+z
loop_
_atom_site_type_symbol
_atom_site_label
_atom_site_fract_x
_atom_site_fract_y
_atom_site_fract_z
Si Si1 0.949064 0.873062 0.252002
Si Si2 0.476978 0.173992 0.059647
Si Si3 0.827029 0.850881 0.452811
Si Si4 0.280445 0.212087 0.326713
Si Si5 0.628599 0.684932 0.905684
Si Si6 0.811308 0.758643 0.000493
Si Si7 0.811156 0.339089 0.312538
Si Si8 0.582941 0.615640 0.369733
O O1 0.970655 0.715574 0.169341
O O2 0.894304 0.828429 0.376490
O O3 0.000000 0.938061 0.250000
O O4 0.926668 0.003276 0.205573
O O5 0.414756 0.200631 0.094439
O O6 0.522759 0.303744 0.965992
O O7 0.500000 0.000000 0.000000
O O8 0.787398 0.778169 0.577541
O O9 0.807102 0.772311 0.385803
O O10 0.813064 0.047926 0.468082
O O11 0.310244 0.318617 0.216411
O O12 0.298305 0.020350 0.290366
O O13 0.601945 0.503740 0.925568
O O14 0.639751 0.750787 0.987743
O O15 0.820450 0.645202 0.905759
O O16 0.748099 0.734054 0.117868
O O17 0.866175 0.246065 0.208380
#
# Coordination Sequence:
#
# PCOD9275840 Si02
#       8
#     8   8   8   8   8   8   8   8
#     4  11  23  42  68  93 124 169 216 256 308 381
#     4  11  25  45  63  91 129 164 210 265 319 367
#     4  10  20  39  65  90 120 169 207 255 306 381
#     4  10  20  39  65  89 127 165 206 259 322 362
#     4  11  22  42  63  92 125 168 210 260 310 379
#     4  10  22  39  62  92 129 162 210 256 313 372
#     4  10  21  39  61  93 128 165 203 261 312 371
#     4  11  23  39  68  90 126 172 211 259 310 372
#
# _framework density 22.104711000000002
#
# number of rings (size 3 to 8) (size 9 to 14) (size 15 to 20)
#    0.000    1.500    3.750    2.250    3.500    2.000 
#    2.250    1.875    0.000    0.000    0.000    0.000 
#    0.000    0.000    0.000    0.000    0.000    0.000 
#
# Total GULP energy -178850.405442 kJ/mol
# GULP energy per Si atom -5589.075170 kJ/mol
# Density = 2.205440 g / cm^3
# Si number density = 22.104711 Si / 1000 Ang^3
#
#
#
# Elastic Constant Matrix: (Units=GPa)
#
#
# Indices 1 2 3 4 5 6 
#
# 1 97.2872 -4.4884 31.0767 0.0000 -6.5950 0.0003
# 2 -4.4884 38.4768 16.7689 0.0001 -7.1128 0.0006
# 3 31.0767 16.7689 83.2159 0.0000 -36.6914 0.0000
# 4 0.0000 0.0001 0.0000 26.7491 0.0000 -7.2895
# 5 -6.5950 -7.1128 -36.6914 0.0000 35.8765 0.0000
# 6 0.0003 0.0006 0.0000 -7.2895 0.0000 16.0497
#
#
#
# Elastic Compliance Matrix: (Units=1/GPa)
#
#
# Indices 1 2 3 4 5 6 
#
# 1 0.012537 0.003877 -0.007482 0.000000 -0.004579 0.000000
# 2 0.003877 0.029694 -0.008235 0.000000 -0.001822 -0.000001
# 3 -0.007482 -0.008235 0.027582 0.000000 0.025200 0.000001
# 4 0.000000 0.000000 0.000000 0.042665 0.000000 0.019378
# 5 -0.004579 -0.001822 0.025200 0.000000 0.052443 0.000000
# 6 0.000000 -0.000001 0.000001 0.019378 0.000000 0.071108
#
#
# Mechanical properties :
#
#
# Convention : Reuss Voigt Hill
#
# Bulk Modulus (GPa) = 21.67650 33.96602 27.82126
# Shear Modulus (GPa) = 18.17609 27.44325 22.80967
#
# Velocity S-wave (km/s) = 2.87064 3.52733 3.21579
# Velocity P-wave (km/s) = 4.56235 5.65586 5.13828
#
# Compressibility (1/GPa) = 0.04613291
#
# Stress axis : x y z
#
# Youngs Moduli (GPa) = 79.76164 33.67679 36.25593
#
# Poissons Ratio (x) = -0.13056 0.27127
# Poissons Ratio (y) = -0.30923 0.29856
# Poissons Ratio (z) = 0.59679 0.27732
#
# Static dielectric constant tensor:
#      x y z
#    x 1.807440 0.000000 0.008720 
#    y 0.000000 1.817070 0.000000 
#    z 0.008720 0.000000 1.827160 
# 
# From -- ./inp_files/181152.got.cif
#   From: 2010.05.17/outbox.cif.g08.bks.cpg/sg15_91_cif.got.tgz:181152.got - 2010.06.03 18:47:42.
