data_PCOD9275113
_publ_section_title
;
Structure prediction by ZEFSAII (Michael W. Deem and Ramdas Pophale) SiO2 
 PCOD9275113
Probable space group: C 2/C
;
_chemical_formula_sum "Si O2"
_cell_formula_units_Z 60
_cell_length_a 13.780049
_cell_length_b 14.217118
_cell_length_c 25.296990
_cell_angle_alpha 90.000000
_cell_angle_beta 147.918043
_cell_angle_gamma 90.000000
_cell_volume 2632.288413
_symmetry_space_group_name_H-M "C 2/C"
_symmetry_group_IT_number 15
_symmetry_cell_setting 'monoclinic'
loop_
_space_group_symop_operation_xyz
x,y,z
-x,y,1/2-z
-x,-y,-z
x,-y,1/2+z
1/2+x,1/2+y,z
1/2-x,1/2+y,1/2-z
1/2-x,1/2-y,-z
1/2+x,1/2-y,1/2+z
loop_
_atom_site_type_symbol
_atom_site_label
_atom_site_fract_x
_atom_site_fract_y
_atom_site_fract_z
Si Si1 0.705258 0.911848 0.429163
Si Si2 0.496554 0.823544 0.425810
Si Si3 0.839042 0.737825 0.131714
Si Si4 0.191510 0.363369 0.617729
Si Si5 0.035676 0.407106 0.659051
Si Si6 0.879410 0.127970 0.385563
Si Si7 0.000000 0.720477 0.750000
Si Si8 0.213495 0.067520 0.857842
O O1 0.651597 0.858362 0.458408
O O2 0.609057 0.848380 0.339765
O O3 0.922697 0.920309 0.520742
O O4 0.604023 0.010794 0.390005
O O5 0.582900 0.806314 0.523270
O O6 0.413575 0.725231 0.369376
O O7 0.329604 0.894839 0.360934
O O8 0.698232 0.665043 0.093993
O O9 0.769804 0.844839 0.093850
O O10 0.000000 0.745352 0.250000
O O11 0.935759 0.690568 0.127275
O O12 0.095858 0.398140 0.626582
O O13 0.357778 0.295107 0.709780
O O14 0.224653 0.462154 0.601663
O O15 0.215508 0.422505 0.778887
O O16 0.000000 0.056293 0.750000
#
# Coordination Sequence:
#
# PCOD9275113 Si02
#       8
#     8   8   8   8   8   8   4   8
#     4  12  26  45  72 106 143 185 236 292 356 421
#     4  11  23  45  71 103 142 187 232 291 355 415
#     4   8  19  41  67  95 134 187 227 279 341 416
#     4  12  24  44  70 105 141 180 237 295 340 417
#     4  11  25  45  71 104 144 186 236 287 348 421
#     4  10  22  44  74  96 141 194 227 282 365 416
#     4  12  28  44  70 106 144 178 240 296 342 420
#     4  10  20  38  68  99 135 180 230 283 344 400
#
# _framework density 22.793854
#
# number of rings (size 3 to 8) (size 9 to 14) (size 15 to 20)
#    0.000    1.333    3.333    2.400    4.667    0.533 
#    0.000    2.667    0.000    0.000    0.000    0.000 
#    0.000    0.000    0.000    0.000    0.000    0.000 
#
# Total GULP energy -167419.938366 kJ/mol
# GULP energy per Si atom -5580.664612 kJ/mol
# Density = 2.274197 g / cm^3
# Si number density = 22.793854 Si / 1000 Ang^3
#
#
#
# Elastic Constant Matrix: (Units=GPa)
#
#
# Indices 1 2 3 4 5 6 
#
# 1 95.5675 37.5699 49.2301 0.0000 13.1645 0.0000
# 2 37.5699 79.3431 6.8328 0.0000 -10.6174 0.0000
# 3 49.2301 6.8328 91.5366 0.0004 11.8697 0.0002
# 4 0.0000 0.0000 0.0004 26.6983 0.0000 8.0410
# 5 13.1645 -10.6174 11.8697 0.0000 27.5325 0.0000
# 6 0.0000 0.0000 0.0002 8.0410 0.0000 28.0404
#
#
#
# Elastic Compliance Matrix: (Units=1/GPa)
#
#
# Indices 1 2 3 4 5 6 
#
# 1 0.020466 -0.010240 -0.008963 0.000000 -0.009871 0.000000
# 2 -0.010240 0.018684 0.002694 0.000000 0.010940 0.000000
# 3 -0.008963 0.002694 0.015733 0.000000 -0.001458 0.000000
# 4 0.000000 0.000000 0.000000 0.040996 0.000000 -0.011756
# 5 -0.009871 0.010940 -0.001458 0.000000 0.045888 0.000000
# 6 0.000000 0.000000 0.000000 -0.011756 0.000000 0.039034
#
#
# Mechanical properties :
#
#
# Convention : Reuss Voigt Hill
#
# Bulk Modulus (GPa) = 45.73371 50.41254 48.07313
# Shear Modulus (GPa) = 22.61346 27.97520 25.29433
#
# Velocity S-wave (km/s) = 3.15316 3.50710 3.33483
# Velocity P-wave (km/s) = 5.77617 6.21003 5.99702
#
# Compressibility (1/GPa) = 0.02186571
#
# Stress axis : x y z
#
# Youngs Moduli (GPa) = 48.86143 53.52135 63.56093
#
# Poissons Ratio (x) = 0.54805 0.56968
# Poissons Ratio (y) = 0.50034 -0.17123
# Poissons Ratio (z) = 0.43793 -0.14418
#
# Static dielectric constant tensor:
#      x y z
#    x 1.847740 0.000000 0.033420 
#    y 0.000000 1.895200 0.000000 
#    z 0.033420 0.000000 1.875550 
# 
# From -- ./inp_files/296701.got.cif
#   From: 2010.05.17/outbox.cif.g08.bks.cpg/sg15_149_cif.got.tgz:296701.got - 2010.06.03 18:47:42.
