data_PCOD9275595
_publ_section_title
;
Structure prediction by ZEFSAII (Michael W. Deem and Ramdas Pophale) SiO2 
 PCOD9275595
Probable space group: C 2/C
;
_chemical_formula_sum "Si O2"
_cell_formula_units_Z 52
_cell_length_a 9.355302
_cell_length_b 23.669987
_cell_length_c 19.483924
_cell_angle_alpha 90.000000
_cell_angle_beta 138.598331
_cell_angle_gamma 90.000000
_cell_volume 2853.336040
_symmetry_space_group_name_H-M "C 2/C"
_symmetry_group_IT_number 15
_symmetry_cell_setting 'monoclinic'
loop_
_space_group_symop_operation_xyz
x,y,z
-x,y,1/2-z
-x,-y,-z
x,-y,1/2+z
1/2+x,1/2+y,z
1/2-x,1/2+y,1/2-z
1/2-x,1/2-y,-z
1/2+x,1/2-y,1/2+z
loop_
_atom_site_type_symbol
_atom_site_label
_atom_site_fract_x
_atom_site_fract_y
_atom_site_fract_z
Si Si1 0.842994 0.402652 0.754947
Si Si2 0.926152 0.171322 0.085956
Si Si3 0.357747 0.838221 0.529296
Si Si4 0.500000 0.745834 0.250000
Si Si5 0.549786 0.913851 0.487068
Si Si6 0.745205 0.502754 0.327830
Si Si7 0.049663 0.782722 0.055910
O O1 0.632575 0.369544 0.654172
O O2 0.768672 0.456468 0.771441
O O3 0.000000 0.418813 0.750000
O O4 0.979957 0.361030 0.853851
O O5 0.963359 0.206996 0.169293
O O6 0.711830 0.133257 0.016626
O O7 0.919149 0.207651 0.014027
O O8 0.379460 0.883273 0.476286
O O9 0.446818 0.778704 0.533234
O O10 0.121040 0.827287 0.474747
O O11 0.282367 0.782365 0.176260
O O12 0.688462 0.957276 0.583751
O O13 0.413931 0.951543 0.385785
O O14 0.500000 0.483777 0.250000
#
# Coordination Sequence:
#
# PCOD9275595 Si02
#       7
#     8   8   8   4   8   8   8
#     4  11  20  38  66  90 115 156 205 253 307 364
#     4  12  21  39  63  91 119 168 205 247 301 368
#     4  10  21  39  57  92 126 156 203 254 297 359
#     4  12  22  38  60  86 128 166 212 242 288 360
#     4  10  21  38  63  86 116 156 203 255 300 361
#     4  10  20  39  63  88 112 151 204 255 306 360
#     4  11  23  37  61  90 128 164 205 248 296 361
#
# _framework density 18.224281999999999
#
# number of rings (size 3 to 8) (size 9 to 14) (size 15 to 20)
#    0.000    1.231    6.154    1.385    0.000    0.000 
#    2.769    2.308    0.000    0.000    0.000    0.000 
#    0.000    0.000    0.000    0.000    0.000    0.000 
#
# Total GULP energy -145151.774089 kJ/mol
# GULP energy per Si atom -5582.760542 kJ/mol
# Density = 1.818280 g / cm^3
# Si number density = 18.224282 Si / 1000 Ang^3
#
#
#
# Elastic Constant Matrix: (Units=GPa)
#
#
# Indices 1 2 3 4 5 6 
#
# 1 98.6969 25.1693 51.9802 0.0000 13.0545 0.0000
# 2 25.1693 43.9811 47.4016 0.0000 2.9280 0.0000
# 3 51.9802 47.4016 88.2027 0.0000 14.5741 0.0000
# 4 0.0000 0.0000 0.0000 31.3040 0.0000 14.0237
# 5 13.0545 2.9280 14.5741 0.0000 29.2070 0.0000
# 6 0.0000 0.0000 0.0000 14.0237 0.0000 5.7204
#
#
#
# Elastic Compliance Matrix: (Units=1/GPa)
#
#
# Indices 1 2 3 4 5 6 
#
# 1 0.014902 0.001649 -0.009308 0.000000 -0.002181 0.000000
# 2 0.001649 0.056971 -0.033266 0.000000 0.010151 0.000001
# 3 -0.009308 -0.033266 0.036469 0.000001 -0.010703 -0.000001
# 4 0.000000 0.000000 0.000001 -0.325140 0.000000 0.797092
# 5 -0.002181 0.010151 -0.010703 0.000000 0.039536 -0.000001
# 6 0.000000 0.000001 -0.000001 0.797092 -0.000001 -1.779287
#
#
# Mechanical properties :
#
#
# Convention : Reuss Voigt Hill
#
# Bulk Modulus (GPa) = 37.74742 53.33140 45.53941
# Shear Modulus (GPa) = -2.67972 20.33492 8.82760
#
# Velocity S-wave (km/s) = -1.21392 3.34401 2.20327
# Velocity P-wave (km/s) = 4.33507 6.65111 5.61383
#
# Compressibility (1/GPa) = 0.02649188
#
# Stress axis : x y z
#
# Youngs Moduli (GPa) = 67.10390 17.55276 27.42033
#
# Poissons Ratio (x) = -0.02894 0.25523
# Poissons Ratio (y) = -0.11065 0.91217
# Poissons Ratio (z) = 0.62460 0.58392
#
# Static dielectric constant tensor:
#      x y z
#    x 1.626690 0.000000 0.005820 
#    y 0.000000 1.622050 0.000000 
#    z 0.005820 0.000000 1.616440 
# 
# From -- ./inp_files/80637.got.cif
#   From: 2010.05.17/outbox.cif.g08.bks.cpg/sg15_41_cif.got.tgz:80637.got - 2010.06.03 18:47:42.
