data_PCOD9275294
_publ_section_title
;
Structure prediction by ZEFSAII (Michael W. Deem and Ramdas Pophale) SiO2 
 PCOD9275294
Probable space group: C 2/C
;
_chemical_formula_sum "Si O2"
_cell_formula_units_Z 56
_cell_length_a 12.098281
_cell_length_b 10.129348
_cell_length_c 22.959214
_cell_angle_alpha 90.000000
_cell_angle_beta 131.262927
_cell_angle_gamma 90.000000
_cell_volume 2114.956999
_symmetry_space_group_name_H-M "C 2/C"
_symmetry_group_IT_number 15
_symmetry_cell_setting 'monoclinic'
loop_
_space_group_symop_operation_xyz
x,y,z
-x,y,1/2-z
-x,-y,-z
x,-y,1/2+z
1/2+x,1/2+y,z
1/2-x,1/2+y,1/2-z
1/2-x,1/2-y,-z
1/2+x,1/2-y,1/2+z
loop_
_atom_site_type_symbol
_atom_site_label
_atom_site_fract_x
_atom_site_fract_y
_atom_site_fract_z
Si Si1 0.849854 0.917624 0.955456
Si Si2 0.823382 0.110491 0.044875
Si Si3 0.068141 0.470108 0.659605
Si Si4 0.329942 0.367344 0.675364
Si Si5 0.904596 0.277280 0.390546
Si Si6 0.084931 0.799181 0.220130
Si Si7 0.260115 0.917863 0.182896
O O1 0.752705 0.967916 0.868087
O O2 0.881929 0.765807 0.950340
O O3 0.790192 0.983505 0.993166
O O4 0.000000 0.000000 0.000000
O O5 0.795311 0.071100 0.101256
O O6 0.992080 0.162935 0.099640
O O7 0.750000 0.250000 0.000000
O O8 0.226605 0.427347 0.688555
O O9 0.020506 0.580110 0.595721
O O10 0.009958 0.330023 0.663808
O O11 0.100642 0.555848 0.728047
O O12 0.500000 0.374032 0.750000
O O13 0.281555 0.215584 0.654899
O O14 0.750006 0.274066 0.302361
O O15 0.119801 0.894085 0.177091
O O16 0.000000 0.838483 0.250000
#
# Coordination Sequence:
#
# PCOD9275294 Si02
#       7
#     8   8   8   8   8   8   8
#     4  10  21  39  64  83 132 169 207 257 319 379
#     4  11  22  41  68  95 120 167 221 257 316 382
#     4  10  21  37  62  89 127 160 205 263 318 372
#     4  11  23  39  66  99 122 161 216 269 317 374
#     4  10  22  41  58  93 130 166 204 266 314 374
#     4  10  21  37  62  92 124 166 210 265 324 373
#     4  10  20  39  59  91 124 160 207 267 313 368
#
# _framework density 26.478079000000001
#
# number of rings (size 3 to 8) (size 9 to 14) (size 15 to 20)
#    0.000    1.714    2.857    2.571    2.000    5.143 
#    0.000    1.429    3.143    0.000    0.000    0.000 
#    0.000    0.000    0.000    0.000    0.000    0.000 
#
# Total GULP energy -156435.961009 kJ/mol
# GULP energy per Si atom -5586.998607 kJ/mol
# Density = 2.641781 g / cm^3
# Si number density = 26.478079 Si / 1000 Ang^3
#
#
#
# Elastic Constant Matrix: (Units=GPa)
#
#
# Indices 1 2 3 4 5 6 
#
# 1 123.7888 13.4563 34.8009 0.0000 -20.8351 0.0000
# 2 13.4563 82.1022 -0.5544 0.0000 -3.8340 0.0000
# 3 34.8009 -0.5544 63.7485 0.0000 -20.1151 0.0000
# 4 0.0000 0.0000 0.0000 22.2139 0.0000 -10.2315
# 5 -20.8351 -3.8340 -20.1151 0.0000 41.9417 0.0000
# 6 0.0000 0.0000 0.0000 -10.2315 0.0000 34.2754
#
#
#
# Elastic Compliance Matrix: (Units=1/GPa)
#
#
# Indices 1 2 3 4 5 6 
#
# 1 0.009990 -0.001548 -0.004649 0.000000 0.002591 0.000000
# 2 -0.001548 0.012488 0.001262 0.000000 0.000978 0.000000
# 3 -0.004649 0.001262 0.020672 0.000000 0.007720 0.000000
# 4 0.000000 0.000000 0.000000 0.052193 0.000000 0.015580
# 5 0.002591 0.000978 0.007720 0.000000 0.028922 0.000000
# 6 0.000000 0.000000 0.000000 0.015580 0.000000 0.033826
#
#
# Mechanical properties :
#
#
# Convention : Reuss Voigt Hill
#
# Bulk Modulus (GPa) = 30.04866 40.56059 35.30462
# Shear Modulus (GPa) = 27.92476 34.48199 31.20337
#
# Velocity S-wave (km/s) = 3.25104 3.61263 3.43660
# Velocity P-wave (km/s) = 5.04633 5.72305 5.39531
#
# Compressibility (1/GPa) = 0.03327935
#
# Stress axis : x y z
#
# Youngs Moduli (GPa) = 100.10297 80.07822 48.37549
#
# Poissons Ratio (x) = 0.12393 0.22491
# Poissons Ratio (y) = 0.15493 -0.06105
# Poissons Ratio (z) = 0.46541 -0.10107
#
# Static dielectric constant tensor:
#      x y z
#    x 2.199050 0.000000 0.026160 
#    y 0.000000 2.167180 0.000000 
#    z 0.026160 0.000000 2.096310 
# 
# From -- ./inp_files/268723.got.cif
#   From: 2010.05.17/outbox.cif.g08.bks.cpg/sg15_135_cif.got.tgz:268723.got - 2010.06.03 18:47:42.
