data_PCOD9275212
_publ_section_title
;
Structure prediction by ZEFSAII (Michael W. Deem and Ramdas Pophale) SiO2 
 PCOD9275212
Probable space group: C 2/C
;
_chemical_formula_sum "Si O2"
_cell_formula_units_Z 44
_cell_length_a 10.390503
_cell_length_b 27.863451
_cell_length_c 13.177900
_cell_angle_alpha 90.000000
_cell_angle_beta 144.354077
_cell_angle_gamma 90.000000
_cell_volume 2223.403151
_symmetry_space_group_name_H-M "C 2/C"
_symmetry_group_IT_number 15
_symmetry_cell_setting 'monoclinic'
loop_
_space_group_symop_operation_xyz
x,y,z
-x,y,1/2-z
-x,-y,-z
x,-y,1/2+z
1/2+x,1/2+y,z
1/2-x,1/2+y,1/2-z
1/2-x,1/2-y,-z
1/2+x,1/2-y,1/2+z
loop_
_atom_site_type_symbol
_atom_site_label
_atom_site_fract_x
_atom_site_fract_y
_atom_site_fract_z
Si Si1 0.662556 0.621771 0.270401
Si Si2 0.061446 0.056177 0.549216
Si Si3 0.533908 0.945977 0.059705
Si Si4 0.563981 0.815038 0.936318
Si Si5 0.191838 0.409548 0.946752
Si Si6 0.000000 0.227196 0.750000
O O1 0.500000 0.644093 0.250000
O O2 0.844985 0.659420 0.342300
O O3 0.802903 0.581304 0.420365
O O4 0.531773 0.591515 0.098972
O O5 0.923693 0.072578 0.558679
O O6 0.316853 0.058642 0.744963
O O7 0.000000 0.000000 0.500000
O O8 0.645742 0.921673 0.033066
O O9 0.500000 0.000000 0.000000
O O10 0.669278 0.852557 0.924007
O O11 0.520169 0.764107 0.856776
O O12 0.785675 0.804241 0.142322
O O13 0.000000 0.430598 0.750000
#
# Coordination Sequence:
#
# PCOD9275212 Si02
#       6
#     8   8   8   8   8   4
#     4  11  25  44  60  89 136 175 212 260 320 384
#     4  12  23  38  60  88 124 176 217 269 305 359
#     4  11  23  38  59  89 119 171 226 261 308 361
#     4  10  21  41  64 101 121 159 201 274 334 381
#     4  11  20  39  62  90 129 157 206 268 319 364
#     4  10  20  38  76  96 120 148 210 274 336 400
#
# _framework density 19.789484999999999
#
# number of rings (size 3 to 8) (size 9 to 14) (size 15 to 20)
#    0.000    1.091    6.364    0.545    7.636    0.727 
#    0.000    0.909    0.000    0.000    0.000    0.000 
#    0.000    0.000    0.000    0.000    0.000    0.000 
#
# Total GULP energy -122474.252222 kJ/mol
# GULP energy per Si atom -5567.011465 kJ/mol
# Density = 1.974444 g / cm^3
# Si number density = 19.789485 Si / 1000 Ang^3
#
#
#
# Elastic Constant Matrix: (Units=GPa)
#
#
# Indices 1 2 3 4 5 6 
#
# 1 80.3180 19.9295 15.7451 0.0000 15.1119 0.0000
# 2 19.9295 79.9545 33.8783 0.0000 9.0571 0.0000
# 3 15.7451 33.8783 142.8381 0.0000 2.1730 0.0000
# 4 0.0000 0.0000 0.0000 34.8966 0.0000 3.2755
# 5 15.1119 9.0571 2.1730 0.0000 20.2632 0.0000
# 6 0.0000 0.0000 0.0000 3.2755 0.0000 10.2253
#
#
#
# Elastic Compliance Matrix: (Units=1/GPa)
#
#
# Indices 1 2 3 4 5 6 
#
# 1 0.015104 -0.002192 -0.000990 0.000000 -0.010178 0.000000
# 2 -0.002192 0.014957 -0.003234 0.000000 -0.004703 0.000000
# 3 -0.000990 -0.003234 0.007857 0.000000 0.001341 0.000000
# 4 0.000000 0.000000 0.000000 0.029544 0.000000 -0.009464
# 5 -0.010178 -0.004703 0.001341 0.000000 0.058900 0.000000
# 6 0.000000 0.000000 0.000000 -0.009464 0.000000 0.100828
#
#
# Mechanical properties :
#
#
# Convention : Reuss Voigt Hill
#
# Bulk Modulus (GPa) = 39.86620 49.13516 44.50068
# Shear Modulus (GPa) = 20.13015 28.64753 24.38884
#
# Velocity S-wave (km/s) = 3.19284 3.80888 3.51438
# Velocity P-wave (km/s) = 5.81216 6.65028 6.24530
#
# Compressibility (1/GPa) = 0.02508390
#
# Stress axis : x y z
#
# Youngs Moduli (GPa) = 66.20960 66.85942 127.27901
#
# Poissons Ratio (x) = 0.14658 0.12601
# Poissons Ratio (y) = 0.14515 0.41165
# Poissons Ratio (z) = 0.06555 0.21624
#
# Static dielectric constant tensor:
#      x y z
#    x 1.693270 0.000000 0.006690 
#    y 0.000000 1.774690 0.000000 
#    z 0.006690 0.000000 1.877890 
# 
# From -- ./inp_files/148643.got.cif
#   From: 2010.05.17/outbox.cif.g08.bks.cpg/sg15_75_cif.got.tgz:148643.got - 2010.06.03 18:47:42.
