data_PCOD9275700
_publ_section_title
;
Structure prediction by ZEFSAII (Michael W. Deem and Ramdas Pophale) SiO2 
 PCOD9275700
Probable space group: C 2/C
;
_chemical_formula_sum "Si O2"
_cell_formula_units_Z 44
_cell_length_a 8.898394
_cell_length_b 14.708890
_cell_length_c 17.782616
_cell_angle_alpha 90.000000
_cell_angle_beta 117.991661
_cell_angle_gamma 90.000000
_cell_volume 2055.207667
_symmetry_space_group_name_H-M "C 2/C"
_symmetry_group_IT_number 15
_symmetry_cell_setting 'monoclinic'
loop_
_space_group_symop_operation_xyz
x,y,z
-x,y,1/2-z
-x,-y,-z
x,-y,1/2+z
1/2+x,1/2+y,z
1/2-x,1/2+y,1/2-z
1/2-x,1/2-y,-z
1/2+x,1/2-y,1/2+z
loop_
_atom_site_type_symbol
_atom_site_label
_atom_site_fract_x
_atom_site_fract_y
_atom_site_fract_z
Si Si1 0.000000 0.133608 0.250000
Si Si2 0.885059 0.231407 0.372758
Si Si3 0.075805 0.418520 0.422624
Si Si4 0.056363 0.899430 0.037738
Si Si5 0.591900 0.257406 0.403817
Si Si6 0.859173 0.412951 0.886451
O O1 0.932640 0.193741 0.303054
O O2 0.833706 0.079482 0.185414
O O3 0.686366 0.233360 0.348539
O O4 0.950002 0.333950 0.393388
O O5 0.988860 0.168912 0.456787
O O6 0.240471 0.398312 0.411814
O O7 0.139650 0.427756 0.523591
O O8 0.979857 0.510557 0.379299
O O9 0.979428 0.858110 0.096498
O O10 0.000000 0.000000 0.000000
O O11 0.750000 0.250000 0.500000
O O12 0.445863 0.184522 0.389252
#
# Coordination Sequence:
#
# PCOD9275700 Si02
#       6
#     4   8   8   8   8   8
#     4  12  26  44  62  98 148 182 212 284 360 400
#     4  11  23  41  67  99 136 173 222 278 337 406
#     4  11  21  41  71  98 122 181 238 271 317 401
#     4  11  21  36  67 103 128 169 227 286 322 387
#     4  10  20  39  64 100 129 165 227 278 321 396
#     4  11  23  41  70  97 136 176 227 282 333 399
#
# _framework density 21.409030000000001
#
# number of rings (size 3 to 8) (size 9 to 14) (size 15 to 20)
#    0.000    1.091    5.455    3.818    2.545    0.727 
#    0.000    7.273    0.000    0.000    0.000    0.000 
#    0.000    0.000    0.000    0.000    0.000    0.000 
#
# Total GULP energy -122945.811334 kJ/mol
# GULP energy per Si atom -5588.445970 kJ/mol
# Density = 2.136030 g / cm^3
# Si number density = 21.409030 Si / 1000 Ang^3
#
#
#
# Elastic Constant Matrix: (Units=GPa)
#
#
# Indices 1 2 3 4 5 6 
#
# 1 154.6413 29.9697 32.2237 0.0000 9.6950 0.0000
# 2 29.9697 112.7253 6.9881 0.0000 11.6326 0.0000
# 3 32.2237 6.9881 54.9179 0.0000 10.0115 0.0000
# 4 0.0000 0.0000 0.0000 0.2783 0.0000 0.6564
# 5 9.6950 11.6326 10.0115 0.0000 40.2067 0.0000
# 6 0.0000 0.0000 0.0000 0.6564 0.0000 39.2345
#
#
#
# Elastic Compliance Matrix: (Units=1/GPa)
#
#
# Indices 1 2 3 4 5 6 
#
# 1 0.007710 -0.001756 -0.004247 0.000000 -0.000294 0.000000
# 2 -0.001756 0.009571 0.000252 0.000000 -0.002408 0.000000
# 3 -0.004247 0.000252 0.021470 0.000000 -0.004395 0.000000
# 4 0.000000 0.000000 0.000000 3.740370 0.000000 -0.062578
# 5 -0.000294 -0.002408 -0.004395 0.000000 0.026733 0.000000
# 6 0.000000 0.000000 0.000000 -0.062578 0.000000 0.026535
#
#
# Mechanical properties :
#
#
# Convention : Reuss Voigt Hill
#
# Bulk Modulus (GPa) = 36.69996 51.18304 43.94150
# Shear Modulus (GPa) = 1.29770 32.81745 17.05757
#
# Velocity S-wave (km/s) = 0.77940 3.91945 2.82573
# Velocity P-wave (km/s) = 4.24140 6.66647 5.58710
#
# Compressibility (1/GPa) = 0.02724799
#
# Stress axis : x y z
#
# Youngs Moduli (GPa) = 129.69554 104.48242 46.57618
#
# Poissons Ratio (x) = 0.18351 0.19782
# Poissons Ratio (y) = 0.22779 -0.01172
# Poissons Ratio (z) = 0.55084 -0.02630
#
# Static dielectric constant tensor:
#      x y z
#    x 1.804260 0.000000 -0.030850 
#    y 0.000000 1.762150 0.000000 
#    z -0.030850 0.000000 1.827290 
# 
# From -- ./inp_files/189330.got.cif
#   From: 2010.05.17/outbox.cif.g08.bks.cpg/sg15_95_cif.got.tgz:189330.got - 2010.06.03 18:47:42.
