data_PCOD9275772
_publ_section_title
;
Structure prediction by ZEFSAII (Michael W. Deem and Ramdas Pophale) SiO2 
 PCOD9275772
Probable space group: C 2/C
;
_chemical_formula_sum "Si O2"
_cell_formula_units_Z 64
_cell_length_a 15.533178
_cell_length_b 30.258434
_cell_length_c 9.424126
_cell_angle_alpha 90.000000
_cell_angle_beta 41.651830
_cell_angle_gamma 90.000000
_cell_volume 2943.809872
_symmetry_space_group_name_H-M "C 2/C"
_symmetry_group_IT_number 15
_symmetry_cell_setting 'monoclinic'
loop_
_space_group_symop_operation_xyz
x,y,z
-x,y,1/2-z
-x,-y,-z
x,-y,1/2+z
1/2+x,1/2+y,z
1/2-x,1/2+y,1/2-z
1/2-x,1/2-y,-z
1/2+x,1/2-y,1/2+z
loop_
_atom_site_type_symbol
_atom_site_label
_atom_site_fract_x
_atom_site_fract_y
_atom_site_fract_z
Si Si1 0.823795 0.031393 0.110191
Si Si2 0.611941 0.743627 0.520367
Si Si3 0.866787 0.104365 0.835770
Si Si4 0.457521 0.136898 0.637349
Si Si5 0.378721 0.225158 0.791889
Si Si6 0.943854 0.937243 0.970049
Si Si7 0.671304 0.820461 0.666751
Si Si8 0.532329 0.043138 0.547212
O O1 0.686745 0.048043 0.338385
O O2 0.935146 0.046743 0.081930
O O3 0.840414 0.056183 0.939025
O O4 0.847826 0.979019 0.063931
O O5 0.500000 0.720988 0.750000
O O6 0.569530 0.752162 0.414238
O O7 0.636009 0.789708 0.574882
O O8 0.737847 0.713418 0.359779
O O9 0.880018 0.098892 0.651051
O O10 0.000000 0.118307 0.750000
O O11 0.754641 0.138088 0.012845
O O12 0.500000 0.131095 0.750000
O O13 0.347096 0.174011 0.789327
O O14 0.561078 0.160415 0.405455
O O15 0.452402 0.086265 0.593821
O O16 0.500000 0.225206 0.750000
O O17 0.250000 0.250000 0.000000
O O18 0.000000 0.922472 0.750000
O O19 0.500000 0.000000 0.500000
O O20 0.500000 0.035010 0.750000
#
# Coordination Sequence:
#
# PCOD9275772 Si02
#       8
#     8   8   8   8   8   8   8   8
#     4  10  20  39  64  93 127 176 232 284 353 415
#     4  11  23  40  69 101 133 180 229 283 348 429
#     4  10  21  40  66  94 132 180 228 289 361 415
#     4  10  21  44  68  99 136 189 230 283 358 420
#     4  11  24  46  77 108 146 188 237 299 368 437
#     4  10  21  37  67  93 128 175 228 297 347 412
#     4  11  22  41  70  97 141 180 233 289 351 434
#     4  11  26  43  65  98 138 187 237 287 351 422
#
# _framework density 21.740535000000001
#
# number of rings (size 3 to 8) (size 9 to 14) (size 15 to 20)
#    0.000    1.500    2.500    3.750    5.250    0.000 
#    4.500    1.250    5.500    0.000    0.000    0.000 
#    0.000    0.000    0.000    0.000    0.000    0.000 
#
# Total GULP energy -178628.015292 kJ/mol
# GULP energy per Si atom -5582.125478 kJ/mol
# Density = 2.169105 g / cm^3
# Si number density = 21.740535 Si / 1000 Ang^3
#
#
#
# Elastic Constant Matrix: (Units=GPa)
#
#
# Indices 1 2 3 4 5 6 
#
# 1 51.0510 32.9256 26.1403 0.0000 12.6564 0.0000
# 2 32.9256 145.4374 54.2764 0.0000 0.1070 0.0000
# 3 26.1403 54.2764 134.6822 0.0000 21.3526 0.0000
# 4 0.0000 0.0000 0.0000 46.6019 0.0000 0.5799
# 5 12.6564 0.1070 21.3526 0.0000 41.6450 0.0000
# 6 0.0000 0.0000 0.0000 0.5799 0.0000 24.8978
#
#
#
# Elastic Compliance Matrix: (Units=1/GPa)
#
#
# Indices 1 2 3 4 5 6 
#
# 1 0.025486 -0.005086 -0.001819 0.000000 -0.006800 0.000000
# 2 -0.005086 0.009233 -0.003238 0.000000 0.003182 0.000000
# 3 -0.001819 -0.003238 0.009790 0.000000 -0.004458 0.000000
# 4 0.000000 0.000000 0.000000 0.021465 0.000000 -0.000500
# 5 -0.006800 0.003182 -0.004458 0.000000 0.028357 0.000000
# 6 0.000000 0.000000 0.000000 -0.000500 0.000000 0.040176
#
#
# Mechanical properties :
#
#
# Convention : Reuss Voigt Hill
#
# Bulk Modulus (GPa) = 41.28407 61.98392 51.63400
# Shear Modulus (GPa) = 30.69999 37.15083 33.92541
#
# Velocity S-wave (km/s) = 3.76188 4.13828 3.95456
# Velocity P-wave (km/s) = 6.15627 7.16983 6.68230
#
# Compressibility (1/GPa) = 0.02422242
#
# Stress axis : x y z
#
# Youngs Moduli (GPa) = 39.23795 108.30190 102.14681
#
# Poissons Ratio (x) = 0.55081 0.18579
# Poissons Ratio (y) = 0.19956 0.33080
# Poissons Ratio (z) = 0.07137 0.35073
#
# Static dielectric constant tensor:
#      x y z
#    x 1.771650 0.000000 -0.001810 
#    y 0.000000 1.821060 0.000000 
#    z -0.001810 0.000000 1.793000 
# 
# From -- ./inp_files/52795.got.cif
#   From: 2010.05.17/outbox.cif.g08.bks.cpg/sg15_27_cif.got.tgz:52795.got - 2010.06.03 18:47:42.
