data_PCOD9275341
_publ_section_title
;
Structure prediction by ZEFSAII (Michael W. Deem and Ramdas Pophale) SiO2 
 PCOD9275341
Probable space group: C 2/C
;
_chemical_formula_sum "Si O2"
_cell_formula_units_Z 64
_cell_length_a 23.820088
_cell_length_b 6.673921
_cell_length_c 18.814188
_cell_angle_alpha 90.000000
_cell_angle_beta 81.501775
_cell_angle_gamma 90.000000
_cell_volume 2958.115796
_symmetry_space_group_name_H-M "C 2/C"
_symmetry_group_IT_number 15
_symmetry_cell_setting 'monoclinic'
loop_
_space_group_symop_operation_xyz
x,y,z
-x,y,1/2-z
-x,-y,-z
x,-y,1/2+z
1/2+x,1/2+y,z
1/2-x,1/2+y,1/2-z
1/2-x,1/2-y,-z
1/2+x,1/2-y,1/2+z
loop_
_atom_site_type_symbol
_atom_site_label
_atom_site_fract_x
_atom_site_fract_y
_atom_site_fract_z
Si Si1 0.822530 0.629905 0.733877
Si Si2 0.568906 0.282305 0.104545
Si Si3 0.821953 0.043210 0.463727
Si Si4 0.286561 0.481204 0.822516
Si Si5 0.648310 0.311121 0.915251
Si Si6 0.443911 0.621933 0.589592
Si Si7 0.108629 0.252140 0.750379
Si Si8 0.615368 0.072810 0.505458
O O1 0.769279 0.507462 0.713745
O O2 0.808887 0.757374 0.805561
O O3 0.833806 0.788511 0.669036
O O4 0.873722 0.480586 0.738216
O O5 0.621342 0.425271 0.073196
O O6 0.511025 0.373651 0.085595
O O7 0.567960 0.267131 0.189994
O O8 0.582234 0.063042 0.069081
O O9 0.778453 0.997548 0.408636
O O10 0.838886 0.274479 0.469957
O O11 0.811220 0.948264 0.543250
O O12 0.334066 0.635306 0.784764
O O13 0.586531 0.416491 0.927743
O O14 0.643864 0.091823 0.949280
O O15 0.417228 0.671407 0.671806
O O16 0.424614 0.788863 0.536155
#
# Coordination Sequence:
#
# PCOD9275341 Si02
#       8
#     8   8   8   8   8   8   8   8
#     4  12  22  40  65  90 116 163 205 250 307 361
#     4  10  22  37  60  89 122 161 201 245 298 353
#     4   9  22  41  59  89 127 155 196 256 297 352
#     4  11  23  40  65  90 116 157 206 248 308 361
#     4  10  22  38  62  88 125 158 201 248 299 356
#     4  11  21  37  62  87 123 161 200 243 298 358
#     4  11  22  40  60  88 123 156 201 257 297 357
#     4  10  20  39  60  88 123 159 201 242 297 352
#
# _framework density 21.635394000000002
#
# number of rings (size 3 to 8) (size 9 to 14) (size 15 to 20)
#    0.000    1.500    3.750    1.500    0.000    6.000 
#    0.000    0.625    0.000    0.000    0.000    0.000 
#    0.000    0.000    0.000    0.000    0.000    0.000 
#
# Total GULP energy -178831.203794 kJ/mol
# GULP energy per Si atom -5588.475119 kJ/mol
# Density = 2.158615 g / cm^3
# Si number density = 21.635394 Si / 1000 Ang^3
#
#
#
# Elastic Constant Matrix: (Units=GPa)
#
#
# Indices 1 2 3 4 5 6 
#
# 1 33.7608 9.4638 3.9772 0.0000 -0.6066 0.0000
# 2 9.4638 92.6544 24.1056 0.0000 0.3809 0.0000
# 3 3.9772 24.1056 82.6770 0.0000 15.2629 0.0000
# 4 0.0000 0.0000 0.0000 24.5819 0.0000 -0.2358
# 5 -0.6066 0.3809 15.2629 0.0000 18.0701 0.0000
# 6 0.0000 0.0000 0.0000 -0.2358 0.0000 16.9303
#
#
#
# Elastic Compliance Matrix: (Units=1/GPa)
#
#
# Indices 1 2 3 4 5 6 
#
# 1 0.030577 -0.002874 -0.000988 0.000000 0.001921 0.000000
# 2 -0.002874 0.012099 -0.003939 0.000000 0.002975 0.000000
# 3 -0.000988 -0.003939 0.015736 0.000000 -0.013241 0.000000
# 4 0.000000 0.000000 0.000000 0.040686 0.000000 0.000567
# 5 0.001921 0.002975 -0.013241 0.000000 0.066526 0.000000
# 6 0.000000 0.000000 0.000000 0.000567 0.000000 0.059074
#
#
# Mechanical properties :
#
#
# Convention : Reuss Voigt Hill
#
# Bulk Modulus (GPa) = 23.35872 31.57617 27.46744
# Shear Modulus (GPa) = 19.64118 23.35283 21.49701
#
# Velocity S-wave (km/s) = 3.01628 3.28896 3.15557
# Velocity P-wave (km/s) = 4.79068 5.38975 5.09902
#
# Compressibility (1/GPa) = 0.04281057
#
# Stress axis : x y z
#
# Youngs Moduli (GPa) = 32.70468 82.65273 63.55031
#
# Poissons Ratio (x) = 0.23755 0.06276
# Poissons Ratio (y) = 0.09400 0.25030
# Poissons Ratio (z) = 0.03230 0.32553
#
# Static dielectric constant tensor:
#      x y z
#    x 1.771030 0.000000 -0.007740 
#    y 0.000000 1.764360 0.000000 
#    z -0.007740 0.000000 1.815520 
# 
# From -- ./inp_files/256562.got.cif
#   From: 2010.05.17/outbox.cif.g08.bks.cpg/sg15_129_cif.got.tgz:256562.got - 2010.06.03 18:47:42.
