data_PCOD9275097
_publ_section_title
;
Structure prediction by ZEFSAII (Michael W. Deem and Ramdas Pophale) SiO2 
 PCOD9275097
Probable space group: C 2/C
;
_chemical_formula_sum "Si O2"
_cell_formula_units_Z 44
_cell_length_a 7.879070
_cell_length_b 12.429831
_cell_length_c 24.025159
_cell_angle_alpha 90.000000
_cell_angle_beta 58.657394
_cell_angle_gamma 90.000000
_cell_volume 2009.560454
_symmetry_space_group_name_H-M "C 2/C"
_symmetry_group_IT_number 15
_symmetry_cell_setting 'monoclinic'
loop_
_space_group_symop_operation_xyz
x,y,z
-x,y,1/2-z
-x,-y,-z
x,-y,1/2+z
1/2+x,1/2+y,z
1/2-x,1/2+y,1/2-z
1/2-x,1/2-y,-z
1/2+x,1/2-y,1/2+z
loop_
_atom_site_type_symbol
_atom_site_label
_atom_site_fract_x
_atom_site_fract_y
_atom_site_fract_z
Si Si1 0.766566 0.614300 0.299242
Si Si2 0.666938 0.697649 0.431766
Si Si3 0.251384 0.376724 0.014665
Si Si4 0.292471 0.384845 0.134697
Si Si5 0.760573 0.602599 0.526048
Si Si6 0.000000 0.221327 0.250000
O O1 0.730325 0.690446 0.358219
O O2 0.725125 0.493382 0.326772
O O3 0.625292 0.650706 0.272924
O O4 0.000000 0.621660 0.250000
O O5 0.491927 0.612481 0.469597
O O6 0.807612 0.654840 0.457370
O O7 0.616483 0.822219 0.453038
O O8 0.195514 0.476889 0.985122
O O9 0.250000 0.250000 0.000000
O O10 0.198873 0.393443 0.088461
O O11 0.530876 0.371837 0.083578
O O12 0.165093 0.293900 0.188998
#
# Coordination Sequence:
#
# PCOD9275097 Si02
#       6
#     8   8   8   8   8   4
#     4  12  24  47  71  96 141 185 227 289 340 401
#     4  10  20  40  65  92 128 175 219 279 340 399
#     4  11  21  38  65  97 135 172 220 284 349 410
#     4  11  22  44  66  95 139 175 224 290 335 404
#     4  10  20  38  68  97 127 174 221 274 352 408
#     4  12  28  46  66 100 134 188 238 270 344 412
#
# _framework density 21.895336
#
# number of rings (size 3 to 8) (size 9 to 14) (size 15 to 20)
#    0.000    1.091    4.545    3.273    0.000    0.727 
#    4.909    0.000    0.000    0.000    0.000    0.000 
#    0.000    0.000    0.000    0.000    0.000    0.000 
#
# Total GULP energy -122601.852793 kJ/mol
# GULP energy per Si atom -5572.811491 kJ/mol
# Density = 2.184550 g / cm^3
# Si number density = 21.895336 Si / 1000 Ang^3
#
#
#
# Elastic Constant Matrix: (Units=GPa)
#
#
# Indices 1 2 3 4 5 6 
#
# 1 99.6393 75.0425 61.6626 0.0000 7.0731 0.0000
# 2 75.0425 194.9775 64.1504 0.0000 9.3044 0.0000
# 3 61.6626 64.1504 138.4394 0.0000 13.1947 0.0000
# 4 0.0000 0.0000 0.0000 39.4163 0.0000 16.4861
# 5 7.0731 9.3044 13.1947 0.0000 27.6393 0.0000
# 6 0.0000 0.0000 0.0000 16.4861 0.0000 33.6325
#
#
#
# Elastic Compliance Matrix: (Units=1/GPa)
#
#
# Indices 1 2 3 4 5 6 
#
# 1 0.016919 -0.004754 -0.005315 0.000000 -0.000192 0.000000
# 2 -0.004754 0.007401 -0.001247 0.000000 -0.000679 0.000000
# 3 -0.005315 -0.001247 0.010476 0.000000 -0.003221 0.000000
# 4 0.000000 0.000000 0.000000 0.031913 0.000000 -0.015643
# 5 -0.000192 -0.000679 -0.003221 0.000000 0.037996 0.000000
# 6 0.000000 0.000000 0.000000 -0.015643 0.000000 0.037401
#
#
# Mechanical properties :
#
#
# Convention : Reuss Voigt Hill
#
# Bulk Modulus (GPa) = 82.21063 92.75189 87.48126
# Shear Modulus (GPa) = 29.62185 35.61765 32.61975
#
# Velocity S-wave (km/s) = 3.68215 4.03764 3.86398
# Velocity P-wave (km/s) = 7.46366 8.01188 7.74262
#
# Compressibility (1/GPa) = 0.01216388
#
# Stress axis : x y z
#
# Youngs Moduli (GPa) = 59.10342 135.11009 95.45914
#
# Poissons Ratio (x) = 0.64233 0.50735
# Poissons Ratio (y) = 0.28098 0.11907
# Poissons Ratio (z) = 0.31413 0.16853
#
# Static dielectric constant tensor:
#      x y z
#    x 2.084000 0.000000 0.017460 
#    y 0.000000 1.835070 0.000000 
#    z 0.017460 0.000000 1.820720 
# 
# From -- ./inp_files/230150.got.cif
#   From: 2010.05.17/outbox.cif.g08.bks.cpg/sg15_116_cif.got.tgz:230150.got - 2010.06.03 18:47:42.
