data_PCOD9275111
_publ_section_title
;
Structure prediction by ZEFSAII (Michael W. Deem and Ramdas Pophale) SiO2 
 PCOD9275111
Probable space group: C 2/C
;
_chemical_formula_sum "Si O2"
_cell_formula_units_Z 56
_cell_length_a 9.780883
_cell_length_b 27.646664
_cell_length_c 11.109104
_cell_angle_alpha 90.000000
_cell_angle_beta 103.228771
_cell_angle_gamma 90.000000
_cell_volume 2924.285542
_symmetry_space_group_name_H-M "C 2/C"
_symmetry_group_IT_number 15
_symmetry_cell_setting 'monoclinic'
loop_
_space_group_symop_operation_xyz
x,y,z
-x,y,1/2-z
-x,-y,-z
x,-y,1/2+z
1/2+x,1/2+y,z
1/2-x,1/2+y,1/2-z
1/2-x,1/2-y,-z
1/2+x,1/2-y,1/2+z
loop_
_atom_site_type_symbol
_atom_site_label
_atom_site_fract_x
_atom_site_fract_y
_atom_site_fract_z
Si Si1 0.165484 0.377906 0.277531
Si Si2 0.142371 0.816519 0.316246
Si Si3 0.267968 0.308093 0.512693
Si Si4 0.942151 0.067169 0.376203
Si Si5 0.403604 0.325652 0.921312
Si Si6 0.353656 0.789012 0.777319
Si Si7 0.608019 0.459615 0.156126
O O1 0.218782 0.347475 0.173381
O O2 0.219534 0.342760 0.395762
O O3 0.256050 0.426680 0.296198
O O4 0.000000 0.384801 0.250000
O O5 0.122744 0.805123 0.450992
O O6 0.140477 0.769640 0.229751
O O7 0.000000 0.845054 0.250000
O O8 0.250000 0.250000 0.500000
O O9 0.431630 0.318549 0.573319
O O10 0.164338 0.316906 0.602378
O O11 0.871713 0.117382 0.400974
O O12 0.000000 0.075014 0.250000
O O13 0.044786 0.056893 0.512691
O O14 0.858814 0.016741 0.348840
O O15 0.292970 0.298757 0.817279
O O16 0.500000 0.804995 0.750000
O O17 0.500000 0.455718 0.250000
#
# Coordination Sequence:
#
# PCOD9275111 Si02
#       7
#     8   8   8   8   8   8   8
#     4  12  25  38  64  93 130 167 215 265 330 384
#     4  11  21  42  60  87 123 171 219 254 304 389
#     4  12  23  40  60  89 126 168 213 264 308 380
#     4  10  20  38  68  99 120 162 217 278 323 383
#     4  12  23  39  67  90 127 164 217 262 321 384
#     4  11  25  39  56  88 127 170 209 258 318 379
#     4  10  21  42  68  93 126 163 220 269 327 396
#
# _framework density 19.149977
#
# number of rings (size 3 to 8) (size 9 to 14) (size 15 to 20)
#    0.000    0.857    4.286    3.857    4.000    0.000 
#    0.000    0.714    0.000   12.000    0.000    0.000 
#    0.000    0.000    0.000    0.000    0.000    0.000 
#
# Total GULP energy -155957.613209 kJ/mol
# GULP energy per Si atom -5569.914757 kJ/mol
# Density = 1.910639 g / cm^3
# Si number density = 19.149977 Si / 1000 Ang^3
#
#
#
# Elastic Constant Matrix: (Units=GPa)
#
#
# Indices 1 2 3 4 5 6 
#
# 1 140.8621 44.9032 23.1153 0.0000 4.2024 0.0000
# 2 44.9032 102.2577 10.8861 0.0000 13.7302 0.0000
# 3 23.1153 10.8861 57.6176 0.0000 -10.5769 0.0000
# 4 0.0000 0.0000 0.0000 20.8558 0.0000 1.5835
# 5 4.2024 13.7302 -10.5769 0.0000 32.9025 0.0000
# 6 0.0000 0.0000 0.0000 1.5835 0.0000 3.6919
#
#
#
# Elastic Compliance Matrix: (Units=1/GPa)
#
#
# Indices 1 2 3 4 5 6 
#
# 1 0.008693 -0.003417 -0.002958 0.000000 -0.000635 0.000000
# 2 -0.003417 0.012188 -0.001897 0.000000 -0.005259 0.000000
# 3 -0.002958 -0.001897 0.020315 0.000000 0.007700 0.000000
# 4 0.000000 0.000000 0.000000 0.049563 0.000000 -0.021259
# 5 -0.000635 -0.005259 0.007700 0.000000 0.035144 0.000000
# 6 0.000000 0.000000 0.000000 -0.021259 0.000000 0.279985
#
#
# Mechanical properties :
#
#
# Convention : Reuss Voigt Hill
#
# Bulk Modulus (GPa) = 40.56840 50.94962 45.75901
# Shear Modulus (GPa) = 11.61039 26.27888 18.94463
#
# Velocity S-wave (km/s) = 2.46496 3.70843 3.14869
# Velocity P-wave (km/s) = 5.41590 6.70820 6.09639
#
# Compressibility (1/GPa) = 0.02464973
#
# Stress axis : x y z
#
# Youngs Moduli (GPa) = 115.03773 82.04917 49.22547
#
# Poissons Ratio (x) = 0.28035 0.14563
# Poissons Ratio (y) = 0.39307 0.09340
# Poissons Ratio (z) = 0.34034 0.15568
#
# Static dielectric constant tensor:
#      x y z
#    x 1.598860 0.000000 -0.090030 
#    y 0.000000 1.683060 0.000000 
#    z -0.090030 0.000000 1.823230 
# 
# From -- ./inp_files/82269.got.cif
#   From: 2010.05.17/outbox.cif.g08.bks.cpg/sg15_42_cif.got.tgz:82269.got - 2010.06.03 18:47:42.
