data_PCOD9275754
_publ_section_title
;
Structure prediction by ZEFSAII (Michael W. Deem and Ramdas Pophale) SiO2 
 PCOD9275754
Probable space group: C 2/C
;
_chemical_formula_sum "Si O2"
_cell_formula_units_Z 52
_cell_length_a 6.723074
_cell_length_b 13.526381
_cell_length_c 29.429328
_cell_angle_alpha 90.000000
_cell_angle_beta 59.063960
_cell_angle_gamma 90.000000
_cell_volume 2295.548021
_symmetry_space_group_name_H-M "C 2/C"
_symmetry_group_IT_number 15
_symmetry_cell_setting 'monoclinic'
loop_
_space_group_symop_operation_xyz
x,y,z
-x,y,1/2-z
-x,-y,-z
x,-y,1/2+z
1/2+x,1/2+y,z
1/2-x,1/2+y,1/2-z
1/2-x,1/2-y,-z
1/2+x,1/2-y,1/2+z
loop_
_atom_site_type_symbol
_atom_site_label
_atom_site_fract_x
_atom_site_fract_y
_atom_site_fract_z
Si Si1 0.844500 0.879633 0.634559
Si Si2 0.767484 0.258970 0.390068
Si Si3 0.166953 0.061511 0.624664
Si Si4 0.500000 0.180848 0.250000
Si Si5 0.243916 0.828965 0.288481
Si Si6 0.926710 0.572512 0.423053
Si Si7 0.649723 0.352599 0.031072
O O1 0.648601 0.879906 0.696236
O O2 0.732696 0.892456 0.599026
O O3 0.982785 0.776355 0.622778
O O4 0.017059 0.970383 0.622366
O O5 0.766677 0.288346 0.337306
O O6 0.607699 0.161115 0.411455
O O7 0.629279 0.341030 0.435308
O O8 0.209899 0.132663 0.576746
O O9 0.992098 0.106711 0.682059
O O10 0.413274 0.018854 0.610750
O O11 0.681144 0.245866 0.258632
O O12 0.500000 0.873758 0.250000
O O13 0.767314 0.563138 0.486571
O O14 0.750000 0.250000 0.000000
#
# Coordination Sequence:
#
# PCOD9275754 Si02
#       7
#     8   8   8   4   8   8   8
#     4  11  23  39  63  93 126 164 218 269 323 389
#     4   9  19  39  61  92 124 163 212 266 316 391
#     4  10  24  41  61  95 131 163 212 268 325 389
#     4  12  24  40  66  90 120 174 212 260 336 386
#     4  11  22  41  63  89 123 167 217 269 322 392
#     4  10  20  39  64  91 129 168 206 261 329 390
#     4   9  19  39  68  91 128 171 211 262 328 385
#
# _framework density 22.652543999999999
#
# number of rings (size 3 to 8) (size 9 to 14) (size 15 to 20)
#    0.000    1.846    3.077    0.462    1.077    2.462 
#    0.000    0.000    0.000    0.000    0.000    0.000 
#    0.000    0.000    0.000    0.000    0.000    0.000 
#
# Total GULP energy -145165.245705 kJ/mol
# GULP energy per Si atom -5583.278681 kJ/mol
# Density = 2.260099 g / cm^3
# Si number density = 22.652544 Si / 1000 Ang^3
#
#
#
# Elastic Constant Matrix: (Units=GPa)
#
#
# Indices 1 2 3 4 5 6 
#
# 1 83.2587 3.5846 20.6019 0.0003 -9.2584 -0.0001
# 2 3.5846 32.9677 8.4651 0.0000 -8.3393 0.0000
# 3 20.6019 8.4651 115.0780 -0.0004 -12.9608 -0.0001
# 4 0.0003 0.0000 -0.0004 23.0155 -0.0001 -20.2117
# 5 -9.2584 -8.3393 -12.9608 -0.0001 24.5487 0.0001
# 6 -0.0001 0.0000 -0.0001 -20.2117 0.0001 25.9836
#
#
#
# Elastic Compliance Matrix: (Units=1/GPa)
#
#
# Indices 1 2 3 4 5 6 
#
# 1 0.012906 0.000065 -0.001876 -0.000001 0.003899 0.000000
# 2 0.000065 0.033353 -0.001261 0.000000 0.010689 0.000000
# 3 -0.001876 -0.001261 0.009559 0.000001 0.003911 0.000000
# 4 -0.000001 0.000000 0.000001 0.137107 0.000000 0.106650
# 5 0.003899 0.010689 0.003911 0.000000 0.047902 0.000000
# 6 0.000000 0.000000 0.000000 0.106650 0.000000 0.121445
#
#
# Mechanical properties :
#
#
# Convention : Reuss Voigt Hill
#
# Bulk Modulus (GPa) = 20.13179 32.95640 26.54409
# Shear Modulus (GPa) = 12.98788 27.95308 20.47048
#
# Velocity S-wave (km/s) = 2.39707 3.51663 3.00938
# Velocity P-wave (km/s) = 4.07036 5.57397 4.88042
#
# Compressibility (1/GPa) = 0.04967268
#
# Stress axis : x y z
#
# Youngs Moduli (GPa) = 77.48484 29.98204 104.61501
#
# Poissons Ratio (x) = -0.00194 0.19627
# Poissons Ratio (y) = -0.00501 0.13194
# Poissons Ratio (z) = 0.14537 0.03781
#
# Static dielectric constant tensor:
#      x y z
#    x 1.827750 0.000000 -0.050550 
#    y 0.000000 1.926130 0.000000 
#    z -0.050550 0.000000 1.856440 
# 
# From -- ./inp_files/305597.got.cif
#   From: 2010.05.17/outbox.cif.g08.bks.cpg/sg15_153_cif.got.tgz:305597.got - 2010.06.03 18:47:42.
