data_PCOD9275745
_publ_section_title
;
Structure prediction by ZEFSAII (Michael W. Deem and Ramdas Pophale) SiO2 
 PCOD9275745
Probable space group: C 2/C
;
_chemical_formula_sum "Si O2"
_cell_formula_units_Z 64
_cell_length_a 9.760846
_cell_length_b 15.268742
_cell_length_c 22.886697
_cell_angle_alpha 90.000000
_cell_angle_beta 98.803398
_cell_angle_gamma 90.000000
_cell_volume 3370.754880
_symmetry_space_group_name_H-M "C 2/C"
_symmetry_group_IT_number 15
_symmetry_cell_setting 'monoclinic'
loop_
_space_group_symop_operation_xyz
x,y,z
-x,y,1/2-z
-x,-y,-z
x,-y,1/2+z
1/2+x,1/2+y,z
1/2-x,1/2+y,1/2-z
1/2-x,1/2-y,-z
1/2+x,1/2-y,1/2+z
loop_
_atom_site_type_symbol
_atom_site_label
_atom_site_fract_x
_atom_site_fract_y
_atom_site_fract_z
Si Si1 0.228706 0.157291 0.234075
Si Si2 0.236861 0.283597 0.564523
Si Si3 0.355352 0.659939 0.708766
Si Si4 0.068266 0.864349 0.840522
Si Si5 0.799728 0.905838 0.403319
Si Si6 0.892326 0.950190 0.103072
Si Si7 0.846594 0.461418 0.985205
Si Si8 0.161151 0.462800 0.272170
O O1 0.315552 0.240053 0.218742
O O2 0.169762 0.168123 0.295813
O O3 0.307387 0.065323 0.235296
O O4 0.089308 0.150532 0.186613
O O5 0.250000 0.250000 0.500000
O O6 0.385289 0.313574 0.598820
O O7 0.186831 0.199864 0.597232
O O8 0.150336 0.373408 0.554835
O O9 0.500000 0.640520 0.750000
O O10 0.365411 0.634024 0.641598
O O11 0.243844 0.596893 0.731798
O O12 0.093828 0.966976 0.852237
O O13 0.714126 0.934563 0.455242
O O14 0.956382 0.942332 0.416254
O O15 0.719077 0.937393 0.340152
O O16 0.765928 0.973649 0.051853
O O17 0.000000 0.500000 0.000000
O O18 0.000000 0.446066 0.250000
#
# Coordination Sequence:
#
# PCOD9275745 Si02
#       8
#     8   8   8   8   8   8   8   8
#     4  11  23  39  61  93 133 168 219 265 332 389
#     4   9  21  39  63  91 127 165 216 265 323 386
#     4  12  24  41  62  92 132 173 216 265 332 397
#     4  10  20  39  64  90 126 178 209 262 332 397
#     4  11  22  43  67  94 127 169 222 262 327 396
#     4  11  22  43  66  89 129 176 214 262 327 399
#     4  10  24  43  68  96 127 167 216 276 331 383
#     4  12  26  41  65 100 134 170 219 277 324 393
#
# _framework density 18.986844000000001
#
# number of rings (size 3 to 8) (size 9 to 14) (size 15 to 20)
#    0.000    1.250    3.750    1.500    5.250    1.000 
#    2.250    0.625    0.000    0.000    0.000    0.000 
#    0.000    0.000    0.000    0.000    0.000    0.000 
#
# Total GULP energy -178664.216721 kJ/mol
# GULP energy per Si atom -5583.256773 kJ/mol
# Density = 1.894363 g / cm^3
# Si number density = 18.986844 Si / 1000 Ang^3
#
#
#
# Elastic Constant Matrix: (Units=GPa)
#
#
# Indices 1 2 3 4 5 6 
#
# 1 154.6093 49.2398 47.8517 0.0000 14.1499 0.0000
# 2 49.2398 95.6185 15.8454 0.0000 1.9245 0.0000
# 3 47.8517 15.8454 49.8713 0.0000 5.6085 0.0000
# 4 0.0000 0.0000 0.0000 26.7345 0.0000 -5.6605
# 5 14.1499 1.9245 5.6085 0.0000 27.3293 0.0000
# 6 0.0000 0.0000 0.0000 -5.6605 0.0000 22.3604
#
#
#
# Elastic Compliance Matrix: (Units=1/GPa)
#
#
# Indices 1 2 3 4 5 6 
#
# 1 0.010746 -0.004032 -0.008635 0.000000 -0.003508 0.000000
# 2 -0.004032 0.012552 -0.000261 0.000000 0.001257 0.000000
# 3 -0.008635 -0.000261 0.028574 0.000000 -0.001375 0.000000
# 4 0.000000 0.000000 0.000000 0.039523 0.000000 0.010005
# 5 -0.003508 0.001257 -0.001375 0.000000 0.038601 0.000000
# 6 0.000000 0.000000 0.000000 0.010005 0.000000 0.047255
#
#
# Mechanical properties :
#
#
# Convention : Reuss Voigt Hill
#
# Bulk Modulus (GPa) = 38.43672 58.44143 48.43908
# Shear Modulus (GPa) = 23.60957 27.76232 25.68594
#
# Velocity S-wave (km/s) = 3.53011 3.82800 3.68207
# Velocity P-wave (km/s) = 6.07482 7.09823 6.60637
#
# Compressibility (1/GPa) = 0.02601679
#
# Stress axis : x y z
#
# Youngs Moduli (GPa) = 93.06192 79.66548 34.99653
#
# Poissons Ratio (x) = 0.32121 0.30219
# Poissons Ratio (y) = 0.37523 0.00913
# Poissons Ratio (z) = 0.80357 0.02078
#
# Static dielectric constant tensor:
#      x y z
#    x 1.571650 0.000000 -0.048840 
#    y 0.000000 1.682570 0.000000 
#    z -0.048840 0.000000 1.634060 
# 
# From -- ./inp_files/264717.got.cif
#   From: 2010.05.17/outbox.cif.g08.bks.cpg/sg15_133_cif.got.tgz:264717.got - 2010.06.03 18:47:42.
