data_PCOD9275126
_publ_section_title
;
Structure prediction by ZEFSAII (Michael W. Deem and Ramdas Pophale) SiO2 
 PCOD9275126
Probable space group: C 2/C
;
_chemical_formula_sum "Si O2"
_cell_formula_units_Z 48
_cell_length_a 12.006310
_cell_length_b 15.290154
_cell_length_c 19.598579
_cell_angle_alpha 90.000000
_cell_angle_beta 139.197430
_cell_angle_gamma 90.000000
_cell_volume 2351.047415
_symmetry_space_group_name_H-M "C 2/C"
_symmetry_group_IT_number 15
_symmetry_cell_setting 'monoclinic'
loop_
_space_group_symop_operation_xyz
x,y,z
-x,y,1/2-z
-x,-y,-z
x,-y,1/2+z
1/2+x,1/2+y,z
1/2-x,1/2+y,1/2-z
1/2-x,1/2-y,-z
1/2+x,1/2-y,1/2+z
loop_
_atom_site_type_symbol
_atom_site_label
_atom_site_fract_x
_atom_site_fract_y
_atom_site_fract_z
Si Si1 0.321404 0.012389 0.490897
Si Si2 0.721726 0.155235 0.140975
Si Si3 0.890284 0.324074 0.560487
Si Si4 0.144677 0.562385 0.733159
Si Si5 0.449921 0.481384 0.806365
Si Si6 0.000000 0.418054 0.750000
Si Si7 0.000000 0.280963 0.250000
O O1 0.338870 0.073431 0.432785
O O2 0.482930 0.035955 0.611810
O O3 0.128857 0.030563 0.427704
O O4 0.323913 0.907707 0.486580
O O5 0.564205 0.202546 0.102971
O O6 0.840078 0.107954 0.252482
O O7 0.845984 0.217748 0.155713
O O8 0.750000 0.250000 0.500000
O O9 0.937773 0.360226 0.657759
O O10 0.322776 0.554140 0.776657
O O11 0.092165 0.655337 0.739253
O O12 0.144115 0.486480 0.790767
O O13 0.500000 0.499199 0.750000
#
# Coordination Sequence:
#
# PCOD9275126 Si02
#       7
#     8   8   8   8   8   4   4
#     4  10  21  41  68  91 121 177 218 253 335 396
#     4  11  21  43  63  91 137 165 216 277 314 396
#     4  11  24  42  64 100 129 172 226 270 328 391
#     4  10  22  42  66  91 135 173 212 270 332 391
#     4  10  20  38  69  91 122 175 215 263 328 395
#     4   9  20  46  63  84 140 176 197 278 340 373
#     4  11  24  42  59  98 132 168 215 272 330 369
#
# _framework density 20.416432
#
# number of rings (size 3 to 8) (size 9 to 14) (size 15 to 20)
#    0.000    1.667    5.833    0.500    4.667    0.667 
#   10.500    2.500    0.000    0.000    0.000    0.000 
#    0.000    0.000    0.000    0.000    0.000    0.000 
#
# Total GULP energy -133738.606910 kJ/mol
# GULP energy per Si atom -5572.441955 kJ/mol
# Density = 2.036996 g / cm^3
# Si number density = 20.416432 Si / 1000 Ang^3
#
#
#
# Elastic Constant Matrix: (Units=GPa)
#
#
# Indices 1 2 3 4 5 6 
#
# 1 132.0189 48.6241 37.7353 0.0000 31.2883 0.0000
# 2 48.6241 106.8724 22.5422 0.0000 10.3800 0.0000
# 3 37.7353 22.5422 67.3765 0.0000 23.8638 0.0000
# 4 0.0000 0.0000 0.0000 23.8216 0.0000 9.4127
# 5 31.2883 10.3800 23.8638 0.0000 32.4596 0.0000
# 6 0.0000 0.0000 0.0000 9.4127 0.0000 36.9296
#
#
#
# Elastic Compliance Matrix: (Units=1/GPa)
#
#
# Indices 1 2 3 4 5 6 
#
# 1 0.011670 -0.004029 -0.002245 0.000000 -0.008310 0.000000
# 2 -0.004029 0.011483 -0.002245 0.000000 0.001862 0.000000
# 3 -0.002245 -0.002245 0.021403 0.000000 -0.012854 0.000000
# 4 0.000000 0.000000 0.000000 0.046680 0.000000 -0.011898
# 5 -0.008310 0.001862 -0.012854 0.000000 0.047672 0.000000
# 6 0.000000 0.000000 0.000000 -0.011898 0.000000 0.030111
#
#
# Mechanical properties :
#
#
# Convention : Reuss Voigt Hill
#
# Bulk Modulus (GPa) = 36.33910 58.23011 47.28461
# Shear Modulus (GPa) = 25.61124 31.79991 28.70558
#
# Velocity S-wave (km/s) = 3.54565 3.95088 3.75374
# Velocity P-wave (km/s) = 5.88216 7.02821 6.48057
#
# Compressibility (1/GPa) = 0.02751857
#
# Stress axis : x y z
#
# Youngs Moduli (GPa) = 85.69316 87.08831 46.72325
#
# Poissons Ratio (x) = 0.35086 0.10487
# Poissons Ratio (y) = 0.34524 0.10488
# Poissons Ratio (z) = 0.19234 0.19549
#
# Static dielectric constant tensor:
#      x y z
#    x 1.797960 0.000000 -0.006130 
#    y 0.000000 1.756470 0.000000 
#    z -0.006130 0.000000 1.770860 
# 
# From -- ./inp_files/143772.got.cif
#   From: 2010.05.17/outbox.cif.g08.bks.cpg/sg15_72_cif.got.tgz:143772.got - 2010.06.03 18:47:42.
