data_PCOD9275308
_publ_section_title
;
Structure prediction by ZEFSAII (Michael W. Deem and Ramdas Pophale) SiO2 
 PCOD9275308
Probable space group: C 2/C
;
_chemical_formula_sum "Si O2"
_cell_formula_units_Z 56
_cell_length_a 24.252549
_cell_length_b 6.673248
_cell_length_c 18.957581
_cell_angle_alpha 90.000000
_cell_angle_beta 64.351364
_cell_angle_gamma 90.000000
_cell_volume 2765.837425
_symmetry_space_group_name_H-M "C 2/C"
_symmetry_group_IT_number 15
_symmetry_cell_setting 'monoclinic'
loop_
_space_group_symop_operation_xyz
x,y,z
-x,y,1/2-z
-x,-y,-z
x,-y,1/2+z
1/2+x,1/2+y,z
1/2-x,1/2+y,1/2-z
1/2-x,1/2-y,-z
1/2+x,1/2-y,1/2+z
loop_
_atom_site_type_symbol
_atom_site_label
_atom_site_fract_x
_atom_site_fract_y
_atom_site_fract_z
Si Si1 0.618424 0.017554 0.951209
Si Si2 0.061036 0.127453 0.033006
Si Si3 0.220652 0.617022 0.117434
Si Si4 0.756866 0.718632 0.139069
Si Si5 0.573534 0.632157 0.385728
Si Si6 0.154272 0.164284 0.526898
Si Si7 0.820152 0.888968 0.240112
O O1 0.605873 0.155203 0.888814
O O2 0.684743 0.908968 0.918767
O O3 0.611494 0.158200 0.023071
O O4 0.572425 0.836087 0.987241
O O5 0.995165 0.144689 0.105773
O O6 0.116315 0.042081 0.051053
O O7 0.063928 0.969101 0.967469
O O8 0.221128 0.375608 0.109281
O O9 0.186738 0.753847 0.078473
O O10 0.190494 0.689007 0.207508
O O11 0.293093 0.654054 0.062934
O O12 0.784106 0.852793 0.187459
O O13 0.711273 0.559670 0.196532
O O14 0.614807 0.480253 0.317849
#
# Coordination Sequence:
#
# PCOD9275308 Si02
#       7
#     8   8   8   8   8   8   8
#     4  11  19  36  60  88 119 150 196 250 297 358
#     4  10  20  39  60  82 119 154 196 248 292 348
#     4  11  23  37  57  86 117 153 197 243 302 362
#     4  12  21  34  58  88 121 150 187 249 309 363
#     4  10  22  35  58  91 114 154 199 239 300 360
#     4  10  22  39  57  84 115 155 203 241 293 361
#     4  12  22  36  56  86 121 150 189 243 312 365
#
# _framework density 20.247033999999999
#
# number of rings (size 3 to 8) (size 9 to 14) (size 15 to 20)
#    0.000    1.143    5.714    2.143    0.000    1.714 
#    0.000    0.714    0.000    0.000    0.000    0.000 
#    0.000    0.000    0.000    0.000    0.000    0.000 
#
# Total GULP energy -155923.648280 kJ/mol
# GULP energy per Si atom -5568.701724 kJ/mol
# Density = 2.020095 g / cm^3
# Si number density = 20.247034 Si / 1000 Ang^3
#
#
#
# Elastic Constant Matrix: (Units=GPa)
#
#
# Indices 1 2 3 4 5 6 
#
# 1 70.0462 25.1237 23.4533 0.0001 -19.5512 0.0011
# 2 25.1237 102.2134 13.1653 0.0000 -7.6697 0.0008
# 3 23.4533 13.1653 47.5907 0.0003 -17.0275 -0.0007
# 4 0.0001 0.0000 0.0003 25.3880 -0.0009 3.7030
# 5 -19.5512 -7.6697 -17.0275 -0.0009 30.8040 -0.0003
# 6 0.0011 0.0008 -0.0007 3.7030 -0.0003 18.5034
#
#
#
# Elastic Compliance Matrix: (Units=1/GPa)
#
#
# Indices 1 2 3 4 5 6 
#
# 1 0.019841 -0.003495 -0.005755 0.000001 0.008542 -0.000001
# 2 -0.003495 0.010797 -0.001367 0.000000 -0.000285 0.000000
# 3 -0.005755 -0.001367 0.028419 0.000000 0.011716 0.000002
# 4 0.000001 0.000000 0.000000 0.040573 0.000001 -0.008120
# 5 0.008542 -0.000285 0.011716 0.000001 0.044290 0.000000
# 6 -0.000001 0.000000 0.000002 -0.008120 0.000000 0.055669
#
#
# Mechanical properties :
#
#
# Convention : Reuss Voigt Hill
#
# Bulk Modulus (GPa) = 26.43834 38.14832 32.29333
# Shear Modulus (GPa) = 21.41981 25.47960 23.44970
#
# Velocity S-wave (km/s) = 3.25610 3.55129 3.40690
# Velocity P-wave (km/s) = 5.21752 5.97477 5.60894
#
# Compressibility (1/GPa) = 0.03782386
#
# Stress axis : x y z
#
# Youngs Moduli (GPa) = 50.40127 92.61781 35.18831
#
# Poissons Ratio (x) = 0.32366 0.20251
# Poissons Ratio (y) = 0.17613 0.04809
# Poissons Ratio (z) = 0.29005 0.12658
#
# Static dielectric constant tensor:
#      x y z
#    x 1.827400 0.000000 0.015590 
#    y 0.000000 1.829800 0.000000 
#    z 0.015590 0.000000 1.737430 
# 
# From -- ./inp_files/254328.got.cif
#   From: 2010.05.17/outbox.cif.g08.bks.cpg/sg15_128_cif.got.tgz:254328.got - 2010.06.03 18:47:42.
