data_PCOD9275057
_publ_section_title
;
Structure prediction by ZEFSAII (Michael W. Deem and Ramdas Pophale) SiO2 
 PCOD9275057
Probable space group: C 2/C
;
_chemical_formula_sum "Si O2"
_cell_formula_units_Z 64
_cell_length_a 14.926043
_cell_length_b 13.366341
_cell_length_c 17.745859
_cell_angle_alpha 90.000000
_cell_angle_beta 60.669629
_cell_angle_gamma 90.000000
_cell_volume 3086.568849
_symmetry_space_group_name_H-M "C 2/C"
_symmetry_group_IT_number 15
_symmetry_cell_setting 'monoclinic'
loop_
_space_group_symop_operation_xyz
x,y,z
-x,y,1/2-z
-x,-y,-z
x,-y,1/2+z
1/2+x,1/2+y,z
1/2-x,1/2+y,1/2-z
1/2-x,1/2-y,-z
1/2+x,1/2-y,1/2+z
loop_
_atom_site_type_symbol
_atom_site_label
_atom_site_fract_x
_atom_site_fract_y
_atom_site_fract_z
Si Si1 0.884996 0.562797 0.627234
Si Si2 0.898869 0.259389 0.001360
Si Si3 0.935830 0.899753 0.016665
Si Si4 0.294831 0.922784 0.550053
Si Si5 0.707062 0.891163 0.565811
Si Si6 0.428287 0.371596 0.843120
Si Si7 0.571858 0.846640 0.126446
Si Si8 0.718519 0.947791 0.179139
O O1 0.880265 0.661438 0.576739
O O2 0.873417 0.466248 0.579243
O O3 0.795450 0.557748 0.726162
O O4 0.990211 0.572979 0.630529
O O5 0.806282 0.179587 0.031899
O O6 0.886380 0.326010 0.930415
O O7 0.000260 0.195551 0.978707
O O8 0.828551 0.911394 0.104232
O O9 0.922652 0.902935 0.932176
O O10 0.000000 0.000000 0.000000
O O11 0.191107 0.882144 0.630519
O O12 0.346409 0.840097 0.475674
O O13 0.275432 0.017868 0.501549
O O14 0.695623 0.944064 0.651231
O O15 0.500000 0.421342 0.750000
O O16 0.473002 0.260562 0.837343
O O17 0.632474 0.880126 0.174871
#
# Coordination Sequence:
#
# PCOD9275057 Si02
#       8
#     8   8   8   8   8   8   8   8
#     4  11  23  39  65  95 123 167 218 267 308 389
#     4  10  20  38  68  89 121 168 217 246 320 386
#     4  12  23  41  66  96 125 169 208 263 323 388
#     4  10  22  40  64  92 123 167 213 260 317 386
#     4   9  19  40  64  86 124 172 202 255 315 386
#     4  12  24  38  63  96 128 163 207 267 324 379
#     4  11  22  43  60  87 127 171 207 259 326 380
#     4  11  23  40  63  93 135 161 210 271 324 377
#
# _framework density 20.734997
#
# number of rings (size 3 to 8) (size 9 to 14) (size 15 to 20)
#    0.000    1.250    5.000    1.875    1.750    0.000 
#    0.000    0.000    5.500    0.000    0.000    0.000 
#    0.000    0.000    0.000    0.000    0.000    0.000 
#
# Total GULP energy -178499.096056 kJ/mol
# GULP energy per Si atom -5578.096752 kJ/mol
# Density = 2.068780 g / cm^3
# Si number density = 20.734997 Si / 1000 Ang^3
#
#
#
# Elastic Constant Matrix: (Units=GPa)
#
#
# Indices 1 2 3 4 5 6 
#
# 1 78.9648 16.8709 15.2572 0.0000 3.4187 0.0000
# 2 16.8709 56.0011 13.2015 0.0000 10.3145 0.0000
# 3 15.2572 13.2015 112.7165 0.0000 -4.8320 0.0000
# 4 0.0000 0.0000 0.0000 15.6330 0.0000 -2.2608
# 5 3.4187 10.3145 -4.8320 0.0000 20.8992 0.0000
# 6 0.0000 0.0000 0.0000 -2.2608 0.0000 34.8435
#
#
#
# Elastic Compliance Matrix: (Units=1/GPa)
#
#
# Indices 1 2 3 4 5 6 
#
# 1 0.013763 -0.003655 -0.001469 0.000000 -0.000787 0.000000
# 2 -0.003655 0.021490 -0.002476 0.000000 -0.010581 0.000000
# 3 -0.001469 -0.002476 0.009518 0.000000 0.003663 0.000000
# 4 0.000000 0.000000 0.000000 0.064573 0.000000 0.004190
# 5 -0.000787 -0.010581 0.003663 0.000000 0.054046 0.000000
# 6 0.000000 0.000000 0.000000 0.004190 0.000000 0.028972
#
#
# Mechanical properties :
#
#
# Convention : Reuss Voigt Hill
#
# Bulk Modulus (GPa) = 33.81597 37.59350 35.70474
# Shear Modulus (GPa) = 22.99722 27.76533 25.38128
#
# Velocity S-wave (km/s) = 3.33393 3.66328 3.50248
# Velocity P-wave (km/s) = 5.58249 6.00522 5.79771
#
# Compressibility (1/GPa) = 0.02957182
#
# Stress axis : x y z
#
# Youngs Moduli (GPa) = 72.66081 46.53249 105.06875
#
# Poissons Ratio (x) = 0.17007 0.15430
# Poissons Ratio (y) = 0.26557 0.26013
# Poissons Ratio (z) = 0.10671 0.11521
#
# Static dielectric constant tensor:
#      x y z
#    x 1.630390 0.000000 -0.066630 
#    y 0.000000 1.552860 0.000000 
#    z -0.066630 0.000000 1.758650 
# 
# From -- ./inp_files/205394.got.cif
#   From: 2010.05.17/outbox.cif.g08.bks.cpg/sg15_103_cif.got.tgz:205394.got - 2010.06.03 18:47:42.
