data_PCOD9275280
_publ_section_title
;
Structure prediction by ZEFSAII (Michael W. Deem and Ramdas Pophale) SiO2 
 PCOD9275280
Probable space group: C 2/C
;
_chemical_formula_sum "Si O2"
_cell_formula_units_Z 44
_cell_length_a 12.067040
_cell_length_b 31.261249
_cell_length_c 5.031890
_cell_angle_alpha 90.000000
_cell_angle_beta 106.074055
_cell_angle_gamma 90.000000
_cell_volume 1823.973411
_symmetry_space_group_name_H-M "C 2/C"
_symmetry_group_IT_number 15
_symmetry_cell_setting 'monoclinic'
loop_
_space_group_symop_operation_xyz
x,y,z
-x,y,1/2-z
-x,-y,-z
x,-y,1/2+z
1/2+x,1/2+y,z
1/2-x,1/2+y,1/2-z
1/2-x,1/2-y,-z
1/2+x,1/2-y,1/2+z
loop_
_atom_site_type_symbol
_atom_site_label
_atom_site_fract_x
_atom_site_fract_y
_atom_site_fract_z
Si Si1 0.283355 0.120160 0.643931
Si Si2 0.243784 0.973393 0.069174
Si Si3 0.176459 0.222804 0.227222
Si Si4 0.642518 0.631931 0.059661
Si Si5 0.394585 0.805010 0.506826
Si Si6 0.500000 0.561440 0.250000
O O1 0.305240 0.070219 0.703607
O O2 0.255284 0.121730 0.313904
O O3 0.175764 0.131422 0.771721
O O4 0.367786 0.158438 0.776135
O O5 0.271541 0.010545 0.294093
O O6 0.105136 0.963925 0.957868
O O7 0.250000 0.250000 0.500000
O O8 0.109902 0.177356 0.170559
O O9 0.279001 0.207366 0.095116
O O10 0.082167 0.257792 0.085829
O O11 0.559041 0.593223 0.077119
O O12 0.500000 0.819959 0.750000
#
# Coordination Sequence:
#
# PCOD9275280 Si02
#       6
#     8   8   8   8   8   4
#     4  10  21  40  57  83 117 154 196 250 307 353
#     4  11  22  37  60  84 117 157 201 251 312 372
#     4  10  20  39  59  86 127 158 206 253 295 354
#     4  10  21  36  56  82 124 163 193 242 293 353
#     4  10  22  39  62  87 118 164 207 249 303 362
#     4  10  22  36  56  90 124 160 202 242 302 382
#
# _framework density 24.123159000000001
#
# number of rings (size 3 to 8) (size 9 to 14) (size 15 to 20)
#    0.000    1.818    1.818    2.727    0.000    8.000 
#    6.545    0.000    0.000    1.091    0.000    0.000 
#    0.000    0.000    0.000    0.000    0.000    0.000 
#
# Total GULP energy -122566.168466 kJ/mol
# GULP energy per Si atom -5571.189476 kJ/mol
# Density = 2.406825 g / cm^3
# Si number density = 24.123159 Si / 1000 Ang^3
#
#
#
# Elastic Constant Matrix: (Units=GPa)
#
#
# Indices 1 2 3 4 5 6 
#
# 1 48.0428 -10.1555 2.1210 0.0000 -13.9830 0.0000
# 2 -10.1555 140.3523 21.0229 0.0000 -0.9425 0.0000
# 3 2.1210 21.0229 87.0996 0.0000 -0.6466 0.0000
# 4 0.0000 0.0000 0.0000 32.9213 0.0000 -16.8621
# 5 -13.9830 -0.9425 -0.6466 0.0000 26.4573 0.0000
# 6 0.0000 0.0000 0.0000 -16.8621 0.0000 6.3407
#
#
#
# Elastic Compliance Matrix: (Units=1/GPa)
#
#
# Indices 1 2 3 4 5 6 
#
# 1 0.025184 0.002064 -0.001012 0.000000 0.013359 0.000000
# 2 0.002064 0.007563 -0.001866 0.000000 0.001314 0.000000
# 3 -0.001012 -0.001866 0.011954 0.000000 -0.000309 0.000000
# 4 0.000000 0.000000 0.000000 -0.083888 0.000000 -0.223086
# 5 0.013359 0.001314 -0.000309 0.000000 0.044896 0.000000
# 6 0.000000 0.000000 0.000000 -0.223086 0.000000 -0.435548
#
#
# Mechanical properties :
#
#
# Convention : Reuss Voigt Hill
#
# Bulk Modulus (GPa) = 23.21735 33.49681 28.35708
# Shear Modulus (GPa) = -12.08157 30.64427 9.28135
#
# Velocity S-wave (km/s) = -2.24035 3.56803 1.96363
# Velocity P-wave (km/s) = 1.71848 5.55791 4.11361
#
# Compressibility (1/GPa) = 0.04307124
#
# Stress axis : x y z
#
# Youngs Moduli (GPa) = 39.70810 132.23064 83.65537
#
# Poissons Ratio (x) = -0.27286 0.08467
# Poissons Ratio (y) = -0.08194 0.15609
# Poissons Ratio (z) = 0.04019 0.24672
#
# Static dielectric constant tensor:
#      x y z
#    x 2.037600 0.000000 -0.029510 
#    y 0.000000 2.063010 0.000000 
#    z -0.029510 0.000000 1.970500 
# 
# From -- ./inp_files/8874.got.cif
#   From: 2010.05.17/outbox.cif.g08.bks.cpg/sg15_5_cif.got.tgz:8874.got - 2010.06.03 18:47:42.
