data_PCOD9275870
_publ_section_title
;
Structure prediction by ZEFSAII (Michael W. Deem and Ramdas Pophale) SiO2 
 PCOD9275870
Probable space group: C 2/C
;
_chemical_formula_sum "Si O2"
_cell_formula_units_Z 48
_cell_length_a 13.229615
_cell_length_b 7.463690
_cell_length_c 29.056195
_cell_angle_alpha 90.000000
_cell_angle_beta 139.120091
_cell_angle_gamma 90.000000
_cell_volume 1877.729748
_symmetry_space_group_name_H-M "C 2/C"
_symmetry_group_IT_number 15
_symmetry_cell_setting 'monoclinic'
loop_
_space_group_symop_operation_xyz
x,y,z
-x,y,1/2-z
-x,-y,-z
x,-y,1/2+z
1/2+x,1/2+y,z
1/2-x,1/2+y,1/2-z
1/2-x,1/2-y,-z
1/2+x,1/2-y,1/2+z
loop_
_atom_site_type_symbol
_atom_site_label
_atom_site_fract_x
_atom_site_fract_y
_atom_site_fract_z
Si Si1 0.760846 0.551183 0.696201
Si Si2 0.412378 0.871552 0.160433
Si Si3 0.844788 0.543308 0.366244
Si Si4 0.768330 0.873163 0.079865
Si Si5 0.563355 0.500879 0.208299
Si Si6 0.205585 0.483058 0.963616
O O1 0.826410 0.506793 0.668826
O O2 0.695820 0.749621 0.661036
O O3 0.636220 0.449899 0.683666
O O4 0.912740 0.556563 0.780608
O O5 0.456320 0.666155 0.187999
O O6 0.302858 0.870039 0.078892
O O7 0.830488 0.462495 0.413304
O O8 0.704449 0.449170 0.289692
O O9 0.023000 0.529484 0.413226
O O10 0.722180 0.687819 0.038929
O O11 0.784531 0.997818 0.039946
O O12 0.940833 0.845196 0.158544
#
# Coordination Sequence:
#
# PCOD9275870 Si02
#       6
#     8   8   8   8   8   8
#     4  10  20  39  65  92 126 160 215 270 323 391
#     4  10  22  40  62  94 126 163 209 276 326 376
#     4  11  21  42  66  91 124 172 217 266 328 388
#     4  11  24  41  65  92 130 174 213 264 327 393
#     4  11  21  40  68  93 123 171 215 266 334 387
#     4  11  24  42  62  94 132 165 219 266 320 394
#
# _framework density 25.562785999999999
#
# number of rings (size 3 to 8) (size 9 to 14) (size 15 to 20)
#    0.000    1.333    5.000    1.000    0.000    2.000 
#    6.000    0.833    0.000    0.000    0.000    0.000 
#    0.000    0.000    0.000    0.000    0.000    0.000 
#
# Total GULP energy -133692.200258 kJ/mol
# GULP energy per Si atom -5570.508344 kJ/mol
# Density = 2.550460 g / cm^3
# Si number density = 25.562786 Si / 1000 Ang^3
#
#
#
# Elastic Constant Matrix: (Units=GPa)
#
#
# Indices 1 2 3 4 5 6 
#
# 1 127.0567 24.3831 25.9271 0.0000 -32.5512 0.0000
# 2 24.3831 56.7977 32.1601 0.0000 -26.3832 0.0000
# 3 25.9271 32.1601 95.5130 0.0000 -22.0875 0.0000
# 4 0.0000 0.0000 0.0000 29.4335 0.0000 -7.7303
# 5 -32.5512 -26.3832 -22.0875 0.0000 44.9628 0.0000
# 6 0.0000 0.0000 0.0000 -7.7303 0.0000 28.2515
#
#
#
# Elastic Compliance Matrix: (Units=1/GPa)
#
#
# Indices 1 2 3 4 5 6 
#
# 1 0.009797 -0.000803 -0.000968 0.000000 0.006146 0.000000
# 2 -0.000803 0.027120 -0.006056 0.000000 0.012357 0.000000
# 3 -0.000968 -0.006056 0.013299 0.000000 0.002279 0.000000
# 4 0.000000 0.000000 0.000000 0.036606 0.000000 0.010016
# 5 0.006146 0.012357 0.002279 0.000000 0.035060 0.000000
# 6 0.000000 0.000000 0.000000 0.010016 0.000000 0.038137
#
#
# Mechanical properties :
#
#
# Convention : Reuss Voigt Hill
#
# Bulk Modulus (GPa) = 28.93347 49.36755 39.15051
# Shear Modulus (GPa) = 26.71052 33.65603 30.18328
#
# Velocity S-wave (km/s) = 3.23600 3.63244 3.43993
# Velocity P-wave (km/s) = 5.03045 6.07841 5.57909
#
# Compressibility (1/GPa) = 0.03456205
#
# Stress axis : x y z
#
# Youngs Moduli (GPa) = 102.07643 36.87286 75.19641
#
# Poissons Ratio (x) = 0.02960 0.07277
# Poissons Ratio (y) = 0.08196 0.45539
# Poissons Ratio (z) = 0.09878 0.22330
#
# Static dielectric constant tensor:
#      x y z
#    x 2.063800 0.000000 -0.068330 
#    y 0.000000 2.111180 0.000000 
#    z -0.068330 0.000000 2.030280 
# 
# From -- ./inp_files/312980.got.cif
#   From: 2010.05.17/outbox.cif.g08.bks.cpg/sg15_157_cif.got.tgz:312980.got - 2010.06.03 18:47:42.
