data_PCOD9275192
_publ_section_title
;
Structure prediction by ZEFSAII (Michael W. Deem and Ramdas Pophale) SiO2 
 PCOD9275192
Probable space group: C 2/C
;
_chemical_formula_sum "Si O2"
_cell_formula_units_Z 56
_cell_length_a 13.317729
_cell_length_b 10.827977
_cell_length_c 16.535826
_cell_angle_alpha 90.000000
_cell_angle_beta 97.880202
_cell_angle_gamma 90.000000
_cell_volume 2362.015905
_symmetry_space_group_name_H-M "C 2/C"
_symmetry_group_IT_number 15
_symmetry_cell_setting 'monoclinic'
loop_
_space_group_symop_operation_xyz
x,y,z
-x,y,1/2-z
-x,-y,-z
x,-y,1/2+z
1/2+x,1/2+y,z
1/2-x,1/2+y,1/2-z
1/2-x,1/2-y,-z
1/2+x,1/2-y,1/2+z
loop_
_atom_site_type_symbol
_atom_site_label
_atom_site_fract_x
_atom_site_fract_y
_atom_site_fract_z
Si Si1 0.395515 0.707437 0.689859
Si Si2 0.296116 0.093797 0.599431
Si Si3 0.985765 0.712100 0.906321
Si Si4 0.606466 0.970908 0.223431
Si Si5 0.572002 0.432766 0.835730
Si Si6 0.665282 0.151218 0.469210
Si Si7 0.784649 0.696395 0.329180
O O1 0.500000 0.712254 0.750000
O O2 0.392276 0.573207 0.647303
O O3 0.384168 0.809993 0.620909
O O4 0.311063 0.735385 0.748052
O O5 0.404267 0.148952 0.584795
O O6 0.211236 0.200142 0.599648
O O7 0.315753 0.046031 0.693779
O O8 0.280523 0.980287 0.537893
O O9 0.921428 0.656786 0.823971
O O10 0.009123 0.857311 0.896595
O O11 0.922939 0.665727 0.975447
O O12 0.500000 0.011580 0.250000
O O13 0.645337 0.074854 0.165609
O O14 0.500000 0.436621 0.750000
O O15 0.670947 0.353958 0.823892
O O16 0.750000 0.250000 0.500000
#
# Coordination Sequence:
#
# PCOD9275192 Si02
#       7
#     8   8   8   8   8   8   8
#     4  11  26  45  70 103 139 186 231 289 344 418
#     4  10  22  42  64  97 133 181 232 282 340 409
#     4  10  23  43  69  98 140 179 227 290 351 415
#     4  10  20  38  72 101 130 180 236 283 340 412
#     4  10  23  41  68 102 138 185 235 283 343 409
#     4  12  28  43  69 102 145 179 229 283 370 404
#     4  11  21  38  73 101 130 173 245 285 331 403
#
# _framework density 23.708563000000002
#
# number of rings (size 3 to 8) (size 9 to 14) (size 15 to 20)
#    0.000    1.429    1.429    3.857    8.000    1.714 
#    0.000    0.714    0.000    0.000    0.000    0.000 
#    0.000    0.000    0.000    0.000    0.000    0.000 
#
# Total GULP energy -156567.796203 kJ/mol
# GULP energy per Si atom -5591.707007 kJ/mol
# Density = 2.365460 g / cm^3
# Si number density = 23.708563 Si / 1000 Ang^3
#
#
#
# Elastic Constant Matrix: (Units=GPa)
#
#
# Indices 1 2 3 4 5 6 
#
# 1 69.7712 15.2523 21.3557 0.0000 -19.9170 0.0000
# 2 15.2523 99.2491 1.2822 0.0000 -15.7448 0.0000
# 3 21.3557 1.2822 58.0191 0.0000 -23.1857 0.0000
# 4 0.0000 0.0000 0.0000 -20.4899 0.0000 62.5626
# 5 -19.9170 -15.7448 -23.1857 0.0000 40.4147 0.0000
# 6 0.0000 0.0000 0.0000 62.5626 0.0000 -48.9235
#
#
#
# Elastic Compliance Matrix: (Units=1/GPa)
#
#
# Indices 1 2 3 4 5 6 
#
# 1 0.017598 -0.001767 -0.004214 0.000000 0.005567 0.000000
# 2 -0.001767 0.011074 0.002312 0.000000 0.004770 0.000000
# 3 -0.004214 0.002312 0.023699 0.000000 0.012420 0.000000
# 4 0.000000 0.000000 0.000000 0.016803 0.000000 0.021487
# 5 0.005567 0.004770 0.012420 0.000000 0.036470 0.000000
# 6 0.000000 0.000000 0.000000 0.021487 0.000000 0.007037
#
#
# Mechanical properties :
#
#
# Convention : Reuss Voigt Hill
#
# Bulk Modulus (GPa) = 22.20606 33.64664 27.92635
# Shear Modulus (GPa) = 37.02903 6.81023 21.91963
#
# Velocity S-wave (km/s) = 3.95630 1.69668 3.04393
# Velocity P-wave (km/s) = 5.50058 4.24981 4.91514
#
# Compressibility (1/GPa) = 0.04503274
#
# Stress axis : x y z
#
# Youngs Moduli (GPa) = 56.82591 90.30178 42.19614
#
# Poissons Ratio (x) = 0.15955 0.17780
# Poissons Ratio (y) = 0.10040 -0.09754
# Poissons Ratio (z) = 0.23945 -0.20875
#
# Static dielectric constant tensor:
#      x y z
#    x 1.854570 0.000000 -0.035600 
#    y 0.000000 2.058430 0.000000 
#    z -0.035600 0.000000 1.798590 
# 
# From -- ./inp_files/152629.got.cif
#   From: 2010.05.17/outbox.cif.g08.bks.cpg/sg15_77_cif.got.tgz:152629.got - 2010.06.03 18:47:42.
