data_PCOD9275030
_publ_section_title
;
Structure prediction by ZEFSAII (Michael W. Deem and Ramdas Pophale) SiO2 
 PCOD9275030
Probable space group: C 2/C
;
_chemical_formula_sum "Si O2"
_cell_formula_units_Z 24
_cell_length_a 14.751826
_cell_length_b 12.862651
_cell_length_c 5.382083
_cell_angle_alpha 90.000000
_cell_angle_beta 53.708459
_cell_angle_gamma 90.000000
_cell_volume 823.133254
_symmetry_space_group_name_H-M "C 2/C"
_symmetry_group_IT_number 15
_symmetry_cell_setting 'monoclinic'
loop_
_space_group_symop_operation_xyz
x,y,z
-x,y,1/2-z
-x,-y,-z
x,-y,1/2+z
1/2+x,1/2+y,z
1/2-x,1/2+y,1/2-z
1/2-x,1/2-y,-z
1/2+x,1/2-y,1/2+z
loop_
_atom_site_type_symbol
_atom_site_label
_atom_site_fract_x
_atom_site_fract_y
_atom_site_fract_z
Si Si1 0.649631 0.258373 0.866028
Si Si2 0.282742 0.466701 0.575388
Si Si3 0.000000 0.888403 0.750000
Si Si4 0.000000 0.430506 0.750000
O O1 0.750000 0.250000 0.500000
O O2 0.689089 0.345800 0.997855
O O3 0.545479 0.313419 0.890828
O O4 0.603049 0.152593 0.054587
O O5 0.225115 0.477627 0.937859
O O6 0.395137 0.466008 0.962299
O O7 0.000000 0.500000 0.500000
#
# Coordination Sequence:
#
# PCOD9275030 Si02
#       4
#     8   8   4   4
#     4  11  24  45  74 105 143 196 249 299 369 450
#     4  10  20  38  68 100 132 169 226 299 358 410
#     4  10  20  42  70 100 136 172 234 308 356 414
#     4  12  28  50  70 104 158 204 244 306 376 448
#
# _framework density 29.156884000000002
#
# number of rings (size 3 to 8) (size 9 to 14) (size 15 to 20)
#    0.000    1.333    0.000    8.000    0.000    8.000 
#    0.000   20.000    0.000    0.000    0.000    0.000 
#    0.000    0.000    0.000    0.000    0.000    0.000 
#
# Total GULP energy -67324.463307 kJ/mol
# GULP energy per Si atom -5610.371942 kJ/mol
# Density = 2.909052 g / cm^3
# Si number density = 29.156884 Si / 1000 Ang^3
#
#
#
# Elastic Constant Matrix: (Units=GPa)
#
#
# Indices 1 2 3 4 5 6 
#
# 1 131.1279 62.7614 43.8238 0.0000 7.0601 0.0000
# 2 62.7614 295.2828 92.7375 0.0000 8.4025 0.0000
# 3 43.8238 92.7375 184.9545 0.0000 -10.4289 0.0000
# 4 0.0000 0.0000 0.0000 80.5198 0.0000 3.5490
# 5 7.0601 8.4025 -10.4289 0.0000 57.5890 0.0000
# 6 0.0000 0.0000 0.0000 3.5490 0.0000 67.0724
#
#
#
# Elastic Compliance Matrix: (Units=1/GPa)
#
#
# Indices 1 2 3 4 5 6 
#
# 1 0.008841 -0.001387 -0.001464 0.000000 -0.001147 0.000000
# 2 -0.001387 0.004290 -0.001867 0.000000 -0.000794 0.000000
# 3 -0.001464 -0.001867 0.006785 0.000000 0.001681 0.000000
# 4 0.000000 0.000000 0.000000 0.012448 0.000000 -0.000659
# 5 -0.001147 -0.000794 0.001681 0.000000 0.017925 0.000000
# 6 0.000000 0.000000 0.000000 -0.000659 0.000000 0.014944
#
#
# Mechanical properties :
#
#
# Convention : Reuss Voigt Hill
#
# Bulk Modulus (GPa) = 95.42412 112.22342 103.82377
# Shear Modulus (GPa) = 63.96844 68.50574 66.23709
#
# Velocity S-wave (km/s) = 4.68903 4.85248 4.77146
# Velocity P-wave (km/s) = 7.88130 8.36472 8.12660
#
# Compressibility (1/GPa) = 0.01047953
#
# Stress axis : x y z
#
# Youngs Moduli (GPa) = 113.11067 233.07800 147.38847
#
# Poissons Ratio (x) = 0.32319 0.21580
# Poissons Ratio (y) = 0.15684 0.27524
# Poissons Ratio (z) = 0.16562 0.43527
#
# Static dielectric constant tensor:
#      x y z
#    x 2.323610 0.000000 -0.029050 
#    y 0.000000 2.156500 0.000000 
#    z -0.029050 0.000000 2.496210 
# 
# From -- ./inp_files/14926.got.cif
#   From: 2010.05.17/outbox.cif.g08.bks.cpg/sg15_8_cif.got.tgz:14926.got - 2010.06.03 18:47:42.
