data_PCOD9275101
_publ_section_title
;
Structure prediction by ZEFSAII (Michael W. Deem and Ramdas Pophale) SiO2 
 PCOD9275101
Probable space group: C 2/C
;
_chemical_formula_sum "Si O2"
_cell_formula_units_Z 52
_cell_length_a 7.765667
_cell_length_b 31.195399
_cell_length_c 12.079088
_cell_angle_alpha 90.000000
_cell_angle_beta 53.197263
_cell_angle_gamma 90.000000
_cell_volume 2343.013421
_symmetry_space_group_name_H-M "C 2/C"
_symmetry_group_IT_number 15
_symmetry_cell_setting 'monoclinic'
loop_
_space_group_symop_operation_xyz
x,y,z
-x,y,1/2-z
-x,-y,-z
x,-y,1/2+z
1/2+x,1/2+y,z
1/2-x,1/2+y,1/2-z
1/2-x,1/2-y,-z
1/2+x,1/2-y,1/2+z
loop_
_atom_site_type_symbol
_atom_site_label
_atom_site_fract_x
_atom_site_fract_y
_atom_site_fract_z
Si Si1 0.766477 0.874564 0.312944
Si Si2 0.744397 0.627779 0.365740
Si Si3 0.846812 0.693983 0.502451
Si Si4 0.000000 0.254593 0.750000
Si Si5 0.000000 0.416734 0.250000
Si Si6 0.696849 0.041368 0.460327
Si Si7 0.500000 0.613258 0.250000
Si Si8 0.731256 0.951091 0.493503
O O1 0.588509 0.843567 0.437014
O O2 0.694452 0.886820 0.218661
O O3 0.774000 0.918809 0.376868
O O4 0.000000 0.855290 0.250000
O O5 0.705715 0.665734 0.469019
O O6 0.622576 0.637218 0.300068
O O7 0.704427 0.579342 0.428836
O O8 0.000000 0.627746 0.250000
O O9 0.707806 0.727014 0.630629
O O10 0.018799 0.716913 0.355487
O O11 0.920741 0.445863 0.380767
O O12 0.523372 0.037757 0.425968
O O13 0.836472 0.081575 0.373566
O O14 0.828368 0.997830 0.434820
#
# Coordination Sequence:
#
# PCOD9275101 Si02
#       8
#     8   8   8   4   4   8   4   8
#     4  10  21  39  61  91 115 164 199 247 292 368
#     4  11  22  41  61  91 122 165 194 258 298 365
#     4  10  21  38  65  93 122 150 198 233 304 359
#     4  10  20  38  68  98 114 154 192 238 290 384
#     4  10  24  38  59  83 128 158 206 247 303 338
#     4  10  22  39  56  88 117 170 207 266 294 349
#     4  12  26  36  63  91 120 158 224 241 305 350
#     4   9  21  38  59  80 128 161 212 254 312 335
#
# _framework density 22.193641
#
# number of rings (size 3 to 8) (size 9 to 14) (size 15 to 20)
#    0.000    1.846    3.077    0.000    6.462    1.846 
#    0.000    0.000    0.000    5.538    0.000    0.000 
#    0.000    0.000    0.000    0.000    0.000    0.000 
#
# Total GULP energy -144770.148348 kJ/mol
# GULP energy per Si atom -5568.082629 kJ/mol
# Density = 2.214313 g / cm^3
# Si number density = 22.193641 Si / 1000 Ang^3
#
#
#
# Elastic Constant Matrix: (Units=GPa)
#
#
# Indices 1 2 3 4 5 6 
#
# 1 70.6892 8.9973 12.9206 0.0000 28.2225 0.0000
# 2 8.9973 92.7841 38.3391 0.0000 6.6467 0.0000
# 3 12.9206 38.3391 114.4691 0.0000 11.5339 0.0000
# 4 0.0000 0.0000 0.0000 90.2618 0.0000 14.5736
# 5 28.2225 6.6467 11.5339 0.0000 29.8265 0.0000
# 6 0.0000 0.0000 0.0000 14.5736 0.0000 3.0343
#
#
#
# Elastic Compliance Matrix: (Units=1/GPa)
#
#
# Indices 1 2 3 4 5 6 
#
# 1 0.022782 -0.000588 -0.000225 0.000000 -0.021339 0.000000
# 2 -0.000588 0.012566 -0.004075 0.000000 -0.000668 0.000000
# 3 -0.000225 -0.004075 0.010419 0.000000 -0.002909 0.000000
# 4 0.000000 0.000000 0.000000 0.049348 0.000000 -0.237021
# 5 -0.021339 -0.000668 -0.002909 0.000000 0.054992 0.000000
# 6 0.000000 0.000000 0.000000 -0.237021 0.000000 1.467991
#
#
# Mechanical properties :
#
#
# Convention : Reuss Voigt Hill
#
# Bulk Modulus (GPa) = 27.78347 44.27291 36.02819
# Shear Modulus (GPa) = 3.04902 39.13688 21.09295
#
# Velocity S-wave (km/s) = 1.17337 4.20387 3.08621
# Velocity P-wave (km/s) = 3.79231 6.59964 5.38223
#
# Compressibility (1/GPa) = 0.03599263
#
# Stress axis : x y z
#
# Youngs Moduli (GPa) = 43.89473 79.57680 95.97577
#
# Poissons Ratio (x) = 0.04677 0.02155
# Poissons Ratio (y) = 0.02580 0.39112
# Poissons Ratio (z) = 0.00985 0.32429
#
# Static dielectric constant tensor:
#      x y z
#    x 1.891040 0.000000 -0.107370 
#    y 0.000000 1.932400 0.000000 
#    z -0.107370 0.000000 1.819780 
# 
# From -- ./inp_files/82111.got.cif
#   From: 2010.05.17/outbox.cif.g08.bks.cpg/sg15_42_cif.got.tgz:82111.got - 2010.06.03 18:47:42.
