data_PCOD9275100
_publ_section_title
;
Structure prediction by ZEFSAII (Michael W. Deem and Ramdas Pophale) SiO2 
 PCOD9275100
Probable space group: C 2/C
;
_chemical_formula_sum "Si O2"
_cell_formula_units_Z 60
_cell_length_a 19.353343
_cell_length_b 11.270471
_cell_length_c 28.968852
_cell_angle_alpha 90.000000
_cell_angle_beta 25.679441
_cell_angle_gamma 90.000000
_cell_volume 2738.128618
_symmetry_space_group_name_H-M "C 2/C"
_symmetry_group_IT_number 15
_symmetry_cell_setting 'monoclinic'
loop_
_space_group_symop_operation_xyz
x,y,z
-x,y,1/2-z
-x,-y,-z
x,-y,1/2+z
1/2+x,1/2+y,z
1/2-x,1/2+y,1/2-z
1/2-x,1/2-y,-z
1/2+x,1/2-y,1/2+z
loop_
_atom_site_type_symbol
_atom_site_label
_atom_site_fract_x
_atom_site_fract_y
_atom_site_fract_z
Si Si1 0.500000 0.952571 0.250000
Si Si2 0.793446 0.961711 0.023955
Si Si3 0.800827 0.223038 0.686916
Si Si4 0.337698 0.268180 0.496991
Si Si5 0.577172 0.309828 0.893040
Si Si6 0.172375 0.504772 0.995881
Si Si7 0.395688 0.883198 0.553129
Si Si8 0.849850 0.512135 0.248632
O O1 0.650091 0.889808 0.135315
O O2 0.435776 0.024142 0.245459
O O3 0.773136 0.968140 0.980692
O O4 0.952530 0.900038 0.945544
O O5 0.784437 0.100485 0.044915
O O6 0.647632 0.224125 0.811990
O O7 0.796759 0.339260 0.656721
O O8 0.969018 0.221553 0.613221
O O9 0.764583 0.103122 0.680843
O O10 0.250000 0.250000 0.500000
O O11 0.295878 0.138215 0.542716
O O12 0.732616 0.380178 0.813546
O O13 0.503928 0.231756 0.977593
O O14 0.990737 0.509173 0.125627
O O15 0.191315 0.413984 0.942453
O O16 0.500000 0.000000 0.500000
#
# Coordination Sequence:
#
# PCOD9275100 Si02
#       8
#     4   8   8   8   8   8   8   8
#     4  10  24  40  64  96 134 172 222 288 332 404
#     4  10  23  42  69  98 133 179 235 280 343 403
#     4  12  24  42  69  99 134 178 233 284 340 417
#     4  10  20  38  68  97 130 178 225 285 345 405
#     4  12  25  42  71  99 131 182 230 288 341 412
#     4  10  21  44  65  94 138 180 217 286 348 401
#     4  12  25  41  65  98 136 178 221 278 354 414
#     4  11  22  43  65  97 132 174 231 281 342 404
#
# _framework density 21.912776000000001
#
# number of rings (size 3 to 8) (size 9 to 14) (size 15 to 20)
#    0.000    1.067    5.333    0.800    1.867    1.600 
#    2.400    0.000    5.867    0.000    0.000    0.000 
#    0.000    0.000    0.000    0.000    0.000    0.000 
#
# Total GULP energy -167223.431372 kJ/mol
# GULP energy per Si atom -5574.114379 kJ/mol
# Density = 2.186290 g / cm^3
# Si number density = 21.912776 Si / 1000 Ang^3
#
#
#
# Elastic Constant Matrix: (Units=GPa)
#
#
# Indices 1 2 3 4 5 6 
#
# 1 93.6798 22.5376 26.1676 -0.0003 -13.9547 -0.0002
# 2 22.5376 79.5668 -10.4622 -0.0023 -13.2206 0.0001
# 3 26.1676 -10.4622 35.2526 -0.0072 -10.3891 -0.0008
# 4 -0.0003 -0.0023 -0.0072 15.2359 0.0001 2.8407
# 5 -13.9547 -13.2206 -10.3891 0.0001 27.4505 0.0004
# 6 -0.0002 0.0001 -0.0008 2.8407 0.0004 26.3335
#
#
#
# Elastic Compliance Matrix: (Units=1/GPa)
#
#
# Indices 1 2 3 4 5 6 
#
# 1 0.016066 -0.006403 -0.013875 -0.000007 -0.000168 0.000000
# 2 -0.006403 0.017805 0.013062 0.000009 0.010263 -0.000001
# 3 -0.013875 0.013062 0.047630 0.000024 0.017263 -0.000002
# 4 -0.000007 0.000009 0.000024 0.066981 0.000010 -0.007225
# 5 -0.000168 0.010263 0.017263 0.000010 0.047820 -0.000001
# 6 0.000000 -0.000001 -0.000002 -0.007225 -0.000001 0.038754
#
#
# Mechanical properties :
#
#
# Convention : Reuss Voigt Hill
#
# Bulk Modulus (GPa) = 14.91049 31.66504 23.28777
# Shear Modulus (GPa) = 18.39279 25.15441 21.77360
#
# Velocity S-wave (km/s) = 2.90032 3.39179 3.15564
# Velocity P-wave (km/s) = 4.24677 5.46085 4.89162
#
# Compressibility (1/GPa) = 0.06706686
#
# Stress axis : x y z
#
# Youngs Moduli (GPa) = 62.24354 56.16545 20.99508
#
# Poissons Ratio (x) = 0.35963 0.29131
# Poissons Ratio (y) = 0.39855 -0.27423
# Poissons Ratio (z) = 0.86365 -0.73361
#
# Static dielectric constant tensor:
#      x y z
#    x 1.977600 0.000000 0.082580 
#    y 0.000000 1.868950 0.000000 
#    z 0.082580 0.000000 1.855900 
# 
# From -- ./inp_files/298939.got.cif
#   From: 2010.05.17/outbox.cif.g08.bks.cpg/sg15_150_cif.got.tgz:298939.got - 2010.06.03 18:47:42.
