data_PCOD9275377
_publ_section_title
;
Structure prediction by ZEFSAII (Michael W. Deem and Ramdas Pophale) SiO2 
 PCOD9275377
Probable space group: C 2/C
;
_chemical_formula_sum "Si O2"
_cell_formula_units_Z 40
_cell_length_a 13.930375
_cell_length_b 10.015543
_cell_length_c 25.927170
_cell_angle_alpha 90.000000
_cell_angle_beta 144.409229
_cell_angle_gamma 90.000000
_cell_volume 2105.277898
_symmetry_space_group_name_H-M "C 2/C"
_symmetry_group_IT_number 15
_symmetry_cell_setting 'monoclinic'
loop_
_space_group_symop_operation_xyz
x,y,z
-x,y,1/2-z
-x,-y,-z
x,-y,1/2+z
1/2+x,1/2+y,z
1/2-x,1/2+y,1/2-z
1/2-x,1/2-y,-z
1/2+x,1/2-y,1/2+z
loop_
_atom_site_type_symbol
_atom_site_label
_atom_site_fract_x
_atom_site_fract_y
_atom_site_fract_z
Si Si1 0.668241 0.973783 0.230162
Si Si2 0.808611 0.027812 0.907916
Si Si3 0.630702 0.235955 0.899383
Si Si4 0.995373 0.978414 0.309343
Si Si5 0.434811 0.192207 0.162301
O O1 0.753825 0.969243 0.324138
O O2 0.530812 0.858072 0.164279
O O3 0.809847 0.964615 0.249648
O O4 0.570401 0.114384 0.187695
O O5 0.737592 0.163623 0.901626
O O6 0.717834 0.906989 0.898410
O O7 0.000000 0.000000 0.000000
O O8 0.570950 0.384496 0.861768
O O9 0.750000 0.250000 0.000000
O O10 0.000000 0.985728 0.250000
O O11 0.090313 0.842859 0.367133
O O12 0.500000 0.201225 0.250000
#
# Coordination Sequence:
#
# PCOD9275377 Si02
#       5
#     8   8   8   8   8
#     4  10  20  39  61  83 116 160 194 235 301 367
#     4  10  20  39  63  84 113 157 200 238 295 371
#     4  11  23  39  59  88 122 159 201 245 295 361
#     4  11  21  36  59  89 117 146 193 254 303 345
#     4   8  18  35  57  82 110 144 188 236 289 348
#
# _framework density 18.999866999999998
#
# number of rings (size 3 to 8) (size 9 to 14) (size 15 to 20)
#    0.000    2.000    0.000    5.400    0.000    3.200 
#    0.000   15.000    0.000    0.000    0.000    0.000 
#    0.000    0.000    0.000    0.000    0.000    0.000 
#
# Total GULP energy -111597.194623 kJ/mol
# GULP energy per Si atom -5579.859731 kJ/mol
# Density = 1.895662 g / cm^3
# Si number density = 18.999867 Si / 1000 Ang^3
#
#
#
# Elastic Constant Matrix: (Units=GPa)
#
#
# Indices 1 2 3 4 5 6 
#
# 1 123.1713 32.4311 46.5146 0.0000 14.6597 0.0000
# 2 32.4311 165.7035 51.0929 0.0000 6.8367 0.0000
# 3 46.5146 51.0929 112.6289 0.0000 13.3829 0.0000
# 4 0.0000 0.0000 0.0000 9.3142 0.0000 0.0748
# 5 14.6597 6.8367 13.3829 0.0000 26.6885 0.0000
# 6 0.0000 0.0000 0.0000 0.0748 0.0000 11.0228
#
#
#
# Elastic Compliance Matrix: (Units=1/GPa)
#
#
# Indices 1 2 3 4 5 6 
#
# 1 0.010022 -0.000777 -0.003356 0.000000 -0.003623 0.000000
# 2 -0.000777 0.007078 -0.002898 0.000000 0.000067 0.000000
# 3 -0.003356 -0.002898 0.011986 0.000000 -0.003425 0.000000
# 4 0.000000 0.000000 0.000000 0.107369 0.000000 -0.000728
# 5 -0.003623 0.000067 -0.003425 0.000000 0.041160 0.000000
# 6 0.000000 0.000000 0.000000 -0.000728 0.000000 0.090726
#
#
# Mechanical properties :
#
#
# Convention : Reuss Voigt Hill
#
# Bulk Modulus (GPa) = 66.55946 73.50899 70.03423
# Shear Modulus (GPa) = 17.39676 27.50279 22.44978
#
# Velocity S-wave (km/s) = 3.02921 3.80876 3.44113
# Velocity P-wave (km/s) = 6.88058 7.62335 7.26147
#
# Compressibility (1/GPa) = 0.01502416
#
# Stress axis : x y z
#
# Youngs Moduli (GPa) = 99.78099 141.28878 83.43000
#
# Poissons Ratio (x) = 0.10982 0.27998
# Poissons Ratio (y) = 0.07755 0.24175
# Poissons Ratio (z) = 0.33485 0.40941
#
# Static dielectric constant tensor:
#      x y z
#    x 1.655160 0.000000 0.017040 
#    y 0.000000 1.695460 0.000000 
#    z 0.017040 0.000000 1.574370 
# 
# From -- ./inp_files/150580.got.cif
#   From: 2010.05.17/outbox.cif.g08.bks.cpg/sg15_76_cif.got.tgz:150580.got - 2010.06.03 18:47:42.
