data_PCOD9275570
_publ_section_title
;
Structure prediction by ZEFSAII (Michael W. Deem and Ramdas Pophale) SiO2 
 PCOD9275570
Probable space group: C 2/C
;
_chemical_formula_sum "Si O2"
_cell_formula_units_Z 48
_cell_length_a 17.009564
_cell_length_b 31.608755
_cell_length_c 8.906505
_cell_angle_alpha 90.000000
_cell_angle_beta 152.155735
_cell_angle_gamma 90.000000
_cell_volume 2236.607465
_symmetry_space_group_name_H-M "C 2/C"
_symmetry_group_IT_number 15
_symmetry_cell_setting 'monoclinic'
loop_
_space_group_symop_operation_xyz
x,y,z
-x,y,1/2-z
-x,-y,-z
x,-y,1/2+z
1/2+x,1/2+y,z
1/2-x,1/2+y,1/2-z
1/2-x,1/2-y,-z
1/2+x,1/2-y,1/2+z
loop_
_atom_site_type_symbol
_atom_site_label
_atom_site_fract_x
_atom_site_fract_y
_atom_site_fract_z
Si Si1 0.631632 0.209298 0.108972
Si Si2 0.821372 0.032814 0.534800
Si Si3 0.671704 0.226219 0.723228
Si Si4 0.687071 0.373148 0.500959
Si Si5 0.690061 0.956587 0.134874
Si Si6 0.196864 0.361861 0.133055
O O1 0.775736 0.243182 0.321749
O O2 0.702210 0.162405 0.234966
O O3 0.500000 0.211585 0.750000
O O4 0.524022 0.220545 0.073181
O O5 0.746675 0.079008 0.366920
O O6 0.816115 0.034265 0.707209
O O7 0.718325 0.992547 0.304763
O O8 0.000000 0.030793 0.750000
O O9 0.738163 0.178762 0.803855
O O10 0.750000 0.250000 0.000000
O O11 0.500000 0.371372 0.250000
O O12 0.695101 0.362537 0.337355
O O13 0.718667 0.908583 0.239943
O O14 0.500000 0.958388 0.750000
O O15 0.000000 0.358692 0.750000
#
# Coordination Sequence:
#
# PCOD9275570 Si02
#       6
#     8   8   8   8   8   8
#     4  10  22  40  59  86 121 156 195 252 307 356
#     4  10  21  40  60  90 128 161 203 252 303 362
#     4  10  22  40  59  86 122 154 198 250 301 361
#     4  10  22  38  61  90 120 159 207 248 298 363
#     4  10  21  38  63  93 121 161 207 250 303 360
#     4  10  20  39  63  84 123 163 200 247 304 362
#
# _framework density 21.461072999999999
#
# number of rings (size 3 to 8) (size 9 to 14) (size 15 to 20)
#    0.000    2.000    1.667    1.000    2.333    2.000 
#    6.000    2.500    0.000    0.000    0.000    0.000 
#    0.000    0.000    0.000    0.000    0.000    0.000 
#
# Total GULP energy -133970.249624 kJ/mol
# GULP energy per Si atom -5582.093734 kJ/mol
# Density = 2.141223 g / cm^3
# Si number density = 21.461073 Si / 1000 Ang^3
#
#
#
# Elastic Constant Matrix: (Units=GPa)
#
#
# Indices 1 2 3 4 5 6 
#
# 1 108.3070 56.0541 5.8751 0.0000 14.3267 0.0000
# 2 56.0541 209.2490 39.5490 0.0000 -19.2446 0.0000
# 3 5.8751 39.5490 24.5301 0.0000 -8.9164 0.0000
# 4 0.0000 0.0000 0.0000 30.2586 0.0000 -4.3829
# 5 14.3267 -19.2446 -8.9164 0.0000 18.0181 0.0000
# 6 0.0000 0.0000 0.0000 -4.3829 0.0000 39.9201
#
#
#
# Elastic Compliance Matrix: (Units=1/GPa)
#
#
# Indices 1 2 3 4 5 6 
#
# 1 0.014334 -0.005181 -0.001505 0.000000 -0.017676 0.000000
# 2 -0.005181 0.008823 -0.009829 0.000000 0.008679 0.000000
# 3 -0.001505 -0.009829 0.065347 0.000000 0.023036 0.000000
# 4 0.000000 0.000000 0.000000 0.033583 0.000000 0.003687
# 5 -0.017676 0.008679 0.023036 0.000000 0.090224 0.000000
# 6 0.000000 0.000000 0.000000 0.003687 0.000000 0.025455
#
#
# Mechanical properties :
#
#
# Convention : Reuss Voigt Hill
#
# Bulk Modulus (GPa) = 18.02641 60.56026 39.29334
# Shear Modulus (GPa) = 17.28384 33.67988 25.48186
#
# Velocity S-wave (km/s) = 2.84096 3.96580 3.44954
# Velocity P-wave (km/s) = 4.37941 7.01783 5.84933
#
# Compressibility (1/GPa) = 0.05547415
#
# Stress axis : x y z
#
# Youngs Moduli (GPa) = 69.76259 113.34093 15.30287
#
# Poissons Ratio (x) = 0.58724 0.02303
# Poissons Ratio (y) = 0.36145 0.15042
# Poissons Ratio (z) = 0.10497 1.11406
#
# Static dielectric constant tensor:
#      x y z
#    x 1.881840 0.000000 -0.013700 
#    y 0.000000 1.773370 0.000000 
#    z -0.013700 0.000000 1.784610 
# 
# From -- ./inp_files/52731.got.cif
#   From: 2010.05.17/outbox.cif.g08.bks.cpg/sg15_27_cif.got.tgz:52731.got - 2010.06.03 18:47:42.
