data_PCOD9275087
_publ_section_title
;
Structure prediction by ZEFSAII (Michael W. Deem and Ramdas Pophale) SiO2 
 PCOD9275087
Probable space group: C 2/C
;
_chemical_formula_sum "Si O2"
_cell_formula_units_Z 56
_cell_length_a 11.248095
_cell_length_b 29.431687
_cell_length_c 8.239977
_cell_angle_alpha 90.000000
_cell_angle_beta 110.966553
_cell_angle_gamma 90.000000
_cell_volume 2547.235524
_symmetry_space_group_name_H-M "C 2/C"
_symmetry_group_IT_number 15
_symmetry_cell_setting 'monoclinic'
loop_
_space_group_symop_operation_xyz
x,y,z
-x,y,1/2-z
-x,-y,-z
x,-y,1/2+z
1/2+x,1/2+y,z
1/2-x,1/2+y,1/2-z
1/2-x,1/2-y,-z
1/2+x,1/2-y,1/2+z
loop_
_atom_site_type_symbol
_atom_site_label
_atom_site_fract_x
_atom_site_fract_y
_atom_site_fract_z
Si Si1 0.633780 0.855999 0.874866
Si Si2 0.730917 0.048436 0.429067
Si Si3 0.004555 0.081240 0.443599
Si Si4 0.842473 0.208458 0.503390
Si Si5 0.861517 0.647141 0.730574
Si Si6 0.595018 0.678809 0.601670
Si Si7 0.770601 0.548157 0.683711
O O1 0.500000 0.837117 0.750000
O O2 0.650232 0.908181 0.832555
O O3 0.753405 0.827497 0.868167
O O4 0.639422 0.853392 0.073276
O O5 0.735622 0.048870 0.625501
O O6 0.873947 0.058291 0.436216
O O7 0.677278 0.000265 0.346042
O O8 0.032674 0.129129 0.545870
O O9 0.127465 0.051102 0.544434
O O10 0.000000 0.089569 0.250000
O O11 0.750000 0.250000 0.500000
O O12 0.876300 0.188652 0.696603
O O13 0.982564 0.213344 0.492240
O O14 0.738930 0.674763 0.603456
O O15 0.841418 0.594492 0.665870
O O16 0.000000 0.664092 0.750000
#
# Coordination Sequence:
#
# PCOD9275087 Si02
#       7
#     8   8   8   8   8   8   8
#     4  10  22  36  58  90 119 159 206 268 314 374
#     4  11  21  38  54  86 128 166 223 265 318 371
#     4  11  21  35  59  89 127 170 211 260 320 376
#     4  10  20  38  68  96 121 155 203 262 320 384
#     4   9  20  39  60  83 122 173 210 251 317 375
#     4   9  20  38  63  92 124 158 204 254 315 378
#     4  10  22  34  57  82 123 172 217 269 310 367
#
# _framework density 21.984617
#
# number of rings (size 3 to 8) (size 9 to 14) (size 15 to 20)
#    0.000    2.000    1.429    2.571    6.000    4.000 
#    0.000    2.857    0.000    7.714    0.000    0.000 
#    0.000    0.000    0.000    0.000    0.000    0.000 
#
# Total GULP energy -156184.096859 kJ/mol
# GULP energy per Si atom -5578.003459 kJ/mol
# Density = 2.193458 g / cm^3
# Si number density = 21.984617 Si / 1000 Ang^3
#
#
#
# Elastic Constant Matrix: (Units=GPa)
#
#
# Indices 1 2 3 4 5 6 
#
# 1 145.2398 35.4519 14.4511 0.0000 44.4907 0.0000
# 2 35.4519 65.3634 25.5761 0.0000 10.5582 0.0000
# 3 14.4511 25.5761 54.8433 0.0000 12.3448 0.0000
# 4 0.0000 0.0000 0.0000 16.1999 0.0000 -5.8382
# 5 44.4907 10.5582 12.3448 0.0000 34.6944 0.0000
# 6 0.0000 0.0000 0.0000 -5.8382 0.0000 19.6352
#
#
#
# Elastic Compliance Matrix: (Units=1/GPa)
#
#
# Indices 1 2 3 4 5 6 
#
# 1 0.012733 -0.005437 0.002700 0.000000 -0.015634 0.000000
# 2 -0.005437 0.021292 -0.009357 0.000000 0.003822 0.000000
# 3 0.002700 -0.009357 0.023942 0.000000 -0.009133 0.000000
# 4 0.000000 0.000000 0.000000 0.069137 0.000000 0.020557
# 5 -0.015634 0.003822 -0.009133 0.000000 0.050958 0.000000
# 6 0.000000 0.000000 0.000000 0.020557 0.000000 0.057041
#
#
# Mechanical properties :
#
#
# Convention : Reuss Voigt Hill
#
# Bulk Modulus (GPa) = 29.60545 46.26719 37.93632
# Shear Modulus (GPa) = 18.48077 26.77039 22.62558
#
# Velocity S-wave (km/s) = 2.90249 3.49332 3.21152
# Velocity P-wave (km/s) = 4.97276 6.11245 5.57182
#
# Compressibility (1/GPa) = 0.03377756
#
# Stress axis : x y z
#
# Youngs Moduli (GPa) = 78.53746 46.96600 41.76767
#
# Poissons Ratio (x) = 0.25535 -0.11275
# Poissons Ratio (y) = 0.42701 0.39083
# Poissons Ratio (z) = -0.21202 0.43947
#
# Static dielectric constant tensor:
#      x y z
#    x 2.069950 0.000000 -0.027970 
#    y 0.000000 1.879690 0.000000 
#    z -0.027970 0.000000 1.763720 
# 
# From -- ./inp_files/35300.got.cif
#   From: 2010.05.17/outbox.cif.g08.bks.cpg/sg15_18_cif.got.tgz:35300.got - 2010.06.03 18:47:42.
