data_PCOD9275425
_publ_section_title
;
Structure prediction by ZEFSAII (Michael W. Deem and Ramdas Pophale) SiO2 
 PCOD9275425
Probable space group: C 2/C
;
_chemical_formula_sum "Si O2"
_cell_formula_units_Z 48
_cell_length_a 10.998299
_cell_length_b 21.125983
_cell_length_c 9.509263
_cell_angle_alpha 90.000000
_cell_angle_beta 85.018454
_cell_angle_gamma 90.000000
_cell_volume 2201.130280
_symmetry_space_group_name_H-M "C 2/C"
_symmetry_group_IT_number 15
_symmetry_cell_setting 'monoclinic'
loop_
_space_group_symop_operation_xyz
x,y,z
-x,y,1/2-z
-x,-y,-z
x,-y,1/2+z
1/2+x,1/2+y,z
1/2-x,1/2+y,1/2-z
1/2-x,1/2-y,-z
1/2+x,1/2-y,1/2+z
loop_
_atom_site_type_symbol
_atom_site_label
_atom_site_fract_x
_atom_site_fract_y
_atom_site_fract_z
Si Si1 0.846245 0.988897 0.152023
Si Si2 0.178697 0.471512 0.413186
Si Si3 0.515985 0.628062 0.905382
Si Si4 0.525011 0.902240 0.905217
Si Si5 0.746082 0.822104 0.954053
Si Si6 0.377479 0.635051 0.185448
O O1 0.761698 0.952320 0.273419
O O2 0.965794 0.947871 0.108956
O O3 0.867008 0.059448 0.208129
O O4 0.767135 0.999530 0.021444
O O5 0.090902 0.529407 0.376811
O O6 0.096974 0.417786 0.494705
O O7 0.500000 0.653657 0.750000
O O8 0.642091 0.647125 0.969712
O O9 0.403390 0.644473 0.018375
O O10 0.500000 0.877750 0.750000
O O11 0.617144 0.857644 0.982744
O O12 0.772997 0.831625 0.784554
O O13 0.750000 0.750000 0.000000
O O14 0.500000 0.657272 0.250000
#
# Coordination Sequence:
#
# PCOD9275425 Si02
#       6
#     8   8   8   8   8   8
#     4  12  19  37  61  96 134 169 206 265 338 404
#     4  11  21  33  59  94 132 167 207 263 336 407
#     4  11  23  39  63  97 128 166 217 273 325 399
#     4  11  21  39  60  91 130 171 215 270 337 387
#     4  11  24  45  66  88 126 180 232 271 324 397
#     4  10  20  39  61  90 127 173 214 267 328 389
#
# _framework density 21.806978000000001
#
# number of rings (size 3 to 8) (size 9 to 14) (size 15 to 20)
#    0.000    1.000    5.000    3.000    0.000    0.667 
#    0.000    5.833    0.000    0.000    0.000    0.000 
#    0.000    0.000    0.000    0.000    0.000    0.000 
#
# Total GULP energy -134110.909416 kJ/mol
# GULP energy per Si atom -5587.954559 kJ/mol
# Density = 2.175734 g / cm^3
# Si number density = 21.806978 Si / 1000 Ang^3
#
#
#
# Elastic Constant Matrix: (Units=GPa)
#
#
# Indices 1 2 3 4 5 6 
#
# 1 79.3708 7.2247 43.7667 0.0000 6.5610 0.0000
# 2 7.2247 76.4576 23.4784 0.0000 -1.4884 0.0000
# 3 43.7667 23.4784 163.2945 0.0000 -9.7673 0.0000
# 4 0.0000 0.0000 0.0000 18.5978 0.0000 6.0481
# 5 6.5610 -1.4884 -9.7673 0.0000 34.4502 0.0000
# 6 0.0000 0.0000 0.0000 6.0481 0.0000 9.5066
#
#
#
# Elastic Compliance Matrix: (Units=1/GPa)
#
#
# Indices 1 2 3 4 5 6 
#
# 1 0.015352 -0.000201 -0.004335 0.000000 -0.004161 0.000000
# 2 -0.000201 0.013686 -0.001909 0.000000 0.000088 0.000000
# 3 -0.004335 -0.001909 0.007736 0.000000 0.002936 0.000000
# 4 0.000000 0.000000 0.000000 0.067797 0.000000 -0.043133
# 5 -0.004161 0.000088 0.002936 0.000000 0.030656 0.000000
# 6 0.000000 0.000000 0.000000 -0.043133 0.000000 0.132632
#
#
# Mechanical properties :
#
#
# Convention : Reuss Voigt Hill
#
# Bulk Modulus (GPa) = 41.86654 52.00693 46.93674
# Shear Modulus (GPa) = 17.31854 28.82112 23.06983
#
# Velocity S-wave (km/s) = 2.82117 3.63939 3.25608
# Velocity P-wave (km/s) = 5.46373 6.44676 5.97550
#
# Compressibility (1/GPa) = 0.02388542
#
# Stress axis : x y z
#
# Youngs Moduli (GPa) = 65.14006 73.06767 129.26989
#
# Poissons Ratio (x) = 0.01465 0.56034
# Poissons Ratio (y) = 0.01306 0.24674
# Poissons Ratio (z) = 0.28236 0.13947
#
# Static dielectric constant tensor:
#      x y z
#    x 1.862500 0.000000 -0.031600 
#    y 0.000000 1.800530 0.000000 
#    z -0.031600 0.000000 1.861180 
# 
# From -- ./inp_files/31925.got.cif
#   From: 2010.05.17/outbox.cif.g08.bks.cpg/sg15_16_cif.got.tgz:31925.got - 2010.06.03 18:47:42.
