data_PCOD9275719
_publ_section_title
;
Structure prediction by ZEFSAII (Michael W. Deem and Ramdas Pophale) SiO2 
 PCOD9275719
Probable space group: C 2/C
;
_chemical_formula_sum "Si O2"
_cell_formula_units_Z 64
_cell_length_a 14.063709
_cell_length_b 19.190713
_cell_length_c 23.136479
_cell_angle_alpha 90.000000
_cell_angle_beta 148.946776
_cell_angle_gamma 90.000000
_cell_volume 3221.056193
_symmetry_space_group_name_H-M "C 2/C"
_symmetry_group_IT_number 15
_symmetry_cell_setting 'monoclinic'
loop_
_space_group_symop_operation_xyz
x,y,z
-x,y,1/2-z
-x,-y,-z
x,-y,1/2+z
1/2+x,1/2+y,z
1/2-x,1/2+y,1/2-z
1/2-x,1/2-y,-z
1/2+x,1/2-y,1/2+z
loop_
_atom_site_type_symbol
_atom_site_label
_atom_site_fract_x
_atom_site_fract_y
_atom_site_fract_z
Si Si1 0.223803 0.471472 0.466606
Si Si2 0.989498 0.308076 0.496582
Si Si3 0.197519 0.813159 0.170702
Si Si4 0.128894 0.844401 0.261136
Si Si5 0.695174 0.464494 0.116072
Si Si6 0.519694 0.049421 0.065479
Si Si7 0.145965 0.995728 0.217564
Si Si8 0.617059 0.183443 0.937066
O O1 0.191495 0.485366 0.381673
O O2 0.431103 0.491608 0.594841
O O3 0.200000 0.388248 0.456914
O O4 0.090395 0.512300 0.440334
O O5 0.789268 0.291693 0.365698
O O6 0.106998 0.250021 0.589340
O O7 0.949564 0.373756 0.516412
O O8 0.094800 0.330776 0.493651
O O9 0.082699 0.821135 0.171274
O O10 0.182775 0.881515 0.122071
O O11 0.413602 0.805801 0.302058
O O12 0.000000 0.848029 0.250000
O O13 0.181485 0.924836 0.272472
O O14 0.740470 0.489844 0.203833
O O15 0.500000 0.500000 0.000000
O O16 0.738611 0.055148 0.191146
O O17 0.500000 0.000000 0.000000
O O18 0.750000 0.250000 0.000000
#
# Coordination Sequence:
#
# PCOD9275719 Si02
#       8
#     8   8   8   8   8   8   8   8
#     4  11  22  39  65  91 125 165 212 262 316 383
#     4  11  23  40  60  89 129 161 209 263 310 383
#     4  10  23  42  63  90 130 167 205 270 318 369
#     4  10  20  39  64  87 119 166 211 252 314 375
#     4   9  20  41  64  92 119 163 216 260 315 378
#     4  12  22  39  59  92 127 163 206 261 317 374
#     4  10  22  37  63  93 121 160 208 261 315 368
#     4  11  24  40  61  93 125 167 210 253 326 389
#
# _framework density 19.869257999999999
#
# number of rings (size 3 to 8) (size 9 to 14) (size 15 to 20)
#    0.000    1.500    2.500    3.000    1.750    4.000 
#    2.250    0.000    0.000    0.000    0.000    0.000 
#    0.000    0.000    0.000    0.000    0.000    0.000 
#
# Total GULP energy -178183.034805 kJ/mol
# GULP energy per Si atom -5568.219838 kJ/mol
# Density = 1.982403 g / cm^3
# Si number density = 19.869258 Si / 1000 Ang^3
#
#
#
# Elastic Constant Matrix: (Units=GPa)
#
#
# Indices 1 2 3 4 5 6 
#
# 1 112.6723 10.8387 47.3424 -0.0006 -4.7070 0.0000
# 2 10.8387 70.8960 47.8370 -0.0003 -8.4797 0.0000
# 3 47.3424 47.8370 110.6289 -0.0037 -10.3959 0.0000
# 4 -0.0006 -0.0003 -0.0037 20.5075 -0.0003 -0.7489
# 5 -4.7070 -8.4797 -10.3959 -0.0003 11.1453 0.0001
# 6 0.0000 0.0000 0.0000 -0.7489 0.0001 25.4351
#
#
#
# Elastic Compliance Matrix: (Units=1/GPa)
#
#
# Indices 1 2 3 4 5 6 
#
# 1 0.011055 0.002212 -0.005579 -0.000001 0.001147 0.000000
# 2 0.002212 0.020998 -0.009248 -0.000001 0.008284 0.000000
# 3 -0.005579 -0.009248 0.015940 0.000003 0.005476 0.000000
# 4 -0.000001 -0.000001 0.000003 0.048815 0.000003 0.001437
# 5 0.001147 0.008284 0.005476 0.000003 0.101619 0.000000
# 6 0.000000 0.000000 0.000000 0.001437 0.000000 0.039358
#
#
# Mechanical properties :
#
#
# Convention : Reuss Voigt Hill
#
# Bulk Modulus (GPa) = 43.93226 56.24814 50.09020
# Shear Modulus (GPa) = 18.47728 23.96287 21.22008
#
# Velocity S-wave (km/s) = 3.05281 3.47656 3.27155
# Velocity P-wave (km/s) = 5.88089 6.66977 6.28771
#
# Compressibility (1/GPa) = 0.02276231
#
# Stress axis : x y z
#
# Youngs Moduli (GPa) = 90.45861 47.62427 62.73440
#
# Poissons Ratio (x) = -0.10534 0.35002
# Poissons Ratio (y) = -0.20008 0.58015
# Poissons Ratio (z) = 0.50470 0.44041
#
# Static dielectric constant tensor:
#      x y z
#    x 1.760330 0.000000 0.034230 
#    y 0.000000 1.700200 0.000000 
#    z 0.034230 0.000000 1.891960 
# 
# From -- ./inp_files/274844.got.cif
#   From: 2010.05.17/outbox.cif.g08.bks.cpg/sg15_138_cif.got.tgz:274844.got - 2010.06.03 18:47:42.
