data_PCOD9275885
_publ_section_title
;
Structure prediction by ZEFSAII (Michael W. Deem and Ramdas Pophale) SiO2 
 PCOD9275885
Probable space group: C 2/C
;
_chemical_formula_sum "Si O2"
_cell_formula_units_Z 64
_cell_length_a 15.151106
_cell_length_b 24.388704
_cell_length_c 7.765464
_cell_angle_alpha 90.000000
_cell_angle_beta 93.181517
_cell_angle_gamma 90.000000
_cell_volume 2865.039304
_symmetry_space_group_name_H-M "C 2/C"
_symmetry_group_IT_number 15
_symmetry_cell_setting 'monoclinic'
loop_
_space_group_symop_operation_xyz
x,y,z
-x,y,1/2-z
-x,-y,-z
x,-y,1/2+z
1/2+x,1/2+y,z
1/2-x,1/2+y,1/2-z
1/2-x,1/2-y,-z
1/2+x,1/2-y,1/2+z
loop_
_atom_site_type_symbol
_atom_site_label
_atom_site_fract_x
_atom_site_fract_y
_atom_site_fract_z
Si Si1 0.929761 0.987063 0.345573
Si Si2 0.148538 0.363532 0.060404
Si Si3 0.975079 0.265358 0.560153
Si Si4 0.813920 0.800748 0.978157
Si Si5 0.095840 0.444215 0.344158
Si Si6 0.353531 0.062396 0.268862
Si Si7 0.410170 0.688633 0.138717
Si Si8 0.661753 0.425101 0.904758
O O1 0.845079 0.960454 0.422540
O O2 0.000000 0.949113 0.250000
O O3 0.897096 0.041130 0.241470
O O4 0.000000 0.000000 0.500000
O O5 0.138893 0.395045 0.239247
O O6 0.081893 0.311066 0.048169
O O7 0.252218 0.349366 0.039206
O O8 0.122505 0.399437 0.889864
O O9 0.907039 0.214041 0.576666
O O10 0.000000 0.286913 0.750000
O O11 0.060343 0.240912 0.470608
O O12 0.837512 0.802165 0.778863
O O13 0.750000 0.750000 0.000000
O O14 0.144882 0.500946 0.305892
O O15 0.089536 0.435019 0.548637
O O16 0.000000 0.450396 0.250000
O O17 0.257449 0.078265 0.332259
O O18 0.500000 0.674571 0.250000
O O19 0.377652 0.633435 0.047264
#
# Coordination Sequence:
#
# PCOD9275885 Si02
#       8
#     8   8   8   8   8   8   8   8
#     4   9  19  34  55  93 134 180 221 270 334 406
#     4  11  25  47  72 105 147 185 238 304 366 425
#     4  10  24  43  71 103 137 182 239 301 361 433
#     4   9  20  43  65  94 139 178 230 298 355 421
#     4  12  28  45  73 105 144 188 243 297 361 435
#     4  12  25  45  70 105 142 193 235 293 364 429
#     4  10  20  39  65  93 133 183 229 283 356 416
#     4  11  21  38  64  95 141 182 231 285 345 429
#
# _framework density 22.338262
#
# number of rings (size 3 to 8) (size 9 to 14) (size 15 to 20)
#    0.000    1.500    2.500    2.250    1.750    4.000 
#    0.000    2.500    0.000    0.000    0.000    0.000 
#    0.000    0.000    0.000    0.000    0.000    0.000 
#
# Total GULP energy -178356.108617 kJ/mol
# GULP energy per Si atom -5573.628394 kJ/mol
# Density = 2.228742 g / cm^3
# Si number density = 22.338262 Si / 1000 Ang^3
#
#
#
# Elastic Constant Matrix: (Units=GPa)
#
#
# Indices 1 2 3 4 5 6 
#
# 1 59.9272 10.7562 -7.3897 0.0000 -15.4929 0.0000
# 2 10.7562 79.4186 7.5307 0.0000 -13.0568 0.0000
# 3 -7.3897 7.5307 32.3564 0.0000 -4.0560 0.0000
# 4 0.0000 0.0000 0.0000 31.9308 0.0000 -7.2335
# 5 -15.4929 -13.0568 -4.0560 0.0000 40.0621 0.0000
# 6 0.0000 0.0000 0.0000 -7.2335 0.0000 27.7710
#
#
#
# Elastic Compliance Matrix: (Units=1/GPa)
#
#
# Indices 1 2 3 4 5 6 
#
# 1 0.019734 -0.001987 0.005920 0.000000 0.007583 0.000000
# 2 -0.001987 0.013722 -0.003224 0.000000 0.003377 0.000000
# 3 0.005920 -0.003224 0.033590 0.000000 0.004639 0.000000
# 4 0.000000 0.000000 0.000000 0.033282 0.000000 0.008669
# 5 0.007583 0.003377 0.004639 0.000000 0.029464 0.000000
# 6 0.000000 0.000000 0.000000 0.008669 0.000000 0.038267
#
#
# Mechanical properties :
#
#
# Convention : Reuss Voigt Hill
#
# Bulk Modulus (GPa) = 14.60649 21.49961 18.05305
# Shear Modulus (GPa) = 26.39055 30.67311 28.53183
#
# Velocity S-wave (km/s) = 3.44089 3.70958 3.57776
# Velocity P-wave (km/s) = 4.72644 5.29089 5.01661
#
# Compressibility (1/GPa) = 0.06846272
#
# Stress axis : x y z
#
# Youngs Moduli (GPa) = 50.67365 72.87774 29.77094
#
# Poissons Ratio (x) = 0.14483 -0.17625
# Poissons Ratio (y) = 0.10071 0.09599
# Poissons Ratio (z) = -0.29999 0.23497
#
# Static dielectric constant tensor:
#      x y z
#    x 1.886320 0.000000 -0.036840 
#    y 0.000000 2.034880 0.000000 
#    z -0.036840 0.000000 1.859590 
# 
# From -- ./inp_files/42637.got.cif
#   From: 2010.05.17/outbox.cif.g08.bks.cpg/sg15_22_cif.got.tgz:42637.got - 2010.06.03 18:47:42.
