data_PCOD9275862
_publ_section_title
;
Structure prediction by ZEFSAII (Michael W. Deem and Ramdas Pophale) SiO2 
 PCOD9275862
Probable space group: C 2/C
;
_chemical_formula_sum "Si O2"
_cell_formula_units_Z 44
_cell_length_a 4.823408
_cell_length_b 28.813621
_cell_length_c 13.550033
_cell_angle_alpha 90.000000
_cell_angle_beta 102.113983
_cell_angle_gamma 90.000000
_cell_volume 1841.246962
_symmetry_space_group_name_H-M "C 2/C"
_symmetry_group_IT_number 15
_symmetry_cell_setting 'monoclinic'
loop_
_space_group_symop_operation_xyz
x,y,z
-x,y,1/2-z
-x,-y,-z
x,-y,1/2+z
1/2+x,1/2+y,z
1/2-x,1/2+y,1/2-z
1/2-x,1/2-y,-z
1/2+x,1/2-y,1/2+z
loop_
_atom_site_type_symbol
_atom_site_label
_atom_site_fract_x
_atom_site_fract_y
_atom_site_fract_z
Si Si1 0.188934 0.746995 0.837898
Si Si2 0.067048 0.866709 0.040277
Si Si3 0.950379 0.306925 0.501750
Si Si4 0.500000 0.336945 0.250000
Si Si5 0.813827 0.490297 0.322117
Si Si6 0.727102 0.457497 0.524117
O O1 0.007557 0.727499 0.915355
O O2 0.290767 0.702125 0.782960
O O3 0.000000 0.776213 0.750000
O O4 0.428839 0.780189 0.896497
O O5 0.868807 0.822065 0.005535
O O6 0.944696 0.910582 0.973399
O O7 0.373133 0.852247 0.021568
O O8 0.017225 0.870837 0.155362
O O9 0.500000 0.499921 0.250000
O O10 0.826900 0.457503 0.418269
O O11 0.000000 0.468461 0.250000
O O12 0.015305 0.532463 0.380557
O O13 0.500000 0.500000 0.500000
#
# Coordination Sequence:
#
# PCOD9275862 Si02
#       6
#     8   8   8   4   8   8
#     4  10  20  39  65  91 128 172 222 256 353 404
#     4  11  25  42  62 104 134 169 228 287 336 394
#     4  10  24  39  63  92 135 171 208 285 327 406
#     4  10  22  38  68  98 128 166 222 290 340 396
#     4  11  24  44  71 102 132 190 233 280 354 419
#     4  11  26  45  74 104 143 188 238 293 352 425
#
# _framework density 23.896849
#
# number of rings (size 3 to 8) (size 9 to 14) (size 15 to 20)
#    0.000    1.455    3.636    0.000    8.909    2.182 
#    3.273    2.727    0.000    0.000    0.000    0.000 
#    0.000    0.000    0.000    0.000    0.000    0.000 
#
# Total GULP energy -122599.058217 kJ/mol
# GULP energy per Si atom -5572.684464 kJ/mol
# Density = 2.384246 g / cm^3
# Si number density = 23.896849 Si / 1000 Ang^3
#
#
#
# Elastic Constant Matrix: (Units=GPa)
#
#
# Indices 1 2 3 4 5 6 
#
# 1 93.1392 12.9504 28.2500 0.0000 4.0901 0.0000
# 2 12.9504 60.6279 -7.3070 0.0000 9.9015 0.0000
# 3 28.2500 -7.3070 72.8631 0.0000 30.1071 0.0000
# 4 0.0000 0.0000 0.0000 -0.5211 0.0000 -2.7518
# 5 4.0901 9.9015 30.1071 0.0000 41.7108 0.0000
# 6 0.0000 0.0000 0.0000 -2.7518 0.0000 21.4147
#
#
#
# Elastic Compliance Matrix: (Units=1/GPa)
#
#
# Indices 1 2 3 4 5 6 
#
# 1 0.013611 -0.004805 -0.008093 0.000000 0.005647 0.000000
# 2 -0.004805 0.020149 0.008073 0.000000 -0.010139 0.000000
# 3 -0.008093 0.008073 0.025843 0.000000 -0.019777 0.000000
# 4 0.000000 0.000000 0.000000 -1.143174 0.000000 -0.146901
# 5 0.005647 -0.010139 -0.019777 0.000000 0.040103 0.000000
# 6 0.000000 0.000000 0.000000 -0.146901 0.000000 0.027820
#
#
# Mechanical properties :
#
#
# Convention : Reuss Voigt Hill
#
# Bulk Modulus (GPa) = 20.01799 32.71302 26.36550
# Shear Modulus (GPa) = -5.05384 25.36999 10.15807
#
# Velocity S-wave (km/s) = -1.45583 3.26183 2.06398
# Velocity P-wave (km/s) = 2.35989 5.28252 4.09109
#
# Compressibility (1/GPa) = 0.04995508
#
# Stress axis : x y z
#
# Youngs Moduli (GPa) = 73.46830 49.62941 38.69458
#
# Poissons Ratio (x) = 0.23847 0.31314
# Poissons Ratio (y) = 0.35302 -0.31239
# Poissons Ratio (z) = 0.59455 -0.40067
#
# Static dielectric constant tensor:
#      x y z
#    x 1.850920 0.000000 -0.357350 
#    y 0.000000 1.916140 0.000000 
#    z -0.357350 0.000000 1.472140 
# 
# From -- ./inp_files/129891.got.cif
#   From: 2010.05.17/outbox.cif.g08.bks.cpg/sg15_65_cif.got.tgz:129891.got - 2010.06.03 18:47:42.
