data_PCOD9275045
_publ_section_title
;
Structure prediction by ZEFSAII (Michael W. Deem and Ramdas Pophale) SiO2 
 PCOD9275045
Probable space group: C 2/C
;
_chemical_formula_sum "Si O2"
_cell_formula_units_Z 40
_cell_length_a 13.115765
_cell_length_b 8.435828
_cell_length_c 12.300072
_cell_angle_alpha 90.000000
_cell_angle_beta 93.909772
_cell_angle_gamma 90.000000
_cell_volume 1357.741427
_symmetry_space_group_name_H-M "C 2/C"
_symmetry_group_IT_number 15
_symmetry_cell_setting 'monoclinic'
loop_
_space_group_symop_operation_xyz
x,y,z
-x,y,1/2-z
-x,-y,-z
x,-y,1/2+z
1/2+x,1/2+y,z
1/2-x,1/2+y,1/2-z
1/2-x,1/2-y,-z
1/2+x,1/2-y,1/2+z
loop_
_atom_site_type_symbol
_atom_site_label
_atom_site_fract_x
_atom_site_fract_y
_atom_site_fract_z
Si Si1 0.500000 0.407404 0.250000
Si Si2 0.854188 0.366644 0.811421
Si Si3 0.383817 0.840324 0.208111
Si Si4 0.654054 0.707308 0.066557
Si Si5 0.355418 0.586240 0.070978
Si Si6 0.500000 0.000000 0.000000
O O1 0.596646 0.300234 0.217864
O O2 0.443413 0.514477 0.155440
O O3 0.843666 0.482554 0.707526
O O4 0.756017 0.405396 0.879951
O O5 0.946933 0.440998 0.885867
O O6 0.500000 0.823821 0.250000
O O7 0.329068 0.746103 0.303836
O O8 0.374695 0.775766 0.084328
O O9 0.638466 0.521443 0.034470
O O10 0.567245 0.825602 0.016101
O O11 0.750000 0.750000 0.000000
#
# Coordination Sequence:
#
# PCOD9275045 Si02
#       6
#     4   8   8   8   8   4
#     4  12  24  42  74 102 146 200 238 306 368 440
#     4  11  23  41  72 102 139 189 247 296 369 440
#     4  11  24  44  65 104 146 183 236 314 367 431
#     4  11  23  44  73 106 146 195 247 309 376 441
#     4  12  24  44  71 107 142 194 245 298 377 442
#     4  10  20  38  68 106 132 184 248 300 358 438
#
# _framework density 29.46069
#
# number of rings (size 3 to 8) (size 9 to 14) (size 15 to 20)
#    0.000    0.800    8.000    1.200    0.000    0.800 
#    0.000    0.000    0.000    7.200    0.000    0.000 
#    0.000    0.000    0.000    0.000    0.000    0.000 
#
# Total GULP energy -111483.475048 kJ/mol
# GULP energy per Si atom -5574.173752 kJ/mol
# Density = 2.939364 g / cm^3
# Si number density = 29.460690 Si / 1000 Ang^3
#
#
#
# Elastic Constant Matrix: (Units=GPa)
#
#
# Indices 1 2 3 4 5 6 
#
# 1 142.9540 61.4810 33.0848 0.0000 -44.5881 0.0000
# 2 61.4810 120.9835 73.3600 0.0000 -11.1195 0.0000
# 3 33.0848 73.3600 136.5457 0.0000 -14.5763 0.0000
# 4 0.0000 0.0000 0.0000 53.4224 0.0000 -2.7186
# 5 -44.5881 -11.1195 -14.5763 0.0000 55.8255 0.0000
# 6 0.0000 0.0000 0.0000 -2.7186 0.0000 47.6634
#
#
#
# Elastic Compliance Matrix: (Units=1/GPa)
#
#
# Indices 1 2 3 4 5 6 
#
# 1 0.012048 -0.006103 0.001293 0.000000 0.008745 0.000000
# 2 -0.006103 0.015381 -0.007178 0.000000 -0.003685 0.000000
# 3 0.001293 -0.007178 0.011135 0.000000 0.002510 0.000000
# 4 0.000000 0.000000 0.000000 0.018773 0.000000 0.001071
# 5 0.008745 -0.003685 0.002510 0.000000 0.024819 0.000000
# 6 0.000000 0.000000 0.000000 0.001071 0.000000 0.021042
#
#
# Mechanical properties :
#
#
# Convention : Reuss Voigt Hill
#
# Bulk Modulus (GPa) = 68.54985 81.81499 75.18242
# Shear Modulus (GPa) = 37.86826 46.88607 42.37716
#
# Velocity S-wave (km/s) = 3.58911 3.99366 3.79678
# Velocity P-wave (km/s) = 6.36352 7.00692 6.69296
#
# Compressibility (1/GPa) = 0.01458793
#
# Stress axis : x y z
#
# Youngs Moduli (GPa) = 82.99838 65.01581 89.80945
#
# Poissons Ratio (x) = 0.39680 -0.11614
# Poissons Ratio (y) = 0.50655 0.64466
# Poissons Ratio (z) = -0.10733 0.46669
#
# Static dielectric constant tensor:
#      x y z
#    x 2.087810 0.000000 0.114940 
#    y 0.000000 2.661740 0.000000 
#    z 0.114940 0.000000 2.167680 
# 
# From -- ./inp_files/150741.got.cif
#   From: 2010.05.17/outbox.cif.g08.bks.cpg/sg15_76_cif.got.tgz:150741.got - 2010.06.03 18:47:42.
