data_PCOD9275710
_publ_section_title
;
Structure prediction by ZEFSAII (Michael W. Deem and Ramdas Pophale) SiO2 
 PCOD9275710
Probable space group: C 2/C
;
_chemical_formula_sum "Si O2"
_cell_formula_units_Z 44
_cell_length_a 15.664648
_cell_length_b 19.677596
_cell_length_c 8.974773
_cell_angle_alpha 90.000000
_cell_angle_beta 55.593173
_cell_angle_gamma 90.000000
_cell_volume 2282.413923
_symmetry_space_group_name_H-M "C 2/C"
_symmetry_group_IT_number 15
_symmetry_cell_setting 'monoclinic'
loop_
_space_group_symop_operation_xyz
x,y,z
-x,y,1/2-z
-x,-y,-z
x,-y,1/2+z
1/2+x,1/2+y,z
1/2-x,1/2+y,1/2-z
1/2-x,1/2-y,-z
1/2+x,1/2-y,1/2+z
loop_
_atom_site_type_symbol
_atom_site_label
_atom_site_fract_x
_atom_site_fract_y
_atom_site_fract_z
Si Si1 0.636499 0.570769 0.376188
Si Si2 0.500000 0.513494 0.250000
Si Si3 0.635336 0.951034 0.758483
Si Si4 0.184495 0.655937 0.954499
Si Si5 0.547803 0.901324 0.348331
Si Si6 0.882240 0.807303 0.405011
O O1 0.576012 0.556230 0.283097
O O2 0.571799 0.532018 0.570145
O O3 0.755079 0.545158 0.263302
O O4 0.641781 0.649270 0.422935
O O5 0.651354 0.904976 0.596974
O O6 0.597051 0.026090 0.756084
O O7 0.546062 0.916771 0.945795
O O8 0.140837 0.727870 0.053963
O O9 0.136207 0.640619 0.843337
O O10 0.307527 0.662845 0.850612
O O11 0.500000 0.867627 0.250000
O O12 0.000000 0.817250 0.250000
#
# Coordination Sequence:
#
# PCOD9275710 Si02
#       6
#     8   4   8   8   8   8
#     4  10  22  37  60  87 115 157 193 247 292 352
#     4  10  22  38  56  88 120 150 196 246 294 350
#     4  10  21  36  59  85 117 155 198 236 293 353
#     4  10  22  39  62  85 118 158 200 240 283 360
#     4  11  22  35  56  91 120 151 188 250 301 337
#     4  10  20  39  64  85 112 161 205 232 287 353
#
# _framework density 19.277836000000001
#
# number of rings (size 3 to 8) (size 9 to 14) (size 15 to 20)
#    0.000    1.818    0.909    3.818    7.636    0.000 
#    1.636    0.000    0.000    4.364    0.000    0.000 
#    0.000    0.000    0.000    0.000    0.000    0.000 
#
# Total GULP energy -122882.915992 kJ/mol
# GULP energy per Si atom -5585.587091 kJ/mol
# Density = 1.923396 g / cm^3
# Si number density = 19.277836 Si / 1000 Ang^3
#
#
#
# Elastic Constant Matrix: (Units=GPa)
#
#
# Indices 1 2 3 4 5 6 
#
# 1 206.5602 48.8405 49.3536 0.0000 9.1225 0.0000
# 2 48.8405 38.8279 11.6220 0.0000 -0.5256 0.0000
# 3 49.3536 11.6220 34.0182 0.0000 -3.3145 0.0000
# 4 0.0000 0.0000 0.0000 7.9462 0.0000 -2.7062
# 5 9.1225 -0.5256 -3.3145 0.0000 43.5261 0.0000
# 6 0.0000 0.0000 0.0000 -2.7062 0.0000 21.5500
#
#
#
# Elastic Compliance Matrix: (Units=1/GPa)
#
#
# Indices 1 2 3 4 5 6 
#
# 1 0.009854 -0.008988 -0.011524 0.000000 -0.003051 0.000000
# 2 -0.008988 0.036893 0.000667 0.000000 0.002380 0.000000
# 3 -0.011524 0.000667 0.046467 0.000000 0.005962 0.000000
# 4 0.000000 0.000000 0.000000 0.131469 0.000000 0.016510
# 5 -0.003051 0.002380 0.005962 0.000000 0.024097 0.000000
# 6 0.000000 0.000000 0.000000 0.016510 0.000000 0.048477
#
#
# Mechanical properties :
#
#
# Convention : Reuss Voigt Hill
#
# Bulk Modulus (GPa) = 18.68238 55.44870 37.06554
# Shear Modulus (GPa) = 14.09295 25.91047 20.00171
#
# Velocity S-wave (km/s) = 2.70672 3.67011 3.22460
# Velocity P-wave (km/s) = 4.41368 6.83996 5.75611
#
# Compressibility (1/GPa) = 0.05352636
#
# Stress axis : x y z
#
# Youngs Moduli (GPa) = 101.47749 27.10577 21.52046
#
# Poissons Ratio (x) = 0.24362 0.24799
# Poissons Ratio (y) = 0.91204 -0.01436
# Poissons Ratio (z) = 1.16938 -0.01809
#
# Static dielectric constant tensor:
#      x y z
#    x 1.701530 0.000000 0.001450 
#    y 0.000000 1.668300 0.000000 
#    z 0.001450 0.000000 1.660360 
# 
# From -- ./inp_files/39772.got.cif
#   From: 2010.05.17/outbox.cif.g08.bks.cpg/sg15_20_cif.got.tgz:39772.got - 2010.06.03 18:47:42.
