data_PCOD9275976
_publ_section_title
;
Structure prediction by ZEFSAII (Michael W. Deem and Ramdas Pophale) SiO2 
 PCOD9275976
Probable space group: C 2/C
;
_chemical_formula_sum "Si O2"
_cell_formula_units_Z 64
_cell_length_a 13.689341
_cell_length_b 30.764432
_cell_length_c 11.481518
_cell_angle_alpha 90.000000
_cell_angle_beta 138.649028
_cell_angle_gamma 90.000000
_cell_volume 3194.590372
_symmetry_space_group_name_H-M "C 2/C"
_symmetry_group_IT_number 15
_symmetry_cell_setting 'monoclinic'
loop_
_space_group_symop_operation_xyz
x,y,z
-x,y,1/2-z
-x,-y,-z
x,-y,1/2+z
1/2+x,1/2+y,z
1/2-x,1/2+y,1/2-z
1/2-x,1/2-y,-z
1/2+x,1/2-y,1/2+z
loop_
_atom_site_type_symbol
_atom_site_label
_atom_site_fract_x
_atom_site_fract_y
_atom_site_fract_z
Si Si1 0.443664 0.071477 0.904275
Si Si2 0.114622 0.515790 0.249715
Si Si3 0.319690 0.202599 0.581253
Si Si4 0.326346 0.141840 0.374690
Si Si5 0.353827 0.415054 0.967001
Si Si6 0.333371 0.389750 0.209185
Si Si7 0.504522 0.215879 0.114340
Si Si8 0.692065 0.701345 0.717651
O O1 0.315012 0.094405 0.862110
O O2 0.377409 0.036092 0.757162
O O3 0.543448 0.041206 0.077099
O O4 0.553321 0.109097 0.961053
O O5 0.271551 0.538898 0.403344
O O6 0.000000 0.525327 0.250000
O O7 0.500000 0.204036 0.750000
O O8 0.250000 0.250000 0.500000
O O9 0.272304 0.172163 0.431293
O O10 0.249722 0.188554 0.641299
O O11 0.208655 0.113221 0.196749
O O12 0.409530 0.173482 0.357075
O O13 0.314984 0.391379 0.054110
O O14 0.529870 0.419211 0.127312
O O15 0.375288 0.341265 0.284499
O O16 0.500000 0.218086 0.250000
O O17 0.582776 0.257949 0.127690
O O18 0.337965 0.213864 0.919931
#
# Coordination Sequence:
#
# PCOD9275976 Si02
#       8
#     8   8   8   8   8   8   8   8
#     4  10  21  38  64  95 122 160 214 270 316 406
#     4  10  20  39  66  94 122 161 210 260 336 396
#     4  12  23  43  62  88 129 176 227 270 320 387
#     4  11  23  41  65  92 126 175 225 265 332 378
#     4  10  24  39  66  95 129 168 206 275 331 407
#     4  11  22  41  63  96 133 164 215 266 337 384
#     4  12  25  40  63  93 131 170 223 275 324 383
#     4  12  25  41  62  96 127 177 217 274 322 378
#
# _framework density 20.033867000000001
#
# number of rings (size 3 to 8) (size 9 to 14) (size 15 to 20)
#    0.000    1.000    5.000    1.125    3.500    3.000 
#    0.000    0.000    0.000    0.000    0.000    0.000 
#    0.000    0.000    0.000    0.000    0.000    0.000 
#
# Total GULP energy -178728.600315 kJ/mol
# GULP energy per Si atom -5585.268760 kJ/mol
# Density = 1.998827 g / cm^3
# Si number density = 20.033867 Si / 1000 Ang^3
#
#
#
# Elastic Constant Matrix: (Units=GPa)
#
#
# Indices 1 2 3 4 5 6 
#
# 1 64.8006 22.9488 26.5549 0.0000 -17.8187 0.0000
# 2 22.9488 96.3799 17.0997 0.0000 -11.9814 0.0000
# 3 26.5549 17.0997 75.3171 0.0000 -5.0735 0.0000
# 4 0.0000 0.0000 0.0000 -2.7904 0.0000 16.3917
# 5 -17.8187 -11.9814 -5.0735 0.0000 24.9304 0.0000
# 6 0.0000 0.0000 0.0000 16.3917 0.0000 -9.4005
#
#
#
# Elastic Compliance Matrix: (Units=1/GPa)
#
#
# Indices 1 2 3 4 5 6 
#
# 1 0.022790 -0.002561 -0.006529 0.000000 0.013729 0.000000
# 2 -0.002561 0.011687 -0.001516 0.000000 0.003477 0.000000
# 3 -0.006529 -0.001516 0.015776 0.000000 -0.002184 0.000000
# 4 0.000000 0.000000 0.000000 0.038772 0.000000 0.067607
# 5 0.013729 0.003477 -0.002184 0.000000 0.051151 0.000000
# 6 0.000000 0.000000 0.000000 0.067607 0.000000 0.011509
#
#
# Mechanical properties :
#
#
# Convention : Reuss Voigt Hill
#
# Bulk Modulus (GPa) = 34.43489 41.07827 37.75658
# Shear Modulus (GPa) = 27.38586 13.87419 20.63003
#
# Velocity S-wave (km/s) = 3.70128 2.63446 3.21247
# Velocity P-wave (km/s) = 5.95748 5.45919 5.71377
#
# Compressibility (1/GPa) = 0.02904031
#
# Stress axis : x y z
#
# Youngs Moduli (GPa) = 43.87962 85.56702 63.38706
#
# Poissons Ratio (x) = 0.21917 0.41384
# Poissons Ratio (y) = 0.11239 0.09609
# Poissons Ratio (z) = 0.28648 0.12972
#
# Static dielectric constant tensor:
#      x y z
#    x 1.658890 0.000000 0.047700 
#    y 0.000000 1.728310 0.000000 
#    z 0.047700 0.000000 1.609040 
# 
# From -- ./inp_files/101664.got.cif
#   From: 2010.05.17/outbox.cif.g08.bks.cpg/sg15_51_cif.got.tgz:101664.got - 2010.06.03 18:47:42.
