data_PCOD9275615
_publ_section_title
;
Structure prediction by ZEFSAII (Michael W. Deem and Ramdas Pophale) SiO2 
 PCOD9275615
Probable space group: C 2/C
;
_chemical_formula_sum "Si O2"
_cell_formula_units_Z 48
_cell_length_a 20.096153
_cell_length_b 19.530236
_cell_length_c 9.090885
_cell_angle_alpha 90.000000
_cell_angle_beta 39.393967
_cell_angle_gamma 90.000000
_cell_volume 2264.437209
_symmetry_space_group_name_H-M "C 2/C"
_symmetry_group_IT_number 15
_symmetry_cell_setting 'monoclinic'
loop_
_space_group_symop_operation_xyz
x,y,z
-x,y,1/2-z
-x,-y,-z
x,-y,1/2+z
1/2+x,1/2+y,z
1/2-x,1/2+y,1/2-z
1/2-x,1/2-y,-z
1/2+x,1/2-y,1/2+z
loop_
_atom_site_type_symbol
_atom_site_label
_atom_site_fract_x
_atom_site_fract_y
_atom_site_fract_z
Si Si1 0.707214 0.481318 0.691412
Si Si2 0.286554 0.911205 0.833153
Si Si3 0.705486 0.203727 0.703462
Si Si4 0.513939 0.171815 0.397870
Si Si5 0.845704 0.785331 0.418931
Si Si6 0.118748 0.907331 0.565968
O O1 0.777062 0.436865 0.683124
O O2 0.777894 0.527282 0.463050
O O3 0.638138 0.435967 0.697980
O O4 0.641037 0.531487 0.911654
O O5 0.391695 0.869160 0.688249
O O6 0.181795 0.864698 0.037127
O O7 0.750000 0.250000 0.500000
O O8 0.793912 0.151271 0.607743
O O9 0.599677 0.164552 0.836568
O O10 0.667007 0.254449 0.897133
O O11 0.500000 0.150005 0.250000
O O12 0.551721 0.251624 0.327232
O O13 0.750000 0.750000 0.500000
O O14 0.000000 0.882691 0.750000
#
# Coordination Sequence:
#
# PCOD9275615 Si02
#       6
#     8   8   8   8   8   8
#     4  10  22  40  62  89 118 158 207 243 290 359
#     4  10  20  39  63  89 123 160 200 246 294 357
#     4  11  23  38  60  95 123 149 200 258 307 351
#     4   9  19  38  62  91 123 158 197 244 303 374
#     4   9  18  36  61  85 116 159 196 234 298 366
#     4  11  23  41  61  85 120 158 199 251 302 355
#
# _framework density 21.197317999999999
#
# number of rings (size 3 to 8) (size 9 to 14) (size 15 to 20)
#    0.000    2.000    0.000    4.500    0.000    4.000 
#    0.000   26.667    0.000    0.000    0.000    0.000 
#    0.000    0.000    0.000    0.000    0.000    0.000 
#
# Total GULP energy -133978.411729 kJ/mol
# GULP energy per Si atom -5582.433822 kJ/mol
# Density = 2.114907 g / cm^3
# Si number density = 21.197318 Si / 1000 Ang^3
#
#
#
# Elastic Constant Matrix: (Units=GPa)
#
#
# Indices 1 2 3 4 5 6 
#
# 1 142.0317 50.6542 62.2326 0.0000 -14.2567 0.0000
# 2 50.6542 75.6646 23.6287 0.0000 -9.7249 0.0000
# 3 62.2326 23.6287 79.9330 0.0000 -23.3434 0.0000
# 4 0.0000 0.0000 0.0000 20.2295 0.0000 1.6011
# 5 -14.2567 -9.7249 -23.3434 0.0000 47.8046 0.0000
# 6 0.0000 0.0000 0.0000 1.6011 0.0000 26.7803
#
#
#
# Elastic Compliance Matrix: (Units=1/GPa)
#
#
# Indices 1 2 3 4 5 6 
#
# 1 0.012861 -0.006108 -0.008689 0.000000 -0.001650 0.000000
# 2 -0.006108 0.017503 0.000104 0.000000 0.001790 0.000000
# 3 -0.008689 0.000104 0.021570 0.000000 0.007963 0.000000
# 4 0.000000 0.000000 0.000000 0.049668 0.000000 -0.002969
# 5 -0.001650 0.001790 0.007963 0.000000 0.024679 0.000000
# 6 0.000000 0.000000 0.000000 -0.002969 0.000000 0.037518
#
#
# Mechanical properties :
#
#
# Convention : Reuss Voigt Hill
#
# Bulk Modulus (GPa) = 44.35036 63.40671 53.87853
# Shear Modulus (GPa) = 24.91274 29.70380 27.30827
#
# Velocity S-wave (km/s) = 3.43195 3.74746 3.59317
# Velocity P-wave (km/s) = 6.05578 6.97869 6.53355
#
# Compressibility (1/GPa) = 0.02254773
#
# Stress axis : x y z
#
# Youngs Moduli (GPa) = 77.75594 57.13323 46.36074
#
# Poissons Ratio (x) = 0.34899 0.40283
# Poissons Ratio (y) = 0.47496 -0.00484
# Poissons Ratio (z) = 0.67563 -0.00597
#
# Static dielectric constant tensor:
#      x y z
#    x 1.756500 0.000000 -0.035820 
#    y 0.000000 1.797330 0.000000 
#    z -0.035820 0.000000 1.739790 
# 
# From -- ./inp_files/57690.got.cif
#   From: 2010.05.17/outbox.cif.g08.bks.cpg/sg15_29_cif.got.tgz:57690.got - 2010.06.03 18:47:42.
