data_PCOD9275485
_publ_section_title
;
Structure prediction by ZEFSAII (Michael W. Deem and Ramdas Pophale) SiO2 
 PCOD9275485
Probable space group: C 2/C
;
_chemical_formula_sum "Si O2"
_cell_formula_units_Z 48
_cell_length_a 9.557871
_cell_length_b 12.480266
_cell_length_c 17.282954
_cell_angle_alpha 90.000000
_cell_angle_beta 71.565039
_cell_angle_gamma 90.000000
_cell_volume 1955.798931
_symmetry_space_group_name_H-M "C 2/C"
_symmetry_group_IT_number 15
_symmetry_cell_setting 'monoclinic'
loop_
_space_group_symop_operation_xyz
x,y,z
-x,y,1/2-z
-x,-y,-z
x,-y,1/2+z
1/2+x,1/2+y,z
1/2-x,1/2+y,1/2-z
1/2-x,1/2-y,-z
1/2+x,1/2-y,1/2+z
loop_
_atom_site_type_symbol
_atom_site_label
_atom_site_fract_x
_atom_site_fract_y
_atom_site_fract_z
Si Si1 0.789939 0.972514 0.316894
Si Si2 0.956404 0.551070 0.403646
Si Si3 0.164799 0.597608 0.688533
Si Si4 0.868132 0.773967 0.410638
Si Si5 0.634482 0.317190 0.625733
Si Si6 0.946753 0.710376 0.001758
O O1 0.623327 0.016176 0.358879
O O2 0.889598 0.069092 0.331804
O O3 0.786103 0.945548 0.226518
O O4 0.824959 0.865915 0.359475
O O5 0.845374 0.459499 0.393889
O O6 0.907276 0.659048 0.365506
O O7 0.961616 0.604710 0.488615
O O8 0.169785 0.725594 0.681512
O O9 0.000000 0.573770 0.750000
O O10 0.750000 0.750000 0.500000
O O11 0.012038 0.796597 0.438811
O O12 0.779638 0.324834 0.546440
O O13 0.519422 0.261949 0.586725
#
# Coordination Sequence:
#
# PCOD9275485 Si02
#       6
#     8   8   8   8   8   8
#     4  10  22  39  60  90 126 165 207 259 318 384
#     4   8  20  39  59  87 118 162 206 255 307 375
#     4  10  22  37  64  86 119 167 210 255 311 389
#     4  10  22  37  64  94 119 159 216 262 304 383
#     4  10  20  39  62  87 127 160 206 261 320 388
#     4   8  20  38  60  90 116 162 199 258 324 362
#
# _framework density 24.542400000000001
#
# number of rings (size 3 to 8) (size 9 to 14) (size 15 to 20)
#    1.000    1.667    0.000    0.000    7.000    6.000 
#    0.000    2.500    0.000    0.000    0.000    0.000 
#    0.000    0.000    0.000    0.000    0.000    0.000 
#
# Total GULP energy -133621.782345 kJ/mol
# GULP energy per Si atom -5567.574264 kJ/mol
# Density = 2.448654 g / cm^3
# Si number density = 24.542400 Si / 1000 Ang^3
#
#
#
# Elastic Constant Matrix: (Units=GPa)
#
#
# Indices 1 2 3 4 5 6 
#
# 1 44.0153 39.6557 28.5229 0.0000 -1.1351 0.0000
# 2 39.6557 173.1750 50.6440 0.0000 29.1961 0.0000
# 3 28.5229 50.6440 103.4971 0.0000 23.0186 0.0000
# 4 0.0000 0.0000 0.0000 39.8521 0.0000 13.1410
# 5 -1.1351 29.1961 23.0186 0.0000 24.6901 0.0000
# 6 0.0000 0.0000 0.0000 13.1410 0.0000 30.3525
#
#
#
# Elastic Compliance Matrix: (Units=1/GPa)
#
#
# Indices 1 2 3 4 5 6 
#
# 1 0.039577 -0.009763 -0.011483 0.000000 0.024070 0.000000
# 2 -0.009763 0.009986 0.000669 0.000000 -0.012881 0.000000
# 3 -0.011483 0.000669 0.016139 0.000000 -0.016366 0.000000
# 4 0.000000 0.000000 0.000000 0.029272 0.000000 -0.012673
# 5 0.024070 -0.012881 -0.016366 0.000000 0.072098 0.000000
# 6 0.000000 0.000000 0.000000 -0.012673 0.000000 0.038433
#
#
# Mechanical properties :
#
#
# Convention : Reuss Voigt Hill
#
# Bulk Modulus (GPa) = 40.73570 62.03695 51.38632
# Shear Modulus (GPa) = 19.61997 32.43661 26.02829
#
# Velocity S-wave (km/s) = 2.83049 3.63940 3.26013
# Velocity P-wave (km/s) = 5.22650 6.55688 5.92912
#
# Compressibility (1/GPa) = 0.02454849
#
# Stress axis : x y z
#
# Youngs Moduli (GPa) = 25.26708 100.13900 61.96037
#
# Poissons Ratio (x) = 0.97762 0.71151
# Poissons Ratio (y) = 0.24667 -0.04144
# Poissons Ratio (z) = 0.29015 -0.06698
#
# Static dielectric constant tensor:
#      x y z
#    x 2.123090 0.000000 0.079870 
#    y 0.000000 1.986300 0.000000 
#    z 0.079870 0.000000 2.018030 
# 
# From -- ./inp_files/236618.got.cif
#   From: 2010.05.17/outbox.cif.g08.bks.cpg/sg15_119_cif.got.tgz:236618.got - 2010.06.03 18:47:42.
