data_PCOD9275133
_publ_section_title
;
Structure prediction by ZEFSAII (Michael W. Deem and Ramdas Pophale) SiO2 
 PCOD9275133
Probable space group: C 2/C
;
_chemical_formula_sum "Si O2"
_cell_formula_units_Z 48
_cell_length_a 5.355776
_cell_length_b 17.386437
_cell_length_c 25.947151
_cell_angle_alpha 90.000000
_cell_angle_beta 65.557019
_cell_angle_gamma 90.000000
_cell_volume 2199.592790
_symmetry_space_group_name_H-M "C 2/C"
_symmetry_group_IT_number 15
_symmetry_cell_setting 'monoclinic'
loop_
_space_group_symop_operation_xyz
x,y,z
-x,y,1/2-z
-x,-y,-z
x,-y,1/2+z
1/2+x,1/2+y,z
1/2-x,1/2+y,1/2-z
1/2-x,1/2-y,-z
1/2+x,1/2-y,1/2+z
loop_
_atom_site_type_symbol
_atom_site_label
_atom_site_fract_x
_atom_site_fract_y
_atom_site_fract_z
Si Si1 0.157150 0.197420 0.554345
Si Si2 0.259723 0.680781 0.374787
Si Si3 0.000000 0.791728 0.250000
Si Si4 0.000000 0.811410 0.750000
Si Si5 0.616714 0.975835 0.934477
Si Si6 0.830917 0.059001 0.594499
Si Si7 0.899728 0.325826 0.135290
O O1 0.250000 0.250000 0.500000
O O2 0.368177 0.160188 0.576877
O O3 0.984114 0.256520 0.605025
O O4 0.985332 0.125004 0.547404
O O5 0.358678 0.647494 0.311173
O O6 0.174238 0.614224 0.420936
O O7 0.503727 0.737299 0.371272
O O8 0.252516 0.740959 0.249475
O O9 0.126098 0.837455 0.191330
O O10 0.375472 0.001705 0.916300
O O11 0.917911 0.014422 0.900768
O O12 0.500000 0.000000 0.000000
O O13 0.623756 0.117107 0.641325
#
# Coordination Sequence:
#
# PCOD9275133 Si02
#       7
#     8   8   4   4   8   8   8
#     4  11  22  40  68 100 131 164 215 270 328 390
#     4  10  24  38  69  94 126 171 219 270 322 385
#     4  10  20  38  69  96 127 160 218 276 328 382
#     4  10  20  40  63  98 125 162 220 276 320 382
#     4  12  26  43  64  93 135 176 217 264 332 396
#     4  11  25  43  62  91 135 171 211 265 326 394
#     4  10  22  42  68  97 128 167 220 271 327 387
#
# _framework density 21.822219
#
# number of rings (size 3 to 8) (size 9 to 14) (size 15 to 20)
#    0.000    1.333    3.333    1.500    4.667    1.333 
#    0.000    0.833    3.667    0.000    0.000    0.000 
#    0.000    0.000    0.000    0.000    0.000    0.000 
#
# Total GULP energy -133623.170020 kJ/mol
# GULP energy per Si atom -5567.632084 kJ/mol
# Density = 2.177255 g / cm^3
# Si number density = 21.822219 Si / 1000 Ang^3
#
#
#
# Elastic Constant Matrix: (Units=GPa)
#
#
# Indices 1 2 3 4 5 6 
#
# 1 131.9978 25.2524 12.6499 0.0000 -5.2635 0.0000
# 2 25.2524 87.4554 -1.1816 0.0000 -4.9479 0.0000
# 3 12.6499 -1.1816 83.9567 0.0000 -4.0914 0.0000
# 4 0.0000 0.0000 0.0000 17.6982 0.0000 -2.5309
# 5 -5.2635 -4.9479 -4.0914 0.0000 22.2576 0.0000
# 6 0.0000 0.0000 0.0000 -2.5309 0.0000 30.9879
#
#
#
# Elastic Compliance Matrix: (Units=1/GPa)
#
#
# Indices 1 2 3 4 5 6 
#
# 1 0.008181 -0.002311 -0.001207 0.000000 0.001199 0.000000
# 2 -0.002311 0.012240 0.000632 0.000000 0.002291 0.000000
# 3 -0.001207 0.000632 0.012204 0.000000 0.002098 0.000000
# 4 0.000000 0.000000 0.000000 0.057171 0.000000 0.004669
# 5 0.001199 0.002291 0.002098 0.000000 0.046107 0.000000
# 6 0.000000 0.000000 0.000000 0.004669 0.000000 0.032652
#
#
# Mechanical properties :
#
#
# Convention : Reuss Voigt Hill
#
# Bulk Modulus (GPa) = 37.23834 41.87235 39.55535
# Shear Modulus (GPa) = 27.28106 31.96800 29.62453
#
# Velocity S-wave (km/s) = 3.53958 3.83159 3.68848
# Velocity P-wave (km/s) = 5.81432 6.22932 6.02539
#
# Compressibility (1/GPa) = 0.02685404
#
# Stress axis : x y z
#
# Youngs Moduli (GPa) = 122.22793 81.70080 81.94104
#
# Poissons Ratio (x) = 0.18880 0.09889
# Poissons Ratio (y) = 0.28245 -0.05179
# Poissons Ratio (z) = 0.14750 -0.05164
#
# Static dielectric constant tensor:
#      x y z
#    x 1.880980 0.000000 -0.011230 
#    y 0.000000 1.810740 0.000000 
#    z -0.011230 0.000000 1.880310 
# 
# From -- ./inp_files/261099.got.cif
#   From: 2010.05.17/outbox.cif.g08.bks.cpg/sg15_131_cif.got.tgz:261099.got - 2010.06.03 18:47:42.
