data_PCOD9275731
_publ_section_title
;
Structure prediction by ZEFSAII (Michael W. Deem and Ramdas Pophale) SiO2 
 PCOD9275731
Probable space group: C 2/C
;
_chemical_formula_sum "Si O2"
_cell_formula_units_Z 44
_cell_length_a 9.177067
_cell_length_b 31.418945
_cell_length_c 8.263030
_cell_angle_alpha 90.000000
_cell_angle_beta 131.817625
_cell_angle_gamma 90.000000
_cell_volume 1775.615842
_symmetry_space_group_name_H-M "C 2/C"
_symmetry_group_IT_number 15
_symmetry_cell_setting 'monoclinic'
loop_
_space_group_symop_operation_xyz
x,y,z
-x,y,1/2-z
-x,-y,-z
x,-y,1/2+z
1/2+x,1/2+y,z
1/2-x,1/2+y,1/2-z
1/2-x,1/2-y,-z
1/2+x,1/2-y,1/2+z
loop_
_atom_site_type_symbol
_atom_site_label
_atom_site_fract_x
_atom_site_fract_y
_atom_site_fract_z
Si Si1 0.113061 0.634163 0.575164
Si Si2 0.719878 0.513782 0.712014
Si Si3 0.483341 0.365681 0.929812
Si Si4 0.751510 0.562349 0.067283
Si Si5 0.000000 0.580128 0.750000
Si Si6 0.290037 0.700179 0.509558
O O1 0.150754 0.599808 0.463595
O O2 0.115970 0.678244 0.483260
O O3 0.950753 0.612309 0.565927
O O4 0.301351 0.639046 0.832013
O O5 0.500000 0.500000 0.500000
O O6 0.710222 0.530119 0.887585
O O7 0.838449 0.469755 0.766629
O O8 0.825457 0.549901 0.682719
O O9 0.500000 0.367339 0.750000
O O10 0.408874 0.409653 0.956640
O O11 0.338186 0.327150 0.881970
O O12 0.500000 0.693017 0.750000
O O13 0.250000 0.750000 0.500000
#
# Coordination Sequence:
#
# PCOD9275731 Si02
#       6
#     8   8   8   8   4   8
#     4   9  19  39  60  84 123 169 204 264 330 385
#     4  11  21  36  58  83 115 164 215 269 321 369
#     4  10  20  39  64  89 119 167 214 257 331 398
#     4  10  21  36  57  82 119 165 215 265 322 377
#     4  10  22  38  58  88 124 164 224 266 318 386
#     4   9  19  41  68  93 129 168 205 263 335 401
#
# _framework density 24.780132999999999
#
# number of rings (size 3 to 8) (size 9 to 14) (size 15 to 20)
#    0.000    2.182    0.000    5.455    0.000    7.273 
#    4.909    1.818    4.000    0.000    0.000    0.000 
#    0.000    0.000    0.000    0.000    0.000    0.000 
#
# Total GULP energy -122796.636108 kJ/mol
# GULP energy per Si atom -5581.665278 kJ/mol
# Density = 2.472373 g / cm^3
# Si number density = 24.780133 Si / 1000 Ang^3
#
#
#
# Elastic Constant Matrix: (Units=GPa)
#
#
# Indices 1 2 3 4 5 6 
#
# 1 165.1362 63.9526 67.1518 0.0000 -32.6576 0.0000
# 2 63.9526 209.4200 51.3492 0.0000 -45.2994 0.0000
# 3 67.1518 51.3492 143.5275 0.0000 -25.0363 0.0000
# 4 0.0000 0.0000 0.0000 25.3939 0.0000 6.6733
# 5 -32.6576 -45.2994 -25.0363 0.0000 55.6962 0.0000
# 6 0.0000 0.0000 0.0000 6.6733 0.0000 18.4729
#
#
#
# Elastic Compliance Matrix: (Units=1/GPa)
#
#
# Indices 1 2 3 4 5 6 
#
# 1 0.008240 -0.001251 -0.002976 0.000000 0.002476 0.000000
# 2 -0.001251 0.006239 -0.000965 0.000000 0.003907 0.000000
# 3 -0.002976 -0.000965 0.008967 0.000000 0.001501 0.000000
# 4 0.000000 0.000000 0.000000 0.043510 0.000000 -0.015718
# 5 0.002476 0.003907 0.001501 0.000000 0.023259 0.000000
# 6 0.000000 0.000000 0.000000 -0.015718 0.000000 0.059811
#
#
# Mechanical properties :
#
#
# Convention : Reuss Voigt Hill
#
# Bulk Modulus (GPa) = 76.56031 98.11008 87.33519
# Shear Modulus (GPa) = 30.34655 42.28793 36.31724
#
# Velocity S-wave (km/s) = 3.50327 4.13549 3.83244
# Velocity P-wave (km/s) = 6.87945 7.90451 7.40972
#
# Compressibility (1/GPa) = 0.01306160
#
# Stress axis : x y z
#
# Youngs Moduli (GPa) = 121.36153 160.28491 111.52459
#
# Poissons Ratio (x) = 0.20052 0.33185
# Poissons Ratio (y) = 0.15182 0.10765
# Poissons Ratio (z) = 0.36113 0.15472
#
# Static dielectric constant tensor:
#      x y z
#    x 2.939250 0.000000 0.267180 
#    y 0.000000 2.008270 0.000000 
#    z 0.267180 0.000000 2.107700 
# 
# From -- ./inp_files/25681.got.cif
#   From: 2010.05.17/outbox.cif.g08.bks.cpg/sg15_13_cif.got.tgz:25681.got - 2010.06.03 18:47:42.
