data_PCOD9275409
_publ_section_title
;
Structure prediction by ZEFSAII (Michael W. Deem and Ramdas Pophale) SiO2 
 PCOD9275409
Probable space group: C 2/C
;
_chemical_formula_sum "Si O2"
_cell_formula_units_Z 56
_cell_length_a 10.810744
_cell_length_b 35.514015
_cell_length_c 9.099294
_cell_angle_alpha 90.000000
_cell_angle_beta 46.665511
_cell_angle_gamma 90.000000
_cell_volume 2541.044958
_symmetry_space_group_name_H-M "C 2/C"
_symmetry_group_IT_number 15
_symmetry_cell_setting 'monoclinic'
loop_
_space_group_symop_operation_xyz
x,y,z
-x,y,1/2-z
-x,-y,-z
x,-y,1/2+z
1/2+x,1/2+y,z
1/2-x,1/2+y,1/2-z
1/2-x,1/2-y,-z
1/2+x,1/2-y,1/2+z
loop_
_atom_site_type_symbol
_atom_site_label
_atom_site_fract_x
_atom_site_fract_y
_atom_site_fract_z
Si Si1 0.429163 0.947713 0.158151
Si Si2 0.524282 0.797291 0.407000
Si Si3 0.159436 0.101913 0.508683
Si Si4 0.908981 0.227158 0.665013
Si Si5 0.656379 0.130933 0.885807
Si Si6 0.985593 0.154475 0.435446
Si Si7 0.663015 0.974609 0.724497
O O1 0.500000 0.931348 0.250000
O O2 0.370258 0.913319 0.110488
O O3 0.292731 0.980954 0.299954
O O4 0.591036 0.965097 0.943345
O O5 0.500000 0.794347 0.250000
O O6 0.712961 0.786538 0.316422
O O7 0.409344 0.766926 0.581872
O O8 0.504661 0.840619 0.473076
O O9 0.282446 0.130992 0.495684
O O10 0.221395 0.059625 0.423525
O O11 0.000000 0.099574 0.750000
O O12 0.107955 0.122825 0.402018
O O13 0.009903 0.195358 0.489786
O O14 0.000000 0.229410 0.750000
O O15 0.801043 0.141610 0.648404
O O16 0.000000 0.157152 0.250000
O O17 0.500000 0.974568 0.750000
#
# Coordination Sequence:
#
# PCOD9275409 Si02
#       7
#     8   8   8   8   8   8   8
#     4  10  21  36  61  86 125 158 206 257 310 373
#     4  11  23  41  64  95 128 163 210 266 322 374
#     4  10  21  41  63  88 124 164 211 259 312 380
#     4  11  23  44  65  91 129 172 210 260 324 387
#     4  10  21  41  60  88 126 163 203 261 311 379
#     4  10  22  39  62  87 122 165 206 255 318 374
#     4  10  20  39  61  88 119 166 204 254 320 373
#
# _framework density 22.038176
#
# number of rings (size 3 to 8) (size 9 to 14) (size 15 to 20)
#    0.000    1.714    1.429    3.857    2.000    1.143 
#    5.143    3.571    0.000    0.000    0.000    0.000 
#    0.000    0.000    0.000    0.000    0.000    0.000 
#
# Total GULP energy -156151.378775 kJ/mol
# GULP energy per Si atom -5576.834956 kJ/mol
# Density = 2.198802 g / cm^3
# Si number density = 22.038176 Si / 1000 Ang^3
#
#
#
# Elastic Constant Matrix: (Units=GPa)
#
#
# Indices 1 2 3 4 5 6 
#
# 1 46.7817 9.0959 20.1617 0.0000 22.9082 0.0000
# 2 9.0959 136.7123 30.2176 0.0000 5.0836 0.0000
# 3 20.1617 30.2176 61.1638 0.0000 27.1124 0.0000
# 4 0.0000 0.0000 0.0000 24.3647 0.0000 -3.0693
# 5 22.9082 5.0836 27.1124 0.0000 35.3258 0.0000
# 6 0.0000 0.0000 0.0000 -3.0693 0.0000 8.8079
#
#
#
# Elastic Compliance Matrix: (Units=1/GPa)
#
#
# Indices 1 2 3 4 5 6 
#
# 1 0.031627 -0.001096 -0.001307 0.000000 -0.019349 0.000000
# 2 -0.001096 0.008454 -0.005443 0.000000 0.003671 0.000000
# 3 -0.001307 -0.005443 0.028413 0.000000 -0.020176 0.000000
# 4 0.000000 0.000000 0.000000 0.042927 0.000000 0.014959
# 5 -0.019349 0.003671 -0.020176 0.000000 0.055812 0.000000
# 6 0.000000 0.000000 0.000000 0.014959 0.000000 0.118747
#
#
# Mechanical properties :
#
#
# Convention : Reuss Voigt Hill
#
# Bulk Modulus (GPa) = 18.93865 40.40089 29.66977
# Shear Modulus (GPa) = 15.66059 26.04520 20.85290
#
# Velocity S-wave (km/s) = 2.66862 3.44149 3.07940
# Velocity P-wave (km/s) = 4.25530 5.84499 5.11231
#
# Compressibility (1/GPa) = 0.05280208
#
# Stress axis : x y z
#
# Youngs Moduli (GPa) = 31.61859 118.28628 35.19524
#
# Poissons Ratio (x) = 0.12962 0.04601
# Poissons Ratio (y) = 0.03465 0.19156
# Poissons Ratio (z) = 0.04133 0.64382
#
# Static dielectric constant tensor:
#      x y z
#    x 1.937840 0.000000 -0.016800 
#    y 0.000000 1.891180 0.000000 
#    z -0.016800 0.000000 1.829950 
# 
# From -- ./inp_files/35548.got.cif
#   From: 2010.05.17/outbox.cif.g08.bks.cpg/sg15_18_cif.got.tgz:35548.got - 2010.06.03 18:47:42.
