data_PCOD9275948
_publ_section_title
;
Structure prediction by ZEFSAII (Michael W. Deem and Ramdas Pophale) SiO2 
 PCOD9275948
Probable space group: C 2/C
;
_chemical_formula_sum "Si O2"
_cell_formula_units_Z 48
_cell_length_a 11.733659
_cell_length_b 20.131588
_cell_length_c 11.525802
_cell_angle_alpha 90.000000
_cell_angle_beta 128.161509
_cell_angle_gamma 90.000000
_cell_volume 2140.698720
_symmetry_space_group_name_H-M "C 2/C"
_symmetry_group_IT_number 15
_symmetry_cell_setting 'monoclinic'
loop_
_space_group_symop_operation_xyz
x,y,z
-x,y,1/2-z
-x,-y,-z
x,-y,1/2+z
1/2+x,1/2+y,z
1/2-x,1/2+y,1/2-z
1/2-x,1/2-y,-z
1/2+x,1/2-y,1/2+z
loop_
_atom_site_type_symbol
_atom_site_label
_atom_site_fract_x
_atom_site_fract_y
_atom_site_fract_z
Si Si1 0.398864 0.346906 0.081696
Si Si2 0.081175 0.783312 0.023030
Si Si3 0.382465 0.188955 0.753072
Si Si4 0.403274 0.036784 0.300661
Si Si5 0.690944 0.920528 0.115100
Si Si6 0.851154 0.681068 0.225678
O O1 0.500000 0.319736 0.250000
O O2 0.512059 0.346944 0.045811
O O3 0.312283 0.406855 0.092538
O O4 0.276907 0.301384 0.943781
O O5 0.242287 0.801194 0.084952
O O6 0.119545 0.726883 0.144984
O O7 0.970721 0.752149 0.860467
O O8 0.500000 0.150821 0.750000
O O9 0.327382 0.148066 0.828293
O O10 0.500000 0.015343 0.250000
O O11 0.534211 0.062138 0.464509
O O12 0.313142 0.104394 0.229024
O O13 0.298279 0.980475 0.286129
O O14 0.000000 0.676034 0.250000
#
# Coordination Sequence:
#
# PCOD9275948 Si02
#       6
#     8   8   8   8   8   8
#     4  12  23  39  65  99 132 160 213 273 328 376
#     4  12  24  39  66  95 133 170 208 275 328 385
#     4  12  25  42  61  94 133 172 217 262 328 397
#     4  10  20  39  66  90 123 167 222 265 307 380
#     4  11  22  38  64  96 121 168 217 266 313 374
#     4  11  21  38  64  96 127 166 217 263 321 378
#
# _framework density 22.422585999999999
#
# number of rings (size 3 to 8) (size 9 to 14) (size 15 to 20)
#    0.000    0.667    8.333    1.500    0.000    2.000 
#    0.000    0.833    0.000    1.000    0.000    0.000 
#    0.000    0.000    0.000    0.000    0.000    0.000 
#
# Total GULP energy -133618.154940 kJ/mol
# GULP energy per Si atom -5567.423123 kJ/mol
# Density = 2.237155 g / cm^3
# Si number density = 22.422586 Si / 1000 Ang^3
#
#
#
# Elastic Constant Matrix: (Units=GPa)
#
#
# Indices 1 2 3 4 5 6 
#
# 1 96.3590 34.3501 10.4016 0.0000 22.0514 0.0000
# 2 34.3501 83.5834 -7.6443 0.0000 -4.8430 0.0000
# 3 10.4016 -7.6443 76.5261 0.0000 21.9321 0.0000
# 4 0.0000 0.0000 0.0000 5.4652 0.0000 -21.7598
# 5 22.0514 -4.8430 21.9321 0.0000 36.7479 0.0000
# 6 0.0000 0.0000 0.0000 -21.7598 0.0000 24.2631
#
#
#
# Elastic Compliance Matrix: (Units=1/GPa)
#
#
# Indices 1 2 3 4 5 6 
#
# 1 0.015063 -0.006757 0.000149 0.000000 -0.010019 0.000000
# 2 -0.006757 0.015140 0.000841 0.000000 0.005549 0.000000
# 3 0.000149 0.000841 0.015833 0.000000 -0.009428 0.000000
# 4 0.000000 0.000000 0.000000 -0.071177 0.000000 -0.063833
# 5 -0.010019 0.005549 -0.009428 0.000000 0.039583 0.000000
# 6 0.000000 0.000000 0.000000 -0.063833 0.000000 -0.016032
#
#
# Mechanical properties :
#
#
# Convention : Reuss Voigt Hill
#
# Bulk Modulus (GPa) = 28.98537 36.74260 32.86399
# Shear Modulus (GPa) = 233.14545 27.91931 130.53238
#
# Velocity S-wave (km/s) = 10.20802 3.53249 7.63813
# Velocity P-wave (km/s) = 12.32449 5.74978 9.61647
#
# Compressibility (1/GPa) = 0.03450016
#
# Stress axis : x y z
#
# Youngs Moduli (GPa) = 66.38602 66.05203 63.15816
#
# Poissons Ratio (x) = 0.44634 -0.00940
# Poissons Ratio (y) = 0.44860 -0.05309
# Poissons Ratio (z) = -0.00988 -0.05552
#
# Static dielectric constant tensor:
#      x y z
#    x 1.867610 0.000000 -0.029000 
#    y 0.000000 1.914740 0.000000 
#    z -0.029000 0.000000 1.958050 
# 
# From -- ./inp_files/89772.got.cif
#   From: 2010.05.17/outbox.cif.g08.bks.cpg/sg15_45_cif.got.tgz:89772.got - 2010.06.03 18:47:42.
