data_PCOD9275951
_publ_section_title
;
Structure prediction by ZEFSAII (Michael W. Deem and Ramdas Pophale) SiO2 
 PCOD9275951
Probable space group: C 2/C
;
_chemical_formula_sum "Si O2"
_cell_formula_units_Z 48
_cell_length_a 12.590232
_cell_length_b 14.058834
_cell_length_c 12.187160
_cell_angle_alpha 90.000000
_cell_angle_beta 106.246494
_cell_angle_gamma 90.000000
_cell_volume 2071.033290
_symmetry_space_group_name_H-M "C 2/C"
_symmetry_group_IT_number 15
_symmetry_cell_setting 'monoclinic'
loop_
_space_group_symop_operation_xyz
x,y,z
-x,y,1/2-z
-x,-y,-z
x,-y,1/2+z
1/2+x,1/2+y,z
1/2-x,1/2+y,1/2-z
1/2-x,1/2-y,-z
1/2+x,1/2-y,1/2+z
loop_
_atom_site_type_symbol
_atom_site_label
_atom_site_fract_x
_atom_site_fract_y
_atom_site_fract_z
Si Si1 0.221273 0.570384 0.244955
Si Si2 0.678337 0.158976 0.441416
Si Si3 0.844722 0.626780 0.688573
Si Si4 0.963772 0.703828 0.912876
Si Si5 0.292422 0.457447 0.524596
Si Si6 0.972602 0.910668 0.866251
O O1 0.171775 0.652118 0.308074
O O2 0.149692 0.476580 0.251192
O O3 0.240836 0.585012 0.122151
O O4 0.348128 0.552271 0.324579
O O5 0.750000 0.250000 0.500000
O O6 0.566751 0.159594 0.479891
O O7 0.735211 0.059257 0.491584
O O8 0.860736 0.696636 0.796013
O O9 0.737107 0.615649 0.581476
O O10 0.939256 0.653156 0.627345
O O11 0.981936 0.814761 0.937738
O O12 0.423354 0.475196 0.573451
O O13 0.000000 0.878356 0.750000
#
# Coordination Sequence:
#
# PCOD9275951 Si02
#       6
#     8   8   8   8   8   8
#     4  10  21  40  63  94 127 167 215 268 323 383
#     4  11  22  40  67  92 130 171 210 267 329 380
#     4  10  22  39  64  91 128 167 213 265 315 392
#     4  11  21  42  61  93 128 172 211 260 335 381
#     4  10  23  40  67  98 121 173 225 261 321 396
#     4  10  20  39  66  90 126 169 218 264 321 383
#
# _framework density 23.176836999999999
#
# number of rings (size 3 to 8) (size 9 to 14) (size 15 to 20)
#    0.000    1.667    5.000    0.000    0.000    6.000 
#    0.000    0.000    0.000    0.000    0.000    0.000 
#    0.000    0.000    0.000    0.000    0.000    0.000 
#
# Total GULP energy -133861.525387 kJ/mol
# GULP energy per Si atom -5577.563558 kJ/mol
# Density = 2.312409 g / cm^3
# Si number density = 23.176837 Si / 1000 Ang^3
#
#
#
# Elastic Constant Matrix: (Units=GPa)
#
#
# Indices 1 2 3 4 5 6 
#
# 1 73.1279 21.2341 8.9311 0.0000 -25.2264 0.0000
# 2 21.2341 52.4738 -6.2072 0.0000 -1.0700 0.0000
# 3 8.9311 -6.2072 87.4259 0.0000 -19.2871 0.0000
# 4 0.0000 0.0000 0.0000 20.7986 0.0000 -3.0099
# 5 -25.2264 -1.0700 -19.2871 0.0000 44.7700 0.0000
# 6 0.0000 0.0000 0.0000 -3.0099 0.0000 39.8855
#
#
#
# Elastic Compliance Matrix: (Units=1/GPa)
#
#
# Indices 1 2 3 4 5 6 
#
# 1 0.019688 -0.007766 -0.000173 0.000000 0.010834 0.000000
# 2 -0.007766 0.022337 0.001692 0.000000 -0.003113 0.000000
# 3 -0.000173 0.001692 0.012778 0.000000 0.005448 0.000000
# 4 0.000000 0.000000 0.000000 0.048611 0.000000 0.003668
# 5 0.010834 -0.003113 0.005448 0.000000 0.030713 0.000000
# 6 0.000000 0.000000 0.000000 0.003668 0.000000 0.025349
#
#
# Mechanical properties :
#
#
# Convention : Reuss Voigt Hill
#
# Bulk Modulus (GPa) = 23.63549 28.99374 26.31462
# Shear Modulus (GPa) = 26.87133 33.69548 30.28340
#
# Velocity S-wave (km/s) = 3.40870 3.81707 3.61865
# Velocity P-wave (km/s) = 5.07073 5.65364 5.37010
#
# Compressibility (1/GPa) = 0.04230926
#
# Stress axis : x y z
#
# Youngs Moduli (GPa) = 50.79220 44.76954 78.25996
#
# Poissons Ratio (x) = 0.34770 0.01351
# Poissons Ratio (y) = 0.39448 -0.13245
# Poissons Ratio (z) = 0.00877 -0.07577
#
# Static dielectric constant tensor:
#      x y z
#    x 1.918660 0.000000 -0.000660 
#    y 0.000000 1.917810 0.000000 
#    z -0.000660 0.000000 1.952090 
# 
# From -- ./inp_files/143742.got.cif
#   From: 2010.05.17/outbox.cif.g08.bks.cpg/sg15_72_cif.got.tgz:143742.got - 2010.06.03 18:47:42.
