data_PCOD9275853
_publ_section_title
;
Structure prediction by ZEFSAII (Michael W. Deem and Ramdas Pophale) SiO2 
 PCOD9275853
Probable space group: C 2/C
;
_chemical_formula_sum "Si O2"
_cell_formula_units_Z 60
_cell_length_a 22.659809
_cell_length_b 21.813338
_cell_length_c 8.377987
_cell_angle_alpha 90.000000
_cell_angle_beta 145.273890
_cell_angle_gamma 90.000000
_cell_volume 2359.007374
_symmetry_space_group_name_H-M "C 2/C"
_symmetry_group_IT_number 15
_symmetry_cell_setting 'monoclinic'
loop_
_space_group_symop_operation_xyz
x,y,z
-x,y,1/2-z
-x,-y,-z
x,-y,1/2+z
1/2+x,1/2+y,z
1/2-x,1/2+y,1/2-z
1/2-x,1/2-y,-z
1/2+x,1/2-y,1/2+z
loop_
_atom_site_type_symbol
_atom_site_label
_atom_site_fract_x
_atom_site_fract_y
_atom_site_fract_z
Si Si1 0.366369 0.193192 0.495471
Si Si2 0.871673 0.363949 0.680972
Si Si3 0.000000 0.802823 0.750000
Si Si4 0.232067 0.395872 0.467987
Si Si5 0.776280 0.717118 0.730864
Si Si6 0.163144 0.027229 0.079582
Si Si7 0.609041 0.982332 0.967384
Si Si8 0.865771 0.093997 0.805504
O O1 0.411578 0.163119 0.436139
O O2 0.429544 0.253878 0.688299
O O3 0.336439 0.144103 0.561613
O O4 0.259413 0.230506 0.225277
O O5 0.914659 0.428662 0.714202
O O6 0.752594 0.382056 0.458107
O O7 0.874730 0.313057 0.545835
O O8 0.936041 0.847720 0.495080
O O9 0.271438 0.349443 0.418624
O O10 0.334448 0.426564 0.767369
O O11 0.154415 0.444425 0.217460
O O12 0.750000 0.750000 0.500000
O O13 0.289081 0.021551 0.341861
O O14 0.124932 0.960192 0.041978
O O15 0.116573 0.058744 0.821939
O O16 0.500000 0.015217 0.750000
#
# Coordination Sequence:
#
# PCOD9275853 Si02
#       8
#     8   8   4   8   8   8   8   8
#     4  11  22  39  64  96 130 173 220 278 330 403
#     4  10  20  39  65  90 128 177 216 272 337 415
#     4  12  28  38  62 102 142 172 226 286 318 404
#     4  10  21  40  65  98 126 177 216 273 344 404
#     4   9  19  35  62  88 124 169 219 261 321 407
#     4  11  22  44  72  91 132 183 227 281 338 404
#     4  10  23  40  62 100 138 164 216 286 343 408
#     4  11  24  44  67  98 129 179 234 278 342 393
#
# _framework density 25.434428
#
# number of rings (size 3 to 8) (size 9 to 14) (size 15 to 20)
#    0.000    1.600    4.000    0.400    1.867    1.067 
#    1.200    0.000    0.000    4.800    0.000    0.000 
#    0.000    0.000    0.000    0.000    0.000    0.000 
#
# Total GULP energy -167227.527523 kJ/mol
# GULP energy per Si atom -5574.250917 kJ/mol
# Density = 2.537654 g / cm^3
# Si number density = 25.434428 Si / 1000 Ang^3
#
#
#
# Elastic Constant Matrix: (Units=GPa)
#
#
# Indices 1 2 3 4 5 6 
#
# 1 38.2871 33.9792 32.2428 0.0000 -19.3320 0.0000
# 2 33.9792 127.8850 48.8273 0.0000 -19.8396 0.0000
# 3 32.2428 48.8273 75.3319 0.0000 -24.3865 0.0000
# 4 0.0000 0.0000 0.0000 46.0313 0.0000 -5.5502
# 5 -19.3320 -19.8396 -24.3865 0.0000 36.0036 0.0000
# 6 0.0000 0.0000 0.0000 -5.5502 0.0000 31.0753
#
#
#
# Elastic Compliance Matrix: (Units=1/GPa)
#
#
# Indices 1 2 3 4 5 6 
#
# 1 0.049466 -0.006104 -0.012432 0.000000 0.014776 0.000000
# 2 -0.006104 0.011207 -0.004756 0.000000 -0.000323 0.000000
# 3 -0.012432 -0.004756 0.023912 0.000000 0.006900 0.000000
# 4 0.000000 0.000000 0.000000 0.022203 0.000000 0.003965
# 5 0.014776 -0.000323 0.006900 0.000000 0.040205 0.000000
# 6 0.000000 0.000000 0.000000 0.003965 0.000000 0.032888
#
#
# Mechanical properties :
#
#
# Convention : Reuss Voigt Hill
#
# Bulk Modulus (GPa) = 26.31536 52.40029 39.35782
# Shear Modulus (GPa) = 20.90891 31.05235 25.98063
#
# Velocity S-wave (km/s) = 2.87029 3.49790 3.19952
# Velocity P-wave (km/s) = 4.62099 6.07952 5.39973
#
# Compressibility (1/GPa) = 0.03800062
#
# Stress axis : x y z
#
# Youngs Moduli (GPa) = 20.21583 89.22870 41.81967
#
# Poissons Ratio (x) = 0.54467 0.51991
# Poissons Ratio (y) = 0.12340 0.19890
# Poissons Ratio (z) = 0.25133 0.42438
#
# Static dielectric constant tensor:
#      x y z
#    x 2.412250 0.000000 0.076560 
#    y 0.000000 2.005470 0.000000 
#    z 0.076560 0.000000 2.113900 
# 
# From -- ./inp_files/70963.got.cif
#   From: 2010.05.17/outbox.cif.g08.bks.cpg/sg15_36_cif.got.tgz:70963.got - 2010.06.03 18:47:42.
