data_PCOD9275757
_publ_section_title
;
Structure prediction by ZEFSAII (Michael W. Deem and Ramdas Pophale) SiO2 
 PCOD9275757
Probable space group: C 2/C
;
_chemical_formula_sum "Si O2"
_cell_formula_units_Z 36
_cell_length_a 7.783725
_cell_length_b 19.971779
_cell_length_c 13.789257
_cell_angle_alpha 90.000000
_cell_angle_beta 138.308437
_cell_angle_gamma 90.000000
_cell_volume 1425.756537
_symmetry_space_group_name_H-M "C 2/C"
_symmetry_group_IT_number 15
_symmetry_cell_setting 'monoclinic'
loop_
_space_group_symop_operation_xyz
x,y,z
-x,y,1/2-z
-x,-y,-z
x,-y,1/2+z
1/2+x,1/2+y,z
1/2-x,1/2+y,1/2-z
1/2-x,1/2-y,-z
1/2+x,1/2-y,1/2+z
loop_
_atom_site_type_symbol
_atom_site_label
_atom_site_fract_x
_atom_site_fract_y
_atom_site_fract_z
Si Si1 0.000000 0.488248 0.250000
Si Si2 0.810571 0.753706 0.880132
Si Si3 0.766466 0.539814 0.852551
Si Si4 0.257269 0.174703 0.326800
Si Si5 0.273383 0.108113 0.050574
O O1 0.865047 0.448700 0.283348
O O2 0.781781 0.537665 0.110591
O O3 0.500000 0.738346 0.750000
O O4 0.857602 0.766471 0.787717
O O5 0.847152 0.824019 0.955794
O O6 0.028180 0.704141 0.011212
O O7 0.500000 0.500281 0.750000
O O8 0.700522 0.595983 0.907326
O O9 0.000000 0.500000 0.000000
O O10 0.422994 0.127117 0.327536
O O11 0.000000 0.139135 0.250000
#
# Coordination Sequence:
#
# PCOD9275757 Si02
#       5
#     4   8   8   8   8
#     4  10  20  44  66  94 134 174 222 272 336 388
#     4  10  20  39  64  91 130 179 218 268 332 405
#     4  10  24  42  67  97 130 173 227 281 328 398
#     4  11  22  38  64  98 135 171 222 279 331 398
#     4  10  20  39  64  92 129 179 216 256 341 399
#
# _framework density 25.249752999999998
#
# number of rings (size 3 to 8) (size 9 to 14) (size 15 to 20)
#    0.000    1.778    3.333    3.333    0.000    9.778 
#    4.000    0.000    2.444    0.000    0.000    0.000 
#    0.000    0.000    0.000    0.000    0.000    0.000 
#
# Total GULP energy -100204.168547 kJ/mol
# GULP energy per Si atom -5566.898253 kJ/mol
# Density = 2.519228 g / cm^3
# Si number density = 25.249753 Si / 1000 Ang^3
#
#
#
# Elastic Constant Matrix: (Units=GPa)
#
#
# Indices 1 2 3 4 5 6 
#
# 1 107.0763 6.3059 50.4185 0.0000 2.2175 0.0000
# 2 6.3059 55.4478 48.0989 0.0000 5.3215 0.0000
# 3 50.4185 48.0989 139.7584 0.0000 -13.9394 0.0000
# 4 0.0000 0.0000 0.0000 51.8401 0.0000 -9.3801
# 5 2.2175 5.3215 -13.9394 0.0000 49.3228 0.0000
# 6 0.0000 0.0000 0.0000 -9.3801 0.0000 4.4776
#
#
#
# Elastic Compliance Matrix: (Units=1/GPa)
#
#
# Indices 1 2 3 4 5 6 
#
# 1 0.011978 0.004098 -0.005998 0.000000 -0.002676 0.000000
# 2 0.004098 0.028607 -0.011988 0.000000 -0.006659 0.000000
# 3 -0.005998 -0.011988 0.013995 0.000000 0.005518 0.000000
# 4 0.000000 0.000000 0.000000 0.031066 0.000000 0.065079
# 5 -0.002676 -0.006659 0.005518 0.000000 0.022673 0.000000
# 6 0.000000 0.000000 0.000000 0.065079 0.000000 0.359665
#
#
# Mechanical properties :
#
#
# Convention : Reuss Voigt Hill
#
# Bulk Modulus (GPa) = 37.30861 56.88102 47.09481
# Shear Modulus (GPa) = 9.90700 34.29205 22.09953
#
# Velocity S-wave (km/s) = 1.98296 3.68926 2.96165
# Velocity P-wave (km/s) = 4.47781 6.38152 5.51246
#
# Compressibility (1/GPa) = 0.02680346
#
# Stress axis : x y z
#
# Youngs Moduli (GPa) = 83.48966 34.95661 71.45358
#
# Poissons Ratio (x) = -0.14324 0.42859
# Poissons Ratio (y) = -0.34212 0.85656
# Poissons Ratio (z) = 0.50078 0.41905
#
# Static dielectric constant tensor:
#      x y z
#    x 2.436660 0.000000 0.290790 
#    y 0.000000 2.159220 0.000000 
#    z 0.290790 0.000000 1.976930 
# 
# From -- ./inp_files/136538.got.cif
#   From: 2010.05.17/outbox.cif.g08.bks.cpg/sg15_69_cif.got.tgz:136538.got - 2010.06.03 18:47:42.
