data_PCOD9275426
_publ_section_title
;
Structure prediction by ZEFSAII (Michael W. Deem and Ramdas Pophale) SiO2 
 PCOD9275426
Probable space group: C 2/C
;
_chemical_formula_sum "Si O2"
_cell_formula_units_Z 60
_cell_length_a 17.551270
_cell_length_b 9.389784
_cell_length_c 18.444494
_cell_angle_alpha 90.000000
_cell_angle_beta 125.658658
_cell_angle_gamma 90.000000
_cell_volume 2469.770513
_symmetry_space_group_name_H-M "C 2/C"
_symmetry_group_IT_number 15
_symmetry_cell_setting 'monoclinic'
loop_
_space_group_symop_operation_xyz
x,y,z
-x,y,1/2-z
-x,-y,-z
x,-y,1/2+z
1/2+x,1/2+y,z
1/2-x,1/2+y,1/2-z
1/2-x,1/2-y,-z
1/2+x,1/2-y,1/2+z
loop_
_atom_site_type_symbol
_atom_site_label
_atom_site_fract_x
_atom_site_fract_y
_atom_site_fract_z
Si Si1 0.672714 0.068887 0.660008
Si Si2 0.088450 0.601290 0.910187
Si Si3 0.576018 0.359809 0.560571
Si Si4 0.000000 0.786283 0.250000
Si Si5 0.613406 0.599519 0.480255
Si Si6 0.341429 0.478867 0.653010
Si Si7 0.878877 0.661557 0.726332
Si Si8 0.508637 0.151079 0.098749
O O1 0.636503 0.225958 0.618052
O O2 0.753839 0.021571 0.652445
O O3 0.694679 0.101413 0.756681
O O4 0.595704 0.942404 0.619985
O O5 0.127105 0.729994 0.980582
O O6 0.138540 0.587252 0.860856
O O7 0.981425 0.633983 0.820530
O O8 0.078962 0.458475 0.950556
O O9 0.631013 0.491766 0.556185
O O10 0.502053 0.406682 0.581505
O O11 0.511661 0.286326 0.462066
O O12 0.912825 0.891452 0.197319
O O13 0.985266 0.694651 0.314058
O O14 0.664853 0.544629 0.436902
O O15 0.375535 0.327986 0.704573
#
# Coordination Sequence:
#
# PCOD9275426 Si02
#       8
#     8   8   8   4   8   8   8   8
#     4  11  24  39  62  95 133 159 200 271 320 359
#     4   9  17  36  65  87 120 159 215 249 307 369
#     4  11  22  39  68  88 127 169 217 247 308 383
#     4  12  24  40  66  94 122 160 218 258 310 382
#     4  10  20  39  61  91 117 174 213 242 298 385
#     4  11  24  40  63  93 126 162 212 265 313 368
#     4   9  18  36  61  85 120 166 199 253 315 368
#     4  11  22  39  65  98 121 165 209 263 311 371
#
# _framework density 24.293754
#
# number of rings (size 3 to 8) (size 9 to 14) (size 15 to 20)
#    0.000    1.600    4.000    3.600    1.867    0.533 
#    0.000    0.667    0.000    0.000    0.000    0.000 
#    0.000    0.000    0.000    0.000    0.000    0.000 
#
# Total GULP energy -167591.945235 kJ/mol
# GULP energy per Si atom -5586.398175 kJ/mol
# Density = 2.423846 g / cm^3
# Si number density = 24.293754 Si / 1000 Ang^3
#
#
#
# Elastic Constant Matrix: (Units=GPa)
#
#
# Indices 1 2 3 4 5 6 
#
# 1 111.4331 41.5764 38.5696 0.0000 -45.9734 0.0000
# 2 41.5764 109.5600 23.7501 0.0000 -6.5949 0.0000
# 3 38.5696 23.7501 69.6744 0.0000 -22.9019 0.0000
# 4 0.0000 0.0000 0.0000 35.4221 0.0000 -22.6457
# 5 -45.9734 -6.5949 -22.9019 0.0000 39.8684 0.0000
# 6 0.0000 0.0000 0.0000 -22.6457 0.0000 29.0903
#
#
#
# Elastic Compliance Matrix: (Units=1/GPa)
#
#
# Indices 1 2 3 4 5 6 
#
# 1 0.021223 -0.006210 -0.002373 0.000000 0.022082 0.000000
# 2 -0.006210 0.011677 -0.002788 0.000000 -0.006831 0.000000
# 3 -0.002373 -0.002788 0.019189 0.000000 0.007825 0.000000
# 4 0.000000 0.000000 0.000000 0.056201 0.000000 0.043750
# 5 0.022082 -0.006831 0.007825 0.000000 0.053911 0.000000
# 6 0.000000 0.000000 0.000000 0.043750 0.000000 0.068433
#
#
# Mechanical properties :
#
#
# Convention : Reuss Voigt Hill
#
# Bulk Modulus (GPa) = 34.07605 55.38442 44.73023
# Shear Modulus (GPa) = 19.00002 33.32760 26.16381
#
# Velocity S-wave (km/s) = 2.79963 3.70788 3.28529
# Velocity P-wave (km/s) = 4.95052 6.41704 5.73089
#
# Compressibility (1/GPa) = 0.02934612
#
# Stress axis : x y z
#
# Youngs Moduli (GPa) = 47.11956 85.63665 52.11434
#
# Poissons Ratio (x) = 0.53181 0.12367
# Poissons Ratio (y) = 0.29261 0.14530
# Poissons Ratio (z) = 0.11182 0.23876
#
# Static dielectric constant tensor:
#      x y z
#    x 1.909270 0.000000 0.008970 
#    y 0.000000 1.913690 0.000000 
#    z 0.008970 0.000000 2.001260 
# 
# From -- ./inp_files/247498.got.cif
#   From: 2010.05.17/outbox.cif.g08.bks.cpg/sg15_124_cif.got.tgz:247498.got - 2010.06.03 18:47:42.
