data_PCOD9275846
_publ_section_title
;
Structure prediction by ZEFSAII (Michael W. Deem and Ramdas Pophale) SiO2 
 PCOD9275846
Probable space group: C 2/C
;
_chemical_formula_sum "Si O2"
_cell_formula_units_Z 36
_cell_length_a 6.980692
_cell_length_b 25.172371
_cell_length_c 10.610465
_cell_angle_alpha 90.000000
_cell_angle_beta 108.536016
_cell_angle_gamma 90.000000
_cell_volume 1767.755360
_symmetry_space_group_name_H-M "C 2/C"
_symmetry_group_IT_number 15
_symmetry_cell_setting 'monoclinic'
loop_
_space_group_symop_operation_xyz
x,y,z
-x,y,1/2-z
-x,-y,-z
x,-y,1/2+z
1/2+x,1/2+y,z
1/2-x,1/2+y,1/2-z
1/2-x,1/2-y,-z
1/2+x,1/2-y,1/2+z
loop_
_atom_site_type_symbol
_atom_site_label
_atom_site_fract_x
_atom_site_fract_y
_atom_site_fract_z
Si Si1 0.732163 0.747683 0.344276
Si Si2 0.617174 0.016036 0.148969
Si Si3 0.765535 0.364652 0.155251
Si Si4 0.767227 0.132006 0.154307
Si Si5 0.500000 0.446971 0.250000
O O1 0.500000 0.746504 0.250000
O O2 0.750000 0.750000 0.500000
O O3 0.806647 0.805566 0.317000
O O4 0.815979 0.690092 0.321324
O O5 0.500000 0.997494 0.250000
O O6 0.654519 0.078844 0.171850
O O7 0.827283 0.986485 0.169266
O O8 0.500000 0.000000 0.000000
O O9 0.615670 0.408651 0.177743
O O10 0.000000 0.371043 0.250000
O O11 0.750775 0.367663 0.001253
O O12 0.000000 0.128487 0.250000
#
# Coordination Sequence:
#
# PCOD9275846 Si02
#       5
#     8   8   8   8   4
#     4   8  16  33  61  87 120 159 200 254 315 368
#     4  12  27  43  63  93 128 170 216 268 319 377
#     4  10  21  40  64  92 125 168 207 254 318 385
#     4  10  20  39  65  90 123 164 207 263 319 367
#     4  12  24  40  64  90 128 166 214 252 314 390
#
# _framework density 20.364809000000001
#
# number of rings (size 3 to 8) (size 9 to 14) (size 15 to 20)
#    0.000    1.778    1.111    3.333    3.111    1.778 
#    2.000    0.000    0.000    9.333    0.000    0.000 
#    0.000    0.000    0.000    0.000    0.000    0.000 
#
# Total GULP energy -100295.211842 kJ/mol
# GULP energy per Si atom -5571.956213 kJ/mol
# Density = 2.031846 g / cm^3
# Si number density = 20.364809 Si / 1000 Ang^3
#
#
#
# Elastic Constant Matrix: (Units=GPa)
#
#
# Indices 1 2 3 4 5 6 
#
# 1 94.1026 53.2664 61.4912 0.0000 11.6799 0.0000
# 2 53.2664 188.0206 21.2018 0.0000 8.6616 0.0000
# 3 61.4912 21.2018 148.7254 0.0000 30.1898 0.0000
# 4 0.0000 0.0000 0.0000 31.1651 0.0000 10.7781
# 5 11.6799 8.6616 30.1898 0.0000 26.2283 0.0000
# 6 0.0000 0.0000 0.0000 10.7781 0.0000 28.3740
#
#
#
# Elastic Compliance Matrix: (Units=1/GPa)
#
#
# Indices 1 2 3 4 5 6 
#
# 1 0.017300 -0.004199 -0.006879 0.000000 0.001601 0.000000
# 2 -0.004199 0.006452 0.001134 0.000000 -0.001567 0.000000
# 3 -0.006879 0.001134 0.011562 0.000000 -0.010620 0.000000
# 4 0.000000 0.000000 0.000000 0.036940 0.000000 -0.014032
# 5 0.001601 -0.001567 -0.010620 0.000000 0.050155 0.000000
# 6 0.000000 0.000000 0.000000 -0.014032 0.000000 0.040574
#
#
# Mechanical properties :
#
#
# Convention : Reuss Voigt Hill
#
# Bulk Modulus (GPa) = 64.82346 78.08526 71.45436
# Shear Modulus (GPa) = 26.59389 36.81275 31.70332
#
# Velocity S-wave (km/s) = 3.61761 4.25628 3.94987
# Velocity P-wave (km/s) = 7.02493 7.91081 7.48100
#
# Compressibility (1/GPa) = 0.01542651
#
# Stress axis : x y z
#
# Youngs Moduli (GPa) = 57.80313 154.97982 86.49042
#
# Poissons Ratio (x) = 0.65079 0.59498
# Poissons Ratio (y) = 0.24273 -0.09811
# Poissons Ratio (z) = 0.39764 -0.17580
#
# Static dielectric constant tensor:
#      x y z
#    x 1.680650 0.000000 -0.021500 
#    y 0.000000 1.808860 0.000000 
#    z -0.021500 0.000000 1.657930 
# 
# From -- ./inp_files/72889.got.cif
#   From: 2010.05.17/outbox.cif.g08.bks.cpg/sg15_37_cif.got.tgz:72889.got - 2010.06.03 18:47:42.
