data_PCOD9275672
_publ_section_title
;
Structure prediction by ZEFSAII (Michael W. Deem and Ramdas Pophale) SiO2 
 PCOD9275672
Probable space group: C 2/C
;
_chemical_formula_sum "Si O2"
_cell_formula_units_Z 40
_cell_length_a 23.644923
_cell_length_b 8.036750
_cell_length_c 17.771763
_cell_angle_alpha 90.000000
_cell_angle_beta 151.340250
_cell_angle_gamma 90.000000
_cell_volume 1619.699915
_symmetry_space_group_name_H-M "C 2/C"
_symmetry_group_IT_number 15
_symmetry_cell_setting 'monoclinic'
loop_
_space_group_symop_operation_xyz
x,y,z
-x,y,1/2-z
-x,-y,-z
x,-y,1/2+z
1/2+x,1/2+y,z
1/2-x,1/2+y,1/2-z
1/2-x,1/2-y,-z
1/2+x,1/2-y,1/2+z
loop_
_atom_site_type_symbol
_atom_site_label
_atom_site_fract_x
_atom_site_fract_y
_atom_site_fract_z
Si Si1 0.496038 0.001927 0.835008
Si Si2 0.693718 0.174016 0.297827
Si Si3 0.639644 0.485264 0.909444
Si Si4 0.744067 0.998224 0.708442
Si Si5 0.814339 0.781874 0.673657
O O1 0.500000 0.986952 0.750000
O O2 0.422817 0.854128 0.789439
O O3 0.420704 0.165496 0.770106
O O4 0.623054 0.009484 0.020458
O O5 0.693241 0.334846 0.245267
O O6 0.800948 0.144018 0.481428
O O7 0.713048 0.027723 0.258703
O O8 0.500000 0.490975 0.750000
O O9 0.681382 0.448116 0.873236
O O10 0.696130 0.322440 0.016575
O O11 0.821125 0.845016 0.766441
#
# Coordination Sequence:
#
# PCOD9275672 Si02
#       5
#     8   8   8   8   8
#     4  11  24  45  71  97 132 176 217 271 334 391
#     4  11  26  43  66  98 133 177 222 270 329 392
#     4  10  20  39  63  93 129 168 216 265 322 388
#     4  12  25  45  67  96 139 174 219 277 327 390
#     4  10  21  39  68  97 126 172 219 265 327 395
#
# _framework density 24.695933
#
# number of rings (size 3 to 8) (size 9 to 14) (size 15 to 20)
#    0.000    1.200    0.000    8.400    0.000    5.600 
#    0.000    6.000    0.000    0.000    0.000    0.000 
#    0.000    0.000    0.000    0.000    0.000    0.000 
#
# Total GULP energy -112005.882728 kJ/mol
# GULP energy per Si atom -5600.294136 kJ/mol
# Density = 2.463972 g / cm^3
# Si number density = 24.695933 Si / 1000 Ang^3
#
#
#
# Elastic Constant Matrix: (Units=GPa)
#
#
# Indices 1 2 3 4 5 6 
#
# 1 172.0343 32.0715 28.8461 0.0000 -7.2097 0.0000
# 2 32.0715 78.1535 -9.5904 0.0000 8.5753 0.0000
# 3 28.8461 -9.5904 56.1150 0.0000 7.1144 0.0000
# 4 0.0000 0.0000 0.0000 17.5373 0.0000 -6.5254
# 5 -7.2097 8.5753 7.1144 0.0000 36.6030 0.0000
# 6 0.0000 0.0000 0.0000 -6.5254 0.0000 51.6423
#
#
#
# Elastic Compliance Matrix: (Units=1/GPa)
#
#
# Indices 1 2 3 4 5 6 
#
# 1 0.007562 -0.004095 -0.005021 0.000000 0.003425 0.000000
# 2 -0.004095 0.015762 0.005505 0.000000 -0.005569 0.000000
# 3 -0.005021 0.005505 0.022178 0.000000 -0.006589 0.000000
# 4 0.000000 0.000000 0.000000 0.059835 0.000000 0.007561
# 5 0.003425 -0.005569 -0.006589 0.000000 0.030580 0.000000
# 6 0.000000 0.000000 0.000000 0.007561 0.000000 0.020319
#
#
# Mechanical properties :
#
#
# Convention : Reuss Voigt Hill
#
# Bulk Modulus (GPa) = 26.12343 45.43969 35.78156
# Shear Modulus (GPa) = 28.37390 38.15488 33.26439
#
# Velocity S-wave (km/s) = 3.39326 3.93490 3.67407
# Velocity P-wave (km/s) = 5.09444 6.25173 5.70252
#
# Compressibility (1/GPa) = 0.03827981
#
# Stress axis : x y z
#
# Youngs Moduli (GPa) = 132.24627 63.44213 45.08983
#
# Poissons Ratio (x) = 0.25979 0.22640
# Poissons Ratio (y) = 0.54154 -0.24822
# Poissons Ratio (z) = 0.66403 -0.34925
#
# Static dielectric constant tensor:
#      x y z
#    x 1.991240 0.000000 0.000530 
#    y 0.000000 2.090360 0.000000 
#    z 0.000530 0.000000 1.884510 
# 
# From -- ./inp_files/218831.got.cif
#   From: 2010.05.17/outbox.cif.g08.bks.cpg/sg15_110_cif.got.tgz:218831.got - 2010.06.03 18:47:42.
