data_PCOD9275307
_publ_section_title
;
Structure prediction by ZEFSAII (Michael W. Deem and Ramdas Pophale) SiO2 
 PCOD9275307
Probable space group: C 2/C
;
_chemical_formula_sum "Si O2"
_cell_formula_units_Z 56
_cell_length_a 15.975073
_cell_length_b 14.652834
_cell_length_c 17.238953
_cell_angle_alpha 90.000000
_cell_angle_beta 132.658012
_cell_angle_gamma 90.000000
_cell_volume 2967.602363
_symmetry_space_group_name_H-M "C 2/C"
_symmetry_group_IT_number 15
_symmetry_cell_setting 'monoclinic'
loop_
_space_group_symop_operation_xyz
x,y,z
-x,y,1/2-z
-x,-y,-z
x,-y,1/2+z
1/2+x,1/2+y,z
1/2-x,1/2+y,1/2-z
1/2-x,1/2-y,-z
1/2+x,1/2-y,1/2+z
loop_
_atom_site_type_symbol
_atom_site_label
_atom_site_fract_x
_atom_site_fract_y
_atom_site_fract_z
Si Si1 0.921106 0.168204 0.818014
Si Si2 0.794374 0.338626 0.680983
Si Si3 0.925697 0.043036 0.278260
Si Si4 0.128402 0.299770 0.926343
Si Si5 0.331993 0.049879 0.356630
Si Si6 0.438520 0.132720 0.945876
Si Si7 0.536151 0.663572 0.050371
O O1 0.819761 0.233820 0.724256
O O2 0.031571 0.223703 0.858432
O O3 0.922970 0.066071 0.788378
O O4 0.939698 0.162415 0.923195
O O5 0.862194 0.359227 0.645149
O O6 0.837721 0.399770 0.778240
O O7 0.659525 0.355862 0.588252
O O8 0.792700 0.069637 0.187937
O O9 0.974556 0.093672 0.385542
O O10 0.000000 0.065612 0.250000
O O11 0.250000 0.250000 0.000000
O O12 0.102451 0.349595 0.990748
O O13 0.435794 0.088500 0.472263
O O14 0.353724 0.942345 0.358765
O O15 0.450044 0.231436 0.914093
#
# Coordination Sequence:
#
# PCOD9275307 Si02
#       7
#     8   8   8   8   8   8   8
#     4  11  21  36  60  89 117 148 182 244 305 339
#     4  11  19  35  58  91 118 146 185 237 298 350
#     4  11  24  37  58  84 116 154 200 239 282 342
#     4  11  20  33  62  94 121 143 182 245 301 349
#     4  10  22  37  59  82 113 158 192 232 289 348
#     4  10  20  39  60  82 118 156 189 233 294 344
#     4  10  21  38  59  82 119 151 192 236 288 349
#
# _framework density 18.870452
#
# number of rings (size 3 to 8) (size 9 to 14) (size 15 to 20)
#    0.000    1.429    5.714    2.571    2.000    0.000 
#    0.000    0.714    6.286    0.000    0.000    0.000 
#    0.000    0.000    0.000    0.000    0.000    0.000 
#
# Total GULP energy -156212.892340 kJ/mol
# GULP energy per Si atom -5579.031869 kJ/mol
# Density = 1.882750 g / cm^3
# Si number density = 18.870452 Si / 1000 Ang^3
#
#
#
# Elastic Constant Matrix: (Units=GPa)
#
#
# Indices 1 2 3 4 5 6 
#
# 1 98.0300 25.6768 24.9233 0.0000 -13.6871 0.0000
# 2 25.6768 75.9657 -3.0528 0.0000 -23.1663 0.0000
# 3 24.9233 -3.0528 48.2238 0.0000 -5.7973 0.0000
# 4 0.0000 0.0000 0.0000 30.0839 0.0000 0.1839
# 5 -13.6871 -23.1663 -5.7973 0.0000 25.9896 0.0000
# 6 0.0000 0.0000 0.0000 0.1839 0.0000 15.4989
#
#
#
# Elastic Compliance Matrix: (Units=1/GPa)
#
#
# Indices 1 2 3 4 5 6 
#
# 1 0.013321 -0.004279 -0.006957 0.000000 0.001649 0.000000
# 2 -0.004279 0.019936 0.005486 0.000000 0.016740 0.000000
# 3 -0.006957 0.005486 0.025511 0.000000 0.006917 0.000000
# 4 0.000000 0.000000 0.000000 0.033243 0.000000 -0.000394
# 5 0.001649 0.016740 0.006917 0.000000 0.055810 0.000000
# 6 0.000000 0.000000 0.000000 -0.000394 0.000000 0.064525
#
#
# Mechanical properties :
#
#
# Convention : Reuss Voigt Hill
#
# Bulk Modulus (GPa) = 21.15639 35.25711 28.20675
# Shear Modulus (GPa) = 20.86791 25.95928 23.41359
#
# Velocity S-wave (km/s) = 3.32904 3.71301 3.52626
# Velocity P-wave (km/s) = 5.10024 6.09149 5.61777
#
# Compressibility (1/GPa) = 0.04726704
#
# Stress axis : x y z
#
# Youngs Moduli (GPa) = 75.07026 50.16116 39.19857
#
# Poissons Ratio (x) = 0.21465 0.27271
# Poissons Ratio (y) = 0.32124 -0.21505
# Poissons Ratio (z) = 0.52228 -0.27519
#
# Static dielectric constant tensor:
#      x y z
#    x 1.651220 0.000000 0.007060 
#    y 0.000000 1.677240 0.000000 
#    z 0.007060 0.000000 1.724240 
# 
# From -- ./inp_files/205500.got.cif
#   From: 2010.05.17/outbox.cif.g08.bks.cpg/sg15_103_cif.got.tgz:205500.got - 2010.06.03 18:47:42.
