data_PCOD9275144
_publ_section_title
;
Structure prediction by ZEFSAII (Michael W. Deem and Ramdas Pophale) SiO2 
 PCOD9275144
Probable space group: C 2/C
;
_chemical_formula_sum "Si O2"
_cell_formula_units_Z 60
_cell_length_a 23.235372
_cell_length_b 9.648276
_cell_length_c 17.498468
_cell_angle_alpha 90.000000
_cell_angle_beta 43.780640
_cell_angle_gamma 90.000000
_cell_volume 2714.202454
_symmetry_space_group_name_H-M "C 2/C"
_symmetry_group_IT_number 15
_symmetry_cell_setting 'monoclinic'
loop_
_space_group_symop_operation_xyz
x,y,z
-x,y,1/2-z
-x,-y,-z
x,-y,1/2+z
1/2+x,1/2+y,z
1/2-x,1/2+y,1/2-z
1/2-x,1/2-y,-z
1/2+x,1/2-y,1/2+z
loop_
_atom_site_type_symbol
_atom_site_label
_atom_site_fract_x
_atom_site_fract_y
_atom_site_fract_z
Si Si1 0.602148 0.291471 0.223313
Si Si2 0.231174 0.278538 0.334004
Si Si3 0.938318 0.150472 0.979574
Si Si4 0.651084 0.421830 0.651151
Si Si5 0.587518 0.198403 0.591197
Si Si6 0.021454 0.129286 0.395617
Si Si7 0.500000 0.945161 0.750000
Si Si8 0.286195 0.899894 0.637349
O O1 0.683545 0.272649 0.198405
O O2 0.515588 0.316184 0.351701
O O3 0.622652 0.425565 0.149902
O O4 0.574348 0.152276 0.208674
O O5 0.152348 0.207819 0.451959
O O6 0.244833 0.193255 0.242649
O O7 0.209524 0.440385 0.340465
O O8 0.948997 0.984157 0.978236
O O9 0.959371 0.205153 0.044462
O O10 0.633317 0.297861 0.609029
O O11 0.606372 0.429822 0.778478
O O12 0.744275 0.408833 0.592638
O O13 0.504721 0.281767 0.651014
O O14 0.630680 0.179308 0.467426
O O15 0.553392 0.049403 0.646944
#
# Coordination Sequence:
#
# PCOD9275144 Si02
#       8
#     8   8   8   8   8   8   4   8
#     4  10  25  43  68  99 134 180 223 274 343 400
#     4  11  24  46  68 101 137 174 225 286 334 399
#     4  10  21  41  72  98 131 169 229 277 333 394
#     4  10  21  44  65  95 131 178 227 267 324 419
#     4  12  24  42  66  96 133 178 223 272 339 402
#     4  10  20  38  69  99 124 171 224 274 330 395
#     4  12  26  44  64  98 142 170 222 284 336 402
#     4  11  25  42  66  99 136 173 225 278 339 394
#
# _framework density 22.10594
#
# number of rings (size 3 to 8) (size 9 to 14) (size 15 to 20)
#    0.000    1.333    2.667    2.000    7.467    2.133 
#    2.400    4.667    0.000    0.000    0.000    0.000 
#    0.000    0.000    0.000    0.000    0.000    0.000 
#
# Total GULP energy -167036.728067 kJ/mol
# GULP energy per Si atom -5567.890936 kJ/mol
# Density = 2.205563 g / cm^3
# Si number density = 22.105940 Si / 1000 Ang^3
#
#
#
# Elastic Constant Matrix: (Units=GPa)
#
#
# Indices 1 2 3 4 5 6 
#
# 1 72.4002 51.7802 18.5140 0.0000 -12.2855 0.0000
# 2 51.7802 108.6011 28.0370 0.0002 0.8698 -0.0002
# 3 18.5140 28.0370 82.0809 0.0001 -8.1449 -0.0001
# 4 0.0000 0.0002 0.0001 35.0780 0.0000 3.9066
# 5 -12.2855 0.8698 -8.1449 0.0000 28.3578 0.0000
# 6 0.0000 -0.0002 -0.0001 3.9066 0.0000 16.1892
#
#
#
# Elastic Compliance Matrix: (Units=1/GPa)
#
#
# Indices 1 2 3 4 5 6 
#
# 1 0.023812 -0.011319 -0.000460 0.000000 0.010531 0.000000
# 2 -0.011319 0.015529 -0.003381 0.000000 -0.006351 0.000000
# 3 -0.000460 -0.003381 0.013826 0.000000 0.003876 0.000000
# 4 0.000000 0.000000 0.000000 0.029295 0.000000 -0.007069
# 5 0.010531 -0.006351 0.003876 0.000000 0.041134 0.000000
# 6 0.000000 0.000000 0.000000 -0.007069 0.000000 0.063476
#
#
# Mechanical properties :
#
#
# Convention : Reuss Voigt Hill
#
# Bulk Modulus (GPa) = 43.76959 51.08273 47.42616
# Shear Modulus (GPa) = 22.22144 26.90839 24.56491
#
# Velocity S-wave (km/s) = 3.17397 3.49269 3.33714
# Velocity P-wave (km/s) = 5.76845 6.27881 6.02903
#
# Compressibility (1/GPa) = 0.02284691
#
# Stress axis : x y z
#
# Youngs Moduli (GPa) = 41.99557 64.39692 72.32548
#
# Poissons Ratio (x) = 0.72891 0.03324
# Poissons Ratio (y) = 0.47535 0.24456
# Poissons Ratio (z) = 0.01930 0.21775
#
# Static dielectric constant tensor:
#      x y z
#    x 1.880470 0.000000 0.012490 
#    y 0.000000 1.939420 0.000000 
#    z 0.012490 0.000000 1.841590 
# 
# From -- ./inp_files/257195.got.cif
#   From: 2010.05.17/outbox.cif.g08.bks.cpg/sg15_129_cif.got.tgz:257195.got - 2010.06.03 18:47:42.
