data_PCOD9275802
_publ_section_title
;
Structure prediction by ZEFSAII (Michael W. Deem and Ramdas Pophale) SiO2 
 PCOD9275802
Probable space group: C 2/C
;
_chemical_formula_sum "Si O2"
_cell_formula_units_Z 64
_cell_length_a 9.741521
_cell_length_b 11.820659
_cell_length_c 23.035209
_cell_angle_alpha 90.000000
_cell_angle_beta 102.970811
_cell_angle_gamma 90.000000
_cell_volume 2584.851334
_symmetry_space_group_name_H-M "C 2/C"
_symmetry_group_IT_number 15
_symmetry_cell_setting 'monoclinic'
loop_
_space_group_symop_operation_xyz
x,y,z
-x,y,1/2-z
-x,-y,-z
x,-y,1/2+z
1/2+x,1/2+y,z
1/2-x,1/2+y,1/2-z
1/2-x,1/2-y,-z
1/2+x,1/2-y,1/2+z
loop_
_atom_site_type_symbol
_atom_site_label
_atom_site_fract_x
_atom_site_fract_y
_atom_site_fract_z
Si Si1 0.614367 0.735900 0.810926
Si Si2 0.289918 0.185649 0.925421
Si Si3 0.703273 0.328974 0.884444
Si Si4 0.156525 0.455141 0.514570
Si Si5 0.232189 0.458858 0.829084
Si Si6 0.846156 0.984826 0.722187
Si Si7 0.452101 0.587899 0.446157
Si Si8 0.934403 0.606210 0.616308
O O1 0.500000 0.766630 0.750000
O O2 0.645132 0.736216 0.884269
O O3 0.733085 0.828584 0.808485
O O4 0.625548 0.602929 0.805606
O O5 0.373641 0.295027 0.958909
O O6 0.408125 0.140046 0.888729
O O7 0.263250 0.070879 0.959284
O O8 0.833525 0.352455 0.939022
O O9 0.727774 0.403657 0.830209
O O10 0.583575 0.373943 0.918412
O O11 0.646135 0.208501 0.859912
O O12 0.163822 0.410294 0.450180
O O13 0.000000 0.500000 0.500000
O O14 0.268369 0.519961 0.773434
O O15 0.348742 0.470136 0.889509
O O16 0.085810 0.497704 0.844348
O O17 0.000000 0.933230 0.750000
O O18 0.500000 0.500000 0.500000
#
# Coordination Sequence:
#
# PCOD9275802 Si02
#       8
#     8   8   8   8   8   8   8   8
#     4  10  23  44  64  92 134 172 223 277 331 401
#     4   9  20  42  67  96 137 177 221 277 339 406
#     4  11  21  41  68  94 128 178 225 270 336 408
#     4  10  20  39  64  96 131 167 215 281 338 395
#     4  11  24  42  63  99 134 169 228 281 336 394
#     4  11  23  43  66  93 128 176 226 274 337 410
#     4  10  21  40  66  98 133 175 225 277 332 408
#     4  10  23  40  67 100 131 171 223 276 338 401
#
# _framework density 24.759644999999999
#
# number of rings (size 3 to 8) (size 9 to 14) (size 15 to 20)
#    0.000    1.750    2.500    1.125    1.750    3.000 
#    2.250    2.500    0.000    0.000    0.000    0.000 
#    0.000    0.000    0.000    0.000    0.000    0.000 
#
# Total GULP energy -178151.672531 kJ/mol
# GULP energy per Si atom -5567.239767 kJ/mol
# Density = 2.470329 g / cm^3
# Si number density = 24.759645 Si / 1000 Ang^3
#
#
#
# Elastic Constant Matrix: (Units=GPa)
#
#
# Indices 1 2 3 4 5 6 
#
# 1 38.3555 9.7041 26.3284 0.0000 7.5430 0.0000
# 2 9.7041 59.8307 14.9789 0.0000 -2.1663 0.0000
# 3 26.3284 14.9789 103.2409 0.0000 21.8984 0.0000
# 4 0.0000 0.0000 0.0000 -15.6917 0.0000 -3.7716
# 5 7.5430 -2.1663 21.8984 0.0000 29.0417 0.0000
# 6 0.0000 0.0000 0.0000 -3.7716 0.0000 22.4397
#
#
#
# Elastic Compliance Matrix: (Units=1/GPa)
#
#
# Indices 1 2 3 4 5 6 
#
# 1 0.032490 -0.003631 -0.007037 0.000000 -0.003404 0.000000
# 2 -0.003631 0.018109 -0.002604 0.000000 0.004258 0.000000
# 3 -0.007037 -0.002604 0.013704 0.000000 -0.008700 0.000000
# 4 0.000000 0.000000 0.000000 -0.061253 0.000000 -0.010295
# 5 -0.003404 0.004258 -0.008700 0.000000 0.042195 0.000000
# 6 0.000000 0.000000 0.000000 -0.010295 0.000000 0.042833
#
#
# Mechanical properties :
#
#
# Convention : Reuss Voigt Hill
#
# Bulk Modulus (GPa) = 26.48445 33.71664 30.10054
# Shear Modulus (GPa) = 39.30540 17.18565 28.24552
#
# Velocity S-wave (km/s) = 3.98864 2.63743 3.38122
# Velocity P-wave (km/s) = 5.65086 4.78768 5.23708
#
# Compressibility (1/GPa) = 0.03775800
#
# Stress axis : x y z
#
# Youngs Moduli (GPa) = 30.77842 55.22119 72.97256
#
# Poissons Ratio (x) = 0.20052 0.51350
# Poissons Ratio (y) = 0.11176 0.19006
# Poissons Ratio (z) = 0.21658 0.14382
#
# Static dielectric constant tensor:
#      x y z
#    x 2.123470 0.000000 0.002130 
#    y 0.000000 2.099560 0.000000 
#    z 0.002130 0.000000 2.132550 
# 
# From -- ./inp_files/269284.got.cif
#   From: 2010.05.17/outbox.cif.g08.bks.cpg/sg15_135_cif.got.tgz:269284.got - 2010.06.03 18:47:42.
