data_PCOD9275324
_publ_section_title
;
Structure prediction by ZEFSAII (Michael W. Deem and Ramdas Pophale) SiO2 
 PCOD9275324
Probable space group: C 2/C
;
_chemical_formula_sum "Si O2"
_cell_formula_units_Z 60
_cell_length_a 8.748155
_cell_length_b 25.397560
_cell_length_c 19.973617
_cell_angle_alpha 90.000000
_cell_angle_beta 139.868163
_cell_angle_gamma 90.000000
_cell_volume 2860.360877
_symmetry_space_group_name_H-M "C 2/C"
_symmetry_group_IT_number 15
_symmetry_cell_setting 'monoclinic'
loop_
_space_group_symop_operation_xyz
x,y,z
-x,y,1/2-z
-x,-y,-z
x,-y,1/2+z
1/2+x,1/2+y,z
1/2-x,1/2+y,1/2-z
1/2-x,1/2-y,-z
1/2+x,1/2-y,1/2+z
loop_
_atom_site_type_symbol
_atom_site_label
_atom_site_fract_x
_atom_site_fract_y
_atom_site_fract_z
Si Si1 0.826266 0.918807 0.451864
Si Si2 0.500000 0.492415 0.750000
Si Si3 0.015646 0.830833 0.427495
Si Si4 0.533178 0.486758 0.413804
Si Si5 0.980612 0.450636 0.943521
Si Si6 0.680013 0.256566 0.864058
Si Si7 0.949916 0.662316 0.980413
Si Si8 0.379331 0.155265 0.812836
O O1 0.987926 0.869465 0.481846
O O2 0.568162 0.892581 0.374175
O O3 0.919962 0.953055 0.546374
O O4 0.833381 0.960500 0.392742
O O5 0.493202 0.520966 0.675111
O O6 0.738278 0.458642 0.823748
O O7 0.900010 0.774997 0.405762
O O8 0.832318 0.853179 0.309996
O O9 0.274496 0.825236 0.483054
O O10 0.775155 0.455694 0.514751
O O11 0.970428 0.396871 0.979586
O O12 0.000000 0.500000 0.000000
O O13 0.500000 0.281605 0.750000
O O14 0.521891 0.209189 0.841926
O O15 0.817631 0.301299 0.950880
O O16 0.800778 0.663004 0.862426
#
# Coordination Sequence:
#
# PCOD9275324 Si02
#       8
#     8   4   8   8   8   8   8   8
#     4  10  20  39  60  85 126 161 194 259 307 357
#     4  10  22  38  60  86 122 160 204 258 296 354
#     4  10  21  38  61  91 120 154 206 260 306 366
#     4  10  21  39  61  87 123 162 214 248 302 368
#     4  10  22  38  54  90 123 155 205 250 293 365
#     4   9  21  39  60  87 118 159 205 248 310 383
#     4  12  21  37  62  88 124 163 200 258 312 358
#     4  10  21  37  61  93 119 152 211 256 309 367
#
# _framework density 20.976375000000001
#
# number of rings (size 3 to 8) (size 9 to 14) (size 15 to 20)
#    0.000    1.867    1.333    4.000    0.933    4.267 
#    0.000    2.000    0.000    0.000    0.000    0.000 
#    0.000    0.000    0.000    0.000    0.000    0.000 
#
# Total GULP energy -167199.856432 kJ/mol
# GULP energy per Si atom -5573.328548 kJ/mol
# Density = 2.092863 g / cm^3
# Si number density = 20.976375 Si / 1000 Ang^3
#
#
#
# Elastic Constant Matrix: (Units=GPa)
#
#
# Indices 1 2 3 4 5 6 
#
# 1 58.4629 7.6730 7.5665 0.0000 -4.7550 0.0000
# 2 7.6730 81.3495 29.6403 -0.0001 4.8773 -0.0001
# 3 7.5665 29.6403 70.5064 -0.0014 2.0869 -0.0008
# 4 0.0000 -0.0001 -0.0014 15.0695 -0.0005 -2.9962
# 5 -4.7550 4.8773 2.0869 -0.0005 26.3574 -0.0002
# 6 0.0000 -0.0001 -0.0008 -2.9962 -0.0002 5.3199
#
#
#
# Elastic Compliance Matrix: (Units=1/GPa)
#
#
# Indices 1 2 3 4 5 6 
#
# 1 0.017761 -0.001365 -0.001438 0.000000 0.003571 0.000000
# 2 -0.001365 0.014750 -0.005980 -0.000001 -0.002502 -0.000001
# 3 -0.001438 -0.005980 0.016866 0.000002 -0.000488 0.000004
# 4 0.000000 -0.000001 0.000002 0.074727 0.000002 0.042087
# 5 0.003571 -0.002502 -0.000488 0.000002 0.039086 0.000003
# 6 0.000000 -0.000001 0.000004 0.042087 0.000003 0.211676
#
#
# Mechanical properties :
#
#
# Convention : Reuss Voigt Hill
#
# Bulk Modulus (GPa) = 31.43664 33.34201 32.38933
# Shear Modulus (GPa) = 12.40582 20.37864 16.39223
#
# Velocity S-wave (km/s) = 2.43455 3.12028 2.79850
# Velocity P-wave (km/s) = 4.78768 5.37690 5.09082
#
# Compressibility (1/GPa) = 0.03181001
#
# Stress axis : x y z
#
# Youngs Moduli (GPa) = 56.30455 67.79457 59.29111
#
# Poissons Ratio (x) = 0.09257 0.08524
# Poissons Ratio (y) = 0.07688 0.35458
# Poissons Ratio (z) = 0.08095 0.40544
#
# Static dielectric constant tensor:
#      x y z
#    x 1.849140 0.000000 -0.014730 
#    y 0.000000 1.780190 0.000000 
#    z -0.014730 0.000000 1.782770 
# 
# From -- ./inp_files/234612.got.cif
#   From: 2010.05.17/outbox.cif.g08.bks.cpg/sg15_118_cif.got.tgz:234612.got - 2010.06.03 18:47:42.
