data_PCOD9275309
_publ_section_title
;
Structure prediction by ZEFSAII (Michael W. Deem and Ramdas Pophale) SiO2 
 PCOD9275309
Probable space group: C 2/C
;
_chemical_formula_sum "Si O2"
_cell_formula_units_Z 48
_cell_length_a 11.867232
_cell_length_b 17.748692
_cell_length_c 11.762667
_cell_angle_alpha 90.000000
_cell_angle_beta 100.219539
_cell_angle_gamma 90.000000
_cell_volume 2438.239354
_symmetry_space_group_name_H-M "C 2/C"
_symmetry_group_IT_number 15
_symmetry_cell_setting 'monoclinic'
loop_
_space_group_symop_operation_xyz
x,y,z
-x,y,1/2-z
-x,-y,-z
x,-y,1/2+z
1/2+x,1/2+y,z
1/2-x,1/2+y,1/2-z
1/2-x,1/2-y,-z
1/2+x,1/2-y,1/2+z
loop_
_atom_site_type_symbol
_atom_site_label
_atom_site_fract_x
_atom_site_fract_y
_atom_site_fract_z
Si Si1 0.495236 0.213376 0.442319
Si Si2 0.564190 0.685724 0.149798
Si Si3 0.315324 0.989927 0.212857
Si Si4 0.826943 0.673665 0.221332
Si Si5 0.945307 0.006141 0.362697
Si Si6 0.479868 0.065134 0.908349
O O1 0.508392 0.286413 0.522616
O O2 0.379240 0.201300 0.350321
O O3 0.593710 0.205074 0.365108
O O4 0.512176 0.145583 0.533604
O O5 0.500000 0.716834 0.250000
O O6 0.698894 0.702785 0.180382
O O7 0.559423 0.595861 0.154123
O O8 0.333272 0.081327 0.218957
O O9 0.184955 0.975951 0.156235
O O10 0.411729 0.949751 0.154002
O O11 0.353256 0.953277 0.338428
O O12 0.000000 0.977709 0.250000
O O13 0.000000 0.000000 0.500000
O O14 0.500000 0.000000 0.000000
#
# Coordination Sequence:
#
# PCOD9275309 Si02
#       6
#     8   8   8   8   8   8
#     4  11  21  37  61  88 123 155 201 248 307 367
#     4  10  24  41  58  85 123 161 201 244 307 364
#     4  10  21  35  58  93 121 154 203 256 311 361
#     4  10  20  39  60  82 120 164 195 250 305 358
#     4  10  24  45  66  87 122 168 210 252 303 368
#     4  11  19  33  60  94 119 149 200 256 314 356
#
# _framework density 19.686337000000002
#
# number of rings (size 3 to 8) (size 9 to 14) (size 15 to 20)
#    0.000    1.667    3.333    1.500    4.667    2.000 
#    6.000    0.000    0.000    0.000    0.000    0.000 
#    0.000    0.000    0.000    0.000    0.000    0.000 
#
# Total GULP energy -133656.463234 kJ/mol
# GULP energy per Si atom -5569.019301 kJ/mol
# Density = 1.964153 g / cm^3
# Si number density = 19.686337 Si / 1000 Ang^3
#
#
#
# Elastic Constant Matrix: (Units=GPa)
#
#
# Indices 1 2 3 4 5 6 
#
# 1 96.8979 2.2171 57.5707 0.0000 17.7707 0.0000
# 2 2.2171 7.1763 -5.5272 0.0000 -2.1760 0.0000
# 3 57.5707 -5.5272 120.0273 0.0000 21.7432 0.0000
# 4 0.0000 0.0000 0.0000 31.1434 0.0000 2.9114
# 5 17.7707 -2.1760 21.7432 0.0000 29.6099 0.0000
# 6 0.0000 0.0000 0.0000 2.9114 0.0000 7.7207
#
#
#
# Elastic Compliance Matrix: (Units=1/GPa)
#
#
# Indices 1 2 3 4 5 6 
#
# 1 0.015812 -0.011982 -0.007218 0.000000 -0.005070 0.000000
# 2 -0.011982 0.154682 0.010967 0.000000 0.010505 0.000000
# 3 -0.007218 0.010967 0.013112 0.000000 -0.004491 0.000000
# 4 0.000000 0.000000 0.000000 0.033283 0.000000 -0.012551
# 5 -0.005070 0.010505 -0.004491 0.000000 0.040885 0.000000
# 6 0.000000 0.000000 0.000000 -0.012551 0.000000 0.134255
#
#
# Mechanical properties :
#
#
# Convention : Reuss Voigt Hill
#
# Bulk Modulus (GPa) = 5.98294 36.95806 21.47050
# Shear Modulus (GPa) = 10.77102 25.01753 17.89427
#
# Velocity S-wave (km/s) = 2.34162 3.56871 3.01818
# Velocity P-wave (km/s) = 3.21818 5.98290 4.80374
#
# Compressibility (1/GPa) = 0.16714204
#
# Stress axis : x y z
#
# Youngs Moduli (GPa) = 63.24127 6.46486 76.26681
#
# Poissons Ratio (x) = 0.07746 0.55046
# Poissons Ratio (y) = 0.75774 -0.83642
# Poissons Ratio (z) = 0.45645 -0.07090
#
# Static dielectric constant tensor:
#      x y z
#    x 1.688780 0.000000 -0.009490 
#    y 0.000000 1.650810 0.000000 
#    z -0.009490 0.000000 1.816320 
# 
# From -- ./inp_files/87874.got.cif
#   From: 2010.05.17/outbox.cif.g08.bks.cpg/sg15_44_cif.got.tgz:87874.got - 2010.06.03 18:47:42.
