data_PCOD9275632
_publ_section_title
;
Structure prediction by ZEFSAII (Michael W. Deem and Ramdas Pophale) SiO2 
 PCOD9275632
Probable space group: C 2/C
;
_chemical_formula_sum "Si O2"
_cell_formula_units_Z 64
_cell_length_a 20.877652
_cell_length_b 9.338885
_cell_length_c 22.336960
_cell_angle_alpha 90.000000
_cell_angle_beta 51.006587
_cell_angle_gamma 90.000000
_cell_volume 3384.883839
_symmetry_space_group_name_H-M "C 2/C"
_symmetry_group_IT_number 15
_symmetry_cell_setting 'monoclinic'
loop_
_space_group_symop_operation_xyz
x,y,z
-x,y,1/2-z
-x,-y,-z
x,-y,1/2+z
1/2+x,1/2+y,z
1/2-x,1/2+y,1/2-z
1/2-x,1/2-y,-z
1/2+x,1/2-y,1/2+z
loop_
_atom_site_type_symbol
_atom_site_label
_atom_site_fract_x
_atom_site_fract_y
_atom_site_fract_z
Si Si1 0.828362 0.339927 0.974176
Si Si2 0.296517 0.140512 0.930546
Si Si3 0.641668 0.588223 0.800045
Si Si4 0.770296 0.759729 0.146991
Si Si5 0.696396 0.075711 0.875088
Si Si6 0.029037 0.852630 0.163900
Si Si7 0.886555 0.759213 0.677444
Si Si8 0.456060 0.673751 0.339122
O O1 0.815007 0.492802 0.951306
O O2 0.910006 0.264770 0.899479
O O3 0.750000 0.250000 0.000000
O O4 0.824208 0.356261 0.048574
O O5 0.240746 0.140242 0.904011
O O6 0.383157 0.218176 0.869693
O O7 0.250000 0.250000 0.000000
O O8 0.667024 0.681174 0.841394
O O9 0.713280 0.605674 0.707514
O O10 0.555586 0.634706 0.822930
O O11 0.634849 0.423916 0.826367
O O12 0.798193 0.596389 0.118259
O O13 0.680118 0.766220 0.230878
O O14 0.633387 0.144204 0.862931
O O15 0.000000 0.827829 0.250000
O O16 0.071078 0.010234 0.131260
O O17 0.978576 0.766355 0.650670
O O18 0.500000 0.655781 0.250000
#
# Coordination Sequence:
#
# PCOD9275632 Si02
#       8
#     8   8   8   8   8   8   8   8
#     4  12  26  41  61  92 128 164 205 260 310 369
#     4  12  24  40  62  92 121 162 208 251 316 364
#     4   9  20  39  66  91 118 163 210 249 305 373
#     4  10  20  39  63  90 122 160 206 251 304 371
#     4  10  21  40  62  89 126 161 202 255 316 359
#     4  10  22  42  65  91 125 167 205 255 314 369
#     4   9  19  38  65  92 116 161 203 253 305 365
#     4  10  20  41  68  88 123 160 209 256 303 372
#
# _framework density 18.907591
#
# number of rings (size 3 to 8) (size 9 to 14) (size 15 to 20)
#    0.000    1.750    2.500    1.500    3.500    1.500 
#    6.750    2.500    0.000    0.000    0.000    0.000 
#    0.000    0.000    0.000    0.000    0.000    0.000 
#
# Total GULP energy -178425.548885 kJ/mol
# GULP energy per Si atom -5575.798403 kJ/mol
# Density = 1.886456 g / cm^3
# Si number density = 18.907591 Si / 1000 Ang^3
#
#
#
# Elastic Constant Matrix: (Units=GPa)
#
#
# Indices 1 2 3 4 5 6 
#
# 1 84.5033 44.9367 28.1738 -0.0002 20.1963 0.0001
# 2 44.9367 85.8424 35.3287 -0.0011 6.9817 0.0006
# 3 28.1738 35.3287 46.4257 -0.0001 17.4874 0.0001
# 4 -0.0002 -0.0011 -0.0001 -264.7727 0.0001 112.3463
# 5 20.1963 6.9817 17.4874 0.0001 26.8998 0.0000
# 6 0.0001 0.0006 0.0001 112.3463 0.0000 -6.4737
#
#
#
# Elastic Compliance Matrix: (Units=1/GPa)
#
#
# Indices 1 2 3 4 5 6 
#
# 1 0.019771 -0.009188 -0.000415 0.000000 -0.012190 0.000000
# 2 -0.009188 0.021817 -0.015218 0.000000 0.011129 0.000000
# 3 -0.000415 -0.015218 0.042069 0.000000 -0.023087 0.000000
# 4 0.000000 0.000000 0.000000 0.000594 0.000000 0.010300
# 5 -0.012190 0.011129 -0.023087 0.000000 0.058447 0.000000
# 6 0.000000 0.000000 0.000000 0.010300 0.000000 0.024274
#
#
# Mechanical properties :
#
#
# Convention : Reuss Voigt Hill
#
# Bulk Modulus (GPa) = 29.39934 48.18331 38.79133
# Shear Modulus (GPa) = 21.93436 -41.64719 -9.85641
#
# Velocity S-wave (km/s) = 3.40969 -4.69835 -2.28566
# Velocity P-wave (km/s) = 5.57531 1.97327 3.68716
#
# Compressibility (1/GPa) = 0.03401436
#
# Stress axis : x y z
#
# Youngs Moduli (GPa) = 50.57808 45.83618 23.77050
#
# Poissons Ratio (x) = 0.42112 0.00987
# Poissons Ratio (y) = 0.46469 0.36175
# Poissons Ratio (z) = 0.02101 0.69756
#
# Static dielectric constant tensor:
#      x y z
#    x 1.657720 0.000000 0.020590 
#    y 0.000000 1.741410 0.000000 
#    z 0.020590 0.000000 1.660300 
# 
# From -- ./inp_files/279551.got.cif
#   From: 2010.05.17/outbox.cif.g08.bks.cpg/sg15_140_cif.got.tgz:279551.got - 2010.06.03 18:47:42.
