data_PCOD9275647
_publ_section_title
;
Structure prediction by ZEFSAII (Michael W. Deem and Ramdas Pophale) SiO2 
 PCOD9275647
Probable space group: C 2/C
;
_chemical_formula_sum "Si O2"
_cell_formula_units_Z 40
_cell_length_a 7.966317
_cell_length_b 28.045235
_cell_length_c 8.863049
_cell_angle_alpha 90.000000
_cell_angle_beta 70.991003
_cell_angle_gamma 90.000000
_cell_volume 1872.174801
_symmetry_space_group_name_H-M "C 2/C"
_symmetry_group_IT_number 15
_symmetry_cell_setting 'monoclinic'
loop_
_space_group_symop_operation_xyz
x,y,z
-x,y,1/2-z
-x,-y,-z
x,-y,1/2+z
1/2+x,1/2+y,z
1/2-x,1/2+y,1/2-z
1/2-x,1/2-y,-z
1/2+x,1/2-y,1/2+z
loop_
_atom_site_type_symbol
_atom_site_label
_atom_site_fract_x
_atom_site_fract_y
_atom_site_fract_z
Si Si1 0.575738 0.696236 0.557795
Si Si2 0.791444 0.868040 0.967998
Si Si3 0.931589 0.720085 0.936699
Si Si4 0.707036 0.119618 0.151042
Si Si5 0.003352 0.052532 0.567957
O O1 0.500000 0.691813 0.750000
O O2 0.437470 0.667397 0.493473
O O3 0.561277 0.750894 0.509927
O O4 0.751403 0.666451 0.462504
O O5 0.612695 0.835968 0.035166
O O6 0.839578 0.916130 0.045873
O O7 0.799422 0.876615 0.787948
O O8 0.000000 0.727516 0.750000
O O9 0.750000 0.750000 0.000000
O O10 0.500000 0.112718 0.250000
O O11 0.812334 0.077656 0.036116
O O12 0.000000 0.052342 0.750000
O O13 0.000000 0.000000 0.500000
#
# Coordination Sequence:
#
# PCOD9275647 Si02
#       5
#     8   8   8   8   8
#     4  10  20  39  63  91 128 182 233 270 320 389
#     4  10  21  39  63  92 129 171 216 270 325 385
#     4  10  21  38  59  86 123 174 224 266 314 374
#     4  11  23  40  65 101 136 171 219 281 331 382
#     4  11  23  46  75 100 126 170 215 263 335 412
#
# _framework density 21.365525999999999
#
# number of rings (size 3 to 8) (size 9 to 14) (size 15 to 20)
#    0.000    1.600    0.000    8.400    0.000    5.600 
#    0.000   11.000    0.000    1.200    0.000    0.000 
#    0.000    0.000    0.000    0.000    0.000    0.000 
#
# Total GULP energy -111532.584058 kJ/mol
# GULP energy per Si atom -5576.629203 kJ/mol
# Density = 2.131690 g / cm^3
# Si number density = 21.365526 Si / 1000 Ang^3
#
#
#
# Elastic Constant Matrix: (Units=GPa)
#
#
# Indices 1 2 3 4 5 6 
#
# 1 121.1296 68.7961 70.9915 0.0000 -2.3159 0.0000
# 2 68.7961 201.5905 86.3213 0.0000 1.0129 0.0000
# 3 70.9915 86.3213 234.8729 0.0000 8.9984 0.0000
# 4 0.0000 0.0000 0.0000 60.3827 0.0000 6.5756
# 5 -2.3159 1.0129 8.9984 0.0000 36.7627 0.0000
# 6 0.0000 0.0000 0.0000 6.5756 0.0000 35.4605
#
#
#
# Elastic Compliance Matrix: (Units=1/GPa)
#
#
# Indices 1 2 3 4 5 6 
#
# 1 0.011314 -0.002826 -0.002434 0.000000 0.001386 0.000000
# 2 -0.002826 0.006598 -0.001572 0.000000 0.000025 0.000000
# 3 -0.002434 -0.001572 0.005628 0.000000 -0.001488 0.000000
# 4 0.000000 0.000000 0.000000 0.016902 0.000000 -0.003134
# 5 0.001386 0.000025 -0.001488 0.000000 0.027652 0.000000
# 6 0.000000 0.000000 0.000000 -0.003134 0.000000 0.028782
#
#
# Mechanical properties :
#
#
# Convention : Reuss Voigt Hill
#
# Bulk Modulus (GPa) = 101.25305 112.20119 106.72712
# Shear Modulus (GPa) = 43.92491 48.62013 46.27252
#
# Velocity S-wave (km/s) = 4.53910 4.77554 4.65882
# Velocity P-wave (km/s) = 8.65823 9.11245 8.88824
#
# Compressibility (1/GPa) = 0.00987625
#
# Stress axis : x y z
#
# Youngs Moduli (GPa) = 88.38938 151.56767 177.68237
#
# Poissons Ratio (x) = 0.42826 0.43252
# Poissons Ratio (y) = 0.24975 0.27927
# Poissons Ratio (z) = 0.21516 0.23822
#
# Static dielectric constant tensor:
#      x y z
#    x 1.868670 0.000000 -0.037010 
#    y 0.000000 1.809490 0.000000 
#    z -0.037010 0.000000 1.763520 
# 
# From -- ./inp_files/25349.got.cif
#   From: 2010.05.17/outbox.cif.g08.bks.cpg/sg15_13_cif.got.tgz:25349.got - 2010.06.03 18:47:42.
