data_PCOD9275843
_publ_section_title
;
Structure prediction by ZEFSAII (Michael W. Deem and Ramdas Pophale) SiO2 
 PCOD9275843
Probable space group: C 2/C
;
_chemical_formula_sum "Si O2"
_cell_formula_units_Z 48
_cell_length_a 8.792299
_cell_length_b 17.922331
_cell_length_c 29.730932
_cell_angle_alpha 90.000000
_cell_angle_beta 147.978777
_cell_angle_gamma 90.000000
_cell_volume 2484.119648
_symmetry_space_group_name_H-M "C 2/C"
_symmetry_group_IT_number 15
_symmetry_cell_setting 'monoclinic'
loop_
_space_group_symop_operation_xyz
x,y,z
-x,y,1/2-z
-x,-y,-z
x,-y,1/2+z
1/2+x,1/2+y,z
1/2-x,1/2+y,1/2-z
1/2-x,1/2-y,-z
1/2+x,1/2-y,1/2+z
loop_
_atom_site_type_symbol
_atom_site_label
_atom_site_fract_x
_atom_site_fract_y
_atom_site_fract_z
Si Si1 0.260814 0.965607 0.228155
Si Si2 0.764801 0.336532 0.988454
Si Si3 0.318052 0.058171 0.425035
Si Si4 0.340662 0.057169 0.329066
Si Si5 0.883147 0.334842 0.670165
Si Si6 0.381881 0.343333 0.171113
O O1 0.500000 0.965479 0.250000
O O2 0.086283 0.888596 0.188928
O O3 0.405236 0.987828 0.312163
O O4 0.007419 0.026264 0.157015
O O5 0.049904 0.367589 0.083831
O O6 0.750000 0.250000 0.000000
O O7 0.815387 0.361365 0.949201
O O8 0.443060 0.363916 0.917362
O O9 0.445485 0.058979 0.406629
O O10 0.500000 0.000000 0.500000
O O11 0.434586 0.127309 0.323027
O O12 0.000000 0.057022 0.250000
O O13 0.891098 0.245449 0.666643
O O14 0.000000 0.350756 0.750000
O O15 0.500000 0.359683 0.250000
#
# Coordination Sequence:
#
# PCOD9275843 Si02
#       6
#     8   8   8   8   8   8
#     4  11  22  39  62  90 121 157 210 258 307 371
#     4  10  21  39  62  90 121 162 205 247 306 375
#     4  11  21  38  63  84 124 160 199 253 315 363
#     4  10  21  37  63  85 117 157 201 253 305 362
#     4  10  20  39  65  90 119 160 209 250 310 375
#     4  10  21  39  61  87 124 164 198 254 314 366
#
# _framework density 19.32274
#
# number of rings (size 3 to 8) (size 9 to 14) (size 15 to 20)
#    0.000    1.667    1.667    5.000    0.000    0.667 
#    3.000    5.000    0.000    0.000    0.000    0.000 
#    0.000    0.000    0.000    0.000    0.000    0.000 
#
# Total GULP energy -133723.779544 kJ/mol
# GULP energy per Si atom -5571.824148 kJ/mol
# Density = 1.927876 g / cm^3
# Si number density = 19.322740 Si / 1000 Ang^3
#
#
#
# Elastic Constant Matrix: (Units=GPa)
#
#
# Indices 1 2 3 4 5 6 
#
# 1 168.0781 57.7033 61.8058 0.0001 -10.0180 0.0000
# 2 57.7033 74.1004 25.0359 -0.0003 -10.0361 -0.0002
# 3 61.8058 25.0359 96.3375 0.0016 -9.3055 -0.0001
# 4 0.0001 -0.0003 0.0016 19.8806 0.0003 0.6378
# 5 -10.0180 -10.0361 -9.3055 0.0003 33.3187 0.0000
# 6 0.0000 -0.0002 -0.0001 0.6378 0.0000 40.3834
#
#
#
# Elastic Compliance Matrix: (Units=1/GPa)
#
#
# Indices 1 2 3 4 5 6 
#
# 1 0.009731 -0.006017 -0.004699 0.000000 -0.000199 0.000000
# 2 -0.006017 0.018918 -0.000699 0.000000 0.003694 0.000000
# 3 -0.004699 -0.000699 0.013792 -0.000001 0.002229 0.000000
# 4 0.000000 0.000000 -0.000001 0.050326 -0.000001 -0.000795
# 5 -0.000199 0.003694 0.002229 -0.000001 0.031688 0.000000
# 6 0.000000 0.000000 0.000000 -0.000795 0.000000 0.024775
#
#
# Mechanical properties :
#
#
# Convention : Reuss Voigt Hill
#
# Bulk Modulus (GPa) = 50.99328 69.73401 60.36364
# Shear Modulus (GPa) = 27.99602 31.64794 29.82198
#
# Velocity S-wave (km/s) = 3.81052 4.05144 3.93283
# Velocity P-wave (km/s) = 6.76814 7.61925 7.20627
#
# Compressibility (1/GPa) = 0.01961043
#
# Stress axis : x y z
#
# Youngs Moduli (GPa) = 102.75982 52.86103 72.50840
#
# Poissons Ratio (x) = 0.31809 0.34069
# Poissons Ratio (y) = 0.61835 0.05068
# Poissons Ratio (z) = 0.48283 0.03694
#
# Static dielectric constant tensor:
#      x y z
#    x 1.656780 0.000000 -0.030760 
#    y 0.000000 1.715760 0.000000 
#    z -0.030760 0.000000 1.744860 
# 
# From -- ./inp_files/232881.got.cif
#   From: 2010.05.17/outbox.cif.g08.bks.cpg/sg15_117_cif.got.tgz:232881.got - 2010.06.03 18:47:42.
