data_PCOD9275505
_publ_section_title
;
Structure prediction by ZEFSAII (Michael W. Deem and Ramdas Pophale) SiO2 
 PCOD9275505
Probable space group: C 2/C
;
_chemical_formula_sum "Si O2"
_cell_formula_units_Z 60
_cell_length_a 22.229763
_cell_length_b 11.246907
_cell_length_c 18.105277
_cell_angle_alpha 90.000000
_cell_angle_beta 42.489610
_cell_angle_gamma 90.000000
_cell_volume 3057.528365
_symmetry_space_group_name_H-M "C 2/C"
_symmetry_group_IT_number 15
_symmetry_cell_setting 'monoclinic'
loop_
_space_group_symop_operation_xyz
x,y,z
-x,y,1/2-z
-x,-y,-z
x,-y,1/2+z
1/2+x,1/2+y,z
1/2-x,1/2+y,1/2-z
1/2-x,1/2-y,-z
1/2+x,1/2-y,1/2+z
loop_
_atom_site_type_symbol
_atom_site_label
_atom_site_fract_x
_atom_site_fract_y
_atom_site_fract_z
Si Si1 0.466124 0.339708 0.196241
Si Si2 0.151769 0.098031 0.482363
Si Si3 0.326532 0.754962 0.369591
Si Si4 0.970993 0.571664 0.139095
Si Si5 0.500000 0.899092 0.250000
Si Si6 0.193718 0.984320 0.111235
Si Si7 0.836814 0.626742 0.571530
Si Si8 0.712065 0.060214 0.725757
O O1 0.500000 0.341826 0.250000
O O2 0.455756 0.204219 0.182372
O O3 0.371072 0.399997 0.283730
O O4 0.543963 0.406738 0.080540
O O5 0.185118 0.051453 0.532631
O O6 0.169447 0.238703 0.453942
O O7 0.204372 0.020103 0.374877
O O8 0.250000 0.750000 0.500000
O O9 0.413516 0.816420 0.324361
O O10 0.339876 0.616438 0.341450
O O11 0.298851 0.834156 0.324321
O O12 0.998113 0.483735 0.180719
O O13 0.877585 0.520477 0.195084
O O14 0.060006 0.589149 0.009644
O O15 0.292456 0.959669 0.051165
O O16 0.785093 0.613260 0.695105
#
# Coordination Sequence:
#
# PCOD9275505 Si02
#       8
#     8   8   8   8   4   8   8   8
#     4   9  19  36  65  93 118 150 200 266 302 344
#     4  10  22  40  65  90 122 155 210 250 301 361
#     4  11  23  39  60  88 125 161 206 243 301 360
#     4  10  20  39  62  89 122 158 211 248 305 353
#     4  10  22  36  62  92 118 164 206 256 290 362
#     4  11  22  39  65  93 119 157 206 254 303 362
#     4  11  24  39  64  90 124 162 201 257 310 353
#     4  11  24  40  61  88 130 164 200 250 305 370
#
# _framework density 19.623694
#
# number of rings (size 3 to 8) (size 9 to 14) (size 15 to 20)
#    0.000    1.600    2.000    2.400    6.533    0.000 
#    0.000    0.667    5.867    0.000    0.000    0.000 
#    0.000    0.000    0.000    0.000    0.000    0.000 
#
# Total GULP energy -167441.101274 kJ/mol
# GULP energy per Si atom -5581.370042 kJ/mol
# Density = 1.957903 g / cm^3
# Si number density = 19.623694 Si / 1000 Ang^3
#
#
#
# Elastic Constant Matrix: (Units=GPa)
#
#
# Indices 1 2 3 4 5 6 
#
# 1 29.9752 12.6407 15.9689 0.0000 -6.7130 0.0000
# 2 12.6407 106.2767 52.3159 0.0000 -5.7273 0.0000
# 3 15.9689 52.3159 112.5985 0.0000 -2.7433 0.0000
# 4 0.0000 0.0000 0.0000 -56.4578 0.0000 -56.9063
# 5 -6.7130 -5.7273 -2.7433 0.0000 16.0627 0.0000
# 6 0.0000 0.0000 0.0000 -56.9063 0.0000 -23.4670
#
#
#
# Elastic Compliance Matrix: (Units=1/GPa)
#
#
# Indices 1 2 3 4 5 6 
#
# 1 0.039901 -0.001711 -0.004491 0.000000 0.015299 0.000000
# 2 -0.001711 0.012460 -0.005479 0.000000 0.002792 0.000000
# 3 -0.004491 -0.005479 0.012020 0.000000 -0.001778 0.000000
# 4 0.000000 0.000000 0.000000 0.012264 0.000000 -0.029740
# 5 0.015299 0.002792 -0.001778 0.000000 0.069342 0.000000
# 6 0.000000 0.000000 0.000000 -0.029740 0.000000 0.029506
#
#
# Mechanical properties :
#
#
# Convention : Reuss Voigt Hill
#
# Bulk Modulus (GPa) = 24.37800 45.63348 35.00574
# Shear Modulus (GPa) = 23.52624 -1.57742 10.97441
#
# Velocity S-wave (km/s) = 3.46622 -0.89754 2.36740
# Velocity P-wave (km/s) = 5.33567 4.71494 5.03488
#
# Compressibility (1/GPa) = 0.04102059
#
# Stress axis : x y z
#
# Youngs Moduli (GPa) = 25.06191 80.25494 83.19249
#
# Poissons Ratio (x) = 0.13728 0.37365
# Poissons Ratio (y) = 0.04287 0.45579
# Poissons Ratio (z) = 0.11256 0.43969
#
# Static dielectric constant tensor:
#      x y z
#    x 1.678970 0.000000 -0.007990 
#    y 0.000000 1.732020 0.000000 
#    z -0.007990 0.000000 1.713490 
# 
# From -- ./inp_files/215178.got.cif
#   From: 2010.05.17/outbox.cif.g08.bks.cpg/sg15_108_cif.got.tgz:215178.got - 2010.06.03 18:47:42.
