data_PCOD9275494
_publ_section_title
;
Structure prediction by ZEFSAII (Michael W. Deem and Ramdas Pophale) SiO2 
 PCOD9275494
Probable space group: C 2/C
;
_chemical_formula_sum "Si O2"
_cell_formula_units_Z 56
_cell_length_a 14.438876
_cell_length_b 22.728008
_cell_length_c 9.219459
_cell_angle_alpha 90.000000
_cell_angle_beta 62.284478
_cell_angle_gamma 90.000000
_cell_volume 2678.396065
_symmetry_space_group_name_H-M "C 2/C"
_symmetry_group_IT_number 15
_symmetry_cell_setting 'monoclinic'
loop_
_space_group_symop_operation_xyz
x,y,z
-x,y,1/2-z
-x,-y,-z
x,-y,1/2+z
1/2+x,1/2+y,z
1/2-x,1/2+y,1/2-z
1/2-x,1/2-y,-z
1/2+x,1/2-y,1/2+z
loop_
_atom_site_type_symbol
_atom_site_label
_atom_site_fract_x
_atom_site_fract_y
_atom_site_fract_z
Si Si1 0.298899 0.664351 0.047351
Si Si2 0.106232 0.474722 0.485330
Si Si3 0.320215 0.263904 0.807323
Si Si4 0.500000 0.643941 0.250000
Si Si5 0.240682 0.532057 0.161330
Si Si6 0.000000 0.124465 0.750000
Si Si7 0.122772 0.922086 0.420748
Si Si8 0.817193 0.351494 0.166324
O O1 0.268134 0.708283 0.199487
O O2 0.279937 0.597976 0.117424
O O3 0.419818 0.664290 0.903491
O O4 0.229663 0.670953 0.952775
O O5 0.198833 0.513467 0.347926
O O6 0.139894 0.474687 0.628439
O O7 0.113931 0.407897 0.422593
O O8 0.000000 0.500000 0.500000
O O9 0.405341 0.312831 0.781125
O O10 0.366818 0.201962 0.717695
O O11 0.250000 0.250000 0.000000
O O12 0.460788 0.602969 0.407409
O O13 0.332223 0.484984 0.066099
O O14 0.069924 0.083168 0.801698
O O15 0.221859 0.877959 0.331712
#
# Coordination Sequence:
#
# PCOD9275494 Si02
#       8
#     8   8   8   4   8   4   8   8
#     4  10  22  40  66  91 126 172 213 268 323 393
#     4  10  21  41  66  92 128 168 219 272 327 395
#     4  12  24  43  64  94 132 174 218 273 329 390
#     4  12  24  41  62  98 134 171 226 268 330 400
#     4  10  23  39  63  97 131 166 214 265 340 390
#     4  10  20  39  62  88 126 167 216 256 320 394
#     4  10  21  40  62  92 132 171 211 272 326 397
#     4   9  21  43  62  89 123 171 217 267 329 383
#
# _framework density 20.908035999999999
#
# number of rings (size 3 to 8) (size 9 to 14) (size 15 to 20)
#    0.000    1.714    2.857    1.714    2.000    1.143 
#    7.714    0.000    3.143    0.000    0.000    0.000 
#    0.000    0.000    0.000    0.000    0.000    0.000 
#
# Total GULP energy -156272.480332 kJ/mol
# GULP energy per Si atom -5581.160012 kJ/mol
# Density = 2.086045 g / cm^3
# Si number density = 20.908036 Si / 1000 Ang^3
#
#
#
# Elastic Constant Matrix: (Units=GPa)
#
#
# Indices 1 2 3 4 5 6 
#
# 1 53.0665 23.7969 12.8449 0.0000 -8.3600 0.0000
# 2 23.7969 91.8541 48.5279 0.0000 6.3311 0.0000
# 3 12.8449 48.5279 103.7802 0.0000 6.5721 0.0000
# 4 0.0000 0.0000 0.0000 19.5084 0.0000 -5.6660
# 5 -8.3600 6.3311 6.5721 0.0000 17.1355 0.0000
# 6 0.0000 0.0000 0.0000 -5.6660 0.0000 19.0573
#
#
#
# Elastic Compliance Matrix: (Units=1/GPa)
#
#
# Indices 1 2 3 4 5 6 
#
# 1 0.024480 -0.006994 -0.000696 0.000000 0.014794 0.000000
# 2 -0.006994 0.016591 -0.006445 0.000000 -0.007070 0.000000
# 3 -0.000696 -0.006445 0.012920 0.000000 -0.002914 0.000000
# 4 0.000000 0.000000 0.000000 0.056105 0.000000 0.016681
# 5 0.014794 -0.007070 -0.002914 0.000000 0.069306 0.000000
# 6 0.000000 0.000000 0.000000 0.016681 0.000000 0.057433
#
#
# Mechanical properties :
#
#
# Convention : Reuss Voigt Hill
#
# Bulk Modulus (GPa) = 38.87872 46.56000 42.71936
# Shear Modulus (GPa) = 18.26970 22.04233 20.15601
#
# Velocity S-wave (km/s) = 2.95924 3.25045 3.10825
# Velocity P-wave (km/s) = 5.50560 6.03361 5.77564
#
# Compressibility (1/GPa) = 0.02572101
#
# Stress axis : x y z
#
# Youngs Moduli (GPa) = 40.84998 60.27431 77.39961
#
# Poissons Ratio (x) = 0.42155 0.05390
# Poissons Ratio (y) = 0.28570 0.49880
# Poissons Ratio (z) = 0.02845 0.38844
#
# Static dielectric constant tensor:
#      x y z
#    x 1.767260 0.000000 0.010510 
#    y 0.000000 1.723200 0.000000 
#    z 0.010510 0.000000 1.774130 
# 
# From -- ./inp_files/42581.got.cif
#   From: 2010.05.17/outbox.cif.g08.bks.cpg/sg15_22_cif.got.tgz:42581.got - 2010.06.03 18:47:42.
