data_PCOD9275465
_publ_section_title
;
Structure prediction by ZEFSAII (Michael W. Deem and Ramdas Pophale) SiO2 
 PCOD9275465
Probable space group: C 2/C
;
_chemical_formula_sum "Si O2"
_cell_formula_units_Z 48
_cell_length_a 16.009505
_cell_length_b 10.395243
_cell_length_c 22.218894
_cell_angle_alpha 90.000000
_cell_angle_beta 142.582262
_cell_angle_gamma 90.000000
_cell_volume 2246.820091
_symmetry_space_group_name_H-M "C 2/C"
_symmetry_group_IT_number 15
_symmetry_cell_setting 'monoclinic'
loop_
_space_group_symop_operation_xyz
x,y,z
-x,y,1/2-z
-x,-y,-z
x,-y,1/2+z
1/2+x,1/2+y,z
1/2-x,1/2+y,1/2-z
1/2-x,1/2-y,-z
1/2+x,1/2-y,1/2+z
loop_
_atom_site_type_symbol
_atom_site_label
_atom_site_fract_x
_atom_site_fract_y
_atom_site_fract_z
Si Si1 0.313964 0.372135 0.890626
Si Si2 0.465071 0.474472 0.800326
Si Si3 0.109990 0.118427 0.494588
Si Si4 0.597713 0.128826 0.487509
Si Si5 0.964357 0.725364 0.299969
Si Si6 0.186834 0.374686 0.601312
O O1 0.454752 0.377534 0.933323
O O2 0.178349 0.350730 0.774140
O O3 0.313301 0.498826 0.930873
O O4 0.321519 0.246342 0.936662
O O5 0.500000 0.475450 0.750000
O O6 0.579732 0.407833 0.907378
O O7 0.450622 0.624528 0.811501
O O8 0.320979 0.398576 0.718425
O O9 0.184280 0.247356 0.559055
O O10 0.576765 0.156638 0.405671
O O11 0.447302 0.130178 0.432803
O O12 0.668756 0.997445 0.547451
O O13 0.000000 0.721413 0.250000
#
# Coordination Sequence:
#
# PCOD9275465 Si02
#       6
#     8   8   8   8   8   8
#     4  10  20  39  62  86 116 152 202 244 283 348
#     4  11  23  39  59  87 124 159 192 242 304 355
#     4  10  22  39  62  88 117 157 196 244 297 344
#     4  10  20  39  62  86 116 152 202 244 283 348
#     4  11  23  37  61  91 120 157 198 244 292 349
#     4  10  22  39  62  88 117 157 196 244 297 344
#
# _framework density 21.363526
#
# number of rings (size 3 to 8) (size 9 to 14) (size 15 to 20)
#    0.000    1.667    3.333    1.000    0.000    4.000 
#    0.000    1.667    0.000    0.000    0.000    0.000 
#    0.000    0.000    0.000    0.000    0.000    0.000 
#
# Total GULP energy -134178.553020 kJ/mol
# GULP energy per Si atom -5590.773043 kJ/mol
# Density = 2.131490 g / cm^3
# Si number density = 21.363526 Si / 1000 Ang^3
#
#
#
# Elastic Constant Matrix: (Units=GPa)
#
#
# Indices 1 2 3 4 5 6 
#
# 1 45.5315 20.1568 13.8253 0.0000 -10.6443 0.0000
# 2 20.1568 154.6165 35.6670 0.0000 -19.8596 0.0000
# 3 13.8253 35.6670 72.4052 0.0000 -20.8257 0.0000
# 4 0.0000 0.0000 0.0000 30.3676 0.0000 -4.3485
# 5 -10.6443 -19.8596 -20.8257 0.0000 39.6478 0.0000
# 6 0.0000 0.0000 0.0000 -4.3485 0.0000 9.7886
#
#
#
# Elastic Compliance Matrix: (Units=1/GPa)
#
#
# Indices 1 2 3 4 5 6 
#
# 1 0.024633 -0.002099 -0.002438 0.000000 0.004281 0.000000
# 2 -0.002099 0.007624 -0.002849 0.000000 0.001759 0.000000
# 3 -0.002438 -0.002849 0.017765 0.000000 0.007250 0.000000
# 4 0.000000 0.000000 0.000000 0.035167 0.000000 0.015623
# 5 0.004281 0.001759 0.007250 0.000000 0.031061 0.000000
# 6 0.000000 0.000000 0.000000 0.015623 0.000000 0.109100
#
#
# Mechanical properties :
#
#
# Convention : Reuss Voigt Hill
#
# Bulk Modulus (GPa) = 28.36835 45.76127 37.06481
# Shear Modulus (GPa) = 19.85121 29.48774 24.66947
#
# Velocity S-wave (km/s) = 3.05160 3.71925 3.40184
# Velocity P-wave (km/s) = 5.07189 6.31748 5.72864
#
# Compressibility (1/GPa) = 0.03525055
#
# Stress axis : x y z
#
# Youngs Moduli (GPa) = 40.59555 131.15757 56.28904
#
# Poissons Ratio (x) = 0.27530 0.13724
# Poissons Ratio (y) = 0.08521 0.16037
# Poissons Ratio (z) = 0.09898 0.37368
#
# Static dielectric constant tensor:
#      x y z
#    x 1.825370 0.000000 0.019310 
#    y 0.000000 1.731210 0.000000 
#    z 0.019310 0.000000 1.741390 
# 
# From -- ./inp_files/277295.got.cif
#   From: 2010.05.17/outbox.cif.g08.bks.cpg/sg15_139_cif.got.tgz:277295.got - 2010.06.03 18:47:42.
