data_PCOD9275777
_publ_section_title
;
Structure prediction by ZEFSAII (Michael W. Deem and Ramdas Pophale) SiO2 
 PCOD9275777
Probable space group: C 2/C
;
_chemical_formula_sum "Si O2"
_cell_formula_units_Z 56
_cell_length_a 17.741928
_cell_length_b 5.212937
_cell_length_c 31.088908
_cell_angle_alpha 90.000000
_cell_angle_beta 57.364912
_cell_angle_gamma 90.000000
_cell_volume 2421.385414
_symmetry_space_group_name_H-M "C 2/C"
_symmetry_group_IT_number 15
_symmetry_cell_setting 'monoclinic'
loop_
_space_group_symop_operation_xyz
x,y,z
-x,y,1/2-z
-x,-y,-z
x,-y,1/2+z
1/2+x,1/2+y,z
1/2-x,1/2+y,1/2-z
1/2-x,1/2-y,-z
1/2+x,1/2-y,1/2+z
loop_
_atom_site_type_symbol
_atom_site_label
_atom_site_fract_x
_atom_site_fract_y
_atom_site_fract_z
Si Si1 0.959285 0.706011 0.182375
Si Si2 0.969966 0.800402 0.620763
Si Si3 0.684095 0.935194 0.382080
Si Si4 0.715632 0.716576 0.941950
Si Si5 0.342471 0.510356 0.960567
Si Si6 0.152769 0.655591 0.120664
Si Si7 0.221530 0.903170 0.234799
O O1 0.957724 0.428880 0.159437
O O2 0.058579 0.713314 0.171619
O O3 0.951335 0.925856 0.148444
O O4 0.877548 0.781201 0.238464
O O5 0.900388 0.736461 0.604466
O O6 0.072082 0.825831 0.573180
O O7 0.657524 0.165299 0.422034
O O8 0.731023 0.005898 0.322692
O O9 0.764680 0.796857 0.382363
O O10 0.749336 0.915384 0.967625
O O11 0.809938 0.631372 0.891565
O O12 0.672542 0.490259 0.983646
O O13 0.361187 0.755385 0.924693
O O14 0.224453 0.153217 0.264529
#
# Coordination Sequence:
#
# PCOD9275777 Si02
#       7
#     8   8   8   8   8   8   8
#     4  11  22  43  68  91 126 176 218 264 327 404
#     4  11  22  41  66  96 126 174 219 268 324 396
#     4  11  25  38  64  96 131 164 221 283 330 380
#     4  10  20  39  64  93 136 170 220 270 332 388
#     4   9  20  39  64  94 126 184 219 257 330 411
#     4  10  22  39  65  94 133 170 218 274 328 391
#     4  12  24  43  69  95 125 172 219 268 338 396
#
# _framework density 23.127258999999999
#
# number of rings (size 3 to 8) (size 9 to 14) (size 15 to 20)
#    0.000    1.429    4.286    0.429    4.000    1.143 
#    0.000    0.714    0.000    0.000    0.000    0.000 
#    0.000    0.000    0.000    0.000    0.000    0.000 
#
# Total GULP energy -156090.035091 kJ/mol
# GULP energy per Si atom -5574.644110 kJ/mol
# Density = 2.307462 g / cm^3
# Si number density = 23.127259 Si / 1000 Ang^3
#
#
#
# Elastic Constant Matrix: (Units=GPa)
#
#
# Indices 1 2 3 4 5 6 
#
# 1 106.7959 17.0036 13.5350 0.0052 -3.3681 0.0158
# 2 17.0036 80.4006 1.8770 0.0777 6.6552 -0.0253
# 3 13.5350 1.8770 64.9464 -0.0377 -0.3399 -0.0344
# 4 0.0052 0.0777 -0.0377 20.9973 0.0072 -8.5814
# 5 -3.3681 6.6552 -0.3399 0.0072 28.6038 -0.0064
# 6 0.0158 -0.0253 -0.0344 -8.5814 -0.0064 26.1285
#
#
#
# Elastic Compliance Matrix: (Units=1/GPa)
#
#
# Indices 1 2 3 4 5 6 
#
# 1 0.010024 -0.002211 -0.002016 -0.000003 0.001671 -0.000011
# 2 -0.002211 0.013179 0.000062 -0.000048 -0.003326 -0.000002
# 3 -0.002016 0.000062 0.015815 0.000044 -0.000064 0.000036
# 4 -0.000003 -0.000048 0.000044 0.055009 0.000002 0.018067
# 5 0.001671 -0.003326 -0.000064 0.000002 0.035930 0.000005
# 6 -0.000011 -0.000002 0.000036 0.018067 0.000005 0.044206
#
#
# Mechanical properties :
#
#
# Convention : Reuss Voigt Hill
#
# Bulk Modulus (GPa) = 32.58546 35.21935 33.90240
# Shear Modulus (GPa) = 25.94390 29.79441 27.86916
#
# Velocity S-wave (km/s) = 3.35295 3.59316 3.47513
# Velocity P-wave (km/s) = 5.39536 5.69877 5.54914
#
# Compressibility (1/GPa) = 0.03068853
#
# Stress axis : x y z
#
# Youngs Moduli (GPa) = 99.76105 75.87691 63.22935
#
# Poissons Ratio (x) = 0.16778 0.12749
# Poissons Ratio (y) = 0.22059 -0.00395
# Poissons Ratio (z) = 0.20116 -0.00474
#
# Static dielectric constant tensor:
#      x y z
#    x 1.888400 -0.000010 -0.030690 
#    y -0.000010 1.954140 -0.000170 
#    z -0.030690 -0.000170 1.928690 
# 
# From -- ./inp_files/315041.got.cif
#   From: 2010.05.17/outbox.cif.g08.bks.cpg/sg15_158_cif.got.tgz:315041.got - 2010.06.03 18:47:42.
