data_PCOD9275013
_publ_section_title
;
Structure prediction by ZEFSAII (Michael W. Deem and Ramdas Pophale) SiO2 
 PCOD9275013
Probable space group: C 2/C
;
_chemical_formula_sum "Si O2"
_cell_formula_units_Z 56
_cell_length_a 16.435960
_cell_length_b 11.220269
_cell_length_c 12.947185
_cell_angle_alpha 90.000000
_cell_angle_beta 68.336276
_cell_angle_gamma 90.000000
_cell_volume 2219.017387
_symmetry_space_group_name_H-M "C 2/C"
_symmetry_group_IT_number 15
_symmetry_cell_setting 'monoclinic'
loop_
_space_group_symop_operation_xyz
x,y,z
-x,y,1/2-z
-x,-y,-z
x,-y,1/2+z
1/2+x,1/2+y,z
1/2-x,1/2+y,1/2-z
1/2-x,1/2-y,-z
1/2+x,1/2-y,1/2+z
loop_
_atom_site_type_symbol
_atom_site_label
_atom_site_fract_x
_atom_site_fract_y
_atom_site_fract_z
Si Si1 0.083544 0.951739 0.522936
Si Si2 0.309207 0.951919 0.960395
Si Si3 0.287143 0.394043 0.672583
Si Si4 0.153920 0.058030 0.679151
Si Si5 0.399184 0.169715 0.984157
Si Si6 0.079455 0.694685 0.945723
Si Si7 0.550819 0.226509 0.327323
O O1 0.106520 0.812413 0.522110
O O2 0.163181 0.010207 0.423483
O O3 0.081716 0.997605 0.640803
O O4 0.000000 0.000000 0.500000
O O5 0.227463 0.899628 0.063980
O O6 0.303485 0.893165 0.849530
O O7 0.387017 0.910190 0.998243
O O8 0.328547 0.093520 0.954634
O O9 0.296853 0.456845 0.777425
O O10 0.344038 0.273062 0.640482
O O11 0.111218 0.163162 0.764605
O O12 0.502200 0.149933 0.907188
O O13 0.397801 0.148813 0.110115
O O14 0.028331 0.770613 0.058610
O O15 0.500000 0.178984 0.250000
#
# Coordination Sequence:
#
# PCOD9275013 Si02
#       7
#     8   8   8   8   8   8   8
#     4  11  20  42  67  96 128 166 226 279 332 396
#     4  11  25  43  64  97 139 181 216 275 345 406
#     4  11  22  41  63  97 131 174 220 279 337 395
#     4  11  25  37  66 101 133 166 222 279 343 391
#     4  10  22  41  70  89 131 176 217 278 337 389
#     4  10  22  42  70  89 135 179 231 269 331 407
#     4  10  20  38  67  97 121 172 226 270 321 405
#
# _framework density 25.236394000000001
#
# number of rings (size 3 to 8) (size 9 to 14) (size 15 to 20)
#    0.857    0.571    2.857    3.429    0.000    4.571 
#    2.571    0.000    0.000    0.000    0.000    0.000 
#    0.000    0.000    0.000    0.000    0.000    0.000 
#
# Total GULP energy -156067.857052 kJ/mol
# GULP energy per Si atom -5573.852038 kJ/mol
# Density = 2.517896 g / cm^3
# Si number density = 25.236394 Si / 1000 Ang^3
#
#
#
# Elastic Constant Matrix: (Units=GPa)
#
#
# Indices 1 2 3 4 5 6 
#
# 1 95.4182 20.5543 13.3017 0.0000 18.1967 0.0000
# 2 20.5543 79.0280 8.1681 0.0000 1.9215 0.0000
# 3 13.3017 8.1681 52.6401 0.0000 21.8035 0.0000
# 4 0.0000 0.0000 0.0000 23.3549 0.0000 1.6126
# 5 18.1967 1.9215 21.8035 0.0000 32.8306 0.0000
# 6 0.0000 0.0000 0.0000 1.6126 0.0000 45.2366
#
#
#
# Elastic Compliance Matrix: (Units=1/GPa)
#
#
# Indices 1 2 3 4 5 6 
#
# 1 0.012420 -0.003081 0.000160 0.000000 -0.006810 0.000000
# 2 -0.003081 0.013639 -0.002365 0.000000 0.002480 0.000000
# 3 0.000160 -0.002365 0.026628 0.000000 -0.017634 0.000000
# 4 0.000000 0.000000 0.000000 0.042923 0.000000 -0.001530
# 5 -0.006810 0.002480 -0.017634 0.000000 0.045800 0.000000
# 6 0.000000 0.000000 0.000000 -0.001530 0.000000 0.022161
#
#
# Mechanical properties :
#
#
# Convention : Reuss Voigt Hill
#
# Bulk Modulus (GPa) = 23.74446 34.57050 29.15748
# Shear Modulus (GPa) = 26.57006 32.62189 29.59597
#
# Velocity S-wave (km/s) = 3.24828 3.59925 3.42826
# Velocity P-wave (km/s) = 4.84744 5.56787 5.22010
#
# Compressibility (1/GPa) = 0.04211508
#
# Stress axis : x y z
#
# Youngs Moduli (GPa) = 80.51305 73.31744 37.55509
#
# Poissons Ratio (x) = 0.22592 -0.00602
# Poissons Ratio (y) = 0.24809 0.08882
# Poissons Ratio (z) = -0.01292 0.17340
#
# Static dielectric constant tensor:
#      x y z
#    x 4.872900 0.000000 0.202400 
#    y 0.000000 2.405600 0.000000 
#    z 0.202400 0.000000 2.027180 
# 
# From -- ./inp_files/160847.got.cif
#   From: 2010.05.17/outbox.cif.g08.bks.cpg/sg15_81_cif.got.tgz:160847.got - 2010.06.03 18:47:42.
