data_PCOD9275827
_publ_section_title
;
Structure prediction by ZEFSAII (Michael W. Deem and Ramdas Pophale) SiO2 
 PCOD9275827
Probable space group: C 2/C
;
_chemical_formula_sum "Si O2"
_cell_formula_units_Z 40
_cell_length_a 13.059904
_cell_length_b 8.757764
_cell_length_c 17.051545
_cell_angle_alpha 90.000000
_cell_angle_beta 123.559194
_cell_angle_gamma 90.000000
_cell_volume 1625.197845
_symmetry_space_group_name_H-M "C 2/C"
_symmetry_group_IT_number 15
_symmetry_cell_setting 'monoclinic'
loop_
_space_group_symop_operation_xyz
x,y,z
-x,y,1/2-z
-x,-y,-z
x,-y,1/2+z
1/2+x,1/2+y,z
1/2-x,1/2+y,1/2-z
1/2-x,1/2-y,-z
1/2+x,1/2-y,1/2+z
loop_
_atom_site_type_symbol
_atom_site_label
_atom_site_fract_x
_atom_site_fract_y
_atom_site_fract_z
Si Si1 0.576806 0.080618 0.424858
Si Si2 0.749290 0.765113 0.106308
Si Si3 0.368107 0.249844 0.495980
Si Si4 0.957918 0.984957 0.651554
Si Si5 0.652183 0.744161 0.693167
O O1 0.620427 0.204939 0.509158
O O2 0.676481 0.121664 0.399384
O O3 0.440765 0.113518 0.337172
O O4 0.578781 0.917514 0.465475
O O5 0.743630 0.749074 0.197133
O O6 0.834854 0.913344 0.118432
O O7 0.250000 0.250000 0.500000
O O8 0.445478 0.383396 0.569224
O O9 0.324025 0.268831 0.388346
O O10 0.000000 0.901432 0.750000
O O11 0.065430 0.104861 0.681413
#
# Coordination Sequence:
#
# PCOD9275827 Si02
#       5
#     8   8   8   8   8
#     4  10  20  39  65  87 120 155 203 247 297 352
#     4   9  19  41  64  87 116 165 201 238 296 368
#     4  12  23  39  57  95 125 149 195 263 298 339
#     4   9  19  39  63  84 120 163 199 238 298 359
#     4  10  22  41  64  86 118 165 205 234 297 369
#
# _framework density 24.612390000000001
#
# number of rings (size 3 to 8) (size 9 to 14) (size 15 to 20)
#    0.000    2.000    2.000    3.000    0.000    1.600 
#    7.200    0.000    0.000    0.000    0.000    0.000 
#    0.000    0.000    0.000    0.000    0.000    0.000 
#
# Total GULP energy -111820.305216 kJ/mol
# GULP energy per Si atom -5591.015261 kJ/mol
# Density = 2.455637 g / cm^3
# Si number density = 24.612390 Si / 1000 Ang^3
#
#
#
# Elastic Constant Matrix: (Units=GPa)
#
#
# Indices 1 2 3 4 5 6 
#
# 1 31.0020 -1.8611 3.4943 0.0000 -10.7805 0.0000
# 2 -1.8611 40.0315 37.9402 0.0000 -9.7877 0.0000
# 3 3.4943 37.9402 198.8139 0.0000 -28.1983 0.0000
# 4 0.0000 0.0000 0.0000 18.6993 0.0000 -5.1886
# 5 -10.7805 -9.7877 -28.1983 0.0000 40.1288 0.0000
# 6 0.0000 0.0000 0.0000 -5.1886 0.0000 9.0710
#
#
#
# Elastic Compliance Matrix: (Units=1/GPa)
#
#
# Indices 1 2 3 4 5 6 
#
# 1 0.036272 0.004254 0.000089 0.000000 0.010844 0.000000
# 2 0.004254 0.031503 -0.005370 0.000000 0.005053 0.000000
# 3 0.000089 -0.005370 0.006520 0.000000 0.003296 0.000000
# 4 0.000000 0.000000 0.000000 0.063567 0.000000 0.036360
# 5 0.010844 0.005053 0.003296 0.000000 0.031382 0.000000
# 6 0.000000 0.000000 0.000000 0.036360 0.000000 0.131040
#
#
# Mechanical properties :
#
#
# Convention : Reuss Voigt Hill
#
# Bulk Modulus (GPa) = 13.84257 38.77713 26.30985
# Shear Modulus (GPa) = 15.31771 28.93141 22.12456
#
# Velocity S-wave (km/s) = 2.49742 3.43225 3.00145
# Velocity P-wave (km/s) = 3.73531 5.61217 4.76702
#
# Compressibility (1/GPa) = 0.07224094
#
# Stress axis : x y z
#
# Youngs Moduli (GPa) = 27.56922 31.74310 153.36254
#
# Poissons Ratio (x) = -0.13502 -0.01362
# Poissons Ratio (y) = -0.11727 0.82353
# Poissons Ratio (z) = -0.00245 0.17046
#
# Static dielectric constant tensor:
#      x y z
#    x 2.012430 0.000000 -0.052490 
#    y 0.000000 2.218860 0.000000 
#    z -0.052490 0.000000 3.016100 
# 
# From -- ./inp_files/150775.got.cif
#   From: 2010.05.17/outbox.cif.g08.bks.cpg/sg15_76_cif.got.tgz:150775.got - 2010.06.03 18:47:42.
