data_PCOD9275716
_publ_section_title
;
Structure prediction by ZEFSAII (Michael W. Deem and Ramdas Pophale) SiO2 
 PCOD9275716
Probable space group: C 2/C
;
_chemical_formula_sum "Si O2"
_cell_formula_units_Z 48
_cell_length_a 5.538649
_cell_length_b 22.346475
_cell_length_c 20.163840
_cell_angle_alpha 90.000000
_cell_angle_beta 57.906815
_cell_angle_gamma 90.000000
_cell_volume 2114.289400
_symmetry_space_group_name_H-M "C 2/C"
_symmetry_group_IT_number 15
_symmetry_cell_setting 'monoclinic'
loop_
_space_group_symop_operation_xyz
x,y,z
-x,y,1/2-z
-x,-y,-z
x,-y,1/2+z
1/2+x,1/2+y,z
1/2-x,1/2+y,1/2-z
1/2-x,1/2-y,-z
1/2+x,1/2-y,1/2+z
loop_
_atom_site_type_symbol
_atom_site_label
_atom_site_fract_x
_atom_site_fract_y
_atom_site_fract_z
Si Si1 0.290742 0.269608 0.905247
Si Si2 0.332801 0.156767 0.542558
Si Si3 0.724033 0.923847 0.576170
Si Si4 0.824163 0.551747 0.942650
Si Si5 0.221206 0.647721 0.657601
Si Si6 0.419774 0.183351 0.335004
O O1 0.358881 0.199885 0.883096
O O2 0.582328 0.300255 0.886471
O O3 0.151598 0.292916 0.855235
O O4 0.040167 0.288642 0.993018
O O5 0.255993 0.128762 0.481604
O O6 0.470284 0.099626 0.555923
O O7 0.045415 0.168438 0.625080
O O8 0.586189 0.888854 0.656626
O O9 0.047966 0.947177 0.531047
O O10 0.563629 0.984474 0.579677
O O11 0.761900 0.582708 0.880145
O O12 0.000000 0.647780 0.750000
O O13 0.500000 0.203668 0.250000
#
# Coordination Sequence:
#
# PCOD9275716 Si02
#       6
#     8   8   8   8   8   8
#     4  11  24  43  67  96 129 174 219 270 320 393
#     4  10  21  40  66  93 121 170 223 267 322 389
#     4   9  20  38  62  94 120 165 212 273 312 386
#     4  10  20  39  64  86 125 166 214 260 325 386
#     4  11  25  40  59  93 133 169 213 268 332 390
#     4  11  22  40  66  96 130 168 217 272 332 380
#
# _framework density 22.702662
#
# number of rings (size 3 to 8) (size 9 to 14) (size 15 to 20)
#    0.000    1.667    1.667    2.500    2.333    2.000 
#    0.000    0.000    7.333    0.000    0.000    0.000 
#    0.000    0.000    0.000    0.000    0.000    0.000 
#
# Total GULP energy -133791.973744 kJ/mol
# GULP energy per Si atom -5574.665573 kJ/mol
# Density = 2.265099 g / cm^3
# Si number density = 22.702662 Si / 1000 Ang^3
#
#
#
# Elastic Constant Matrix: (Units=GPa)
#
#
# Indices 1 2 3 4 5 6 
#
# 1 87.2743 10.0853 24.4984 0.0000 2.5605 0.0000
# 2 10.0853 113.3796 16.0434 0.0000 2.3528 0.0000
# 3 24.4984 16.0434 126.2266 0.0000 -4.1594 0.0000
# 4 0.0000 0.0000 0.0000 23.4886 0.0000 6.0404
# 5 2.5605 2.3528 -4.1594 0.0000 26.9198 0.0000
# 6 0.0000 0.0000 0.0000 6.0404 0.0000 32.9408
#
#
#
# Elastic Compliance Matrix: (Units=1/GPa)
#
#
# Indices 1 2 3 4 5 6 
#
# 1 0.012239 -0.000729 -0.002331 0.000000 -0.001461 0.000000
# 2 -0.000729 0.009050 -0.001038 0.000000 -0.000882 0.000000
# 3 -0.002331 -0.001038 0.008560 0.000000 0.001635 0.000000
# 4 0.000000 0.000000 0.000000 0.044681 0.000000 -0.008193
# 5 -0.001461 -0.000882 0.001635 0.000000 0.037616 0.000000
# 6 0.000000 0.000000 0.000000 -0.008193 0.000000 0.031860
#
#
# Mechanical properties :
#
#
# Convention : Reuss Voigt Hill
#
# Bulk Modulus (GPa) = 46.17889 47.57050 46.87470
# Shear Modulus (GPa) = 31.36375 35.08675 33.22525
#
# Velocity S-wave (km/s) = 3.72089 3.93554 3.82972
# Velocity P-wave (km/s) = 6.23257 6.45372 6.34411
#
# Compressibility (1/GPa) = 0.02165491
#
# Stress axis : x y z
#
# Youngs Moduli (GPa) = 81.70272 110.49837 116.81607
#
# Poissons Ratio (x) = 0.08051 0.27230
# Poissons Ratio (y) = 0.05953 0.12124
# Poissons Ratio (z) = 0.19045 0.11469
#
# Static dielectric constant tensor:
#      x y z
#    x 1.950870 0.000000 0.033140 
#    y 0.000000 1.968780 0.000000 
#    z 0.033140 0.000000 1.908720 
# 
# From -- ./inp_files/185339.got.cif
#   From: 2010.05.17/outbox.cif.g08.bks.cpg/sg15_93_cif.got.tgz:185339.got - 2010.06.03 18:47:42.
