data_PCOD9275382
_publ_section_title
;
Structure prediction by ZEFSAII (Michael W. Deem and Ramdas Pophale) SiO2 
 PCOD9275382
Probable space group: C 2/C
;
_chemical_formula_sum "Si O2"
_cell_formula_units_Z 64
_cell_length_a 12.241801
_cell_length_b 31.651670
_cell_length_c 8.416923
_cell_angle_alpha 90.000000
_cell_angle_beta 84.959951
_cell_angle_gamma 90.000000
_cell_volume 3248.724317
_symmetry_space_group_name_H-M "C 2/C"
_symmetry_group_IT_number 15
_symmetry_cell_setting 'monoclinic'
loop_
_space_group_symop_operation_xyz
x,y,z
-x,y,1/2-z
-x,-y,-z
x,-y,1/2+z
1/2+x,1/2+y,z
1/2-x,1/2+y,1/2-z
1/2-x,1/2-y,-z
1/2+x,1/2-y,1/2+z
loop_
_atom_site_type_symbol
_atom_site_label
_atom_site_fract_x
_atom_site_fract_y
_atom_site_fract_z
Si Si1 0.260723 0.202140 0.944214
Si Si2 0.502957 0.931305 0.936852
Si Si3 0.107944 0.873239 0.451306
Si Si4 0.857329 0.124239 0.938506
Si Si5 0.227423 0.458615 0.414656
Si Si6 0.992533 0.663136 0.943017
Si Si7 0.244187 0.548237 0.534670
Si Si8 0.784230 0.295293 0.060232
O O1 0.161296 0.170822 0.000058
O O2 0.372639 0.181174 0.993499
O O3 0.269440 0.203585 0.752210
O O4 0.250000 0.250000 0.000000
O O5 0.500000 0.938095 0.750000
O O6 0.400969 0.956285 0.024889
O O7 0.487153 0.882153 0.982290
O O8 0.622225 0.942870 0.987065
O O9 0.126651 0.874617 0.256451
O O10 0.175210 0.912810 0.512829
O O11 0.978564 0.876165 0.495797
O O12 0.788515 0.081918 0.981743
O O13 0.789694 0.165997 0.993939
O O14 0.278121 0.502773 0.463631
O O15 0.237545 0.454975 0.225025
O O16 0.000000 0.657807 0.750000
O O17 0.088539 0.694302 0.985771
O O18 0.750000 0.250000 0.000000
#
# Coordination Sequence:
#
# PCOD9275382 Si02
#       8
#     8   8   8   8   8   8   8   8
#     4  10  21  37  59  85 116 152 194 236 287 344
#     4  12  23  37  60  90 119 150 196 245 293 347
#     4   9  19  37  60  84 114 154 194 234 287 349
#     4   9  19  37  60  84 114 154 194 234 287 349
#     4  11  22  39  61  86 119 154 192 238 291 350
#     4  10  20  39  61  84 116 160 196 237 298 349
#     4  11  22  39  61  86 119 154 192 238 291 350
#     4  10  21  37  59  85 116 152 194 236 287 344
#
# _framework density 19.700040000000001
#
# number of rings (size 3 to 8) (size 9 to 14) (size 15 to 20)
#    0.000    1.750    2.500    2.250    1.750    1.500 
#    0.000    0.000    0.000    5.250    0.000    0.000 
#    0.000    0.000    0.000    0.000    0.000    0.000 
#
# Total GULP energy -178791.801976 kJ/mol
# GULP energy per Si atom -5587.243812 kJ/mol
# Density = 1.965520 g / cm^3
# Si number density = 19.700040 Si / 1000 Ang^3
#
#
#
# Elastic Constant Matrix: (Units=GPa)
#
#
# Indices 1 2 3 4 5 6 
#
# 1 137.6282 63.1682 17.8348 0.0000 23.8043 0.0000
# 2 63.1682 156.3547 18.5405 0.0000 25.4836 0.0000
# 3 17.8348 18.5405 24.7344 0.0000 10.0658 0.0000
# 4 0.0000 0.0000 0.0000 38.7465 0.0000 5.7697
# 5 23.8043 25.4836 10.0658 0.0000 10.4799 0.0000
# 6 0.0000 0.0000 0.0000 5.7697 0.0000 29.6426
#
#
#
# Elastic Compliance Matrix: (Units=1/GPa)
#
#
# Indices 1 2 3 4 5 6 
#
# 1 0.012231 -0.000439 0.003910 0.000000 -0.030469 0.000000
# 2 -0.000439 0.010880 0.004140 0.000000 -0.029436 0.000000
# 3 0.003910 0.004140 0.069310 0.000000 -0.085519 0.000000
# 4 0.000000 0.000000 0.000000 0.026579 0.000000 -0.005173
# 5 -0.030469 -0.029436 -0.085519 0.000000 0.318348 0.000000
# 6 0.000000 0.000000 0.000000 -0.005173 0.000000 0.034742
#
#
# Mechanical properties :
#
#
# Convention : Reuss Voigt Hill
#
# Bulk Modulus (GPa) = 9.29006 57.53381 33.41193
# Shear Modulus (GPa) = 10.14717 30.38539 20.26628
#
# Velocity S-wave (km/s) = 2.27201 3.93160 3.21088
# Velocity P-wave (km/s) = 3.40715 7.06246 5.54468
#
# Compressibility (1/GPa) = 0.10764198
#
# Stress axis : x y z
#
# Youngs Moduli (GPa) = 81.76128 91.91496 14.42800
#
# Poissons Ratio (x) = 0.04033 -0.05641
# Poissons Ratio (y) = 0.03588 -0.05973
# Poissons Ratio (z) = -0.31965 -0.38055
#
# Static dielectric constant tensor:
#      x y z
#    x 1.673560 0.000000 -0.001510 
#    y 0.000000 1.680960 0.000000 
#    z -0.001510 0.000000 1.687070 
# 
# From -- ./inp_files/35680.got.cif
#   From: 2010.05.17/outbox.cif.g08.bks.cpg/sg15_18_cif.got.tgz:35680.got - 2010.06.03 18:47:42.
