data_PCOD9275795
_publ_section_title
;
Structure prediction by ZEFSAII (Michael W. Deem and Ramdas Pophale) SiO2 
 PCOD9275795
Probable space group: C 2/C
;
_chemical_formula_sum "Si O2"
_cell_formula_units_Z 40
_cell_length_a 18.727435
_cell_length_b 11.029997
_cell_length_c 8.387612
_cell_angle_alpha 90.000000
_cell_angle_beta 76.964901
_cell_angle_gamma 90.000000
_cell_volume 1687.930072
_symmetry_space_group_name_H-M "C 2/C"
_symmetry_group_IT_number 15
_symmetry_cell_setting 'monoclinic'
loop_
_space_group_symop_operation_xyz
x,y,z
-x,y,1/2-z
-x,-y,-z
x,-y,1/2+z
1/2+x,1/2+y,z
1/2-x,1/2+y,1/2-z
1/2-x,1/2-y,-z
1/2+x,1/2-y,1/2+z
loop_
_atom_site_type_symbol
_atom_site_label
_atom_site_fract_x
_atom_site_fract_y
_atom_site_fract_z
Si Si1 0.930748 0.909600 0.052223
Si Si2 0.776793 0.557907 0.369888
Si Si3 0.378491 0.073656 0.586116
Si Si4 0.523308 0.149301 0.413355
Si Si5 0.829220 0.070486 0.325595
O O1 0.951557 0.784785 0.122462
O O2 0.872758 0.978268 0.191556
O O3 0.891647 0.872368 0.904998
O O4 0.000000 0.000000 0.000000
O O5 0.837316 0.621453 0.449177
O O6 0.820262 0.450985 0.254174
O O7 0.728682 0.633514 0.266522
O O8 0.722612 0.499357 0.524896
O O9 0.452141 0.150996 0.564102
O O10 0.414432 0.938723 0.548085
O O11 0.500000 0.099762 0.250000
#
# Coordination Sequence:
#
# PCOD9275795 Si02
#       5
#     8   8   8   8   8
#     4  11  22  42  65  89 125 166 215 265 309 364
#     4   9  18  39  67  86 129 162 204 261 308 384
#     4  10  20  39  64  95 127 163 200 261 325 370
#     4  11  22  37  64  96 130 160 213 258 313 379
#     4   9  20  39  66  88 120 168 211 257 309 372
#
# _framework density 23.697664
#
# number of rings (size 3 to 8) (size 9 to 14) (size 15 to 20)
#    0.000    2.000    2.000    1.800    0.000    0.000 
#    7.200   10.000   17.600    0.000    0.000    0.000 
#    0.000    0.000    0.000    0.000    0.000    0.000 
#
# Total GULP energy -111540.965248 kJ/mol
# GULP energy per Si atom -5577.048262 kJ/mol
# Density = 2.364373 g / cm^3
# Si number density = 23.697664 Si / 1000 Ang^3
#
#
#
# Elastic Constant Matrix: (Units=GPa)
#
#
# Indices 1 2 3 4 5 6 
#
# 1 136.9739 14.8539 53.7322 0.0000 4.1409 0.0000
# 2 14.8539 29.9586 0.7154 0.0000 4.6064 0.0000
# 3 53.7322 0.7154 108.0232 0.0000 -3.4914 0.0000
# 4 0.0000 0.0000 0.0000 14.3431 0.0000 5.9012
# 5 4.1409 4.6064 -3.4914 0.0000 63.3573 0.0000
# 6 0.0000 0.0000 0.0000 5.9012 0.0000 1.7100
#
#
#
# Elastic Compliance Matrix: (Units=1/GPa)
#
#
# Indices 1 2 3 4 5 6 
#
# 1 0.009707 -0.004611 -0.004816 0.000000 -0.000565 0.000000
# 2 -0.004611 0.035957 0.001984 0.000000 -0.002204 0.000000
# 3 -0.004816 0.001984 0.011666 0.000000 0.000813 0.000000
# 4 0.000000 0.000000 0.000000 -0.166045 0.000000 0.573033
# 5 -0.000565 -0.002204 0.000813 0.000000 0.016025 0.000000
# 6 0.000000 0.000000 0.000000 0.573033 0.000000 -1.392775
#
#
# Mechanical properties :
#
#
# Convention : Reuss Voigt Hill
#
# Bulk Modulus (GPa) = 23.56033 45.95096 34.75564
# Shear Modulus (GPa) = -3.43305 29.59235 13.07965
#
# Velocity S-wave (km/s) = -1.20492 3.53759 2.35189
# Velocity P-wave (km/s) = 2.83335 6.00988 4.69822
#
# Compressibility (1/GPa) = 0.04244423
#
# Stress axis : x y z
#
# Youngs Moduli (GPa) = 103.01796 27.81099 85.71897
#
# Poissons Ratio (x) = 0.12824 0.41283
# Poissons Ratio (y) = 0.47502 -0.17009
# Poissons Ratio (z) = 0.49615 -0.05518
#
# Static dielectric constant tensor:
#      x y z
#    x 2.019760 0.000000 0.069290 
#    y 0.000000 1.806950 0.000000 
#    z 0.069290 0.000000 1.944800 
# 
# From -- ./inp_files/46043.got.cif
#   From: 2010.05.17/outbox.cif.g08.bks.cpg/sg15_24_cif.got.tgz:46043.got - 2010.06.03 18:47:42.
