data_PCOD9275179
_publ_section_title
;
Structure prediction by ZEFSAII (Michael W. Deem and Ramdas Pophale) SiO2 
 PCOD9275179
Probable space group: C 2/C
;
_chemical_formula_sum "Si O2"
_cell_formula_units_Z 56
_cell_length_a 13.497963
_cell_length_b 13.955099
_cell_length_c 24.995189
_cell_angle_alpha 90.000000
_cell_angle_beta 34.106766
_cell_angle_gamma 90.000000
_cell_volume 2640.077161
_symmetry_space_group_name_H-M "C 2/C"
_symmetry_group_IT_number 15
_symmetry_cell_setting 'monoclinic'
loop_
_space_group_symop_operation_xyz
x,y,z
-x,y,1/2-z
-x,-y,-z
x,-y,1/2+z
1/2+x,1/2+y,z
1/2-x,1/2+y,1/2-z
1/2-x,1/2-y,-z
1/2+x,1/2-y,1/2+z
loop_
_atom_site_type_symbol
_atom_site_label
_atom_site_fract_x
_atom_site_fract_y
_atom_site_fract_z
Si Si1 0.768293 0.847924 0.912240
Si Si2 0.500000 0.479964 0.750000
Si Si3 0.000000 0.717445 0.750000
Si Si4 0.634547 0.968316 0.522707
Si Si5 0.756771 0.560878 0.708966
Si Si6 0.129966 0.310010 0.431057
Si Si7 0.203438 0.895701 0.940495
Si Si8 0.709662 0.437390 0.355225
O O1 0.829517 0.915744 0.836474
O O2 0.935088 0.775979 0.832578
O O3 0.581350 0.799808 0.983667
O O4 0.736611 0.928225 0.971944
O O5 0.562159 0.536574 0.773433
O O6 0.167499 0.651761 0.685224
O O7 0.658191 0.897758 0.460823
O O8 0.693938 0.916759 0.550403
O O9 0.429539 0.998477 0.616339
O O10 0.795931 0.659620 0.659982
O O11 0.743320 0.550273 0.777761
O O12 0.214871 0.213484 0.415504
O O13 0.258700 0.971482 0.869982
O O14 0.995873 0.914981 0.043919
#
# Coordination Sequence:
#
# PCOD9275179 Si02
#       8
#     8   4   4   8   8   8   8   8
#     4  10  20  38  70  99 131 171 234 289 337 393
#     4  11  18  38  65 100 130 173 218 290 335 384
#     4  11  22  44  71  98 134 173 244 286 329 412
#     4  11  21  43  71 100 143 180 222 288 355 414
#     4  11  23  41  71  99 139 176 237 289 337 412
#     4  11  21  45  65 106 133 183 230 281 349 424
#     4  11  25  46  67  94 146 186 220 271 360 416
#     4  11  25  46  65  97 138 183 225 283 345 409
#
# _framework density 21.211500999999998
#
# number of rings (size 3 to 8) (size 9 to 14) (size 15 to 20)
#    0.000    1.143    4.286    3.000    0.000    0.000 
#   12.857    2.857    0.000    0.000    0.000    0.000 
#    0.000    0.000    0.000    0.000    0.000    0.000 
#
# Total GULP energy -155987.517469 kJ/mol
# GULP energy per Si atom -5570.982767 kJ/mol
# Density = 2.116322 g / cm^3
# Si number density = 21.211501 Si / 1000 Ang^3
#
#
#
# Elastic Constant Matrix: (Units=GPa)
#
#
# Indices 1 2 3 4 5 6 
#
# 1 60.8930 24.7020 24.2746 -0.0001 6.8247 0.0000
# 2 24.7020 96.5697 31.5943 -0.0002 4.6105 0.0000
# 3 24.2746 31.5943 81.5879 -0.0006 7.3701 0.0001
# 4 -0.0001 -0.0002 -0.0006 -2.6817 0.0001 3.1850
# 5 6.8247 4.6105 7.3701 0.0001 36.3774 0.0000
# 6 0.0000 0.0000 0.0001 3.1850 0.0000 32.4346
#
#
#
# Elastic Compliance Matrix: (Units=1/GPa)
#
#
# Indices 1 2 3 4 5 6 
#
# 1 0.019852 -0.003552 -0.004314 0.000001 -0.002400 0.000000
# 2 -0.003552 0.012505 -0.003772 0.000000 -0.000154 0.000000
# 3 -0.004314 -0.003772 0.015162 -0.000003 -0.001784 0.000000
# 4 0.000001 0.000000 -0.000003 -0.333945 0.000002 0.032792
# 5 -0.002400 -0.000154 -0.001784 0.000002 0.028321 0.000000
# 6 0.000000 0.000000 0.000000 0.032792 0.000000 0.027611
#
#
# Mechanical properties :
#
#
# Convention : Reuss Voigt Hill
#
# Bulk Modulus (GPa) = 41.24851 44.46584 42.85717
# Shear Modulus (GPa) = -25.10839 23.79137 -0.65851
#
# Velocity S-wave (km/s) = -3.44425 3.35270 -0.55778
# Velocity P-wave (km/s) = 1.91608 5.99967 4.45351
#
# Compressibility (1/GPa) = 0.02424330
#
# Stress axis : x y z
#
# Youngs Moduli (GPa) = 50.37278 79.96700 65.95391
#
# Poissons Ratio (x) = 0.28404 0.28454
# Poissons Ratio (y) = 0.17892 0.24876
# Poissons Ratio (z) = 0.21732 0.30162
#
# Static dielectric constant tensor:
#      x y z
#    x 1.838220 0.000000 0.050690 
#    y 0.000000 1.850800 0.000000 
#    z 0.050690 0.000000 1.814560 
# 
# From -- ./inp_files/296570.got.cif
#   From: 2010.05.17/outbox.cif.g08.bks.cpg/sg15_149_cif.got.tgz:296570.got - 2010.06.03 18:47:42.
