data_PCOD9275185
_publ_section_title
;
Structure prediction by ZEFSAII (Michael W. Deem and Ramdas Pophale) SiO2 
 PCOD9275185
Probable space group: C 2/C
;
_chemical_formula_sum "Si O2"
_cell_formula_units_Z 32
_cell_length_a 14.739986
_cell_length_b 8.277266
_cell_length_c 14.414106
_cell_angle_alpha 90.000000
_cell_angle_beta 52.431141
_cell_angle_gamma 90.000000
_cell_volume 1393.918398
_symmetry_space_group_name_H-M "C 2/C"
_symmetry_group_IT_number 15
_symmetry_cell_setting 'monoclinic'
loop_
_space_group_symop_operation_xyz
x,y,z
-x,y,1/2-z
-x,-y,-z
x,-y,1/2+z
1/2+x,1/2+y,z
1/2-x,1/2+y,1/2-z
1/2-x,1/2-y,-z
1/2+x,1/2-y,1/2+z
loop_
_atom_site_type_symbol
_atom_site_label
_atom_site_fract_x
_atom_site_fract_y
_atom_site_fract_z
Si Si1 0.000000 0.808002 0.250000
Si Si2 0.500000 0.203255 0.750000
Si Si3 0.258684 0.818565 0.890676
Si Si4 0.094901 0.070869 0.053109
Si Si5 0.556239 0.847814 0.414300
O O1 0.891093 0.704637 0.287871
O O2 0.969337 0.921064 0.357283
O O3 0.398248 0.311977 0.860297
O O4 0.448754 0.118960 0.692385
O O5 0.179094 0.705331 0.876235
O O6 0.250000 0.750000 0.000000
O O7 0.204062 0.996318 0.934262
O O8 0.020444 0.183597 0.031898
O O9 0.500000 0.000000 0.500000
#
# Coordination Sequence:
#
# PCOD9275185 Si02
#       5
#     4   4   8   8   8
#     4   9  18  38  63 101 144 190 235 283 371 444
#     4   7  18  36  69  99 146 180 241 279 391 410
#     4  10  20  38  71 102 138 184 239 296 360 445
#     4   8  17  39  70  94 143 182 232 294 367 418
#     4  10  20  40  71 103 140 190 247 302 367 427
#
# _framework density 22.956866999999999
#
# number of rings (size 3 to 8) (size 9 to 14) (size 15 to 20)
#    1.500    1.500    0.000    0.750    0.000    0.000 
#    0.000   18.750    0.000    1.500    0.000    0.000 
#    0.000    0.000    0.000    0.000    0.000    0.000 
#
# Total GULP energy -89095.743633 kJ/mol
# GULP energy per Si atom -5568.483977 kJ/mol
# Density = 2.290462 g / cm^3
# Si number density = 22.956867 Si / 1000 Ang^3
#
#
#
# Elastic Constant Matrix: (Units=GPa)
#
#
# Indices 1 2 3 4 5 6 
#
# 1 192.2957 84.9625 79.3863 0.0000 -1.0076 0.0000
# 2 84.9625 143.5264 79.5855 0.0000 -24.5564 0.0000
# 3 79.3863 79.5855 103.1579 0.0000 -8.7945 0.0000
# 4 0.0000 0.0000 0.0000 34.5985 0.0000 10.2491
# 5 -1.0076 -24.5564 -8.7945 0.0000 51.4262 0.0000
# 6 0.0000 0.0000 0.0000 10.2491 0.0000 29.9230
#
#
#
# Elastic Compliance Matrix: (Units=1/GPa)
#
#
# Indices 1 2 3 4 5 6 
#
# 1 0.008209 -0.002784 -0.004332 0.000000 -0.001909 0.000000
# 2 -0.002784 0.014120 -0.008302 0.000000 0.005268 0.000000
# 3 -0.004332 -0.008302 0.019370 0.000000 -0.000737 0.000000
# 4 0.000000 0.000000 0.000000 0.032167 0.000000 -0.011018
# 5 -0.001909 0.005268 -0.000737 0.000000 0.021798 0.000000
# 6 0.000000 0.000000 0.000000 -0.011018 0.000000 0.037193
#
#
# Mechanical properties :
#
#
# Convention : Reuss Voigt Hill
#
# Bulk Modulus (GPa) = 92.05918 102.98317 97.52117
# Shear Modulus (GPa) = 29.88402 36.19260 33.03831
#
# Velocity S-wave (km/s) = 3.61189 3.97488 3.79772
# Velocity P-wave (km/s) = 7.58830 8.12546 7.86147
#
# Compressibility (1/GPa) = 0.01086258
#
# Stress axis : x y z
#
# Youngs Moduli (GPa) = 121.82080 70.82081 51.62580
#
# Poissons Ratio (x) = 0.19714 0.22366
# Poissons Ratio (y) = 0.33911 0.42861
# Poissons Ratio (z) = 0.52777 0.58797
#
# Static dielectric constant tensor:
#      x y z
#    x 1.849430 0.000000 -0.023620 
#    y 0.000000 1.937200 0.000000 
#    z -0.023620 0.000000 1.876100 
# 
# From -- ./inp_files/202130.got.cif
#   From: 2010.05.17/outbox.cif.g08.bks.cpg/sg15_102_cif.got.tgz:202130.got - 2010.06.03 18:47:42.
