data_PCOD9275163
_publ_section_title
;
Structure prediction by ZEFSAII (Michael W. Deem and Ramdas Pophale) SiO2 
 PCOD9275163
Probable space group: C 2/C
;
_chemical_formula_sum "Si O2"
_cell_formula_units_Z 44
_cell_length_a 27.318961
_cell_length_b 9.245944
_cell_length_c 15.643947
_cell_angle_alpha 90.000000
_cell_angle_beta 30.909451
_cell_angle_gamma 90.000000
_cell_volume 2029.816522
_symmetry_space_group_name_H-M "C 2/C"
_symmetry_group_IT_number 15
_symmetry_cell_setting 'monoclinic'
loop_
_space_group_symop_operation_xyz
x,y,z
-x,y,1/2-z
-x,-y,-z
x,-y,1/2+z
1/2+x,1/2+y,z
1/2-x,1/2+y,1/2-z
1/2-x,1/2-y,-z
1/2+x,1/2-y,1/2+z
loop_
_atom_site_type_symbol
_atom_site_label
_atom_site_fract_x
_atom_site_fract_y
_atom_site_fract_z
Si Si1 0.687572 0.147340 0.033505
Si Si2 0.496582 0.991750 0.107104
Si Si3 0.500000 0.457923 0.250000
Si Si4 0.895021 0.757881 0.510787
Si Si5 0.857460 0.964320 0.721997
Si Si6 0.026535 0.157060 0.075207
O O1 0.755168 0.016082 0.903473
O O2 0.750000 0.250000 0.000000
O O3 0.596848 0.069165 0.213553
O O4 0.663736 0.251767 0.988422
O O5 0.583329 0.091945 0.005863
O O6 0.513202 0.826231 0.107267
O O7 0.500000 0.000000 0.000000
O O8 0.492946 0.342372 0.338473
O O9 0.564870 0.577105 0.103183
O O10 0.855553 0.840000 0.652125
O O11 0.923332 0.907668 0.701082
O O12 0.907662 0.103730 0.601665
#
# Coordination Sequence:
#
# PCOD9275163 Si02
#       6
#     8   8   4   8   8   8
#     4  12  26  42  69 102 140 181 229 284 343 402
#     4  12  24  44  73  98 135 178 235 287 346 410
#     4  10  20  38  70  92 126 178 226 270 336 418
#     4  11  23  46  67  97 136 183 225 282 349 413
#     4  10  23  44  67  93 138 175 226 278 341 415
#     4  10  22  41  68  98 128 181 226 274 348 406
#
# _framework density 21.676836000000002
#
# number of rings (size 3 to 8) (size 9 to 14) (size 15 to 20)
#    0.000    1.091    3.636    2.182    5.091    3.636 
#    3.273    0.000    0.000    0.000    0.000    0.000 
#    0.000    0.000    0.000    0.000    0.000    0.000 
#
# Total GULP energy -122475.550494 kJ/mol
# GULP energy per Si atom -5567.070477 kJ/mol
# Density = 2.162750 g / cm^3
# Si number density = 21.676836 Si / 1000 Ang^3
#
#
#
# Elastic Constant Matrix: (Units=GPa)
#
#
# Indices 1 2 3 4 5 6 
#
# 1 105.8297 35.6607 17.1602 0.0002 9.3541 -0.0001
# 2 35.6607 177.9627 36.3885 0.0006 3.8355 -0.0004
# 3 17.1602 36.3885 88.1998 0.0004 4.8556 -0.0002
# 4 0.0002 0.0006 0.0004 25.5158 -0.0002 5.8071
# 5 9.3541 3.8355 4.8556 -0.0002 20.4123 0.0001
# 6 -0.0001 -0.0004 -0.0002 5.8071 0.0001 32.3828
#
#
#
# Elastic Compliance Matrix: (Units=1/GPa)
#
#
# Indices 1 2 3 4 5 6 
#
# 1 0.010613 -0.001813 -0.001082 0.000000 -0.004265 0.000000
# 2 -0.001813 0.006453 -0.002319 0.000000 0.000170 0.000000
# 3 -0.001082 -0.002319 0.012619 0.000000 -0.002070 0.000000
# 4 0.000000 0.000000 0.000000 0.040859 0.000001 -0.007327
# 5 -0.004265 0.000170 -0.002070 0.000001 0.051405 0.000000
# 6 0.000000 0.000000 0.000000 -0.007327 0.000000 0.032195
#
#
# Mechanical properties :
#
#
# Convention : Reuss Voigt Hill
#
# Bulk Modulus (GPa) = 51.93069 61.15677 56.54373
# Shear Modulus (GPa) = 29.24139 34.51436 31.87788
#
# Velocity S-wave (km/s) = 3.67682 3.99460 3.83900
# Velocity P-wave (km/s) = 6.48337 7.03917 6.76698
#
# Compressibility (1/GPa) = 0.01925643
#
# Stress axis : x y z
#
# Youngs Moduli (GPa) = 94.22739 154.96618 79.24536
#
# Poissons Ratio (x) = 0.28103 0.08573
# Poissons Ratio (y) = 0.17088 0.18376
# Poissons Ratio (z) = 0.10194 0.35934
#
# Static dielectric constant tensor:
#      x y z
#    x 1.874500 0.000000 -0.015280 
#    y 0.000000 1.770270 0.000000 
#    z -0.015280 0.000000 1.781960 
# 
# From -- ./inp_files/176434.got.cif
#   From: 2010.05.17/outbox.cif.g08.bks.cpg/sg15_89_cif.got.tgz:176434.got - 2010.06.03 18:47:42.
