data_PCOD9275147
_publ_section_title
;
Structure prediction by ZEFSAII (Michael W. Deem and Ramdas Pophale) SiO2 
 PCOD9275147
Probable space group: C 2/C
;
_chemical_formula_sum "Si O2"
_cell_formula_units_Z 32
_cell_length_a 19.614586
_cell_length_b 6.878677
_cell_length_c 11.152938
_cell_angle_alpha 90.000000
_cell_angle_beta 70.965671
_cell_angle_gamma 90.000000
_cell_volume 1422.504771
_symmetry_space_group_name_H-M "C 2/C"
_symmetry_group_IT_number 15
_symmetry_cell_setting 'monoclinic'
loop_
_space_group_symop_operation_xyz
x,y,z
-x,y,1/2-z
-x,-y,-z
x,-y,1/2+z
1/2+x,1/2+y,z
1/2-x,1/2+y,1/2-z
1/2-x,1/2-y,-z
1/2+x,1/2-y,1/2+z
loop_
_atom_site_type_symbol
_atom_site_label
_atom_site_fract_x
_atom_site_fract_y
_atom_site_fract_z
Si Si1 0.158431 0.325867 0.732035
Si Si2 0.320412 0.207686 0.648722
Si Si3 0.832028 0.700079 0.912981
Si Si4 0.416971 0.553563 0.549869
O O1 0.236844 0.233619 0.667527
O O2 0.163678 0.480565 0.840998
O O3 0.149688 0.471450 0.623613
O O4 0.103781 0.166178 0.814041
O O5 0.332573 0.280946 0.778048
O O6 0.370629 0.357980 0.551651
O O7 0.750000 0.750000 0.000000
O O8 0.891012 0.803094 0.959801
O O9 0.500000 0.500000 0.500000
#
# Coordination Sequence:
#
# PCOD9275147 Si02
#       4
#     8   8   8   8
#     4  10  20  39  69 105 132 180 250 282 329 446
#     4  10  20  38  70 100 136 173 249 279 333 439
#     4  10  20  39  70 103 135 180 240 286 348 417
#     4  12  24  44  68 100 148 188 223 306 360 399
#
# _framework density 22.495531
#
# number of rings (size 3 to 8) (size 9 to 14) (size 15 to 20)
#    1.500    0.000    7.500    0.000    0.000    2.000 
#    4.500    3.750    5.500    0.000    0.000    0.000 
#    0.000    0.000    0.000    0.000    0.000    0.000 
#
# Total GULP energy -89163.651089 kJ/mol
# GULP energy per Si atom -5572.728193 kJ/mol
# Density = 2.244433 g / cm^3
# Si number density = 22.495531 Si / 1000 Ang^3
#
#
#
# Elastic Constant Matrix: (Units=GPa)
#
#
# Indices 1 2 3 4 5 6 
#
# 1 114.0779 38.3195 46.2113 0.0000 -32.4616 0.0000
# 2 38.3195 143.5265 45.1298 0.0000 -35.1831 0.0000
# 3 46.2113 45.1298 56.2254 0.0000 -32.2672 0.0000
# 4 0.0000 0.0000 0.0000 57.9239 0.0000 7.9933
# 5 -32.4616 -35.1831 -32.2672 0.0000 42.1289 0.0000
# 6 0.0000 0.0000 0.0000 7.9933 0.0000 35.8282
#
#
#
# Elastic Compliance Matrix: (Units=1/GPa)
#
#
# Indices 1 2 3 4 5 6 
#
# 1 0.013407 0.000143 -0.009165 0.000000 0.003430 0.000000
# 2 0.000143 0.009649 -0.005665 0.000000 0.003830 0.000000
# 3 -0.009165 -0.005665 0.041213 0.000000 0.019772 0.000000
# 4 0.000000 0.000000 0.000000 0.017812 0.000000 -0.003974
# 5 0.003430 0.003830 0.019772 0.000000 0.044722 0.000000
# 6 0.000000 0.000000 0.000000 -0.003974 0.000000 0.028798
#
#
# Mechanical properties :
#
#
# Convention : Reuss Voigt Hill
#
# Bulk Modulus (GPa) = 28.65776 63.68344 46.17060
# Shear Modulus (GPa) = 25.43164 39.45416 32.44290
#
# Velocity S-wave (km/s) = 3.36597 4.19246 3.80174
# Velocity P-wave (km/s) = 5.27952 7.19767 6.31188
#
# Compressibility (1/GPa) = 0.03489456
#
# Stress axis : x y z
#
# Youngs Moduli (GPa) = 74.59031 103.63616 24.26444
#
# Poissons Ratio (x) = -0.01486 0.22239
# Poissons Ratio (y) = -0.01069 0.13745
# Poissons Ratio (z) = 0.68365 0.58708
#
# Static dielectric constant tensor:
#      x y z
#    x 1.794510 0.000000 0.083610 
#    y 0.000000 1.908500 0.000000 
#    z 0.083610 0.000000 2.028350 
# 
# From -- ./inp_files/165319.got.cif
#   From: 2010.05.17/outbox.cif.g08.bks.cpg/sg15_83_cif.got.tgz:165319.got - 2010.06.03 18:47:42.
