data_PCOD9275321
_publ_section_title
;
Structure prediction by ZEFSAII (Michael W. Deem and Ramdas Pophale) SiO2 
 PCOD9275321
Probable space group: C 2/C
;
_chemical_formula_sum "Si O2"
_cell_formula_units_Z 56
_cell_length_a 20.089728
_cell_length_b 6.656017
_cell_length_c 22.362438
_cell_angle_alpha 90.000000
_cell_angle_beta 107.851767
_cell_angle_gamma 90.000000
_cell_volume 2846.278706
_symmetry_space_group_name_H-M "C 2/C"
_symmetry_group_IT_number 15
_symmetry_cell_setting 'monoclinic'
loop_
_space_group_symop_operation_xyz
x,y,z
-x,y,1/2-z
-x,-y,-z
x,-y,1/2+z
1/2+x,1/2+y,z
1/2-x,1/2+y,1/2-z
1/2-x,1/2-y,-z
1/2+x,1/2-y,1/2+z
loop_
_atom_site_type_symbol
_atom_site_label
_atom_site_fract_x
_atom_site_fract_y
_atom_site_fract_z
Si Si1 0.180075 0.992121 0.950190
Si Si2 0.909261 0.788195 0.287141
Si Si3 0.174441 0.832158 0.774926
Si Si4 0.661282 0.091549 0.883911
Si Si5 0.685108 0.962982 0.172690
Si Si6 0.070898 0.753408 0.348347
Si Si7 0.789745 0.205174 0.427088
O O1 0.118148 0.075355 0.890926
O O2 0.250292 0.111634 0.950232
O O3 0.183518 0.755773 0.938860
O O4 0.168042 0.069740 0.014232
O O5 0.868137 0.631603 0.318009
O O6 0.910888 0.727041 0.217171
O O7 0.989326 0.797554 0.329936
O O8 0.872215 0.004492 0.271983
O O9 0.138439 0.710387 0.818114
O O10 0.201331 0.675251 0.734017
O O11 0.241451 0.935045 0.823472
O O12 0.597739 0.950767 0.886471
O O13 0.726704 0.942496 0.887646
O O14 0.667341 0.811712 0.113883
#
# Coordination Sequence:
#
# PCOD9275321 Si02
#       7
#     8   8   8   8   8   8   8
#     4  10  20  39  60  85 122 156 196 242 284 343
#     4  11  23  38  57  86 117 152 195 242 294 348
#     4  12  21  35  60  87 118 150 186 242 300 345
#     4  11  19  37  62  88 117 154 194 241 295 344
#     4  12  22  36  57  89 121 147 187 239 300 353
#     4  10  22  40  57  84 118 154 203 240 284 351
#     4  10  22  35  59  93 119 153 196 240 291 346
#
# _framework density 19.674810999999998
#
# number of rings (size 3 to 8) (size 9 to 14) (size 15 to 20)
#    0.000    1.143    5.714    2.143    0.000    1.143 
#    0.000    0.714    0.000    1.714    0.000    0.000 
#    0.000    0.000    0.000    0.000    0.000    0.000 
#
# Total GULP energy -156209.969743 kJ/mol
# GULP energy per Si atom -5578.927491 kJ/mol
# Density = 1.963003 g / cm^3
# Si number density = 19.674811 Si / 1000 Ang^3
#
#
#
# Elastic Constant Matrix: (Units=GPa)
#
#
# Indices 1 2 3 4 5 6 
#
# 1 64.7945 20.0283 10.2507 0.0000 13.1076 0.0000
# 2 20.0283 82.5365 1.9563 0.0000 2.6946 0.0000
# 3 10.2507 1.9563 53.4852 0.0000 0.6359 0.0000
# 4 0.0000 0.0000 0.0000 27.6379 0.0000 -3.0432
# 5 13.1076 2.6946 0.6359 0.0000 22.5868 0.0000
# 6 0.0000 0.0000 0.0000 -3.0432 0.0000 11.7225
#
#
#
# Elastic Compliance Matrix: (Units=1/GPa)
#
#
# Indices 1 2 3 4 5 6 
#
# 1 0.019468 -0.004293 -0.003447 0.000000 -0.010688 0.000000
# 2 -0.004293 0.013120 0.000332 0.000000 0.000917 0.000000
# 3 -0.003447 0.000332 0.019328 0.000000 0.001417 0.000000
# 4 0.000000 0.000000 0.000000 0.037247 0.000000 0.009670
# 5 -0.010688 0.000917 0.001417 0.000000 0.050327 0.000000
# 6 0.000000 0.000000 0.000000 0.009670 0.000000 0.087817
#
#
# Mechanical properties :
#
#
# Convention : Reuss Voigt Hill
#
# Bulk Modulus (GPa) = 26.95452 29.47632 28.21542
# Shear Modulus (GPa) = 19.64710 23.62816 21.63763
#
# Velocity S-wave (km/s) = 3.16348 3.46921 3.31987
# Velocity P-wave (km/s) = 5.20319 5.57328 5.39142
#
# Compressibility (1/GPa) = 0.03709953
#
# Stress axis : x y z
#
# Youngs Moduli (GPa) = 51.36607 76.22015 51.73730
#
# Poissons Ratio (x) = 0.32725 0.17834
# Poissons Ratio (y) = 0.22054 -0.01718
# Poissons Ratio (z) = 0.17706 -0.02531
#
# Static dielectric constant tensor:
#      x y z
#    x 1.679730 0.000000 -0.015300 
#    y 0.000000 1.726880 0.000000 
#    z -0.015300 0.000000 1.745130 
# 
# From -- ./inp_files/278682.got.cif
#   From: 2010.05.17/outbox.cif.g08.bks.cpg/sg15_140_cif.got.tgz:278682.got - 2010.06.03 18:47:42.
