data_PCOD9275591
_publ_section_title
;
Structure prediction by ZEFSAII (Michael W. Deem and Ramdas Pophale) SiO2 
 PCOD9275591
Probable space group: C 2/C
;
_chemical_formula_sum "Si O2"
_cell_formula_units_Z 52
_cell_length_a 10.960760
_cell_length_b 23.124305
_cell_length_c 12.020609
_cell_angle_alpha 90.000000
_cell_angle_beta 122.550121
_cell_angle_gamma 90.000000
_cell_volume 2568.164016
_symmetry_space_group_name_H-M "C 2/C"
_symmetry_group_IT_number 15
_symmetry_cell_setting 'monoclinic'
loop_
_space_group_symop_operation_xyz
x,y,z
-x,y,1/2-z
-x,-y,-z
x,-y,1/2+z
1/2+x,1/2+y,z
1/2-x,1/2+y,1/2-z
1/2-x,1/2-y,-z
1/2+x,1/2-y,1/2+z
loop_
_atom_site_type_symbol
_atom_site_label
_atom_site_fract_x
_atom_site_fract_y
_atom_site_fract_z
Si Si1 0.654671 0.415281 0.261548
Si Si2 0.037090 0.135580 0.495755
Si Si3 0.752375 0.350695 0.895679
Si Si4 0.500000 0.809225 0.750000
Si Si5 0.115587 0.955852 0.706481
Si Si6 0.428404 0.851053 0.471931
Si Si7 0.197097 0.230129 0.168109
O O1 0.500000 0.413648 0.250000
O O2 0.676856 0.480201 0.225360
O O3 0.798202 0.396675 0.397836
O O4 0.633000 0.370125 0.151163
O O5 0.137815 0.148560 0.439143
O O6 0.962521 0.072964 0.437453
O O7 0.911611 0.183107 0.439715
O O8 0.721873 0.405569 0.800743
O O9 0.721841 0.293279 0.806516
O O10 0.917444 0.359123 0.013569
O O11 0.473872 0.844490 0.623748
O O12 0.644256 0.772318 0.806458
O O13 0.000000 0.959997 0.750000
O O14 0.369537 0.791544 0.391332
#
# Coordination Sequence:
#
# PCOD9275591 Si02
#       7
#     8   8   8   4   8   8   8
#     4  11  23  36  60  92 118 150 206 245 290 359
#     4  10  20  39  63  87 119 160 194 247 295 347
#     4   9  21  41  59  83 120 156 199 240 299 351
#     4  10  22  40  58  78 126 158 194 242 298 350
#     4   8  17  38  63  85 115 155 194 243 294 347
#     4  11  24  37  57  88 118 160 195 245 297 352
#     4  10  21  37  60  84 114 162 195 238 293 349
#
# _framework density 20.247927000000001
#
# number of rings (size 3 to 8) (size 9 to 14) (size 15 to 20)
#    0.000    2.154    0.000    3.231    5.385    1.846 
#    2.769    0.000    0.000    1.846    0.000    0.000 
#    0.000    0.000    0.000    0.000    0.000    0.000 
#
# Total GULP energy -145038.224894 kJ/mol
# GULP energy per Si atom -5578.393265 kJ/mol
# Density = 2.020184 g / cm^3
# Si number density = 20.247927 Si / 1000 Ang^3
#
#
#
# Elastic Constant Matrix: (Units=GPa)
#
#
# Indices 1 2 3 4 5 6 
#
# 1 76.4891 29.5204 28.4310 0.0000 26.8986 0.0000
# 2 29.5204 83.8109 24.9898 0.0000 17.4705 0.0000
# 3 28.4310 24.9898 83.4880 0.0000 25.0783 0.0000
# 4 0.0000 0.0000 0.0000 -16.0867 0.0000 -8.9190
# 5 26.8986 17.4705 25.0783 0.0000 38.4033 0.0000
# 6 0.0000 0.0000 0.0000 -8.9190 0.0000 6.3896
#
#
#
# Elastic Compliance Matrix: (Units=1/GPa)
#
#
# Indices 1 2 3 4 5 6 
#
# 1 0.018948 -0.003909 -0.002277 0.000000 -0.010006 0.000000
# 2 -0.003909 0.014484 -0.002298 0.000000 -0.002350 0.000000
# 3 -0.002277 -0.002298 0.015734 0.000000 -0.007635 0.000000
# 4 0.000000 0.000000 0.000000 -0.035043 0.000000 -0.048915
# 5 -0.010006 -0.002350 -0.007635 0.000000 0.039103 0.000000
# 6 0.000000 0.000000 0.000000 -0.048915 0.000000 0.088225
#
#
# Mechanical properties :
#
#
# Convention : Reuss Voigt Hill
#
# Bulk Modulus (GPa) = 31.05812 45.51894 38.28853
# Shear Modulus (GPa) = 29.55937 16.46437 23.01187
#
# Velocity S-wave (km/s) = 3.82497 2.85465 3.37487
# Velocity P-wave (km/s) = 5.90588 5.77884 5.84270
#
# Compressibility (1/GPa) = 0.03219770
#
# Stress axis : x y z
#
# Youngs Moduli (GPa) = 52.77726 69.04335 63.55556
#
# Poissons Ratio (x) = 0.26990 0.14469
# Poissons Ratio (y) = 0.20632 0.14606
# Poissons Ratio (z) = 0.12015 0.15867
#
# Static dielectric constant tensor:
#      x y z
#    x 1.735690 0.000000 -0.007090 
#    y 0.000000 1.723710 0.000000 
#    z -0.007090 0.000000 1.744290 
# 
# From -- ./inp_files/91315.got.cif
#   From: 2010.05.17/outbox.cif.g08.bks.cpg/sg15_46_cif.got.tgz:91315.got - 2010.06.03 18:47:42.
