data_PCOD9275631
_publ_section_title
;
Structure prediction by ZEFSAII (Michael W. Deem and Ramdas Pophale) SiO2 
 PCOD9275631
Probable space group: C 2/C
;
_chemical_formula_sum "Si O2"
_cell_formula_units_Z 64
_cell_length_a 7.714303
_cell_length_b 16.314914
_cell_length_c 24.437942
_cell_angle_alpha 90.000000
_cell_angle_beta 119.008917
_cell_angle_gamma 90.000000
_cell_volume 2689.848982
_symmetry_space_group_name_H-M "C 2/C"
_symmetry_group_IT_number 15
_symmetry_cell_setting 'monoclinic'
loop_
_space_group_symop_operation_xyz
x,y,z
-x,y,1/2-z
-x,-y,-z
x,-y,1/2+z
1/2+x,1/2+y,z
1/2-x,1/2+y,1/2-z
1/2-x,1/2-y,-z
1/2+x,1/2-y,1/2+z
loop_
_atom_site_type_symbol
_atom_site_label
_atom_site_fract_x
_atom_site_fract_y
_atom_site_fract_z
Si Si1 0.420625 0.159551 0.799466
Si Si2 0.782526 0.905144 0.065754
Si Si3 0.342388 0.651591 0.914798
Si Si4 0.277197 0.469464 0.938821
Si Si5 0.922114 0.476031 0.800767
Si Si6 0.649920 0.669982 0.225936
Si Si7 0.886776 0.077572 0.096856
Si Si8 0.922853 0.296745 0.993741
O O1 0.500000 0.148143 0.750000
O O2 0.624661 0.179278 0.863906
O O3 0.343063 0.068135 0.802197
O O4 0.282482 0.239980 0.784761
O O5 0.008259 0.875669 0.110092
O O6 0.783968 0.991609 0.096546
O O7 0.760707 0.930013 0.996806
O O8 0.609629 0.840060 0.050876
O O9 0.300151 0.568828 0.942830
O O10 0.476432 0.722578 0.962011
O O11 0.464014 0.437714 0.931560
O O12 0.090327 0.456643 0.871002
O O13 0.789343 0.395573 0.776361
O O14 0.000000 0.480762 0.750000
O O15 0.500000 0.694380 0.250000
O O16 0.528649 0.620174 0.162050
O O17 0.701047 0.134068 0.055461
O O18 0.750000 0.250000 0.000000
#
# Coordination Sequence:
#
# PCOD9275631 Si02
#       8
#     8   8   8   8   8   8   8   8
#     4   9  20  38  64  91 122 167 209 256 320 383
#     4  11  24  39  64  92 124 173 217 259 328 399
#     4  10  20  39  63  90 122 159 212 261 317 389
#     4  10  21  40  66  93 123 165 217 265 327 396
#     4  10  20  39  68  92 123 167 216 264 316 388
#     4  11  23  41  63  94 130 170 213 263 325 387
#     4  11  22  41  63  92 131 162 212 268 327 389
#     4  12  24  40  59  90 129 165 205 265 325 381
#
# _framework density 23.793156
#
# number of rings (size 3 to 8) (size 9 to 14) (size 15 to 20)
#    0.000    1.500    2.500    3.750    3.500    0.000 
#    2.250    0.625    0.000    0.000    0.000    0.000 
#    0.000    0.000    0.000    0.000    0.000    0.000 
#
# Total GULP energy -178431.304018 kJ/mol
# GULP energy per Si atom -5575.978251 kJ/mol
# Density = 2.373900 g / cm^3
# Si number density = 23.793156 Si / 1000 Ang^3
#
#
#
# Elastic Constant Matrix: (Units=GPa)
#
#
# Indices 1 2 3 4 5 6 
#
# 1 44.5414 34.9840 10.2004 0.0000 5.1905 0.0000
# 2 34.9840 142.0086 14.9428 0.0000 27.1004 0.0000
# 3 10.2004 14.9428 61.9918 0.0000 11.2831 0.0000
# 4 0.0000 0.0000 0.0000 32.0358 0.0000 9.0004
# 5 5.1905 27.1004 11.2831 0.0000 35.0164 0.0000
# 6 0.0000 0.0000 0.0000 9.0004 0.0000 22.4782
#
#
#
# Elastic Compliance Matrix: (Units=1/GPa)
#
#
# Indices 1 2 3 4 5 6 
#
# 1 0.028556 -0.007131 -0.003414 0.000000 0.002386 0.000000
# 2 -0.007131 0.010088 -0.000032 0.000000 -0.006740 0.000000
# 3 -0.003414 -0.000032 0.017638 0.000000 -0.005153 0.000000
# 4 0.000000 0.000000 0.000000 0.035172 0.000000 -0.014083
# 5 0.002386 -0.006740 -0.005153 0.000000 0.035081 0.000000
# 6 0.000000 0.000000 0.000000 -0.014083 0.000000 0.050126
#
#
# Mechanical properties :
#
#
# Convention : Reuss Voigt Hill
#
# Bulk Modulus (GPa) = 28.46632 40.97735 34.72183
# Shear Modulus (GPa) = 23.86359 30.46705 27.16532
#
# Velocity S-wave (km/s) = 3.17039 3.58228 3.38261
# Velocity P-wave (km/s) = 5.03904 5.86260 5.46635
#
# Compressibility (1/GPa) = 0.03512924
#
# Stress axis : x y z
#
# Youngs Moduli (GPa) = 35.01949 99.12628 56.69431
#
# Poissons Ratio (x) = 0.70685 0.19356
# Poissons Ratio (y) = 0.24972 0.00179
# Poissons Ratio (z) = 0.11956 0.00313
#
# Static dielectric constant tensor:
#      x y z
#    x 1.976750 0.000000 -0.039280 
#    y 0.000000 1.835210 0.000000 
#    z -0.039280 0.000000 1.956750 
# 
# From -- ./inp_files/308307.got.cif
#   From: 2010.05.17/outbox.cif.g08.bks.cpg/sg15_155_cif.got.tgz:308307.got - 2010.06.03 18:47:42.
