data_PCOD9275034
_publ_section_title
;
Structure prediction by ZEFSAII (Michael W. Deem and Ramdas Pophale) SiO2 
 PCOD9275034
Probable space group: C 2/C
;
_chemical_formula_sum "Si O2"
_cell_formula_units_Z 60
_cell_length_a 9.935615
_cell_length_b 20.548325
_cell_length_c 26.263094
_cell_angle_alpha 90.000000
_cell_angle_beta 147.329382
_cell_angle_gamma 90.000000
_cell_volume 2894.389394
_symmetry_space_group_name_H-M "C 2/C"
_symmetry_group_IT_number 15
_symmetry_cell_setting 'monoclinic'
loop_
_space_group_symop_operation_xyz
x,y,z
-x,y,1/2-z
-x,-y,-z
x,-y,1/2+z
1/2+x,1/2+y,z
1/2-x,1/2+y,1/2-z
1/2-x,1/2-y,-z
1/2+x,1/2-y,1/2+z
loop_
_atom_site_type_symbol
_atom_site_label
_atom_site_fract_x
_atom_site_fract_y
_atom_site_fract_z
Si Si1 0.025457 0.581583 0.078623
Si Si2 0.825762 0.162712 0.242429
Si Si3 0.487422 0.795073 0.065388
Si Si4 0.686959 0.590142 0.426374
Si Si5 0.004845 0.982052 0.061671
Si Si6 0.770923 0.194130 0.759593
Si Si7 0.279141 0.205617 0.960087
Si Si8 0.500000 0.101404 0.750000
O O1 0.175186 0.598179 0.177742
O O2 0.190732 0.553061 0.084359
O O3 0.758119 0.553199 0.007951
O O4 0.977441 0.653149 0.041358
O O5 0.694708 0.230510 0.212401
O O6 0.000000 0.177284 0.250000
O O7 0.999818 0.143507 0.344249
O O8 0.680427 0.801833 0.173053
O O9 0.613698 0.762087 0.056317
O O10 0.250000 0.750000 0.000000
O O11 0.395406 0.868520 0.022908
O O12 0.527540 0.545100 0.412884
O O13 0.256519 0.941678 0.156419
O O14 0.000000 0.000000 0.000000
O O15 0.573575 0.150562 0.727589
O O16 0.038081 0.167216 0.862228
O O17 0.250000 0.250000 0.000000
#
# Coordination Sequence:
#
# PCOD9275034 Si02
#       8
#     8   8   8   8   8   8   8   4
#     4  10  22  43  68  95 125 179 230 272 336 406
#     4  10  20  38  68 101 128 171 224 278 335 402
#     4  11  24  40  66 100 135 174 225 286 346 398
#     4  10  23  45  69  93 132 179 231 277 332 414
#     4  12  27  47  66  98 139 179 232 280 345 413
#     4  12  22  42  65  99 142 172 229 281 352 408
#     4  11  23  39  65  98 137 177 222 274 345 419
#     4  12  28  42  74 102 140 190 222 294 356 414
#
# _framework density 20.729759999999999
#
# number of rings (size 3 to 8) (size 9 to 14) (size 15 to 20)
#    0.000    1.067    4.667    1.600    3.733    1.067 
#    0.000    0.000    0.000    0.000    0.000    0.000 
#    0.000    0.000    0.000    0.000    0.000    0.000 
#
# Total GULP energy -167133.886049 kJ/mol
# GULP energy per Si atom -5571.129535 kJ/mol
# Density = 2.068258 g / cm^3
# Si number density = 20.729760 Si / 1000 Ang^3
#
#
#
# Elastic Constant Matrix: (Units=GPa)
#
#
# Indices 1 2 3 4 5 6 
#
# 1 140.9175 34.4465 36.6926 0.0001 -14.4926 0.0004
# 2 34.4465 38.7668 11.3434 0.0005 -8.9438 0.0003
# 3 36.6926 11.3434 114.6037 0.0000 -16.1832 0.0004
# 4 0.0001 0.0005 0.0000 31.6695 0.0001 8.0348
# 5 -14.4926 -8.9438 -16.1832 0.0001 38.4325 0.0002
# 6 0.0004 0.0003 0.0004 8.0348 0.0002 32.6801
#
#
#
# Elastic Compliance Matrix: (Units=1/GPa)
#
#
# Indices 1 2 3 4 5 6 
#
# 1 0.009650 -0.007720 -0.002196 0.000000 0.000918 0.000000
# 2 -0.007720 0.033837 -0.000188 0.000000 0.004884 0.000000
# 3 -0.002196 -0.000188 0.009914 0.000000 0.003303 0.000000
# 4 0.000000 0.000000 0.000000 0.033677 0.000000 -0.008280
# 5 0.000918 0.004884 0.003303 0.000000 0.028893 0.000000
# 6 0.000000 0.000000 0.000000 -0.008280 0.000000 0.032635
#
#
# Mechanical properties :
#
#
# Convention : Reuss Voigt Hill
#
# Bulk Modulus (GPa) = 30.12695 51.02812 40.57753
# Shear Modulus (GPa) = 27.79685 34.67678 31.23682
#
# Velocity S-wave (km/s) = 3.66582 4.09443 3.88604
# Velocity P-wave (km/s) = 5.69934 6.85724 6.30493
#
# Compressibility (1/GPa) = 0.03319288
#
# Stress axis : x y z
#
# Youngs Moduli (GPa) = 103.63147 29.55376 100.87036
#
# Poissons Ratio (x) = 0.22815 0.22149
# Poissons Ratio (y) = 0.80003 0.01894
# Poissons Ratio (z) = 0.22755 0.00555
#
# Static dielectric constant tensor:
#      x y z
#    x 1.839400 0.000000 -0.000710 
#    y 0.000000 1.788510 0.000000 
#    z -0.000710 0.000000 1.780810 
# 
# From -- ./inp_files/266265.got.cif
#   From: 2010.05.17/outbox.cif.g08.bks.cpg/sg15_134_cif.got.tgz:266265.got - 2010.06.03 18:47:42.
