data_PCOD9275472
_publ_section_title
;
Structure prediction by ZEFSAII (Michael W. Deem and Ramdas Pophale) SiO2 
 PCOD9275472
Probable space group: C 2/C
;
_chemical_formula_sum "Si O2"
_cell_formula_units_Z 52
_cell_length_a 8.842583
_cell_length_b 11.610461
_cell_length_c 23.964519
_cell_angle_alpha 90.000000
_cell_angle_beta 101.473022
_cell_angle_gamma 90.000000
_cell_volume 2411.190845
_symmetry_space_group_name_H-M "C 2/C"
_symmetry_group_IT_number 15
_symmetry_cell_setting 'monoclinic'
loop_
_space_group_symop_operation_xyz
x,y,z
-x,y,1/2-z
-x,-y,-z
x,-y,1/2+z
1/2+x,1/2+y,z
1/2-x,1/2+y,1/2-z
1/2-x,1/2-y,-z
1/2+x,1/2-y,1/2+z
loop_
_atom_site_type_symbol
_atom_site_label
_atom_site_fract_x
_atom_site_fract_y
_atom_site_fract_z
Si Si1 0.000000 0.752579 0.750000
Si Si2 0.897583 0.879594 0.854396
Si Si3 0.163584 0.420547 0.332310
Si Si4 0.021808 0.310235 0.966446
Si Si5 0.404931 0.965261 0.871909
Si Si6 0.204867 0.791594 0.907432
Si Si7 0.250473 0.182560 0.912522
O O1 0.947988 0.829191 0.798304
O O2 0.864348 0.665857 0.720670
O O3 0.780281 0.789813 0.874041
O O4 0.052279 0.867825 0.903594
O O5 0.814718 0.001533 0.842818
O O6 0.160078 0.335900 0.385848
O O7 0.010950 0.499247 0.328535
O O8 0.089727 0.208553 0.931979
O O9 0.022921 0.428732 0.930692
O O10 0.840356 0.294170 0.962524
O O11 0.123683 0.315224 0.028503
O O12 0.298590 0.851960 0.862381
O O13 0.290122 0.067236 0.881874
#
# Coordination Sequence:
#
# PCOD9275472 Si02
#       7
#     4   8   8   8   8   8   8
#     4  10  24  42  60  90 116 156 208 262 314 372
#     4  11  22  42  63  89 123 161 205 263 311 362
#     4  11  22  44  65  87 123 159 205 262 313 367
#     4   9  22  36  59  99 126 166 208 237 313 375
#     4  10  20  39  62  86 128 164 199 252 304 355
#     4   9  22  37  60  95 122 157 207 244 304 374
#     4  11  19  39  64  89 130 169 204 251 302 371
#
# _framework density 21.566106999999999
#
# number of rings (size 3 to 8) (size 9 to 14) (size 15 to 20)
#    0.923    0.923    4.615    0.462    2.154    3.077 
#    0.000    0.769    0.000    0.000    0.000    0.000 
#    0.000    0.000    0.000    0.000    0.000    0.000 
#
# Total GULP energy -144819.504314 kJ/mol
# GULP energy per Si atom -5569.980935 kJ/mol
# Density = 2.151702 g / cm^3
# Si number density = 21.566107 Si / 1000 Ang^3
#
#
#
# Elastic Constant Matrix: (Units=GPa)
#
#
# Indices 1 2 3 4 5 6 
#
# 1 99.9064 37.8597 7.1359 0.0000 3.6286 0.0000
# 2 37.8597 74.6389 1.1639 0.0000 15.7130 0.0000
# 3 7.1359 1.1639 17.3918 0.0000 1.0677 0.0000
# 4 0.0000 0.0000 0.0000 8.7779 0.0000 1.6061
# 5 3.6286 15.7130 1.0677 0.0000 26.5628 0.0000
# 6 0.0000 0.0000 0.0000 1.6061 0.0000 49.1098
#
#
#
# Elastic Compliance Matrix: (Units=1/GPa)
#
#
# Indices 1 2 3 4 5 6 
#
# 1 0.012936 -0.007029 -0.004996 0.000000 0.002592 0.000000
# 2 -0.007029 0.019127 0.002245 0.000000 -0.010445 0.000000
# 3 -0.004996 0.002245 0.059585 0.000000 -0.003041 0.000000
# 4 0.000000 0.000000 0.000000 0.114608 0.000000 -0.003748
# 5 0.002592 -0.010445 -0.003041 0.000000 0.043593 0.000000
# 6 0.000000 0.000000 0.000000 -0.003748 0.000000 0.020485
#
#
# Mechanical properties :
#
#
# Convention : Reuss Voigt Hill
#
# Bulk Modulus (GPa) = 13.87211 31.58402 22.72806
# Shear Modulus (GPa) = 15.92743 26.60861 21.26802
#
# Velocity S-wave (km/s) = 2.72056 3.51638 3.14375
# Velocity P-wave (km/s) = 4.03917 5.58244 4.87229
#
# Compressibility (1/GPa) = 0.07208709
#
# Stress axis : x y z
#
# Youngs Moduli (GPa) = 77.30453 52.28178 16.78280
#
# Poissons Ratio (x) = 0.36750 0.08385
# Poissons Ratio (y) = 0.54339 -0.03768
# Poissons Ratio (z) = 0.38624 -0.11739
#
# Static dielectric constant tensor:
#      x y z
#    x 1.822320 0.000000 0.002490 
#    y 0.000000 1.782250 0.000000 
#    z 0.002490 0.000000 1.846420 
# 
# From -- ./inp_files/287758.got.cif
#   From: 2010.05.17/outbox.cif.g08.bks.cpg/sg15_144_cif.got.tgz:287758.got - 2010.06.03 18:47:42.
