data_PCOD9275110
_publ_section_title
;
Structure prediction by ZEFSAII (Michael W. Deem and Ramdas Pophale) SiO2 
 PCOD9275110
Probable space group: C 2/C
;
_chemical_formula_sum "Si O2"
_cell_formula_units_Z 60
_cell_length_a 23.751776
_cell_length_b 14.313242
_cell_length_c 19.431297
_cell_angle_alpha 90.000000
_cell_angle_beta 22.086189
_cell_angle_gamma 90.000000
_cell_volume 2483.846736
_symmetry_space_group_name_H-M "C 2/C"
_symmetry_group_IT_number 15
_symmetry_cell_setting 'monoclinic'
loop_
_space_group_symop_operation_xyz
x,y,z
-x,y,1/2-z
-x,-y,-z
x,-y,1/2+z
1/2+x,1/2+y,z
1/2-x,1/2+y,1/2-z
1/2-x,1/2-y,-z
1/2+x,1/2-y,1/2+z
loop_
_atom_site_type_symbol
_atom_site_label
_atom_site_fract_x
_atom_site_fract_y
_atom_site_fract_z
Si Si1 0.737585 0.218057 0.130711
Si Si2 0.105401 0.786416 0.782754
Si Si3 0.000000 0.466963 0.750000
Si Si4 0.577388 0.182365 0.958020
Si Si5 0.819046 0.120381 0.910333
Si Si6 0.479193 0.508836 0.130436
Si Si7 0.583165 0.873085 0.051842
Si Si8 0.248614 0.491026 0.763905
O O1 0.592712 0.167058 0.325377
O O2 0.830650 0.269388 0.084276
O O3 0.840861 0.157243 0.962686
O O4 0.666780 0.297017 0.160822
O O5 0.086212 0.752044 0.883087
O O6 0.006328 0.878947 0.882962
O O7 0.273971 0.819532 0.579038
O O8 0.051220 0.699126 0.800211
O O9 0.856511 0.406908 0.893795
O O10 0.957556 0.535169 0.860358
O O11 0.657367 0.084275 0.851409
O O12 0.910874 0.033282 0.776803
O O13 0.357556 0.490619 0.207044
O O14 0.636619 0.467323 0.927026
O O15 0.640200 0.909417 0.913037
#
# Coordination Sequence:
#
# PCOD9275110 Si02
#       8
#     8   8   4   8   8   8   8   8
#     4  11  24  39  74 104 145 182 234 284 369 426
#     4  11  24  42  69 106 138 183 244 289 359 409
#     4  12  22  46  74  92 146 188 242 280 366 424
#     4  12  23  44  69 111 144 183 233 306 348 433
#     4  11  22  41  68 101 135 193 229 282 355 441
#     4  10  20  41  66  98 133 195 225 284 353 427
#     4  11  24  42  71 101 131 193 234 300 353 424
#     4  10  20  38  68  98 138 181 236 281 370 405
#
# _framework density 24.156078999999998
#
# number of rings (size 3 to 8) (size 9 to 14) (size 15 to 20)
#    0.000    1.067    4.000    4.000    3.733    2.667 
#    0.000    2.667    8.800    0.000    0.000    0.000 
#    0.000    0.000    0.000    0.000    0.000    0.000 
#
# Total GULP energy -168197.284661 kJ/mol
# GULP energy per Si atom -5606.576155 kJ/mol
# Density = 2.410110 g / cm^3
# Si number density = 24.156079 Si / 1000 Ang^3
#
#
#
# Elastic Constant Matrix: (Units=GPa)
#
#
# Indices 1 2 3 4 5 6 
#
# 1 45.0678 1.2910 5.2269 0.0004 -4.5866 -0.0007
# 2 1.2910 87.4633 18.6523 -0.0003 -7.5987 -0.0004
# 3 5.2269 18.6523 101.5684 0.0000 -2.3351 -0.0006
# 4 0.0004 -0.0003 0.0000 45.6045 -0.0001 -3.9414
# 5 -4.5866 -7.5987 -2.3351 -0.0001 23.6134 0.0006
# 6 -0.0007 -0.0004 -0.0006 -3.9414 0.0006 36.3224
#
#
#
# Elastic Compliance Matrix: (Units=1/GPa)
#
#
# Indices 1 2 3 4 5 6 
#
# 1 0.022759 0.000286 -0.001123 0.000000 0.004402 0.000000
# 2 0.000286 0.012220 -0.002172 0.000000 0.003773 0.000000
# 3 -0.001123 -0.002172 0.010305 0.000000 0.000102 0.000000
# 4 0.000000 0.000000 0.000000 0.022135 0.000000 0.002402
# 5 0.004402 0.003773 0.000102 0.000000 0.044428 -0.000001
# 6 0.000000 0.000000 0.000000 0.002402 -0.000001 0.027792
#
#
# Mechanical properties :
#
#
# Convention : Reuss Voigt Hill
#
# Bulk Modulus (GPa) = 25.46737 31.60445 28.53591
# Shear Modulus (GPa) = 31.49710 35.03669 33.26690
#
# Velocity S-wave (km/s) = 3.61487 3.81258 3.71504
# Velocity P-wave (km/s) = 5.29044 5.70025 5.49917
#
# Compressibility (1/GPa) = 0.03926593
#
# Stress axis : x y z
#
# Youngs Moduli (GPa) = 43.93921 81.83190 97.04418
#
# Poissons Ratio (x) = -0.02339 0.10893
# Poissons Ratio (y) = -0.01256 0.21079
# Poissons Ratio (z) = 0.04932 0.17775
#
# Static dielectric constant tensor:
#      x y z
#    x 1.946410 0.000000 0.005420 
#    y 0.000000 1.891020 0.000000 
#    z 0.005420 0.000000 1.919320 
# 
# From -- ./inp_files/257838.got.cif
#   From: 2010.05.17/outbox.cif.g08.bks.cpg/sg15_129_cif.got.tgz:257838.got - 2010.06.03 18:47:42.
