data_PCOD9275267
_publ_section_title
;
Structure prediction by ZEFSAII (Michael W. Deem and Ramdas Pophale) SiO2 
 PCOD9275267
Probable space group: C 2/C
;
_chemical_formula_sum "Si O2"
_cell_formula_units_Z 60
_cell_length_a 11.602906
_cell_length_b 14.270003
_cell_length_c 20.917047
_cell_angle_alpha 90.000000
_cell_angle_beta 135.372217
_cell_angle_gamma 90.000000
_cell_volume 2432.968287
_symmetry_space_group_name_H-M "C 2/C"
_symmetry_group_IT_number 15
_symmetry_cell_setting 'monoclinic'
loop_
_space_group_symop_operation_xyz
x,y,z
-x,y,1/2-z
-x,-y,-z
x,-y,1/2+z
1/2+x,1/2+y,z
1/2-x,1/2+y,1/2-z
1/2-x,1/2-y,-z
1/2+x,1/2-y,1/2+z
loop_
_atom_site_type_symbol
_atom_site_label
_atom_site_fract_x
_atom_site_fract_y
_atom_site_fract_z
Si Si1 0.374479 0.536372 0.551392
Si Si2 0.630602 0.449914 0.743318
Si Si3 0.444228 0.159944 0.341017
Si Si4 0.847494 0.818792 0.148205
Si Si5 0.692856 0.144337 0.705434
Si Si6 0.673270 0.887505 0.399060
Si Si7 0.000000 0.483557 0.750000
Si Si8 0.423816 0.696767 0.918992
O O1 0.522510 0.476572 0.639246
O O2 0.306544 0.602800 0.580608
O O3 0.244221 0.462005 0.476250
O O4 0.444773 0.612105 0.528021
O O5 0.500000 0.435285 0.750000
O O6 0.749825 0.362289 0.777692
O O7 0.753459 0.540204 0.797808
O O8 0.568725 0.230741 0.352291
O O9 0.475676 0.073540 0.304956
O O10 0.490989 0.199756 0.430548
O O11 0.719080 0.793049 0.152206
O O12 0.000000 0.858888 0.250000
O O13 0.506016 0.147427 0.653555
O O14 0.820146 0.176752 0.811254
O O15 0.804158 0.809519 0.431577
O O16 0.651330 0.948656 0.325306
#
# Coordination Sequence:
#
# PCOD9275267 Si02
#       8
#     8   8   8   8   8   8   4   8
#     4  10  21  38  65  96 130 172 212 272 318 376
#     4  11  20  39  65  92 124 163 217 264 315 378
#     4  11  22  36  66  91 123 162 216 259 321 378
#     4  11  18  40  67  90 122 169 215 255 322 389
#     4  11  18  37  65  89 121 166 220 259 299 383
#     4  12  23  36  66  99 131 164 226 267 314 380
#     4  12  20  40  62  96 122 164 218 270 304 380
#     4  10  20  39  58  92 124 174 211 258 319 380
#
# _framework density 24.661235000000001
#
# number of rings (size 3 to 8) (size 9 to 14) (size 15 to 20)
#    0.000    1.067    8.667    1.200    0.000    1.600 
#    0.000    2.667    2.933    6.400    0.000    0.000 
#    0.000    0.000    0.000    0.000    0.000    0.000 
#
# Total GULP energy -167139.793551 kJ/mol
# GULP energy per Si atom -5571.326452 kJ/mol
# Density = 2.460510 g / cm^3
# Si number density = 24.661235 Si / 1000 Ang^3
#
#
#
# Elastic Constant Matrix: (Units=GPa)
#
#
# Indices 1 2 3 4 5 6 
#
# 1 150.1297 22.8472 4.5687 0.0000 5.1316 0.0000
# 2 22.8472 64.1379 6.2835 0.0000 2.5738 0.0000
# 3 4.5687 6.2835 34.9123 0.0000 8.6314 0.0000
# 4 0.0000 0.0000 0.0000 9.3566 0.0000 -9.5285
# 5 5.1316 2.5738 8.6314 0.0000 14.6506 0.0000
# 6 0.0000 0.0000 0.0000 -9.5285 0.0000 20.0923
#
#
#
# Elastic Compliance Matrix: (Units=1/GPa)
#
#
# Indices 1 2 3 4 5 6 
#
# 1 0.007104 -0.002450 0.000023 0.000000 -0.002072 0.000000
# 2 -0.002450 0.016737 -0.002548 0.000000 -0.000581 0.000000
# 3 0.000023 -0.002548 0.033933 0.000000 -0.019552 0.000000
# 4 0.000000 0.000000 0.000000 0.206706 0.000000 0.098028
# 5 -0.002072 -0.000581 -0.019552 0.000000 0.080603 0.000000
# 6 0.000000 0.000000 0.000000 0.098028 0.000000 0.096259
#
#
# Mechanical properties :
#
#
# Convention : Reuss Voigt Hill
#
# Bulk Modulus (GPa) = 20.90971 35.17540 28.04256
# Shear Modulus (GPa) = 10.70133 23.18527 16.94330
#
# Velocity S-wave (km/s) = 2.08537 3.06951 2.62399
# Velocity P-wave (km/s) = 3.78094 5.18237 4.53610
#
# Compressibility (1/GPa) = 0.04782467
#
# Stress axis : x y z
#
# Youngs Moduli (GPa) = 140.76966 59.74798 29.47026
#
# Poissons Ratio (x) = 0.14636 -0.00069
# Poissons Ratio (y) = 0.34484 0.07509
# Poissons Ratio (z) = -0.00330 0.15224
#
# Static dielectric constant tensor:
#      x y z
#    x 2.026620 0.000000 0.021340 
#    y 0.000000 2.098630 0.000000 
#    z 0.021340 0.000000 2.037640 
# 
# From -- ./inp_files/269975.got.cif
#   From: 2010.05.17/outbox.cif.g08.bks.cpg/sg15_135_cif.got.tgz:269975.got - 2010.06.03 18:47:42.
