data_PCOD9275883
_publ_section_title
;
Structure prediction by ZEFSAII (Michael W. Deem and Ramdas Pophale) SiO2 
 PCOD9275883
Probable space group: C 2/C
;
_chemical_formula_sum "Si O2"
_cell_formula_units_Z 52
_cell_length_a 14.108732
_cell_length_b 12.282442
_cell_length_c 15.773714
_cell_angle_alpha 90.000000
_cell_angle_beta 64.032742
_cell_angle_gamma 90.000000
_cell_volume 2457.467669
_symmetry_space_group_name_H-M "C 2/C"
_symmetry_group_IT_number 15
_symmetry_cell_setting 'monoclinic'
loop_
_space_group_symop_operation_xyz
x,y,z
-x,y,1/2-z
-x,-y,-z
x,-y,1/2+z
1/2+x,1/2+y,z
1/2-x,1/2+y,1/2-z
1/2-x,1/2-y,-z
1/2+x,1/2-y,1/2+z
loop_
_atom_site_type_symbol
_atom_site_label
_atom_site_fract_x
_atom_site_fract_y
_atom_site_fract_z
Si Si1 0.618947 0.129652 0.582277
Si Si2 0.402344 0.785330 0.114620
Si Si3 0.338366 0.339222 0.256544
Si Si4 0.103131 0.089236 0.266254
Si Si5 0.548882 0.078202 0.056073
Si Si6 0.275317 0.237034 0.119529
Si Si7 0.500000 0.177520 0.250000
O O1 0.494427 0.155771 0.634113
O O2 0.660203 0.200340 0.486975
O O3 0.687551 0.172685 0.632210
O O4 0.638892 0.003196 0.555109
O O5 0.286632 0.833610 0.177675
O O6 0.405090 0.659941 0.144100
O O7 0.423271 0.815051 0.008386
O O8 0.382648 0.460361 0.234983
O O9 0.351338 0.285337 0.159489
O O10 0.400292 0.258914 0.295443
O O11 0.208000 0.136288 0.180633
O O12 0.000000 0.113245 0.250000
O O13 0.490686 0.107716 0.166946
O O14 0.500000 0.000000 0.000000
#
# Coordination Sequence:
#
# PCOD9275883 Si02
#       7
#     8   8   8   8   8   8   4
#     4  10  20  39  65  93 130 170 225 286 330 388
#     4  10  22  40  67  96 130 176 230 278 320 415
#     4  11  24  40  64  96 138 178 223 275 345 395
#     4  11  21  41  65  93 135 179 219 273 331 400
#     4  10  23  43  67  97 131 172 225 281 341 398
#     4  10  22  39  66  96 129 175 229 275 332 401
#     4  12  26  44  66  94 140 182 218 290 340 404
#
# _framework density 21.159994000000001
#
# number of rings (size 3 to 8) (size 9 to 14) (size 15 to 20)
#    0.000    1.538    2.308    2.769    0.000   11.692 
#    0.000    6.154    0.000    0.000    0.000    0.000 
#    0.000    0.000    0.000    0.000    0.000    0.000 
#
# Total GULP energy -144920.347505 kJ/mol
# GULP energy per Si atom -5573.859519 kJ/mol
# Density = 2.111183 g / cm^3
# Si number density = 21.159994 Si / 1000 Ang^3
#
#
#
# Elastic Constant Matrix: (Units=GPa)
#
#
# Indices 1 2 3 4 5 6 
#
# 1 74.9651 40.0124 21.0867 0.0000 -5.6649 0.0000
# 2 40.0124 108.1471 29.9739 0.0000 10.3537 0.0000
# 3 21.0867 29.9739 91.3043 0.0000 9.6898 0.0000
# 4 0.0000 0.0000 0.0000 14.9829 0.0000 -16.4273
# 5 -5.6649 10.3537 9.6898 0.0000 26.2620 0.0000
# 6 0.0000 0.0000 0.0000 -16.4273 0.0000 -102.4644
#
#
#
# Elastic Compliance Matrix: (Units=1/GPa)
#
#
# Indices 1 2 3 4 5 6 
#
# 1 0.018298 -0.006717 -0.002832 0.000000 0.007640 0.000000
# 2 -0.006717 0.012853 -0.002057 0.000000 -0.005757 0.000000
# 3 -0.002832 -0.002057 0.012760 0.000000 -0.004508 0.000000
# 4 0.000000 0.000000 0.000000 0.056765 0.000000 -0.009101
# 5 0.007640 -0.005757 -0.004508 0.000000 0.043659 0.000000
# 6 0.000000 0.000000 0.000000 -0.009101 0.000000 -0.008300
#
#
# Mechanical properties :
#
#
# Convention : Reuss Voigt Hill
#
# Bulk Modulus (GPa) = 48.30890 50.72914 49.51902
# Shear Modulus (GPa) = 30.09400 -0.02099 15.03651
#
# Velocity S-wave (km/s) = 3.77531 -0.09970 2.66862
# Velocity P-wave (km/s) = 6.47177 4.90029 5.74007
#
# Compressibility (1/GPa) = 0.02070012
#
# Stress axis : x y z
#
# Youngs Moduli (GPa) = 54.64958 77.80258 78.36887
#
# Poissons Ratio (x) = 0.52257 0.22193
# Poissons Ratio (y) = 0.36706 0.16123
# Poissons Ratio (z) = 0.15476 0.16006
#
# Static dielectric constant tensor:
#      x y z
#    x 1.798940 0.000000 0.001690 
#    y 0.000000 1.791720 0.000000 
#    z 0.001690 0.000000 1.816390 
# 
# From -- ./inp_files/203872.got.cif
#   From: 2010.05.17/outbox.cif.g08.bks.cpg/sg15_102_cif.got.tgz:203872.got - 2010.06.03 18:47:42.
