data_PCOD9275271
_publ_section_title
;
Structure prediction by ZEFSAII (Michael W. Deem and Ramdas Pophale) SiO2 
 PCOD9275271
Probable space group: C 2/C
;
_chemical_formula_sum "Si O2"
_cell_formula_units_Z 60
_cell_length_a 21.752299
_cell_length_b 18.783948
_cell_length_c 9.111949
_cell_angle_alpha 90.000000
_cell_angle_beta 104.550747
_cell_angle_gamma 90.000000
_cell_volume 3603.671978
_symmetry_space_group_name_H-M "C 2/C"
_symmetry_group_IT_number 15
_symmetry_cell_setting 'monoclinic'
loop_
_space_group_symop_operation_xyz
x,y,z
-x,y,1/2-z
-x,-y,-z
x,-y,1/2+z
1/2+x,1/2+y,z
1/2-x,1/2+y,1/2-z
1/2-x,1/2-y,-z
1/2+x,1/2-y,1/2+z
loop_
_atom_site_type_symbol
_atom_site_label
_atom_site_fract_x
_atom_site_fract_y
_atom_site_fract_z
Si Si1 0.769263 0.420219 0.494756
Si Si2 0.299446 0.055863 0.351146
Si Si3 0.500000 0.137853 0.250000
Si Si4 0.612327 0.184042 0.514429
Si Si5 0.190884 0.788656 0.389096
Si Si6 0.057812 0.444441 0.533592
Si Si7 0.808560 0.278297 0.936326
Si Si8 0.930377 0.686907 0.679447
O O1 0.760700 0.495389 0.409854
O O2 0.778251 0.436291 0.671405
O O3 0.832941 0.374139 0.491212
O O4 0.709515 0.370585 0.416939
O O5 0.371318 0.026368 0.417451
O O6 0.298885 0.136375 0.412265
O O7 0.544043 0.173110 0.398072
O O8 0.449929 0.094662 0.316093
O O9 0.634606 0.258618 0.456311
O O10 0.602129 0.178613 0.681734
O O11 0.250000 0.750000 0.500000
O O12 0.188331 0.759974 0.220623
O O13 0.056030 0.387629 0.399277
O O14 0.000000 0.500000 0.500000
O O15 0.750000 0.250000 0.000000
O O16 0.878100 0.271427 0.052171
O O17 0.000000 0.719626 0.750000
#
# Coordination Sequence:
#
# PCOD9275271 Si02
#       8
#     8   8   4   8   8   8   8   8
#     4  11  23  37  55  80 113 153 198 236 288 345
#     4  11  24  36  52  84 115 154 200 235 282 345
#     4  12  20  34  52  74 110 150 190 234 270 334
#     4  11  21  38  56  75 115 157 194 241 282 341
#     4  10  20  39  59  77 106 158 196 240 293 340
#     4  11  24  34  48  75 116 161 196 226 274 335
#     4  11  22  40  61  84 117 157 201 245 296 343
#     4  11  24  36  53  85 114 151 201 244 281 341
#
# _framework density 16.649684000000001
#
# number of rings (size 3 to 8) (size 9 to 14) (size 15 to 20)
#    0.000    1.067    5.333    3.200    6.533    0.000 
#    0.000    0.000    0.000    0.000    0.000    0.000 
#    2.000    3.200    0.000    0.000    0.000    0.000 
#
# Total GULP energy -167140.794123 kJ/mol
# GULP energy per Si atom -5571.359804 kJ/mol
# Density = 1.661179 g / cm^3
# Si number density = 16.649684 Si / 1000 Ang^3
#
#
#
# Elastic Constant Matrix: (Units=GPa)
#
#
# Indices 1 2 3 4 5 6 
#
# 1 59.0055 32.4469 37.6501 0.0000 -4.1897 0.0000
# 2 32.4469 84.6433 38.0351 0.0000 -3.2599 0.0000
# 3 37.6501 38.0351 133.3258 0.0000 -1.5480 0.0000
# 4 0.0000 0.0000 0.0000 3.6337 0.0000 -7.2928
# 5 -4.1897 -3.2599 -1.5480 0.0000 31.2671 0.0000
# 6 0.0000 0.0000 0.0000 -7.2928 0.0000 26.3945
#
#
#
# Elastic Compliance Matrix: (Units=1/GPa)
#
#
# Indices 1 2 3 4 5 6 
#
# 1 0.023973 -0.006966 -0.004756 0.000000 0.002251 0.000000
# 2 -0.006966 0.015622 -0.002483 0.000000 0.000572 0.000000
# 3 -0.004756 -0.002483 0.009547 0.000000 -0.000424 0.000000
# 4 0.000000 0.000000 0.000000 0.617801 0.000000 0.170699
# 5 0.002251 0.000572 -0.000424 0.000000 0.032323 0.000000
# 6 0.000000 0.000000 0.000000 0.170699 0.000000 0.085051
#
#
# Mechanical properties :
#
#
# Convention : Reuss Voigt Hill
#
# Bulk Modulus (GPa) = 48.23491 54.80433 51.51962
# Shear Modulus (GPa) = 6.10026 23.51521 14.80773
#
# Velocity S-wave (km/s) = 1.91621 3.76220 2.98547
# Velocity P-wave (km/s) = 5.82487 7.20138 6.54939
#
# Compressibility (1/GPa) = 0.02073187
#
# Stress axis : x y z
#
# Youngs Moduli (GPa) = 41.71409 64.01109 104.74444
#
# Poissons Ratio (x) = 0.44588 0.49821
# Poissons Ratio (y) = 0.29056 0.26008
# Poissons Ratio (z) = 0.19841 0.15894
#
# Static dielectric constant tensor:
#      x y z
#    x 1.560790 0.000000 0.044930 
#    y 0.000000 1.627150 0.000000 
#    z 0.044930 0.000000 1.588390 
# 
# From -- ./inp_files/56692.got.cif
#   From: 2010.05.17/outbox.cif.g08.bks.cpg/sg15_29_cif.got.tgz:56692.got - 2010.06.03 18:47:42.
