data_PCOD9275639
_publ_section_title
;
Structure prediction by ZEFSAII (Michael W. Deem and Ramdas Pophale) SiO2 
 PCOD9275639
Probable space group: C 2/C
;
_chemical_formula_sum "Si O2"
_cell_formula_units_Z 56
_cell_length_a 15.971419
_cell_length_b 17.566017
_cell_length_c 12.068632
_cell_angle_alpha 90.000000
_cell_angle_beta 125.913750
_cell_angle_gamma 90.000000
_cell_volume 2742.247993
_symmetry_space_group_name_H-M "C 2/C"
_symmetry_group_IT_number 15
_symmetry_cell_setting 'monoclinic'
loop_
_space_group_symop_operation_xyz
x,y,z
-x,y,1/2-z
-x,-y,-z
x,-y,1/2+z
1/2+x,1/2+y,z
1/2-x,1/2+y,1/2-z
1/2-x,1/2-y,-z
1/2+x,1/2-y,1/2+z
loop_
_atom_site_type_symbol
_atom_site_label
_atom_site_fract_x
_atom_site_fract_y
_atom_site_fract_z
Si Si1 0.838650 0.649293 0.338524
Si Si2 0.719638 0.377486 0.274584
Si Si3 0.245868 0.489568 0.848557
Si Si4 0.972836 0.789973 0.450475
Si Si5 0.097275 0.099892 0.895143
Si Si6 0.353621 0.241153 0.765494
Si Si7 0.115938 0.612876 0.879847
O O1 0.817534 0.585924 0.230823
O O2 0.731885 0.693213 0.287424
O O3 0.877894 0.614373 0.483923
O O4 0.921489 0.712529 0.366984
O O5 0.738844 0.463398 0.252526
O O6 0.625760 0.346393 0.123621
O O7 0.680979 0.373807 0.369764
O O8 0.817178 0.324362 0.324201
O O9 0.189319 0.548228 0.886061
O O10 0.352155 0.461033 0.984649
O O11 0.053821 0.829207 0.430907
O O12 0.034792 0.772270 0.610960
O O13 0.000000 0.068738 0.750000
O O14 0.354288 0.195271 0.650514
O O15 0.000000 0.597706 0.750000
#
# Coordination Sequence:
#
# PCOD9275639 Si02
#       7
#     8   8   8   8   8   8   8
#     4  11  22  41  66  91 122 162 209 250 313 364
#     4   9  22  39  61  90 128 158 208 251 306 364
#     4  11  23  42  61  92 127 167 198 254 311 370
#     4  10  20  39  63  91 118 161 204 257 302 359
#     4  10  21  41  62  92 124 158 208 251 308 362
#     4  10  20  41  64  89 124 160 203 263 299 361
#     4  11  23  41  64  91 126 162 209 250 306 366
#
# _framework density 20.421201
#
# number of rings (size 3 to 8) (size 9 to 14) (size 15 to 20)
#    0.000    1.714    2.857    1.286    0.000    3.429 
#   10.286    0.000    0.000    0.000    0.000    0.000 
#    0.000    0.000    0.000    0.000    0.000    0.000 
#
# Total GULP energy -156330.992757 kJ/mol
# GULP energy per Si atom -5583.249741 kJ/mol
# Density = 2.037472 g / cm^3
# Si number density = 20.421201 Si / 1000 Ang^3
#
#
#
# Elastic Constant Matrix: (Units=GPa)
#
#
# Indices 1 2 3 4 5 6 
#
# 1 50.9102 18.5358 -9.5338 0.0000 0.0294 0.0000
# 2 18.5358 92.5850 33.8268 0.0000 9.5664 0.0000
# 3 -9.5338 33.8268 56.2294 0.0000 15.3367 0.0000
# 4 0.0000 0.0000 0.0000 16.7934 0.0000 4.9780
# 5 0.0294 9.5664 15.3367 0.0000 20.6228 0.0000
# 6 0.0000 0.0000 0.0000 4.9780 0.0000 24.6818
#
#
#
# Elastic Compliance Matrix: (Units=1/GPa)
#
#
# Indices 1 2 3 4 5 6 
#
# 1 0.024538 -0.008227 0.010134 0.000000 -0.003755 0.000000
# 2 -0.008227 0.016603 -0.011649 0.000000 0.000973 0.000000
# 3 0.010134 -0.011649 0.031412 0.000000 -0.017971 0.000000
# 4 0.000000 0.000000 0.000000 0.063334 0.000000 -0.012774
# 5 -0.003755 0.000973 -0.017971 0.000000 0.061409 0.000000
# 6 0.000000 0.000000 0.000000 -0.012774 0.000000 0.043092
#
#
# Mechanical properties :
#
#
# Convention : Reuss Voigt Hill
#
# Bulk Modulus (GPa) = 18.84316 31.70914 25.27615
# Shear Modulus (GPa) = 18.01404 22.87931 20.44667
#
# Velocity S-wave (km/s) = 2.97328 3.35082 3.16768
# Velocity P-wave (km/s) = 4.58634 5.52557 5.07772
#
# Compressibility (1/GPa) = 0.05306964
#
# Stress axis : x y z
#
# Youngs Moduli (GPa) = 40.75349 60.22855 31.83500
#
# Poissons Ratio (x) = 0.49551 -0.32262
# Poissons Ratio (y) = 0.33528 0.37083
# Poissons Ratio (z) = -0.41299 0.70158
#
# Static dielectric constant tensor:
#      x y z
#    x 1.729410 0.000000 0.010190 
#    y 0.000000 1.717210 0.000000 
#    z 0.010190 0.000000 1.716450 
# 
# From -- ./inp_files/106729.got.cif
#   From: 2010.05.17/outbox.cif.g08.bks.cpg/sg15_54_cif.got.tgz:106729.got - 2010.06.03 18:47:42.
