data_PCOD9275297
_publ_section_title
;
Structure prediction by ZEFSAII (Michael W. Deem and Ramdas Pophale) SiO2 
 PCOD9275297
Probable space group: C 2/C
;
_chemical_formula_sum "Si O2"
_cell_formula_units_Z 40
_cell_length_a 12.234977
_cell_length_b 19.677031
_cell_length_c 7.616480
_cell_angle_alpha 90.000000
_cell_angle_beta 85.599032
_cell_angle_gamma 90.000000
_cell_volume 1828.245887
_symmetry_space_group_name_H-M "C 2/C"
_symmetry_group_IT_number 15
_symmetry_cell_setting 'monoclinic'
loop_
_space_group_symop_operation_xyz
x,y,z
-x,y,1/2-z
-x,-y,-z
x,-y,1/2+z
1/2+x,1/2+y,z
1/2-x,1/2+y,1/2-z
1/2-x,1/2-y,-z
1/2+x,1/2-y,1/2+z
loop_
_atom_site_type_symbol
_atom_site_label
_atom_site_fract_x
_atom_site_fract_y
_atom_site_fract_z
Si Si1 0.065925 0.245087 0.914579
Si Si2 0.092737 0.408429 0.467501
Si Si3 0.643432 0.947786 0.854077
Si Si4 0.766654 0.836380 0.961119
Si Si5 0.649910 0.245582 0.874634
O O1 0.143875 0.304586 0.977933
O O2 0.000000 0.267520 0.750000
O O3 0.154570 0.184370 0.888172
O O4 0.965537 0.224062 0.047491
O O5 0.140034 0.415217 0.659967
O O6 0.139675 0.471003 0.349291
O O7 0.118988 0.335605 0.377615
O O8 0.965321 0.426227 0.522661
O O9 0.748906 0.915006 0.932344
O O10 0.816086 0.793505 0.791752
O O11 0.750000 0.250000 0.000000
#
# Coordination Sequence:
#
# PCOD9275297 Si02
#       5
#     8   8   8   8   8
#     4  11  22  39  58  94 129 159 213 264 317 370
#     4  10  21  37  62  90 133 160 202 266 316 381
#     4  10  20  39  59  92 126 164 200 261 327 375
#     4  11  23  38  65  92 128 168 205 269 315 384
#     4  12  21  38  65  93 126 169 211 257 319 375
#
# _framework density 21.878893999999999
#
# number of rings (size 3 to 8) (size 9 to 14) (size 15 to 20)
#    0.000    1.200    6.000    0.600    0.000    3.200 
#    7.200    0.000    0.000    1.200    5.200    0.000 
#    0.000    0.000    0.000    0.000    0.000    0.000 
#
# Total GULP energy -111509.966882 kJ/mol
# GULP energy per Si atom -5575.498344 kJ/mol
# Density = 2.182910 g / cm^3
# Si number density = 21.878894 Si / 1000 Ang^3
#
#
#
# Elastic Constant Matrix: (Units=GPa)
#
#
# Indices 1 2 3 4 5 6 
#
# 1 113.6481 14.0559 18.3130 0.0000 13.1963 0.0000
# 2 14.0559 92.7362 8.7709 0.0000 4.4631 0.0000
# 3 18.3130 8.7709 65.4588 0.0000 -3.2375 0.0000
# 4 0.0000 0.0000 0.0000 27.5081 0.0000 -1.0568
# 5 13.1963 4.4631 -3.2375 0.0000 36.9732 0.0000
# 6 0.0000 0.0000 0.0000 -1.0568 0.0000 34.7864
#
#
#
# Elastic Compliance Matrix: (Units=1/GPa)
#
#
# Indices 1 2 3 4 5 6 
#
# 1 0.009796 -0.001048 -0.002779 0.000000 -0.003613 0.000000
# 2 -0.001048 0.011112 -0.001249 0.000000 -0.001077 0.000000
# 3 -0.002779 -0.001249 0.016349 0.000000 0.002574 0.000000
# 4 0.000000 0.000000 0.000000 0.036395 0.000000 0.001106
# 5 -0.003613 -0.001077 0.002574 0.000000 0.028692 0.000000
# 6 0.000000 0.000000 0.000000 0.001106 0.000000 0.028780
#
#
# Mechanical properties :
#
#
# Convention : Reuss Voigt Hill
#
# Bulk Modulus (GPa) = 36.89325 39.34697 38.12011
# Shear Modulus (GPa) = 33.26433 35.23377 34.24905
#
# Velocity S-wave (km/s) = 3.90344 4.01733 3.96080
# Velocity P-wave (km/s) = 6.10040 6.28821 6.19502
#
# Compressibility (1/GPa) = 0.02710523
#
# Stress axis : x y z
#
# Youngs Moduli (GPa) = 102.08210 89.99226 61.16634
#
# Poissons Ratio (x) = 0.09432 0.16997
# Poissons Ratio (y) = 0.10699 0.07639
# Poissons Ratio (z) = 0.28367 0.11240
#
# Static dielectric constant tensor:
#      x y z
#    x 1.804160 0.000000 0.023820 
#    y 0.000000 1.863420 0.000000 
#    z 0.023820 0.000000 2.061200 
# 
# From -- ./inp_files/29321.got.cif
#   From: 2010.05.17/outbox.cif.g08.bks.cpg/sg15_15_cif.got.tgz:29321.got - 2010.06.03 18:47:42.
