data_PCOD9275746
_publ_section_title
;
Structure prediction by ZEFSAII (Michael W. Deem and Ramdas Pophale) SiO2 
 PCOD9275746
Probable space group: C 2/C
;
_chemical_formula_sum "Si O2"
_cell_formula_units_Z 60
_cell_length_a 21.025500
_cell_length_b 9.600288
_cell_length_c 19.316620
_cell_angle_alpha 90.000000
_cell_angle_beta 46.639731
_cell_angle_gamma 90.000000
_cell_volume 2834.827098
_symmetry_space_group_name_H-M "C 2/C"
_symmetry_group_IT_number 15
_symmetry_cell_setting 'monoclinic'
loop_
_space_group_symop_operation_xyz
x,y,z
-x,y,1/2-z
-x,-y,-z
x,-y,1/2+z
1/2+x,1/2+y,z
1/2-x,1/2+y,1/2-z
1/2-x,1/2-y,-z
1/2+x,1/2-y,1/2+z
loop_
_atom_site_type_symbol
_atom_site_label
_atom_site_fract_x
_atom_site_fract_y
_atom_site_fract_z
Si Si1 0.000000 0.541842 0.750000
Si Si2 0.918984 0.587259 0.589010
Si Si3 0.333428 0.039801 0.292008
Si Si4 0.710077 0.686301 0.837546
Si Si5 0.223949 0.880946 0.612957
Si Si6 0.105972 0.751735 0.589528
Si Si7 0.747220 0.657666 0.652276
Si Si8 0.523558 0.638121 0.025870
O O1 0.086894 0.466232 0.713064
O O2 0.033219 0.639072 0.662745
O O3 0.876857 0.502377 0.685130
O O4 0.849346 0.617772 0.580270
O O5 0.000000 0.500000 0.500000
O O6 0.949646 0.743907 0.585529
O O7 0.284470 0.186239 0.336144
O O8 0.256233 0.924455 0.354769
O O9 0.762314 0.825507 0.818880
O O10 0.719967 0.636444 0.752472
O O11 0.607733 0.704059 0.925039
O O12 0.145009 0.811229 0.631135
O O13 0.313169 0.827577 0.508841
O O14 0.209569 0.044945 0.627880
O O15 0.062961 0.871522 0.574065
O O16 0.500000 0.500000 0.000000
#
# Coordination Sequence:
#
# PCOD9275746 Si02
#       8
#     4   8   8   8   8   8   8   8
#     4  12  22  42  66  90 128 182 234 262 336 416
#     4  11  22  41  66  96 135 177 219 278 345 406
#     4  11  23  40  64  93 131 178 222 274 340 408
#     4  10  20  39  64  90 128 171 217 271 331 410
#     4  10  21  42  66  92 127 175 229 273 333 403
#     4  10  22  41  68  92 128 180 230 276 329 422
#     4  11  23  38  62  99 132 169 219 280 343 391
#     4  11  22  38  64  98 129 163 224 283 331 390
#
# _framework density 21.165312
#
# number of rings (size 3 to 8) (size 9 to 14) (size 15 to 20)
#    0.000    1.333    2.667    4.800    0.000    2.133 
#    0.000    4.000    0.000    0.000    0.000    0.000 
#    0.000    0.000    0.000    0.000    0.000    0.000 
#
# Total GULP energy -167265.628677 kJ/mol
# GULP energy per Si atom -5575.520956 kJ/mol
# Density = 2.111714 g / cm^3
# Si number density = 21.165312 Si / 1000 Ang^3
#
#
#
# Elastic Constant Matrix: (Units=GPa)
#
#
# Indices 1 2 3 4 5 6 
#
# 1 87.5103 33.6199 -2.1130 0.0000 -2.9710 0.0000
# 2 33.6199 127.4895 9.2993 0.0000 -5.0557 0.0000
# 3 -2.1130 9.2993 39.7339 0.0000 -8.0479 0.0000
# 4 0.0000 0.0000 0.0000 22.1492 0.0000 -11.2881
# 5 -2.9710 -5.0557 -8.0479 0.0000 23.9495 0.0000
# 6 0.0000 0.0000 0.0000 -11.2881 0.0000 36.1209
#
#
#
# Elastic Compliance Matrix: (Units=1/GPa)
#
#
# Indices 1 2 3 4 5 6 
#
# 1 0.012850 -0.003461 0.001790 0.000000 0.001465 0.000000
# 2 -0.003461 0.008941 -0.002126 0.000000 0.000744 0.000000
# 3 0.001790 -0.002126 0.027592 0.000000 0.009045 0.000000
# 4 0.000000 0.000000 0.000000 0.053701 0.000000 0.016782
# 5 0.001465 0.000744 0.009045 0.000000 0.045133 0.000000
# 6 0.000000 0.000000 0.000000 0.016782 0.000000 0.032929
#
#
# Mechanical properties :
#
#
# Convention : Reuss Voigt Hill
#
# Bulk Modulus (GPa) = 23.92964 37.37182 30.65073
# Shear Modulus (GPa) = 24.67063 30.70575 27.68819
#
# Velocity S-wave (km/s) = 3.41782 3.81301 3.62081
# Velocity P-wave (km/s) = 5.18709 6.08941 5.65627
#
# Compressibility (1/GPa) = 0.04178918
#
# Stress axis : x y z
#
# Youngs Moduli (GPa) = 77.82184 111.84360 36.24207
#
# Poissons Ratio (x) = 0.38710 -0.06488
# Poissons Ratio (y) = 0.26935 0.07705
# Poissons Ratio (z) = -0.13931 0.23778
#
# Static dielectric constant tensor:
#      x y z
#    x 1.810800 0.000000 0.011200 
#    y 0.000000 1.506390 0.000000 
#    z 0.011200 0.000000 1.818210 
# 
# From -- ./inp_files/214290.got.cif
#   From: 2010.05.17/outbox.cif.g08.bks.cpg/sg15_108_cif.got.tgz:214290.got - 2010.06.03 18:47:42.
