data_PCOD9275797
_publ_section_title
;
Structure prediction by ZEFSAII (Michael W. Deem and Ramdas Pophale) SiO2 
 PCOD9275797
Probable space group: C 2/C
;
_chemical_formula_sum "Si O2"
_cell_formula_units_Z 48
_cell_length_a 9.026467
_cell_length_b 22.510894
_cell_length_c 12.226790
_cell_angle_alpha 90.000000
_cell_angle_beta 106.710451
_cell_angle_gamma 90.000000
_cell_volume 2379.492022
_symmetry_space_group_name_H-M "C 2/C"
_symmetry_group_IT_number 15
_symmetry_cell_setting 'monoclinic'
loop_
_space_group_symop_operation_xyz
x,y,z
-x,y,1/2-z
-x,-y,-z
x,-y,1/2+z
1/2+x,1/2+y,z
1/2-x,1/2+y,1/2-z
1/2-x,1/2-y,-z
1/2+x,1/2-y,1/2+z
loop_
_atom_site_type_symbol
_atom_site_label
_atom_site_fract_x
_atom_site_fract_y
_atom_site_fract_z
Si Si1 0.094140 0.279066 0.157715
Si Si2 0.386301 0.855734 0.974620
Si Si3 0.171233 0.888711 0.304415
Si Si4 0.316242 0.827912 0.725687
Si Si5 0.177893 0.427932 0.947285
Si Si6 0.835117 0.557898 0.652950
O O1 0.206594 0.336050 0.189328
O O2 0.202957 0.223016 0.158966
O O3 0.000000 0.271669 0.250000
O O4 0.974816 0.297368 0.037260
O O5 0.287666 0.838846 0.848196
O O6 0.515097 0.902871 0.959293
O O7 0.311243 0.888570 0.061957
O O8 0.201307 0.914966 0.430685
O O9 0.208977 0.938036 0.221375
O O10 0.000000 0.865874 0.250000
O O11 0.500000 0.812751 0.750000
O O12 0.289334 0.887484 0.651106
O O13 0.167154 0.495916 0.910821
O O14 0.000000 0.564347 0.750000
#
# Coordination Sequence:
#
# PCOD9275797 Si02
#       6
#     8   8   8   8   8   8
#     4  11  21  42  62  93 121 164 218 257 308 377
#     4  10  20  39  64  96 120 163 213 258 312 363
#     4  11  24  41  63  90 125 171 206 256 321 370
#     4  10  23  39  60  97 129 162 203 262 324 366
#     4  10  23  38  65  96 126 165 211 257 311 372
#     4  12  20  40  69  93 123 164 218 258 304 376
#
# _framework density 20.172373
#
# number of rings (size 3 to 8) (size 9 to 14) (size 15 to 20)
#    0.000    1.333    5.000    2.500    2.333    8.667 
#    3.000    0.833    0.000    0.000    0.000    0.000 
#    0.000    0.000    0.000    0.000    0.000    0.000 
#
# Total GULP energy -134086.393317 kJ/mol
# GULP energy per Si atom -5586.933055 kJ/mol
# Density = 2.012646 g / cm^3
# Si number density = 20.172373 Si / 1000 Ang^3
#
#
#
# Elastic Constant Matrix: (Units=GPa)
#
#
# Indices 1 2 3 4 5 6 
#
# 1 35.4698 5.8687 17.2838 0.0000 2.1092 0.0000
# 2 5.8687 79.1969 33.8068 0.0000 6.2366 0.0000
# 3 17.2838 33.8068 130.4641 0.0000 -2.7621 0.0000
# 4 0.0000 0.0000 0.0000 22.0663 0.0000 -1.8907
# 5 2.1092 6.2366 -2.7621 0.0000 12.6585 0.0000
# 6 0.0000 0.0000 0.0000 -1.8907 0.0000 6.5272
#
#
#
# Elastic Compliance Matrix: (Units=1/GPa)
#
#
# Indices 1 2 3 4 5 6 
#
# 1 0.030587 -0.000011 -0.004176 0.000000 -0.006002 0.000000
# 2 -0.000011 0.015015 -0.004065 0.000000 -0.008282 0.000000
# 3 -0.004176 -0.004065 0.009372 0.000000 0.004743 0.000000
# 4 0.000000 0.000000 0.000000 0.046471 0.000000 0.013461
# 5 -0.006002 -0.008282 0.004743 0.000000 0.085114 0.000000
# 6 0.000000 0.000000 0.000000 0.013461 0.000000 0.157105
#
#
# Mechanical properties :
#
#
# Convention : Reuss Voigt Hill
#
# Bulk Modulus (GPa) = 25.99476 39.89439 32.94457
# Shear Modulus (GPa) = 13.40517 20.79517 17.10017
#
# Velocity S-wave (km/s) = 2.58065 3.21421 2.91469
# Velocity P-wave (km/s) = 4.66840 5.79608 5.26253
#
# Compressibility (1/GPa) = 0.03846930
#
# Stress axis : x y z
#
# Youngs Moduli (GPa) = 32.69390 66.60066 106.70203
#
# Poissons Ratio (x) = 0.00075 0.44562
# Poissons Ratio (y) = 0.00037 0.43370
# Poissons Ratio (z) = 0.13654 0.27071
#
# Static dielectric constant tensor:
#      x y z
#    x 1.722700 0.000000 -0.015650 
#    y 0.000000 1.690460 0.000000 
#    z -0.015650 0.000000 1.730080 
# 
# From -- ./inp_files/79140.got.cif
#   From: 2010.05.17/outbox.cif.g08.bks.cpg/sg15_40_cif.got.tgz:79140.got - 2010.06.03 18:47:42.
