data_PCOD9275025
_publ_section_title
;
Structure prediction by ZEFSAII (Michael W. Deem and Ramdas Pophale) SiO2 
 PCOD9275025
Probable space group: C 2/C
;
_chemical_formula_sum "Si O2"
_cell_formula_units_Z 60
_cell_length_a 15.379229
_cell_length_b 19.655218
_cell_length_c 27.970926
_cell_angle_alpha 90.000000
_cell_angle_beta 159.774147
_cell_angle_gamma 90.000000
_cell_volume 2923.114490
_symmetry_space_group_name_H-M "C 2/C"
_symmetry_group_IT_number 15
_symmetry_cell_setting 'monoclinic'
loop_
_space_group_symop_operation_xyz
x,y,z
-x,y,1/2-z
-x,-y,-z
x,-y,1/2+z
1/2+x,1/2+y,z
1/2-x,1/2+y,1/2-z
1/2-x,1/2-y,-z
1/2+x,1/2-y,1/2+z
loop_
_atom_site_type_symbol
_atom_site_label
_atom_site_fract_x
_atom_site_fract_y
_atom_site_fract_z
Si Si1 0.500000 0.564770 0.750000
Si Si2 0.011520 0.758049 0.606647
Si Si3 0.899811 0.961780 0.519500
Si Si4 0.852494 0.496555 0.510892
Si Si5 0.623301 0.119492 0.205706
Si Si6 0.220338 0.168322 0.599294
Si Si7 0.740660 0.614791 0.782899
Si Si8 0.115481 0.887599 0.491425
O O1 0.315825 0.517759 0.622595
O O2 0.626660 0.613617 0.776602
O O3 0.209897 0.816474 0.725746
O O4 0.132723 0.684722 0.666359
O O5 0.750000 0.750000 0.500000
O O6 0.938033 0.782928 0.516108
O O7 0.801728 0.973483 0.523129
O O8 0.750879 0.902968 0.414982
O O9 0.182459 0.932588 0.668611
O O10 0.868603 0.035562 0.479915
O O11 0.987649 0.425761 0.595334
O O12 0.067489 0.552311 0.615830
O O13 0.394949 0.139262 0.123696
O O14 0.500000 0.195873 0.750000
O O15 0.061102 0.154890 0.564680
O O16 0.531123 0.603821 0.634295
#
# Coordination Sequence:
#
# PCOD9275025 Si02
#       8
#     4   8   8   8   8   8   8   8
#     4  12  24  42  66 102 128 178 234 272 336 386
#     4  11  26  47  67  95 132 181 219 275 341 406
#     4  10  20  38  67  99 134 169 213 275 334 396
#     4  11  21  44  69 101 132 177 227 282 330 391
#     4  10  21  41  70  96 137 172 219 279 336 399
#     4  11  24  42  66 100 136 176 218 272 338 414
#     4  12  24  43  69  94 139 174 224 281 327 401
#     4  11  22  40  67 101 133 175 219 275 345 395
#
# _framework density 20.526052
#
# number of rings (size 3 to 8) (size 9 to 14) (size 15 to 20)
#    0.000    1.067    4.000    4.000    1.867    3.733 
#    6.000    0.000    0.000    0.000    0.000    0.000 
#    0.000    0.000    0.000    0.000    0.000    0.000 
#
# Total GULP energy -167516.992862 kJ/mol
# GULP energy per Si atom -5583.899762 kJ/mol
# Density = 2.047933 g / cm^3
# Si number density = 20.526052 Si / 1000 Ang^3
#
#
#
# Elastic Constant Matrix: (Units=GPa)
#
#
# Indices 1 2 3 4 5 6 
#
# 1 118.4360 21.1293 34.8551 0.0126 16.8534 0.0088
# 2 21.1293 87.7867 32.4662 0.0102 15.2109 -0.0028
# 3 34.8551 32.4662 107.4453 0.0316 5.3182 -0.0016
# 4 0.0126 0.0102 0.0316 22.3332 0.0066 -1.0918
# 5 16.8534 15.2109 5.3182 0.0066 38.1810 0.0167
# 6 0.0088 -0.0028 -0.0016 -1.0918 0.0167 14.8083
#
#
#
# Elastic Compliance Matrix: (Units=1/GPa)
#
#
# Indices 1 2 3 4 5 6 
#
# 1 0.009928 -0.000702 -0.002825 0.000000 -0.003709 -0.000002
# 2 -0.000702 0.013730 -0.003691 0.000001 -0.004646 0.000008
# 3 -0.002825 -0.003691 0.011282 -0.000013 0.001146 0.000000
# 4 0.000000 0.000001 -0.000013 0.044938 -0.000008 0.003313
# 5 -0.003709 -0.004646 0.001146 -0.000008 0.029519 -0.000032
# 6 -0.000002 0.000008 0.000000 0.003313 -0.000032 0.067774
#
#
# Mechanical properties :
#
#
# Convention : Reuss Voigt Hill
#
# Bulk Modulus (GPa) = 48.77088 54.50769 51.63928
# Shear Modulus (GPa) = 25.19620 30.07901 27.63761
#
# Velocity S-wave (km/s) = 3.50740 3.83222 3.67340
# Velocity P-wave (km/s) = 6.34150 6.79663 6.57300
#
# Compressibility (1/GPa) = 0.02050404
#
# Stress axis : x y z
#
# Youngs Moduli (GPa) = 100.72764 72.83148 88.63656
#
# Poissons Ratio (x) = 0.05114 0.25038
# Poissons Ratio (y) = 0.07072 0.32717
# Poissons Ratio (z) = 0.28454 0.26883
#
# Static dielectric constant tensor:
#      x y z
#    x 1.764740 -0.000040 0.034260 
#    y -0.000040 1.671690 -0.000100 
#    z 0.034260 -0.000100 1.790860 
# 
# From -- ./inp_files/297050.got.cif
#   From: 2010.05.17/outbox.cif.g08.bks.cpg/sg15_149_cif.got.tgz:297050.got - 2010.06.03 18:47:42.
