data_PCOD9275441
_publ_section_title
;
Structure prediction by ZEFSAII (Michael W. Deem and Ramdas Pophale) SiO2 
 PCOD9275441
Probable space group: C 2/C
;
_chemical_formula_sum "Si O2"
_cell_formula_units_Z 40
_cell_length_a 15.292709
_cell_length_b 7.486980
_cell_length_c 27.533464
_cell_angle_alpha 90.000000
_cell_angle_beta 151.295112
_cell_angle_gamma 90.000000
_cell_volume 1514.129513
_symmetry_space_group_name_H-M "C 2/C"
_symmetry_group_IT_number 15
_symmetry_cell_setting 'monoclinic'
loop_
_space_group_symop_operation_xyz
x,y,z
-x,y,1/2-z
-x,-y,-z
x,-y,1/2+z
1/2+x,1/2+y,z
1/2-x,1/2+y,1/2-z
1/2-x,1/2-y,-z
1/2+x,1/2-y,1/2+z
loop_
_atom_site_type_symbol
_atom_site_label
_atom_site_fract_x
_atom_site_fract_y
_atom_site_fract_z
Si Si1 0.510476 0.369234 0.948473
Si Si2 0.215361 0.175694 0.351878
Si Si3 0.281854 0.342150 0.749908
Si Si4 0.789573 0.224905 0.630352
Si Si5 0.460506 0.661153 0.614896
O O1 0.413107 0.268313 0.855791
O O2 0.352841 0.361805 0.913669
O O3 0.573192 0.548820 0.950752
O O4 0.683398 0.274393 0.055714
O O5 0.245690 0.261590 0.313762
O O6 0.000000 0.177237 0.250000
O O7 0.276465 0.969787 0.383447
O O8 0.386938 0.524150 0.788781
O O9 0.074773 0.344088 0.667106
O O10 0.000000 0.261864 0.750000
O O11 0.807717 0.187364 0.580908
#
# Coordination Sequence:
#
# PCOD9275441 Si02
#       5
#     8   8   8   8   8
#     4  10  22  37  65  98 134 177 226 285 341 408
#     4  11  21  37  63  95 131 176 225 277 346 411
#     4  10  20  39  61  93 134 173 226 284 333 409
#     4  11  17  38  66  90 127 178 220 271 346 410
#     4  10  21  38  66  93 138 175 225 280 343 412
#
# _framework density 26.417819000000001
#
# number of rings (size 3 to 8) (size 9 to 14) (size 15 to 20)
#    1.200    0.400    6.000    0.600    0.000    4.000 
#    0.000    4.000    0.000    0.000    0.000    0.000 
#    0.000    0.000    0.000    0.000    0.000    0.000 
#
# Total GULP energy -111465.383597 kJ/mol
# GULP energy per Si atom -5573.269180 kJ/mol
# Density = 2.635769 g / cm^3
# Si number density = 26.417819 Si / 1000 Ang^3
#
#
#
# Elastic Constant Matrix: (Units=GPa)
#
#
# Indices 1 2 3 4 5 6 
#
# 1 178.4448 55.2635 55.8482 0.0000 -35.3596 0.0000
# 2 55.2635 111.3643 69.1818 0.0000 -1.8343 -0.0001
# 3 55.8482 69.1818 128.6462 0.0004 -1.8692 0.0000
# 4 0.0000 0.0000 0.0004 17.4182 0.0000 8.6752
# 5 -35.3596 -1.8343 -1.8692 0.0000 35.3259 0.0000
# 6 0.0000 -0.0001 0.0000 8.6752 0.0000 16.7506
#
#
#
# Elastic Compliance Matrix: (Units=1/GPa)
#
#
# Indices 1 2 3 4 5 6 
#
# 1 0.008901 -0.002932 -0.002162 0.000000 0.008643 0.000000
# 2 -0.002932 0.014453 -0.006537 0.000000 -0.002530 0.000000
# 3 -0.002162 -0.006537 0.012200 0.000000 -0.001858 0.000000
# 4 0.000000 0.000000 0.000000 0.077368 0.000000 -0.040069
# 5 0.008643 -0.002530 -0.001858 0.000000 0.036730 0.000000
# 6 0.000000 0.000000 0.000000 -0.040069 0.000000 0.080452
#
#
# Mechanical properties :
#
#
# Convention : Reuss Voigt Hill
#
# Bulk Modulus (GPa) = 81.34100 86.56025 83.95062
# Shear Modulus (GPa) = 19.42029 29.77638 24.59834
#
# Velocity S-wave (km/s) = 2.71425 3.36092 3.05475
# Velocity P-wave (km/s) = 6.37808 6.92084 6.65500
#
# Compressibility (1/GPa) = 0.01229392
#
# Stress axis : x y z
#
# Youngs Moduli (GPa) = 112.34381 69.18807 81.96689
#
# Poissons Ratio (x) = 0.20284 0.17722
# Poissons Ratio (y) = 0.32935 0.53579
# Poissons Ratio (z) = 0.24290 0.45226
#
# Static dielectric constant tensor:
#      x y z
#    x 2.241360 0.000000 -0.030700 
#    y 0.000000 2.143110 0.000000 
#    z -0.030700 0.000000 2.069010 
# 
# From -- ./inp_files/313361.got.cif
#   From: 2010.05.17/outbox.cif.g08.bks.cpg/sg15_157_cif.got.tgz:313361.got - 2010.06.03 18:47:42.
