data_PCOD9275340
_publ_section_title
;
Structure prediction by ZEFSAII (Michael W. Deem and Ramdas Pophale) SiO2 
 PCOD9275340
Probable space group: C 2/C
;
_chemical_formula_sum "Si O2"
_cell_formula_units_Z 44
_cell_length_a 14.818517
_cell_length_b 8.236184
_cell_length_c 13.991846
_cell_angle_alpha 90.000000
_cell_angle_beta 108.854137
_cell_angle_gamma 90.000000
_cell_volume 1616.050724
_symmetry_space_group_name_H-M "C 2/C"
_symmetry_group_IT_number 15
_symmetry_cell_setting 'monoclinic'
loop_
_space_group_symop_operation_xyz
x,y,z
-x,y,1/2-z
-x,-y,-z
x,-y,1/2+z
1/2+x,1/2+y,z
1/2-x,1/2+y,1/2-z
1/2-x,1/2-y,-z
1/2+x,1/2-y,1/2+z
loop_
_atom_site_type_symbol
_atom_site_label
_atom_site_fract_x
_atom_site_fract_y
_atom_site_fract_z
Si Si1 0.638137 0.216459 0.468236
Si Si2 0.442324 0.464675 0.583943
Si Si3 0.849601 0.351785 0.036183
Si Si4 0.500000 0.853263 0.750000
Si Si5 0.140272 0.063713 0.232518
Si Si6 0.847792 0.570962 0.760056
O O1 0.750000 0.250000 0.500000
O O2 0.599969 0.390362 0.493345
O O3 0.582247 0.221370 0.345951
O O4 0.635623 0.029844 0.507634
O O5 0.427225 0.284119 0.535376
O O6 0.382706 0.442645 0.662460
O O7 0.547875 0.514412 0.653275
O O8 0.854947 0.403069 0.148352
O O9 0.750000 0.250000 0.000000
O O10 0.436974 0.953744 0.805833
O O11 0.140370 0.249279 0.197124
O O12 0.243840 0.993363 0.249001
#
# Coordination Sequence:
#
# PCOD9275340 Si02
#       6
#     8   8   8   4   8   8
#     4  11  21  36  70  94 121 169 221 262 321 382
#     4  10  21  39  61  88 126 170 206 262 325 385
#     4  10  20  39  60  87 128 171 212 262 328 385
#     4  10  22  40  64  92 128 170 214 262 332 384
#     4  10  21  37  60  94 124 162 216 265 322 381
#     4  10  22  37  64  91 126 169 215 270 322 382
#
# _framework density 27.226868
#
# number of rings (size 3 to 8) (size 9 to 14) (size 15 to 20)
#    0.000    1.818    1.818    4.364    7.636    0.000 
#    0.000    0.909    0.000    2.182    0.000    0.000 
#    0.000    0.000    0.000    0.000    0.000    0.000 
#
# Total GULP energy -122942.376253 kJ/mol
# GULP energy per Si atom -5588.289830 kJ/mol
# Density = 2.716490 g / cm^3
# Si number density = 27.226868 Si / 1000 Ang^3
#
#
#
# Elastic Constant Matrix: (Units=GPa)
#
#
# Indices 1 2 3 4 5 6 
#
# 1 165.1930 44.0639 49.2948 0.0000 27.6394 0.0000
# 2 44.0639 207.6525 38.9544 0.0000 12.3181 0.0000
# 3 49.2948 38.9544 89.2286 0.0000 28.6799 0.0000
# 4 0.0000 0.0000 0.0000 38.6963 0.0000 14.5703
# 5 27.6394 12.3181 28.6799 0.0000 59.2621 0.0000
# 6 0.0000 0.0000 0.0000 14.5703 0.0000 47.6785
#
#
#
# Elastic Compliance Matrix: (Units=1/GPa)
#
#
# Indices 1 2 3 4 5 6 
#
# 1 0.007547 -0.000894 -0.003206 0.000000 -0.001782 0.000000
# 2 -0.000894 0.005351 -0.001917 0.000000 0.000232 0.000000
# 3 -0.003206 -0.001917 0.015639 0.000000 -0.005675 0.000000
# 4 0.000000 0.000000 0.000000 0.029202 0.000000 -0.008924
# 5 -0.001782 0.000232 -0.005675 0.000000 0.020404 0.000000
# 6 0.000000 0.000000 0.000000 -0.008924 0.000000 0.023701
#
#
# Mechanical properties :
#
#
# Convention : Reuss Voigt Hill
#
# Bulk Modulus (GPa) = 60.59465 80.74449 70.66957
# Shear Modulus (GPa) = 41.88305 51.11145 46.49725
#
# Velocity S-wave (km/s) = 3.92637 4.33742 4.13700
# Velocity P-wave (km/s) = 6.54667 7.40303 6.98798
#
# Compressibility (1/GPa) = 0.01650311
#
# Stress axis : x y z
#
# Youngs Moduli (GPa) = 132.50274 186.87005 63.94169
#
# Poissons Ratio (x) = 0.16712 0.20500
# Poissons Ratio (y) = 0.11850 0.12257
# Poissons Ratio (z) = 0.42481 0.35820
#
# Static dielectric constant tensor:
#      x y z
#    x 2.133250 0.000000 -0.050230 
#    y 0.000000 2.395320 0.000000 
#    z -0.050230 0.000000 2.190180 
# 
# From -- ./inp_files/242642.got.cif
#   From: 2010.05.17/outbox.cif.g08.bks.cpg/sg15_122_cif.got.tgz:242642.got - 2010.06.03 18:47:42.
