data_PCOD9275251
_publ_section_title
;
Structure prediction by ZEFSAII (Michael W. Deem and Ramdas Pophale) SiO2 
 PCOD9275251
Probable space group: C 2/C
;
_chemical_formula_sum "Si O2"
_cell_formula_units_Z 40
_cell_length_a 5.208317
_cell_length_b 26.460018
_cell_length_c 12.542175
_cell_angle_alpha 90.000000
_cell_angle_beta 64.474450
_cell_angle_gamma 90.000000
_cell_volume 1559.754411
_symmetry_space_group_name_H-M "C 2/C"
_symmetry_group_IT_number 15
_symmetry_cell_setting 'monoclinic'
loop_
_space_group_symop_operation_xyz
x,y,z
-x,y,1/2-z
-x,-y,-z
x,-y,1/2+z
1/2+x,1/2+y,z
1/2-x,1/2+y,1/2-z
1/2-x,1/2-y,-z
1/2+x,1/2-y,1/2+z
loop_
_atom_site_type_symbol
_atom_site_label
_atom_site_fract_x
_atom_site_fract_y
_atom_site_fract_z
Si Si1 0.473202 0.748740 0.131010
Si Si2 0.607139 0.467972 0.581543
Si Si3 0.381404 0.943429 0.154410
Si Si4 0.716558 0.154922 0.933515
Si Si5 0.947453 0.860486 0.917827
O O1 0.500000 0.765704 0.250000
O O2 0.259936 0.788076 0.113009
O O3 0.392329 0.689615 0.151848
O O4 0.750000 0.750000 0.000000
O O5 0.500000 0.500000 0.500000
O O6 0.697148 0.509134 0.650427
O O7 0.449140 0.415965 0.640835
O O8 0.886543 0.444387 0.479776
O O9 0.500000 0.952723 0.250000
O O10 0.271707 0.886746 0.161783
O O11 0.390603 0.150621 0.038725
O O12 0.959185 0.140154 0.974369
#
# Coordination Sequence:
#
# PCOD9275251 Si02
#       5
#     8   8   8   8   8
#     4  10  22  43  67 102 138 183 232 292 358 427
#     4  10  20  39  58  85 127 168 216 275 335 412
#     4  10  21  37  60  91 120 168 223 279 335 403
#     4  10  20  40  66  93 126 167 224 284 340 408
#     4  10  21  40  64  92 130 174 218 280 346 415
#
# _framework density 25.645061999999999
#
# number of rings (size 3 to 8) (size 9 to 14) (size 15 to 20)
#    0.000    2.000    2.000    1.200    0.000    0.800 
#    3.600   22.000    0.000    0.000    0.000    0.000 
#    0.000    0.000    0.000    0.000    0.000    0.000 
#
# Total GULP energy -111501.494553 kJ/mol
# GULP energy per Si atom -5575.074728 kJ/mol
# Density = 2.558669 g / cm^3
# Si number density = 25.645062 Si / 1000 Ang^3
#
#
#
# Elastic Constant Matrix: (Units=GPa)
#
#
# Indices 1 2 3 4 5 6 
#
# 1 57.4714 -2.8261 23.2635 0.0000 8.1863 0.0000
# 2 -2.8261 214.7900 12.9395 0.0000 15.4267 0.0000
# 3 23.2635 12.9395 110.5114 0.0000 28.9751 0.0000
# 4 0.0000 0.0000 0.0000 26.8083 0.0000 9.4684
# 5 8.1863 15.4267 28.9751 0.0000 48.9155 0.0000
# 6 0.0000 0.0000 0.0000 9.4684 0.0000 40.0040
#
#
#
# Elastic Compliance Matrix: (Units=1/GPa)
#
#
# Indices 1 2 3 4 5 6 
#
# 1 0.019125 0.000561 -0.003796 0.000000 -0.001129 0.000000
# 2 0.000561 0.004784 -0.000306 0.000000 -0.001422 0.000000
# 3 -0.003796 -0.000306 0.011474 0.000000 -0.006065 0.000000
# 4 0.000000 0.000000 0.000000 0.040705 0.000000 -0.009634
# 5 -0.001129 -0.001422 -0.006065 0.000000 0.024673 0.000000
# 6 0.000000 0.000000 0.000000 -0.009634 0.000000 0.027278
#
#
# Mechanical properties :
#
#
# Convention : Reuss Voigt Hill
#
# Bulk Modulus (GPa) = 35.33218 49.94742 42.63980
# Shear Modulus (GPa) = 34.58973 46.43860 40.51417
#
# Velocity S-wave (km/s) = 3.67657 4.25999 3.97899
# Velocity P-wave (km/s) = 5.64182 6.61176 6.14596
#
# Compressibility (1/GPa) = 0.02830281
#
# Stress axis : x y z
#
# Youngs Moduli (GPa) = 52.28816 209.04740 87.15531
#
# Poissons Ratio (x) = -0.11736 0.33080
# Poissons Ratio (y) = -0.02935 0.02663
# Poissons Ratio (z) = 0.19846 0.06388
#
# Static dielectric constant tensor:
#      x y z
#    x 2.120430 0.000000 -0.057120 
#    y 0.000000 2.130770 0.000000 
#    z -0.057120 0.000000 2.007890 
# 
# From -- ./inp_files/73040.got.cif
#   From: 2010.05.17/outbox.cif.g08.bks.cpg/sg15_37_cif.got.tgz:73040.got - 2010.06.03 18:47:42.
