data_PCOD9275808
_publ_section_title
;
Structure prediction by ZEFSAII (Michael W. Deem and Ramdas Pophale) SiO2 
 PCOD9275808
Probable space group: C 2/C
;
_chemical_formula_sum "Si O2"
_cell_formula_units_Z 60
_cell_length_a 18.208838
_cell_length_b 6.349859
_cell_length_c 23.170349
_cell_angle_alpha 90.000000
_cell_angle_beta 69.327715
_cell_angle_gamma 90.000000
_cell_volume 2506.547969
_symmetry_space_group_name_H-M "C 2/C"
_symmetry_group_IT_number 15
_symmetry_cell_setting 'monoclinic'
loop_
_space_group_symop_operation_xyz
x,y,z
-x,y,1/2-z
-x,-y,-z
x,-y,1/2+z
1/2+x,1/2+y,z
1/2-x,1/2+y,1/2-z
1/2-x,1/2-y,-z
1/2+x,1/2-y,1/2+z
loop_
_atom_site_type_symbol
_atom_site_label
_atom_site_fract_x
_atom_site_fract_y
_atom_site_fract_z
Si Si1 0.154936 0.202417 0.524753
Si Si2 0.000000 0.265555 0.250000
Si Si3 0.432692 0.958693 0.385277
Si Si4 0.639861 0.993737 0.927112
Si Si5 0.223453 0.199997 0.332289
Si Si6 0.729599 0.183435 0.613386
Si Si7 0.056115 0.170447 0.012198
Si Si8 0.839020 0.956525 0.768509
O O1 0.250000 0.250000 0.500000
O O2 0.098785 0.304192 0.590881
O O3 0.124203 0.334176 0.478826
O O4 0.128253 0.965159 0.519307
O O5 0.022257 0.409153 0.187488
O O6 0.071405 0.110011 0.247416
O O7 0.348021 0.851602 0.400195
O O8 0.470620 0.829278 0.428778
O O9 0.717052 0.865996 0.926451
O O10 0.662898 0.111347 0.862778
O O11 0.577154 0.813170 0.950787
O O12 0.190389 0.072571 0.288034
O O13 0.306777 0.316690 0.298634
O O14 0.230772 0.039547 0.383399
O O15 0.705141 0.278085 0.682041
O O16 0.000000 0.000000 0.000000
#
# Coordination Sequence:
#
# PCOD9275808 Si02
#       8
#     8   4   8   8   8   8   8   8
#     4  11  22  41  69  97 124 171 227 287 341 404
#     4  10  24  44  62  94 142 182 214 282 348 428
#     4  10  23  42  65  94 138 178 228 279 353 424
#     4  10  22  36  64  95 122 164 221 278 340 396
#     4  11  20  38  66  94 127 169 227 282 337 415
#     4  10  20  39  64  97 129 166 222 287 340 401
#     4  11  25  43  62  95 136 176 222 287 346 411
#     4  10  22  39  62  93 130 176 225 279 336 412
#
# _framework density 23.937303
#
# number of rings (size 3 to 8) (size 9 to 14) (size 15 to 20)
#    0.000    1.600    1.333    3.200    0.000    9.600 
#    0.000    6.000    0.000    1.600    0.000    0.000 
#    0.000    0.000    0.000    0.000    0.000    0.000 
#
# Total GULP energy -167385.350565 kJ/mol
# GULP energy per Si atom -5579.511685 kJ/mol
# Density = 2.388282 g / cm^3
# Si number density = 23.937303 Si / 1000 Ang^3
#
#
#
# Elastic Constant Matrix: (Units=GPa)
#
#
# Indices 1 2 3 4 5 6 
#
# 1 78.9840 28.9464 23.0898 0.0001 -3.6710 0.0001
# 2 28.9464 108.6667 40.8157 -0.0001 -6.9132 0.0005
# 3 23.0898 40.8157 80.2370 0.0000 -8.1957 0.0002
# 4 0.0001 -0.0001 0.0000 38.8760 0.0001 -5.6997
# 5 -3.6710 -6.9132 -8.1957 0.0001 31.3238 0.0001
# 6 0.0001 0.0005 0.0002 -5.6997 0.0001 41.1465
#
#
#
# Elastic Compliance Matrix: (Units=1/GPa)
#
#
# Indices 1 2 3 4 5 6 
#
# 1 0.014502 -0.002826 -0.002698 0.000000 0.000370 0.000000
# 2 -0.002826 0.011959 -0.005173 0.000000 0.000955 0.000000
# 3 -0.002698 -0.005173 0.016153 0.000000 0.002769 0.000000
# 4 0.000000 0.000000 0.000000 0.026256 0.000000 0.003637
# 5 0.000370 0.000955 0.002769 0.000000 0.032903 0.000000
# 6 0.000000 0.000000 0.000000 0.003637 0.000000 0.024807
#
#
# Mechanical properties :
#
#
# Convention : Reuss Voigt Hill
#
# Bulk Modulus (GPa) = 47.12215 50.39907 48.76061
# Shear Modulus (GPa) = 32.24801 33.93830 33.09316
#
# Velocity S-wave (km/s) = 3.67439 3.76945 3.72222
# Velocity P-wave (km/s) = 6.14246 6.32814 6.23599
#
# Compressibility (1/GPa) = 0.02122144
#
# Stress axis : x y z
#
# Youngs Moduli (GPa) = 68.95381 83.62002 61.90630
#
# Poissons Ratio (x) = 0.23633 0.16702
# Poissons Ratio (y) = 0.19488 0.32021
# Poissons Ratio (z) = 0.18603 0.43252
#
# Static dielectric constant tensor:
#      x y z
#    x 1.984480 0.000000 -0.034150 
#    y 0.000000 1.905990 0.000000 
#    z -0.034150 0.000000 1.963950 
# 
# From -- ./inp_files/300094.got.cif
#   From: 2010.05.17/outbox.cif.g08.bks.cpg/sg15_151_cif.got.tgz:300094.got - 2010.06.03 18:47:42.
