data_PCOD9275913
_publ_section_title
;
Structure prediction by ZEFSAII (Michael W. Deem and Ramdas Pophale) SiO2 
 PCOD9275913
Probable space group: C 2/C
;
_chemical_formula_sum "Si O2"
_cell_formula_units_Z 48
_cell_length_a 28.228236
_cell_length_b 5.284612
_cell_length_c 17.463419
_cell_angle_alpha 90.000000
_cell_angle_beta 56.605952
_cell_angle_gamma 90.000000
_cell_volume 2175.019751
_symmetry_space_group_name_H-M "C 2/C"
_symmetry_group_IT_number 15
_symmetry_cell_setting 'monoclinic'
loop_
_space_group_symop_operation_xyz
x,y,z
-x,y,1/2-z
-x,-y,-z
x,-y,1/2+z
1/2+x,1/2+y,z
1/2-x,1/2+y,1/2-z
1/2-x,1/2-y,-z
1/2+x,1/2-y,1/2+z
loop_
_atom_site_type_symbol
_atom_site_label
_atom_site_fract_x
_atom_site_fract_y
_atom_site_fract_z
Si Si1 0.640701 0.927267 0.448540
Si Si2 0.375579 0.743059 0.684302
Si Si3 0.564535 0.753172 0.714787
Si Si4 0.556678 0.471949 0.997617
Si Si5 0.252189 0.794978 0.798371
Si Si6 0.096158 0.235156 0.102677
O O1 0.581845 0.777543 0.515349
O O2 0.697455 0.761772 0.398318
O O3 0.631220 0.035419 0.371886
O O4 0.646856 0.150939 0.505365
O O5 0.423378 0.764230 0.705567
O O6 0.394226 0.523263 0.609479
O O7 0.314012 0.736272 0.778604
O O8 0.500000 0.691664 0.750000
O O9 0.601601 0.520997 0.646715
O O10 0.578070 0.032666 0.671621
O O11 0.500000 0.500000 0.000000
O O12 0.553383 0.667303 0.070892
O O13 0.250124 0.579903 0.732711
#
# Coordination Sequence:
#
# PCOD9275913 Si02
#       6
#     8   8   8   8   8   8
#     4  10  22  42  68  95 129 168 219 275 320 375
#     4  10  24  38  67  98 125 171 223 263 319 384
#     4  12  26  43  63  92 137 174 210 261 326 395
#     4  11  22  40  69  98 128 168 221 269 323 384
#     4  10  20  39  65  96 126 162 217 279 316 367
#     4  11  25  43  62  91 133 172 207 263 328 383
#
# _framework density 22.068764000000002
#
# number of rings (size 3 to 8) (size 9 to 14) (size 15 to 20)
#    0.000    1.333    3.333    1.500    4.667    1.333 
#    0.000    1.667    0.000    0.000    0.000    0.000 
#    0.000    0.000    0.000    0.000    0.000    0.000 
#
# Total GULP energy -133677.596624 kJ/mol
# GULP energy per Si atom -5569.899859 kJ/mol
# Density = 2.201853 g / cm^3
# Si number density = 22.068764 Si / 1000 Ang^3
#
#
#
# Elastic Constant Matrix: (Units=GPa)
#
#
# Indices 1 2 3 4 5 6 
#
# 1 55.9724 -3.8375 6.5442 0.0092 -7.5671 0.0235
# 2 -3.8375 99.3858 22.9702 0.0219 2.0370 0.0736
# 3 6.5442 22.9702 59.4407 0.0003 14.1972 0.0152
# 4 0.0092 0.0219 0.0003 26.1000 0.0001 -1.5199
# 5 -7.5671 2.0370 14.1972 0.0001 36.6875 0.0069
# 6 0.0235 0.0736 0.0152 -1.5199 0.0069 16.1157
#
#
#
# Elastic Compliance Matrix: (Units=1/GPa)
#
#
# Indices 1 2 3 4 5 6 
#
# 1 0.019174 0.001555 -0.004006 -0.000010 0.005419 -0.000035
# 2 0.001555 0.011219 -0.004886 -0.000013 0.001589 -0.000051
# 3 -0.004006 -0.004886 0.021249 0.000006 -0.008778 0.000012
# 4 -0.000010 -0.000013 0.000006 0.038526 -0.000004 0.003634
# 5 0.005419 0.001589 -0.008778 -0.000004 0.031683 -0.000021
# 6 -0.000035 -0.000051 0.000012 0.003634 -0.000021 0.062394
#
#
# Mechanical properties :
#
#
# Convention : Reuss Voigt Hill
#
# Bulk Modulus (GPa) = 27.05071 29.57251 28.31161
# Shear Modulus (GPa) = 23.66965 28.38879 26.02922
#
# Velocity S-wave (km/s) = 3.27852 3.59050 3.43805
# Velocity P-wave (km/s) = 5.15904 5.53337 5.34948
#
# Compressibility (1/GPa) = 0.03696761
#
# Stress axis : x y z
#
# Youngs Moduli (GPa) = 52.15525 89.13789 47.06047
#
# Poissons Ratio (x) = -0.13863 0.18853
# Poissons Ratio (y) = -0.08111 0.22993
# Poissons Ratio (z) = 0.20894 0.43552
#
# Static dielectric constant tensor:
#      x y z
#    x 1.776060 0.000000 -0.072370 
#    y 0.000000 1.884910 0.000000 
#    z -0.072370 0.000000 1.923670 
# 
# From -- ./inp_files/217758.got.cif
#   From: 2010.05.17/outbox.cif.g08.bks.cpg/sg15_109_cif.got.tgz:217758.got - 2010.06.03 18:47:42.
