data_PCOD9275459
_publ_section_title
;
Structure prediction by ZEFSAII (Michael W. Deem and Ramdas Pophale) SiO2 
 PCOD9275459
Probable space group: C 2/C
;
_chemical_formula_sum "Si O2"
_cell_formula_units_Z 56
_cell_length_a 19.513861
_cell_length_b 7.296243
_cell_length_c 19.383390
_cell_angle_alpha 90.000000
_cell_angle_beta 62.436703
_cell_angle_gamma 90.000000
_cell_volume 2446.532890
_symmetry_space_group_name_H-M "C 2/C"
_symmetry_group_IT_number 15
_symmetry_cell_setting 'monoclinic'
loop_
_space_group_symop_operation_xyz
x,y,z
-x,y,1/2-z
-x,-y,-z
x,-y,1/2+z
1/2+x,1/2+y,z
1/2-x,1/2+y,1/2-z
1/2-x,1/2-y,-z
1/2+x,1/2-y,1/2+z
loop_
_atom_site_type_symbol
_atom_site_label
_atom_site_fract_x
_atom_site_fract_y
_atom_site_fract_z
Si Si1 0.354142 0.234123 0.151898
Si Si2 0.301475 0.615572 0.427196
Si Si3 0.948103 0.268253 0.420526
Si Si4 0.817213 0.728180 0.765044
Si Si5 0.050351 0.451104 0.788923
Si Si6 0.598720 0.605947 0.407953
Si Si7 0.659820 0.064947 0.954415
O O1 0.270925 0.292346 0.220186
O O2 0.426683 0.206223 0.168161
O O3 0.377963 0.397431 0.090127
O O4 0.341982 0.041603 0.118539
O O5 0.250000 0.750000 0.500000
O O6 0.387076 0.626070 0.417310
O O7 0.309609 0.680854 0.344028
O O8 0.245059 0.441992 0.447023
O O9 0.899829 0.436203 0.476546
O O10 0.998784 0.380384 0.340971
O O11 0.010297 0.164251 0.438424
O O12 0.865237 0.543843 0.760312
O O13 0.861392 0.839660 0.684568
O O14 0.000000 0.375347 0.750000
O O15 0.631758 0.733347 0.452448
#
# Coordination Sequence:
#
# PCOD9275459 Si02
#       7
#     8   8   8   8   8   8   8
#     4  11  23  39  59  91 122 158 210 252 312 377
#     4   9  19  36  64  87 117 164 201 247 313 371
#     4  10  20  39  62  89 124 160 202 255 315 378
#     4  10  20  39  62  85 123 159 207 260 305 379
#     4  11  21  39  63  91 125 167 206 266 325 367
#     4  11  23  36  62  91 116 161 206 255 309 365
#     4  10  21  40  63  88 120 163 204 251 314 372
#
# _framework density 22.889534000000001
#
# number of rings (size 3 to 8) (size 9 to 14) (size 15 to 20)
#    0.000    1.714    4.286    1.286    2.000    0.571 
#    2.571    0.000    0.000    7.714    0.000    0.000 
#    0.000    0.000    0.000    0.000    0.000    0.000 
#
# Total GULP energy -156227.933415 kJ/mol
# GULP energy per Si atom -5579.569051 kJ/mol
# Density = 2.283744 g / cm^3
# Si number density = 22.889534 Si / 1000 Ang^3
#
#
#
# Elastic Constant Matrix: (Units=GPa)
#
#
# Indices 1 2 3 4 5 6 
#
# 1 170.1243 38.3179 13.7832 0.0000 -14.3773 0.0000
# 2 38.3179 69.8683 -11.8512 0.0002 -6.4606 0.0002
# 3 13.7832 -11.8512 66.8417 0.0001 -13.9739 0.0002
# 4 0.0000 0.0002 0.0001 17.4002 0.0000 7.9827
# 5 -14.3773 -6.4606 -13.9739 0.0000 34.4461 0.0000
# 6 0.0000 0.0002 0.0002 7.9827 0.0000 20.2608
#
#
#
# Elastic Compliance Matrix: (Units=1/GPa)
#
#
# Indices 1 2 3 4 5 6 
#
# 1 0.007066 -0.004062 -0.001879 0.000000 0.001425 0.000000
# 2 -0.004062 0.017665 0.004707 0.000000 0.003527 0.000000
# 3 -0.001879 0.004707 0.017705 0.000000 0.007281 0.000000
# 4 0.000000 0.000000 0.000000 0.070151 0.000000 -0.027639
# 5 0.001425 0.003527 0.007281 0.000000 0.033241 0.000000
# 6 0.000000 0.000000 0.000000 -0.027639 0.000000 0.060246
#
#
# Mechanical properties :
#
#
# Convention : Reuss Voigt Hill
#
# Bulk Modulus (GPa) = 25.02063 43.03713 34.02888
# Shear Modulus (GPa) = 22.53634 32.19373 27.36503
#
# Velocity S-wave (km/s) = 3.14119 3.75438 3.46139
# Velocity P-wave (km/s) = 4.91028 6.13488 5.55642
#
# Compressibility (1/GPa) = 0.03996702
#
# Stress axis : x y z
#
# Youngs Moduli (GPa) = 141.53007 56.60924 56.48134
#
# Poissons Ratio (x) = 0.22995 0.10615
# Poissons Ratio (y) = 0.57490 -0.26586
# Poissons Ratio (z) = 0.26598 -0.26646
#
# Static dielectric constant tensor:
#      x y z
#    x 1.878930 0.000000 0.019840 
#    y 0.000000 1.847600 0.000000 
#    z 0.019840 0.000000 1.950250 
# 
# From -- ./inp_files/247364.got.cif
#   From: 2010.05.17/outbox.cif.g08.bks.cpg/sg15_124_cif.got.tgz:247364.got - 2010.06.03 18:47:42.
