data_PCOD9275950
_publ_section_title
;
Structure prediction by ZEFSAII (Michael W. Deem and Ramdas Pophale) SiO2 
 PCOD9275950
Probable space group: C 2/C
;
_chemical_formula_sum "Si O2"
_cell_formula_units_Z 28
_cell_length_a 7.100177
_cell_length_b 13.602543
_cell_length_c 16.271477
_cell_angle_alpha 90.000000
_cell_angle_beta 122.925346
_cell_angle_gamma 90.000000
_cell_volume 1319.090573
_symmetry_space_group_name_H-M "C 2/C"
_symmetry_group_IT_number 15
_symmetry_cell_setting 'monoclinic'
loop_
_space_group_symop_operation_xyz
x,y,z
-x,y,1/2-z
-x,-y,-z
x,-y,1/2+z
1/2+x,1/2+y,z
1/2-x,1/2+y,1/2-z
1/2-x,1/2-y,-z
1/2+x,1/2-y,1/2+z
loop_
_atom_site_type_symbol
_atom_site_label
_atom_site_fract_x
_atom_site_fract_y
_atom_site_fract_z
Si Si1 0.578375 0.652443 0.904803
Si Si2 0.011099 0.228096 0.056005
Si Si3 0.816068 0.339680 0.771817
Si Si4 0.000000 0.995246 0.750000
O O1 0.428359 0.747860 0.844426
O O2 0.498050 0.563214 0.830049
O O3 0.831308 0.682231 0.938432
O O4 0.555714 0.644852 0.997193
O O5 0.110206 0.198717 0.167386
O O6 0.750000 0.250000 0.000000
O O7 0.718994 0.426528 0.803099
O O8 0.000000 0.376066 0.750000
#
# Coordination Sequence:
#
# PCOD9275950 Si02
#       4
#     8   8   8   4
#     4  10  22  42  62  91 130 158 207 264 301 366
#     4  10  20  39  66  90 125 166 202 259 311 360
#     4  10  22  42  60  94 126 159 215 255 301 384
#     4  12  22  40  70  88 124 174 200 254 322 356
#
# _framework density 21.226745000000001
#
# number of rings (size 3 to 8) (size 9 to 14) (size 15 to 20)
#    0.000    1.714    4.286    1.714    0.000    3.429 
#    2.571   20.000    0.000    0.000    0.000    0.000 
#    0.000    0.000    0.000    0.000    0.000    0.000 
#
# Total GULP energy -78215.051146 kJ/mol
# GULP energy per Si atom -5586.789368 kJ/mol
# Density = 2.117843 g / cm^3
# Si number density = 21.226745 Si / 1000 Ang^3
#
#
#
# Elastic Constant Matrix: (Units=GPa)
#
#
# Indices 1 2 3 4 5 6 
#
# 1 73.8542 34.7605 17.4206 0.0000 29.5602 0.0000
# 2 34.7605 79.8538 14.6953 0.0000 10.1281 0.0000
# 3 17.4206 14.6953 105.5030 0.0000 15.8217 0.0000
# 4 0.0000 0.0000 0.0000 3.0356 0.0000 5.5984
# 5 29.5602 10.1281 15.8217 0.0000 42.6140 0.0000
# 6 0.0000 0.0000 0.0000 5.5984 0.0000 24.5437
#
#
#
# Elastic Compliance Matrix: (Units=1/GPa)
#
#
# Indices 1 2 3 4 5 6 
#
# 1 0.023067 -0.008177 -0.000595 0.000000 -0.013837 0.000000
# 2 -0.008177 0.016014 -0.001229 0.000000 0.002322 0.000000
# 3 -0.000595 -0.001229 0.010211 0.000000 -0.003086 0.000000
# 4 0.000000 0.000000 0.000000 0.568628 0.000000 -0.129705
# 5 -0.013837 0.002322 -0.003086 0.000000 0.033659 0.000000
# 6 0.000000 0.000000 0.000000 -0.129705 0.000000 0.070329
#
#
# Mechanical properties :
#
#
# Convention : Reuss Voigt Hill
#
# Bulk Modulus (GPa) = 34.14001 43.66262 38.90132
# Shear Modulus (GPa) = 6.65184 26.86097 16.75640
#
# Velocity S-wave (km/s) = 1.77215 3.56115 2.81268
# Velocity P-wave (km/s) = 4.50619 6.12563 5.37722
#
# Compressibility (1/GPa) = 0.02929114
#
# Stress axis : x y z
#
# Youngs Moduli (GPa) = 43.35151 62.44609 97.93740
#
# Poissons Ratio (x) = 0.51061 0.05826
# Poissons Ratio (y) = 0.35447 0.12033
# Poissons Ratio (z) = 0.02579 0.07672
#
# Static dielectric constant tensor:
#      x y z
#    x 1.774470 0.000000 -0.013790 
#    y 0.000000 1.774940 0.000000 
#    z -0.013790 0.000000 1.798130 
# 
# From -- ./inp_files/229692.got.cif
#   From: 2010.05.17/outbox.cif.g08.bks.cpg/sg15_115_cif.got.tgz:229692.got - 2010.06.03 18:47:42.
