data_PCOD9275028
_publ_section_title
;
Structure prediction by ZEFSAII (Michael W. Deem and Ramdas Pophale) SiO2 
 PCOD9275028
Probable space group: C 2/C
;
_chemical_formula_sum "Si O2"
_cell_formula_units_Z 44
_cell_length_a 21.905994
_cell_length_b 11.214683
_cell_length_c 11.122527
_cell_angle_alpha 90.000000
_cell_angle_beta 42.326893
_cell_angle_gamma 90.000000
_cell_volume 1839.926574
_symmetry_space_group_name_H-M "C 2/C"
_symmetry_group_IT_number 15
_symmetry_cell_setting 'monoclinic'
loop_
_space_group_symop_operation_xyz
x,y,z
-x,y,1/2-z
-x,-y,-z
x,-y,1/2+z
1/2+x,1/2+y,z
1/2-x,1/2+y,1/2-z
1/2-x,1/2-y,-z
1/2+x,1/2-y,1/2+z
loop_
_atom_site_type_symbol
_atom_site_label
_atom_site_fract_x
_atom_site_fract_y
_atom_site_fract_z
Si Si1 0.682803 0.564328 0.999742
Si Si2 0.500000 0.571563 0.750000
Si Si3 0.231293 0.921790 0.172829
Si Si4 0.913652 0.284785 0.288239
Si Si5 0.087588 0.442127 0.707624
Si Si6 0.447490 0.725596 0.598920
O O1 0.585449 0.511680 0.100833
O O2 0.703428 0.507312 0.100781
O O3 0.666925 0.705238 0.042317
O O4 0.742875 0.533885 0.794178
O O5 0.471178 0.656201 0.684683
O O6 0.148449 0.828268 0.303185
O O7 0.329242 0.878931 0.983782
O O8 0.887648 0.420809 0.300351
O O9 0.000000 0.293647 0.250000
O O10 0.961362 0.214165 0.110937
O O11 0.066921 0.365201 0.855047
O O12 0.000000 0.440483 0.750000
#
# Coordination Sequence:
#
# PCOD9275028 Si02
#       6
#     8   4   8   8   8   8
#     4  11  22  44  69 107 138 185 235 298 353 415
#     4  10  20  38  68 100 130 176 228 286 354 414
#     4  11  25  43  72 102 144 183 244 295 347 427
#     4  11  22  40  70  98 138 182 230 289 355 421
#     4  11  26  46  66 101 141 193 229 293 364 429
#     4  11  21  43  70  99 135 183 236 291 350 422
#
# _framework density 23.913997999999999
#
# number of rings (size 3 to 8) (size 9 to 14) (size 15 to 20)
#    0.000    1.091    3.636    2.182    0.000    8.000 
#    6.545    0.000    0.000    0.000    0.000    0.000 
#    0.000    0.000    0.000    0.000    0.000    0.000 
#
# Total GULP energy -122895.865957 kJ/mol
# GULP energy per Si atom -5586.175725 kJ/mol
# Density = 2.385957 g / cm^3
# Si number density = 23.913998 Si / 1000 Ang^3
#
#
#
# Elastic Constant Matrix: (Units=GPa)
#
#
# Indices 1 2 3 4 5 6 
#
# 1 85.0032 39.3207 30.7881 0.0000 3.0619 0.0000
# 2 39.3207 85.5890 -11.8468 0.0000 7.1726 0.0000
# 3 30.7881 -11.8468 99.5868 0.0000 6.7867 0.0000
# 4 0.0000 0.0000 0.0000 23.8233 0.0000 -3.7790
# 5 3.0619 7.1726 6.7867 0.0000 38.7626 0.0000
# 6 0.0000 0.0000 0.0000 -3.7790 0.0000 30.1769
#
#
#
# Elastic Compliance Matrix: (Units=1/GPa)
#
#
# Indices 1 2 3 4 5 6 
#
# 1 0.018769 -0.009731 -0.007066 0.000000 0.001555 0.000000
# 2 -0.009731 0.017164 0.005277 0.000000 -0.003331 0.000000
# 3 -0.007066 0.005277 0.013038 0.000000 -0.002701 0.000000
# 4 0.000000 0.000000 0.000000 0.042826 0.000000 0.005363
# 5 0.001555 -0.003331 -0.002701 0.000000 0.026765 0.000000
# 6 0.000000 0.000000 0.000000 0.005363 0.000000 0.033809
#
#
# Mechanical properties :
#
#
# Convention : Reuss Voigt Hill
#
# Bulk Modulus (GPa) = 38.56406 42.96702 40.76554
# Shear Modulus (GPa) = 27.16578 32.68038 29.92308
#
# Velocity S-wave (km/s) = 3.37408 3.70074 3.54118
# Velocity P-wave (km/s) = 5.59825 6.02220 5.81409
#
# Compressibility (1/GPa) = 0.02593088
#
# Stress axis : x y z
#
# Youngs Moduli (GPa) = 53.27923 58.26149 76.69930
#
# Poissons Ratio (x) = 0.56695 0.54197
# Poissons Ratio (y) = 0.51847 -0.40477
# Poissons Ratio (z) = 0.37648 -0.30746
#
# Static dielectric constant tensor:
#      x y z
#    x 1.916040 0.000000 -0.002380 
#    y 0.000000 1.926990 0.000000 
#    z -0.002380 0.000000 1.809740 
# 
# From -- ./inp_files/95000.got.cif
#   From: 2010.05.17/outbox.cif.g08.bks.cpg/sg15_48_cif.got.tgz:95000.got - 2010.06.03 18:47:42.
