data_PCOD9275327
_publ_section_title
;
Structure prediction by ZEFSAII (Michael W. Deem and Ramdas Pophale) SiO2 
 PCOD9275327
Probable space group: C 2/C
;
_chemical_formula_sum "Si O2"
_cell_formula_units_Z 56
_cell_length_a 11.614004
_cell_length_b 15.402292
_cell_length_c 18.447936
_cell_angle_alpha 90.000000
_cell_angle_beta 69.000425
_cell_angle_gamma 90.000000
_cell_volume 3080.832460
_symmetry_space_group_name_H-M "C 2/C"
_symmetry_group_IT_number 15
_symmetry_cell_setting 'monoclinic'
loop_
_space_group_symop_operation_xyz
x,y,z
-x,y,1/2-z
-x,-y,-z
x,-y,1/2+z
1/2+x,1/2+y,z
1/2-x,1/2+y,1/2-z
1/2-x,1/2-y,-z
1/2+x,1/2-y,1/2+z
loop_
_atom_site_type_symbol
_atom_site_label
_atom_site_fract_x
_atom_site_fract_y
_atom_site_fract_z
Si Si1 0.390575 0.502201 0.083299
Si Si2 0.623035 0.598029 0.766730
Si Si3 0.811755 0.262925 0.409544
Si Si4 0.789846 0.281776 0.715835
Si Si5 0.859511 0.515679 0.205748
Si Si6 0.540496 0.351440 0.818902
Si Si7 0.123449 0.461366 0.130004
O O1 0.393315 0.426196 0.143937
O O2 0.407652 0.583983 0.132738
O O3 0.255718 0.501046 0.075529
O O4 0.500000 0.500000 0.000000
O O5 0.500000 0.580147 0.750000
O O6 0.648425 0.701241 0.757617
O O7 0.737364 0.539078 0.710642
O O8 0.750000 0.250000 0.500000
O O9 0.716103 0.241293 0.367418
O O10 0.864169 0.359325 0.386530
O O11 0.922762 0.195942 0.376662
O O12 0.838371 0.380408 0.712494
O O13 0.648269 0.284721 0.774424
O O14 0.873654 0.482789 0.285100
O O15 0.988523 0.494858 0.136017
O O16 0.500000 0.390756 0.750000
#
# Coordination Sequence:
#
# PCOD9275327 Si02
#       7
#     8   8   8   8   8   8   8
#     4  11  21  38  61  89 126 159 198 251 315 372
#     4  11  23  38  61  92 121 155 210 257 307 360
#     4  11  22  37  61  90 121 160 208 261 310 366
#     4  11  21  38  60  90 119 161 207 254 305 370
#     4  10  21  38  61  88 119 155 205 252 302 359
#     4  10  21  34  61  88 120 154 212 251 303 362
#     4  10  20  39  60  86 119 157 201 249 304 363
#
# _framework density 18.176905000000001
#
# number of rings (size 3 to 8) (size 9 to 14) (size 15 to 20)
#    0.000    1.429    5.714    2.143    8.000    0.000 
#    0.000    0.714    3.143    1.714    0.000    0.000 
#    0.000    0.000    0.000    0.000    0.000    0.000 
#
# Total GULP energy -155964.621908 kJ/mol
# GULP energy per Si atom -5570.165068 kJ/mol
# Density = 1.813553 g / cm^3
# Si number density = 18.176905 Si / 1000 Ang^3
#
#
#
# Elastic Constant Matrix: (Units=GPa)
#
#
# Indices 1 2 3 4 5 6 
#
# 1 122.7537 52.8227 28.5925 0.0000 -23.8673 0.0000
# 2 52.8227 137.7156 27.4929 0.0000 -10.5526 0.0000
# 3 28.5925 27.4929 92.5932 0.0000 -17.7851 0.0000
# 4 0.0000 0.0000 0.0000 -9.9011 0.0000 -12.4676
# 5 -23.8673 -10.5526 -17.7851 0.0000 22.4231 0.0000
# 6 0.0000 0.0000 0.0000 -12.4676 0.0000 9.2906
#
#
#
# Elastic Compliance Matrix: (Units=1/GPa)
#
#
# Indices 1 2 3 4 5 6 
#
# 1 0.011885 -0.003641 -0.000576 0.000000 0.010480 0.000000
# 2 -0.003641 0.008922 -0.001726 0.000000 -0.001045 0.000000
# 3 -0.000576 -0.001726 0.013232 0.000000 0.009070 0.000000
# 4 0.000000 0.000000 0.000000 -0.037549 0.000000 -0.050389
# 5 0.010480 -0.001045 0.009070 0.000000 0.062454 0.000000
# 6 0.000000 0.000000 0.000000 -0.050389 0.000000 0.040016
#
#
# Mechanical properties :
#
#
# Convention : Reuss Voigt Hill
#
# Bulk Modulus (GPa) = 45.13700 63.43096 54.28398
# Shear Modulus (GPa) = 42.29042 20.63950 31.46496
#
# Velocity S-wave (km/s) = 4.82872 3.37334 4.16509
# Velocity P-wave (km/s) = 7.48162 7.08130 7.28421
#
# Compressibility (1/GPa) = 0.02215477
#
# Stress axis : x y z
#
# Youngs Moduli (GPa) = 84.14105 112.08047 75.57234
#
# Poissons Ratio (x) = 0.40803 0.04353
# Poissons Ratio (y) = 0.30632 0.13041
# Poissons Ratio (z) = 0.04847 0.19342
#
# Static dielectric constant tensor:
#      x y z
#    x 1.661800 0.000000 -0.048400 
#    y 0.000000 1.649950 0.000000 
#    z -0.048400 0.000000 1.575430 
# 
# From -- ./inp_files/198211.got.cif
#   From: 2010.05.17/outbox.cif.g08.bks.cpg/sg15_100_cif.got.tgz:198211.got - 2010.06.03 18:47:42.
