data_PCOD9275612
_publ_section_title
;
Structure prediction by ZEFSAII (Michael W. Deem and Ramdas Pophale) SiO2 
 PCOD9275612
Probable space group: C 2/C
;
_chemical_formula_sum "Si O2"
_cell_formula_units_Z 64
_cell_length_a 28.944215
_cell_length_b 17.193412
_cell_length_c 12.336410
_cell_angle_alpha 90.000000
_cell_angle_beta 33.250424
_cell_angle_gamma 90.000000
_cell_volume 3366.126442
_symmetry_space_group_name_H-M "C 2/C"
_symmetry_group_IT_number 15
_symmetry_cell_setting 'monoclinic'
loop_
_space_group_symop_operation_xyz
x,y,z
-x,y,1/2-z
-x,-y,-z
x,-y,1/2+z
1/2+x,1/2+y,z
1/2-x,1/2+y,1/2-z
1/2-x,1/2-y,-z
1/2+x,1/2-y,1/2+z
loop_
_atom_site_type_symbol
_atom_site_label
_atom_site_fract_x
_atom_site_fract_y
_atom_site_fract_z
Si Si1 0.619867 0.788169 0.928118
Si Si2 0.091796 0.165726 0.526475
Si Si3 0.297894 0.440281 0.073537
Si Si4 0.437669 0.209778 0.714341
Si Si5 0.725455 0.604988 0.434705
Si Si6 0.809085 0.703559 0.797901
Si Si7 0.945443 0.107234 0.131429
Si Si8 0.131378 0.892965 0.341726
O O1 0.701334 0.833232 0.728694
O O2 0.625349 0.696594 0.892775
O O3 0.606822 0.798468 0.082266
O O4 0.533949 0.816036 0.038659
O O5 0.145228 0.126656 0.517033
O O6 0.148453 0.236331 0.368834
O O7 0.073809 0.110073 0.458506
O O8 0.000000 0.191185 0.750000
O O9 0.246796 0.518794 0.153959
O O10 0.243536 0.363199 0.157385
O O11 0.336568 0.439188 0.117289
O O12 0.374888 0.437982 0.836840
O O13 0.384128 0.169962 0.725295
O O14 0.438898 0.301869 0.682122
O O15 0.695585 0.604175 0.616735
O O16 0.750000 0.750000 0.000000
O O17 0.039215 0.081961 0.980110
#
# Coordination Sequence:
#
# PCOD9275612 Si02
#       8
#     8   8   8   8   8   8   8   8
#     4  10  20  39  63  92 118 157 210 246 298 358
#     4  11  22  40  63  93 120 158 205 252 308 353
#     4  12  25  39  60  93 122 164 201 242 304 364
#     4   9  18  36  69  91 106 157 214 259 277 344
#     4  12  27  37  59  91 132 160 188 253 311 367
#     4  11  20  39  69  90 116 159 213 255 286 362
#     4  10  20  39  63  89 120 155 206 248 297 360
#     4  11  22  41  60  88 124 160 202 246 301 363
#
# _framework density 19.012951999999999
#
# number of rings (size 3 to 8) (size 9 to 14) (size 15 to 20)
#    0.000    1.250    5.000    2.250    1.750    1.500 
#    0.000    0.625    2.750    0.000    0.000    0.000 
#    0.000    0.000    0.000    0.000    0.000    0.000 
#
# Total GULP energy -178871.466948 kJ/mol
# GULP energy per Si atom -5589.733342 kJ/mol
# Density = 1.896968 g / cm^3
# Si number density = 19.012952 Si / 1000 Ang^3
#
#
#
# Elastic Constant Matrix: (Units=GPa)
#
#
# Indices 1 2 3 4 5 6 
#
# 1 86.4996 6.4112 20.4137 0.0000 3.5296 0.0000
# 2 6.4112 38.8366 7.3849 0.0000 -5.0399 0.0000
# 3 20.4137 7.3849 82.6787 0.0000 8.0025 0.0000
# 4 0.0000 0.0000 0.0000 10.9785 0.0000 -7.0925
# 5 3.5296 -5.0399 8.0025 0.0000 26.7315 0.0000
# 6 0.0000 0.0000 0.0000 -7.0925 0.0000 0.5332
#
#
#
# Elastic Compliance Matrix: (Units=1/GPa)
#
#
# Indices 1 2 3 4 5 6 
#
# 1 0.012390 -0.001656 -0.002804 0.000000 -0.001109 0.000000
# 2 -0.001656 0.027321 -0.002627 0.000000 0.006156 0.000000
# 3 -0.002804 -0.002627 0.013423 0.000000 -0.004143 0.000000
# 4 0.000000 0.000000 0.000000 -0.011996 0.000000 -0.159564
# 5 -0.001109 0.006156 -0.004143 0.000000 0.039957 0.000000
# 6 0.000000 0.000000 0.000000 -0.159564 0.000000 -0.246990
#
#
# Mechanical properties :
#
#
# Convention : Reuss Voigt Hill
#
# Bulk Modulus (GPa) = 25.66768 30.71494 28.19131
# Shear Modulus (GPa) = -36.04004 19.23565 -8.40220
#
# Velocity S-wave (km/s) = -4.35852 3.18419 -2.10447
# Velocity P-wave (km/s) = 3.43504 5.45056 2.99242
#
# Compressibility (1/GPa) = 0.03895950
#
# Stress axis : x y z
#
# Youngs Moduli (GPa) = 80.70716 36.60220 74.49874
#
# Poissons Ratio (x) = 0.06062 0.20889
# Poissons Ratio (y) = 0.13366 0.19573
# Poissons Ratio (z) = 0.22630 0.09616
#
# Static dielectric constant tensor:
#      x y z
#    x 1.677360 0.000000 -0.013940 
#    y 0.000000 1.661570 0.000000 
#    z -0.013940 0.000000 1.641040 
# 
# From -- ./inp_files/98773.got.cif
#   From: 2010.05.17/outbox.cif.g08.bks.cpg/sg15_50_cif.got.tgz:98773.got - 2010.06.03 18:47:42.
