data_PCOD9275011
_publ_section_title
;
Structure prediction by ZEFSAII (Michael W. Deem and Ramdas Pophale) SiO2 
 PCOD9275011
Probable space group: C 2/C
;
_chemical_formula_sum "Si O2"
_cell_formula_units_Z 60
_cell_length_a 17.116055
_cell_length_b 24.553656
_cell_length_c 9.661053
_cell_angle_alpha 90.000000
_cell_angle_beta 37.075217
_cell_angle_gamma 90.000000
_cell_volume 2447.726516
_symmetry_space_group_name_H-M "C 2/C"
_symmetry_group_IT_number 15
_symmetry_cell_setting 'monoclinic'
loop_
_space_group_symop_operation_xyz
x,y,z
-x,y,1/2-z
-x,-y,-z
x,-y,1/2+z
1/2+x,1/2+y,z
1/2-x,1/2+y,1/2-z
1/2-x,1/2-y,-z
1/2+x,1/2-y,1/2+z
loop_
_atom_site_type_symbol
_atom_site_label
_atom_site_fract_x
_atom_site_fract_y
_atom_site_fract_z
Si Si1 0.361160 0.183592 0.793259
Si Si2 0.630723 0.646187 0.923188
Si Si3 0.919936 0.306793 0.736560
Si Si4 0.469201 0.932916 0.146538
Si Si5 0.204612 0.469864 0.654721
Si Si6 0.641816 0.683957 0.602276
Si Si7 0.000000 0.232238 0.250000
Si Si8 0.363425 0.523037 0.646469
O O1 0.233323 0.170065 0.887243
O O2 0.469672 0.203104 0.531732
O O3 0.408637 0.124288 0.770998
O O4 0.379178 0.227209 0.890201
O O5 0.669694 0.657673 0.712002
O O6 0.614539 0.581567 0.959471
O O7 0.511768 0.687927 0.110516
O O8 0.878058 0.248854 0.861031
O O9 0.000000 0.336860 0.750000
O O10 0.788611 0.325152 0.838810
O O11 0.500000 0.960998 0.250000
O O12 0.361505 0.970871 0.232913
O O13 0.588531 0.930837 0.870765
O O14 0.311782 0.474661 0.621052
O O15 0.268129 0.466307 0.413475
O O16 0.500000 0.662645 0.750000
O O17 0.500000 0.500000 0.500000
#
# Coordination Sequence:
#
# PCOD9275011 Si02
#       8
#     8   8   8   8   8   8   4   8
#     4  12  24  45  74 108 146 200 251 316 389 462
#     4  12  27  48  70 104 148 202 256 311 390 465
#     4  10  20  38  67  96 136 183 239 305 365 439
#     4  11  23  44  76 111 152 185 252 330 397 458
#     4  11  25  48  76 114 146 195 257 330 391 467
#     4  10  22  40  64  98 141 185 243 307 366 447
#     4  12  28  46  72 110 156 204 260 314 386 478
#     4  12  28  49  78 104 153 202 259 317 396 469
#
# _framework density 24.512543000000001
#
# number of rings (size 3 to 8) (size 9 to 14) (size 15 to 20)
#    0.000    0.800    6.000    0.800    3.733    1.067 
#    2.400    0.000    0.000    0.000    0.000    0.000 
#    0.000    0.000    0.000    0.000    0.000    0.000 
#
# Total GULP energy -167182.404995 kJ/mol
# GULP energy per Si atom -5572.746833 kJ/mol
# Density = 2.445675 g / cm^3
# Si number density = 24.512543 Si / 1000 Ang^3
#
#
#
# Elastic Constant Matrix: (Units=GPa)
#
#
# Indices 1 2 3 4 5 6 
#
# 1 89.4342 2.1144 15.6365 -0.0001 -31.6440 0.0000
# 2 2.1144 86.4608 31.7142 0.0000 -18.5668 0.0000
# 3 15.6365 31.7142 87.5370 -0.0002 -15.2955 0.0000
# 4 -0.0001 0.0000 -0.0002 -180.3780 0.0001 -53.8290
# 5 -31.6440 -18.5668 -15.2955 0.0001 54.3923 0.0000
# 6 0.0000 0.0000 0.0000 -53.8290 0.0000 16.1499
#
#
#
# Elastic Compliance Matrix: (Units=1/GPa)
#
#
# Indices 1 2 3 4 5 6 
#
# 1 0.014526 0.002195 -0.001874 0.000000 0.008673 0.000000
# 2 0.002195 0.014280 -0.004723 0.000000 0.004823 0.000000
# 3 -0.001874 -0.004723 0.013669 0.000000 0.001141 0.000000
# 4 0.000000 0.000000 0.000000 -0.002779 0.000000 -0.009264
# 5 0.008673 0.004823 0.001141 0.000000 0.025398 0.000000
# 6 0.000000 0.000000 0.000000 -0.009264 0.000000 0.031043
#
#
# Mechanical properties :
#
#
# Convention : Reuss Voigt Hill
#
# Bulk Modulus (GPa) = 29.69992 40.26246 34.98119
# Shear Modulus (GPa) = 43.04208 -7.70270 17.66969
#
# Velocity S-wave (km/s) = 4.19492 -1.77459 2.68776
# Velocity P-wave (km/s) = 5.96704 3.50172 4.89222
#
# Compressibility (1/GPa) = 0.03367012
#
# Stress axis : x y z
#
# Youngs Moduli (GPa) = 68.84247 70.02585 73.15789
#
# Poissons Ratio (x) = -0.15369 0.13713
# Poissons Ratio (y) = -0.15109 0.34552
# Poissons Ratio (z) = 0.12904 0.33073
#
# Static dielectric constant tensor:
#      x y z
#    x 2.123760 0.000000 -0.122190 
#    y 0.000000 1.998250 0.000000 
#    z -0.122190 0.000000 2.155480 
# 
# From -- ./inp_files/108400.got.cif
#   From: 2010.05.17/outbox.cif.g08.bks.cpg/sg15_55_cif.got.tgz:108400.got - 2010.06.03 18:47:42.
