data_PCOD9275735
_publ_section_title
;
Structure prediction by ZEFSAII (Michael W. Deem and Ramdas Pophale) SiO2 
 PCOD9275735
Probable space group: C 2/C
;
_chemical_formula_sum "Si O2"
_cell_formula_units_Z 48
_cell_length_a 8.920583
_cell_length_b 15.656964
_cell_length_c 19.654553
_cell_angle_alpha 90.000000
_cell_angle_beta 126.049363
_cell_angle_gamma 90.000000
_cell_volume 2219.471200
_symmetry_space_group_name_H-M "C 2/C"
_symmetry_group_IT_number 15
_symmetry_cell_setting 'monoclinic'
loop_
_space_group_symop_operation_xyz
x,y,z
-x,y,1/2-z
-x,-y,-z
x,-y,1/2+z
1/2+x,1/2+y,z
1/2-x,1/2+y,1/2-z
1/2-x,1/2-y,-z
1/2+x,1/2-y,1/2+z
loop_
_atom_site_type_symbol
_atom_site_label
_atom_site_fract_x
_atom_site_fract_y
_atom_site_fract_z
Si Si1 0.277619 0.764422 0.709925
Si Si2 0.318494 0.428062 0.249603
Si Si3 0.483014 0.569562 0.936038
Si Si4 0.658622 0.155620 0.481535
Si Si5 0.578110 0.077377 0.196038
Si Si6 0.942136 0.761727 0.513532
O O1 0.500000 0.763962 0.750000
O O2 0.251905 0.670033 0.732878
O O3 0.269463 0.847255 0.755553
O O4 0.121059 0.775235 0.610406
O O5 0.500000 0.433341 0.250000
O O6 0.359080 0.454315 0.338673
O O7 0.162556 0.493979 0.184192
O O8 0.680149 0.592380 0.953531
O O9 0.425346 0.657751 0.957949
O O10 0.500000 0.500000 0.000000
O O11 0.750000 0.250000 0.500000
O O12 0.583882 0.118627 0.391635
O O13 0.490175 0.174553 0.486318
O O14 0.500000 0.056948 0.250000
O O15 0.750000 0.750000 0.500000
#
# Coordination Sequence:
#
# PCOD9275735 Si02
#       6
#     8   8   8   8   8   8
#     4  10  20  41  66  89 127 178 222 267 336 420
#     4  11  24  42  64  96 132 174 223 279 341 410
#     4  11  22  42  67  93 129 176 225 275 336 418
#     4  10  20  39  64  89 123 174 219 263 335 413
#     4  11  22  39  64  94 124 166 222 276 330 403
#     4  11  24  41  64  97 129 168 222 284 343 404
#
# _framework density 21.626771999999999
#
# number of rings (size 3 to 8) (size 9 to 14) (size 15 to 20)
#    0.000    1.333    0.000   10.000    0.000    5.333 
#    0.000    5.000    0.000    0.000    0.000    0.000 
#    0.000    0.000    0.000    0.000    0.000    0.000 
#
# Total GULP energy -133926.307955 kJ/mol
# GULP energy per Si atom -5580.262831 kJ/mol
# Density = 2.157755 g / cm^3
# Si number density = 21.626772 Si / 1000 Ang^3
#
#
#
# Elastic Constant Matrix: (Units=GPa)
#
#
# Indices 1 2 3 4 5 6 
#
# 1 110.2880 31.1692 13.9390 0.0000 9.9376 0.0000
# 2 31.1692 98.5865 -6.2212 0.0000 6.9599 0.0000
# 3 13.9390 -6.2212 91.7122 0.0000 8.6670 0.0000
# 4 0.0000 0.0000 0.0000 31.2229 0.0000 4.4055
# 5 9.9376 6.9599 8.6670 0.0000 19.2850 0.0000
# 6 0.0000 0.0000 0.0000 4.4055 0.0000 29.7833
#
#
#
# Elastic Compliance Matrix: (Units=1/GPa)
#
#
# Indices 1 2 3 4 5 6 
#
# 1 0.010466 -0.003147 -0.001464 0.000000 -0.003599 0.000000
# 2 -0.003147 0.011464 0.001560 0.000000 -0.003217 0.000000
# 3 -0.001464 0.001560 0.011711 0.000000 -0.005072 0.000000
# 4 0.000000 0.000000 0.000000 0.032711 0.000000 -0.004839
# 5 -0.003599 -0.003217 -0.005072 0.000000 0.057149 0.000000
# 6 0.000000 0.000000 0.000000 -0.004839 0.000000 0.034292
#
#
# Mechanical properties :
#
#
# Convention : Reuss Voigt Hill
#
# Bulk Modulus (GPa) = 36.31262 42.04006 39.17634
# Shear Modulus (GPa) = 28.88936 33.50488 31.19712
#
# Velocity S-wave (km/s) = 3.65885 3.94030 3.80218
# Velocity P-wave (km/s) = 5.88868 6.33896 6.11796
#
# Compressibility (1/GPa) = 0.02753864
#
# Stress axis : x y z
#
# Youngs Moduli (GPa) = 95.54760 87.23012 85.38760
#
# Poissons Ratio (x) = 0.27453 0.12501
# Poissons Ratio (y) = 0.30071 -0.13320
# Poissons Ratio (z) = 0.13988 -0.13607
#
# Static dielectric constant tensor:
#      x y z
#    x 1.828320 0.000000 -0.016810 
#    y 0.000000 1.804310 0.000000 
#    z -0.016810 0.000000 1.844200 
# 
# From -- ./inp_files/232882.got.cif
#   From: 2010.05.17/outbox.cif.g08.bks.cpg/sg15_117_cif.got.tgz:232882.got - 2010.06.03 18:47:42.
