data_PCOD9275569
_publ_section_title
;
Structure prediction by ZEFSAII (Michael W. Deem and Ramdas Pophale) SiO2 
 PCOD9275569
Probable space group: C 2/C
;
_chemical_formula_sum "Si O2"
_cell_formula_units_Z 64
_cell_length_a 23.441452
_cell_length_b 19.249711
_cell_length_c 8.746410
_cell_angle_alpha 90.000000
_cell_angle_beta 120.767629
_cell_angle_gamma 90.000000
_cell_volume 3391.232902
_symmetry_space_group_name_H-M "C 2/C"
_symmetry_group_IT_number 15
_symmetry_cell_setting 'monoclinic'
loop_
_space_group_symop_operation_xyz
x,y,z
-x,y,1/2-z
-x,-y,-z
x,-y,1/2+z
1/2+x,1/2+y,z
1/2-x,1/2+y,1/2-z
1/2-x,1/2-y,-z
1/2+x,1/2-y,1/2+z
loop_
_atom_site_type_symbol
_atom_site_label
_atom_site_fract_x
_atom_site_fract_y
_atom_site_fract_z
Si Si1 0.070389 0.679579 0.770869
Si Si2 0.429402 0.171389 0.097382
Si Si3 0.552662 0.317579 0.210168
Si Si4 0.664669 0.576187 0.228429
Si Si5 0.168493 0.923123 0.367679
Si Si6 0.046748 0.169650 0.192658
Si Si7 0.691935 0.918741 0.448693
Si Si8 0.190337 0.572465 0.578278
O O1 0.069316 0.673634 0.584873
O O2 0.078400 0.761812 0.812394
O O3 0.132882 0.634026 0.909881
O O4 0.000000 0.658259 0.750000
O O5 0.500000 0.142588 0.250000
O O6 0.424683 0.247648 0.170163
O O7 0.368249 0.122750 0.056153
O O8 0.500000 0.355553 0.250000
O O9 0.613064 0.366708 0.251579
O O10 0.506394 0.301987 0.002950
O O11 0.653153 0.499040 0.278721
O O12 0.603743 0.624405 0.195010
O O13 0.734873 0.602497 0.392869
O O14 0.671045 0.572816 0.054654
O O15 0.239816 0.903783 0.396621
O O16 0.000000 0.130354 0.250000
O O17 0.694130 0.926297 0.267712
O O18 0.678876 0.994072 0.504892
#
# Coordination Sequence:
#
# PCOD9275569 Si02
#       8
#     8   8   8   8   8   8   8   8
#     4  10  21  39  61  87 117 153 193 237 294 341
#     4  10  20  39  63  84 118 152 193 240 285 348
#     4  11  21  42  60  85 120 152 193 243 283 343
#     4  11  23  40  59  87 119 154 196 240 287 343
#     4  11  23  38  62  86 118 157 193 240 290 340
#     4  11  24  40  61  88 117 154 195 238 292 342
#     4  10  22  40  60  85 122 151 194 244 283 349
#     4  10  22  39  60  88 116 155 194 237 294 341
#
# _framework density 18.872192999999999
#
# number of rings (size 3 to 8) (size 9 to 14) (size 15 to 20)
#    0.000    1.500    3.750    3.000    3.500    4.500 
#    0.000    2.500    0.000    0.000    0.000    0.000 
#    0.000    0.000    0.000    0.000    0.000    0.000 
#
# Total GULP energy -178557.929840 kJ/mol
# GULP energy per Si atom -5579.935308 kJ/mol
# Density = 1.882924 g / cm^3
# Si number density = 18.872193 Si / 1000 Ang^3
#
#
#
# Elastic Constant Matrix: (Units=GPa)
#
#
# Indices 1 2 3 4 5 6 
#
# 1 154.2805 83.2689 43.9880 0.0000 14.3648 0.0000
# 2 83.2689 78.2670 46.4780 0.0000 27.7869 0.0000
# 3 43.9880 46.4780 67.7217 0.0000 18.7844 0.0000
# 4 0.0000 0.0000 0.0000 26.7353 0.0000 7.3002
# 5 14.3648 27.7869 18.7844 0.0000 33.9844 0.0000
# 6 0.0000 0.0000 0.0000 7.3002 0.0000 34.1812
#
#
#
# Elastic Compliance Matrix: (Units=1/GPa)
#
#
# Indices 1 2 3 4 5 6 
#
# 1 0.017951 -0.024127 0.001809 0.000000 0.011140 0.000000
# 2 -0.024127 0.058296 -0.016470 0.000000 -0.028363 0.000000
# 3 0.001809 -0.016470 0.025242 0.000000 -0.001250 0.000000
# 4 0.000000 0.000000 0.000000 0.039720 0.000000 -0.008483
# 5 0.011140 -0.028363 -0.001250 0.000000 0.048598 0.000000
# 6 0.000000 0.000000 0.000000 -0.008483 0.000000 0.031068
#
#
# Mechanical properties :
#
#
# Convention : Reuss Voigt Hill
#
# Bulk Modulus (GPa) = 41.82064 71.97100 56.89582
# Shear Modulus (GPa) = 16.31743 27.41581 21.86662
#
# Velocity S-wave (km/s) = 2.94365 3.81558 3.40762
# Velocity P-wave (km/s) = 5.81046 7.59146 6.75987
#
# Compressibility (1/GPa) = 0.02391164
#
# Stress axis : x y z
#
# Youngs Moduli (GPa) = 55.70856 17.15390 39.61681
#
# Poissons Ratio (x) = 0.41387 -0.07167
# Poissons Ratio (y) = 1.34407 0.65251
# Poissons Ratio (z) = -0.10078 0.28253
#
# Static dielectric constant tensor:
#      x y z
#    x 1.659620 0.000000 -0.024290 
#    y 0.000000 1.641490 0.000000 
#    z -0.024290 0.000000 1.684550 
# 
# From -- ./inp_files/57877.got.cif
#   From: 2010.05.17/outbox.cif.g08.bks.cpg/sg15_29_cif.got.tgz:57877.got - 2010.06.03 18:47:42.
