data_PCOD9275106
_publ_section_title
;
Structure prediction by ZEFSAII (Michael W. Deem and Ramdas Pophale) SiO2 
 PCOD9275106
Probable space group: C 2/C
;
_chemical_formula_sum "Si O2"
_cell_formula_units_Z 36
_cell_length_a 8.342744
_cell_length_b 21.772398
_cell_length_c 8.083374
_cell_angle_alpha 90.000000
_cell_angle_beta 81.986237
_cell_angle_gamma 90.000000
_cell_volume 1453.938231
_symmetry_space_group_name_H-M "C 2/C"
_symmetry_group_IT_number 15
_symmetry_cell_setting 'monoclinic'
loop_
_space_group_symop_operation_xyz
x,y,z
-x,y,1/2-z
-x,-y,-z
x,-y,1/2+z
1/2+x,1/2+y,z
1/2-x,1/2+y,1/2-z
1/2-x,1/2-y,-z
1/2+x,1/2-y,1/2+z
loop_
_atom_site_type_symbol
_atom_site_label
_atom_site_fract_x
_atom_site_fract_y
_atom_site_fract_z
Si Si1 0.749685 0.782312 0.211947
Si Si2 0.942104 0.625193 0.981333
Si Si3 0.060812 0.808488 0.979497
Si Si4 0.000000 0.488705 0.250000
Si Si5 0.271313 0.898050 0.825788
O O1 0.634406 0.834243 0.152360
O O2 0.848664 0.805163 0.357924
O O3 0.647855 0.728973 0.318613
O O4 0.890082 0.776383 0.050485
O O5 0.990413 0.558890 0.902612
O O6 0.799197 0.623938 0.135728
O O7 0.099287 0.638835 0.073926
O O8 0.095296 0.879086 0.917864
O O9 0.844479 0.533192 0.297957
#
# Coordination Sequence:
#
# PCOD9275106 Si02
#       5
#     8   8   8   4   8
#     4  10  23  44  66  93 131 176 218 269 329 389
#     4  10  21  38  65  97 129 169 218 267 326 388
#     4  10  23  42  65  95 132 172 220 272 325 389
#     4  10  20  38  68  98 126 172 220 268 324 388
#     4  10  21  39  63  97 131 166 218 271 320 391
#
# _framework density 24.760334
#
# number of rings (size 3 to 8) (size 9 to 14) (size 15 to 20)
#    0.000    2.222    0.000    4.000    0.000   14.222 
#    0.000    7.778    0.000    9.333    0.000    1.556 
#    0.000    0.000    0.000    0.000    0.000    0.000 
#
# Total GULP energy -100267.412171 kJ/mol
# GULP energy per Si atom -5570.411787 kJ/mol
# Density = 2.470398 g / cm^3
# Si number density = 24.760334 Si / 1000 Ang^3
#
#
#
# Elastic Constant Matrix: (Units=GPa)
#
#
# Indices 1 2 3 4 5 6 
#
# 1 98.4559 60.0823 84.8330 0.0000 -27.9197 0.0000
# 2 60.0823 123.9142 68.3360 0.0000 -11.1231 0.0000
# 3 84.8330 68.3360 160.6828 0.0000 -15.7957 0.0000
# 4 0.0000 0.0000 0.0000 55.6988 0.0000 -15.3278
# 5 -27.9197 -11.1231 -15.7957 0.0000 71.1553 0.0000
# 6 0.0000 0.0000 0.0000 -15.3278 0.0000 33.1593
#
#
#
# Elastic Compliance Matrix: (Units=1/GPa)
#
#
# Indices 1 2 3 4 5 6 
#
# 1 0.023430 -0.005640 -0.009359 0.000000 0.006234 0.000000
# 2 -0.005640 0.011931 -0.002178 0.000000 -0.000831 0.000000
# 3 -0.009359 -0.002178 0.011957 0.000000 -0.001358 0.000000
# 4 0.000000 0.000000 0.000000 0.020570 0.000000 0.009509
# 5 0.006234 -0.000831 -0.001358 0.000000 0.016068 0.000000
# 6 0.000000 0.000000 0.000000 0.009509 0.000000 0.034553
#
#
# Mechanical properties :
#
#
# Convention : Reuss Voigt Hill
#
# Bulk Modulus (GPa) = 77.13040 89.95062 83.54051
# Shear Modulus (GPa) = 31.80946 43.32279 37.56612
#
# Velocity S-wave (km/s) = 3.58815 4.18746 3.89934
# Velocity P-wave (km/s) = 6.95592 7.73222 7.35432
#
# Compressibility (1/GPa) = 0.01296506
#
# Stress axis : x y z
#
# Youngs Moduli (GPa) = 42.68009 83.81227 83.63122
#
# Poissons Ratio (x) = 0.47269 0.78267
# Poissons Ratio (y) = 0.24071 0.18218
# Poissons Ratio (z) = 0.39943 0.18258
#
# Static dielectric constant tensor:
#      x y z
#    x 2.109500 0.000000 0.025520 
#    y 0.000000 2.029440 0.000000 
#    z 0.025520 0.000000 2.073720 
# 
# From -- ./inp_files/22548.got.cif
#   From: 2010.05.17/outbox.cif.g08.bks.cpg/sg15_12_cif.got.tgz:22548.got - 2010.06.03 18:47:42.
