data_PCOD9275285
_publ_section_title
;
Structure prediction by ZEFSAII (Michael W. Deem and Ramdas Pophale) SiO2 
 PCOD9275285
Probable space group: C 2/C
;
_chemical_formula_sum "Si O2"
_cell_formula_units_Z 48
_cell_length_a 23.206440
_cell_length_b 10.230077
_cell_length_c 18.745641
_cell_angle_alpha 90.000000
_cell_angle_beta 147.533661
_cell_angle_gamma 90.000000
_cell_volume 2388.930338
_symmetry_space_group_name_H-M "C 2/C"
_symmetry_group_IT_number 15
_symmetry_cell_setting 'monoclinic'
loop_
_space_group_symop_operation_xyz
x,y,z
-x,y,1/2-z
-x,-y,-z
x,-y,1/2+z
1/2+x,1/2+y,z
1/2-x,1/2+y,1/2-z
1/2-x,1/2-y,-z
1/2+x,1/2-y,1/2+z
loop_
_atom_site_type_symbol
_atom_site_label
_atom_site_fract_x
_atom_site_fract_y
_atom_site_fract_z
Si Si1 0.671277 0.191986 0.125525
Si Si2 0.100614 0.642736 0.301297
Si Si3 0.786336 0.087465 0.607039
Si Si4 0.736541 0.928322 0.215478
Si Si5 0.189114 0.795406 0.866715
Si Si6 0.439680 0.090405 0.848279
O O1 0.669882 0.328225 0.165170
O O2 0.720774 0.216953 0.100211
O O3 0.750904 0.083376 0.243166
O O4 0.558434 0.120497 0.999128
O O5 0.134781 0.788933 0.314325
O O6 0.202414 0.592302 0.454031
O O7 0.076950 0.547702 0.209501
O O8 0.000000 0.643461 0.250000
O O9 0.722871 0.090652 0.616383
O O10 0.843776 0.946974 0.664244
O O11 0.638979 0.893045 0.166183
O O12 0.093735 0.699955 0.744421
O O13 0.250000 0.750000 0.000000
#
# Coordination Sequence:
#
# PCOD9275285 Si02
#       6
#     8   8   8   8   8   8
#     4  10  22  38  60  90 120 164 205 255 310 370
#     4  11  22  39  62  92 122 165 210 256 313 374
#     4  10  22  40  59  88 128 163 203 256 314 373
#     4  10  21  40  61  89 126 160 206 256 314 372
#     4  10  20  39  59  88 123 159 204 259 313 360
#     4  11  22  38  66  93 119 165 215 255 310 379
#
# _framework density 20.092675
#
# number of rings (size 3 to 8) (size 9 to 14) (size 15 to 20)
#    0.000    1.667    1.667    3.500    0.000    1.333 
#    3.000    9.167    0.000    0.000    0.000    0.000 
#    0.000    0.000    0.000    0.000    0.000    0.000 
#
# Total GULP energy -133885.050359 kJ/mol
# GULP energy per Si atom -5578.543765 kJ/mol
# Density = 2.004694 g / cm^3
# Si number density = 20.092675 Si / 1000 Ang^3
#
#
#
# Elastic Constant Matrix: (Units=GPa)
#
#
# Indices 1 2 3 4 5 6 
#
# 1 47.1600 26.6490 8.8622 0.0000 -9.1386 0.0000
# 2 26.6490 149.8717 56.0422 0.0000 -12.3277 0.0000
# 3 8.8622 56.0422 70.1005 0.0000 -9.2710 0.0000
# 4 0.0000 0.0000 0.0000 31.5824 0.0000 -8.8851
# 5 -9.1386 -12.3277 -9.2710 0.0000 24.6603 0.0000
# 6 0.0000 0.0000 0.0000 -8.8851 0.0000 30.9017
#
#
#
# Elastic Compliance Matrix: (Units=1/GPa)
#
#
# Indices 1 2 3 4 5 6 
#
# 1 0.024842 -0.004272 0.001273 0.000000 0.007549 0.000000
# 2 -0.004272 0.010347 -0.007637 0.000000 0.000718 0.000000
# 3 0.001273 -0.007637 0.020801 0.000000 0.004474 0.000000
# 4 0.000000 0.000000 0.000000 0.034450 0.000000 0.009905
# 5 0.007549 0.000718 0.004474 0.000000 0.045390 0.000000
# 6 0.000000 0.000000 0.000000 0.009905 0.000000 0.035209
#
#
# Mechanical properties :
#
#
# Convention : Reuss Voigt Hill
#
# Bulk Modulus (GPa) = 28.80290 50.02656 39.41473
# Shear Modulus (GPa) = 24.52392 29.13414 26.82903
#
# Velocity S-wave (km/s) = 3.49741 3.81200 3.65809
# Velocity P-wave (km/s) = 5.53853 6.65786 6.12382
#
# Compressibility (1/GPa) = 0.03471873
#
# Stress axis : x y z
#
# Youngs Moduli (GPa) = 40.25405 96.64863 48.07414
#
# Poissons Ratio (x) = 0.41293 -0.06122
# Poissons Ratio (y) = 0.17199 0.36713
# Poissons Ratio (z) = -0.05126 0.73807
#
# Static dielectric constant tensor:
#      x y z
#    x 1.706190 0.000000 -0.012550 
#    y 0.000000 1.762500 0.000000 
#    z -0.012550 0.000000 1.711340 
# 
# From -- ./inp_files/111230.got.cif
#   From: 2010.05.17/outbox.cif.g08.bks.cpg/sg15_56_cif.got.tgz:111230.got - 2010.06.03 18:47:42.
