data_PCOD9275561
_publ_section_title
;
Structure prediction by ZEFSAII (Michael W. Deem and Ramdas Pophale) SiO2 
 PCOD9275561
Probable space group: C 2/C
;
_chemical_formula_sum "Si O2"
_cell_formula_units_Z 40
_cell_length_a 19.583810
_cell_length_b 11.980166
_cell_length_c 17.559636
_cell_angle_alpha 90.000000
_cell_angle_beta 21.197785
_cell_angle_gamma 90.000000
_cell_volume 1489.670351
_symmetry_space_group_name_H-M "C 2/C"
_symmetry_group_IT_number 15
_symmetry_cell_setting 'monoclinic'
loop_
_space_group_symop_operation_xyz
x,y,z
-x,y,1/2-z
-x,-y,-z
x,-y,1/2+z
1/2+x,1/2+y,z
1/2-x,1/2+y,1/2-z
1/2-x,1/2-y,-z
1/2+x,1/2-y,1/2+z
loop_
_atom_site_type_symbol
_atom_site_label
_atom_site_fract_x
_atom_site_fract_y
_atom_site_fract_z
Si Si1 0.703848 0.334240 0.673608
Si Si2 0.258031 0.419744 0.349770
Si Si3 0.843541 0.578576 0.302217
Si Si4 0.500000 0.890835 0.250000
Si Si5 0.500000 0.631908 0.750000
Si Si6 0.189910 0.111308 0.870217
O O1 0.786893 0.449318 0.620933
O O2 0.687062 0.219435 0.736915
O O3 0.846259 0.320670 0.455458
O O4 0.489294 0.373118 0.888587
O O5 0.379715 0.411667 0.300139
O O6 0.357857 0.378546 0.169332
O O7 0.048422 0.367947 0.576701
O O8 0.691350 0.658794 0.500333
O O9 0.771538 0.510494 0.304053
O O10 0.881525 0.475079 0.320387
#
# Coordination Sequence:
#
# PCOD9275561 Si02
#       6
#     8   8   8   4   4   8
#     4  11  23  40  64  98 143 178 217 282 336 414
#     4  11  24  44  67 103 139 181 231 279 344 411
#     4  11  20  38  65 100 136 174 217 284 341 419
#     4  10  20  39  62  98 141 166 220 263 362 404
#     4  12  20  41  72  98 135 176 232 287 346 396
#     4  12  25  41  65 102 144 184 223 277 350 412
#
# _framework density 26.851579000000001
#
# number of rings (size 3 to 8) (size 9 to 14) (size 15 to 20)
#    0.000    0.800    6.000    3.600    0.000    4.000 
#    0.000    0.000    0.000    1.200    0.000    0.000 
#    0.000    0.000    0.000    0.000    0.000    0.000 
#
# Total GULP energy -111410.096883 kJ/mol
# GULP energy per Si atom -5570.504844 kJ/mol
# Density = 2.679046 g / cm^3
# Si number density = 26.851579 Si / 1000 Ang^3
#
#
#
# Elastic Constant Matrix: (Units=GPa)
#
#
# Indices 1 2 3 4 5 6 
#
# 1 153.0809 40.3064 48.2804 0.0154 17.7956 -0.0086
# 2 40.3064 103.1113 23.6078 0.0256 5.6218 -0.0136
# 3 48.2804 23.6078 165.8495 0.0226 -12.3690 -0.0105
# 4 0.0154 0.0256 0.0226 -155.9548 -0.0054 33.8475
# 5 17.7956 5.6218 -12.3690 -0.0054 26.4849 0.0028
# 6 -0.0086 -0.0136 -0.0105 33.8475 0.0028 21.2244
#
#
#
# Elastic Compliance Matrix: (Units=1/GPa)
#
#
# Indices 1 2 3 4 5 6 
#
# 1 0.008810 -0.002460 -0.002712 0.000000 -0.006664 0.000001
# 2 -0.002460 0.010931 -0.000922 0.000002 -0.001098 0.000003
# 3 -0.002712 -0.000922 0.007357 0.000001 0.005453 0.000000
# 4 0.000000 0.000002 0.000001 -0.004763 -0.000002 0.007596
# 5 -0.006664 -0.001098 0.005453 -0.000002 0.045015 -0.000003
# 6 0.000001 0.000003 0.000000 0.007596 -0.000003 0.035001
#
#
# Mechanical properties :
#
#
# Convention : Reuss Voigt Hill
#
# Bulk Modulus (GPa) = 67.06239 71.82568 69.44403
# Shear Modulus (GPa) = 41.83865 -0.99264 20.42300
#
# Velocity S-wave (km/s) = 3.95162 -0.60867 2.76087
# Velocity P-wave (km/s) = 6.77125 5.12964 6.00679
#
# Compressibility (1/GPa) = 0.01491149
#
# Stress axis : x y z
#
# Youngs Moduli (GPa) = 113.50728 91.48572 135.92794
#
# Poissons Ratio (x) = 0.22503 0.36857
# Poissons Ratio (y) = 0.27919 0.12529
# Poissons Ratio (z) = 0.30778 0.08433
#
# Static dielectric constant tensor:
#      x y z
#    x 2.178970 0.000000 -0.017640 
#    y 0.000000 2.144150 0.000000 
#    z -0.017640 0.000000 2.165000 
# 
# From -- ./inp_files/215685.got.cif
#   From: 2010.05.17/outbox.cif.g08.bks.cpg/sg15_108_cif.got.tgz:215685.got - 2010.06.03 18:47:42.
