data_PCOD9275851
_publ_section_title
;
Structure prediction by ZEFSAII (Michael W. Deem and Ramdas Pophale) SiO2 
 PCOD9275851
Probable space group: C 2/C
;
_chemical_formula_sum "Si O2"
_cell_formula_units_Z 60
_cell_length_a 17.613062
_cell_length_b 5.716959
_cell_length_c 26.934292
_cell_angle_alpha 90.000000
_cell_angle_beta 80.486296
_cell_angle_gamma 90.000000
_cell_volume 2674.796851
_symmetry_space_group_name_H-M "C 2/C"
_symmetry_group_IT_number 15
_symmetry_cell_setting 'monoclinic'
loop_
_space_group_symop_operation_xyz
x,y,z
-x,y,1/2-z
-x,-y,-z
x,-y,1/2+z
1/2+x,1/2+y,z
1/2-x,1/2+y,1/2-z
1/2-x,1/2-y,-z
1/2+x,1/2-y,1/2+z
loop_
_atom_site_type_symbol
_atom_site_label
_atom_site_fract_x
_atom_site_fract_y
_atom_site_fract_z
Si Si1 0.000000 0.745807 0.250000
Si Si2 0.456824 0.376394 0.551411
Si Si3 0.493495 0.601574 0.854053
Si Si4 0.262878 0.540956 0.312245
Si Si5 0.836669 0.541091 0.269844
Si Si6 0.064152 0.485385 0.582125
Si Si7 0.666797 0.641279 0.507290
Si Si8 0.332908 0.359037 0.898656
O O1 0.980629 0.908924 0.204892
O O2 0.926324 0.585727 0.267833
O O3 0.500000 0.500000 0.500000
O O4 0.460433 0.490918 0.605476
O O5 0.508726 0.148309 0.555742
O O6 0.368788 0.378019 0.543173
O O7 0.406792 0.499175 0.868693
O O8 0.488029 0.870649 0.870379
O O9 0.187800 0.550114 0.285755
O O10 0.298170 0.280847 0.297121
O O11 0.261712 0.574276 0.371956
O O12 0.309675 0.782168 0.291608
O O13 0.103815 0.301935 0.541618
O O14 0.136069 0.597873 0.603386
O O15 0.750000 0.750000 0.500000
O O16 0.673014 0.417920 0.542444
#
# Coordination Sequence:
#
# PCOD9275851 Si02
#       8
#     4   8   8   8   8   8   8   8
#     4  12  22  44  62 104 134 166 224 292 332 394
#     4  11  20  42  66  94 123 172 221 255 326 413
#     4  10  22  38  66  94 128 168 218 270 331 393
#     4  10  21  44  64  95 125 184 224 263 336 413
#     4  10  23  40  69  91 133 173 224 278 330 394
#     4  10  20  39  67  89 121 179 204 263 327 405
#     4  11  24  40  61  98 130 160 212 282 328 385
#     4  10  20  39  65  90 125 174 219 253 336 410
#
# _framework density 22.431611
#
# number of rings (size 3 to 8) (size 9 to 14) (size 15 to 20)
#    0.000    1.600    5.333    1.200    1.867    1.067 
#    9.600    0.000    0.000    0.000    0.000    0.000 
#    0.000    0.000    0.000    0.000    0.000    0.000 
#
# Total GULP energy -167108.219488 kJ/mol
# GULP energy per Si atom -5570.273983 kJ/mol
# Density = 2.238056 g / cm^3
# Si number density = 22.431611 Si / 1000 Ang^3
#
#
#
# Elastic Constant Matrix: (Units=GPa)
#
#
# Indices 1 2 3 4 5 6 
#
# 1 77.6267 5.7406 26.9488 0.0000 30.2472 0.0000
# 2 5.7406 72.6723 23.9961 0.0000 6.1199 0.0000
# 3 26.9488 23.9961 128.2581 0.0000 38.2429 0.0000
# 4 0.0000 0.0000 0.0000 17.1835 0.0000 11.7775
# 5 30.2472 6.1199 38.2429 0.0000 36.8425 0.0000
# 6 0.0000 0.0000 0.0000 11.7775 0.0000 13.4136
#
#
#
# Elastic Compliance Matrix: (Units=1/GPa)
#
#
# Indices 1 2 3 4 5 6 
#
# 1 0.019036 -0.000448 0.001045 0.000000 -0.016639 0.000000
# 2 -0.000448 0.014686 -0.002948 0.000000 0.000988 0.000000
# 3 0.001045 -0.002948 0.011931 0.000000 -0.012753 0.000000
# 4 0.000000 0.000000 0.000000 0.146147 0.000000 -0.128322
# 5 -0.016639 0.000988 -0.012753 0.000000 0.053876 0.000000
# 6 0.000000 0.000000 0.000000 -0.128322 0.000000 0.187222
#
#
# Mechanical properties :
#
#
# Convention : Reuss Voigt Hill
#
# Bulk Modulus (GPa) = 24.41901 43.54759 33.98330
# Shear Modulus (GPa) = 11.08031 28.27935 19.67983
#
# Velocity S-wave (km/s) = 2.22493 3.55447 2.96518
# Velocity P-wave (km/s) = 4.18450 6.02506 5.18707
#
# Compressibility (1/GPa) = 0.04095171
#
# Stress axis : x y z
#
# Youngs Moduli (GPa) = 52.53317 68.09183 83.81206
#
# Poissons Ratio (x) = 0.03048 -0.08760
# Poissons Ratio (y) = 0.02352 0.24710
# Poissons Ratio (z) = -0.05491 0.20076
#
# Static dielectric constant tensor:
#      x y z
#    x 1.835710 0.000000 0.065670 
#    y 0.000000 1.913240 0.000000 
#    z 0.065670 0.000000 1.846440 
# 
# From -- ./inp_files/314874.got.cif
#   From: 2010.05.17/outbox.cif.g08.bks.cpg/sg15_158_cif.got.tgz:314874.got - 2010.06.03 18:47:42.
