data_PCOD9275663
_publ_section_title
;
Structure prediction by ZEFSAII (Michael W. Deem and Ramdas Pophale) SiO2 
 PCOD9275663
Probable space group: C 2/C
;
_chemical_formula_sum "Si O2"
_cell_formula_units_Z 44
_cell_length_a 9.123825
_cell_length_b 15.305008
_cell_length_c 14.758433
_cell_angle_alpha 90.000000
_cell_angle_beta 67.308889
_cell_angle_gamma 90.000000
_cell_volume 1901.355128
_symmetry_space_group_name_H-M "C 2/C"
_symmetry_group_IT_number 15
_symmetry_cell_setting 'monoclinic'
loop_
_space_group_symop_operation_xyz
x,y,z
-x,y,1/2-z
-x,-y,-z
x,-y,1/2+z
1/2+x,1/2+y,z
1/2-x,1/2+y,1/2-z
1/2-x,1/2-y,-z
1/2+x,1/2-y,1/2+z
loop_
_atom_site_type_symbol
_atom_site_label
_atom_site_fract_x
_atom_site_fract_y
_atom_site_fract_z
Si Si1 0.000000 0.034209 0.750000
Si Si2 0.879641 0.810876 0.400990
Si Si3 0.815808 0.967223 0.042647
Si Si4 0.790230 0.778885 0.091771
Si Si5 0.882071 0.369183 0.901396
Si Si6 0.746999 0.904232 0.850822
O O1 0.944453 0.103413 0.837822
O O2 0.854866 0.968443 0.765909
O O3 0.863664 0.720645 0.348393
O O4 0.715655 0.839511 0.485201
O O5 0.019719 0.781467 0.436420
O O6 0.776437 0.939741 0.947088
O O7 0.757225 0.881074 0.110895
O O8 0.717453 0.047983 0.103987
O O9 0.000000 0.000000 0.000000
O O10 0.712532 0.699508 0.166315
O O11 0.750000 0.750000 0.000000
O O12 0.059942 0.402388 0.874342
#
# Coordination Sequence:
#
# PCOD9275663 Si02
#       6
#     4   8   8   8   8   8
#     4  12  22  40  60  90 134 174 204 268 344 398
#     4  10  21  38  64  93 126 166 214 267 324 382
#     4  11  18  34  62  94 117 156 212 275 308 367
#     4   9  19  37  62  95 122 157 213 267 303 373
#     4  10  20  39  63  93 116 164 229 262 301 389
#     4  10  22  37  61  89 124 168 207 260 326 385
#
# _framework density 23.141390000000001
#
# number of rings (size 3 to 8) (size 9 to 14) (size 15 to 20)
#    0.000    1.818    3.636    0.545    0.000    0.000 
#    0.000   10.909    0.000    0.000    0.000    0.000 
#    0.000    0.000    0.000    0.000    0.000    0.000 
#
# Total GULP energy -122489.614979 kJ/mol
# GULP energy per Si atom -5567.709772 kJ/mol
# Density = 2.308872 g / cm^3
# Si number density = 23.141390 Si / 1000 Ang^3
#
#
#
# Elastic Constant Matrix: (Units=GPa)
#
#
# Indices 1 2 3 4 5 6 
#
# 1 89.2189 83.0762 27.2967 0.0000 -30.5734 0.0000
# 2 83.0762 287.1149 59.8713 0.0000 -28.6772 0.0000
# 3 27.2967 59.8713 68.5148 0.0000 -28.7775 0.0000
# 4 0.0000 0.0000 0.0000 34.2828 0.0000 -16.5070
# 5 -30.5734 -28.6772 -28.7775 0.0000 31.0261 0.0000
# 6 0.0000 0.0000 0.0000 -16.5070 0.0000 35.5529
#
#
#
# Elastic Compliance Matrix: (Units=1/GPa)
#
#
# Indices 1 2 3 4 5 6 
#
# 1 0.021819 -0.005187 0.004680 0.000000 0.021047 0.000000
# 2 -0.005187 0.005504 -0.004510 0.000000 -0.004207 0.000000
# 3 0.004680 -0.004510 0.027617 0.000000 0.026059 0.000000
# 4 0.000000 0.000000 0.000000 0.037567 0.000000 0.017442
# 5 0.021047 -0.004207 0.026059 0.000000 0.073252 0.000000
# 6 0.000000 0.000000 0.000000 0.017442 0.000000 0.036225
#
#
# Mechanical properties :
#
#
# Convention : Reuss Voigt Hill
#
# Bulk Modulus (GPa) = 22.26905 87.25967 54.76436
# Shear Modulus (GPa) = 22.02761 38.47932 30.25347
#
# Velocity S-wave (km/s) = 3.08859 4.08216 3.61963
# Velocity P-wave (km/s) = 4.72896 7.74647 6.41759
#
# Compressibility (1/GPa) = 0.04490538
#
# Stress axis : x y z
#
# Youngs Moduli (GPa) = 45.83232 181.68431 36.20919
#
# Poissons Ratio (x) = 0.94238 -0.16946
# Poissons Ratio (y) = 0.23773 0.16332
# Poissons Ratio (z) = -0.21449 0.81946
#
# Static dielectric constant tensor:
#      x y z
#    x 1.921770 0.000000 0.086710 
#    y 0.000000 2.061700 0.000000 
#    z 0.086710 0.000000 1.977210 
# 
# From -- ./inp_files/231014.got.cif
#   From: 2010.05.17/outbox.cif.g08.bks.cpg/sg15_116_cif.got.tgz:231014.got - 2010.06.03 18:47:42.
