data_PCOD9275991
_publ_section_title
;
Structure prediction by ZEFSAII (Michael W. Deem and Ramdas Pophale) SiO2 
 PCOD9275991
Probable space group: C 2/C
;
_chemical_formula_sum "Si O2"
_cell_formula_units_Z 52
_cell_length_a 18.747730
_cell_length_b 25.976871
_cell_length_c 7.554883
_cell_angle_alpha 90.000000
_cell_angle_beta 33.108366
_cell_angle_gamma 90.000000
_cell_volume 2009.714043
_symmetry_space_group_name_H-M "C 2/C"
_symmetry_group_IT_number 15
_symmetry_cell_setting 'monoclinic'
loop_
_space_group_symop_operation_xyz
x,y,z
-x,y,1/2-z
-x,-y,-z
x,-y,1/2+z
1/2+x,1/2+y,z
1/2-x,1/2+y,1/2-z
1/2-x,1/2-y,-z
1/2+x,1/2-y,1/2+z
loop_
_atom_site_type_symbol
_atom_site_label
_atom_site_fract_x
_atom_site_fract_y
_atom_site_fract_z
Si Si1 0.412286 0.602486 0.607117
Si Si2 0.134602 0.438679 0.727269
Si Si3 0.715204 0.158668 0.553218
Si Si4 0.500000 0.200771 0.750000
Si Si5 0.000000 0.365786 0.750000
Si Si6 0.000000 0.033773 0.750000
Si Si7 0.507439 0.295393 0.941192
Si Si8 0.222577 0.455052 0.927353
O O1 0.465663 0.565094 0.645936
O O2 0.417824 0.658620 0.695536
O O3 0.263948 0.588426 0.879523
O O4 0.500000 0.593831 0.250000
O O5 0.025446 0.404453 0.861831
O O6 0.149626 0.435720 0.904718
O O7 0.138126 0.499620 0.685403
O O8 0.626537 0.172848 0.566394
O O9 0.845973 0.193696 0.295437
O O10 0.754575 0.098088 0.462114
O O11 0.623943 0.165716 0.917983
O O12 0.465049 0.236662 0.996709
O O13 0.144290 0.014336 0.402420
O O14 0.500000 0.310482 0.750000
#
# Coordination Sequence:
#
# PCOD9275991 Si02
#       8
#     8   8   8   4   4   4   8   8
#     4  10  20  39  66  96 138 174 219 289 342 406
#     4  11  26  40  64 104 135 185 233 270 344 418
#     4  12  23  46  69  98 138 187 226 291 347 409
#     4  10  24  41  75 100 132 184 230 284 358 420
#     4  12  26  43  67  92 140 190 228 278 344 416
#     4  10  22  38  64 104 128 182 220 278 356 402
#     4   9  20  40  70  97 129 178 221 290 352 409
#     4  11  25  42  68 100 139 179 230 287 340 421
#
# _framework density 25.874328999999999
#
# number of rings (size 3 to 8) (size 9 to 14) (size 15 to 20)
#    0.462    0.923    1.538    4.154    3.231    4.308 
#    0.000    1.538    3.385    0.000    0.000    0.000 
#    0.000    0.000    0.000    0.000    0.000    0.000 
#
# Total GULP energy -144969.943158 kJ/mol
# GULP energy per Si atom -5575.767045 kJ/mol
# Density = 2.581544 g / cm^3
# Si number density = 25.874329 Si / 1000 Ang^3
#
#
#
# Elastic Constant Matrix: (Units=GPa)
#
#
# Indices 1 2 3 4 5 6 
#
# 1 134.7972 21.5222 5.6966 0.0000 -10.9760 0.0000
# 2 21.5222 90.2318 26.6926 0.0000 -13.1545 0.0000
# 3 5.6966 26.6926 85.9182 0.0000 -17.9692 0.0000
# 4 0.0000 0.0000 0.0000 88.9727 0.0000 106.0844
# 5 -10.9760 -13.1545 -17.9692 0.0000 44.0923 0.0000
# 6 0.0000 0.0000 0.0000 106.0844 0.0000 202.2781
#
#
#
# Elastic Compliance Matrix: (Units=1/GPa)
#
#
# Indices 1 2 3 4 5 6 
#
# 1 0.007809 -0.001738 0.000350 0.000000 0.001568 0.000000
# 2 -0.001738 0.012806 -0.003449 0.000000 0.001983 0.000000
# 3 0.000350 -0.003449 0.013654 0.000000 0.004623 0.000000
# 4 0.000000 0.000000 0.000000 0.029997 0.000000 -0.015732
# 5 0.001568 0.001983 0.004623 0.000000 0.025545 0.000000
# 6 0.000000 0.000000 0.000000 -0.015732 0.000000 0.013194
#
#
# Mechanical properties :
#
#
# Convention : Reuss Voigt Hill
#
# Bulk Modulus (GPa) = 40.65587 46.53000 43.59294
# Shear Modulus (GPa) = 41.36441 84.20434 62.78438
#
# Velocity S-wave (km/s) = 4.00267 5.71089 4.93131
# Velocity P-wave (km/s) = 6.09170 7.84269 7.02198
#
# Compressibility (1/GPa) = 0.02459669
#
# Stress axis : x y z
#
# Youngs Moduli (GPa) = 128.05955 78.08690 73.23857
#
# Poissons Ratio (x) = 0.13568 -0.02564
# Poissons Ratio (y) = 0.22251 0.25258
# Poissons Ratio (z) = -0.04482 0.26930
#
# Static dielectric constant tensor:
#      x y z
#    x 1.861720 0.000000 -0.250590 
#    y 0.000000 2.317180 0.000000 
#    z -0.250590 0.000000 1.731120 
# 
# From -- ./inp_files/59314.got.cif
#   From: 2010.05.17/outbox.cif.g08.bks.cpg/sg15_30_cif.got.tgz:59314.got - 2010.06.03 18:47:42.
