data_PCOD9275473
_publ_section_title
;
Structure prediction by ZEFSAII (Michael W. Deem and Ramdas Pophale) SiO2 
 PCOD9275473
Probable space group: C 2/C
;
_chemical_formula_sum "Si O2"
_cell_formula_units_Z 44
_cell_length_a 7.301304
_cell_length_b 11.584707
_cell_length_c 24.148642
_cell_angle_alpha 90.000000
_cell_angle_beta 100.216676
_cell_angle_gamma 90.000000
_cell_volume 2010.188846
_symmetry_space_group_name_H-M "C 2/C"
_symmetry_group_IT_number 15
_symmetry_cell_setting 'monoclinic'
loop_
_space_group_symop_operation_xyz
x,y,z
-x,y,1/2-z
-x,-y,-z
x,-y,1/2+z
1/2+x,1/2+y,z
1/2-x,1/2+y,1/2-z
1/2-x,1/2-y,-z
1/2+x,1/2-y,1/2+z
loop_
_atom_site_type_symbol
_atom_site_label
_atom_site_fract_x
_atom_site_fract_y
_atom_site_fract_z
Si Si1 0.615837 0.339168 0.963420
Si Si2 0.188573 0.752249 0.627792
Si Si3 0.905349 0.087968 0.558769
Si Si4 0.181395 0.999408 0.662494
Si Si5 0.500000 0.383517 0.750000
Si Si6 0.277523 0.686925 0.748650
O O1 0.515258 0.281900 0.905789
O O2 0.697556 0.464096 0.951319
O O3 0.750000 0.250000 0.000000
O O4 0.458588 0.370565 0.000560
O O5 0.296666 0.684624 0.586321
O O6 0.273955 0.878690 0.648394
O O7 0.191357 0.674763 0.682826
O O8 0.091939 0.060054 0.604399
O O9 0.017369 0.956549 0.695274
O O10 0.275197 0.090355 0.709020
O O11 0.683152 0.305109 0.763785
O O12 0.500000 0.694643 0.750000
#
# Coordination Sequence:
#
# PCOD9275473 Si02
#       6
#     8   8   8   8   4   8
#     4  10  23  40  64  90 121 165 206 259 316 366
#     4  10  21  39  64  90 122 164 207 254 313 375
#     4  10  20  40  64  85 125 160 203 261 313 367
#     4  10  20  39  62  86 129 163 199 269 316 366
#     4  10  22  38  60  90 128 164 216 254 314 394
#     4  11  21  41  64  91 129 167 207 259 320 375
#
# _framework density 21.888490999999998
#
# number of rings (size 3 to 8) (size 9 to 14) (size 15 to 20)
#    0.000    1.818    2.727    0.545    0.000    5.091 
#    6.545    3.636    4.000    0.000    0.000    0.000 
#    0.000    0.000    0.000    0.000    0.000    0.000 
#
# Total GULP energy -122716.788028 kJ/mol
# GULP energy per Si atom -5578.035819 kJ/mol
# Density = 2.183867 g / cm^3
# Si number density = 21.888491 Si / 1000 Ang^3
#
#
#
# Elastic Constant Matrix: (Units=GPa)
#
#
# Indices 1 2 3 4 5 6 
#
# 1 41.7341 27.8532 7.0618 0.0000 0.8553 0.0000
# 2 27.8532 93.8030 30.6452 0.0000 21.5251 0.0000
# 3 7.0618 30.6452 116.0476 0.0000 16.2393 0.0000
# 4 0.0000 0.0000 0.0000 54.4380 0.0000 -7.8239
# 5 0.8553 21.5251 16.2393 0.0000 26.3452 0.0000
# 6 0.0000 0.0000 0.0000 -7.8239 0.0000 31.7065
#
#
#
# Elastic Compliance Matrix: (Units=1/GPa)
#
#
# Indices 1 2 3 4 5 6 
#
# 1 0.031220 -0.011099 -0.000105 0.000000 0.008120 0.000000
# 2 -0.011099 0.017576 -0.002196 0.000000 -0.012646 0.000000
# 3 -0.000105 -0.002196 0.009797 0.000000 -0.004241 0.000000
# 4 0.000000 0.000000 0.000000 0.019045 0.000000 0.004700
# 5 0.008120 -0.012646 -0.004241 0.000000 0.050640 0.000000
# 6 0.000000 0.000000 0.000000 0.004700 0.000000 0.032699
#
#
# Mechanical properties :
#
#
# Convention : Reuss Voigt Hill
#
# Bulk Modulus (GPa) = 31.45457 42.52280 36.98869
# Shear Modulus (GPa) = 25.20470 34.89957 30.05213
#
# Velocity S-wave (km/s) = 3.39706 3.99736 3.70937
# Velocity P-wave (km/s) = 5.45787 6.38548 5.93981
#
# Compressibility (1/GPa) = 0.03179188
#
# Stress axis : x y z
#
# Youngs Moduli (GPa) = 32.03059 56.89647 102.07202
#
# Poissons Ratio (x) = 0.63151 0.01072
# Poissons Ratio (y) = 0.35551 0.22418
# Poissons Ratio (z) = 0.00336 0.12496
#
# Static dielectric constant tensor:
#      x y z
#    x 1.799590 0.000000 0.012960 
#    y 0.000000 1.869220 0.000000 
#    z 0.012960 0.000000 1.830600 
# 
# From -- ./inp_files/263309.got.cif
#   From: 2010.05.17/outbox.cif.g08.bks.cpg/sg15_132_cif.got.tgz:263309.got - 2010.06.03 18:47:42.
