data_PCOD9275098
_publ_section_title
;
Structure prediction by ZEFSAII (Michael W. Deem and Ramdas Pophale) SiO2 
 PCOD9275098
Probable space group: C 2/C
;
_chemical_formula_sum "Si O2"
_cell_formula_units_Z 56
_cell_length_a 18.845153
_cell_length_b 18.947305
_cell_length_c 15.126080
_cell_angle_alpha 90.000000
_cell_angle_beta 149.758099
_cell_angle_gamma 90.000000
_cell_volume 2720.219525
_symmetry_space_group_name_H-M "C 2/C"
_symmetry_group_IT_number 15
_symmetry_cell_setting 'monoclinic'
loop_
_space_group_symop_operation_xyz
x,y,z
-x,y,1/2-z
-x,-y,-z
x,-y,1/2+z
1/2+x,1/2+y,z
1/2-x,1/2+y,1/2-z
1/2-x,1/2-y,-z
1/2+x,1/2-y,1/2+z
loop_
_atom_site_type_symbol
_atom_site_label
_atom_site_fract_x
_atom_site_fract_y
_atom_site_fract_z
Si Si1 0.718644 0.988231 0.190777
Si Si2 0.703413 0.732393 0.155069
Si Si3 0.813488 0.850605 0.388494
Si Si4 0.077802 0.469962 0.719018
Si Si5 0.945137 0.304557 0.785780
Si Si6 0.156407 0.388572 0.395701
Si Si7 0.629752 0.613818 0.214674
O O1 0.758913 0.909038 0.259553
O O2 0.671495 0.024183 0.231738
O O3 0.844448 0.032660 0.284480
O O4 0.580159 0.991440 0.980557
O O5 0.798188 0.775833 0.325880
O O6 0.797687 0.720786 0.169034
O O7 0.658722 0.661922 0.159400
O O8 0.566726 0.778888 0.983881
O O9 0.718796 0.855012 0.373834
O O10 0.974062 0.870204 0.581009
O O11 0.070884 0.389015 0.739374
O O12 0.139802 0.527773 0.853053
O O13 0.000000 0.277339 0.750000
O O14 0.257927 0.373372 0.586777
O O15 0.000000 0.362822 0.250000
#
# Coordination Sequence:
#
# PCOD9275098 Si02
#       7
#     8   8   8   8   8   8   8
#     4  10  20  38  68  97 128 178 228 280 338 405
#     4  12  26  45  69  99 135 189 229 274 348 420
#     4  11  25  43  67  99 143 183 227 280 350 407
#     4  10  20  39  70 104 127 169 233 288 333 389
#     4  12  25  45  70  99 139 176 229 290 340 411
#     4  11  24  40  69 105 134 175 236 285 334 402
#     4  12  24  43  67  98 147 178 229 281 349 408
#
# _framework density 20.586573999999999
#
# number of rings (size 3 to 8) (size 9 to 14) (size 15 to 20)
#    0.000    0.857    5.714    1.714    2.000    0.571 
#    0.000    0.000    0.000    0.000    0.000    0.000 
#    0.000    0.000    0.000    0.000    0.000    0.000 
#
# Total GULP energy -156447.974577 kJ/mol
# GULP energy per Si atom -5587.427663 kJ/mol
# Density = 2.053972 g / cm^3
# Si number density = 20.586574 Si / 1000 Ang^3
#
#
#
# Elastic Constant Matrix: (Units=GPa)
#
#
# Indices 1 2 3 4 5 6 
#
# 1 120.6367 17.1951 17.2167 0.0000 17.9210 0.0000
# 2 17.1951 39.3967 4.7329 0.0000 13.0480 0.0000
# 3 17.2167 4.7329 77.2191 0.0000 8.3080 0.0000
# 4 0.0000 0.0000 0.0000 22.6328 0.0000 0.4487
# 5 17.9210 13.0480 8.3080 0.0000 34.4975 0.0000
# 6 0.0000 0.0000 0.0000 0.4487 0.0000 -21.0444
#
#
#
# Elastic Compliance Matrix: (Units=1/GPa)
#
#
# Indices 1 2 3 4 5 6 
#
# 1 0.009423 -0.002776 -0.001557 0.000000 -0.003470 0.000000
# 2 -0.002776 0.029864 -0.000155 0.000000 -0.009816 0.000000
# 3 -0.001557 -0.000155 0.013565 0.000000 -0.002399 0.000000
# 4 0.000000 0.000000 0.000000 0.044165 0.000000 0.000942
# 5 -0.003470 -0.009816 -0.002399 0.000000 0.035081 0.000000
# 6 0.000000 0.000000 0.000000 0.000942 0.000000 -0.047499
#
#
# Mechanical properties :
#
#
# Convention : Reuss Voigt Hill
#
# Bulk Modulus (GPa) = 22.79263 35.06020 28.92642
# Shear Modulus (GPa) = 46.20986 20.42436 33.31711
#
# Velocity S-wave (km/s) = 4.74292 3.15321 4.02729
# Velocity P-wave (km/s) = 6.41010 5.50678 5.97553
#
# Compressibility (1/GPa) = 0.04387383
#
# Stress axis : x y z
#
# Youngs Moduli (GPa) = 106.12541 33.48489 73.71895
#
# Poissons Ratio (x) = 0.09297 0.11481
# Poissons Ratio (y) = 0.29465 0.01145
# Poissons Ratio (z) = 0.16528 0.00520
#
# Static dielectric constant tensor:
#      x y z
#    x 1.740520 0.000000 -0.005440 
#    y 0.000000 1.727510 0.000000 
#    z -0.005440 0.000000 1.714700 
# 
# From -- ./inp_files/163803.got.cif
#   From: 2010.05.17/outbox.cif.g08.bks.cpg/sg15_82_cif.got.tgz:163803.got - 2010.06.03 18:47:42.
