data_PCOD9275509
_publ_section_title
;
Structure prediction by ZEFSAII (Michael W. Deem and Ramdas Pophale) SiO2 
 PCOD9275509
Probable space group: C 2/C
;
_chemical_formula_sum "Si O2"
_cell_formula_units_Z 64
_cell_length_a 12.587933
_cell_length_b 14.083452
_cell_length_c 29.728311
_cell_angle_alpha 90.000000
_cell_angle_beta 140.025768
_cell_angle_gamma 90.000000
_cell_volume 3385.855314
_symmetry_space_group_name_H-M "C 2/C"
_symmetry_group_IT_number 15
_symmetry_cell_setting 'monoclinic'
loop_
_space_group_symop_operation_xyz
x,y,z
-x,y,1/2-z
-x,-y,-z
x,-y,1/2+z
1/2+x,1/2+y,z
1/2-x,1/2+y,1/2-z
1/2-x,1/2-y,-z
1/2+x,1/2-y,1/2+z
loop_
_atom_site_type_symbol
_atom_site_label
_atom_site_fract_x
_atom_site_fract_y
_atom_site_fract_z
Si Si1 0.694569 0.108301 0.905462
Si Si2 0.038002 0.901635 0.082295
Si Si3 0.184075 0.400478 0.943576
Si Si4 0.455185 0.261687 0.331722
Si Si5 0.123637 0.720640 0.672050
Si Si6 0.849849 0.880931 0.173609
Si Si7 0.087841 0.114482 0.439705
Si Si8 0.818660 0.508086 0.960301
O O1 0.797895 0.112809 0.893318
O O2 0.522290 0.163401 0.850567
O O3 0.666641 0.998410 0.910482
O O4 0.814200 0.146939 0.984085
O O5 0.047122 0.845733 0.132093
O O6 0.002344 0.013806 0.078593
O O7 0.875072 0.866319 0.001790
O O8 0.046676 0.326847 0.883925
O O9 0.171409 0.425422 0.992338
O O10 0.270738 0.247646 0.253035
O O11 0.566714 0.292518 0.325322
O O12 0.208642 0.653385 0.661901
O O13 0.038704 0.809367 0.619963
O O14 0.785876 0.947925 0.113799
O O15 0.000000 0.926909 0.250000
O O16 0.228864 0.086487 0.449127
O O17 0.000000 0.500000 0.000000
#
# Coordination Sequence:
#
# PCOD9275509 Si02
#       8
#     8   8   8   8   8   8   8   8
#     4  10  22  40  62  92 118 156 196 255 306 349
#     4  10  21  39  65  86 123 151 200 255 298 354
#     4  10  21  38  64  92 116 154 210 249 295 362
#     4  11  23  40  59  90 119 164 200 245 302 356
#     4  11  25  39  59  88 127 158 201 244 304 362
#     4  10  21  39  60  83 122 162 201 244 297 359
#     4  10  21  40  61  92 118 156 203 249 297 361
#     4  10  20  39  62  90 118 156 205 250 302 352
#
# _framework density 18.902166000000001
#
# number of rings (size 3 to 8) (size 9 to 14) (size 15 to 20)
#    0.000    2.000    2.500    3.750    3.500    2.500 
#    2.250    0.000    0.000    0.000    0.000    0.000 
#    0.000    0.000    0.000    0.000    0.000    0.000 
#
# Total GULP energy -178611.072408 kJ/mol
# GULP energy per Si atom -5581.596013 kJ/mol
# Density = 1.885914 g / cm^3
# Si number density = 18.902166 Si / 1000 Ang^3
#
#
#
# Elastic Constant Matrix: (Units=GPa)
#
#
# Indices 1 2 3 4 5 6 
#
# 1 142.0345 21.0649 31.5502 0.0000 18.0923 0.0000
# 2 21.0649 19.7475 15.6179 0.0000 4.8897 0.0000
# 3 31.5502 15.6179 70.3677 0.0000 6.1991 0.0000
# 4 0.0000 0.0000 0.0000 5.5014 0.0000 0.7219
# 5 18.0923 4.8897 6.1991 0.0000 27.6844 0.0000
# 6 0.0000 0.0000 0.0000 0.7219 0.0000 7.0409
#
#
#
# Elastic Compliance Matrix: (Units=1/GPa)
#
#
# Indices 1 2 3 4 5 6 
#
# 1 0.009089 -0.006937 -0.002163 0.000000 -0.004230 0.000000
# 2 -0.006937 0.068482 -0.011653 0.000000 -0.004953 0.000000
# 3 -0.002163 -0.011653 0.017813 0.000000 -0.000517 0.000000
# 4 0.000000 0.000000 0.000000 0.184251 0.000000 -0.018891
# 5 -0.004230 -0.004953 -0.000517 0.000000 0.039876 0.000000
# 6 0.000000 0.000000 0.000000 -0.018891 0.000000 0.143963
#
#
# Mechanical properties :
#
#
# Convention : Reuss Voigt Hill
#
# Bulk Modulus (GPa) = 18.56051 40.95730 29.75891
# Shear Modulus (GPa) = 9.56137 18.97313 14.26725
#
# Velocity S-wave (km/s) = 2.25152 3.17164 2.75033
# Velocity P-wave (km/s) = 4.07427 5.92685 5.08563
#
# Compressibility (1/GPa) = 0.05387782
#
# Stress axis : x y z
#
# Youngs Moduli (GPa) = 110.02806 14.60247 56.14018
#
# Poissons Ratio (x) = 0.10130 0.12141
# Poissons Ratio (y) = 0.76328 0.65418
# Poissons Ratio (z) = 0.23795 0.17016
#
# Static dielectric constant tensor:
#      x y z
#    x 1.669460 0.000000 0.010730 
#    y 0.000000 1.658780 0.000000 
#    z 0.010730 0.000000 1.653540 
# 
# From -- ./inp_files/293078.got.cif
#   From: 2010.05.17/outbox.cif.g08.bks.cpg/sg15_147_cif.got.tgz:293078.got - 2010.06.03 18:47:42.
