data_PCOD9275602
_publ_section_title
;
Structure prediction by ZEFSAII (Michael W. Deem and Ramdas Pophale) SiO2 
 PCOD9275602
Probable space group: C 2/C
;
_chemical_formula_sum "Si O2"
_cell_formula_units_Z 48
_cell_length_a 11.574595
_cell_length_b 8.224807
_cell_length_c 21.724089
_cell_angle_alpha 90.000000
_cell_angle_beta 88.968414
_cell_angle_gamma 90.000000
_cell_volume 2067.772226
_symmetry_space_group_name_H-M "C 2/C"
_symmetry_group_IT_number 15
_symmetry_cell_setting 'monoclinic'
loop_
_space_group_symop_operation_xyz
x,y,z
-x,y,1/2-z
-x,-y,-z
x,-y,1/2+z
1/2+x,1/2+y,z
1/2-x,1/2+y,1/2-z
1/2-x,1/2-y,-z
1/2+x,1/2-y,1/2+z
loop_
_atom_site_type_symbol
_atom_site_label
_atom_site_fract_x
_atom_site_fract_y
_atom_site_fract_z
Si Si1 0.403650 0.855620 0.559300
Si Si2 0.175524 0.611318 0.035225
Si Si3 0.852033 0.976781 0.122384
Si Si4 0.724436 0.747717 0.770944
Si Si5 0.115557 0.542766 0.813205
Si Si6 0.541133 0.335308 0.683574
O O1 0.541633 0.844341 0.546876
O O2 0.366870 0.674386 0.576573
O O3 0.338311 0.945740 0.504566
O O4 0.378547 0.968278 0.618974
O O5 0.246191 0.578803 0.096816
O O6 0.250000 0.750000 0.000000
O O7 0.822850 0.900615 0.188800
O O8 0.971057 0.076040 0.130649
O O9 0.789300 0.675671 0.710934
O O10 0.822171 0.832893 0.813406
O O11 0.630371 0.889413 0.767118
O O12 0.998921 0.647814 0.815569
O O13 0.500000 0.403365 0.750000
#
# Coordination Sequence:
#
# PCOD9275602 Si02
#       6
#     8   8   8   8   8   8
#     4  10  24  43  64  95 126 164 216 264 316 378
#     4  11  24  43  67  92 125 168 215 267 321 375
#     4  11  23  40  64  93 127 165 206 259 315 374
#     4  10  21  38  61  90 125 161 202 253 312 377
#     4  10  20  39  63  88 124 163 203 253 311 373
#     4  10  21  37  57  87 124 163 204 248 302 368
#
# _framework density 23.21339
#
# number of rings (size 3 to 8) (size 9 to 14) (size 15 to 20)
#    0.000    1.667    0.000    4.500    0.000    6.000 
#    0.000   23.333    0.000    0.000    0.000    0.000 
#    0.000    0.000    0.000    0.000    0.000    0.000 
#
# Total GULP energy -134047.027814 kJ/mol
# GULP energy per Si atom -5585.292826 kJ/mol
# Density = 2.316056 g / cm^3
# Si number density = 23.213390 Si / 1000 Ang^3
#
#
#
# Elastic Constant Matrix: (Units=GPa)
#
#
# Indices 1 2 3 4 5 6 
#
# 1 129.4305 54.0504 41.1444 0.0000 13.0151 0.0000
# 2 54.0504 77.2116 39.9867 0.0000 20.1126 0.0000
# 3 41.1444 39.9867 50.9736 0.0000 7.7903 0.0000
# 4 0.0000 0.0000 0.0000 36.4968 0.0000 1.5046
# 5 13.0151 20.1126 7.7903 0.0000 37.3605 0.0000
# 6 0.0000 0.0000 0.0000 1.5046 0.0000 44.8413
#
#
#
# Elastic Compliance Matrix: (Units=1/GPa)
#
#
# Indices 1 2 3 4 5 6 
#
# 1 0.011644 -0.005522 -0.005063 0.000000 -0.000028 0.000000
# 2 -0.005522 0.027357 -0.015541 0.000000 -0.009563 0.000000
# 3 -0.005063 -0.015541 0.035479 0.000000 0.002732 0.000000
# 4 0.000000 0.000000 0.000000 0.027438 0.000000 -0.000921
# 5 -0.000028 -0.009563 0.002732 0.000000 0.031354 0.000000
# 6 0.000000 0.000000 0.000000 -0.000921 0.000000 0.022332
#
#
# Mechanical properties :
#
#
# Convention : Reuss Voigt Hill
#
# Bulk Modulus (GPa) = 44.99055 58.66431 51.82743
# Shear Modulus (GPa) = 23.22711 31.90198 27.56455
#
# Velocity S-wave (km/s) = 3.16664 3.71117 3.44967
# Velocity P-wave (km/s) = 5.72656 6.60986 6.18400
#
# Compressibility (1/GPa) = 0.02222689
#
# Stress axis : x y z
#
# Youngs Moduli (GPa) = 85.87763 36.55393 28.18599
#
# Poissons Ratio (x) = 0.20186 0.14270
# Poissons Ratio (y) = 0.47424 0.43805
# Poissons Ratio (z) = 0.43478 0.56810
#
# Static dielectric constant tensor:
#      x y z
#    x 1.854480 0.000000 0.007520 
#    y 0.000000 1.891290 0.000000 
#    z 0.007520 0.000000 1.906710 
# 
# From -- ./inp_files/267778.got.cif
#   From: 2010.05.17/outbox.cif.g08.bks.cpg/sg15_134_cif.got.tgz:267778.got - 2010.06.03 18:47:42.
