data_PCOD9275200
_publ_section_title
;
Structure prediction by ZEFSAII (Michael W. Deem and Ramdas Pophale) SiO2 
 PCOD9275200
Probable space group: C 2/C
;
_chemical_formula_sum "Si O2"
_cell_formula_units_Z 44
_cell_length_a 12.215482
_cell_length_b 27.299262
_cell_length_c 8.506261
_cell_angle_alpha 90.000000
_cell_angle_beta 52.241768
_cell_angle_gamma 90.000000
_cell_volume 2242.631462
_symmetry_space_group_name_H-M "C 2/C"
_symmetry_group_IT_number 15
_symmetry_cell_setting 'monoclinic'
loop_
_space_group_symop_operation_xyz
x,y,z
-x,y,1/2-z
-x,-y,-z
x,-y,1/2+z
1/2+x,1/2+y,z
1/2-x,1/2+y,1/2-z
1/2-x,1/2-y,-z
1/2+x,1/2-y,1/2+z
loop_
_atom_site_type_symbol
_atom_site_label
_atom_site_fract_x
_atom_site_fract_y
_atom_site_fract_z
Si Si1 0.000000 0.491336 0.750000
Si Si2 0.309477 0.769802 0.114101
Si Si3 0.531189 0.849161 0.900033
Si Si4 0.135850 0.857577 0.414494
Si Si5 0.168207 0.832977 0.753488
Si Si6 0.143642 0.433519 0.344355
O O1 0.893038 0.526573 0.753329
O O2 0.092125 0.459568 0.549168
O O3 0.206747 0.812876 0.258946
O O4 0.324782 0.725373 0.222665
O O5 0.250000 0.750000 0.000000
O O6 0.459852 0.795870 0.973674
O O7 0.500000 0.864422 0.750000
O O8 0.692291 0.851411 0.789511
O O9 0.455105 0.885944 0.084476
O O10 0.166602 0.847571 0.572098
O O11 0.205640 0.908595 0.298985
O O12 0.970576 0.853951 0.545494
#
# Coordination Sequence:
#
# PCOD9275200 Si02
#       6
#     4   8   8   8   8   8
#     4  10  20  38  72  90 118 144 204 254 314 390
#     4  11  22  37  57  88 128 167 213 250 290 343
#     4  11  21  37  60  91 123 158 207 253 293 355
#     4  10  24  40  58  89 128 162 206 251 301 360
#     4  11  22  38  61  85 127 174 204 244 295 352
#     4  10  21  40  63  96 114 154 197 254 313 367
#
# _framework density 19.619807999999999
#
# number of rings (size 3 to 8) (size 9 to 14) (size 15 to 20)
#    0.000    1.455    2.727    2.727    0.000    3.636 
#    0.000    0.000    0.000   19.636    0.000    0.000 
#    0.000    0.000    0.000    0.000    0.000    0.000 
#
# Total GULP energy -122803.497609 kJ/mol
# GULP energy per Si atom -5581.977164 kJ/mol
# Density = 1.957515 g / cm^3
# Si number density = 19.619808 Si / 1000 Ang^3
#
#
#
# Elastic Constant Matrix: (Units=GPa)
#
#
# Indices 1 2 3 4 5 6 
#
# 1 117.0743 26.9195 48.6245 0.0000 -31.5394 0.0000
# 2 26.9195 92.1258 36.7034 0.0000 -3.0399 0.0000
# 3 48.6245 36.7034 91.0849 0.0000 -18.8997 0.0000
# 4 0.0000 0.0000 0.0000 19.0375 0.0000 -18.8900
# 5 -31.5394 -3.0399 -18.8997 0.0000 35.8271 0.0000
# 6 0.0000 0.0000 0.0000 -18.8900 0.0000 -28.3910
#
#
#
# Elastic Compliance Matrix: (Units=1/GPa)
#
#
# Indices 1 2 3 4 5 6 
#
# 1 0.013283 -0.001802 -0.004458 0.000000 0.009189 0.000000
# 2 -0.001802 0.013286 -0.005038 0.000000 -0.003117 0.000000
# 3 -0.004458 -0.005038 0.016266 0.000000 0.004229 0.000000
# 4 0.000000 0.000000 0.000000 0.031640 0.000000 -0.021051
# 5 0.009189 -0.003117 0.004229 0.000000 0.037967 0.000000
# 6 0.000000 0.000000 0.000000 -0.021051 0.000000 -0.021216
#
#
# Mechanical properties :
#
#
# Convention : Reuss Voigt Hill
#
# Bulk Modulus (GPa) = 49.41206 58.30886 53.86046
# Shear Modulus (GPa) = 41.47001 17.83054 29.65028
#
# Velocity S-wave (km/s) = 4.60247 3.01791 3.89169
# Velocity P-wave (km/s) = 7.31321 6.47515 6.90690
#
# Compressibility (1/GPa) = 0.02023797
#
# Stress axis : x y z
#
# Youngs Moduli (GPa) = 75.28466 75.26878 61.47622
#
# Poissons Ratio (x) = 0.13563 0.27408
# Poissons Ratio (y) = 0.13566 0.30974
# Poissons Ratio (z) = 0.33564 0.37923
#
# Static dielectric constant tensor:
#      x y z
#    x 1.686030 0.000000 0.004880 
#    y 0.000000 1.730830 0.000000 
#    z 0.004880 0.000000 1.732400 
# 
# From -- ./inp_files/35045.got.cif
#   From: 2010.05.17/outbox.cif.g08.bks.cpg/sg15_18_cif.got.tgz:35045.got - 2010.06.03 18:47:42.
