data_PCOD9275417
_publ_section_title
;
Structure prediction by ZEFSAII (Michael W. Deem and Ramdas Pophale) SiO2 
 PCOD9275417
Probable space group: C 2/C
;
_chemical_formula_sum "Si O2"
_cell_formula_units_Z 56
_cell_length_a 27.572246
_cell_length_b 14.008037
_cell_length_c 15.107246
_cell_angle_alpha 90.000000
_cell_angle_beta 25.947395
_cell_angle_gamma 90.000000
_cell_volume 2553.043401
_symmetry_space_group_name_H-M "C 2/C"
_symmetry_group_IT_number 15
_symmetry_cell_setting 'monoclinic'
loop_
_space_group_symop_operation_xyz
x,y,z
-x,y,1/2-z
-x,-y,-z
x,-y,1/2+z
1/2+x,1/2+y,z
1/2-x,1/2+y,1/2-z
1/2-x,1/2-y,-z
1/2+x,1/2-y,1/2+z
loop_
_atom_site_type_symbol
_atom_site_label
_atom_site_fract_x
_atom_site_fract_y
_atom_site_fract_z
Si Si1 0.372726 0.993867 0.493774
Si Si2 0.455732 0.745773 0.224774
Si Si3 0.585106 0.237453 0.247994
Si Si4 0.565626 0.091677 0.427226
Si Si5 0.752609 0.817676 0.865771
Si Si6 0.659468 0.209693 0.939298
Si Si7 0.003714 0.112265 0.480377
O O1 0.500000 0.004100 0.250000
O O2 0.365012 0.950442 0.605148
O O3 0.312390 0.917624 0.531334
O O4 0.318431 0.097686 0.585717
O O5 0.500000 0.768386 0.250000
O O6 0.323790 0.746087 0.453226
O O7 0.509652 0.649484 0.097899
O O8 0.489379 0.828308 0.100326
O O9 0.614790 0.147967 0.262207
O O10 0.462049 0.216314 0.408751
O O11 0.578347 0.331221 0.319624
O O12 0.657137 0.250289 0.042156
O O13 0.500000 0.000000 0.500000
O O14 0.761889 0.768233 0.754275
O O15 0.875238 0.844555 0.694864
O O16 0.000000 0.000000 0.500000
#
# Coordination Sequence:
#
# PCOD9275417 Si02
#       7
#     8   8   8   8   8   8   8
#     4  12  20  39  67  92 128 167 211 267 324 383
#     4  11  22  42  70  94 129 169 216 275 325 376
#     4   9  19  37  63  85 118 168 209 254 311 378
#     4  11  18  33  65  95 121 162 208 258 328 372
#     4  11  23  41  63 101 127 162 222 269 313 388
#     4  10  20  39  61  89 125 165 207 260 317 370
#     4  10  24  45  65  88 131 177 214 257 325 395
#
# _framework density 21.934605000000001
#
# number of rings (size 3 to 8) (size 9 to 14) (size 15 to 20)
#    0.000    1.429    5.714    0.429    0.000    1.143 
#    7.714    0.714    0.000    0.000    0.000    0.000 
#    0.000    0.000    0.000    0.000    0.000    0.000 
#
# Total GULP energy -156394.591395 kJ/mol
# GULP energy per Si atom -5585.521121 kJ/mol
# Density = 2.188468 g / cm^3
# Si number density = 21.934605 Si / 1000 Ang^3
#
#
#
# Elastic Constant Matrix: (Units=GPa)
#
#
# Indices 1 2 3 4 5 6 
#
# 1 72.0686 13.7808 23.8384 0.0000 22.4955 0.0000
# 2 13.7808 142.5288 32.0874 0.0000 23.7873 0.0000
# 3 23.8384 32.0874 77.3838 0.0000 24.5210 0.0000
# 4 0.0000 0.0000 0.0000 18.7103 0.0000 2.9808
# 5 22.4955 23.7873 24.5210 0.0000 35.6327 0.0000
# 6 0.0000 0.0000 0.0000 2.9808 0.0000 25.1267
#
#
#
# Elastic Compliance Matrix: (Units=1/GPa)
#
#
# Indices 1 2 3 4 5 6 
#
# 1 0.017662 0.000491 -0.002567 0.000000 -0.009712 0.000000
# 2 0.000491 0.008173 -0.002191 0.000000 -0.004258 0.000000
# 3 -0.002567 -0.002191 0.017450 0.000000 -0.008925 0.000000
# 4 0.000000 0.000000 0.000000 0.054476 0.000000 -0.006463
# 5 -0.009712 -0.004258 -0.008925 0.000000 0.043180 0.000000
# 6 0.000000 0.000000 0.000000 -0.006463 0.000000 0.040565
#
#
# Mechanical properties :
#
#
# Convention : Reuss Voigt Hill
#
# Bulk Modulus (GPa) = 28.77598 47.93271 38.35435
# Shear Modulus (GPa) = 24.79870 30.71223 27.75547
#
# Velocity S-wave (km/s) = 3.36605 3.74595 3.56107
# Velocity P-wave (km/s) = 5.31550 6.37256 5.86788
#
# Compressibility (1/GPa) = 0.03475121
#
# Stress axis : x y z
#
# Youngs Moduli (GPa) = 56.61762 122.36153 57.30650
#
# Poissons Ratio (x) = -0.06009 0.14711
# Poissons Ratio (y) = -0.02780 0.12554
# Poissons Ratio (z) = 0.14535 0.26806
#
# Static dielectric constant tensor:
#      x y z
#    x 1.885570 0.000000 -0.045860 
#    y 0.000000 1.773700 0.000000 
#    z -0.045860 0.000000 1.837280 
# 
# From -- ./inp_files/178339.got.cif
#   From: 2010.05.17/outbox.cif.g08.bks.cpg/sg15_90_cif.got.tgz:178339.got - 2010.06.03 18:47:42.
