data_PCOD9275453
_publ_section_title
;
Structure prediction by ZEFSAII (Michael W. Deem and Ramdas Pophale) SiO2 
 PCOD9275453
Probable space group: C 2/C
;
_chemical_formula_sum "Si O2"
_cell_formula_units_Z 48
_cell_length_a 8.984223
_cell_length_b 8.344051
_cell_length_c 28.369730
_cell_angle_alpha 90.000000
_cell_angle_beta 94.436304
_cell_angle_gamma 90.000000
_cell_volume 2120.359745
_symmetry_space_group_name_H-M "C 2/C"
_symmetry_group_IT_number 15
_symmetry_cell_setting 'monoclinic'
loop_
_space_group_symop_operation_xyz
x,y,z
-x,y,1/2-z
-x,-y,-z
x,-y,1/2+z
1/2+x,1/2+y,z
1/2-x,1/2+y,1/2-z
1/2-x,1/2-y,-z
1/2+x,1/2-y,1/2+z
loop_
_atom_site_type_symbol
_atom_site_label
_atom_site_fract_x
_atom_site_fract_y
_atom_site_fract_z
Si Si1 0.782480 0.697055 0.323253
Si Si2 0.176320 0.993526 0.512292
Si Si3 0.311400 0.164272 0.930415
Si Si4 0.366571 0.817355 0.652088
Si Si5 0.677824 0.002766 0.760410
Si Si6 0.650256 0.149158 0.905531
O O1 0.758099 0.544745 0.288843
O O2 0.687628 0.713631 0.368587
O O3 0.956186 0.706902 0.341439
O O4 0.747520 0.847750 0.288742
O O5 0.258345 0.975479 0.464149
O O6 0.210462 0.829429 0.541313
O O7 0.237002 0.132385 0.547874
O O8 0.000000 0.000000 0.500000
O O9 0.215590 0.183417 0.880603
O O10 0.484125 0.155538 0.921465
O O11 0.308134 0.852091 0.703215
O O12 0.339274 0.985762 0.624521
O O13 0.500000 0.030522 0.750000
#
# Coordination Sequence:
#
# PCOD9275453 Si02
#       6
#     8   8   8   8   8   8
#     4  10  20  39  62  83 116 155 195 243 296 352
#     4  10  21  37  58  85 117 152 194 238 285 345
#     4  10  21  37  57  83 117 152 189 239 290 340
#     4   9  20  38  56  80 115 152 190 237 290 346
#     4   9  20  38  57  83 117 149 190 245 295 347
#     4  10  21  37  58  86 117 152 195 241 290 346
#
# _framework density 22.637667
#
# number of rings (size 3 to 8) (size 9 to 14) (size 15 to 20)
#    0.000    2.333    0.000    1.500    0.000    6.000 
#    0.000   19.167    0.000    0.000    0.000    0.000 
#    0.000    0.000    0.000    0.000    0.000    0.000 
#
# Total GULP energy -134165.114576 kJ/mol
# GULP energy per Si atom -5590.213107 kJ/mol
# Density = 2.258614 g / cm^3
# Si number density = 22.637667 Si / 1000 Ang^3
#
#
#
# Elastic Constant Matrix: (Units=GPa)
#
#
# Indices 1 2 3 4 5 6 
#
# 1 53.5866 -6.6296 38.9076 0.0000 10.2503 0.0000
# 2 -6.6296 55.8738 25.6381 0.0000 5.3968 0.0000
# 3 38.9076 25.6381 128.5557 0.0000 5.5385 0.0000
# 4 0.0000 0.0000 0.0000 34.2188 0.0000 1.4482
# 5 10.2503 5.3968 5.5385 0.0000 50.7502 0.0000
# 6 0.0000 0.0000 0.0000 1.4482 0.0000 23.7336
#
#
#
# Elastic Compliance Matrix: (Units=1/GPa)
#
#
# Indices 1 2 3 4 5 6 
#
# 1 0.027917 0.008374 -0.009884 0.000000 -0.005450 0.000000
# 2 0.008374 0.022355 -0.006850 0.000000 -0.003321 0.000000
# 3 -0.009884 -0.006850 0.012076 0.000000 0.001407 0.000000
# 4 0.000000 0.000000 0.000000 0.029299 0.000000 -0.001788
# 5 -0.005450 -0.003321 0.001407 0.000000 0.021005 0.000000
# 6 0.000000 0.000000 0.000000 -0.001788 0.000000 0.042244
#
#
# Mechanical properties :
#
#
# Convention : Reuss Voigt Hill
#
# Bulk Modulus (GPa) = 21.91639 39.31646 30.61643
# Shear Modulus (GPa) = 26.76319 33.74718 30.25519
#
# Velocity S-wave (km/s) = 3.44210 3.86522 3.65978
# Velocity P-wave (km/s) = 5.04974 6.10944 5.60469
#
# Compressibility (1/GPa) = 0.04562795
#
# Stress axis : x y z
#
# Youngs Moduli (GPa) = 35.82086 44.73278 82.81108
#
# Poissons Ratio (x) = -0.37461 0.81853
# Poissons Ratio (y) = -0.29998 0.56723
# Poissons Ratio (z) = 0.35407 0.30641
#
# Static dielectric constant tensor:
#      x y z
#    x 1.761830 0.000000 -0.008470 
#    y 0.000000 1.855760 0.000000 
#    z -0.008470 0.000000 1.867430 
# 
# From -- ./inp_files/306681.got.cif
#   From: 2010.05.17/outbox.cif.g08.bks.cpg/sg15_154_cif.got.tgz:306681.got - 2010.06.03 18:47:42.
