data_PCOD9275138
_publ_section_title
;
Structure prediction by ZEFSAII (Michael W. Deem and Ramdas Pophale) SiO2 
 PCOD9275138
Probable space group: C 2/C
;
_chemical_formula_sum "Si O2"
_cell_formula_units_Z 64
_cell_length_a 14.045572
_cell_length_b 12.778216
_cell_length_c 26.555870
_cell_angle_alpha 90.000000
_cell_angle_beta 39.820119
_cell_angle_gamma 90.000000
_cell_volume 3052.161905
_symmetry_space_group_name_H-M "C 2/C"
_symmetry_group_IT_number 15
_symmetry_cell_setting 'monoclinic'
loop_
_space_group_symop_operation_xyz
x,y,z
-x,y,1/2-z
-x,-y,-z
x,-y,1/2+z
1/2+x,1/2+y,z
1/2-x,1/2+y,1/2-z
1/2-x,1/2-y,-z
1/2+x,1/2-y,1/2+z
loop_
_atom_site_type_symbol
_atom_site_label
_atom_site_fract_x
_atom_site_fract_y
_atom_site_fract_z
Si Si1 0.143115 0.819407 0.656446
Si Si2 0.660640 0.060016 0.207685
Si Si3 0.345147 0.250191 0.590601
Si Si4 0.416783 0.749466 0.951688
Si Si5 0.789236 0.160066 0.675134
Si Si6 0.984031 0.685320 0.637910
Si Si7 0.327011 0.984455 0.087104
Si Si8 0.441581 0.958993 0.641307
O O1 0.246630 0.745995 0.649832
O O2 0.226588 0.924428 0.605392
O O3 0.000000 0.842980 0.750000
O O4 0.089444 0.754758 0.629724
O O5 0.500000 0.033599 0.250000
O O6 0.729453 0.160764 0.153120
O O7 0.632626 0.081797 0.277894
O O8 0.760612 0.955849 0.165258
O O9 0.423307 0.283601 0.507380
O O10 0.451415 0.228983 0.595447
O O11 0.280939 0.136046 0.600890
O O12 0.543179 0.678632 0.874723
O O13 0.467661 0.867687 0.921259
O O14 0.250000 0.750000 0.000000
O O15 0.671819 0.177075 0.768024
O O16 0.034777 0.564235 0.614089
O O17 0.321088 0.006293 0.149387
O O18 0.500000 0.000000 0.000000
#
# Coordination Sequence:
#
# PCOD9275138 Si02
#       8
#     8   8   8   8   8   8   8   8
#     4  10  20  38  69  98 124 167 227 271 330 400
#     4  11  23  41  65  95 128 173 224 280 332 396
#     4  11  24  40  62  96 133 166 220 270 331 405
#     4  12  24  41  64  91 130 183 212 262 339 409
#     4  10  20  42  66  91 129 166 220 275 326 393
#     4   9  21  39  68 100 120 167 220 282 332 389
#     4  11  21  42  66  91 135 179 210 275 342 402
#     4  10  20  41  69  86 130 173 211 271 341 387
#
# _framework density 20.968744000000001
#
# number of rings (size 3 to 8) (size 9 to 14) (size 15 to 20)
#    0.000    1.500    2.500    3.375    1.750    1.000 
#    2.250    8.125    0.000    0.000    0.000    0.000 
#    0.000    0.000    0.000    0.000    0.000    0.000 
#
# Total GULP energy -178675.678480 kJ/mol
# GULP energy per Si atom -5583.614953 kJ/mol
# Density = 2.092102 g / cm^3
# Si number density = 20.968744 Si / 1000 Ang^3
#
#
#
# Elastic Constant Matrix: (Units=GPa)
#
#
# Indices 1 2 3 4 5 6 
#
# 1 57.9261 32.4631 41.4251 0.0000 -6.0711 0.0000
# 2 32.4631 111.8755 24.0275 0.0000 -21.6856 0.0000
# 3 41.4251 24.0275 63.1085 0.0000 -0.9437 0.0000
# 4 0.0000 0.0000 0.0000 25.6575 0.0000 4.3133
# 5 -6.0711 -21.6856 -0.9437 0.0000 36.8559 0.0000
# 6 0.0000 0.0000 0.0000 4.3133 0.0000 33.3521
#
#
#
# Elastic Compliance Matrix: (Units=1/GPa)
#
#
# Indices 1 2 3 4 5 6 
#
# 1 0.035842 -0.005368 -0.021450 0.000000 0.002197 0.000000
# 2 -0.005368 0.011868 -0.000904 0.000000 0.006076 0.000000
# 3 -0.021450 -0.000904 0.030221 0.000000 -0.003292 0.000000
# 4 0.000000 0.000000 0.000000 0.039841 0.000000 -0.005152
# 5 0.002197 0.006076 -0.003292 0.000000 0.030985 0.000000
# 6 0.000000 0.000000 0.000000 -0.005152 0.000000 0.030649
#
#
# Mechanical properties :
#
#
# Convention : Reuss Voigt Hill
#
# Bulk Modulus (GPa) = 44.47195 47.63796 46.05496
# Shear Modulus (GPa) = 20.63164 28.17273 24.40218
#
# Velocity S-wave (km/s) = 3.14016 3.66943 3.41507
# Velocity P-wave (km/s) = 5.86534 6.38129 6.12875
#
# Compressibility (1/GPa) = 0.02248608
#
# Stress axis : x y z
#
# Youngs Moduli (GPa) = 27.90048 84.26065 33.08951
#
# Poissons Ratio (x) = 0.45228 0.70978
# Poissons Ratio (y) = 0.14976 0.02992
# Poissons Ratio (z) = 0.59848 0.07620
#
# Static dielectric constant tensor:
#      x y z
#    x 1.775260 0.000000 0.005310 
#    y 0.000000 1.790950 0.000000 
#    z 0.005310 0.000000 1.792110 
# 
# From -- ./inp_files/296112.got.cif
#   From: 2010.05.17/outbox.cif.g08.bks.cpg/sg15_149_cif.got.tgz:296112.got - 2010.06.03 18:47:42.
