data_PCOD9275899
_publ_section_title
;
Structure prediction by ZEFSAII (Michael W. Deem and Ramdas Pophale) SiO2 
 PCOD9275899
Probable space group: C 2/C
;
_chemical_formula_sum "Si O2"
_cell_formula_units_Z 48
_cell_length_a 16.779275
_cell_length_b 9.305901
_cell_length_c 16.801232
_cell_angle_alpha 90.000000
_cell_angle_beta 57.906462
_cell_angle_gamma 90.000000
_cell_volume 2222.539003
_symmetry_space_group_name_H-M "C 2/C"
_symmetry_group_IT_number 15
_symmetry_cell_setting 'monoclinic'
loop_
_space_group_symop_operation_xyz
x,y,z
-x,y,1/2-z
-x,-y,-z
x,-y,1/2+z
1/2+x,1/2+y,z
1/2-x,1/2+y,1/2-z
1/2-x,1/2-y,-z
1/2+x,1/2-y,1/2+z
loop_
_atom_site_type_symbol
_atom_site_label
_atom_site_fract_x
_atom_site_fract_y
_atom_site_fract_z
Si Si1 0.423058 0.477220 0.349110
Si Si2 0.198607 0.140487 0.355998
Si Si3 0.284595 0.424363 0.284895
Si Si4 0.252253 0.074122 0.954457
Si Si5 0.509215 0.659167 0.533992
Si Si6 0.334809 0.843947 0.566410
O O1 0.500000 0.553007 0.250000
O O2 0.352722 0.406341 0.323662
O O3 0.349740 0.562265 0.445325
O O4 0.476588 0.368442 0.379677
O O5 0.250622 0.266493 0.282224
O O6 0.108529 0.210252 0.445616
O O7 0.170325 0.013165 0.310907
O O8 0.257639 0.062689 0.394246
O O9 0.200980 0.528675 0.358647
O O10 0.242260 0.216709 0.906480
O O11 0.332925 0.088956 0.977769
O O12 0.500000 0.500000 0.500000
O O13 0.427337 0.765623 0.549804
#
# Coordination Sequence:
#
# PCOD9275899 Si02
#       6
#     8   8   8   8   8   8
#     4  10  21  35  62  96 120 168 216 266 313 389
#     4  11  23  41  65  93 129 178 214 270 326 395
#     4  11  25  39  64  94 133 169 221 268 332 387
#     4   9  20  38  64  91 126 166 217 261 324 386
#     4  11  21  39  68  93 125 167 218 268 322 391
#     4  10  20  39  65  95 123 168 209 275 316 390
#
# _framework density 21.596921999999999
#
# number of rings (size 3 to 8) (size 9 to 14) (size 15 to 20)
#    0.000    1.667    3.333    2.000    2.333    6.667 
#    0.000    0.000    0.000    0.000    0.000    0.000 
#    0.000    0.000    0.000    0.000    0.000    0.000 
#
# Total GULP energy -133829.485492 kJ/mol
# GULP energy per Si atom -5576.228562 kJ/mol
# Density = 2.154777 g / cm^3
# Si number density = 21.596922 Si / 1000 Ang^3
#
#
#
# Elastic Constant Matrix: (Units=GPa)
#
#
# Indices 1 2 3 4 5 6 
#
# 1 130.5693 49.6479 29.1382 0.0000 29.9338 0.0000
# 2 49.6479 100.9618 47.2485 0.0000 4.1436 0.0000
# 3 29.1382 47.2485 90.8006 0.0000 22.7479 0.0000
# 4 0.0000 0.0000 0.0000 32.1894 0.0000 5.2819
# 5 29.9338 4.1436 22.7479 0.0000 24.7418 0.0000
# 6 0.0000 0.0000 0.0000 5.2819 0.0000 37.9718
#
#
#
# Elastic Compliance Matrix: (Units=1/GPa)
#
#
# Indices 1 2 3 4 5 6 
#
# 1 0.014634 -0.008714 0.005078 0.000000 -0.020914 0.000000
# 2 -0.008714 0.018838 -0.011507 0.000000 0.017968 0.000000
# 3 0.005078 -0.011507 0.021344 0.000000 -0.023840 0.000000
# 4 0.000000 0.000000 0.000000 0.031792 0.000000 -0.004422
# 5 -0.020914 0.017968 -0.023840 0.000000 0.084630 0.000000
# 6 0.000000 0.000000 0.000000 -0.004422 0.000000 0.026950
#
#
# Mechanical properties :
#
#
# Convention : Reuss Voigt Hill
#
# Bulk Modulus (GPa) = 40.76911 63.82232 52.29572
# Shear Modulus (GPa) = 21.12822 32.06709 26.59766
#
# Velocity S-wave (km/s) = 3.13117 3.85749 3.51315
# Velocity P-wave (km/s) = 5.65602 7.03250 6.38148
#
# Compressibility (1/GPa) = 0.02452837
#
# Stress axis : x y z
#
# Youngs Moduli (GPa) = 68.33580 53.08517 46.85136
#
# Poissons Ratio (x) = 0.46259 -0.23790
# Poissons Ratio (y) = 0.59548 0.53913
# Poissons Ratio (z) = -0.34700 0.61086
#
# Static dielectric constant tensor:
#      x y z
#    x 1.809700 0.000000 -0.020420 
#    y 0.000000 1.769090 0.000000 
#    z -0.020420 0.000000 1.877360 
# 
# From -- ./inp_files/208912.got.cif
#   From: 2010.05.17/outbox.cif.g08.bks.cpg/sg15_105_cif.got.tgz:208912.got - 2010.06.03 18:47:42.
