data_PCOD9275193
_publ_section_title
;
Structure prediction by ZEFSAII (Michael W. Deem and Ramdas Pophale) SiO2 
 PCOD9275193
Probable space group: C 2/C
;
_chemical_formula_sum "Si O2"
_cell_formula_units_Z 36
_cell_length_a 14.503438
_cell_length_b 6.678700
_cell_length_c 24.662114
_cell_angle_alpha 90.000000
_cell_angle_beta 36.864839
_cell_angle_gamma 90.000000
_cell_volume 1433.155518
_symmetry_space_group_name_H-M "C 2/C"
_symmetry_group_IT_number 15
_symmetry_cell_setting 'monoclinic'
loop_
_space_group_symop_operation_xyz
x,y,z
-x,y,1/2-z
-x,-y,-z
x,-y,1/2+z
1/2+x,1/2+y,z
1/2-x,1/2+y,1/2-z
1/2-x,1/2-y,-z
1/2+x,1/2-y,1/2+z
loop_
_atom_site_type_symbol
_atom_site_label
_atom_site_fract_x
_atom_site_fract_y
_atom_site_fract_z
Si Si1 0.500000 0.385607 0.250000
Si Si2 0.257310 0.834526 0.804054
Si Si3 0.108489 0.740960 0.650106
Si Si4 0.987433 0.499944 0.111628
Si Si5 0.411314 0.683503 0.568667
O O1 0.650004 0.255032 0.188777
O O2 0.471266 0.539328 0.313936
O O3 0.120528 0.681425 0.857125
O O4 0.384538 0.858985 0.698360
O O5 0.193367 0.056661 0.840809
O O6 0.282372 0.770078 0.588630
O O7 0.000000 0.650448 0.750000
O O8 0.104520 0.606636 0.598205
O O9 0.015473 0.647962 0.047785
O O10 0.500000 0.500000 0.500000
#
# Coordination Sequence:
#
# PCOD9275193 Si02
#       5
#     4   8   8   8   8
#     4  10  20  38  72 102 132 174 240 300 332 410
#     4  12  20  40  70  98 127 179 233 289 341 421
#     4  10  20  43  66  99 133 178 242 284 340 424
#     4  12  22  40  71  98 130 184 241 284 343 426
#     4  12  27  44  64 103 146 177 226 299 367 416
#
# _framework density 25.119396999999999
#
# number of rings (size 3 to 8) (size 9 to 14) (size 15 to 20)
#    0.667    0.000    6.667    2.667    0.000    1.778 
#    0.000    1.111    0.000    0.000    0.000    0.000 
#    0.000    0.000    0.000    0.000    0.000    0.000 
#
# Total GULP energy -100502.705690 kJ/mol
# GULP energy per Si atom -5583.483649 kJ/mol
# Density = 2.506222 g / cm^3
# Si number density = 25.119397 Si / 1000 Ang^3
#
#
#
# Elastic Constant Matrix: (Units=GPa)
#
#
# Indices 1 2 3 4 5 6 
#
# 1 117.0036 66.6041 17.2129 0.0000 3.9985 0.0009
# 2 66.6041 143.0751 3.5375 0.0001 2.8984 0.0013
# 3 17.2129 3.5375 39.9351 0.0000 -2.9273 0.0000
# 4 0.0000 0.0001 0.0000 34.8487 -0.0001 -4.2853
# 5 3.9985 2.8984 -2.9273 -0.0001 16.7653 -0.0001
# 6 0.0009 0.0013 0.0000 -4.2853 -0.0001 49.7686
#
#
#
# Elastic Compliance Matrix: (Units=1/GPa)
#
#
# Indices 1 2 3 4 5 6 
#
# 1 0.012653 -0.005703 -0.005164 0.000000 -0.002933 0.000000
# 2 -0.005703 0.009605 0.001606 0.000000 -0.000020 0.000000
# 3 -0.005164 0.001606 0.027546 0.000000 0.005764 0.000000
# 4 0.000000 0.000000 0.000000 0.029003 0.000000 0.002497
# 5 -0.002933 -0.000020 0.005764 0.000000 0.061357 0.000000
# 6 0.000000 0.000000 0.000000 0.002497 0.000000 0.020308
#
#
# Mechanical properties :
#
#
# Convention : Reuss Voigt Hill
#
# Bulk Modulus (GPa) = 31.96641 52.74699 42.35670
# Shear Modulus (GPa) = 26.39621 34.45380 30.42501
#
# Velocity S-wave (km/s) = 3.24517 3.70753 3.48403
# Velocity P-wave (km/s) = 5.17638 6.27470 5.75181
#
# Compressibility (1/GPa) = 0.03128283
#
# Stress axis : x y z
#
# Youngs Moduli (GPa) = 79.03165 104.11278 36.30229
#
# Poissons Ratio (x) = 0.59377 0.18745
# Poissons Ratio (y) = 0.45073 -0.05830
# Poissons Ratio (z) = 0.40809 -0.16720
#
# Static dielectric constant tensor:
#      x y z
#    x 2.074110 0.000000 0.112610 
#    y 0.000000 1.964560 0.000000 
#    z 0.112610 0.000000 2.170600 
# 
# From -- ./inp_files/312229.got.cif
#   From: 2010.05.17/outbox.cif.g08.bks.cpg/sg15_157_cif.got.tgz:312229.got - 2010.06.03 18:47:42.
