data_PCOD9275643
_publ_section_title
;
Structure prediction by ZEFSAII (Michael W. Deem and Ramdas Pophale) SiO2 
 PCOD9275643
Probable space group: C 2/C
;
_chemical_formula_sum "Si O2"
_cell_formula_units_Z 44
_cell_length_a 10.796863
_cell_length_b 8.919932
_cell_length_c 23.917734
_cell_angle_alpha 90.000000
_cell_angle_beta 60.836553
_cell_angle_gamma 90.000000
_cell_volume 2011.450618
_symmetry_space_group_name_H-M "C 2/C"
_symmetry_group_IT_number 15
_symmetry_cell_setting 'monoclinic'
loop_
_space_group_symop_operation_xyz
x,y,z
-x,y,1/2-z
-x,-y,-z
x,-y,1/2+z
1/2+x,1/2+y,z
1/2-x,1/2+y,1/2-z
1/2-x,1/2-y,-z
1/2+x,1/2-y,1/2+z
loop_
_atom_site_type_symbol
_atom_site_label
_atom_site_fract_x
_atom_site_fract_y
_atom_site_fract_z
Si Si1 0.322933 0.930241 0.545913
Si Si2 0.752636 0.810296 0.356127
Si Si3 0.500000 0.466446 0.250000
Si Si4 0.388706 0.401843 0.059459
Si Si5 0.674014 0.876875 0.556584
Si Si6 0.992412 0.084868 0.129038
O O1 0.390382 0.770586 0.544224
O O2 0.153656 0.894797 0.571175
O O3 0.309052 0.041297 0.601257
O O4 0.390845 0.021733 0.479484
O O5 0.847029 0.726836 0.383515
O O6 0.620387 0.709866 0.365579
O O7 0.860298 0.863208 0.284835
O O8 0.497243 0.564902 0.194373
O O9 0.245812 0.483513 0.073810
O O10 0.431149 0.434136 0.113653
O O11 0.500000 0.500000 0.000000
O O12 0.750000 0.750000 0.500000
#
# Coordination Sequence:
#
# PCOD9275643 Si02
#       6
#     8   8   4   8   8   8
#     4  10  20  39  63  91 127 165 197 256 316 374
#     4   9  21  40  64  90 120 163 212 260 310 371
#     4  10  22  42  66  82 128 162 208 270 310 356
#     4  11  21  36  62  94 126 161 199 248 315 376
#     4   9  18  36  59  89 127 158 200 247 308 376
#     4  10  22  41  63  88 122 164 213 256 313 373
#
# _framework density 21.874760999999999
#
# number of rings (size 3 to 8) (size 9 to 14) (size 15 to 20)
#    0.000    2.182    1.818    0.545    0.000    2.909 
#    3.273    6.364    0.000    2.182    0.000    0.000 
#    0.000    0.000    0.000    0.000    0.000    0.000 
#
# Total GULP energy -122497.623110 kJ/mol
# GULP energy per Si atom -5568.073778 kJ/mol
# Density = 2.182497 g / cm^3
# Si number density = 21.874761 Si / 1000 Ang^3
#
#
#
# Elastic Constant Matrix: (Units=GPa)
#
#
# Indices 1 2 3 4 5 6 
#
# 1 93.2906 64.8411 32.8620 0.0000 2.4400 0.0000
# 2 64.8411 176.3994 24.5699 0.0000 2.7603 0.0000
# 3 32.8620 24.5699 81.6578 0.0000 8.6992 0.0000
# 4 0.0000 0.0000 0.0000 10.8345 0.0000 6.4188
# 5 2.4400 2.7603 8.6992 0.0000 43.2426 0.0000
# 6 0.0000 0.0000 0.0000 6.4188 0.0000 53.3695
#
#
#
# Elastic Compliance Matrix: (Units=1/GPa)
#
#
# Indices 1 2 3 4 5 6 
#
# 1 0.016085 -0.005231 -0.004944 0.000000 0.000421 0.000000
# 2 -0.005231 0.007618 -0.000170 0.000000 -0.000157 0.000000
# 3 -0.004944 -0.000170 0.014569 0.000000 -0.002641 0.000000
# 4 0.000000 0.000000 0.000000 0.099379 0.000000 -0.011952
# 5 0.000421 -0.000157 -0.002641 0.000000 0.023643 0.000000
# 6 0.000000 0.000000 0.000000 -0.011952 0.000000 0.020175
#
#
# Mechanical properties :
#
#
# Convention : Reuss Voigt Hill
#
# Bulk Modulus (GPa) = 56.87931 66.21042 61.54486
# Shear Modulus (GPa) = 24.03623 36.76098 30.39861
#
# Velocity S-wave (km/s) = 3.31843 4.10386 3.73187
# Velocity P-wave (km/s) = 6.38289 7.26562 6.83851
#
# Compressibility (1/GPa) = 0.01758109
#
# Stress axis : x y z
#
# Youngs Moduli (GPa) = 62.16847 131.27142 68.64072
#
# Poissons Ratio (x) = 0.68662 0.33938
# Poissons Ratio (y) = 0.32518 0.01170
# Poissons Ratio (z) = 0.30738 0.02237
#
# Static dielectric constant tensor:
#      x y z
#    x 1.958510 0.000000 -0.009270 
#    y 0.000000 1.787000 0.000000 
#    z -0.009270 0.000000 1.791100 
# 
# From -- ./inp_files/236056.got.cif
#   From: 2010.05.17/outbox.cif.g08.bks.cpg/sg15_119_cif.got.tgz:236056.got - 2010.06.03 18:47:42.
