data_PCOD9275801
_publ_section_title
;
Structure prediction by ZEFSAII (Michael W. Deem and Ramdas Pophale) SiO2 
 PCOD9275801
Probable space group: C 2/C
;
_chemical_formula_sum "Si O2"
_cell_formula_units_Z 64
_cell_length_a 7.771175
_cell_length_b 13.008623
_cell_length_c 28.817523
_cell_angle_alpha 90.000000
_cell_angle_beta 125.549043
_cell_angle_gamma 90.000000
_cell_volume 2370.256242
_symmetry_space_group_name_H-M "C 2/C"
_symmetry_group_IT_number 15
_symmetry_cell_setting 'monoclinic'
loop_
_space_group_symop_operation_xyz
x,y,z
-x,y,1/2-z
-x,-y,-z
x,-y,1/2+z
1/2+x,1/2+y,z
1/2-x,1/2+y,1/2-z
1/2-x,1/2-y,-z
1/2+x,1/2-y,1/2+z
loop_
_atom_site_type_symbol
_atom_site_label
_atom_site_fract_x
_atom_site_fract_y
_atom_site_fract_z
Si Si1 0.300907 0.666769 0.250281
Si Si2 0.093422 0.498648 0.890971
Si Si3 0.246428 0.934577 0.286004
Si Si4 0.602808 0.435642 0.639607
Si Si5 0.166492 0.848016 0.185957
Si Si6 0.212188 0.045956 0.490736
Si Si7 0.513331 0.779127 0.590446
Si Si8 0.114942 0.335576 0.026346
O O1 0.500000 0.700828 0.250000
O O2 0.255059 0.555599 0.222381
O O3 0.357730 0.646083 0.313048
O O4 0.110257 0.742586 0.206078
O O5 0.188682 0.467033 0.856201
O O6 0.295298 0.528284 0.954692
O O7 0.981725 0.399729 0.897641
O O8 0.909650 0.581773 0.852844
O O9 0.325039 0.887663 0.250448
O O10 0.000000 0.904793 0.250000
O O11 0.541143 0.544972 0.655274
O O12 0.441671 0.407268 0.572780
O O13 0.190023 0.794662 0.139493
O O14 0.422213 0.116531 0.523290
O O15 0.267801 0.933750 0.478359
O O16 0.294157 0.733968 0.577399
O O17 0.486241 0.769661 0.531378
#
# Coordination Sequence:
#
# PCOD9275801 Si02
#       8
#     8   8   8   8   8   8   8   8
#     4  10  24  42  65  94 129 175 230 278 340 406
#     4  11  24  43  65  95 142 177 224 286 354 413
#     4  10  24  42  64  94 129 175 225 284 338 413
#     4  11  25  44  66  98 142 178 225 284 354 411
#     4  11  23  40  68  92 129 175 232 275 345 407
#     4  10  21  40  69  96 133 178 226 283 348 414
#     4  10  20  39  64  96 128 173 228 285 336 409
#     4   9  20  36  66  98 127 170 232 282 342 398
#
# _framework density 27.001298999999999
#
# number of rings (size 3 to 8) (size 9 to 14) (size 15 to 20)
#    0.000    1.750    2.500    0.375    5.250    5.500 
#    0.000    0.625    0.000    0.000    0.000    0.000 
#    0.000    0.000    0.000    0.000    0.000    0.000 
#
# Total GULP energy -178371.247201 kJ/mol
# GULP energy per Si atom -5574.101475 kJ/mol
# Density = 2.693984 g / cm^3
# Si number density = 27.001299 Si / 1000 Ang^3
#
#
#
# Elastic Constant Matrix: (Units=GPa)
#
#
# Indices 1 2 3 4 5 6 
#
# 1 77.3693 11.2174 44.4790 0.0000 -2.9371 0.0000
# 2 11.2174 82.1341 22.5657 0.0000 0.6995 0.0000
# 3 44.4790 22.5657 230.7033 0.0000 -0.3189 0.0000
# 4 0.0000 0.0000 0.0000 49.9627 0.0000 2.9268
# 5 -2.9371 0.6995 -0.3189 0.0000 22.8723 0.0000
# 6 0.0000 0.0000 0.0000 2.9268 0.0000 25.3854
#
#
#
# Elastic Compliance Matrix: (Units=1/GPa)
#
#
# Indices 1 2 3 4 5 6 
#
# 1 0.014744 -0.001284 -0.002714 0.000000 0.001895 0.000000
# 2 -0.001284 0.012627 -0.000988 0.000000 -0.000565 0.000000
# 3 -0.002714 -0.000988 0.004954 0.000000 -0.000249 0.000000
# 4 0.000000 0.000000 0.000000 0.020151 0.000000 -0.002323
# 5 0.001895 -0.000565 -0.000249 0.000000 0.043978 0.000000
# 6 0.000000 0.000000 0.000000 -0.002323 0.000000 0.039661
#
#
# Mechanical properties :
#
#
# Convention : Reuss Voigt Hill
#
# Bulk Modulus (GPa) = 44.73982 60.74789 52.74385
# Shear Modulus (GPa) = 32.56522 40.44039 36.50280
#
# Velocity S-wave (km/s) = 3.47661 3.87424 3.68080
# Velocity P-wave (km/s) = 5.72024 6.52380 6.13519
#
# Compressibility (1/GPa) = 0.02235145
#
# Stress axis : x y z
#
# Youngs Moduli (GPa) = 67.82627 79.19592 201.84864
#
# Poissons Ratio (x) = 0.10169 0.54788
# Poissons Ratio (y) = 0.08709 0.19949
# Poissons Ratio (z) = 0.18410 0.07827
#
# Static dielectric constant tensor:
#      x y z
#    x 2.313300 0.000000 0.045430 
#    y 0.000000 2.197680 0.000000 
#    z 0.045430 0.000000 2.188380 
# 
# From -- ./inp_files/308313.got.cif
#   From: 2010.05.17/outbox.cif.g08.bks.cpg/sg15_155_cif.got.tgz:308313.got - 2010.06.03 18:47:42.
