data_PCOD9275434
_publ_section_title
;
Structure prediction by ZEFSAII (Michael W. Deem and Ramdas Pophale) SiO2 
 PCOD9275434
Probable space group: C 2/C
;
_chemical_formula_sum "Si O2"
_cell_formula_units_Z 40
_cell_length_a 10.448475
_cell_length_b 17.444568
_cell_length_c 15.060855
_cell_angle_alpha 90.000000
_cell_angle_beta 137.763599
_cell_angle_gamma 90.000000
_cell_volume 1845.251266
_symmetry_space_group_name_H-M "C 2/C"
_symmetry_group_IT_number 15
_symmetry_cell_setting 'monoclinic'
loop_
_space_group_symop_operation_xyz
x,y,z
-x,y,1/2-z
-x,-y,-z
x,-y,1/2+z
1/2+x,1/2+y,z
1/2-x,1/2+y,1/2-z
1/2-x,1/2-y,-z
1/2+x,1/2-y,1/2+z
loop_
_atom_site_type_symbol
_atom_site_label
_atom_site_fract_x
_atom_site_fract_y
_atom_site_fract_z
Si Si1 0.242942 0.533460 0.435798
Si Si2 0.806181 0.801049 0.194399
Si Si3 0.330207 0.443741 0.313282
Si Si4 0.298884 0.043589 0.406879
Si Si5 0.487269 0.834843 0.894230
O O1 0.213441 0.490475 0.327479
O O2 0.456138 0.568726 0.541389
O O3 0.249794 0.468640 0.516063
O O4 0.099971 0.599902 0.395622
O O5 0.744466 0.863541 0.235906
O O6 0.000000 0.834129 0.250000
O O7 0.873503 0.722679 0.273341
O O8 0.647992 0.794094 0.037251
O O9 0.334599 0.497663 0.229071
O O10 0.340108 0.125979 0.386999
O O11 0.500000 0.000000 0.500000
#
# Coordination Sequence:
#
# PCOD9275434 Si02
#       5
#     8   8   8   8   8
#     4  10  22  39  65  95 123 170 221 274 315 398
#     4  12  23  41  62  96 137 169 210 280 328 390
#     4  11  21  38  65  93 128 167 221 260 339 379
#     4  10  20  39  61  91 128 166 219 269 316 389
#     4  11  25  40  66  99 133 170 221 272 337 388
#
# _framework density 21.677264999999998
#
# number of rings (size 3 to 8) (size 9 to 14) (size 15 to 20)
#    0.000    1.200    6.000    1.200    2.800    4.000 
#    0.000    1.000    0.000    0.000    0.000    0.000 
#    0.000    0.000    0.000    0.000    0.000    0.000 
#
# Total GULP energy -111775.475580 kJ/mol
# GULP energy per Si atom -5588.773779 kJ/mol
# Density = 2.162793 g / cm^3
# Si number density = 21.677265 Si / 1000 Ang^3
#
#
#
# Elastic Constant Matrix: (Units=GPa)
#
#
# Indices 1 2 3 4 5 6 
#
# 1 76.3688 46.0674 34.9179 0.0000 -28.5169 0.0000
# 2 46.0674 120.1734 67.3315 0.0000 -19.1584 0.0000
# 3 34.9179 67.3315 83.4842 0.0000 -22.7166 0.0000
# 4 0.0000 0.0000 0.0000 49.5372 0.0000 -10.7851
# 5 -28.5169 -19.1584 -22.7166 0.0000 41.5889 0.0000
# 6 0.0000 0.0000 0.0000 -10.7851 0.0000 34.0306
#
#
#
# Elastic Compliance Matrix: (Units=1/GPa)
#
#
# Indices 1 2 3 4 5 6 
#
# 1 0.021311 -0.005649 -0.001279 0.000000 0.011311 0.000000
# 2 -0.005649 0.016684 -0.011811 0.000000 -0.002640 0.000000
# 3 -0.001279 -0.011811 0.023867 0.000000 0.006719 0.000000
# 4 0.000000 0.000000 0.000000 0.021683 0.000000 0.006872
# 5 0.011311 -0.002640 0.006719 0.000000 0.034255 0.000000
# 6 0.000000 0.000000 0.000000 0.006872 0.000000 0.031563
#
#
# Mechanical properties :
#
#
# Convention : Reuss Voigt Hill
#
# Bulk Modulus (GPa) = 41.01265 64.07333 52.54299
# Shear Modulus (GPa) = 25.64499 33.81197 29.72848
#
# Velocity S-wave (km/s) = 3.44326 3.95370 3.70728
# Velocity P-wave (km/s) = 5.89651 7.10383 6.52814
#
# Compressibility (1/GPa) = 0.02438272
#
# Stress axis : x y z
#
# Youngs Moduli (GPa) = 46.92455 59.93880 41.89805
#
# Poissons Ratio (x) = 0.33861 0.05360
# Poissons Ratio (y) = 0.26509 0.49486
# Poissons Ratio (z) = 0.06003 0.70794
#
# Static dielectric constant tensor:
#      x y z
#    x 1.855210 0.000000 0.024160 
#    y 0.000000 1.802680 0.000000 
#    z 0.024160 0.000000 1.851050 
# 
# From -- ./inp_files/145877.got.cif
#   From: 2010.05.17/outbox.cif.g08.bks.cpg/sg15_73_cif.got.tgz:145877.got - 2010.06.03 18:47:42.
