data_PCOD9275661
_publ_section_title
;
Structure prediction by ZEFSAII (Michael W. Deem and Ramdas Pophale) SiO2 
 PCOD9275661
Probable space group: C 2/C
;
_chemical_formula_sum "Si O2"
_cell_formula_units_Z 56
_cell_length_a 8.677921
_cell_length_b 18.188298
_cell_length_c 21.169854
_cell_angle_alpha 90.000000
_cell_angle_beta 52.708469
_cell_angle_gamma 90.000000
_cell_volume 2658.276899
_symmetry_space_group_name_H-M "C 2/C"
_symmetry_group_IT_number 15
_symmetry_cell_setting 'monoclinic'
loop_
_space_group_symop_operation_xyz
x,y,z
-x,y,1/2-z
-x,-y,-z
x,-y,1/2+z
1/2+x,1/2+y,z
1/2-x,1/2+y,1/2-z
1/2-x,1/2-y,-z
1/2+x,1/2-y,1/2+z
loop_
_atom_site_type_symbol
_atom_site_label
_atom_site_fract_x
_atom_site_fract_y
_atom_site_fract_z
Si Si1 0.945487 0.345961 0.963320
Si Si2 0.803655 0.493581 0.481492
Si Si3 0.370854 0.698889 0.399762
Si Si4 0.751385 0.488991 0.132832
Si Si5 0.443233 0.295166 0.389828
Si Si6 0.000000 0.137778 0.750000
Si Si7 0.836422 0.150177 0.544050
Si Si8 0.000000 0.886122 0.750000
O O1 0.156835 0.340166 0.943530
O O2 0.025965 0.532203 0.933116
O O3 0.964197 0.289338 0.901563
O O4 0.856039 0.420903 0.957873
O O5 0.686087 0.493764 0.576929
O O6 0.783934 0.685312 0.551211
O O7 0.715090 0.435403 0.454636
O O8 0.331743 0.786853 0.406364
O O9 0.435872 0.676423 0.453769
O O10 0.500663 0.665817 0.311487
O O11 0.662510 0.418020 0.186514
O O12 0.681465 0.557917 0.192926
O O13 0.545328 0.314686 0.299702
O O14 0.536765 0.339153 0.425187
#
# Coordination Sequence:
#
# PCOD9275661 Si02
#       8
#     8   8   8   8   8   4   8   4
#     4  10  20  41  65  89 120 177 208 249 310 409
#     4  11  18  39  65  92 123 166 208 259 306 396
#     4  10  20  39  63  92 131 165 216 256 319 379
#     4  10  21  34  66  95 116 166 212 247 318 385
#     4  10  23  41  65  90 126 164 224 255 316 388
#     4  11  22  42  62  89 122 162 206 267 310 376
#     4  10  22  38  61  98 123 166 213 263 313 385
#     4  11  18  36  62  97 122 160 212 263 304 384
#
# _framework density 21.066278000000001
#
# number of rings (size 3 to 8) (size 9 to 14) (size 15 to 20)
#    0.000    1.714    4.286    0.857    0.000    0.571 
#    5.143    0.000    3.143    0.000    0.000    0.000 
#    0.000    0.000    0.000    0.000    0.000    0.000 
#
# Total GULP energy -155969.327145 kJ/mol
# GULP energy per Si atom -5570.333112 kJ/mol
# Density = 2.101833 g / cm^3
# Si number density = 21.066278 Si / 1000 Ang^3
#
#
#
# Elastic Constant Matrix: (Units=GPa)
#
#
# Indices 1 2 3 4 5 6 
#
# 1 46.4254 19.5625 33.5234 0.0000 13.3820 0.0002
# 2 19.5625 148.1217 59.1038 0.0000 18.8232 0.0000
# 3 33.5234 59.1038 159.3922 0.0000 17.0425 0.0000
# 4 0.0000 0.0000 0.0000 40.4662 0.0000 0.0352
# 5 13.3820 18.8232 17.0425 0.0000 24.4957 -0.0001
# 6 0.0002 0.0000 0.0000 0.0352 -0.0001 18.2023
#
#
#
# Elastic Compliance Matrix: (Units=1/GPa)
#
#
# Indices 1 2 3 4 5 6 
#
# 1 0.028477 -0.000413 -0.004545 0.000000 -0.012078 0.000000
# 2 -0.000413 0.008387 -0.002548 0.000000 -0.004447 0.000000
# 3 -0.004545 -0.002548 0.008318 0.000000 -0.001347 0.000000
# 4 0.000000 0.000000 0.000000 0.024712 0.000000 -0.000048
# 5 -0.012078 -0.004447 -0.001347 0.000000 0.051776 0.000000
# 6 0.000000 0.000000 0.000000 -0.000048 0.000000 0.054938
#
#
# Mechanical properties :
#
#
# Convention : Reuss Voigt Hill
#
# Bulk Modulus (GPa) = 33.14302 64.25765 48.70034
# Shear Modulus (GPa) = 24.79208 32.74949 28.77079
#
# Velocity S-wave (km/s) = 3.43426 3.94711 3.69958
# Velocity P-wave (km/s) = 5.61181 7.16532 6.43561
#
# Compressibility (1/GPa) = 0.03017226
#
# Stress axis : x y z
#
# Youngs Moduli (GPa) = 35.11597 119.22514 120.21429
#
# Poissons Ratio (x) = 0.04919 0.54636
# Poissons Ratio (y) = 0.01449 0.30629
# Poissons Ratio (z) = 0.15960 0.30377
#
# Static dielectric constant tensor:
#      x y z
#    x 1.861090 0.000000 0.007770 
#    y 0.000000 1.881080 0.000000 
#    z 0.007770 0.000000 1.755950 
# 
# From -- ./inp_files/190963.got.cif
#   From: 2010.05.17/outbox.cif.g08.bks.cpg/sg15_96_cif.got.tgz:190963.got - 2010.06.03 18:47:42.
