data_PCOD9275205
_publ_section_title
;
Structure prediction by ZEFSAII (Michael W. Deem and Ramdas Pophale) SiO2 
 PCOD9275205
Probable space group: C 2/C
;
_chemical_formula_sum "Si O2"
_cell_formula_units_Z 44
_cell_length_a 11.783378
_cell_length_b 14.430589
_cell_length_c 11.633788
_cell_angle_alpha 90.000000
_cell_angle_beta 87.317755
_cell_angle_gamma 90.000000
_cell_volume 1976.054642
_symmetry_space_group_name_H-M "C 2/C"
_symmetry_group_IT_number 15
_symmetry_cell_setting 'monoclinic'
loop_
_space_group_symop_operation_xyz
x,y,z
-x,y,1/2-z
-x,-y,-z
x,-y,1/2+z
1/2+x,1/2+y,z
1/2-x,1/2+y,1/2-z
1/2-x,1/2-y,-z
1/2+x,1/2-y,1/2+z
loop_
_atom_site_type_symbol
_atom_site_label
_atom_site_fract_x
_atom_site_fract_y
_atom_site_fract_z
Si Si1 0.000000 0.134467 0.250000
Si Si2 0.555842 0.268861 0.512054
Si Si3 0.745322 0.117506 0.264896
Si Si4 0.251746 0.825674 0.366947
Si Si5 0.653415 0.824641 0.535112
Si Si6 0.118326 0.447926 0.313996
O O1 0.002735 0.194152 0.368084
O O2 0.877252 0.086668 0.263429
O O3 0.643656 0.190909 0.551231
O O4 0.637626 0.341995 0.444550
O O5 0.460555 0.232079 0.431511
O O6 0.741279 0.224675 0.305555
O O7 0.663219 0.050278 0.338469
O O8 0.698961 0.115654 0.137702
O O9 0.288148 0.900893 0.273663
O O10 0.750000 0.750000 0.500000
O O11 0.618260 0.887004 0.428490
O O12 0.000000 0.447650 0.250000
#
# Coordination Sequence:
#
# PCOD9275205 Si02
#       6
#     4   8   8   8   8   8
#     4  10  20  46  64  92 144 190 230 284 354 422
#     4  10  20  38  73  94 130 188 233 276 349 413
#     4  11  26  42  70 105 139 184 240 293 348 420
#     4  10  22  43  67  99 139 184 231 289 351 407
#     4  12  22  43  73 102 136 191 237 283 350 421
#     4  12  26  47  71 103 143 185 233 293 358 417
#
# _framework density 22.266590999999998
#
# number of rings (size 3 to 8) (size 9 to 14) (size 15 to 20)
#    0.000    1.091    5.455    1.091    3.818    5.091 
#    3.273    1.818    0.000    0.000    0.000    0.000 
#    0.000    0.000    0.000    0.000    0.000    0.000 
#
# Total GULP energy -122963.635045 kJ/mol
# GULP energy per Si atom -5589.256138 kJ/mol
# Density = 2.221591 g / cm^3
# Si number density = 22.266591 Si / 1000 Ang^3
#
#
#
# Elastic Constant Matrix: (Units=GPa)
#
#
# Indices 1 2 3 4 5 6 
#
# 1 121.7097 29.1814 32.1701 0.0000 19.9165 0.0000
# 2 29.1814 76.1509 13.0468 0.0000 5.0067 0.0000
# 3 32.1701 13.0468 69.9086 0.0000 9.0843 0.0000
# 4 0.0000 0.0000 0.0000 22.0404 0.0000 -2.6141
# 5 19.9165 5.0067 9.0843 0.0000 46.9753 0.0000
# 6 0.0000 0.0000 0.0000 -2.6141 0.0000 25.3620
#
#
#
# Elastic Compliance Matrix: (Units=1/GPa)
#
#
# Indices 1 2 3 4 5 6 
#
# 1 0.010539 -0.003161 -0.003819 0.000000 -0.003393 0.000000
# 2 -0.003161 0.014558 -0.001267 0.000000 0.000034 0.000000
# 3 -0.003819 -0.001267 0.016484 0.000000 -0.001434 0.000000
# 4 0.000000 0.000000 0.000000 0.045933 0.000000 0.004734
# 5 -0.003393 0.000034 -0.001434 0.000000 0.023000 0.000000
# 6 0.000000 0.000000 0.000000 0.004734 0.000000 0.039917
#
#
# Mechanical properties :
#
#
# Convention : Reuss Voigt Hill
#
# Bulk Modulus (GPa) = 39.85970 46.28507 43.07238
# Shear Modulus (GPa) = 28.52467 31.76693 30.14580
#
# Velocity S-wave (km/s) = 3.58306 3.78122 3.68347
# Velocity P-wave (km/s) = 5.92096 6.31628 6.12181
#
# Compressibility (1/GPa) = 0.02508800
#
# Stress axis : x y z
#
# Youngs Moduli (GPa) = 94.88756 68.69080 60.66338
#
# Poissons Ratio (x) = 0.21714 0.23166
# Poissons Ratio (y) = 0.29996 0.07683
# Poissons Ratio (z) = 0.36236 0.08700
#
# Static dielectric constant tensor:
#      x y z
#    x 1.832300 0.000000 -0.030000 
#    y 0.000000 1.850070 0.000000 
#    z -0.030000 0.000000 1.843380 
# 
# From -- ./inp_files/86156.got.cif
#   From: 2010.05.17/outbox.cif.g08.bks.cpg/sg15_44_cif.got.tgz:86156.got - 2010.06.03 18:47:42.
