data_PCOD9275593
_publ_section_title
;
Structure prediction by ZEFSAII (Michael W. Deem and Ramdas Pophale) SiO2 
 PCOD9275593
Probable space group: C 2/C
;
_chemical_formula_sum "Si O2"
_cell_formula_units_Z 56
_cell_length_a 17.206080
_cell_length_b 30.267916
_cell_length_c 8.785625
_cell_angle_alpha 90.000000
_cell_angle_beta 139.431598
_cell_angle_gamma 90.000000
_cell_volume 2975.691216
_symmetry_space_group_name_H-M "C 2/C"
_symmetry_group_IT_number 15
_symmetry_cell_setting 'monoclinic'
loop_
_space_group_symop_operation_xyz
x,y,z
-x,y,1/2-z
-x,-y,-z
x,-y,1/2+z
1/2+x,1/2+y,z
1/2-x,1/2+y,1/2-z
1/2-x,1/2-y,-z
1/2+x,1/2-y,1/2+z
loop_
_atom_site_type_symbol
_atom_site_label
_atom_site_fract_x
_atom_site_fract_y
_atom_site_fract_z
Si Si1 0.094570 0.960969 0.647905
Si Si2 0.132020 0.155581 0.700565
Si Si3 0.144367 0.518889 0.887765
Si Si4 0.500000 0.593838 0.750000
Si Si5 0.398211 0.750869 0.736588
Si Si6 0.398852 0.848743 0.726229
Si Si7 0.050853 0.559735 0.064612
Si Si8 0.000000 0.891666 0.750000
O O1 0.058579 0.923303 0.712876
O O2 0.092400 0.937098 0.480235
O O3 0.215378 0.981451 0.889580
O O4 0.000000 0.000000 0.500000
O O5 0.066933 0.124894 0.729174
O O6 0.083981 0.205638 0.645275
O O7 0.097432 0.137237 0.484268
O O8 0.271457 0.152912 0.951145
O O9 0.096012 0.470756 0.769644
O O10 0.089871 0.551494 0.677137
O O11 0.104308 0.537912 0.991280
O O12 0.500000 0.748396 0.750000
O O13 0.250000 0.750000 0.500000
O O14 0.418302 0.800396 0.829467
O O15 0.500000 0.855462 0.750000
O O16 0.410149 0.890255 0.854662
#
# Coordination Sequence:
#
# PCOD9275593 Si02
#       8
#     8   8   8   4   8   8   8   4
#     4  11  24  37  56  83 120 156 198 247 289 351
#     4  10  20  39  63  87 122 150 200 243 301 366
#     4  10  24  39  58  79 121 149 205 240 297 347
#     4  10  21  38  58  84 108 164 194 233 294 348
#     4   9  18  37  63  94 118 156 201 255 300 374
#     4  10  22  35  64  89 116 152 203 242 298 359
#     4  10  23  40  58  85 107 164 191 248 295 352
#     4  10  25  36  56  94 116 160 192 245 310 344
#
# _framework density 18.819157000000001
#
# number of rings (size 3 to 8) (size 9 to 14) (size 15 to 20)
#    0.000    2.000    0.714    1.286   14.000    0.000 
#    0.000    1.429    0.000    7.714    0.000    0.000 
#    0.000    0.000    0.000    0.000    0.000    0.000 
#
# Total GULP energy -155923.129052 kJ/mol
# GULP energy per Si atom -5568.683180 kJ/mol
# Density = 1.877632 g / cm^3
# Si number density = 18.819157 Si / 1000 Ang^3
#
#
#
# Elastic Constant Matrix: (Units=GPa)
#
#
# Indices 1 2 3 4 5 6 
#
# 1 60.0684 35.6271 38.5670 0.0000 3.8390 0.0000
# 2 35.6271 170.0702 67.3825 0.0000 -12.5342 0.0000
# 3 38.5670 67.3825 128.8349 0.0000 11.3696 0.0000
# 4 0.0000 0.0000 0.0000 12.4608 0.0000 -12.9603
# 5 3.8390 -12.5342 11.3696 0.0000 34.1189 0.0000
# 6 0.0000 0.0000 0.0000 -12.9603 0.0000 3.9211
#
#
#
# Elastic Compliance Matrix: (Units=1/GPa)
#
#
# Indices 1 2 3 4 5 6 
#
# 1 0.021488 -0.002709 -0.004857 0.000000 -0.001794 0.000000
# 2 -0.002709 0.008373 -0.003984 0.000000 0.004708 0.000000
# 3 -0.004857 -0.003984 0.011725 0.000000 -0.004824 0.000000
# 4 0.000000 0.000000 0.000000 -0.032920 0.000000 -0.108810
# 5 -0.001794 0.004708 -0.004824 0.000000 0.032848 0.000000
# 6 0.000000 0.000000 0.000000 -0.108810 0.000000 -0.104617
#
#
# Mechanical properties :
#
#
# Convention : Reuss Voigt Hill
#
# Bulk Modulus (GPa) = 54.09552 71.34742 62.72147
# Shear Modulus (GPa) = -147.74655 24.59329 -61.57663
#
# Velocity S-wave (km/s) = -8.87012 3.61892 -5.72636
# Velocity P-wave (km/s) = 8.72342 7.44692 3.21259
#
# Compressibility (1/GPa) = 0.01848582
#
# Stress axis : x y z
#
# Youngs Moduli (GPa) = 46.53821 119.43496 85.28762
#
# Poissons Ratio (x) = 0.32357 0.41425
# Poissons Ratio (y) = 0.12608 0.33975
# Poissons Ratio (z) = 0.22604 0.47578
#
# Static dielectric constant tensor:
#      x y z
#    x 1.711240 0.000000 0.036450 
#    y 0.000000 1.661330 0.000000 
#    z 0.036450 0.000000 1.698540 
# 
# From -- ./inp_files/52698.got.cif
#   From: 2010.05.17/outbox.cif.g08.bks.cpg/sg15_27_cif.got.tgz:52698.got - 2010.06.03 18:47:42.
