data_PCOD9275195
_publ_section_title
;
Structure prediction by ZEFSAII (Michael W. Deem and Ramdas Pophale) SiO2 
 PCOD9275195
Probable space group: C 2/C
;
_chemical_formula_sum "Si O2"
_cell_formula_units_Z 52
_cell_length_a 16.594910
_cell_length_b 14.716445
_cell_length_c 14.685274
_cell_angle_alpha 90.000000
_cell_angle_beta 138.675399
_cell_angle_gamma 90.000000
_cell_volume 2368.192849
_symmetry_space_group_name_H-M "C 2/C"
_symmetry_group_IT_number 15
_symmetry_cell_setting 'monoclinic'
loop_
_space_group_symop_operation_xyz
x,y,z
-x,y,1/2-z
-x,-y,-z
x,-y,1/2+z
1/2+x,1/2+y,z
1/2-x,1/2+y,1/2-z
1/2-x,1/2-y,-z
1/2+x,1/2-y,1/2+z
loop_
_atom_site_type_symbol
_atom_site_label
_atom_site_fract_x
_atom_site_fract_y
_atom_site_fract_z
Si Si1 0.241399 0.834610 0.557940
Si Si2 0.832390 0.034126 0.038135
Si Si3 0.028241 0.216080 0.016200
Si Si4 0.559680 0.915832 0.999816
Si Si5 0.500000 0.899546 0.750000
Si Si6 0.893566 0.090070 0.277864
Si Si7 0.196304 0.076371 0.685150
O O1 0.250000 0.750000 0.500000
O O2 0.142487 0.808347 0.549079
O O3 0.384021 0.851048 0.698667
O O4 0.192119 0.927687 0.472484
O O5 0.813909 0.084213 0.118708
O O6 0.974304 0.048440 0.133788
O O7 0.765743 0.068056 0.889246
O O8 0.995225 0.320345 0.970892
O O9 0.078108 0.189341 0.158673
O O10 0.914410 0.148268 0.901255
O O11 0.694227 0.899676 0.154837
O O12 0.558331 0.940453 0.891317
O O13 0.500000 0.000000 0.000000
O O14 0.843799 0.023979 0.314777
#
# Coordination Sequence:
#
# PCOD9275195 Si02
#       7
#     8   8   8   8   4   8   8
#     4  12  23  40  66 102 142 179 229 295 353 422
#     4  10  20  39  67 103 138 171 242 287 345 413
#     4  11  24  45  70 106 137 185 242 287 351 417
#     4  12  29  46  68  98 145 188 226 287 358 425
#     4  12  28  44  64  98 138 182 228 288 356 414
#     4  10  20  38  72 104 134 177 231 301 341 409
#     4  11  22  45  70  99 141 186 227 297 349 410
#
# _framework density 21.957671999999999
#
# number of rings (size 3 to 8) (size 9 to 14) (size 15 to 20)
#    0.000    0.923    4.615    2.769    2.154    1.231 
#    0.000    3.846    0.000    0.000    0.000    0.000 
#    0.000    0.000    0.000    0.000    0.000    0.000 
#
# Total GULP energy -145051.099427 kJ/mol
# GULP energy per Si atom -5578.888440 kJ/mol
# Density = 2.190770 g / cm^3
# Si number density = 21.957672 Si / 1000 Ang^3
#
#
#
# Elastic Constant Matrix: (Units=GPa)
#
#
# Indices 1 2 3 4 5 6 
#
# 1 91.6040 57.6723 51.8886 0.0000 -18.4660 0.0000
# 2 57.6723 112.7753 34.7535 0.0000 -22.8616 0.0000
# 3 51.8886 34.7535 140.2511 0.0000 -38.1233 0.0000
# 4 0.0000 0.0000 0.0000 6.7014 0.0000 -3.9705
# 5 -18.4660 -22.8616 -38.1233 0.0000 44.1675 0.0000
# 6 0.0000 0.0000 0.0000 -3.9705 0.0000 30.0634
#
#
#
# Elastic Compliance Matrix: (Units=1/GPa)
#
#
# Indices 1 2 3 4 5 6 
#
# 1 0.018845 -0.008214 -0.005162 0.000000 -0.000828 0.000000
# 2 -0.008214 0.013698 0.000834 0.000000 0.004376 0.000000
# 3 -0.005162 0.000834 0.010928 0.000000 0.007706 0.000000
# 4 0.000000 0.000000 0.000000 0.161890 0.000000 0.021381
# 5 -0.000828 0.004376 0.007706 0.000000 0.031211 0.000000
# 6 0.000000 0.000000 0.000000 0.021381 0.000000 0.036087
#
#
# Mechanical properties :
#
#
# Convention : Reuss Voigt Hill
#
# Bulk Modulus (GPa) = 54.38653 70.36214 62.37433
# Shear Modulus (GPa) = 16.45432 29.54087 22.99759
#
# Velocity S-wave (km/s) = 2.74042 3.67189 3.23981
# Velocity P-wave (km/s) = 5.90219 7.07750 6.51640
#
# Compressibility (1/GPa) = 0.01838691
#
# Stress axis : x y z
#
# Youngs Moduli (GPa) = 53.06406 73.00341 91.51051
#
# Poissons Ratio (x) = 0.59969 0.47236
# Poissons Ratio (y) = 0.43589 -0.07635
# Poissons Ratio (z) = 0.27391 -0.06091
#
# Static dielectric constant tensor:
#      x y z
#    x 1.518110 0.000000 -0.298960 
#    y 0.000000 1.817580 0.000000 
#    z -0.298960 0.000000 1.676260 
# 
# From -- ./inp_files/162625.got.cif
#   From: 2010.05.17/outbox.cif.g08.bks.cpg/sg15_82_cif.got.tgz:162625.got - 2010.06.03 18:47:42.
