data_PCOD9275292
_publ_section_title
;
Structure prediction by ZEFSAII (Michael W. Deem and Ramdas Pophale) SiO2 
 PCOD9275292
Probable space group: C 2/C
;
_chemical_formula_sum "Si O2"
_cell_formula_units_Z 48
_cell_length_a 11.755678
_cell_length_b 17.991713
_cell_length_c 13.150691
_cell_angle_alpha 90.000000
_cell_angle_beta 75.513914
_cell_angle_gamma 90.000000
_cell_volume 2693.007872
_symmetry_space_group_name_H-M "C 2/C"
_symmetry_group_IT_number 15
_symmetry_cell_setting 'monoclinic'
loop_
_space_group_symop_operation_xyz
x,y,z
-x,y,1/2-z
-x,-y,-z
x,-y,1/2+z
1/2+x,1/2+y,z
1/2-x,1/2+y,1/2-z
1/2-x,1/2-y,-z
1/2+x,1/2-y,1/2+z
loop_
_atom_site_type_symbol
_atom_site_label
_atom_site_fract_x
_atom_site_fract_y
_atom_site_fract_z
Si Si1 0.869406 0.882818 0.225683
Si Si2 0.777427 0.127376 0.958978
Si Si3 0.187479 0.259480 0.903671
Si Si4 0.920251 0.737706 0.502142
Si Si5 0.118211 0.179715 0.285755
Si Si6 0.385139 0.473513 0.587413
O O1 0.780063 0.887066 0.339615
O O2 0.836200 0.814966 0.158275
O O3 0.000000 0.879651 0.250000
O O4 0.856715 0.957233 0.163663
O O5 0.885606 0.185177 0.954106
O O6 0.664226 0.173271 0.018519
O O7 0.795861 0.054023 0.020598
O O8 0.269914 0.310542 0.813266
O O9 0.054640 0.284317 0.958223
O O10 0.250000 0.250000 0.000000
O O11 0.883424 0.758397 0.625307
O O12 0.105664 0.099627 0.343382
O O13 0.000000 0.191454 0.250000
O O14 0.500000 0.500000 0.500000
#
# Coordination Sequence:
#
# PCOD9275292 Si02
#       6
#     8   8   8   8   8   8
#     4  12  21  37  62  92 125 166 209 262 328 373
#     4  10  21  37  60  89 124 163 211 265 315 379
#     4  12  24  37  64  97 132 167 215 270 321 386
#     4  10  20  39  59  89 127 162 212 260 314 383
#     4  11  22  37  61  94 122 162 212 262 321 375
#     4  11  23  36  60  94 124 157 209 280 318 369
#
# _framework density 17.823934999999999
#
# number of rings (size 3 to 8) (size 9 to 14) (size 15 to 20)
#    0.000    1.000    6.667    1.500    0.000    0.000 
#    0.000    0.000    0.000    8.000    0.000    0.000 
#    0.000    0.000    0.000    0.000    0.000    0.000 
#
# Total GULP energy -133729.271314 kJ/mol
# GULP energy per Si atom -5572.052971 kJ/mol
# Density = 1.778337 g / cm^3
# Si number density = 17.823935 Si / 1000 Ang^3
#
#
#
# Elastic Constant Matrix: (Units=GPa)
#
#
# Indices 1 2 3 4 5 6 
#
# 1 94.9487 30.7948 35.9261 0.0000 -9.3975 0.0000
# 2 30.7948 82.7476 45.4477 0.0000 8.8252 0.0000
# 3 35.9261 45.4477 122.7913 0.0000 -1.5261 0.0000
# 4 0.0000 0.0000 0.0000 37.2043 0.0000 9.1171
# 5 -9.3975 8.8252 -1.5261 0.0000 34.5399 0.0000
# 6 0.0000 0.0000 0.0000 9.1171 0.0000 22.0633
#
#
#
# Elastic Compliance Matrix: (Units=1/GPa)
#
#
# Indices 1 2 3 4 5 6 
#
# 1 0.013184 -0.004147 -0.002266 0.000000 0.004547 0.000000
# 2 -0.004147 0.017084 -0.005181 0.000000 -0.005722 0.000000
# 3 -0.002266 -0.005181 0.010739 0.000000 0.001182 0.000000
# 4 0.000000 0.000000 0.000000 0.029907 0.000000 -0.012358
# 5 0.004547 -0.005722 0.001182 0.000000 0.031703 0.000000
# 6 0.000000 0.000000 0.000000 -0.012358 0.000000 0.050431
#
#
# Mechanical properties :
#
#
# Convention : Reuss Voigt Hill
#
# Bulk Modulus (GPa) = 56.11780 58.31387 57.21583
# Shear Modulus (GPa) = 27.44584 31.31610 29.38097
#
# Velocity S-wave (km/s) = 3.92832 4.19617 4.06445
# Velocity P-wave (km/s) = 7.22001 7.50098 7.36184
#
# Compressibility (1/GPa) = 0.01781966
#
# Stress axis : x y z
#
# Youngs Moduli (GPa) = 75.84723 58.53387 93.11673
#
# Poissons Ratio (x) = 0.24273 0.21101
# Poissons Ratio (y) = 0.31453 0.48244
# Poissons Ratio (z) = 0.17188 0.30327
#
# Static dielectric constant tensor:
#      x y z
#    x 1.735480 0.000000 0.846050 
#    y 0.000000 1.606150 0.000000 
#    z 0.846050 0.000000 7.810660 
# 
# From -- ./inp_files/87221.got.cif
#   From: 2010.05.17/outbox.cif.g08.bks.cpg/sg15_44_cif.got.tgz:87221.got - 2010.06.03 18:47:42.
