data_PCOD9275245
_publ_section_title
;
Structure prediction by ZEFSAII (Michael W. Deem and Ramdas Pophale) SiO2 
 PCOD9275245
Probable space group: C 2/C
;
_chemical_formula_sum "Si O2"
_cell_formula_units_Z 48
_cell_length_a 9.850643
_cell_length_b 29.527862
_cell_length_c 20.561895
_cell_angle_alpha 90.000000
_cell_angle_beta 152.881077
_cell_angle_gamma 90.000000
_cell_volume 2726.284005
_symmetry_space_group_name_H-M "C 2/C"
_symmetry_group_IT_number 15
_symmetry_cell_setting 'monoclinic'
loop_
_space_group_symop_operation_xyz
x,y,z
-x,y,1/2-z
-x,-y,-z
x,-y,1/2+z
1/2+x,1/2+y,z
1/2-x,1/2+y,1/2-z
1/2-x,1/2-y,-z
1/2+x,1/2-y,1/2+z
loop_
_atom_site_type_symbol
_atom_site_label
_atom_site_fract_x
_atom_site_fract_y
_atom_site_fract_z
Si Si1 0.332638 0.554886 0.365120
Si Si2 0.751014 0.388670 0.802257
Si Si3 0.335568 0.451579 0.369439
Si Si4 0.455958 0.711082 0.655664
Si Si5 0.924965 0.106665 0.641510
Si Si6 0.279620 0.782697 0.821972
O O1 0.324326 0.582625 0.294579
O O2 0.449295 0.503207 0.406776
O O3 0.505485 0.573146 0.502035
O O4 0.000000 0.552291 0.250000
O O5 0.500000 0.396388 0.750000
O O6 0.749738 0.334797 0.785616
O O7 0.076352 0.399591 0.972293
O O8 0.385260 0.425502 0.323958
O O9 0.000000 0.454617 0.250000
O O10 0.500000 0.715980 0.750000
O O11 0.504934 0.658635 0.659033
O O12 0.681848 0.744809 0.716397
O O13 0.106249 0.720427 0.494049
O O14 0.000000 0.099544 0.750000
O O15 0.000000 0.774160 0.750000
#
# Coordination Sequence:
#
# PCOD9275245 Si02
#       6
#     8   8   8   8   8   8
#     4  10  20  39  58  80 112 145 187 234 273 324
#     4  10  21  37  58  82 110 148 189 227 273 329
#     4  10  22  37  57  83 112 145 184 231 281 326
#     4   9  19  36  55  78 111 144 177 224 275 321
#     4  10  21  38  56  80 115 148 182 228 278 330
#     4   9  19  36  55  81 109 140 184 225 267 324
#
# _framework density 17.606383000000001
#
# number of rings (size 3 to 8) (size 9 to 14) (size 15 to 20)
#    0.000    2.333    1.667    0.000    2.333    2.667 
#    3.000    1.667    0.000    0.000    0.000    0.000 
#    0.000    0.000    0.000    0.000    0.000    0.000 
#
# Total GULP energy -133617.617630 kJ/mol
# GULP energy per Si atom -5567.400735 kJ/mol
# Density = 1.756631 g / cm^3
# Si number density = 17.606383 Si / 1000 Ang^3
#
#
#
# Elastic Constant Matrix: (Units=GPa)
#
#
# Indices 1 2 3 4 5 6 
#
# 1 93.7848 68.9211 21.8915 -0.0236 3.0252 -0.1944
# 2 68.9211 76.4284 24.6866 -0.0273 -8.0560 -0.1280
# 3 21.8915 24.6866 54.3940 -0.1214 -11.8644 -0.4177
# 4 -0.0236 -0.0273 -0.1214 23.4362 -0.0066 0.4638
# 5 3.0252 -8.0560 -11.8644 -0.0066 25.7857 0.0926
# 6 -0.1944 -0.1280 -0.4177 0.4638 0.0926 77.9947
#
#
#
# Elastic Compliance Matrix: (Units=1/GPa)
#
#
# Indices 1 2 3 4 5 6 
#
# 1 0.036886 -0.034027 -0.002962 -0.000023 -0.016321 0.000040
# 2 -0.034027 0.046793 -0.003872 0.000006 0.016830 -0.000049
# 3 -0.002962 -0.003872 0.023506 0.000115 0.009953 0.000100
# 4 -0.000023 0.000006 0.000115 0.042675 0.000069 -0.000253
# 5 -0.016321 0.016830 0.009953 0.000069 0.050533 -0.000020
# 6 0.000040 -0.000049 0.000100 -0.000253 -0.000020 0.012823
#
#
# Mechanical properties :
#
#
# Convention : Reuss Voigt Hill
#
# Bulk Modulus (GPa) = 39.27171 50.62283 44.94727
# Shear Modulus (GPa) = 16.47849 32.71719 24.59784
#
# Velocity S-wave (km/s) = 3.06263 4.31543 3.74183
# Velocity P-wave (km/s) = 5.90424 7.32431 6.65228
#
# Compressibility (1/GPa) = 0.02546362
#
# Stress axis : x y z
#
# Youngs Moduli (GPa) = 27.11030 21.37075 42.54282
#
# Poissons Ratio (x) = 0.72717 0.12602
# Poissons Ratio (y) = 0.92247 0.16472
# Poissons Ratio (z) = 0.08030 0.08275
#
# Static dielectric constant tensor:
#      x y z
#    x 1.548260 0.000020 -0.044160 
#    y 0.000020 1.629760 0.000080 
#    z -0.044160 0.000080 1.552330 
# 
# From -- ./inp_files/26131.got.cif
#   From: 2010.05.17/outbox.cif.g08.bks.cpg/sg15_14_cif.got.tgz:26131.got - 2010.06.03 18:47:42.
