data_PCOD9275092
_publ_section_title
;
Structure prediction by ZEFSAII (Michael W. Deem and Ramdas Pophale) SiO2 
 PCOD9275092
Probable space group: C 2/C
;
_chemical_formula_sum "Si O2"
_cell_formula_units_Z 44
_cell_length_a 13.621168
_cell_length_b 18.527442
_cell_length_c 8.755086
_cell_angle_alpha 90.000000
_cell_angle_beta 117.911095
_cell_angle_gamma 90.000000
_cell_volume 1952.462933
_symmetry_space_group_name_H-M "C 2/C"
_symmetry_group_IT_number 15
_symmetry_cell_setting 'monoclinic'
loop_
_space_group_symop_operation_xyz
x,y,z
-x,y,1/2-z
-x,-y,-z
x,-y,1/2+z
1/2+x,1/2+y,z
1/2-x,1/2+y,1/2-z
1/2-x,1/2-y,-z
1/2+x,1/2-y,1/2+z
loop_
_atom_site_type_symbol
_atom_site_label
_atom_site_fract_x
_atom_site_fract_y
_atom_site_fract_z
Si Si1 0.826958 0.218536 0.687871
Si Si2 0.000000 0.164813 0.250000
Si Si3 0.191883 0.932402 0.797877
Si Si4 0.115872 0.298984 0.221708
Si Si5 0.883346 0.063906 0.601907
Si Si6 0.088779 0.658471 0.052874
O O1 0.750000 0.250000 0.500000
O O2 0.740459 0.203104 0.759536
O O3 0.875122 0.144481 0.661215
O O4 0.903883 0.280989 0.811215
O O5 0.890528 0.114850 0.151269
O O6 0.947709 0.221037 0.337151
O O7 0.129141 0.936939 0.589174
O O8 0.312133 0.897953 0.848847
O O9 0.205028 0.009827 0.886614
O O10 0.117228 0.314712 0.401875
O O11 0.042336 0.355708 0.070685
O O12 0.000000 0.034937 0.750000
#
# Coordination Sequence:
#
# PCOD9275092 Si02
#       6
#     8   4   8   8   8   8
#     4  12  24  42  65 100 136 170 224 274 337 391
#     4  10  20  38  68  96 134 162 222 260 338 386
#     4  12  25  45  65 100 134 177 217 278 337 401
#     4  10  24  38  69 102 125 181 220 282 319 397
#     4  12  29  42  69 100 136 174 218 281 340 396
#     4  10  23  42  69  93 135 172 229 266 330 396
#
# _framework density 22.535637000000001
#
# number of rings (size 3 to 8) (size 9 to 14) (size 15 to 20)
#    0.000    1.091    4.545    1.091   12.727    0.000 
#    0.000    0.909    0.000    0.000    0.000    0.000 
#    0.000    0.000    0.000    0.000    0.000    0.000 
#
# Total GULP energy -122669.622482 kJ/mol
# GULP energy per Si atom -5575.891931 kJ/mol
# Density = 2.248435 g / cm^3
# Si number density = 22.535637 Si / 1000 Ang^3
#
#
#
# Elastic Constant Matrix: (Units=GPa)
#
#
# Indices 1 2 3 4 5 6 
#
# 1 49.3706 16.3523 -1.0362 0.0000 0.1982 0.0000
# 2 16.3523 84.8344 20.9216 0.0000 2.6503 0.0000
# 3 -1.0362 20.9216 118.6464 0.0000 2.5416 0.0000
# 4 0.0000 0.0000 0.0000 19.0481 0.0000 -6.2431
# 5 0.1982 2.6503 2.5416 0.0000 22.5107 0.0000
# 6 0.0000 0.0000 0.0000 -6.2431 0.0000 34.7969
#
#
#
# Elastic Compliance Matrix: (Units=1/GPa)
#
#
# Indices 1 2 3 4 5 6 
#
# 1 0.021744 -0.004437 0.000968 0.000000 0.000222 0.000000
# 2 -0.004437 0.013262 -0.002350 0.000000 -0.001257 0.000000
# 3 0.000968 -0.002350 0.008867 0.000000 -0.000733 0.000000
# 4 0.000000 0.000000 0.000000 0.055779 0.000000 0.010008
# 5 0.000222 -0.001257 -0.000733 0.000000 0.044652 0.000000
# 6 0.000000 0.000000 0.000000 0.010008 0.000000 0.030534
#
#
# Mechanical properties :
#
#
# Convention : Reuss Voigt Hill
#
# Bulk Modulus (GPa) = 31.02367 36.14743 33.58555
# Shear Modulus (GPa) = 25.35226 29.71203 27.53215
#
# Velocity S-wave (km/s) = 3.35772 3.63498 3.49910
# Velocity P-wave (km/s) = 5.36924 5.80451 5.59112
#
# Compressibility (1/GPa) = 0.03223345
#
# Stress axis : x y z
#
# Youngs Moduli (GPa) = 45.98991 75.40459 112.77760
#
# Poissons Ratio (x) = 0.33455 -0.10911
# Poissons Ratio (y) = 0.20405 0.26507
# Poissons Ratio (z) = -0.04450 0.17723
#
# Static dielectric constant tensor:
#      x y z
#    x 2.095440 0.000000 -0.046260 
#    y 0.000000 2.396850 0.000000 
#    z -0.046260 0.000000 1.863040 
# 
# From -- ./inp_files/39736.got.cif
#   From: 2010.05.17/outbox.cif.g08.bks.cpg/sg15_20_cif.got.tgz:39736.got - 2010.06.03 18:47:42.
