data_PCOD9275471
_publ_section_title
;
Structure prediction by ZEFSAII (Michael W. Deem and Ramdas Pophale) SiO2 
 PCOD9275471
Probable space group: C 2/C
;
_chemical_formula_sum "Si O2"
_cell_formula_units_Z 56
_cell_length_a 13.263765
_cell_length_b 8.954857
_cell_length_c 30.077793
_cell_angle_alpha 90.000000
_cell_angle_beta 132.645224
_cell_angle_gamma 90.000000
_cell_volume 2627.792542
_symmetry_space_group_name_H-M "C 2/C"
_symmetry_group_IT_number 15
_symmetry_cell_setting 'monoclinic'
loop_
_space_group_symop_operation_xyz
x,y,z
-x,y,1/2-z
-x,-y,-z
x,-y,1/2+z
1/2+x,1/2+y,z
1/2-x,1/2+y,1/2-z
1/2-x,1/2-y,-z
1/2+x,1/2-y,1/2+z
loop_
_atom_site_type_symbol
_atom_site_label
_atom_site_fract_x
_atom_site_fract_y
_atom_site_fract_z
Si Si1 0.500000 0.342547 0.250000
Si Si2 0.788851 0.781182 0.620379
Si Si3 0.374941 0.293685 0.882365
Si Si4 0.500000 0.168623 0.750000
Si Si5 0.678906 0.596831 0.462213
Si Si6 0.664309 0.526306 0.046681
Si Si7 0.208030 0.488195 0.664563
Si Si8 0.351203 0.903973 0.752541
O O1 0.637589 0.441873 0.295413
O O2 0.532545 0.224261 0.219747
O O3 0.931889 0.758661 0.689278
O O4 0.789969 0.901609 0.580844
O O5 0.739596 0.620726 0.588493
O O6 0.690887 0.844594 0.628918
O O7 0.517330 0.375336 0.917855
O O8 0.312178 0.340547 0.911304
O O9 0.276178 0.340986 0.812937
O O10 0.392661 0.117429 0.882144
O O11 0.392360 0.056870 0.740438
O O12 0.750000 0.750000 0.500000
O O13 0.709271 0.469933 0.508227
O O14 0.500000 0.500000 0.000000
O O15 0.183230 0.441988 0.707523
#
# Coordination Sequence:
#
# PCOD9275471 Si02
#       8
#     4   8   8   4   8   8   8   8
#     4   9  23  40  56  90 144 170 214 266 326 410
#     4  11  22  36  61  95 124 158 219 266 324 398
#     4  10  20  39  62  86 124 167 214 266 328 389
#     4  11  21  36  62  96 124 168 216 260 328 406
#     4   9  20  38  62  87 116 163 216 266 309 383
#     4   9  19  40  63  84 117 167 217 262 316 384
#     4  11  24  38  60  98 133 169 210 270 337 399
#     4  10  22  38  60  91 132 178 209 259 340 405
#
# _framework density 21.310662000000001
#
# number of rings (size 3 to 8) (size 9 to 14) (size 15 to 20)
#    0.000    2.000    1.429    1.286    8.000    0.000 
#    2.571    7.143    0.000    0.000    0.000    0.000 
#    0.000    0.000    0.000    0.000    0.000    0.000 
#
# Total GULP energy -156100.897530 kJ/mol
# GULP energy per Si atom -5575.032055 kJ/mol
# Density = 2.126216 g / cm^3
# Si number density = 21.310662 Si / 1000 Ang^3
#
#
#
# Elastic Constant Matrix: (Units=GPa)
#
#
# Indices 1 2 3 4 5 6 
#
# 1 73.0253 5.5831 28.8262 0.0000 -24.1288 0.0000
# 2 5.5831 41.8307 11.9538 0.0000 -4.9999 0.0000
# 3 28.8262 11.9538 81.6713 0.0000 -24.5850 0.0000
# 4 0.0000 0.0000 0.0000 -33.2102 0.0000 1.5909
# 5 -24.1288 -4.9999 -24.5850 0.0000 23.4531 0.0000
# 6 0.0000 0.0000 0.0000 1.5909 0.0000 20.6772
#
#
#
# Elastic Compliance Matrix: (Units=1/GPa)
#
#
# Indices 1 2 3 4 5 6 
#
# 1 0.020843 -0.000008 -0.001316 0.000000 0.020062 0.000000
# 2 -0.000008 0.025026 -0.003005 0.000000 0.002177 0.000000
# 3 -0.001316 -0.003005 0.018333 0.000000 0.017223 0.000000
# 4 0.000000 0.000000 0.000000 -0.030001 0.000000 0.002308
# 5 0.020062 0.002177 0.017223 0.000000 0.081797 0.000000
# 6 0.000000 0.000000 0.000000 0.002308 0.000000 0.048185
#
#
# Mechanical properties :
#
#
# Convention : Reuss Voigt Hill
#
# Bulk Modulus (GPa) = 18.00367 32.13928 25.07148
# Shear Modulus (GPa) = 26.12941 12.19496 19.16218
#
# Velocity S-wave (km/s) = 3.50540 2.39476 3.00189
# Velocity P-wave (km/s) = 4.98501 4.77080 4.87908
#
# Compressibility (1/GPa) = 0.05554422
#
# Stress axis : x y z
#
# Youngs Moduli (GPa) = 47.97808 39.95873 54.54585
#
# Poissons Ratio (x) = 0.00031 0.07180
# Poissons Ratio (y) = 0.00037 0.16389
# Poissons Ratio (z) = 0.06316 0.12006
#
# Static dielectric constant tensor:
#      x y z
#    x 1.824480 0.000000 0.010480 
#    y 0.000000 1.818070 0.000000 
#    z 0.010480 0.000000 1.800670 
# 
# From -- ./inp_files/295258.got.cif
#   From: 2010.05.17/outbox.cif.g08.bks.cpg/sg15_148_cif.got.tgz:295258.got - 2010.06.03 18:47:42.
