data_PCOD9275182
_publ_section_title
;
Structure prediction by ZEFSAII (Michael W. Deem and Ramdas Pophale) SiO2 
 PCOD9275182
Probable space group: C 2/C
;
_chemical_formula_sum "Si O2"
_cell_formula_units_Z 52
_cell_length_a 16.306332
_cell_length_b 9.012526
_cell_length_c 22.770240
_cell_angle_alpha 90.000000
_cell_angle_beta 133.335839
_cell_angle_gamma 90.000000
_cell_volume 2433.941069
_symmetry_space_group_name_H-M "C 2/C"
_symmetry_group_IT_number 15
_symmetry_cell_setting 'monoclinic'
loop_
_space_group_symop_operation_xyz
x,y,z
-x,y,1/2-z
-x,-y,-z
x,-y,1/2+z
1/2+x,1/2+y,z
1/2-x,1/2+y,1/2-z
1/2-x,1/2-y,-z
1/2+x,1/2-y,1/2+z
loop_
_atom_site_type_symbol
_atom_site_label
_atom_site_fract_x
_atom_site_fract_y
_atom_site_fract_z
Si Si1 0.500000 0.251047 0.750000
Si Si2 0.617672 0.476209 0.524781
Si Si3 0.714572 0.165840 0.605580
Si Si4 0.104992 0.998181 0.382132
Si Si5 0.275947 0.145285 0.690657
Si Si6 0.059379 0.722593 0.221722
Si Si7 0.662995 0.948431 0.675266
O O1 0.433379 0.357815 0.672293
O O2 0.406777 0.160206 0.739275
O O3 0.500000 0.500000 0.500000
O O4 0.649974 0.302774 0.545313
O O5 0.613894 0.523590 0.455467
O O6 0.709605 0.571590 0.604870
O O7 0.780940 0.067721 0.590292
O O8 0.814449 0.235502 0.695482
O O9 0.639671 0.062132 0.611077
O O10 0.009593 0.872162 0.325348
O O11 0.229795 0.308316 0.682373
O O12 0.263536 0.039619 0.741058
O O13 0.063946 0.621999 0.166081
O O14 0.000000 0.654603 0.250000
#
# Coordination Sequence:
#
# PCOD9275182 Si02
#       7
#     4   8   8   8   8   8   8
#     4  12  26  44  78 108 134 182 248 304 346 414
#     4  12  28  45  70 107 151 189 230 297 367 420
#     4  11  22  45  70  99 140 189 236 287 347 427
#     4  11  23  46  74 101 142 189 233 291 363 422
#     4  12  26  44  72 109 142 184 242 298 358 418
#     4  10  20  38  71 101 131 182 239 283 338 426
#     4  12  22  41  73  99 140 179 243 287 339 425
#
# _framework density 21.364526999999999
#
# number of rings (size 3 to 8) (size 9 to 14) (size 15 to 20)
#    0.000    0.615    6.923    1.385    5.385    0.615 
#    0.000    4.615    3.385    0.000    0.000    0.000 
#    0.000    0.000    0.000    0.000    0.000    0.000 
#
# Total GULP energy -145470.783486 kJ/mol
# GULP energy per Si atom -5595.030134 kJ/mol
# Density = 2.131590 g / cm^3
# Si number density = 21.364527 Si / 1000 Ang^3
#
#
#
# Elastic Constant Matrix: (Units=GPa)
#
#
# Indices 1 2 3 4 5 6 
#
# 1 117.2965 27.6717 20.0714 0.0000 -18.9271 0.0000
# 2 27.6717 84.0634 21.4502 0.0000 -8.6331 0.0000
# 3 20.0714 21.4502 68.1489 0.0000 -30.0412 0.0000
# 4 0.0000 0.0000 0.0000-2425.1774 0.0000 -906.7367
# 5 -18.9271 -8.6331 -30.0412 0.0000 36.4148 0.0000
# 6 0.0000 0.0000 0.0000 -906.7367 0.0000 -292.4272
#
#
#
# Elastic Compliance Matrix: (Units=1/GPa)
#
#
# Indices 1 2 3 4 5 6 
#
# 1 0.009911 -0.002784 -0.000099 0.000000 0.004410 0.000000
# 2 -0.002784 0.013722 -0.004248 0.000000 -0.001698 0.000000
# 3 -0.000099 -0.004248 0.024473 0.000000 0.019131 0.000000
# 4 0.000000 0.000000 0.000000 0.002588 0.000000 -0.008025
# 5 0.004410 -0.001698 0.019131 0.000000 0.045134 0.000000
# 6 0.000000 0.000000 0.000000 -0.008025 0.000000 0.021465
#
#
# Mechanical properties :
#
#
# Convention : Reuss Voigt Hill
#
# Bulk Modulus (GPa) = 29.54683 45.32173 37.43428
# Shear Modulus (GPa) = 35.00546 -522.88358 -243.93906
#
# Velocity S-wave (km/s) = 4.05221 -15.66126 -10.69707
# Velocity P-wave (km/s) = 5.97945 17.48639 11.61938
#
# Compressibility (1/GPa) = 0.03384457
#
# Stress axis : x y z
#
# Youngs Moduli (GPa) = 100.90104 72.87695 40.86109
#
# Poissons Ratio (x) = 0.20291 0.00403
# Poissons Ratio (y) = 0.28094 0.17356
# Poissons Ratio (z) = 0.00995 0.30955
#
# Static dielectric constant tensor:
#      x y z
#    x 1.785500 0.000000 -0.000460 
#    y 0.000000 1.790880 0.000000 
#    z -0.000460 0.000000 1.744330 
# 
# From -- ./inp_files/247898.got.cif
#   From: 2010.05.17/outbox.cif.g08.bks.cpg/sg15_124_cif.got.tgz:247898.got - 2010.06.03 18:47:42.
