data_PCOD9275112
_publ_section_title
;
Structure prediction by ZEFSAII (Michael W. Deem and Ramdas Pophale) SiO2 
 PCOD9275112
Probable space group: C 2/C
;
_chemical_formula_sum "Si O2"
_cell_formula_units_Z 56
_cell_length_a 9.550987
_cell_length_b 15.877831
_cell_length_c 18.852699
_cell_angle_alpha 90.000000
_cell_angle_beta 95.420642
_cell_angle_gamma 90.000000
_cell_volume 2846.206723
_symmetry_space_group_name_H-M "C 2/C"
_symmetry_group_IT_number 15
_symmetry_cell_setting 'monoclinic'
loop_
_space_group_symop_operation_xyz
x,y,z
-x,y,1/2-z
-x,-y,-z
x,-y,1/2+z
1/2+x,1/2+y,z
1/2-x,1/2+y,1/2-z
1/2-x,1/2-y,-z
1/2+x,1/2-y,1/2+z
loop_
_atom_site_type_symbol
_atom_site_label
_atom_site_fract_x
_atom_site_fract_y
_atom_site_fract_z
Si Si1 0.734538 0.554986 0.390261
Si Si2 0.845723 0.332695 0.016494
Si Si3 0.567054 0.390554 0.606916
Si Si4 0.680890 0.424870 0.134877
Si Si5 0.853439 0.435764 0.281228
Si Si6 0.395765 0.614220 0.556021
Si Si7 0.141032 0.707926 0.600133
O O1 0.832224 0.611954 0.444566
O O2 0.587955 0.602146 0.367088
O O3 0.804234 0.516524 0.323912
O O4 0.685106 0.473427 0.433352
O O5 0.750000 0.250000 0.000000
O O6 0.781702 0.387057 0.078799
O O7 0.003628 0.306778 0.044640
O O8 0.655040 0.474726 0.625958
O O9 0.547359 0.387455 0.520770
O O10 0.638406 0.302682 0.628875
O O11 0.742947 0.411027 0.215294
O O12 0.528254 0.383791 0.114649
O O13 0.868334 0.359323 0.336997
O O14 0.000000 0.452482 0.250000
O O15 0.283731 0.686620 0.565269
#
# Coordination Sequence:
#
# PCOD9275112 Si02
#       7
#     8   8   8   8   8   8   8
#     4  10  21  38  66  97 126 173 225 263 339 408
#     4  12  21  40  70 104 125 175 226 287 331 391
#     4  11  20  41  67 102 124 175 222 277 330 405
#     4  11  22  43  69  86 140 178 217 278 336 400
#     4  11  25  44  62  96 136 179 221 283 344 401
#     4  10  20  38  68  99 130 166 223 275 332 391
#     4  11  24  38  67  98 137 169 224 277 342 394
#
# _framework density 19.67531
#
# number of rings (size 3 to 8) (size 9 to 14) (size 15 to 20)
#    0.000    1.143    5.714    1.286    0.000    8.571 
#    5.143    0.000    0.000    0.000    0.000    0.000 
#    0.000    0.000    0.000    0.000    0.000    0.000 
#
# Total GULP energy -156487.170465 kJ/mol
# GULP energy per Si atom -5588.827517 kJ/mol
# Density = 1.963053 g / cm^3
# Si number density = 19.675310 Si / 1000 Ang^3
#
#
#
# Elastic Constant Matrix: (Units=GPa)
#
#
# Indices 1 2 3 4 5 6 
#
# 1 103.1289 39.3975 32.1978 0.0000 4.7108 0.0000
# 2 39.3975 75.9526 8.4788 0.0000 0.5347 0.0000
# 3 32.1978 8.4788 82.2216 0.0000 6.1974 0.0000
# 4 0.0000 0.0000 0.0000 5.9856 0.0000 -0.4941
# 5 4.7108 0.5347 6.1974 0.0000 34.3350 0.0000
# 6 0.0000 0.0000 0.0000 -0.4941 0.0000 35.0209
#
#
#
# Elastic Compliance Matrix: (Units=1/GPa)
#
#
# Indices 1 2 3 4 5 6 
#
# 1 0.013694 -0.006582 -0.004613 0.000000 -0.000944 0.000000
# 2 -0.006582 0.016483 0.000840 0.000000 0.000495 0.000000
# 3 -0.004613 0.000840 0.014026 0.000000 -0.001912 0.000000
# 4 0.000000 0.000000 0.000000 0.167263 0.000000 0.002360
# 5 -0.000944 0.000495 -0.001912 0.000000 0.029592 0.000000
# 6 0.000000 0.000000 0.000000 0.002360 0.000000 0.028588
#
#
# Mechanical properties :
#
#
# Convention : Reuss Voigt Hill
#
# Bulk Modulus (GPa) = 42.56257 46.82792 44.69525
# Shear Modulus (GPa) = 16.76812 27.15024 21.95918
#
# Velocity S-wave (km/s) = 2.92248 3.71875 3.34440
# Velocity P-wave (km/s) = 5.75042 6.50314 6.13833
#
# Compressibility (1/GPa) = 0.02349482
#
# Stress axis : x y z
#
# Youngs Moduli (GPa) = 73.02339 60.66909 71.29595
#
# Poissons Ratio (x) = 0.39931 0.32887
# Poissons Ratio (y) = 0.48062 -0.05992
# Poissons Ratio (z) = 0.33684 -0.05099
#
# Static dielectric constant tensor:
#      x y z
#    x 1.697960 0.000000 -0.005230 
#    y 0.000000 1.704980 0.000000 
#    z -0.005230 0.000000 1.676020 
# 
# From -- ./inp_files/231585.got.cif
#   From: 2010.05.17/outbox.cif.g08.bks.cpg/sg15_116_cif.got.tgz:231585.got - 2010.06.03 18:47:42.
