data_PCOD9275451
_publ_section_title
;
Structure prediction by ZEFSAII (Michael W. Deem and Ramdas Pophale) SiO2 
 PCOD9275451
Probable space group: C 2/C
;
_chemical_formula_sum "Si O2"
_cell_formula_units_Z 64
_cell_length_a 11.678211
_cell_length_b 32.157738
_cell_length_c 18.349609
_cell_angle_alpha 90.000000
_cell_angle_beta 29.099358
_cell_angle_gamma 90.000000
_cell_volume 3351.318832
_symmetry_space_group_name_H-M "C 2/C"
_symmetry_group_IT_number 15
_symmetry_cell_setting 'monoclinic'
loop_
_space_group_symop_operation_xyz
x,y,z
-x,y,1/2-z
-x,-y,-z
x,-y,1/2+z
1/2+x,1/2+y,z
1/2-x,1/2+y,1/2-z
1/2-x,1/2-y,-z
1/2+x,1/2-y,1/2+z
loop_
_atom_site_type_symbol
_atom_site_label
_atom_site_fract_x
_atom_site_fract_y
_atom_site_fract_z
Si Si1 0.071707 0.121563 0.930643
Si Si2 0.959864 0.990106 0.187220
Si Si3 0.383254 0.880645 0.626817
Si Si4 0.151538 0.431637 0.600355
Si Si5 0.614147 0.288128 0.978013
Si Si6 0.576285 0.920338 0.376835
Si Si7 0.550557 0.209659 0.345070
Si Si8 0.927379 0.922090 0.914951
O O1 0.272513 0.106093 0.764490
O O2 0.043803 0.171056 0.945193
O O3 0.112773 0.101211 0.986537
O O4 0.825095 0.102446 0.039518
O O5 0.952582 0.032592 0.145950
O O6 0.000000 0.999896 0.250000
O O7 0.726994 0.961909 0.308678
O O8 0.179971 0.963529 0.035092
O O9 0.483539 0.907717 0.638110
O O10 0.535665 0.893956 0.472607
O O11 0.399808 0.832789 0.639877
O O12 0.113167 0.894177 0.767637
O O13 0.000000 0.451172 0.750000
O O14 0.480468 0.247717 0.082058
O O15 0.810998 0.296425 0.931201
O O16 0.751923 0.281064 0.825664
O O17 0.320444 0.929322 0.486415
#
# Coordination Sequence:
#
# PCOD9275451 Si02
#       8
#     8   8   8   8   8   8   8   8
#     4  11  23  42  66  92 138 172 214 266 335 392
#     4  11  25  43  66  97 130 167 224 292 331 374
#     4  12  22  42  67  95 132 179 213 273 335 395
#     4  11  21  39  67  94 126 176 216 266 331 397
#     4  10  20  39  62 105 130 168 206 276 333 388
#     4  11  27  42  65  99 127 173 231 272 326 398
#     4  10  21  36  67  98 138 160 215 269 334 395
#     4  12  26  43  67  89 132 184 217 271 329 399
#
# _framework density 19.096959999999999
#
# number of rings (size 3 to 8) (size 9 to 14) (size 15 to 20)
#    0.000    1.000    5.000    1.500    3.500    4.000 
#    0.000    0.000    0.000    4.500    0.000    0.000 
#    0.000    0.000    0.000    0.000    0.000    0.000 
#
# Total GULP energy -178884.320563 kJ/mol
# GULP energy per Si atom -5590.135018 kJ/mol
# Density = 1.905349 g / cm^3
# Si number density = 19.096960 Si / 1000 Ang^3
#
#
#
# Elastic Constant Matrix: (Units=GPa)
#
#
# Indices 1 2 3 4 5 6 
#
# 1 75.8537 51.2641 44.9062 0.0000 6.1920 0.0000
# 2 51.2641 156.9792 67.5189 0.0000 13.7890 0.0000
# 3 44.9062 67.5189 126.4950 0.0000 11.6826 0.0000
# 4 0.0000 0.0000 0.0000 20.3283 0.0000 7.7496
# 5 6.1920 13.7890 11.6826 0.0000 35.8064 0.0000
# 6 0.0000 0.0000 0.0000 7.7496 0.0000 24.8169
#
#
#
# Elastic Compliance Matrix: (Units=1/GPa)
#
#
# Indices 1 2 3 4 5 6 
#
# 1 0.018605 -0.004187 -0.004353 0.000000 -0.000185 0.000000
# 2 -0.004187 0.009325 -0.003326 0.000000 -0.001782 0.000000
# 3 -0.004353 -0.003326 0.011381 0.000000 -0.001680 0.000000
# 4 0.000000 0.000000 0.000000 0.055840 0.000000 -0.017437
# 5 -0.000185 -0.001782 -0.001680 0.000000 0.029194 0.000000
# 6 0.000000 0.000000 0.000000 -0.017437 0.000000 0.045740
#
#
# Mechanical properties :
#
#
# Convention : Reuss Voigt Hill
#
# Bulk Modulus (GPa) = 64.19087 76.30072 70.24579
# Shear Modulus (GPa) = 25.12419 29.23289 27.17854
#
# Velocity S-wave (km/s) = 3.63107 3.91674 3.77661
# Velocity P-wave (km/s) = 7.16001 7.77789 7.47533
#
# Compressibility (1/GPa) = 0.01557854
#
# Stress axis : x y z
#
# Youngs Moduli (GPa) = 53.74837 107.23969 87.86371
#
# Poissons Ratio (x) = 0.44906 0.38245
# Poissons Ratio (y) = 0.22507 0.29225
# Poissons Ratio (z) = 0.23395 0.35670
#
# Static dielectric constant tensor:
#      x y z
#    x 1.667260 0.000000 0.001710 
#    y 0.000000 1.637240 0.000000 
#    z 0.001710 0.000000 1.669060 
# 
# From -- ./inp_files/201469.got.cif
#   From: 2010.05.17/outbox.cif.g08.bks.cpg/sg15_101_cif.got.tgz:201469.got - 2010.06.03 18:47:42.
