data_PCOD9275483
_publ_section_title
;
Structure prediction by ZEFSAII (Michael W. Deem and Ramdas Pophale) SiO2 
 PCOD9275483
Probable space group: C 2/C
;
_chemical_formula_sum "Si O2"
_cell_formula_units_Z 40
_cell_length_a 12.913889
_cell_length_b 11.265514
_cell_length_c 11.584029
_cell_angle_alpha 90.000000
_cell_angle_beta 81.975300
_cell_angle_gamma 90.000000
_cell_volume 1668.760912
_symmetry_space_group_name_H-M "C 2/C"
_symmetry_group_IT_number 15
_symmetry_cell_setting 'monoclinic'
loop_
_space_group_symop_operation_xyz
x,y,z
-x,y,1/2-z
-x,-y,-z
x,-y,1/2+z
1/2+x,1/2+y,z
1/2-x,1/2+y,1/2-z
1/2-x,1/2-y,-z
1/2+x,1/2-y,1/2+z
loop_
_atom_site_type_symbol
_atom_site_label
_atom_site_fract_x
_atom_site_fract_y
_atom_site_fract_z
Si Si1 0.380935 0.401223 0.867797
Si Si2 0.167961 0.500920 0.514522
Si Si3 0.507993 0.806864 0.472777
Si Si4 0.895590 0.165583 0.886012
Si Si5 0.772609 0.833171 0.652752
O O1 0.271445 0.434349 0.949354
O O2 0.460079 0.307435 0.911632
O O3 0.429133 0.533365 0.855641
O O4 0.343997 0.352896 0.750636
O O5 0.080530 0.598179 0.537318
O O6 0.198599 0.444005 0.632695
O O7 0.113689 0.392268 0.449091
O O8 0.512056 0.757689 0.604236
O O9 0.804967 0.221412 0.822725
O O10 0.842609 0.169458 0.024170
#
# Coordination Sequence:
#
# PCOD9275483 Si02
#       5
#     8   8   8   8   8
#     4  11  21  36  67  88 117 168 207 247 318 381
#     4   9  21  41  59  88 129 157 203 263 309 365
#     4  10  20  39  62  87 125 163 202 258 312 368
#     4   9  20  40  57  87 126 152 203 260 304 370
#     4   9  20  38  61  87 119 163 200 253 315 369
#
# _framework density 23.969881000000001
#
# number of rings (size 3 to 8) (size 9 to 14) (size 15 to 20)
#    0.000    2.400    0.000    2.400    2.800    0.800 
#    3.600    8.000    0.000    0.000    0.000    0.000 
#    0.000    0.000    0.000    0.000    0.000    0.000 
#
# Total GULP energy -111360.927282 kJ/mol
# GULP energy per Si atom -5568.046364 kJ/mol
# Density = 2.391532 g / cm^3
# Si number density = 23.969881 Si / 1000 Ang^3
#
#
#
# Elastic Constant Matrix: (Units=GPa)
#
#
# Indices 1 2 3 4 5 6 
#
# 1 111.3656 50.3163 32.7184 0.0000 29.8134 0.0000
# 2 50.3163 170.1814 33.0109 0.0000 22.1601 0.0000
# 3 32.7184 33.0109 65.8539 0.0000 29.9241 0.0000
# 4 0.0000 0.0000 0.0000 21.8114 0.0000 26.8904
# 5 29.8134 22.1601 29.9241 0.0000 32.0753 0.0000
# 6 0.0000 0.0000 0.0000 26.8904 0.0000 33.5180
#
#
#
# Elastic Compliance Matrix: (Units=1/GPa)
#
#
# Indices 1 2 3 4 5 6 
#
# 1 0.012857 -0.002397 -0.000883 0.000000 -0.009471 0.000000
# 2 -0.002397 0.007076 -0.001991 0.000000 -0.000803 0.000000
# 3 -0.000883 -0.001991 0.027121 0.000000 -0.023106 0.000000
# 4 0.000000 0.000000 0.000000 4.199138 0.000000 -3.368829
# 5 -0.009471 -0.000803 -0.023106 0.000000 0.062091 0.000000
# 6 0.000000 0.000000 0.000000 -3.368829 0.000000 2.732533
#
#
# Mechanical properties :
#
#
# Convention : Reuss Voigt Hill
#
# Bulk Modulus (GPa) = 27.38785 64.38801 45.88793
# Shear Modulus (GPa) = 0.70786 32.90463 16.80624
#
# Velocity S-wave (km/s) = 0.54402 3.70908 2.65078
# Velocity P-wave (km/s) = 3.44171 6.72781 5.34363
#
# Compressibility (1/GPa) = 0.03651254
#
# Stress axis : x y z
#
# Youngs Moduli (GPa) = 77.77750 141.33222 36.87144
#
# Poissons Ratio (x) = 0.33876 0.03255
# Poissons Ratio (y) = 0.18643 0.07341
# Poissons Ratio (z) = 0.06866 0.28140
#
# Static dielectric constant tensor:
#      x y z
#    x 2.188170 0.000000 -0.043840 
#    y 0.000000 2.081860 0.000000 
#    z -0.043840 0.000000 1.926640 
# 
# From -- ./inp_files/95126.got.cif
#   From: 2010.05.17/outbox.cif.g08.bks.cpg/sg15_48_cif.got.tgz:95126.got - 2010.06.03 18:47:42.
