data_PCOD9275430
_publ_section_title
;
Structure prediction by ZEFSAII (Michael W. Deem and Ramdas Pophale) SiO2 
 PCOD9275430
Probable space group: C 2/C
;
_chemical_formula_sum "Si O2"
_cell_formula_units_Z 56
_cell_length_a 16.162142
_cell_length_b 9.343251
_cell_length_c 20.022402
_cell_angle_alpha 90.000000
_cell_angle_beta 64.045613
_cell_angle_gamma 90.000000
_cell_volume 2718.577739
_symmetry_space_group_name_H-M "C 2/C"
_symmetry_group_IT_number 15
_symmetry_cell_setting 'monoclinic'
loop_
_space_group_symop_operation_xyz
x,y,z
-x,y,1/2-z
-x,-y,-z
x,-y,1/2+z
1/2+x,1/2+y,z
1/2-x,1/2+y,1/2-z
1/2-x,1/2-y,-z
1/2+x,1/2-y,1/2+z
loop_
_atom_site_type_symbol
_atom_site_label
_atom_site_fract_x
_atom_site_fract_y
_atom_site_fract_z
Si Si1 0.823631 0.027541 0.261710
Si Si2 0.531885 0.957886 0.814262
Si Si3 0.335876 0.260559 0.167749
Si Si4 0.989387 0.169045 0.512347
Si Si5 0.094255 0.253136 0.349514
Si Si6 0.371066 0.146154 0.452969
Si Si7 0.758512 0.825911 0.388591
O O1 0.745265 0.144716 0.306192
O O2 0.905407 0.122959 0.202780
O O3 0.804618 0.911460 0.209814
O O4 0.828589 0.929458 0.325623
O O5 0.500000 0.960208 0.750000
O O6 0.590310 0.815735 0.809142
O O7 0.444431 0.958126 0.894465
O O8 0.588797 0.097573 0.813484
O O9 0.392230 0.288336 0.079640
O O10 0.013977 0.237713 0.432378
O O11 0.068322 0.227868 0.534537
O O12 0.000000 0.000000 0.500000
O O13 0.189664 0.255415 0.358539
O O14 0.306968 0.090736 0.535552
O O15 0.309588 0.209109 0.415167
#
# Coordination Sequence:
#
# PCOD9275430 Si02
#       7
#     8   8   8   8   8   8   8
#     4  12  21  37  62  93 123 166 207 259 312 380
#     4  11  23  41  61  93 126 169 210 264 315 380
#     4  11  22  37  64  93 122 166 211 254 319 373
#     4  10  21  40  63  90 125 165 209 259 316 381
#     4  11  23  39  64  91 129 166 209 262 320 374
#     4   9  22  38  64  90 118 168 208 260 308 382
#     4  10  20  39  61  91 123 157 215 254 311 381
#
# _framework density 20.599007
#
# number of rings (size 3 to 8) (size 9 to 14) (size 15 to 20)
#    0.000    1.429    4.286    0.857    2.000    1.714 
#    2.571    0.714    0.000    1.714    0.000    0.000 
#    0.000    0.000    0.000    0.000    0.000    0.000 
#
# Total GULP energy -156241.680008 kJ/mol
# GULP energy per Si atom -5580.060000 kJ/mol
# Density = 2.055212 g / cm^3
# Si number density = 20.599007 Si / 1000 Ang^3
#
#
#
# Elastic Constant Matrix: (Units=GPa)
#
#
# Indices 1 2 3 4 5 6 
#
# 1 15.3267 0.1617 16.3058 0.0000 1.9378 0.0000
# 2 0.1617 93.4762 42.6456 0.0000 0.5058 0.0000
# 3 16.3058 42.6456 128.4041 0.0000 -4.2273 0.0000
# 4 0.0000 0.0000 0.0000 36.0405 0.0000 -12.0131
# 5 1.9378 0.5058 -4.2273 0.0000 25.6369 0.0000
# 6 0.0000 0.0000 0.0000 -12.0131 0.0000 7.4698
#
#
#
# Elastic Compliance Matrix: (Units=1/GPa)
#
#
# Indices 1 2 3 4 5 6 
#
# 1 0.079100 0.005434 -0.012116 0.000000 -0.008084 0.000000
# 2 0.005434 0.013004 -0.005059 0.000000 -0.001501 0.000000
# 3 -0.012116 -0.005059 0.011100 0.000000 0.002846 0.000000
# 4 0.000000 0.000000 0.000000 0.059806 0.000000 0.096182
# 5 -0.008084 -0.001501 0.002846 0.000000 0.040116 0.000000
# 6 0.000000 0.000000 0.000000 0.096182 0.000000 0.288556
#
#
# Mechanical properties :
#
#
# Convention : Reuss Voigt Hill
#
# Bulk Modulus (GPa) = 12.54315 39.49256 26.01786
# Shear Modulus (GPa) = 9.22954 25.70234 17.46594
#
# Velocity S-wave (km/s) = 2.11903 3.53618 2.91504
# Velocity P-wave (km/s) = 3.47699 5.99053 4.89775
#
# Compressibility (1/GPa) = 0.07972476
#
# Stress axis : x y z
#
# Youngs Moduli (GPa) = 12.64222 76.89669 90.08819
#
# Poissons Ratio (x) = -0.41789 1.09149
# Poissons Ratio (y) = -0.06870 0.45572
# Poissons Ratio (z) = 0.15317 0.38899
#
# Static dielectric constant tensor:
#      x y z
#    x 1.731010 0.000000 -0.042470 
#    y 0.000000 1.709920 0.000000 
#    z -0.042470 0.000000 1.785830 
# 
# From -- ./inp_files/276239.got.cif
#   From: 2010.05.17/outbox.cif.g08.bks.cpg/sg15_139_cif.got.tgz:276239.got - 2010.06.03 18:47:42.
