data_PCOD9275326
_publ_section_title
;
Structure prediction by ZEFSAII (Michael W. Deem and Ramdas Pophale) SiO2 
 PCOD9275326
Probable space group: C 2/C
;
_chemical_formula_sum "Si O2"
_cell_formula_units_Z 52
_cell_length_a 8.301047
_cell_length_b 25.387694
_cell_length_c 14.459247
_cell_angle_alpha 90.000000
_cell_angle_beta 62.912981
_cell_angle_gamma 90.000000
_cell_volume 2712.976164
_symmetry_space_group_name_H-M "C 2/C"
_symmetry_group_IT_number 15
_symmetry_cell_setting 'monoclinic'
loop_
_space_group_symop_operation_xyz
x,y,z
-x,y,1/2-z
-x,-y,-z
x,-y,1/2+z
1/2+x,1/2+y,z
1/2-x,1/2+y,1/2-z
1/2-x,1/2-y,-z
1/2+x,1/2-y,1/2+z
loop_
_atom_site_type_symbol
_atom_site_label
_atom_site_fract_x
_atom_site_fract_y
_atom_site_fract_z
Si Si1 0.298954 0.520236 0.071879
Si Si2 0.813050 0.309604 0.854014
Si Si3 0.142346 0.611007 0.989739
Si Si4 0.214238 0.195979 0.679521
Si Si5 0.500000 0.166461 0.750000
Si Si6 0.057784 0.104198 0.341343
Si Si7 0.685973 0.090895 0.550523
O O1 0.313136 0.555370 0.160896
O O2 0.182316 0.467247 0.096934
O O3 0.500000 0.500000 0.000000
O O4 0.238914 0.560450 0.007587
O O5 0.747733 0.249846 0.886643
O O6 0.666992 0.342545 0.833515
O O7 0.000000 0.306568 0.750000
O O8 0.856169 0.344378 0.932157
O O9 0.241765 0.640700 0.880525
O O10 0.948331 0.594666 0.001531
O O11 0.346625 0.198249 0.733692
O O12 0.000000 0.195238 0.750000
O O13 0.612689 0.131439 0.646548
O O14 0.000000 0.099863 0.250000
O O15 0.884717 0.102749 0.456199
#
# Coordination Sequence:
#
# PCOD9275326 Si02
#       7
#     8   8   8   8   4   8   8
#     4   9  20  37  59  86 120 156 204 248 304 365
#     4  10  21  38  60  89 119 157 201 251 307 368
#     4  10  20  39  60  86 119 156 203 252 304 361
#     4  10  23  39  63  87 125 164 205 252 310 366
#     4  10  24  42  60  94 122 168 210 250 306 376
#     4  10  21  38  62  89 122 158 201 258 304 363
#     4  10  21  42  59  90 124 160 206 251 307 364
#
# _framework density 19.167141000000001
#
# number of rings (size 3 to 8) (size 9 to 14) (size 15 to 20)
#    0.000    2.154    0.000    1.846    7.538    0.000 
#   19.385    1.538    0.000    0.000    0.000    0.000 
#    0.000    0.000    0.000    0.000    0.000    0.000 
#
# Total GULP energy -144888.339610 kJ/mol
# GULP energy per Si atom -5572.628447 kJ/mol
# Density = 1.912352 g / cm^3
# Si number density = 19.167141 Si / 1000 Ang^3
#
#
#
# Elastic Constant Matrix: (Units=GPa)
#
#
# Indices 1 2 3 4 5 6 
#
# 1 130.9565 51.0556 26.4617 0.0000 12.4427 0.0000
# 2 51.0556 89.9023 9.4807 0.0000 -9.3251 0.0000
# 3 26.4617 9.4807 46.8187 0.0000 5.4845 0.0000
# 4 0.0000 0.0000 0.0000 19.2659 0.0000 -7.0825
# 5 12.4427 -9.3251 5.4845 0.0000 25.5351 0.0000
# 6 0.0000 0.0000 0.0000 -7.0825 0.0000 19.7429
#
#
#
# Elastic Compliance Matrix: (Units=1/GPa)
#
#
# Indices 1 2 3 4 5 6 
#
# 1 0.012041 -0.007145 -0.004478 0.000000 -0.007515 0.000000
# 2 -0.007145 0.016201 -0.000352 0.000000 0.009474 0.000000
# 3 -0.004478 -0.000352 0.024333 0.000000 -0.003173 0.000000
# 4 0.000000 0.000000 0.000000 0.059790 0.000000 0.021449
# 5 -0.007515 0.009474 -0.003173 0.000000 0.046965 0.000000
# 6 0.000000 0.000000 0.000000 0.021449 0.000000 0.058346
#
#
# Mechanical properties :
#
#
# Convention : Reuss Voigt Hill
#
# Bulk Modulus (GPa) = 34.93602 49.07485 42.00544
# Shear Modulus (GPa) = 19.90711 24.95408 22.43060
#
# Velocity S-wave (km/s) = 3.22624 3.61213 3.42462
# Velocity P-wave (km/s) = 5.66963 6.56169 6.13191
#
# Compressibility (1/GPa) = 0.02862375
#
# Stress axis : x y z
#
# Youngs Moduli (GPa) = 83.05219 61.72590 41.09654
#
# Poissons Ratio (x) = 0.44104 0.18404
# Poissons Ratio (y) = 0.59342 0.01447
# Poissons Ratio (z) = 0.37192 0.02173
#
# Static dielectric constant tensor:
#      x y z
#    x 1.687150 0.000000 -0.018930 
#    y 0.000000 1.672050 0.000000 
#    z -0.018930 0.000000 1.272540 
# 
# From -- ./inp_files/137191.got.cif
#   From: 2010.05.17/outbox.cif.g08.bks.cpg/sg15_69_cif.got.tgz:137191.got - 2010.06.03 18:47:42.
