data_PCOD9275905
_publ_section_title
;
Structure prediction by ZEFSAII (Michael W. Deem and Ramdas Pophale) SiO2 
 PCOD9275905
Probable space group: C 2/C
;
_chemical_formula_sum "Si O2"
_cell_formula_units_Z 44
_cell_length_a 17.650578
_cell_length_b 14.347400
_cell_length_c 11.908744
_cell_angle_alpha 90.000000
_cell_angle_beta 48.725607
_cell_angle_gamma 90.000000
_cell_volume 2266.528556
_symmetry_space_group_name_H-M "C 2/C"
_symmetry_group_IT_number 15
_symmetry_cell_setting 'monoclinic'
loop_
_space_group_symop_operation_xyz
x,y,z
-x,y,1/2-z
-x,-y,-z
x,-y,1/2+z
1/2+x,1/2+y,z
1/2-x,1/2+y,1/2-z
1/2-x,1/2-y,-z
1/2+x,1/2-y,1/2+z
loop_
_atom_site_type_symbol
_atom_site_label
_atom_site_fract_x
_atom_site_fract_y
_atom_site_fract_z
Si Si1 0.252903 0.156175 0.229561
Si Si2 0.000000 0.906029 0.250000
Si Si3 0.326854 0.491525 0.057553
Si Si4 0.384056 0.674847 0.659195
Si Si5 0.549206 0.278085 0.817039
Si Si6 0.810713 0.348629 0.439037
O O1 0.239958 0.077069 0.333719
O O2 0.290388 0.253974 0.244405
O O3 0.142999 0.166553 0.278683
O O4 0.326611 0.129666 0.054175
O O5 0.067482 0.843509 0.267547
O O6 0.924770 0.968200 0.399051
O O7 0.357073 0.425244 0.131968
O O8 0.259982 0.426243 0.043843
O O9 0.465872 0.719169 0.494298
O O10 0.500000 0.318078 0.750000
O O11 0.594827 0.179038 0.730727
O O12 0.750000 0.250000 0.500000
#
# Coordination Sequence:
#
# PCOD9275905 Si02
#       6
#     8   4   8   8   8   8
#     4  11  23  42  66  98 132 175 217 276 337 383
#     4  12  28  38  66 106 132 172 222 282 340 390
#     4  12  24  41  66 100 134 172 225 274 328 400
#     4  12  24  44  68  96 139 173 221 278 333 394
#     4  11  20  39  71  96 124 171 226 266 322 389
#     4  10  20  39  65  95 129 175 215 267 327 382
#
# _framework density 19.412948
#
# number of rings (size 3 to 8) (size 9 to 14) (size 15 to 20)
#    0.000    0.727    7.273    2.727    6.364    0.727 
#    0.000    0.909    2.000    0.000    0.000    0.000 
#    0.000    0.000    0.000    0.000    0.000    0.000 
#
# Total GULP energy -122786.625516 kJ/mol
# GULP energy per Si atom -5581.210251 kJ/mol
# Density = 1.936876 g / cm^3
# Si number density = 19.412948 Si / 1000 Ang^3
#
#
#
# Elastic Constant Matrix: (Units=GPa)
#
#
# Indices 1 2 3 4 5 6 
#
# 1 115.0045 51.3953 4.4357 0.0000 19.8518 0.0000
# 2 51.3953 99.5224 51.0453 0.0000 5.3136 0.0000
# 3 4.4357 51.0453 56.4962 0.0000 3.2450 0.0000
# 4 0.0000 0.0000 0.0000 37.7026 0.0000 3.4515
# 5 19.8518 5.3136 3.2450 0.0000 29.8336 0.0000
# 6 0.0000 0.0000 0.0000 3.4515 0.0000 29.7936
#
#
#
# Elastic Compliance Matrix: (Units=1/GPa)
#
#
# Indices 1 2 3 4 5 6 
#
# 1 0.016062 -0.013829 0.011780 0.000000 -0.009506 0.000000
# 2 -0.013829 0.030700 -0.027035 0.000000 0.006675 0.000000
# 3 0.011780 -0.027035 0.041636 0.000000 -0.007552 0.000000
# 4 0.000000 0.000000 0.000000 0.026808 0.000000 -0.003106
# 5 -0.009506 0.006675 -0.007552 0.000000 0.039477 0.000000
# 6 0.000000 0.000000 0.000000 -0.003106 0.000000 0.033924
#
#
# Mechanical properties :
#
#
# Convention : Reuss Voigt Hill
#
# Bulk Modulus (GPa) = 33.08125 53.86396 43.47261
# Shear Modulus (GPa) = 19.46639 30.40908 24.93774
#
# Velocity S-wave (km/s) = 3.17006 3.96211 3.58801
# Velocity P-wave (km/s) = 5.52059 6.98124 6.29343
#
# Compressibility (1/GPa) = 0.03022860
#
# Stress axis : x y z
#
# Youngs Moduli (GPa) = 62.25825 32.57355 24.01757
#
# Poissons Ratio (x) = 0.45046 -0.28292
# Poissons Ratio (y) = 0.86098 0.64932
# Poissons Ratio (z) = -0.73339 0.88064
#
# Static dielectric constant tensor:
#      x y z
#    x 1.729780 0.000000 -0.021460 
#    y 0.000000 1.664640 0.000000 
#    z -0.021460 0.000000 1.760540 
# 
# From -- ./inp_files/105192.got.cif
#   From: 2010.05.17/outbox.cif.g08.bks.cpg/sg15_53_cif.got.tgz:105192.got - 2010.06.03 18:47:42.
