data_PCOD9275315
_publ_section_title
;
Structure prediction by ZEFSAII (Michael W. Deem and Ramdas Pophale) SiO2 
 PCOD9275315
Probable space group: C 2/C
;
_chemical_formula_sum "Si O2"
_cell_formula_units_Z 64
_cell_length_a 17.467777
_cell_length_b 7.273975
_cell_length_c 25.122244
_cell_angle_alpha 90.000000
_cell_angle_beta 64.908607
_cell_angle_gamma 90.000000
_cell_volume 2890.812192
_symmetry_space_group_name_H-M "C 2/C"
_symmetry_group_IT_number 15
_symmetry_cell_setting 'monoclinic'
loop_
_space_group_symop_operation_xyz
x,y,z
-x,y,1/2-z
-x,-y,-z
x,-y,1/2+z
1/2+x,1/2+y,z
1/2-x,1/2+y,1/2-z
1/2-x,1/2-y,-z
1/2+x,1/2-y,1/2+z
loop_
_atom_site_type_symbol
_atom_site_label
_atom_site_fract_x
_atom_site_fract_y
_atom_site_fract_z
Si Si1 0.735600 0.972849 0.824036
Si Si2 0.510649 0.735091 0.688123
Si Si3 0.952783 0.646969 0.711450
Si Si4 0.734912 0.911285 0.210209
Si Si5 0.984835 0.174632 0.580550
Si Si6 0.048077 0.398790 0.400939
Si Si7 0.794140 0.283837 0.869819
Si Si8 0.386136 0.603106 0.039370
O O1 0.771602 0.029928 0.755928
O O2 0.644596 0.066052 0.855487
O O3 0.786674 0.070014 0.855570
O O4 0.718995 0.757251 0.831150
O O5 0.500000 0.646791 0.750000
O O6 0.476876 0.632591 0.645844
O O7 0.606868 0.800665 0.646141
O O8 0.458451 0.923828 0.709153
O O9 0.855486 0.682346 0.751469
O O10 0.988654 0.692619 0.642296
O O11 0.000000 0.713621 0.750000
O O12 0.722529 0.087378 0.176903
O O13 0.986710 0.398199 0.576457
O O14 0.073212 0.097894 0.530904
O O15 0.913397 0.076828 0.565185
O O16 0.058662 0.261437 0.446669
O O17 0.713441 0.344300 0.929633
#
# Coordination Sequence:
#
# PCOD9275315 Si02
#       8
#     8   8   8   8   8   8   8   8
#     4  10  21  31  52  85 109 152 196 238 295 344
#     4  10  20  39  60  84 120 158 191 235 306 365
#     4   9  17  33  52  77 112 155 191 221 290 359
#     4  11  18  33  53  74 117 153 189 238 290 343
#     4  10  21  40  63  83 117 156 194 246 293 351
#     4   9  19  36  56  79 113 149 190 243 291 346
#     4  11  21  36  57  84 121 149 198 249 287 359
#     4  10  22  38  60  90 110 151 210 242 285 345
#
# _framework density 22.139106999999999
#
# number of rings (size 3 to 8) (size 9 to 14) (size 15 to 20)
#    0.000    2.000    3.750    1.125    0.000    1.500 
#    2.250    0.000    0.000    0.000    0.000   11.375 
#    0.000    0.000    0.000    0.000    0.000    0.000 
#
# Total GULP energy -178315.000492 kJ/mol
# GULP energy per Si atom -5572.343765 kJ/mol
# Density = 2.208872 g / cm^3
# Si number density = 22.139107 Si / 1000 Ang^3
#
#
#
# Elastic Constant Matrix: (Units=GPa)
#
#
# Indices 1 2 3 4 5 6 
#
# 1 44.1996 6.5318 13.6573 0.0000 -4.2055 0.0005
# 2 6.5318 87.3941 12.0610 0.0001 -2.2406 0.0006
# 3 13.6573 12.0610 88.0083 0.0000 2.2425 0.0001
# 4 0.0000 0.0001 0.0000 19.6855 -0.0001 -1.8949
# 5 -4.2055 -2.2406 2.2425 -0.0001 24.4173 0.0000
# 6 0.0005 0.0006 0.0001 -1.8949 0.0000 8.2699
#
#
#
# Elastic Compliance Matrix: (Units=1/GPa)
#
#
# Indices 1 2 3 4 5 6 
#
# 1 0.024376 -0.001193 -0.003732 0.000000 0.004432 -0.000001
# 2 -0.001193 0.011758 -0.001452 0.000000 0.001007 -0.000001
# 3 -0.003732 -0.001452 0.012189 0.000000 -0.001895 0.000000
# 4 0.000000 0.000000 0.000000 0.051945 0.000000 0.011902
# 5 0.004432 0.001007 -0.001895 0.000000 0.041984 0.000000
# 6 -0.000001 -0.000001 0.000000 0.011902 0.000000 0.123648
#
#
# Mechanical properties :
#
#
# Convention : Reuss Voigt Hill
#
# Bulk Modulus (GPa) = 28.11486 31.56692 29.84089
# Shear Modulus (GPa) = 17.21110 22.96463 20.08786
#
# Velocity S-wave (km/s) = 2.79123 3.22419 3.01549
# Velocity P-wave (km/s) = 4.80777 5.30565 5.06284
#
# Compressibility (1/GPa) = 0.03556837
#
# Stress axis : x y z
#
# Youngs Moduli (GPa) = 41.02429 85.05010 82.04129
#
# Poissons Ratio (x) = 0.10148 0.30619
# Poissons Ratio (y) = 0.04895 0.11911
# Poissons Ratio (z) = 0.15311 0.12348
#
# Static dielectric constant tensor:
#      x y z
#    x 1.887380 0.000000 0.028340 
#    y 0.000000 1.855170 0.000000 
#    z 0.028340 0.000000 1.948210 
# 
# From -- ./inp_files/279385.got.cif
#   From: 2010.05.17/outbox.cif.g08.bks.cpg/sg15_140_cif.got.tgz:279385.got - 2010.06.03 18:47:42.
