data_PCOD9275470
_publ_section_title
;
Structure prediction by ZEFSAII (Michael W. Deem and Ramdas Pophale) SiO2 
 PCOD9275470
Probable space group: C 2/C
;
_chemical_formula_sum "Si O2"
_cell_formula_units_Z 56
_cell_length_a 25.154631
_cell_length_b 13.469665
_cell_length_c 16.723740
_cell_angle_alpha 90.000000
_cell_angle_beta 29.537593
_cell_angle_gamma 90.000000
_cell_volume 2793.510052
_symmetry_space_group_name_H-M "C 2/C"
_symmetry_group_IT_number 15
_symmetry_cell_setting 'monoclinic'
loop_
_space_group_symop_operation_xyz
x,y,z
-x,y,1/2-z
-x,-y,-z
x,-y,1/2+z
1/2+x,1/2+y,z
1/2-x,1/2+y,1/2-z
1/2-x,1/2-y,-z
1/2+x,1/2-y,1/2+z
loop_
_atom_site_type_symbol
_atom_site_label
_atom_site_fract_x
_atom_site_fract_y
_atom_site_fract_z
Si Si1 0.762473 0.081534 0.383320
Si Si2 0.182746 0.390162 0.565040
Si Si3 0.603948 0.987719 0.309733
Si Si4 0.083942 0.678351 0.703838
Si Si5 0.011912 0.097796 0.327433
Si Si6 0.687962 0.466103 0.862761
Si Si7 0.875249 0.819201 0.419085
O O1 0.697386 0.175603 0.505711
O O2 0.784046 0.074209 0.261443
O O3 0.875788 0.066929 0.279976
O O4 0.691074 0.987129 0.500693
O O5 0.115509 0.420836 0.731836
O O6 0.140299 0.298228 0.570212
O O7 0.300753 0.362980 0.445859
O O8 0.598681 0.889934 0.261812
O O9 0.500000 0.000000 0.500000
O O10 0.709221 0.985388 0.227936
O O11 0.000000 0.633580 0.750000
O O12 0.028889 0.782427 0.801702
O O13 0.000000 0.068310 0.250000
O O14 0.911159 0.045317 0.503727
O O15 0.661634 0.370279 0.951211
O O16 0.000000 0.842547 0.250000
#
# Coordination Sequence:
#
# PCOD9275470 Si02
#       7
#     8   8   8   8   8   8   8
#     4  11  22  41  64  91 132 169 217 271 328 388
#     4   9  21  39  60  89 119 165 211 255 312 387
#     4  10  21  42  65  91 129 170 216 272 328 387
#     4  10  22  40  64  92 128 173 219 266 327 401
#     4  11  22  41  65  94 129 174 216 269 334 394
#     4  11  23  40  64  96 129 168 216 275 328 386
#     4  10  20  39  62  86 123 165 206 255 320 383
#
# _framework density 20.046465000000001
#
# number of rings (size 3 to 8) (size 9 to 14) (size 15 to 20)
#    0.000    1.714    0.000    5.571    0.000    4.571 
#   18.000    0.000    0.000    0.000    0.000    0.000 
#    0.000    0.000    0.000    0.000    0.000    0.000 
#
# Total GULP energy -156213.495128 kJ/mol
# GULP energy per Si atom -5579.053397 kJ/mol
# Density = 2.000084 g / cm^3
# Si number density = 20.046465 Si / 1000 Ang^3
#
#
#
# Elastic Constant Matrix: (Units=GPa)
#
#
# Indices 1 2 3 4 5 6 
#
# 1 113.0736 45.6663 64.4134 0.0000 7.4200 0.0000
# 2 45.6663 109.3711 46.2983 0.0000 -1.1306 0.0000
# 3 64.4134 46.2983 142.3708 0.0000 -4.4585 0.0000
# 4 0.0000 0.0000 0.0000 7.9628 0.0000 -4.0197
# 5 7.4200 -1.1306 -4.4585 0.0000 30.2774 0.0000
# 6 0.0000 0.0000 0.0000 -4.0197 0.0000 20.6108
#
#
#
# Elastic Compliance Matrix: (Units=1/GPa)
#
#
# Indices 1 2 3 4 5 6 
#
# 1 0.013414 -0.003502 -0.005061 0.000000 -0.004163 0.000000
# 2 -0.003502 0.011517 -0.002131 0.000000 0.000974 0.000000
# 3 -0.005061 -0.002131 0.010089 0.000000 0.002646 0.000000
# 4 0.000000 0.000000 0.000000 0.139298 0.000000 0.027167
# 5 -0.004163 0.000974 0.002646 0.000000 0.034474 0.000000
# 6 0.000000 0.000000 0.000000 0.027167 0.000000 0.053817
#
#
# Mechanical properties :
#
#
# Convention : Reuss Voigt Hill
#
# Bulk Modulus (GPa) = 73.34166 75.28571 74.31369
# Shear Modulus (GPa) = 17.32860 25.66604 21.49732
#
# Velocity S-wave (km/s) = 2.94329 3.58205 3.27827
# Velocity P-wave (km/s) = 6.94377 7.39900 7.17500
#
# Compressibility (1/GPa) = 0.01363482
#
# Stress axis : x y z
#
# Youngs Moduli (GPa) = 74.54900 86.82663 99.11563
#
# Poissons Ratio (x) = 0.30403 0.50159
# Poissons Ratio (y) = 0.26104 0.21117
# Poissons Ratio (z) = 0.37726 0.18499
#
# Static dielectric constant tensor:
#      x y z
#    x 1.693810 0.000000 -0.026480 
#    y 0.000000 1.774190 0.000000 
#    z -0.026480 0.000000 1.723300 
# 
# From -- ./inp_files/173778.got.cif
#   From: 2010.05.17/outbox.cif.g08.bks.cpg/sg15_87_cif.got.tgz:173778.got - 2010.06.03 18:47:42.
