data_PCOD9275738
_publ_section_title
;
Structure prediction by ZEFSAII (Michael W. Deem and Ramdas Pophale) SiO2 
 PCOD9275738
Probable space group: C 2/C
;
_chemical_formula_sum "Si O2"
_cell_formula_units_Z 44
_cell_length_a 28.666789
_cell_length_b 8.566124
_cell_length_c 16.304796
_cell_angle_alpha 90.000000
_cell_angle_beta 155.243189
_cell_angle_gamma 90.000000
_cell_volume 1676.686787
_symmetry_space_group_name_H-M "C 2/C"
_symmetry_group_IT_number 15
_symmetry_cell_setting 'monoclinic'
loop_
_space_group_symop_operation_xyz
x,y,z
-x,y,1/2-z
-x,-y,-z
x,-y,1/2+z
1/2+x,1/2+y,z
1/2-x,1/2+y,1/2-z
1/2-x,1/2-y,-z
1/2+x,1/2-y,1/2+z
loop_
_atom_site_type_symbol
_atom_site_label
_atom_site_fract_x
_atom_site_fract_y
_atom_site_fract_z
Si Si1 0.952543 0.284218 0.261898
Si Si2 0.649495 0.040679 0.096440
Si Si3 0.647518 0.441471 0.700407
Si Si4 0.418749 0.552949 0.741826
Si Si5 0.500000 0.803666 0.750000
Si Si6 0.382619 0.086397 0.795150
O O1 0.073444 0.308798 0.497568
O O2 0.000000 0.327762 0.250000
O O3 0.872551 0.408154 0.180342
O O4 0.896730 0.116861 0.167595
O O5 0.693358 0.984069 0.255001
O O6 0.743657 0.071656 0.180791
O O7 0.573276 0.902959 0.933034
O O8 0.648071 0.560250 0.778743
O O9 0.545029 0.469363 0.475852
O O10 0.617787 0.271496 0.690119
O O11 0.421803 0.692218 0.681789
O O12 0.500000 0.000000 0.000000
#
# Coordination Sequence:
#
# PCOD9275738 Si02
#       6
#     8   8   8   8   4   8
#     4  10  20  39  64  89 124 168 212 270 329 386
#     4  11  23  39  65  95 131 170 220 273 329 400
#     4  10  22  41  63  94 127 171 224 273 323 396
#     4  10  22  40  65  87 130 173 218 272 334 385
#     4  12  22  40  66  94 136 176 220 272 338 384
#     4   9  20  40  64  92 125 171 217 260 329 393
#
# _framework density 26.242228000000001
#
# number of rings (size 3 to 8) (size 9 to 14) (size 15 to 20)
#    0.000    1.818    3.636    0.000    2.545    0.727 
#    0.000    5.455    0.000    0.000    0.000    0.000 
#    0.000    0.000    0.000    0.000    0.000    0.000 
#
# Total GULP energy -122671.718513 kJ/mol
# GULP energy per Si atom -5575.987205 kJ/mol
# Density = 2.618250 g / cm^3
# Si number density = 26.242228 Si / 1000 Ang^3
#
#
#
# Elastic Constant Matrix: (Units=GPa)
#
#
# Indices 1 2 3 4 5 6 
#
# 1 183.0632 43.0914 28.8191 0.0000 5.9619 0.0000
# 2 43.0914 87.4849 24.3310 0.0000 2.3612 0.0000
# 3 28.8191 24.3310 80.1538 0.0000 17.0898 0.0000
# 4 0.0000 0.0000 0.0000 4.4173 0.0000 14.2636
# 5 5.9619 2.3612 17.0898 0.0000 34.1724 0.0000
# 6 0.0000 0.0000 0.0000 14.2636 0.0000 32.4860
#
#
#
# Elastic Compliance Matrix: (Units=1/GPa)
#
#
# Indices 1 2 3 4 5 6 
#
# 1 0.006331 -0.002722 -0.001404 0.000000 -0.000214 0.000000
# 2 -0.002722 0.013696 -0.003446 0.000000 0.001252 0.000000
# 3 -0.001404 -0.003446 0.015586 0.000000 -0.007311 0.000000
# 4 0.000000 0.000000 0.000000 -0.541894 0.000000 0.237929
# 5 -0.000214 0.001252 -0.007311 0.000000 0.032871 0.000000
# 6 0.000000 0.000000 0.000000 0.237929 0.000000 -0.073685
#
#
# Mechanical properties :
#
#
# Convention : Reuss Voigt Hill
#
# Bulk Modulus (GPa) = 48.85522 60.35389 54.60456
# Shear Modulus (GPa) = -9.52150 31.17918 10.82884
#
# Velocity S-wave (km/s) = -1.90688 3.45067 2.03358
# Velocity P-wave (km/s) = 3.71607 6.23898 5.13488
#
# Compressibility (1/GPa) = 0.02046864
#
# Stress axis : x y z
#
# Youngs Moduli (GPa) = 157.94157 73.01469 64.16107
#
# Poissons Ratio (x) = 0.19876 0.09011
# Poissons Ratio (y) = 0.42995 0.22107
# Poissons Ratio (z) = 0.22182 0.25158
#
# Static dielectric constant tensor:
#      x y z
#    x 2.229470 0.000000 -0.169230 
#    y 0.000000 2.046900 0.000000 
#    z -0.169230 0.000000 2.312170 
# 
# From -- ./inp_files/159451.got.cif
#   From: 2010.05.17/outbox.cif.g08.bks.cpg/sg15_80_cif.got.tgz:159451.got - 2010.06.03 18:47:42.
