data_PCOD9275168
_publ_section_title
;
Structure prediction by ZEFSAII (Michael W. Deem and Ramdas Pophale) SiO2 
 PCOD9275168
Probable space group: C 2/C
;
_chemical_formula_sum "Si O2"
_cell_formula_units_Z 52
_cell_length_a 20.666223
_cell_length_b 10.801932
_cell_length_c 10.790549
_cell_angle_alpha 90.000000
_cell_angle_beta 115.525451
_cell_angle_gamma 90.000000
_cell_volume 2173.713345
_symmetry_space_group_name_H-M "C 2/C"
_symmetry_group_IT_number 15
_symmetry_cell_setting 'monoclinic'
loop_
_space_group_symop_operation_xyz
x,y,z
-x,y,1/2-z
-x,-y,-z
x,-y,1/2+z
1/2+x,1/2+y,z
1/2-x,1/2+y,1/2-z
1/2-x,1/2-y,-z
1/2+x,1/2-y,1/2+z
loop_
_atom_site_type_symbol
_atom_site_label
_atom_site_fract_x
_atom_site_fract_y
_atom_site_fract_z
Si Si1 0.392818 0.894078 0.455001
Si Si2 0.599065 0.380420 0.913432
Si Si3 0.776171 0.438254 0.801979
Si Si4 0.327332 0.768668 0.628683
Si Si5 0.118733 0.021209 0.688519
Si Si6 0.480215 0.872607 0.106852
Si Si7 0.250000 0.250000 0.500000
O O1 0.382804 0.816456 0.570861
O O2 0.447813 0.833646 0.405600
O O3 0.312805 0.926497 0.343246
O O4 0.429199 0.029837 0.496974
O O5 0.581296 0.447703 0.769369
O O6 0.561081 0.249453 0.891225
O O7 0.684168 0.348358 0.979239
O O8 0.582154 0.452796 0.026670
O O9 0.814051 0.374395 0.718103
O O10 0.691473 0.448757 0.712096
O O11 0.783535 0.353431 0.929781
O O12 0.250000 0.750000 0.500000
O O13 0.355956 0.648902 0.724660
O O14 0.500000 0.941186 0.250000
#
# Coordination Sequence:
#
# PCOD9275168 Si02
#       7
#     8   8   8   8   8   8   4
#     4  11  24  43  68 102 135 177 233 286 341 412
#     4  11  24  45  68 101 140 186 232 290 344 421
#     4  11  22  39  68 101 140 173 219 289 348 413
#     4  12  23  39  65 102 139 174 223 284 344 417
#     4  11  24  42  69 105 141 179 232 286 362 408
#     4  11  25  45  70  97 136 188 237 282 343 407
#     4  10  20  38  70  94 132 174 212 280 352 400
#
# _framework density 23.922198000000002
#
# number of rings (size 3 to 8) (size 9 to 14) (size 15 to 20)
#    0.000    0.923    4.615    1.846    2.154    6.154 
#    0.000    3.077    0.000    0.000    0.000    0.000 
#    0.000    0.000    0.000    0.000    0.000    0.000 
#
# Total GULP energy -144956.976964 kJ/mol
# GULP energy per Si atom -5575.268345 kJ/mol
# Density = 2.386775 g / cm^3
# Si number density = 23.922198 Si / 1000 Ang^3
#
#
#
# Elastic Constant Matrix: (Units=GPa)
#
#
# Indices 1 2 3 4 5 6 
#
# 1 137.9948 13.0302 45.5885 0.0000 -42.3430 0.0000
# 2 13.0302 49.9872 20.3954 0.0000 -19.1791 0.0000
# 3 45.5885 20.3954 75.2272 0.0000 -20.1422 0.0000
# 4 0.0000 0.0000 0.0000 21.8423 0.0000 -17.0738
# 5 -42.3430 -19.1791 -20.1422 0.0000 37.1017 0.0000
# 6 0.0000 0.0000 0.0000 -17.0738 0.0000 28.9899
#
#
#
# Elastic Compliance Matrix: (Units=1/GPa)
#
#
# Indices 1 2 3 4 5 6 
#
# 1 0.012861 0.004129 -0.005162 0.000000 0.014010 0.000000
# 2 0.004129 0.027284 -0.005688 0.000000 0.015728 0.000000
# 3 -0.005162 -0.005688 0.018252 0.000000 0.001077 0.000000
# 4 0.000000 0.000000 0.000000 0.084843 0.000000 0.049969
# 5 0.014010 0.015728 0.001077 0.000000 0.051657 0.000000
# 6 0.000000 0.000000 0.000000 0.049969 0.000000 0.063924
#
#
# Mechanical properties :
#
#
# Convention : Reuss Voigt Hill
#
# Bulk Modulus (GPa) = 22.24467 46.80417 34.52442
# Shear Modulus (GPa) = 17.40650 29.86644 23.63647
#
# Velocity S-wave (km/s) = 2.70039 3.53722 3.14675
# Velocity P-wave (km/s) = 4.36368 6.02414 5.25985
#
# Compressibility (1/GPa) = 0.04495459
#
# Stress axis : x y z
#
# Youngs Moduli (GPa) = 77.75436 36.65106 54.78873
#
# Poissons Ratio (x) = -0.15133 0.28283
# Poissons Ratio (y) = -0.32105 0.31165
# Poissons Ratio (z) = 0.40138 0.20848
#
# Static dielectric constant tensor:
#      x y z
#    x 1.886580 0.000000 0.024190 
#    y 0.000000 1.891250 0.000000 
#    z 0.024190 0.000000 1.982020 
# 
# From -- ./inp_files/111748.got.cif
#   From: 2010.05.17/outbox.cif.g08.bks.cpg/sg15_56_cif.got.tgz:111748.got - 2010.06.03 18:47:42.
