data_PCOD9275875
_publ_section_title
;
Structure prediction by ZEFSAII (Michael W. Deem and Ramdas Pophale) SiO2 
 PCOD9275875
Probable space group: C 2/C
;
_chemical_formula_sum "Si O2"
_cell_formula_units_Z 56
_cell_length_a 27.967739
_cell_length_b 18.209662
_cell_length_c 9.198934
_cell_angle_alpha 90.000000
_cell_angle_beta 31.389453
_cell_angle_gamma 90.000000
_cell_volume 2440.121772
_symmetry_space_group_name_H-M "C 2/C"
_symmetry_group_IT_number 15
_symmetry_cell_setting 'monoclinic'
loop_
_space_group_symop_operation_xyz
x,y,z
-x,y,1/2-z
-x,-y,-z
x,-y,1/2+z
1/2+x,1/2+y,z
1/2-x,1/2+y,1/2-z
1/2-x,1/2-y,-z
1/2+x,1/2-y,1/2+z
loop_
_atom_site_type_symbol
_atom_site_label
_atom_site_fract_x
_atom_site_fract_y
_atom_site_fract_z
Si Si1 0.052609 0.762257 0.264540
Si Si2 0.500000 0.483725 0.250000
Si Si3 0.586361 0.898997 0.755470
Si Si4 0.908516 0.118884 0.617899
Si Si5 0.794216 0.176653 0.330378
Si Si6 0.000000 0.513315 0.750000
Si Si7 0.189479 0.942557 0.885255
Si Si8 0.703261 0.615978 0.863463
O O1 0.035543 0.678931 0.359448
O O2 0.038727 0.818437 0.432605
O O3 0.000000 0.773011 0.250000
O O4 0.151127 0.789661 0.948930
O O5 0.465258 0.543088 0.458262
O O6 0.413232 0.436894 0.422137
O O7 0.691460 0.871414 0.458049
O O8 0.560234 0.958934 0.698010
O O9 0.558760 0.936511 0.982181
O O10 0.870364 0.143677 0.562417
O O11 0.817952 0.091991 0.938095
O O12 0.750000 0.250000 0.500000
O O13 0.744755 0.105755 0.386470
O O14 0.826585 0.142807 0.400116
O O15 0.202553 0.027813 0.860976
#
# Coordination Sequence:
#
# PCOD9275875 Si02
#       8
#     8   4   8   8   8   4   8   8
#     4  11  25  45  67  94 137 181 226 275 347 410
#     4  10  20  39  65  92 140 170 226 266 326 414
#     4  11  24  47  71  98 133 173 231 291 342 415
#     4  10  24  38  61 101 132 176 221 270 335 408
#     4  11  24  44  66  98 133 181 224 281 343 414
#     4  10  26  47  71 102 126 174 236 286 346 402
#     4  10  23  39  65  97 133 182 223 272 341 401
#     4  11  23  42  68 100 137 174 229 281 344 401
#
# _framework density 22.949673000000001
#
# number of rings (size 3 to 8) (size 9 to 14) (size 15 to 20)
#    0.000    1.429    2.143    2.143   12.000    1.143 
#    0.000    0.000    0.000    0.000    0.000    0.000 
#    0.000    0.000    0.000    0.000    0.000    0.000 
#
# Total GULP energy -155901.972787 kJ/mol
# GULP energy per Si atom -5567.927600 kJ/mol
# Density = 2.289744 g / cm^3
# Si number density = 22.949673 Si / 1000 Ang^3
#
#
#
# Elastic Constant Matrix: (Units=GPa)
#
#
# Indices 1 2 3 4 5 6 
#
# 1 86.0457 50.1135 33.5597 0.0000 39.1983 0.0000
# 2 50.1135 145.9364 20.1614 0.0000 29.3089 0.0000
# 3 33.5597 20.1614 75.6032 0.0000 27.7997 0.0000
# 4 0.0000 0.0000 0.0000 36.1481 0.0000 16.8662
# 5 39.1983 29.3089 27.7997 0.0000 37.4446 0.0000
# 6 0.0000 0.0000 0.0000 16.8662 0.0000 35.1575
#
#
#
# Elastic Compliance Matrix: (Units=1/GPa)
#
#
# Indices 1 2 3 4 5 6 
#
# 1 0.024074 -0.003830 -0.002064 0.000000 -0.020672 0.000000
# 2 -0.003830 0.008743 0.000565 0.000000 -0.003253 0.000000
# 3 -0.002064 0.000565 0.018378 0.000000 -0.011925 0.000000
# 4 0.000000 0.000000 0.000000 0.035642 0.000000 -0.017099
# 5 -0.020672 -0.003253 -0.011925 0.000000 0.059746 0.000000
# 6 0.000000 0.000000 0.000000 -0.017099 0.000000 0.036646
#
#
# Mechanical properties :
#
#
# Convention : Reuss Voigt Hill
#
# Bulk Modulus (GPa) = 24.66944 57.25051 40.95998
# Shear Modulus (GPa) = 24.10806 35.33342 29.72074
#
# Velocity S-wave (km/s) = 3.24462 3.92804 3.60257
# Velocity P-wave (km/s) = 4.98091 6.75077 5.93221
#
# Compressibility (1/GPa) = 0.04053599
#
# Stress axis : x y z
#
# Youngs Moduli (GPa) = 41.53776 114.37895 54.41428
#
# Poissons Ratio (x) = 0.43811 0.11231
# Poissons Ratio (y) = 0.15910 -0.03074
# Poissons Ratio (z) = 0.08573 -0.06461
#
# Static dielectric constant tensor:
#      x y z
#    x 2.005700 0.000000 -0.173950 
#    y 0.000000 0.110610 0.000000 
#    z -0.173950 0.000000 2.343730 
# 
# From -- ./inp_files/67148.got.cif
#   From: 2010.05.17/outbox.cif.g08.bks.cpg/sg15_34_cif.got.tgz:67148.got - 2010.06.03 18:47:42.
