data_PCOD9275194
_publ_section_title
;
Structure prediction by ZEFSAII (Michael W. Deem and Ramdas Pophale) SiO2 
 PCOD9275194
Probable space group: C 2/C
;
_chemical_formula_sum "Si O2"
_cell_formula_units_Z 28
_cell_length_a 13.208605
_cell_length_b 17.561558
_cell_length_c 7.051604
_cell_angle_alpha 90.000000
_cell_angle_beta 42.219297
_cell_angle_gamma 90.000000
_cell_volume 1099.152187
_symmetry_space_group_name_H-M "C 2/C"
_symmetry_group_IT_number 15
_symmetry_cell_setting 'monoclinic'
loop_
_space_group_symop_operation_xyz
x,y,z
-x,y,1/2-z
-x,-y,-z
x,-y,1/2+z
1/2+x,1/2+y,z
1/2-x,1/2+y,1/2-z
1/2-x,1/2-y,-z
1/2+x,1/2-y,1/2+z
loop_
_atom_site_type_symbol
_atom_site_label
_atom_site_fract_x
_atom_site_fract_y
_atom_site_fract_z
Si Si1 0.000000 0.866470 0.250000
Si Si2 0.638962 0.377611 0.439451
Si Si3 0.976689 0.411291 0.002541
Si Si4 0.281218 0.212532 0.248787
O O1 0.110464 0.901611 0.256950
O O2 0.886693 0.820338 0.547319
O O3 0.801153 0.402071 0.288166
O O4 0.656369 0.286234 0.442189
O O5 0.500000 0.409094 0.750000
O O6 0.000000 0.391330 0.750000
O O7 0.000000 0.500000 0.000000
O O8 0.097332 0.354934 0.930758
O O9 0.250000 0.250000 0.500000
#
# Coordination Sequence:
#
# PCOD9275194 Si02
#       4
#     4   8   8   8
#     4  10  20  38  72 102 140 190 238 306 350 418
#     4  11  24  43  74 110 141 190 255 300 360 449
#     4  12  26  48  71 107 154 196 240 308 386 435
#     4  10  20  41  76 102 142 198 246 297 363 440
#
# _framework density 25.47418
#
# number of rings (size 3 to 8) (size 9 to 14) (size 15 to 20)
#    0.000    1.143    5.714    3.429    2.000    8.000 
#    2.571    2.857    0.000    0.000    0.000    0.000 
#    0.000    0.000    0.000    0.000    0.000    0.000 
#
# Total GULP energy -78191.644229 kJ/mol
# GULP energy per Si atom -5585.117445 kJ/mol
# Density = 2.541620 g / cm^3
# Si number density = 25.474180 Si / 1000 Ang^3
#
#
#
# Elastic Constant Matrix: (Units=GPa)
#
#
# Indices 1 2 3 4 5 6 
#
# 1 100.9680 35.1762 40.1210 0.0000 -20.6903 0.0000
# 2 35.1762 147.0472 48.9336 0.0000 -45.5280 0.0000
# 3 40.1210 48.9336 203.3700 0.0000 -43.7569 0.0000
# 4 0.0000 0.0000 0.0000 12.9766 0.0000 -10.9785
# 5 -20.6903 -45.5280 -43.7569 0.0000 61.8269 0.0000
# 6 0.0000 0.0000 0.0000 -10.9785 0.0000 28.6591
#
#
#
# Elastic Compliance Matrix: (Units=1/GPa)
#
#
# Indices 1 2 3 4 5 6 
#
# 1 0.011422 -0.001783 -0.001515 0.000000 0.001437 0.000000
# 2 -0.001783 0.009215 -0.000630 0.000000 0.005743 0.000000
# 3 -0.001515 -0.000630 0.006085 0.000000 0.003336 0.000000
# 4 0.000000 0.000000 0.000000 0.114011 0.000000 0.043674
# 5 0.001437 0.005743 0.003336 0.000000 0.023245 0.000000
# 6 0.000000 0.000000 0.000000 0.043674 0.000000 0.051623
#
#
# Mechanical properties :
#
#
# Convention : Reuss Voigt Hill
#
# Bulk Modulus (GPa) = 53.00542 77.76075 65.38308
# Shear Modulus (GPa) = 21.76315 42.50282 32.13298
#
# Velocity S-wave (km/s) = 2.92605 4.08912 3.55546
# Velocity P-wave (km/s) = 5.68053 7.27228 6.52512
#
# Compressibility (1/GPa) = 0.01886600
#
# Stress axis : x y z
#
# Youngs Moduli (GPa) = 87.55127 108.52044 164.32912
#
# Poissons Ratio (x) = 0.19352 0.24897
# Poissons Ratio (y) = 0.15612 0.10348
# Poissons Ratio (z) = 0.13265 0.06834
#
# Static dielectric constant tensor:
#      x y z
#    x 2.226770 0.000000 0.107070 
#    y 0.000000 2.264450 0.000000 
#    z 0.107070 0.000000 2.098580 
# 
# From -- ./inp_files/22610.got.cif
#   From: 2010.05.17/outbox.cif.g08.bks.cpg/sg15_12_cif.got.tgz:22610.got - 2010.06.03 18:47:42.
