data_PCOD9275172
_publ_section_title
;
Structure prediction by ZEFSAII (Michael W. Deem and Ramdas Pophale) SiO2 
 PCOD9275172
Probable space group: C 2/C
;
_chemical_formula_sum "Si O2"
_cell_formula_units_Z 60
_cell_length_a 25.451246
_cell_length_b 7.270019
_cell_length_c 11.888149
_cell_angle_alpha 90.000000
_cell_angle_beta 89.750656
_cell_angle_gamma 90.000000
_cell_volume 2199.655767
_symmetry_space_group_name_H-M "C 2/C"
_symmetry_group_IT_number 15
_symmetry_cell_setting 'monoclinic'
loop_
_space_group_symop_operation_xyz
x,y,z
-x,y,1/2-z
-x,-y,-z
x,-y,1/2+z
1/2+x,1/2+y,z
1/2-x,1/2+y,1/2-z
1/2-x,1/2-y,-z
1/2+x,1/2-y,1/2+z
loop_
_atom_site_type_symbol
_atom_site_label
_atom_site_fract_x
_atom_site_fract_y
_atom_site_fract_z
Si Si1 0.168813 0.846777 0.115981
Si Si2 0.110663 0.353211 0.071956
Si Si3 0.574949 0.848608 0.307184
Si Si4 0.838381 0.822333 0.132877
Si Si5 0.000000 0.320676 0.750000
Si Si6 0.315422 0.751845 0.117042
Si Si7 0.440849 0.256060 0.460423
Si Si8 0.720746 0.744642 0.147539
O O1 0.157487 0.762026 0.237866
O O2 0.110122 0.874399 0.067972
O O3 0.198410 0.040579 0.126663
O O4 0.195845 0.733145 0.014594
O O5 0.082982 0.264211 0.182494
O O6 0.079252 0.542779 0.054004
O O7 0.172036 0.371656 0.110078
O O8 0.118524 0.246799 0.955001
O O9 0.634289 0.874221 0.352822
O O10 0.546165 0.735548 0.407108
O O11 0.545426 0.039097 0.289131
O O12 0.778902 0.765988 0.098975
O O13 0.835478 0.043016 0.134671
O O14 0.017280 0.213497 0.637987
O O15 0.273844 0.778182 0.216891
#
# Coordination Sequence:
#
# PCOD9275172 Si02
#       8
#     8   8   8   8   4   8   8   8
#     4  10  22  40  57  87 125 164 204 258 308 358
#     4  10  21  36  61  87 124 167 201 255 310 358
#     4   9  20  40  62  93 124 156 202 252 318 373
#     4  11  22  37  62  87 124 170 217 248 302 360
#     4  10  20  38  70  98 120 154 200 262 314 392
#     4   9  20  40  60  87 123 167 204 260 306 364
#     4  10  22  39  63  94 124 154 204 253 316 375
#     4  10  21  40  58  87 123 169 215 250 298 358
#
# _framework density 27.276993999999998
#
# number of rings (size 3 to 8) (size 9 to 14) (size 15 to 20)
#    0.000    2.133    1.333    0.800    3.733    2.667 
#    9.600    0.000    0.000   16.000    0.000    0.000 
#    0.000    0.000    0.000    0.000    0.000    0.000 
#
# Total GULP energy -167817.079321 kJ/mol
# GULP energy per Si atom -5593.902644 kJ/mol
# Density = 2.721491 g / cm^3
# Si number density = 27.276994 Si / 1000 Ang^3
#
#
#
# Elastic Constant Matrix: (Units=GPa)
#
#
# Indices 1 2 3 4 5 6 
#
# 1 91.4807 22.6647 51.7549 0.0000 -25.8322 0.0000
# 2 22.6647 86.7901 21.4149 0.0000 2.4301 0.0000
# 3 51.7549 21.4149 217.1000 0.0000 -33.1702 0.0000
# 4 0.0000 0.0000 0.0000 33.7176 0.0000 -5.7061
# 5 -25.8322 2.4301 -33.1702 0.0000 56.7237 0.0000
# 6 0.0000 0.0000 0.0000 -5.7061 0.0000 35.6110
#
#
#
# Elastic Compliance Matrix: (Units=1/GPa)
#
#
# Indices 1 2 3 4 5 6 
#
# 1 0.014624 -0.003400 -0.002318 0.000000 0.005450 0.000000
# 2 -0.003400 0.012688 -0.000835 0.000000 -0.002580 0.000000
# 3 -0.002318 -0.000835 0.005584 0.000000 0.002246 0.000000
# 4 0.000000 0.000000 0.000000 0.030485 0.000000 0.004885
# 5 0.005450 -0.002580 0.002246 0.000000 0.021535 0.000000
# 6 0.000000 0.000000 0.000000 0.004885 0.000000 0.028864
#
#
# Mechanical properties :
#
#
# Convention : Reuss Voigt Hill
#
# Bulk Modulus (GPa) = 50.53016 65.22664 57.87840
# Shear Modulus (GPa) = 37.45794 45.17955 41.31874
#
# Velocity S-wave (km/s) = 3.70975 4.07421 3.89624
# Velocity P-wave (km/s) = 6.07575 6.78947 6.44250
#
# Compressibility (1/GPa) = 0.01979016
#
# Stress axis : x y z
#
# Youngs Moduli (GPa) = 68.38086 78.81339 179.07283
#
# Poissons Ratio (x) = 0.26793 0.41513
# Poissons Ratio (y) = 0.23246 0.14959
# Poissons Ratio (z) = 0.15852 0.06584
#
# Static dielectric constant tensor:
#      x y z
#    x 2.120560 0.000000 0.013540 
#    y 0.000000 2.106950 0.000000 
#    z 0.013540 0.000000 2.256490 
# 
# From -- ./inp_files/121959.got.cif
#   From: 2010.05.17/outbox.cif.g08.bks.cpg/sg15_61_cif.got.tgz:121959.got - 2010.06.03 18:47:42.
