data_PCOD9275675
_publ_section_title
;
Structure prediction by ZEFSAII (Michael W. Deem and Ramdas Pophale) SiO2 
 PCOD9275675
Probable space group: C 2/C
;
_chemical_formula_sum "Si O2"
_cell_formula_units_Z 40
_cell_length_a 25.646419
_cell_length_b 9.189303
_cell_length_c 14.401649
_cell_angle_alpha 90.000000
_cell_angle_beta 146.483838
_cell_angle_gamma 90.000000
_cell_volume 1874.114210
_symmetry_space_group_name_H-M "C 2/C"
_symmetry_group_IT_number 15
_symmetry_cell_setting 'monoclinic'
loop_
_space_group_symop_operation_xyz
x,y,z
-x,y,1/2-z
-x,-y,-z
x,-y,1/2+z
1/2+x,1/2+y,z
1/2-x,1/2+y,1/2-z
1/2-x,1/2-y,-z
1/2+x,1/2-y,1/2+z
loop_
_atom_site_type_symbol
_atom_site_label
_atom_site_fract_x
_atom_site_fract_y
_atom_site_fract_z
Si Si1 0.374511 0.014645 0.471916
Si Si2 0.158671 0.832026 0.819333
Si Si3 0.731174 0.398440 0.527335
Si Si4 0.780474 0.782640 0.795058
Si Si5 0.079739 0.455570 0.242279
O O1 0.301661 0.887076 0.338656
O O2 0.328121 0.169102 0.378392
O O3 0.391641 0.014987 0.608091
O O4 0.474933 0.984357 0.573464
O O5 0.170750 0.836781 0.726795
O O6 0.077058 0.718295 0.722936
O O7 0.250000 0.750000 0.000000
O O8 0.164191 0.990698 0.872204
O O9 0.750000 0.250000 0.500000
O O10 0.688848 0.359500 0.564238
O O11 0.834790 0.474717 0.689286
#
# Coordination Sequence:
#
# PCOD9275675 Si02
#       5
#     8   8   8   8   8
#     4  11  23  40  68  98 124 174 218 270 321 398
#     4  10  20  39  63  93 130 172 208 270 317 387
#     4  11  21  38  64  98 133 168 209 274 324 381
#     4  12  22  38  67  96 125 171 222 254 333 390
#     4  10  22  43  65  93 134 170 214 265 331 374
#
# _framework density 21.343416000000001
#
# number of rings (size 3 to 8) (size 9 to 14) (size 15 to 20)
#    0.000    1.200    6.000    2.400    0.000    3.200 
#    0.000    2.000    0.000    4.800    0.000    0.000 
#    0.000    0.000    0.000    0.000    0.000    0.000 
#
# Total GULP energy -111674.575181 kJ/mol
# GULP energy per Si atom -5583.728759 kJ/mol
# Density = 2.129484 g / cm^3
# Si number density = 21.343416 Si / 1000 Ang^3
#
#
#
# Elastic Constant Matrix: (Units=GPa)
#
#
# Indices 1 2 3 4 5 6 
#
# 1 99.7108 40.0988 27.5551 0.0000 -32.0553 0.0000
# 2 40.0988 135.4722 44.9044 0.0000 -6.2912 0.0000
# 3 27.5551 44.9044 65.7683 0.0000 -6.4864 0.0000
# 4 0.0000 0.0000 0.0000 26.7354 0.0000 -9.7526
# 5 -32.0553 -6.2912 -6.4864 0.0000 47.9231 0.0000
# 6 0.0000 0.0000 0.0000 -9.7526 0.0000 35.6367
#
#
#
# Elastic Compliance Matrix: (Units=1/GPa)
#
#
# Indices 1 2 3 4 5 6 
#
# 1 0.015130 -0.002908 -0.003439 0.000000 0.009273 0.000000
# 2 -0.002908 0.010106 -0.005821 0.000000 -0.001406 0.000000
# 3 -0.003439 -0.005821 0.020593 0.000000 -0.000277 0.000000
# 4 0.000000 0.000000 0.000000 0.041552 0.000000 0.011371
# 5 0.009273 -0.001406 -0.000277 0.000000 0.026847 0.000000
# 6 0.000000 0.000000 0.000000 0.011371 0.000000 0.031173
#
#
# Mechanical properties :
#
#
# Convention : Reuss Voigt Hill
#
# Bulk Modulus (GPa) = 46.52529 58.45200 52.48865
# Shear Modulus (GPa) = 28.26455 34.61859 31.44157
#
# Velocity S-wave (km/s) = 3.64301 4.03175 3.84230
# Velocity P-wave (km/s) = 6.28817 7.00851 6.65809
#
# Compressibility (1/GPa) = 0.02149369
#
# Stress axis : x y z
#
# Youngs Moduli (GPa) = 66.09442 98.94807 48.56116
#
# Poissons Ratio (x) = 0.28772 0.16701
# Poissons Ratio (y) = 0.19219 0.28266
# Poissons Ratio (z) = 0.22731 0.57594
#
# Static dielectric constant tensor:
#      x y z
#    x 1.818990 0.000000 -0.032470 
#    y 0.000000 1.799270 0.000000 
#    z -0.032470 0.000000 1.798370 
# 
# From -- ./inp_files/159105.got.cif
#   From: 2010.05.17/outbox.cif.g08.bks.cpg/sg15_80_cif.got.tgz:159105.got - 2010.06.03 18:47:42.
