data_PCOD9275693
_publ_section_title
;
Structure prediction by ZEFSAII (Michael W. Deem and Ramdas Pophale) SiO2 
 PCOD9275693
Probable space group: C 2/C
;
_chemical_formula_sum "Si O2"
_cell_formula_units_Z 64
_cell_length_a 28.665039
_cell_length_b 14.634916
_cell_length_c 8.263439
_cell_angle_alpha 90.000000
_cell_angle_beta 120.592285
_cell_angle_gamma 90.000000
_cell_volume 2984.084961
_symmetry_space_group_name_H-M "C 2/C"
_symmetry_group_IT_number 15
_symmetry_cell_setting 'monoclinic'
loop_
_space_group_symop_operation_xyz
x,y,z
-x,y,1/2-z
-x,-y,-z
x,-y,1/2+z
1/2+x,1/2+y,z
1/2-x,1/2+y,1/2-z
1/2-x,1/2-y,-z
1/2+x,1/2-y,1/2+z
loop_
_atom_site_type_symbol
_atom_site_label
_atom_site_fract_x
_atom_site_fract_y
_atom_site_fract_z
Si Si1 0.711257 0.392074 0.942361
Si Si2 0.098797 0.135400 0.729538
Si Si3 0.185074 0.694097 0.841337
Si Si4 0.522744 0.780048 0.467819
Si Si5 0.193493 0.717312 0.473337
Si Si6 0.105967 0.590221 0.235416
Si Si7 0.076284 0.388928 0.060791
Si Si8 0.355994 0.493247 0.939417
O O1 0.695907 0.287497 0.954648
O O2 0.673510 0.421633 0.728444
O O3 0.692906 0.462333 0.045347
O O4 0.775290 0.385076 0.023674
O O5 0.146847 0.207503 0.854863
O O6 0.115751 0.075936 0.604395
O O7 0.043794 0.190748 0.600010
O O8 0.101132 0.061750 0.877231
O O9 0.199842 0.706351 0.677299
O O10 0.122580 0.671602 0.725459
O O11 0.500000 0.759302 0.250000
O O12 0.576096 0.843365 0.556014
O O13 0.479729 0.842466 0.487965
O O14 0.250000 0.750000 0.500000
O O15 0.168533 0.622809 0.357236
O O16 0.088728 0.489581 0.151475
O O17 0.084372 0.608183 0.380883
#
# Coordination Sequence:
#
# PCOD9275693 Si02
#       8
#     8   8   8   8   8   8   8   8
#     4  10  21  39  62  93 130 169 207 257 320 381
#     4  10  22  41  64  95 124 173 214 265 331 375
#     4  10  22  38  61  97 130 171 214 252 328 378
#     4  11  24  43  67  92 125 166 216 270 335 380
#     4  10  20  39  63  96 138 172 214 262 317 385
#     4  10  23  42  65  98 127 174 215 261 328 388
#     4  11  23  42  66  92 133 165 218 269 313 392
#     4  10  21  40  68  89 133 167 217 265 313 389
#
# _framework density 21.447112000000001
#
# number of rings (size 3 to 8) (size 9 to 14) (size 15 to 20)
#    0.000    1.750    1.250    2.250    1.750    4.000 
#    6.750    0.625    0.000    0.000    0.000    0.000 
#    0.000    0.000    0.000    0.000    0.000    0.000 
#
# Total GULP energy -178674.514812 kJ/mol
# GULP energy per Si atom -5583.578588 kJ/mol
# Density = 2.139830 g / cm^3
# Si number density = 21.447112 Si / 1000 Ang^3
#
#
#
# Elastic Constant Matrix: (Units=GPa)
#
#
# Indices 1 2 3 4 5 6 
#
# 1 45.2841 15.3480 24.7887 0.0000 12.6401 0.0000
# 2 15.3480 94.5662 40.3029 0.0000 9.4153 0.0000
# 3 24.7887 40.3029 79.9645 0.0000 17.7980 0.0000
# 4 0.0000 0.0000 0.0000 38.5193 0.0000 17.0926
# 5 12.6401 9.4153 17.7980 0.0000 25.0995 0.0000
# 6 0.0000 0.0000 0.0000 17.0926 0.0000 26.0810
#
#
#
# Elastic Compliance Matrix: (Units=1/GPa)
#
#
# Indices 1 2 3 4 5 6 
#
# 1 0.028489 -0.001038 -0.006177 0.000000 -0.009578 0.000000
# 2 -0.001038 0.013507 -0.006500 0.000000 0.000065 0.000000
# 3 -0.006177 -0.006500 0.019546 0.000000 -0.008311 0.000000
# 4 0.000000 0.000000 0.000000 0.036607 0.000000 -0.023991
# 5 -0.009578 0.000065 -0.008311 0.000000 0.050534 0.000000
# 6 0.000000 0.000000 0.000000 -0.023991 0.000000 0.054065
#
#
# Mechanical properties :
#
#
# Convention : Reuss Voigt Hill
#
# Bulk Modulus (GPa) = 29.31457 42.29932 35.80695
# Shear Modulus (GPa) = 20.69977 27.23166 23.96572
#
# Velocity S-wave (km/s) = 3.11006 3.56717 3.34643
# Velocity P-wave (km/s) = 5.15700 6.06067 5.62700
#
# Compressibility (1/GPa) = 0.03411273
#
# Stress axis : x y z
#
# Youngs Moduli (GPa) = 35.10115 74.03607 51.16012
#
# Poissons Ratio (x) = 0.07683 0.31600
# Poissons Ratio (y) = 0.03643 0.33257
# Poissons Ratio (z) = 0.21681 0.48127
#
# Static dielectric constant tensor:
#      x y z
#    x 1.802410 0.000000 -0.006640 
#    y 0.000000 1.815880 0.000000 
#    z -0.006640 0.000000 1.792580 
# 
# From -- ./inp_files/70163.got.cif
#   From: 2010.05.17/outbox.cif.g08.bks.cpg/sg15_36_cif.got.tgz:70163.got - 2010.06.03 18:47:42.
