data_PCOD9275265
_publ_section_title
;
Structure prediction by ZEFSAII (Michael W. Deem and Ramdas Pophale) SiO2 
 PCOD9275265
Probable space group: C 2/C
;
_chemical_formula_sum "Si O2"
_cell_formula_units_Z 32
_cell_length_a 16.659733
_cell_length_b 12.210978
_cell_length_c 7.306331
_cell_angle_alpha 90.000000
_cell_angle_beta 52.732852
_cell_angle_gamma 90.000000
_cell_volume 1182.859384
_symmetry_space_group_name_H-M "C 2/C"
_symmetry_group_IT_number 15
_symmetry_cell_setting 'monoclinic'
loop_
_space_group_symop_operation_xyz
x,y,z
-x,y,1/2-z
-x,-y,-z
x,-y,1/2+z
1/2+x,1/2+y,z
1/2-x,1/2+y,1/2-z
1/2-x,1/2-y,-z
1/2+x,1/2-y,1/2+z
loop_
_atom_site_type_symbol
_atom_site_label
_atom_site_fract_x
_atom_site_fract_y
_atom_site_fract_z
Si Si1 0.406881 0.417433 0.108105
Si Si2 0.747107 0.369149 0.910871
Si Si3 0.031511 0.325719 0.904336
Si Si4 0.142935 0.798268 0.699195
O O1 0.302418 0.441491 0.360154
O O2 0.442336 0.303365 0.150617
O O3 0.389097 0.624565 0.425392
O O4 0.500000 0.500000 0.000000
O O5 0.863618 0.386307 0.688811
O O6 0.668300 0.360012 0.853703
O O7 0.750000 0.250000 0.000000
O O8 0.000000 0.370275 0.750000
O O9 0.933331 0.305065 0.166346
O O10 0.250000 0.750000 0.500000
#
# Coordination Sequence:
#
# PCOD9275265 Si02
#       4
#     8   8   8   8
#     4  11  24  39  58  94 139 185 233 293 382 451
#     4  10  20  39  58  89 137 180 237 305 370 426
#     4  11  20  37  62  92 138 180 234 305 364 419
#     4  12  21  38  65  93 136 187 243 305 367 435
#
# _framework density 27.053089
#
# number of rings (size 3 to 8) (size 9 to 14) (size 15 to 20)
#    0.000    1.000   10.000    0.750    0.000    3.000 
#    0.000    0.000    0.000    0.000    0.000    1.750 
#    7.500    2.250    0.000    0.000    0.000    0.000 
#
# Total GULP energy -89377.548333 kJ/mol
# GULP energy per Si atom -5586.096771 kJ/mol
# Density = 2.699151 g / cm^3
# Si number density = 27.053089 Si / 1000 Ang^3
#
#
#
# Elastic Constant Matrix: (Units=GPa)
#
#
# Indices 1 2 3 4 5 6 
#
# 1 242.5328 33.1120 103.8855 0.0000 0.5556 0.0000
# 2 33.1120 61.2418 31.9474 0.0000 -6.6768 0.0000
# 3 103.8855 31.9474 243.6047 0.0000 -36.0357 0.0000
# 4 0.0000 0.0000 0.0000 19.5860 0.0000 -5.5399
# 5 0.5556 -6.6768 -36.0357 0.0000 79.1129 0.0000
# 6 0.0000 0.0000 0.0000 -5.5399 0.0000 48.6420
#
#
#
# Elastic Compliance Matrix: (Units=1/GPa)
#
#
# Indices 1 2 3 4 5 6 
#
# 1 0.005324 -0.001859 -0.002204 0.000000 -0.001198 0.000000
# 2 -0.001859 0.018193 -0.001462 0.000000 0.000882 0.000000
# 3 -0.002204 -0.001462 0.005598 0.000000 0.002442 0.000000
# 4 0.000000 0.000000 0.000000 0.052756 0.000000 0.006008
# 5 -0.001198 0.000882 0.002442 0.000000 0.013835 0.000000
# 6 0.000000 0.000000 0.000000 0.006008 0.000000 0.021243
#
#
# Mechanical properties :
#
#
# Convention : Reuss Voigt Hill
#
# Bulk Modulus (GPa) = 55.36025 98.36323 76.86174
# Shear Modulus (GPa) = 37.30753 54.69714 46.00233
#
# Velocity S-wave (km/s) = 3.71758 4.50137 4.12812
# Velocity P-wave (km/s) = 6.23981 7.96585 7.15507
#
# Compressibility (1/GPa) = 0.01806350
#
# Stress axis : x y z
#
# Youngs Moduli (GPa) = 187.84058 54.96572 178.64268
#
# Poissons Ratio (x) = 0.10221 0.39367
# Poissons Ratio (y) = 0.34928 0.26126
# Poissons Ratio (z) = 0.41394 0.08038
#
# Static dielectric constant tensor:
#      x y z
#    x 2.152270 0.000000 0.000110 
#    y 0.000000 1.592480 0.000000 
#    z 0.000110 0.000000 2.535260 
# 
# From -- ./inp_files/36721.got.cif
#   From: 2010.05.17/outbox.cif.g08.bks.cpg/sg15_19_cif.got.tgz:36721.got - 2010.06.03 18:47:42.
