data_PCOD9275148
_publ_section_title
;
Structure prediction by ZEFSAII (Michael W. Deem and Ramdas Pophale) SiO2 
 PCOD9275148
Probable space group: C 2/C
;
_chemical_formula_sum "Si O2"
_cell_formula_units_Z 40
_cell_length_a 5.771794
_cell_length_b 28.222465
_cell_length_c 11.157792
_cell_angle_alpha 90.000000
_cell_angle_beta 84.840446
_cell_angle_gamma 90.000000
_cell_volume 1810.175768
_symmetry_space_group_name_H-M "C 2/C"
_symmetry_group_IT_number 15
_symmetry_cell_setting 'monoclinic'
loop_
_space_group_symop_operation_xyz
x,y,z
-x,y,1/2-z
-x,-y,-z
x,-y,1/2+z
1/2+x,1/2+y,z
1/2-x,1/2+y,1/2-z
1/2-x,1/2-y,-z
1/2+x,1/2-y,1/2+z
loop_
_atom_site_type_symbol
_atom_site_label
_atom_site_fract_x
_atom_site_fract_y
_atom_site_fract_z
Si Si1 0.481583 0.389416 0.892934
Si Si2 0.500000 0.049153 0.750000
Si Si3 0.756578 0.304284 0.463388
Si Si4 0.342930 0.878827 0.057626
Si Si5 0.500000 0.331744 0.250000
Si Si6 0.752878 0.523628 0.966366
O O1 0.500000 0.392510 0.750000
O O2 0.405209 0.336898 0.942672
O O3 0.735549 0.397605 0.940026
O O4 0.299042 0.426430 0.960856
O O5 0.547005 0.082315 0.861239
O O6 0.285418 0.022083 0.818885
O O7 0.750000 0.250000 0.500000
O O8 0.678296 0.304721 0.327286
O O9 0.999886 0.332252 0.461835
O O10 0.125617 0.864290 0.148931
O O11 0.500000 0.500000 0.000000
O O12 0.000000 0.500000 0.000000
#
# Coordination Sequence:
#
# PCOD9275148 Si02
#       6
#     8   4   8   8   4   8
#     4  11  27  47  70 107 156 198 247 315 393 462
#     4  12  22  50  82 105 146 194 265 314 376 464
#     4  11  24  42  70 109 145 196 252 315 385 452
#     4  11  21  45  74 102 140 196 249 308 375 451
#     4  10  20  38  70 101 136 186 257 304 364 456
#     4  12  29  49  78 116 149 205 256 324 389 462
#
# _framework density 22.097303
#
# number of rings (size 3 to 8) (size 9 to 14) (size 15 to 20)
#    0.000    0.800    4.000    2.400    2.800    8.800 
#    0.000    0.000    0.000    0.000    0.000    0.000 
#    0.000    0.000    0.000    0.000    0.000    0.000 
#
# Total GULP energy -111447.488422 kJ/mol
# GULP energy per Si atom -5572.374421 kJ/mol
# Density = 2.204701 g / cm^3
# Si number density = 22.097303 Si / 1000 Ang^3
#
#
#
# Elastic Constant Matrix: (Units=GPa)
#
#
# Indices 1 2 3 4 5 6 
#
# 1 116.2362 35.0927 63.3550 0.0000 2.6843 0.0000
# 2 35.0927 120.3534 44.2222 0.0000 -0.9666 0.0000
# 3 63.3550 44.2222 194.3373 0.0000 1.8875 0.0000
# 4 0.0000 0.0000 0.0000 29.2850 0.0000 -17.1828
# 5 2.6843 -0.9666 1.8875 0.0000 52.2261 0.0000
# 6 0.0000 0.0000 0.0000 -17.1828 0.0000 9.6955
#
#
#
# Elastic Compliance Matrix: (Units=1/GPa)
#
#
# Indices 1 2 3 4 5 6 
#
# 1 0.010917 -0.002053 -0.003087 0.000000 -0.000488 0.000000
# 2 -0.002053 0.009456 -0.001486 0.000000 0.000334 0.000000
# 3 -0.003087 -0.001486 0.006491 0.000000 -0.000103 0.000000
# 4 0.000000 0.000000 0.000000 -0.856871 0.000000 -1.518583
# 5 -0.000488 0.000334 -0.000103 0.000000 0.019182 0.000000
# 6 0.000000 0.000000 0.000000 -1.518583 0.000000 -2.588158
#
#
# Mechanical properties :
#
#
# Convention : Reuss Voigt Hill
#
# Bulk Modulus (GPa) = 73.46035 79.58518 76.52277
# Shear Modulus (GPa) = -1.47877 37.45846 17.98985
#
# Velocity S-wave (km/s) = -0.81894 4.12170 2.85637
# Velocity P-wave (km/s) = 5.69403 7.66454 6.75156
#
# Compressibility (1/GPa) = 0.01361278
#
# Stress axis : x y z
#
# Youngs Moduli (GPa) = 91.60195 105.75271 154.05462
#
# Poissons Ratio (x) = 0.21708 0.47558
# Poissons Ratio (y) = 0.18803 0.22889
# Poissons Ratio (z) = 0.28278 0.15713
#
# Static dielectric constant tensor:
#      x y z
#    x 2.133330 0.000000 -0.019540 
#    y 0.000000 2.437300 0.000000 
#    z -0.019540 0.000000 1.599200 
# 
# From -- ./inp_files/73229.got.cif
#   From: 2010.05.17/outbox.cif.g08.bks.cpg/sg15_37_cif.got.tgz:73229.got - 2010.06.03 18:47:42.
