data_PCOD9275345
_publ_section_title
;
Structure prediction by ZEFSAII (Michael W. Deem and Ramdas Pophale) SiO2 
 PCOD9275345
Probable space group: C 2/C
;
_chemical_formula_sum "Si O2"
_cell_formula_units_Z 64
_cell_length_a 25.593092
_cell_length_b 13.671229
_cell_length_c 16.027570
_cell_angle_alpha 90.000000
_cell_angle_beta 144.556329
_cell_angle_gamma 90.000000
_cell_volume 3252.017148
_symmetry_space_group_name_H-M "C 2/C"
_symmetry_group_IT_number 15
_symmetry_cell_setting 'monoclinic'
loop_
_space_group_symop_operation_xyz
x,y,z
-x,y,1/2-z
-x,-y,-z
x,-y,1/2+z
1/2+x,1/2+y,z
1/2-x,1/2+y,1/2-z
1/2-x,1/2-y,-z
1/2+x,1/2-y,1/2+z
loop_
_atom_site_type_symbol
_atom_site_label
_atom_site_fract_x
_atom_site_fract_y
_atom_site_fract_z
Si Si1 0.921139 0.040077 0.709638
Si Si2 0.744874 0.086881 0.193601
Si Si3 0.085427 0.196501 0.650455
Si Si4 0.253673 0.994080 0.124122
Si Si5 0.588921 0.897005 0.752524
Si Si6 0.620338 0.093456 0.485459
Si Si7 0.739405 0.309453 0.216927
Si Si8 0.556099 0.413846 0.617583
O O1 0.909958 0.122453 0.765699
O O2 0.000000 0.071073 0.750000
O O3 0.827874 0.022264 0.541979
O O4 0.951166 0.939792 0.794841
O O5 0.722274 0.200917 0.161905
O O6 0.840668 0.076606 0.273474
O O7 0.754330 0.059236 0.302977
O O8 0.674383 0.008703 0.065298
O O9 0.100339 0.303448 0.707476
O O10 0.159514 0.167648 0.678201
O O11 0.989977 0.182895 0.478949
O O12 0.244410 0.884865 0.147275
O O13 0.348112 0.018036 0.202634
O O14 0.482832 0.920198 0.620372
O O15 0.619938 0.875224 0.887995
O O16 0.670857 0.171684 0.610561
O O17 0.500000 0.500000 0.500000
#
# Coordination Sequence:
#
# PCOD9275345 Si02
#       8
#     8   8   8   8   8   8   8   8
#     4  11  22  36  64  94 130 164 208 264 314 375
#     4  11  22  41  62  88 125 174 205 260 317 375
#     4  11  22  38  63  99 126 163 208 261 326 374
#     4  11  22  39  64  92 128 165 214 257 314 371
#     4  11  23  41  65  95 127 166 210 263 313 381
#     4  10  24  41  63  91 134 161 207 266 317 368
#     4  11  23  41  63  92 126 167 211 259 314 381
#     4  10  20  39  60  88 126 162 203 260 322 368
#
# _framework density 19.680092999999999
#
# number of rings (size 3 to 8) (size 9 to 14) (size 15 to 20)
#    0.000    1.250    1.250    7.500    3.500    3.000 
#    2.250    2.500    5.500    0.000    0.000    0.000 
#    0.000    0.000    0.000    0.000    0.000    0.000 
#
# Total GULP energy -178742.550032 kJ/mol
# GULP energy per Si atom -5585.704688 kJ/mol
# Density = 1.963530 g / cm^3
# Si number density = 19.680093 Si / 1000 Ang^3
#
#
#
# Elastic Constant Matrix: (Units=GPa)
#
#
# Indices 1 2 3 4 5 6 
#
# 1 54.5049 -6.5479 4.2908 0.0000 1.4489 0.0000
# 2 -6.5479 68.6789 9.1821 0.0000 -8.5282 0.0000
# 3 4.2908 9.1821 78.3862 0.0000 12.7240 0.0000
# 4 0.0000 0.0000 0.0000 15.0922 0.0000 -1.4863
# 5 1.4489 -8.5282 12.7240 0.0000 14.6668 0.0000
# 6 0.0000 0.0000 0.0000 -1.4863 0.0000 28.9465
#
#
#
# Elastic Compliance Matrix: (Units=1/GPa)
#
#
# Indices 1 2 3 4 5 6 
#
# 1 0.018682 0.002021 -0.001339 0.000000 0.000492 0.000000
# 2 0.002021 0.016986 -0.004273 0.000000 0.013384 0.000000
# 3 -0.001339 -0.004273 0.015961 0.000000 -0.016199 0.000000
# 4 0.000000 0.000000 0.000000 0.066596 0.000000 0.003419
# 5 0.000492 0.013384 -0.016199 0.000000 0.089968 0.000000
# 6 0.000000 0.000000 0.000000 0.003419 0.000000 0.034722
#
#
# Mechanical properties :
#
#
# Convention : Reuss Voigt Hill
#
# Bulk Modulus (GPa) = 22.49855 23.93557 23.21706
# Shear Modulus (GPa) = 18.87407 24.71741 21.79574
#
# Velocity S-wave (km/s) = 3.10020 3.54780 3.33153
# Velocity P-wave (km/s) = 4.92666 5.38249 5.15961
#
# Compressibility (1/GPa) = 0.04444732
#
# Stress axis : x y z
#
# Youngs Moduli (GPa) = 53.52700 58.87031 62.65412
#
# Poissons Ratio (x) = -0.11899 0.08391
# Poissons Ratio (y) = -0.10819 0.26772
# Poissons Ratio (z) = 0.07168 0.25155
#
# Static dielectric constant tensor:
#      x y z
#    x 1.690060 0.000000 0.002750 
#    y 0.000000 1.729320 0.000000 
#    z 0.002750 0.000000 1.697600 
# 
# From -- ./inp_files/173679.got.cif
#   From: 2010.05.17/outbox.cif.g08.bks.cpg/sg15_87_cif.got.tgz:173679.got - 2010.06.03 18:47:42.
