data_PCOD9275255
_publ_section_title
;
Structure prediction by ZEFSAII (Michael W. Deem and Ramdas Pophale) SiO2 
 PCOD9275255
Probable space group: C 2/C
;
_chemical_formula_sum "Si O2"
_cell_formula_units_Z 40
_cell_length_a 12.864278
_cell_length_b 28.127538
_cell_length_c 14.129985
_cell_angle_alpha 90.000000
_cell_angle_beta 158.996998
_cell_angle_gamma 90.000000
_cell_volume 1832.513881
_symmetry_space_group_name_H-M "C 2/C"
_symmetry_group_IT_number 15
_symmetry_cell_setting 'monoclinic'
loop_
_space_group_symop_operation_xyz
x,y,z
-x,y,1/2-z
-x,-y,-z
x,-y,1/2+z
1/2+x,1/2+y,z
1/2-x,1/2+y,1/2-z
1/2-x,1/2-y,-z
1/2+x,1/2-y,1/2+z
loop_
_atom_site_type_symbol
_atom_site_label
_atom_site_fract_x
_atom_site_fract_y
_atom_site_fract_z
Si Si1 0.872064 0.980656 0.745680
Si Si2 0.384350 0.771335 0.515912
Si Si3 0.759139 0.566716 0.120345
Si Si4 0.362199 0.921544 0.237047
Si Si5 0.791895 0.377015 0.370331
O O1 0.500000 0.049934 0.250000
O O2 0.456838 0.965126 0.058300
O O3 0.036515 0.936784 0.934244
O O4 0.011849 0.025866 0.918172
O O5 0.250000 0.750000 0.500000
O O6 0.330946 0.826161 0.451632
O O7 0.219571 0.740065 0.299384
O O8 0.500000 0.487028 0.750000
O O9 0.546231 0.608549 0.904050
O O10 0.023821 0.586876 0.115338
O O11 0.500000 0.911773 0.250000
O O12 0.648292 0.881067 0.191806
#
# Coordination Sequence:
#
# PCOD9275255 Si02
#       5
#     8   8   8   8   8
#     4  10  20  39  58  86 126 176 207 251 329 344
#     4  10  23  41  63  86 122 164 192 255 328 400
#     4  12  25  37  59  92 136 165 210 270 299 388
#     4  10  22  40  64  85 124 166 219 267 298 373
#     4  12  25  39  63  96 117 168 222 254 322 381
#
# _framework density 21.827939000000001
#
# number of rings (size 3 to 8) (size 9 to 14) (size 15 to 20)
#    0.000    1.200    0.000    7.200    8.400    4.800 
#    0.000    0.000    0.000    1.200    0.000    0.000 
#    0.000    0.000    0.000    0.000    0.000    0.000 
#
# Total GULP energy -111474.308635 kJ/mol
# GULP energy per Si atom -5573.715432 kJ/mol
# Density = 2.177826 g / cm^3
# Si number density = 21.827939 Si / 1000 Ang^3
#
#
#
# Elastic Constant Matrix: (Units=GPa)
#
#
# Indices 1 2 3 4 5 6 
#
# 1 113.8414 49.5824 36.7374 0.0002 -16.6001 0.0008
# 2 49.5824 78.5255 16.4538 0.0020 -11.0297 -0.0001
# 3 36.7374 16.4538 176.8509 0.0044 -9.6919 0.0007
# 4 0.0002 0.0020 0.0044 36.8509 -0.0002 -13.7512
# 5 -16.6001 -11.0297 -9.6919 -0.0002 37.7363 0.0015
# 6 0.0008 -0.0001 0.0007 -13.7512 0.0015 24.2790
#
#
#
# Elastic Compliance Matrix: (Units=1/GPa)
#
#
# Indices 1 2 3 4 5 6 
#
# 1 0.013070 -0.007429 -0.001854 0.000000 0.003102 0.000000
# 2 -0.007429 0.017692 0.000001 -0.000001 0.001904 0.000000
# 3 -0.001854 0.000001 0.006080 -0.000001 0.000747 -0.000001
# 4 0.000000 -0.000001 -0.000001 0.034409 -0.000001 0.019488
# 5 0.003102 0.001904 0.000747 -0.000001 0.028612 -0.000002
# 6 0.000000 0.000000 -0.000001 0.019488 -0.000002 0.052226
#
#
# Mechanical properties :
#
#
# Convention : Reuss Voigt Hill
#
# Bulk Modulus (GPa) = 54.70237 63.86277 59.28257
# Shear Modulus (GPa) = 28.28928 37.53621 32.91275
#
# Velocity S-wave (km/s) = 3.60392 4.15135 3.88729
# Velocity P-wave (km/s) = 6.51405 7.23182 6.88230
#
# Compressibility (1/GPa) = 0.01828074
#
# Stress axis : x y z
#
# Youngs Moduli (GPa) = 76.50991 56.52160 164.46341
#
# Poissons Ratio (x) = 0.41987 0.30491
# Poissons Ratio (y) = 0.56836 -0.00023
# Poissons Ratio (z) = 0.14184 -0.00008
#
# Static dielectric constant tensor:
#      x y z
#    x 1.903190 0.000000 -0.043320 
#    y 0.000000 1.823980 0.000000 
#    z -0.043320 0.000000 1.881610 
# 
# From -- ./inp_files/148969.got.cif
#   From: 2010.05.17/outbox.cif.g08.bks.cpg/sg15_75_cif.got.tgz:148969.got - 2010.06.03 18:47:42.
