data_PCOD9275044
_publ_section_title
;
Structure prediction by ZEFSAII (Michael W. Deem and Ramdas Pophale) SiO2 
 PCOD9275044
Probable space group: C 2/C
;
_chemical_formula_sum "Si O2"
_cell_formula_units_Z 52
_cell_length_a 19.199998
_cell_length_b 19.963134
_cell_length_c 8.382999
_cell_angle_alpha 90.000000
_cell_angle_beta 129.071886
_cell_angle_gamma 90.000000
_cell_volume 2494.537905
_symmetry_space_group_name_H-M "C 2/C"
_symmetry_group_IT_number 15
_symmetry_cell_setting 'monoclinic'
loop_
_space_group_symop_operation_xyz
x,y,z
-x,y,1/2-z
-x,-y,-z
x,-y,1/2+z
1/2+x,1/2+y,z
1/2-x,1/2+y,1/2-z
1/2-x,1/2-y,-z
1/2+x,1/2-y,1/2+z
loop_
_atom_site_type_symbol
_atom_site_label
_atom_site_fract_x
_atom_site_fract_y
_atom_site_fract_z
Si Si1 0.841934 0.291053 0.647321
Si Si2 0.582996 0.866484 0.457124
Si Si3 0.500000 0.699471 0.750000
Si Si4 0.832970 0.571004 0.947091
Si Si5 0.500000 0.521649 0.250000
Si Si6 0.770683 0.557832 0.524130
Si Si7 0.000000 0.500000 0.500000
Si Si8 0.090879 0.084201 0.079606
O O1 0.750000 0.250000 0.500000
O O2 0.842313 0.355355 0.530951
O O3 0.926610 0.244812 0.730245
O O4 0.857637 0.320148 0.845923
O O5 0.500000 0.831027 0.250000
O O6 0.644235 0.899919 0.411281
O O7 0.541710 0.927746 0.500669
O O8 0.444421 0.652178 0.548714
O O9 0.762304 0.569631 0.699457
O O10 0.797422 0.519289 0.029423
O O11 0.924895 0.539592 0.008918
O O12 0.528023 0.563947 0.137757
O O13 0.578404 0.471840 0.423567
O O14 0.688976 0.580557 0.296254
#
# Coordination Sequence:
#
# PCOD9275044 Si02
#       8
#     8   8   4   8   4   8   4   8
#     4  12  28  48  66  94 142 196 230 270 337 423
#     4  11  23  41  66  99 134 170 224 282 346 408
#     4  11  26  46  66  90 134 189 228 276 324 411
#     4  11  23  40  67 101 138 172 220 284 353 413
#     4   9  20  38  68  92 124 163 208 290 330 387
#     4  11  22  38  68 104 128 163 213 297 348 398
#     4  10  20  38  68 106 132 162 216 294 374 386
#     4  10  21  41  65  97 128 163 222 268 341 390
#
# _framework density 20.845544
#
# number of rings (size 3 to 8) (size 9 to 14) (size 15 to 20)
#    0.000    1.231    1.538    4.615    2.154    4.923 
#    4.154    1.538    0.000    0.000    0.000    0.000 
#    0.000    0.000    0.000    0.000    0.000    0.000 
#
# Total GULP energy -144887.305361 kJ/mol
# GULP energy per Si atom -5572.588668 kJ/mol
# Density = 2.079810 g / cm^3
# Si number density = 20.845544 Si / 1000 Ang^3
#
#
#
# Elastic Constant Matrix: (Units=GPa)
#
#
# Indices 1 2 3 4 5 6 
#
# 1 32.8931 24.0361 -1.7533 0.0000 10.7171 0.0000
# 2 24.0361 111.6592 40.9713 0.0000 -1.0181 0.0000
# 3 -1.7533 40.9713 126.7004 0.0000 7.0367 0.0000
# 4 0.0000 0.0000 0.0000 13.5070 0.0000 11.9440
# 5 10.7171 -1.0181 7.0367 0.0000 39.5212 0.0000
# 6 0.0000 0.0000 0.0000 11.9440 0.0000 14.0579
#
#
#
# Elastic Compliance Matrix: (Units=1/GPa)
#
#
# Indices 1 2 3 4 5 6 
#
# 1 0.043016 -0.011184 0.004924 0.000000 -0.012830 0.000000
# 2 -0.011184 0.013098 -0.004623 0.000000 0.004193 0.000000
# 3 0.004924 -0.004623 0.009632 0.000000 -0.003169 0.000000
# 4 0.000000 0.000000 0.000000 0.297706 0.000000 -0.252941
# 5 -0.012830 0.004193 -0.003169 0.000000 0.029454 0.000000
# 6 0.000000 0.000000 0.000000 -0.252941 0.000000 0.286041
#
#
# Mechanical properties :
#
#
# Convention : Reuss Voigt Hill
#
# Bulk Modulus (GPa) = 22.73707 44.19567 33.46637
# Shear Modulus (GPa) = 6.98936 27.28381 17.13659
#
# Velocity S-wave (km/s) = 1.83309 3.62174 2.87029
# Velocity P-wave (km/s) = 3.92573 6.22389 5.20328
#
# Compressibility (1/GPa) = 0.04398104
#
# Stress axis : x y z
#
# Youngs Moduli (GPa) = 23.24692 76.34825 103.82286
#
# Poissons Ratio (x) = 0.85386 -0.51126
# Poissons Ratio (y) = 0.25999 0.47999
# Poissons Ratio (z) = -0.11448 0.35297
#
# Static dielectric constant tensor:
#      x y z
#    x 1.738940 0.000000 0.019480 
#    y 0.000000 1.698010 0.000000 
#    z 0.019480 0.000000 1.830420 
# 
# From -- ./inp_files/57100.got.cif
#   From: 2010.05.17/outbox.cif.g08.bks.cpg/sg15_29_cif.got.tgz:57100.got - 2010.06.03 18:47:42.
