data_PCOD9275761
_publ_section_title
;
Structure prediction by ZEFSAII (Michael W. Deem and Ramdas Pophale) SiO2 
 PCOD9275761
Probable space group: C 2/C
;
_chemical_formula_sum "Si O2"
_cell_formula_units_Z 52
_cell_length_a 15.336805
_cell_length_b 8.037586
_cell_length_c 26.843020
_cell_angle_alpha 90.000000
_cell_angle_beta 135.162884
_cell_angle_gamma 90.000000
_cell_volume 2333.128989
_symmetry_space_group_name_H-M "C 2/C"
_symmetry_group_IT_number 15
_symmetry_cell_setting 'monoclinic'
loop_
_space_group_symop_operation_xyz
x,y,z
-x,y,1/2-z
-x,-y,-z
x,-y,1/2+z
1/2+x,1/2+y,z
1/2-x,1/2+y,1/2-z
1/2-x,1/2-y,-z
1/2+x,1/2-y,1/2+z
loop_
_atom_site_type_symbol
_atom_site_label
_atom_site_fract_x
_atom_site_fract_y
_atom_site_fract_z
Si Si1 0.096168 0.408270 0.460585
Si Si2 0.699550 0.328803 0.291449
Si Si3 0.000000 0.078457 0.250000
Si Si4 0.977602 0.110172 0.913217
Si Si5 0.130702 0.097816 0.401098
Si Si6 0.111057 0.591884 0.172881
Si Si7 0.105385 0.784061 0.560666
O O1 0.118879 0.248640 0.435086
O O2 0.225329 0.454125 0.538752
O O3 0.029207 0.538673 0.396786
O O4 0.996527 0.348274 0.461230
O O5 0.595877 0.461650 0.260460
O O6 0.805566 0.430583 0.304358
O O7 0.647979 0.171884 0.240258
O O8 0.761213 0.275342 0.368241
O O9 0.921030 0.159108 0.173228
O O10 0.876444 0.250757 0.859717
O O11 0.918673 0.952967 0.917596
O O12 0.045007 0.045511 0.890769
O O13 0.078960 0.179642 0.992821
#
# Coordination Sequence:
#
# PCOD9275761 Si02
#       7
#     8   8   4   8   8   8   8
#     4   9  22  41  67  90 125 167 220 257 317 385
#     4  11  25  41  63  92 132 163 221 266 318 382
#     4  12  26  40  64  94 130 168 206 270 322 376
#     4  10  20  39  64  92 124 166 212 258 322 370
#     4  10  22  44  61  93 131 166 205 268 319 384
#     4  11  23  40  67  89 124 179 212 264 319 381
#     4   9  21  40  63  93 122 165 218 257 309 392
#
# _framework density 22.287665000000001
#
# number of rings (size 3 to 8) (size 9 to 14) (size 15 to 20)
#    0.000    1.846    1.538    0.923    8.615    3.077 
#    0.000    0.769    0.000    0.000    0.000    0.000 
#    0.000    0.000    0.000    0.000    0.000    0.000 
#
# Total GULP energy -145152.755644 kJ/mol
# GULP energy per Si atom -5582.798294 kJ/mol
# Density = 2.223694 g / cm^3
# Si number density = 22.287665 Si / 1000 Ang^3
#
#
#
# Elastic Constant Matrix: (Units=GPa)
#
#
# Indices 1 2 3 4 5 6 
#
# 1 9.5863 -7.9863 18.8856 0.0000 0.8494 0.0000
# 2 -7.9863 53.9671 21.0744 0.0000 -1.1814 0.0000
# 3 18.8856 21.0744 149.0231 0.0000 -7.9105 0.0000
# 4 0.0000 0.0000 0.0000 51.7144 0.0000 -3.4449
# 5 0.8494 -1.1814 -7.9105 0.0000 31.1571 0.0000
# 6 0.0000 0.0000 0.0000 -3.4449 0.0000 10.9301
#
#
#
# Elastic Compliance Matrix: (Units=1/GPa)
#
#
# Indices 1 2 3 4 5 6 
#
# 1 0.205955 0.043033 -0.032840 0.000000 -0.012321 0.000000
# 2 0.043033 0.028604 -0.009633 0.000000 -0.002534 0.000000
# 3 -0.032840 -0.009633 0.012430 0.000000 0.003686 0.000000
# 4 0.000000 0.000000 0.000000 0.019752 0.000000 0.006225
# 5 -0.012321 -0.002534 0.003686 0.000000 0.033271 0.000000
# 6 0.000000 0.000000 0.000000 0.006225 0.000000 0.093452
#
#
# Mechanical properties :
#
#
# Convention : Reuss Voigt Hill
#
# Bulk Modulus (GPa) = 4.03051 30.72487 17.37769
# Shear Modulus (GPa) = 10.52526 30.80053 20.66290
#
# Velocity S-wave (km/s) = 2.17548 3.72150 3.04813
# Velocity P-wave (km/s) = 2.85002 5.68169 4.49467
#
# Compressibility (1/GPa) = 0.24810778
#
# Stress axis : x y z
#
# Youngs Moduli (GPa) = 4.85544 34.95983 80.44981
#
# Poissons Ratio (x) = -1.50441 2.64198
# Poissons Ratio (y) = -0.20894 0.77498
# Poissons Ratio (z) = 0.15945 0.33677
#
# Static dielectric constant tensor:
#      x y z
#    x 1.756190 0.000000 0.003630 
#    y 0.000000 1.855580 0.000000 
#    z 0.003630 0.000000 1.853710 
# 
# From -- ./inp_files/295293.got.cif
#   From: 2010.05.17/outbox.cif.g08.bks.cpg/sg15_148_cif.got.tgz:295293.got - 2010.06.03 18:47:42.
