data_PCOD9275979
_publ_section_title
;
Structure prediction by ZEFSAII (Michael W. Deem and Ramdas Pophale) SiO2 
 PCOD9275979
Probable space group: C 2/C
;
_chemical_formula_sum "Si O2"
_cell_formula_units_Z 40
_cell_length_a 11.156795
_cell_length_b 24.856374
_cell_length_c 5.701525
_cell_angle_alpha 90.000000
_cell_angle_beta 97.226614
_cell_angle_gamma 90.000000
_cell_volume 1568.572563
_symmetry_space_group_name_H-M "C 2/C"
_symmetry_group_IT_number 15
_symmetry_cell_setting 'monoclinic'
loop_
_space_group_symop_operation_xyz
x,y,z
-x,y,1/2-z
-x,-y,-z
x,-y,1/2+z
1/2+x,1/2+y,z
1/2-x,1/2+y,1/2-z
1/2-x,1/2-y,-z
1/2+x,1/2-y,1/2+z
loop_
_atom_site_type_symbol
_atom_site_label
_atom_site_fract_x
_atom_site_fract_y
_atom_site_fract_z
Si Si1 0.972530 0.088329 0.499964
Si Si2 0.636768 0.020050 0.529425
Si Si3 0.130116 0.724135 0.677382
Si Si4 0.678770 0.671621 0.456602
Si Si5 0.699591 0.868551 0.890614
O O1 0.066698 0.138129 0.517199
O O2 0.000000 0.058379 0.750000
O O3 0.837273 0.111780 0.482678
O O4 0.000000 0.063235 0.250000
O O5 0.627332 0.084045 0.493047
O O6 0.500000 0.000000 0.500000
O O7 0.693061 0.997301 0.296169
O O8 0.138675 0.787734 0.737583
O O9 0.143510 0.689348 0.444987
O O10 0.000000 0.708891 0.750000
O O11 0.254270 0.704679 0.829546
O O12 0.784925 0.633052 0.385160
#
# Coordination Sequence:
#
# PCOD9275979 Si02
#       5
#     8   8   8   8   8
#     4  10  20  39  66  94 129 183 224 270 337 398
#     4  10  25  44  69  96 136 173 229 291 350 403
#     4  11  23  37  62 102 137 181 234 274 342 420
#     4  10  23  41  61  98 143 177 229 285 335 414
#     4  11  23  40  71  92 135 183 230 277 360 405
#
# _framework density 25.500892
#
# number of rings (size 3 to 8) (size 9 to 14) (size 15 to 20)
#    0.000    1.600    2.000    2.400    5.600    2.400 
#    0.000    0.000    0.000   15.600    0.000    0.000 
#    0.000    0.000    0.000    0.000    0.000    0.000 
#
# Total GULP energy -111384.931878 kJ/mol
# GULP energy per Si atom -5569.246594 kJ/mol
# Density = 2.544285 g / cm^3
# Si number density = 25.500892 Si / 1000 Ang^3
#
#
#
# Elastic Constant Matrix: (Units=GPa)
#
#
# Indices 1 2 3 4 5 6 
#
# 1 121.1218 30.8431 1.7030 0.0000 -34.7135 0.0000
# 2 30.8431 81.8405 30.6086 0.0000 -5.3577 0.0000
# 3 1.7030 30.6086 123.8908 0.0000 -11.8388 0.0000
# 4 0.0000 0.0000 0.0000 3.7194 0.0000 -22.6954
# 5 -34.7135 -5.3577 -11.8388 0.0000 29.6842 0.0000
# 6 0.0000 0.0000 0.0000 -22.6954 0.0000 -21.5910
#
#
#
# Elastic Compliance Matrix: (Units=1/GPa)
#
#
# Indices 1 2 3 4 5 6 
#
# 1 0.014473 -0.005369 0.002757 0.000000 0.017055 0.000000
# 2 -0.005369 0.015492 -0.004248 0.000000 -0.005177 0.000000
# 3 0.002757 -0.004248 0.009687 0.000000 0.006321 0.000000
# 4 0.000000 0.000000 0.000000 0.036264 0.000000 -0.038119
# 5 0.017055 -0.005177 0.006321 0.000000 0.055220 0.000000
# 6 0.000000 0.000000 0.000000 -0.038119 0.000000 -0.006247
#
#
# Mechanical properties :
#
#
# Convention : Reuss Voigt Hill
#
# Bulk Modulus (GPa) = 38.56225 50.35138 44.45681
# Shear Modulus (GPa) = 33.95523 19.94242 26.94883
#
# Velocity S-wave (km/s) = 3.65297 2.79951 3.25434
# Velocity P-wave (km/s) = 5.73995 5.49886 5.62070
#
# Compressibility (1/GPa) = 0.02593210
#
# Stress axis : x y z
#
# Youngs Moduli (GPa) = 69.09606 64.54814 103.22694
#
# Poissons Ratio (x) = 0.34656 -0.28463
# Poissons Ratio (y) = 0.37098 0.43855
# Poissons Ratio (z) = -0.19052 0.27423
#
# Static dielectric constant tensor:
#      x y z
#    x 1.983020 0.000000 0.030710 
#    y 0.000000 2.083060 0.000000 
#    z 0.030710 0.000000 2.155150 
# 
# From -- ./inp_files/5018.got.cif
#   From: 2010.05.17/outbox.cif.g08.bks.cpg/sg15_3_cif.got.tgz:5018.got - 2010.06.03 18:47:42.
