data_PCOD9275630
_publ_section_title
;
Structure prediction by ZEFSAII (Michael W. Deem and Ramdas Pophale) SiO2 
 PCOD9275630
Probable space group: C 2/C
;
_chemical_formula_sum "Si O2"
_cell_formula_units_Z 52
_cell_length_a 16.288723
_cell_length_b 20.002504
_cell_length_c 8.375321
_cell_angle_alpha 90.000000
_cell_angle_beta 94.085934
_cell_angle_gamma 90.000000
_cell_volume 2721.871485
_symmetry_space_group_name_H-M "C 2/C"
_symmetry_group_IT_number 15
_symmetry_cell_setting 'monoclinic'
loop_
_space_group_symop_operation_xyz
x,y,z
-x,y,1/2-z
-x,-y,-z
x,-y,1/2+z
1/2+x,1/2+y,z
1/2-x,1/2+y,1/2-z
1/2-x,1/2-y,-z
1/2+x,1/2-y,1/2+z
loop_
_atom_site_type_symbol
_atom_site_label
_atom_site_fract_x
_atom_site_fract_y
_atom_site_fract_z
Si Si1 0.947852 0.141019 0.586298
Si Si2 0.700750 0.574142 0.790731
Si Si3 0.087452 0.705323 0.326038
Si Si4 0.000000 0.907018 0.750000
Si Si5 0.827957 0.941022 0.586292
Si Si6 0.805910 0.701539 0.891779
Si Si7 0.743843 0.297172 0.848220
O O1 0.867675 0.095779 0.589647
O O2 0.925875 0.217366 0.624772
O O3 0.983755 0.133023 0.413841
O O4 0.000000 0.119456 0.750000
O O5 0.728030 0.502348 0.860615
O O6 0.668043 0.563419 0.605889
O O7 0.759839 0.638906 0.805562
O O8 0.120937 0.672829 0.492514
O O9 0.164288 0.701492 0.215249
O O10 0.000000 0.680714 0.250000
O O11 0.082890 0.946832 0.813500
O O12 0.788168 0.871040 0.631057
O O13 0.824578 0.757328 0.764336
O O14 0.750000 0.750000 0.000000
O O15 0.750000 0.250000 0.000000
#
# Coordination Sequence:
#
# PCOD9275630 Si02
#       7
#     8   8   8   4   8   8   8
#     4  11  21  40  60  92 137 173 215 258 320 383
#     4  12  24  42  61  93 133 175 219 264 322 396
#     4  10  22  39  64  94 127 167 210 274 330 384
#     4  12  26  38  62  96 138 182 214 260 314 406
#     4  12  27  39  62  98 130 178 218 264 325 397
#     4  10  20  39  63  90 121 168 206 264 319 377
#     4  11  21  42  64  92 126 168 217 263 319 382
#
# _framework density 19.104502
#
# number of rings (size 3 to 8) (size 9 to 14) (size 15 to 20)
#    0.000    0.923    6.154    1.846    9.692    1.231 
#    0.000    0.000    0.000    0.923    0.000    0.000 
#    0.000    0.000    0.000    0.000    0.000    0.000 
#
# Total GULP energy -144760.518911 kJ/mol
# GULP energy per Si atom -5567.712266 kJ/mol
# Density = 1.906102 g / cm^3
# Si number density = 19.104502 Si / 1000 Ang^3
#
#
#
# Elastic Constant Matrix: (Units=GPa)
#
#
# Indices 1 2 3 4 5 6 
#
# 1 65.2704 11.6564 33.6534 0.0000 10.2903 0.0000
# 2 11.6564 112.8251 28.0948 0.0000 -4.7246 0.0000
# 3 33.6534 28.0948 117.6710 0.0000 5.8529 0.0000
# 4 0.0000 0.0000 0.0000 27.9276 0.0000 -1.2248
# 5 10.2903 -4.7246 5.8529 0.0000 34.3200 0.0000
# 6 0.0000 0.0000 0.0000 -1.2248 0.0000 15.5557
#
#
#
# Elastic Compliance Matrix: (Units=1/GPa)
#
#
# Indices 1 2 3 4 5 6 
#
# 1 0.018794 -0.000926 -0.004909 0.000000 -0.004925 0.000000
# 2 -0.000926 0.009568 -0.002117 0.000000 0.001956 0.000000
# 3 -0.004909 -0.002117 0.010437 0.000000 -0.000600 0.000000
# 4 0.000000 0.000000 0.000000 0.035931 0.000000 0.002829
# 5 -0.004925 0.001956 -0.000600 0.000000 0.030986 0.000000
# 6 0.000000 0.000000 0.000000 0.002829 0.000000 0.064508
#
#
# Mechanical properties :
#
#
# Convention : Reuss Voigt Hill
#
# Bulk Modulus (GPa) = 43.67540 49.17510 46.42525
# Shear Modulus (GPa) = 25.80529 30.38478 28.09503
#
# Velocity S-wave (km/s) = 3.67923 3.99237 3.83900
# Velocity P-wave (km/s) = 6.40000 6.85915 6.63355
#
# Compressibility (1/GPa) = 0.02289619
#
# Stress axis : x y z
#
# Youngs Moduli (GPa) = 53.20929 104.51558 95.80844
#
# Poissons Ratio (x) = 0.09673 0.47032
# Poissons Ratio (y) = 0.04925 0.20283
# Poissons Ratio (z) = 0.26120 0.22126
#
# Static dielectric constant tensor:
#      x y z
#    x 1.718250 0.000000 0.057610 
#    y 0.000000 1.678500 0.000000 
#    z 0.057610 0.000000 1.693430 
# 
# From -- ./inp_files/48583.got.cif
#   From: 2010.05.17/outbox.cif.g08.bks.cpg/sg15_25_cif.got.tgz:48583.got - 2010.06.03 18:47:42.
