data_PCOD9275393
_publ_section_title
;
Structure prediction by ZEFSAII (Michael W. Deem and Ramdas Pophale) SiO2 
 PCOD9275393
Probable space group: C 2/C
;
_chemical_formula_sum "Si O2"
_cell_formula_units_Z 60
_cell_length_a 27.298898
_cell_length_b 11.597237
_cell_length_c 17.707244
_cell_angle_alpha 90.000000
_cell_angle_beta 149.166325
_cell_angle_gamma 90.000000
_cell_volume 2873.325600
_symmetry_space_group_name_H-M "C 2/C"
_symmetry_group_IT_number 15
_symmetry_cell_setting 'monoclinic'
loop_
_space_group_symop_operation_xyz
x,y,z
-x,y,1/2-z
-x,-y,-z
x,-y,1/2+z
1/2+x,1/2+y,z
1/2-x,1/2+y,1/2-z
1/2-x,1/2-y,-z
1/2+x,1/2-y,1/2+z
loop_
_atom_site_type_symbol
_atom_site_label
_atom_site_fract_x
_atom_site_fract_y
_atom_site_fract_z
Si Si1 0.401863 0.426017 0.376105
Si Si2 0.500000 0.596728 0.750000
Si Si3 0.147146 0.209159 0.832664
Si Si4 0.612270 0.827372 0.284428
Si Si5 0.090565 0.681064 0.028555
Si Si6 0.167672 0.010292 0.560957
Si Si7 0.364078 0.066554 0.270094
Si Si8 0.225483 0.266823 0.584321
O O1 0.500000 0.500000 0.500000
O O2 0.354195 0.394038 0.232071
O O3 0.414997 0.299676 0.431562
O O4 0.337451 0.485843 0.355241
O O5 0.576015 0.670330 0.803840
O O6 0.435948 0.522744 0.607767
O O7 0.106486 0.323413 0.739162
O O8 0.250000 0.250000 0.000000
O O9 0.663547 0.739450 0.292909
O O10 0.669801 0.814287 0.437815
O O11 0.622275 0.952225 0.259701
O O12 0.500316 0.810114 0.145965
O O13 0.085090 0.577759 0.081490
O O14 0.186391 0.670971 0.106561
O O15 0.194716 0.134848 0.561852
O O16 0.251094 0.926886 0.641530
#
# Coordination Sequence:
#
# PCOD9275393 Si02
#       8
#     8   4   8   8   8   8   8   8
#     4  10  21  38  62  96 124 162 219 265 321 389
#     4  12  22  38  70  90 128 174 220 268 336 388
#     4  11  23  43  62  94 132 172 212 278 330 398
#     4  10  20  39  61  86 122 163 199 254 319 376
#     4  10  21  37  61  85 124 160 202 254 315 380
#     4  10  21  38  64  95 122 164 216 274 327 380
#     4  10  22  42  58  86 132 161 210 259 319 394
#     4   9  21  37  59  94 120 150 211 265 305 373
#
# _framework density 20.881726
#
# number of rings (size 3 to 8) (size 9 to 14) (size 15 to 20)
#    0.000    1.867    2.667    0.800    3.733    1.067 
#    7.200    2.667    0.000    0.000    0.000    0.000 
#    0.000    0.000    0.000    0.000    0.000    0.000 
#
# Total GULP energy -167253.240013 kJ/mol
# GULP energy per Si atom -5575.108000 kJ/mol
# Density = 2.083420 g / cm^3
# Si number density = 20.881726 Si / 1000 Ang^3
#
#
#
# Elastic Constant Matrix: (Units=GPa)
#
#
# Indices 1 2 3 4 5 6 
#
# 1 116.0983 44.9599 22.3776 0.0000 -8.5763 0.0000
# 2 44.9599 36.5946 17.5390 0.0000 -4.5709 0.0000
# 3 22.3776 17.5390 83.4354 0.0000 -1.6004 0.0000
# 4 0.0000 0.0000 0.0000 29.5671 0.0000 -4.1298
# 5 -8.5763 -4.5709 -1.6004 0.0000 27.8137 0.0000
# 6 0.0000 0.0000 0.0000 -4.1298 0.0000 28.0166
#
#
#
# Elastic Compliance Matrix: (Units=1/GPa)
#
#
# Indices 1 2 3 4 5 6 
#
# 1 0.016521 -0.019979 -0.000197 0.000000 0.001800 0.000000
# 2 -0.019979 0.055156 -0.006187 0.000000 0.002548 0.000000
# 3 -0.000197 -0.006187 0.013333 0.000000 -0.000310 0.000000
# 4 0.000000 0.000000 0.000000 0.034532 0.000000 0.005090
# 5 0.001800 0.002548 -0.000310 0.000000 0.036909 0.000000
# 6 0.000000 0.000000 0.000000 0.005090 0.000000 0.036443
#
#
# Mechanical properties :
#
#
# Convention : Reuss Voigt Hill
#
# Bulk Modulus (GPa) = 30.97463 45.09793 38.03628
# Shear Modulus (GPa) = 19.50222 27.16296 23.33259
#
# Velocity S-wave (km/s) = 3.05935 3.61057 3.34633
# Velocity P-wave (km/s) = 5.22925 6.24703 5.76066
#
# Compressibility (1/GPa) = 0.03228448
#
# Stress axis : x y z
#
# Youngs Moduli (GPa) = 60.52849 18.13050 75.00340
#
# Poissons Ratio (x) = 0.36222 0.01476
# Poissons Ratio (y) = 1.20928 0.46405
# Poissons Ratio (z) = 0.01191 0.11218
#
# Static dielectric constant tensor:
#      x y z
#    x 1.759960 0.000000 -0.015700 
#    y 0.000000 1.749780 0.000000 
#    z -0.015700 0.000000 1.784940 
# 
# From -- ./inp_files/222568.got.cif
#   From: 2010.05.17/outbox.cif.g08.bks.cpg/sg15_112_cif.got.tgz:222568.got - 2010.06.03 18:47:42.
