data_PCOD9275053
_publ_section_title
;
Structure prediction by ZEFSAII (Michael W. Deem and Ramdas Pophale) SiO2 
 PCOD9275053
Probable space group: C 2/C
;
_chemical_formula_sum "Si O2"
_cell_formula_units_Z 60
_cell_length_a 6.502692
_cell_length_b 15.899601
_cell_length_c 32.029798
_cell_angle_alpha 90.000000
_cell_angle_beta 69.227447
_cell_angle_gamma 90.000000
_cell_volume 3096.301291
_symmetry_space_group_name_H-M "C 2/C"
_symmetry_group_IT_number 15
_symmetry_cell_setting 'monoclinic'
loop_
_space_group_symop_operation_xyz
x,y,z
-x,y,1/2-z
-x,-y,-z
x,-y,1/2+z
1/2+x,1/2+y,z
1/2-x,1/2+y,1/2-z
1/2-x,1/2-y,-z
1/2+x,1/2-y,1/2+z
loop_
_atom_site_type_symbol
_atom_site_label
_atom_site_fract_x
_atom_site_fract_y
_atom_site_fract_z
Si Si1 0.422730 0.885351 0.169339
Si Si2 0.000000 0.139515 0.750000
Si Si3 0.211137 0.697635 0.909427
Si Si4 0.088729 0.573105 0.523046
Si Si5 0.206043 0.517025 0.099105
Si Si6 0.195704 0.257240 0.208286
Si Si7 0.590142 0.182324 0.382132
Si Si8 0.415584 0.360280 0.932308
O O1 0.200825 0.907636 0.211561
O O2 0.339720 0.836114 0.133644
O O3 0.571885 0.824684 0.187331
O O4 0.581188 0.960546 0.142463
O O5 0.873995 0.197011 0.724835
O O6 0.459659 0.729486 0.896917
O O7 0.118465 0.628234 0.947297
O O8 0.075536 0.782228 0.928191
O O9 0.198660 0.535270 0.556707
O O10 0.264579 0.623985 0.483276
O O11 0.000000 0.500000 0.500000
O O12 0.448896 0.554888 0.088950
O O13 0.062721 0.601087 0.103748
O O14 0.307925 0.189089 0.170975
O O15 0.000000 0.219924 0.250000
O O16 0.770173 0.169030 0.404113
#
# Coordination Sequence:
#
# PCOD9275053 Si02
#       8
#     8   4   8   8   8   8   8   8
#     4  10  20  39  61  91 116 157 198 244 310 362
#     4  10  20  38  68  88 122 148 202 254 298 374
#     4  10  22  38  62  86 121 159 204 251 296 363
#     4  11  22  41  58  89 121 163 207 252 304 353
#     4  10  24  39  60  85 125 159 199 252 306 361
#     4  10  21  36  64  90 114 154 200 242 301 369
#     4  11  21  40  61  91 118 160 201 250 307 363
#     4  11  22  40  59  86 124 161 203 250 300 362
#
# _framework density 19.377958
#
# number of rings (size 3 to 8) (size 9 to 14) (size 15 to 20)
#    0.000    1.600    4.000    0.800    0.000    2.667 
#    3.600    0.000    4.400    0.000    0.000    0.000 
#    0.000    0.000    0.000    0.000    0.000    0.000 
#
# Total GULP energy -167395.128123 kJ/mol
# GULP energy per Si atom -5579.837604 kJ/mol
# Density = 1.933385 g / cm^3
# Si number density = 19.377958 Si / 1000 Ang^3
#
#
#
# Elastic Constant Matrix: (Units=GPa)
#
#
# Indices 1 2 3 4 5 6 
#
# 1 59.7789 -2.2856 23.7187 0.0000 2.0239 0.0000
# 2 -2.2856 42.4701 22.7568 0.0000 -1.4482 0.0000
# 3 23.7187 22.7568 112.9146 0.0000 -14.4278 0.0000
# 4 0.0000 0.0000 0.0000 37.0592 0.0000 4.5150
# 5 2.0239 -1.4482 -14.4278 0.0000 27.4743 0.0000
# 6 0.0000 0.0000 0.0000 4.5150 0.0000 -6.6542
#
#
#
# Elastic Compliance Matrix: (Units=1/GPa)
#
#
# Indices 1 2 3 4 5 6 
#
# 1 0.019095 0.003715 -0.005268 0.000000 -0.003977 0.000000
# 2 0.003715 0.027177 -0.006549 0.000000 -0.002280 0.000000
# 3 -0.005268 -0.006549 0.012100 0.000000 0.006397 0.000000
# 4 0.000000 0.000000 0.000000 0.024924 0.000000 0.016911
# 5 -0.003977 -0.002280 0.006397 0.000000 0.039930 0.000000
# 6 0.000000 0.000000 0.000000 0.016911 0.000000 -0.138806
#
#
# Mechanical properties :
#
#
# Convention : Reuss Voigt Hill
#
# Bulk Modulus (GPa) = 23.71456 33.72703 28.72080
# Shear Modulus (GPa) = 340.58959 22.97410 181.78184
#
# Velocity S-wave (km/s) = 13.27188 3.44696 9.69599
# Velocity P-wave (km/s) = 15.72010 5.76929 11.84074
#
# Compressibility (1/GPa) = 0.04216818
#
# Stress axis : x y z
#
# Youngs Moduli (GPa) = 52.36917 36.79548 82.64386
#
# Poissons Ratio (x) = -0.13669 0.43537
# Poissons Ratio (y) = -0.19454 0.54123
# Poissons Ratio (z) = 0.27588 0.24097
#
# Static dielectric constant tensor:
#      x y z
#    x 1.729060 0.000000 -0.043340 
#    y 0.000000 1.657220 0.000000 
#    z -0.043340 0.000000 1.681080 
# 
# From -- ./inp_files/305639.got.cif
#   From: 2010.05.17/outbox.cif.g08.bks.cpg/sg15_153_cif.got.tgz:305639.got - 2010.06.03 18:47:42.
