data_PCOD9275174
_publ_section_title
;
Structure prediction by ZEFSAII (Michael W. Deem and Ramdas Pophale) SiO2 
 PCOD9275174
Probable space group: C 2/C
;
_chemical_formula_sum "Si O2"
_cell_formula_units_Z 44
_cell_length_a 21.911455
_cell_length_b 7.315438
_cell_length_c 14.387399
_cell_angle_alpha 90.000000
_cell_angle_beta 130.083472
_cell_angle_gamma 90.000000
_cell_volume 1764.477463
_symmetry_space_group_name_H-M "C 2/C"
_symmetry_group_IT_number 15
_symmetry_cell_setting 'monoclinic'
loop_
_space_group_symop_operation_xyz
x,y,z
-x,y,1/2-z
-x,-y,-z
x,-y,1/2+z
1/2+x,1/2+y,z
1/2-x,1/2+y,1/2-z
1/2-x,1/2-y,-z
1/2+x,1/2-y,1/2+z
loop_
_atom_site_type_symbol
_atom_site_label
_atom_site_fract_x
_atom_site_fract_y
_atom_site_fract_z
Si Si1 0.567242 0.457018 0.140089
Si Si2 0.307964 0.030240 0.666105
Si Si3 0.500000 0.437579 0.250000
Si Si4 0.369300 0.854285 0.547731
Si Si5 0.523718 0.966125 0.627248
Si Si6 0.211594 0.189943 0.213988
O O1 0.537599 0.552505 0.204692
O O2 0.555723 0.244662 0.158021
O O3 0.651146 0.528670 0.185469
O O4 0.500000 0.500000 0.000000
O O5 0.307338 0.934619 0.563673
O O6 0.399930 0.078230 0.769733
O O7 0.282367 0.887443 0.720748
O O8 0.264032 0.208727 0.665870
O O9 0.578508 0.322432 0.365966
O O10 0.443708 0.990589 0.607280
O O11 0.333755 0.810376 0.410882
O O12 0.500000 0.000000 0.500000
#
# Coordination Sequence:
#
# PCOD9275174 Si02
#       6
#     8   8   4   8   8   8
#     4  11  20  41  66  99 130 176 220 269 336 400
#     4  12  24  43  64  96 135 177 225 276 342 402
#     4  10  20  38  70  98 128 170 222 272 336 394
#     4  11  21  43  70  94 130 182 221 271 347 406
#     4  11  20  41  72  97 132 171 225 274 332 405
#     4  12  26  44  67  98 136 181 223 285 346 400
#
# _framework density 24.936558999999999
#
# number of rings (size 3 to 8) (size 9 to 14) (size 15 to 20)
#    0.000    0.727    9.091    1.636    0.000    0.000 
#    6.545    0.909    0.000    0.000    0.000    0.000 
#    0.000    0.000    0.000    0.000    0.000    0.000 
#
# Total GULP energy -122588.989591 kJ/mol
# GULP energy per Si atom -5572.226800 kJ/mol
# Density = 2.487980 g / cm^3
# Si number density = 24.936559 Si / 1000 Ang^3
#
#
#
# Elastic Constant Matrix: (Units=GPa)
#
#
# Indices 1 2 3 4 5 6 
#
# 1 178.4546 39.6138 23.2480 0.0000 -48.2232 0.0000
# 2 39.6138 70.4567 0.7338 0.0000 -14.3354 0.0000
# 3 23.2480 0.7338 70.1989 0.0000 -26.1646 0.0000
# 4 0.0000 0.0000 0.0000 30.3152 0.0000 -6.9473
# 5 -48.2232 -14.3354 -26.1646 0.0000 45.0602 0.0000
# 6 0.0000 0.0000 0.0000 -6.9473 0.0000 41.6851
#
#
#
# Elastic Compliance Matrix: (Units=1/GPa)
#
#
# Indices 1 2 3 4 5 6 
#
# 1 0.008486 -0.003091 0.000307 0.000000 0.008277 0.000000
# 2 -0.003091 0.016546 0.002016 0.000000 0.003127 0.000000
# 3 0.000307 0.002016 0.018484 0.000000 0.011703 0.000000
# 4 0.000000 0.000000 0.000000 0.034297 0.000000 0.005716
# 5 0.008277 0.003127 0.011703 0.000000 0.038841 0.000000
# 6 0.000000 0.000000 0.000000 0.005716 0.000000 0.024942
#
#
# Mechanical properties :
#
#
# Convention : Reuss Voigt Hill
#
# Bulk Modulus (GPa) = 23.81986 49.58905 36.70446
# Shear Modulus (GPa) = 31.82165 40.44639 36.13402
#
# Velocity S-wave (km/s) = 3.57614 4.03174 3.81075
# Velocity P-wave (km/s) = 5.15990 6.45000 5.84068
#
# Compressibility (1/GPa) = 0.04198177
#
# Stress axis : x y z
#
# Youngs Moduli (GPa) = 117.83508 60.43750 54.09943
#
# Poissons Ratio (x) = 0.18678 -0.01660
# Poissons Ratio (y) = 0.36417 -0.10907
# Poissons Ratio (z) = -0.03616 -0.12185
#
# Static dielectric constant tensor:
#      x y z
#    x 3.153120 0.000000 -1.325890 
#    y 0.000000 1.897740 0.000000 
#    z -1.325890 0.000000 3.363630 
# 
# From -- ./inp_files/165812.got.cif
#   From: 2010.05.17/outbox.cif.g08.bks.cpg/sg15_83_cif.got.tgz:165812.got - 2010.06.03 18:47:42.
