data_PCOD9275074
_publ_section_title
;
Structure prediction by ZEFSAII (Michael W. Deem and Ramdas Pophale) SiO2 
 PCOD9275074
Probable space group: C 2/C
;
_chemical_formula_sum "Si O2"
_cell_formula_units_Z 44
_cell_length_a 27.245805
_cell_length_b 15.004525
_cell_length_c 13.615028
_cell_angle_alpha 90.000000
_cell_angle_beta 22.227971
_cell_angle_gamma 90.000000
_cell_volume 2105.563966
_symmetry_space_group_name_H-M "C 2/C"
_symmetry_group_IT_number 15
_symmetry_cell_setting 'monoclinic'
loop_
_space_group_symop_operation_xyz
x,y,z
-x,y,1/2-z
-x,-y,-z
x,-y,1/2+z
1/2+x,1/2+y,z
1/2-x,1/2+y,1/2-z
1/2-x,1/2-y,-z
1/2+x,1/2-y,1/2+z
loop_
_atom_site_type_symbol
_atom_site_label
_atom_site_fract_x
_atom_site_fract_y
_atom_site_fract_z
Si Si1 0.727436 0.021328 0.340352
Si Si2 0.445219 0.689971 0.660552
Si Si3 0.500000 0.426735 0.250000
Si Si4 0.137462 0.504151 0.299723
Si Si5 0.189929 0.643030 0.049095
Si Si6 0.278568 0.646979 0.425366
O O1 0.633560 0.024762 0.421158
O O2 0.722414 0.102399 0.428518
O O3 0.693265 0.930646 0.459486
O O4 0.875134 0.020855 0.023870
O O5 0.447681 0.633599 0.756997
O O6 0.327841 0.692239 0.798809
O O7 0.567312 0.649673 0.376672
O O8 0.433841 0.792401 0.719630
O O9 0.000000 0.500000 0.500000
O O10 0.200582 0.588179 0.129945
O O11 0.221995 0.417185 0.114839
O O12 0.250000 0.750000 0.500000
#
# Coordination Sequence:
#
# PCOD9275074 Si02
#       6
#     8   8   4   8   8   8
#     4  10  23  38  66  96 123 170 212 264 327 388
#     4  10  21  39  63  89 127 166 207 268 317 384
#     4  10  20  38  68  92 130 162 222 266 328 388
#     4  11  23  41  65  94 132 172 215 270 326 394
#     4  10  22  39  62  93 126 165 212 262 320 387
#     4  10  23  41  63  94 129 171 214 270 324 390
#
# _framework density 20.897013999999999
#
# number of rings (size 3 to 8) (size 9 to 14) (size 15 to 20)
#    0.000    1.818    1.818    1.091    2.545    9.455 
#    0.000    0.000    0.000    0.000    0.000    0.000 
#    0.000    0.000    0.000    0.000    0.000    0.000 
#
# Total GULP energy -122537.196097 kJ/mol
# GULP energy per Si atom -5569.872550 kJ/mol
# Density = 2.084945 g / cm^3
# Si number density = 20.897014 Si / 1000 Ang^3
#
#
#
# Elastic Constant Matrix: (Units=GPa)
#
#
# Indices 1 2 3 4 5 6 
#
# 1 84.4505 18.6566 0.4118 0.0000 4.0910 0.0000
# 2 18.6566 98.1055 27.7981 0.0000 2.8335 0.0000
# 3 0.4118 27.7981 43.0171 0.0000 1.0773 0.0000
# 4 0.0000 0.0000 0.0000 33.7671 0.0000 -4.1293
# 5 4.0910 2.8335 1.0773 0.0000 29.2859 0.0000
# 6 0.0000 0.0000 0.0000 -4.1293 0.0000 0.1563
#
#
#
# Elastic Compliance Matrix: (Units=1/GPa)
#
#
# Indices 1 2 3 4 5 6 
#
# 1 0.012534 -0.002835 0.001751 0.000000 -0.001541 0.000000
# 2 -0.002835 0.013143 -0.008452 0.000000 -0.000565 0.000000
# 3 0.001751 -0.008452 0.028704 0.000000 -0.000483 0.000001
# 4 0.000000 0.000000 0.000000 -0.013275 0.000000 -0.350728
# 5 -0.001541 -0.000565 -0.000483 0.000000 0.034434 -0.000001
# 6 0.000000 0.000000 0.000001 -0.350728 -0.000001 -2.868039
#
#
# Mechanical properties :
#
#
# Convention : Reuss Voigt Hill
#
# Bulk Modulus (GPa) = 28.32236 35.47846 31.90041
# Shear Modulus (GPa) = -1.81051 24.55565 11.37257
#
# Velocity S-wave (km/s) = -0.93181 3.43166 2.33538
# Velocity P-wave (km/s) = 3.52491 5.71982 4.75086
#
# Compressibility (1/GPa) = 0.03530780
#
# Stress axis : x y z
#
# Youngs Moduli (GPa) = 79.78501 76.08339 34.83860
#
# Poissons Ratio (x) = 0.21570 -0.06099
# Poissons Ratio (y) = 0.22620 0.29446
# Poissons Ratio (z) = -0.13968 0.64307
#
# Static dielectric constant tensor:
#      x y z
#    x 1.805960 0.000000 -0.080220 
#    y 0.000000 1.838890 0.000000 
#    z -0.080220 0.000000 1.968040 
# 
# From -- ./inp_files/182244.got.cif
#   From: 2010.05.17/outbox.cif.g08.bks.cpg/sg15_92_cif.got.tgz:182244.got - 2010.06.03 18:47:42.
