data_PCOD9275717
_publ_section_title
;
Structure prediction by ZEFSAII (Michael W. Deem and Ramdas Pophale) SiO2 
 PCOD9275717
Probable space group: C 2/C
;
_chemical_formula_sum "Si O2"
_cell_formula_units_Z 48
_cell_length_a 18.380771
_cell_length_b 7.958606
_cell_length_c 14.049410
_cell_angle_alpha 90.000000
_cell_angle_beta 68.265516
_cell_angle_gamma 90.000000
_cell_volume 1909.116329
_symmetry_space_group_name_H-M "C 2/C"
_symmetry_group_IT_number 15
_symmetry_cell_setting 'monoclinic'
loop_
_space_group_symop_operation_xyz
x,y,z
-x,y,1/2-z
-x,-y,-z
x,-y,1/2+z
1/2+x,1/2+y,z
1/2-x,1/2+y,1/2-z
1/2-x,1/2-y,-z
1/2+x,1/2-y,1/2+z
loop_
_atom_site_type_symbol
_atom_site_label
_atom_site_fract_x
_atom_site_fract_y
_atom_site_fract_z
Si Si1 0.569009 0.080872 0.527723
Si Si2 0.939152 0.188269 0.095731
Si Si3 0.807451 0.459466 0.390418
Si Si4 0.516891 0.389230 0.141930
Si Si5 0.319675 0.554020 0.394117
Si Si6 0.185347 0.517756 0.826477
O O1 0.517715 0.224786 0.600292
O O2 0.617832 0.983059 0.583694
O O3 0.500000 0.000000 0.500000
O O4 0.636020 0.113754 0.416000
O O5 0.864704 0.308482 0.146269
O O6 0.943557 0.007198 0.143398
O O7 0.956912 0.179365 0.974154
O O8 0.728775 0.493306 0.486840
O O9 0.815706 0.255920 0.383675
O O10 0.808272 0.532241 0.285470
O O11 0.500000 0.291522 0.250000
O O12 0.593582 0.490809 0.136837
O O13 0.269309 0.471104 0.334363
#
# Coordination Sequence:
#
# PCOD9275717 Si02
#       6
#     8   8   8   8   8   8
#     4   9  19  38  60  92 120 157 215 259 305 381
#     4  10  22  39  61  92 126 159 215 261 305 391
#     4  10  20  39  64  86 126 169 202 262 313 378
#     4  11  23  41  64  88 128 172 206 261 326 372
#     4  10  22  40  61  93 124 163 217 249 311 394
#     4  10  22  39  64  93 122 163 210 261 318 369
#
# _framework density 25.142524000000002
#
# number of rings (size 3 to 8) (size 9 to 14) (size 15 to 20)
#    0.000    2.000    1.667    1.000    0.000    6.667 
#    9.000    0.000    0.000    0.000    0.000    0.000 
#    0.000    0.000    0.000    0.000    0.000    0.000 
#
# Total GULP energy -133946.730413 kJ/mol
# GULP energy per Si atom -5581.113767 kJ/mol
# Density = 2.508530 g / cm^3
# Si number density = 25.142524 Si / 1000 Ang^3
#
#
#
# Elastic Constant Matrix: (Units=GPa)
#
#
# Indices 1 2 3 4 5 6 
#
# 1 120.8722 29.0245 34.0994 0.0000 15.5282 0.0000
# 2 29.0245 28.5975 10.4218 0.0000 3.7761 0.0000
# 3 34.0994 10.4218 108.7861 0.0000 20.5656 0.0000
# 4 0.0000 0.0000 0.0000 6.4829 0.0000 0.2247
# 5 15.5282 3.7761 20.5656 0.0000 22.9119 0.0000
# 6 0.0000 0.0000 0.0000 0.2247 0.0000 20.7043
#
#
#
# Elastic Compliance Matrix: (Units=1/GPa)
#
#
# Indices 1 2 3 4 5 6 
#
# 1 0.012012 -0.010903 -0.001832 0.000000 -0.004699 0.000000
# 2 -0.010903 0.046356 -0.001175 0.000000 0.000805 0.000000
# 3 -0.001832 -0.001175 0.011571 0.000000 -0.008951 0.000000
# 4 0.000000 0.000000 0.000000 0.154311 0.000000 -0.001675
# 5 -0.004699 0.000805 -0.008951 0.000000 0.054732 0.000000
# 6 0.000000 0.000000 0.000000 -0.001675 0.000000 0.048317
#
#
# Mechanical properties :
#
#
# Convention : Reuss Voigt Hill
#
# Bulk Modulus (GPa) = 23.74286 45.03856 34.39071
# Shear Modulus (GPa) = 13.54425 22.33382 17.93903
#
# Velocity S-wave (km/s) = 2.32351 2.98365 2.67403
# Velocity P-wave (km/s) = 4.08192 5.46093 4.82099
#
# Compressibility (1/GPa) = 0.04211792
#
# Stress axis : x y z
#
# Youngs Moduli (GPa) = 83.25068 21.57215 86.41972
#
# Poissons Ratio (x) = 0.23520 0.15834
# Poissons Ratio (y) = 0.90768 0.10158
# Poissons Ratio (z) = 0.15254 0.02536
#
# Static dielectric constant tensor:
#      x y z
#    x 1.922660 0.000000 -0.013860 
#    y 0.000000 2.224470 0.000000 
#    z -0.013860 0.000000 2.019600 
# 
# From -- ./inp_files/103662.got.cif
#   From: 2010.05.17/outbox.cif.g08.bks.cpg/sg15_52_cif.got.tgz:103662.got - 2010.06.03 18:47:42.
