data_PCOD9275613
_publ_section_title
;
Structure prediction by ZEFSAII (Michael W. Deem and Ramdas Pophale) SiO2 
 PCOD9275613
Probable space group: C 2/C
;
_chemical_formula_sum "Si O2"
_cell_formula_units_Z 40
_cell_length_a 21.835948
_cell_length_b 7.143604
_cell_length_c 18.366934
_cell_angle_alpha 90.000000
_cell_angle_beta 141.045201
_cell_angle_gamma 90.000000
_cell_volume 1801.251906
_symmetry_space_group_name_H-M "C 2/C"
_symmetry_group_IT_number 15
_symmetry_cell_setting 'monoclinic'
loop_
_space_group_symop_operation_xyz
x,y,z
-x,y,1/2-z
-x,-y,-z
x,-y,1/2+z
1/2+x,1/2+y,z
1/2-x,1/2+y,1/2-z
1/2-x,1/2-y,-z
1/2+x,1/2-y,1/2+z
loop_
_atom_site_type_symbol
_atom_site_label
_atom_site_fract_x
_atom_site_fract_y
_atom_site_fract_z
Si Si1 0.203649 0.051784 0.115288
Si Si2 0.354978 0.359263 0.299315
Si Si3 0.469702 0.621741 0.638458
Si Si4 0.916477 0.275896 0.127767
Si Si5 0.230816 0.833393 0.885978
O O1 0.277115 0.191708 0.223218
O O2 0.135778 0.945847 0.111845
O O3 0.263418 0.881474 0.134686
O O4 0.138543 0.154735 0.993720
O O5 0.452934 0.301129 0.347929
O O6 0.310237 0.526258 0.210214
O O7 0.500000 0.670178 0.750000
O O8 0.471275 0.392645 0.637747
O O9 0.841408 0.168403 0.112181
O O10 0.000000 0.380288 0.250000
O O11 0.841758 0.387908 0.009381
#
# Coordination Sequence:
#
# PCOD9275613 Si02
#       5
#     8   8   8   8   8
#     4  11  25  41  64  94 123 166 209 251 308 370
#     4  12  22  43  64  90 128 165 204 256 309 366
#     4  10  21  42  66  90 124 165 200 259 315 355
#     4   9  17  37  64  87 121 162 199 256 310 355
#     4  10  20  39  63  89 121 162 207 253 309 361
#
# _framework density 22.206776000000001
#
# number of rings (size 3 to 8) (size 9 to 14) (size 15 to 20)
#    0.000    1.600    6.000    0.600    0.000    0.800 
#    3.600    1.000    0.000    0.000    0.000    0.000 
#    0.000    0.000    0.000    0.000    0.000    0.000 
#
# Total GULP energy -111541.747435 kJ/mol
# GULP energy per Si atom -5577.087372 kJ/mol
# Density = 2.215623 g / cm^3
# Si number density = 22.206776 Si / 1000 Ang^3
#
#
#
# Elastic Constant Matrix: (Units=GPa)
#
#
# Indices 1 2 3 4 5 6 
#
# 1 71.9727 9.2035 -12.8657 0.0000 -6.3152 0.0000
# 2 9.2035 61.1249 10.3615 0.0000 -1.7212 0.0000
# 3 -12.8657 10.3615 80.7345 0.0000 1.8535 0.0000
# 4 0.0000 0.0000 0.0000 8.2427 0.0000 0.0974
# 5 -6.3152 -1.7212 1.8535 0.0000 36.3879 0.0000
# 6 0.0000 0.0000 0.0000 0.0974 0.0000 19.6896
#
#
#
# Elastic Compliance Matrix: (Units=1/GPa)
#
#
# Indices 1 2 3 4 5 6 
#
# 1 0.014910 -0.002630 0.002660 0.000000 0.002328 0.000000
# 2 -0.002630 0.017217 -0.002640 0.000000 0.000492 0.000000
# 3 0.002660 -0.002640 0.013157 0.000000 -0.000333 0.000000
# 4 0.000000 0.000000 0.000000 0.121326 0.000000 -0.000600
# 5 0.002328 0.000492 -0.000333 0.000000 0.027926 0.000000
# 6 0.000000 0.000000 0.000000 -0.000600 0.000000 0.050791
#
#
# Mechanical properties :
#
#
# Convention : Reuss Voigt Hill
#
# Bulk Modulus (GPa) = 24.96026 25.24785 25.10405
# Shear Modulus (GPa) = 18.94638 26.67290 22.80964
#
# Velocity S-wave (km/s) = 2.92409 3.46947 3.20839
# Velocity P-wave (km/s) = 4.76075 5.23868 5.00542
#
# Compressibility (1/GPa) = 0.04006369
#
# Stress axis : x y z
#
# Youngs Moduli (GPa) = 67.06769 58.08067 76.00691
#
# Poissons Ratio (x) = 0.15278 -0.20220
# Poissons Ratio (y) = 0.17642 0.20067
# Poissons Ratio (z) = -0.17842 0.15334
#
# Static dielectric constant tensor:
#      x y z
#    x 1.843050 0.000000 -0.038940 
#    y 0.000000 1.796300 0.000000 
#    z -0.038940 0.000000 1.944210 
# 
# From -- ./inp_files/165619.got.cif
#   From: 2010.05.17/outbox.cif.g08.bks.cpg/sg15_83_cif.got.tgz:165619.got - 2010.06.03 18:47:42.
