data_PCOD9275201
_publ_section_title
;
Structure prediction by ZEFSAII (Michael W. Deem and Ramdas Pophale) SiO2 
 PCOD9275201
Probable space group: C 2/C
;
_chemical_formula_sum "Si O2"
_cell_formula_units_Z 56
_cell_length_a 7.617172
_cell_length_b 27.788157
_cell_length_c 16.932936
_cell_angle_alpha 90.000000
_cell_angle_beta 43.141991
_cell_angle_gamma 90.000000
_cell_volume 2450.870717
_symmetry_space_group_name_H-M "C 2/C"
_symmetry_group_IT_number 15
_symmetry_cell_setting 'monoclinic'
loop_
_space_group_symop_operation_xyz
x,y,z
-x,y,1/2-z
-x,-y,-z
x,-y,1/2+z
1/2+x,1/2+y,z
1/2-x,1/2+y,1/2-z
1/2-x,1/2-y,-z
1/2+x,1/2-y,1/2+z
loop_
_atom_site_type_symbol
_atom_site_label
_atom_site_fract_x
_atom_site_fract_y
_atom_site_fract_z
Si Si1 0.797383 0.384048 0.641266
Si Si2 0.054329 0.093320 0.949005
Si Si3 0.735356 0.217675 0.382793
Si Si4 0.217894 0.857920 0.230789
Si Si5 0.704009 0.686259 0.958879
Si Si6 0.524581 0.940145 0.071336
Si Si7 0.548293 0.035472 0.143703
O O1 0.500000 0.375403 0.750000
O O2 0.915512 0.330274 0.595671
O O3 0.840068 0.417744 0.550124
O O4 0.891318 0.415643 0.682798
O O5 0.118811 0.118810 0.844857
O O6 0.017744 0.140652 0.014190
O O7 0.300123 0.069252 0.908929
O O8 0.833276 0.053684 0.026501
O O9 0.621176 0.271252 0.426751
O O10 0.806387 0.204442 0.448989
O O11 0.000000 0.223874 0.250000
O O12 0.492907 0.830212 0.152449
O O13 0.285649 0.904931 0.156832
O O14 0.000000 0.831150 0.250000
O O15 0.463997 0.995773 0.106360
O O16 0.500000 0.019660 0.250000
#
# Coordination Sequence:
#
# PCOD9275201 Si02
#       7
#     8   8   8   8   8   8   8
#     4  11  23  41  66  90 128 166 213 261 318 382
#     4  11  22  39  63  91 127 165 210 265 313 379
#     4  10  20  38  72  91 122 166 213 253 319 383
#     4  11  22  38  64  94 132 163 215 267 315 374
#     4  10  21  41  68  92 126 170 211 256 323 385
#     4  11  22  43  62  92 124 176 213 260 320 379
#     4  12  26  40  63  94 131 167 215 268 321 375
#
# _framework density 22.849022999999999
#
# number of rings (size 3 to 8) (size 9 to 14) (size 15 to 20)
#    0.000    1.143    2.857    6.000    2.000    1.714 
#    0.000    0.714   12.571    0.000    0.000    0.000 
#    0.000    0.000    0.000    0.000    0.000    0.000 
#
# Total GULP energy -156037.902715 kJ/mol
# GULP energy per Si atom -5572.782240 kJ/mol
# Density = 2.279702 g / cm^3
# Si number density = 22.849023 Si / 1000 Ang^3
#
#
#
# Elastic Constant Matrix: (Units=GPa)
#
#
# Indices 1 2 3 4 5 6 
#
# 1 24.3858 -10.0828 -5.6312 0.0000 -8.0707 0.0000
# 2 -10.0828 141.1387 4.9903 0.0000 0.3760 0.0000
# 3 -5.6312 4.9903 89.6983 -0.0001 16.4776 -0.0001
# 4 0.0000 0.0000 -0.0001 24.1605 0.0000 -1.1047
# 5 -8.0707 0.3760 16.4776 0.0000 22.3312 0.0000
# 6 0.0000 0.0000 -0.0001 -1.1047 0.0000 16.4426
#
#
#
# Elastic Compliance Matrix: (Units=1/GPa)
#
#
# Indices 1 2 3 4 5 6 
#
# 1 0.048164 0.003408 -0.000408 0.000000 0.017651 0.000000
# 2 0.003408 0.007341 -0.000460 0.000000 0.001448 0.000000
# 3 -0.000408 -0.000460 0.012926 0.000000 -0.009678 0.000000
# 4 0.000000 0.000000 0.000000 0.041517 0.000000 0.002789
# 5 0.017651 0.001448 -0.009678 0.000000 0.058276 0.000000
# 6 0.000000 0.000000 0.000000 0.002789 0.000000 0.061005
#
#
# Mechanical properties :
#
#
# Convention : Reuss Voigt Hill
#
# Bulk Modulus (GPa) = 13.60353 25.97503 19.78928
# Shear Modulus (GPa) = 20.10820 30.31663 25.21241
#
# Velocity S-wave (km/s) = 2.96978 3.64651 3.32540
# Velocity P-wave (km/s) = 4.21023 5.39650 4.83984
#
# Compressibility (1/GPa) = 0.07351033
#
# Stress axis : x y z
#
# Youngs Moduli (GPa) = 20.76236 136.21880 77.36176
#
# Poissons Ratio (x) = -0.46426 0.03159
# Poissons Ratio (y) = -0.07076 0.03562
# Poissons Ratio (z) = 0.00848 0.06272
#
# Static dielectric constant tensor:
#      x y z
#    x 1.920120 0.000000 -0.032240 
#    y 0.000000 1.957640 0.000000 
#    z -0.032240 0.000000 1.922450 
# 
# From -- ./inp_files/193824.got.cif
#   From: 2010.05.17/outbox.cif.g08.bks.cpg/sg15_97_cif.got.tgz:193824.got - 2010.06.03 18:47:42.
