data_PCOD9275833
_publ_section_title
;
Structure prediction by ZEFSAII (Michael W. Deem and Ramdas Pophale) SiO2 
 PCOD9275833
Probable space group: C 2/C
;
_chemical_formula_sum "Si O2"
_cell_formula_units_Z 52
_cell_length_a 10.859404
_cell_length_b 16.644080
_cell_length_c 25.226099
_cell_angle_alpha 90.000000
_cell_angle_beta 146.937681
_cell_angle_gamma 90.000000
_cell_volume 2487.431708
_symmetry_space_group_name_H-M "C 2/C"
_symmetry_group_IT_number 15
_symmetry_cell_setting 'monoclinic'
loop_
_space_group_symop_operation_xyz
x,y,z
-x,y,1/2-z
-x,-y,-z
x,-y,1/2+z
1/2+x,1/2+y,z
1/2-x,1/2+y,1/2-z
1/2-x,1/2-y,-z
1/2+x,1/2-y,1/2+z
loop_
_atom_site_type_symbol
_atom_site_label
_atom_site_fract_x
_atom_site_fract_y
_atom_site_fract_z
Si Si1 0.457651 0.285644 0.043079
Si Si2 0.255643 0.493756 0.746729
Si Si3 0.377838 0.160858 0.759509
Si Si4 0.287641 0.705059 0.084955
Si Si5 0.272571 0.061069 0.088123
Si Si6 0.500000 0.410898 0.750000
Si Si7 0.065756 0.925514 0.943001
O O1 0.667673 0.291155 0.159072
O O2 0.550724 0.238675 0.024059
O O3 0.250000 0.250000 0.000000
O O4 0.367210 0.373719 0.995681
O O5 0.197536 0.586020 0.733488
O O6 0.312770 0.466958 0.708476
O O7 0.479929 0.477270 0.862175
O O8 0.042221 0.438603 0.686274
O O9 0.500000 0.128432 0.750000
O O10 0.543295 0.219444 0.850524
O O11 0.384795 0.645549 0.165034
O O12 0.178439 0.845737 0.957501
O O13 0.166437 0.078663 0.107164
O O14 0.216753 0.975484 0.039403
#
# Coordination Sequence:
#
# PCOD9275833 Si02
#       7
#     8   8   8   8   8   4   8
#     4  11  22  39  61  95 126 165 213 265 317 381
#     4  11  22  41  64  91 128 166 211 265 319 383
#     4  10  20  39  65  88 123 172 208 257 322 383
#     4  10  21  41  65  86 129 172 212 255 331 383
#     4  11  23  39  65  94 125 159 219 265 314 375
#     4  10  20  40  64  88 122 172 210 250 320 392
#     4  10  23  40  64  93 121 167 212 261 317 384
#
# _framework density 20.905096
#
# number of rings (size 3 to 8) (size 9 to 14) (size 15 to 20)
#    0.000    1.538    3.846    2.308    8.615    0.615 
#    2.769    2.308    0.000    0.000    0.000    0.000 
#    0.000    0.000    0.000    0.000    0.000    0.000 
#
# Total GULP energy -144940.465942 kJ/mol
# GULP energy per Si atom -5574.633305 kJ/mol
# Density = 2.085752 g / cm^3
# Si number density = 20.905096 Si / 1000 Ang^3
#
#
#
# Elastic Constant Matrix: (Units=GPa)
#
#
# Indices 1 2 3 4 5 6 
#
# 1 106.2922 61.4675 32.6205 0.0000 7.8922 -0.0001
# 2 61.4675 117.8350 13.3472 0.0000 -4.4889 0.0000
# 3 32.6205 13.3472 65.8441 0.0001 -0.6862 -0.0001
# 4 0.0000 0.0000 0.0001 10.0322 0.0001 8.6750
# 5 7.8922 -4.4889 -0.6862 0.0001 31.2711 -0.0002
# 6 -0.0001 0.0000 -0.0001 8.6750 -0.0002 -1.8219
#
#
#
# Elastic Compliance Matrix: (Units=1/GPa)
#
#
# Indices 1 2 3 4 5 6 
#
# 1 0.016507 -0.008072 -0.006599 0.000000 -0.005469 0.000000
# 2 -0.008072 0.012679 0.001469 0.000000 0.003889 0.000000
# 3 -0.006599 0.001469 0.018182 0.000000 0.002275 0.000000
# 4 0.000000 0.000000 0.000000 0.019479 0.000001 0.092747
# 5 -0.005469 0.003889 0.002275 0.000001 0.033967 -0.000001
# 6 0.000000 0.000000 0.000000 0.092747 -0.000001 -0.107258
#
#
# Mechanical properties :
#
#
# Convention : Reuss Voigt Hill
#
# Bulk Modulus (GPa) = 47.69633 56.09352 51.89493
# Shear Modulus (GPa) = 185.55233 20.06535 102.80884
#
# Velocity S-wave (km/s) = 9.43144 3.10147 7.02037
# Velocity P-wave (km/s) = 11.89403 6.30208 9.51799
#
# Compressibility (1/GPa) = 0.02096597
#
# Stress axis : x y z
#
# Youngs Moduli (GPa) = 60.58059 78.87268 54.99834
#
# Poissons Ratio (x) = 0.63663 0.36292
# Poissons Ratio (y) = 0.48898 -0.08081
# Poissons Ratio (z) = 0.39975 -0.11589
#
# Static dielectric constant tensor:
#      x y z
#    x 1.813850 0.000000 -0.009600 
#    y 0.000000 1.828370 0.000000 
#    z -0.009600 0.000000 1.745550 
# 
# From -- ./inp_files/293472.got.cif
#   From: 2010.05.17/outbox.cif.g08.bks.cpg/sg15_147_cif.got.tgz:293472.got - 2010.06.03 18:47:42.
