data_PCOD9275177
_publ_section_title
;
Structure prediction by ZEFSAII (Michael W. Deem and Ramdas Pophale) SiO2 
 PCOD9275177
Probable space group: C 2/C
;
_chemical_formula_sum "Si O2"
_cell_formula_units_Z 52
_cell_length_a 18.104318
_cell_length_b 5.524487
_cell_length_c 26.558645
_cell_angle_alpha 90.000000
_cell_angle_beta 107.059385
_cell_angle_gamma 90.000000
_cell_volume 2539.443069
_symmetry_space_group_name_H-M "C 2/C"
_symmetry_group_IT_number 15
_symmetry_cell_setting 'monoclinic'
loop_
_space_group_symop_operation_xyz
x,y,z
-x,y,1/2-z
-x,-y,-z
x,-y,1/2+z
1/2+x,1/2+y,z
1/2-x,1/2+y,1/2-z
1/2-x,1/2-y,-z
1/2+x,1/2-y,1/2+z
loop_
_atom_site_type_symbol
_atom_site_label
_atom_site_fract_x
_atom_site_fract_y
_atom_site_fract_z
Si Si1 0.500000 0.413359 0.250000
Si Si2 0.535569 0.748411 0.486623
Si Si3 0.388996 0.210470 0.774672
Si Si4 0.626350 0.898115 0.827892
Si Si5 0.624760 0.745623 0.594196
Si Si6 0.007620 0.510237 0.880192
Si Si7 0.202134 0.254534 0.148146
O O1 0.560647 0.558049 0.228492
O O2 0.443725 0.270045 0.202925
O O3 0.500000 0.500000 0.500000
O O4 0.617689 0.746498 0.531990
O O5 0.518879 0.779817 0.424234
O O6 0.500000 0.000000 0.500000
O O7 0.369505 0.090696 0.717189
O O8 0.449720 0.069076 0.822501
O O9 0.315198 0.246546 0.795315
O O10 0.593307 0.984623 0.874527
O O11 0.708130 0.769339 0.846165
O O12 0.660051 0.489959 0.619236
O O13 0.539098 0.792191 0.601545
O O14 0.670013 0.989752 0.620436
#
# Coordination Sequence:
#
# PCOD9275177 Si02
#       7
#     4   8   8   8   8   8   8
#     4  12  22  40  64  86 128 164 220 266 308 368
#     4  10  20  38  70  99 125 162 217 271 323 379
#     4  11  23  40  60  89 130 165 212 263 316 383
#     4  12  25  41  59  97 125 170 217 264 318 386
#     4  10  22  45  64  96 127 167 213 266 319 392
#     4  10  20  42  65  96 124 167 217 271 316 372
#     4  11  27  40  66  90 135 173 209 257 332 385
#
# _framework density 20.476932000000001
#
# number of rings (size 3 to 8) (size 9 to 14) (size 15 to 20)
#    0.000    1.231    3.077    3.692    6.462    1.231 
#    0.000    1.538    0.000    0.000    0.000    0.000 
#    0.000    0.000    0.000    0.000    0.000    0.000 
#
# Total GULP energy -144783.160680 kJ/mol
# GULP energy per Si atom -5568.583103 kJ/mol
# Density = 2.043033 g / cm^3
# Si number density = 20.476932 Si / 1000 Ang^3
#
#
#
# Elastic Constant Matrix: (Units=GPa)
#
#
# Indices 1 2 3 4 5 6 
#
# 1 45.9834 29.0237 71.1036 0.0000 -42.9168 0.0000
# 2 29.0237 114.1388 35.5230 -0.0001 2.6148 0.0000
# 3 71.1036 35.5230 39.0130 -0.0001 24.5851 -0.0001
# 4 0.0000 -0.0001 -0.0001 192.5554 0.0000 130.7792
# 5 -42.9168 2.6148 24.5851 0.0000 -7.6389 0.0000
# 6 0.0000 0.0000 -0.0001 130.7792 0.0000 129.3773
#
#
#
# Elastic Compliance Matrix: (Units=1/GPa)
#
#
# Indices 1 2 3 4 5 6 
#
# 1 0.004283 -0.001704 0.003064 0.000000 -0.014788 0.000000
# 2 -0.001704 0.010810 -0.004987 0.000000 -0.002778 0.000000
# 3 0.003064 -0.004987 0.012058 0.000000 0.019887 0.000000
# 4 0.000000 0.000000 0.000000 0.016568 0.000000 -0.016747
# 5 -0.014788 -0.002778 0.019887 0.000000 0.015225 0.000000
# 6 0.000000 0.000000 0.000000 -0.016747 0.000000 0.024658
#
#
# Mechanical properties :
#
#
# Convention : Reuss Voigt Hill
#
# Bulk Modulus (GPa) = 50.26041 52.27067 51.26554
# Shear Modulus (GPa) = 51.28803 67.09110 59.18956
#
# Velocity S-wave (km/s) = 5.01010 5.73021 5.38221
# Velocity P-wave (km/s) = 7.62013 8.32842 7.98213
#
# Compressibility (1/GPa) = 0.01989638
#
# Stress axis : x y z
#
# Youngs Moduli (GPa) = 233.45959 92.50391 82.93504
#
# Poissons Ratio (x) = 0.15762 -0.25409
# Poissons Ratio (y) = 0.39780 0.41362
# Poissons Ratio (z) = -0.71526 0.46134
#
# Static dielectric constant tensor:
#      x y z
#    x 1.727990 0.000000 0.000020 
#    y 0.000000 1.536590 0.000000 
#    z 0.000020 0.000000 1.794730 
# 
# From -- ./inp_files/297452.got.cif
#   From: 2010.05.17/outbox.cif.g08.bks.cpg/sg15_149_cif.got.tgz:297452.got - 2010.06.03 18:47:42.
