data_PCOD9275614
_publ_section_title
;
Structure prediction by ZEFSAII (Michael W. Deem and Ramdas Pophale) SiO2 
 PCOD9275614
Probable space group: C 2/C
;
_chemical_formula_sum "Si O2"
_cell_formula_units_Z 44
_cell_length_a 20.735207
_cell_length_b 8.211876
_cell_length_c 15.117808
_cell_angle_alpha 90.000000
_cell_angle_beta 56.171560
_cell_angle_gamma 90.000000
_cell_volume 2138.395839
_symmetry_space_group_name_H-M "C 2/C"
_symmetry_group_IT_number 15
_symmetry_cell_setting 'monoclinic'
loop_
_space_group_symop_operation_xyz
x,y,z
-x,y,1/2-z
-x,-y,-z
x,-y,1/2+z
1/2+x,1/2+y,z
1/2-x,1/2+y,1/2-z
1/2-x,1/2-y,-z
1/2+x,1/2-y,1/2+z
loop_
_atom_site_type_symbol
_atom_site_label
_atom_site_fract_x
_atom_site_fract_y
_atom_site_fract_z
Si Si1 0.799230 0.230056 0.873882
Si Si2 0.000000 0.349387 0.250000
Si Si3 0.582121 0.938537 0.820400
Si Si4 0.847785 0.735752 0.631155
Si Si5 0.010913 0.870994 0.068691
Si Si6 0.402117 0.572782 0.263491
O O1 0.861132 0.370282 0.800134
O O2 0.739023 0.228865 0.837940
O O3 0.844611 0.059845 0.846090
O O4 0.750000 0.250000 0.000000
O O5 0.013099 0.461928 0.325008
O O6 0.073578 0.227619 0.196483
O O7 0.546693 0.781883 0.895144
O O8 0.624309 0.060207 0.854969
O O9 0.863435 0.853887 0.703177
O O10 0.903280 0.799662 0.509248
O O11 0.979647 0.972961 0.175426
O O12 0.000000 0.000000 0.000000
#
# Coordination Sequence:
#
# PCOD9275614 Si02
#       6
#     8   4   8   8   8   8
#     4  11  24  38  61  92 127 163 204 254 317 373
#     4  10  22  38  64  86 124 160 212 250 316 350
#     4  10  22  40  63  89 126 165 203 259 309 378
#     4  10  20  39  63  89 122 160 210 248 320 375
#     4   9  19  36  64  94 114 159 211 257 299 365
#     4   9  21  40  61  88 126 166 200 257 308 371
#
# _framework density 20.576170999999999
#
# number of rings (size 3 to 8) (size 9 to 14) (size 15 to 20)
#    0.000    2.182    0.000    1.636    5.091    1.455 
#    0.000    3.636    4.000    0.000    0.000    0.000 
#    0.000    0.000    0.000    0.000    0.000    0.000 
#
# Total GULP energy -122735.819573 kJ/mol
# GULP energy per Si atom -5578.900890 kJ/mol
# Density = 2.052934 g / cm^3
# Si number density = 20.576171 Si / 1000 Ang^3
#
#
#
# Elastic Constant Matrix: (Units=GPa)
#
#
# Indices 1 2 3 4 5 6 
#
# 1 90.4047 39.4849 33.4475 0.0000 11.1656 0.0000
# 2 39.4849 143.6874 55.5176 0.0000 1.5906 0.0000
# 3 33.4475 55.5176 97.6150 0.0000 -8.9475 0.0000
# 4 0.0000 0.0000 0.0000 17.5547 0.0000 -2.6785
# 5 11.1656 1.5906 -8.9475 0.0000 25.2085 0.0000
# 6 0.0000 0.0000 0.0000 -2.6785 0.0000 24.3352
#
#
#
# Elastic Compliance Matrix: (Units=1/GPa)
#
#
# Indices 1 2 3 4 5 6 
#
# 1 0.014673 -0.002204 -0.004504 0.000000 -0.007959 0.000000
# 2 -0.002204 0.009399 -0.004708 0.000000 -0.001288 0.000000
# 3 -0.004504 -0.004708 0.015169 0.000000 0.007676 0.000000
# 4 0.000000 0.000000 0.000000 0.057938 0.000000 0.006377
# 5 -0.007959 -0.001288 0.007676 0.000000 0.046000 0.000000
# 6 0.000000 0.000000 0.000000 0.006377 0.000000 0.041795
#
#
# Mechanical properties :
#
#
# Convention : Reuss Voigt Hill
#
# Bulk Modulus (GPa) = 60.94287 65.40076 63.17182
# Shear Modulus (GPa) = 23.44395 26.97017 25.20706
#
# Velocity S-wave (km/s) = 3.37912 3.62435 3.50388
# Velocity P-wave (km/s) = 6.70128 7.02626 6.86569
#
# Compressibility (1/GPa) = 0.01640881
#
# Stress axis : x y z
#
# Youngs Moduli (GPa) = 68.15156 106.39882 65.92437
#
# Poissons Ratio (x) = 0.23449 0.29691
# Poissons Ratio (y) = 0.15020 0.31039
# Poissons Ratio (z) = 0.30694 0.50095
#
# Static dielectric constant tensor:
#      x y z
#    x 1.773590 0.000000 -0.012600 
#    y 0.000000 1.739160 0.000000 
#    z -0.012600 0.000000 1.766660 
# 
# From -- ./inp_files/166080.got.cif
#   From: 2010.05.17/outbox.cif.g08.bks.cpg/sg15_84_cif.got.tgz:166080.got - 2010.06.03 18:47:42.
