data_PCOD9275773
_publ_section_title
;
Structure prediction by ZEFSAII (Michael W. Deem and Ramdas Pophale) SiO2 
 PCOD9275773
Probable space group: C 2/C
;
_chemical_formula_sum "Si O2"
_cell_formula_units_Z 60
_cell_length_a 11.709538
_cell_length_b 16.380393
_cell_length_c 30.128564
_cell_angle_alpha 90.000000
_cell_angle_beta 28.881686
_cell_angle_gamma 90.000000
_cell_volume 2791.206139
_symmetry_space_group_name_H-M "C 2/C"
_symmetry_group_IT_number 15
_symmetry_cell_setting 'monoclinic'
loop_
_space_group_symop_operation_xyz
x,y,z
-x,y,1/2-z
-x,-y,-z
x,-y,1/2+z
1/2+x,1/2+y,z
1/2-x,1/2+y,1/2-z
1/2-x,1/2-y,-z
1/2+x,1/2-y,1/2+z
loop_
_atom_site_type_symbol
_atom_site_label
_atom_site_fract_x
_atom_site_fract_y
_atom_site_fract_z
Si Si1 0.542345 0.167819 0.615563
Si Si2 0.500000 0.575556 0.250000
Si Si3 0.160620 0.573978 0.737566
Si Si4 0.963214 0.563958 0.050918
Si Si5 0.454325 0.243428 0.213745
Si Si6 0.820607 0.098886 0.216064
Si Si7 0.798255 0.672109 0.031714
Si Si8 0.635017 0.324813 0.067595
O O1 0.519993 0.103857 0.662423
O O2 0.304074 0.218361 0.704828
O O3 0.760503 0.230762 0.544659
O O4 0.546690 0.142199 0.562549
O O5 0.738404 0.531069 0.154181
O O6 0.400136 0.618636 0.239690
O O7 0.288875 0.495972 0.716115
O O8 0.364851 0.640351 0.653568
O O9 0.000000 0.552788 0.750000
O O10 0.882187 0.644200 0.051226
O O11 0.000000 0.500000 0.000000
O O12 0.194747 0.596303 0.996432
O O13 0.500000 0.251467 0.250000
O O14 0.416120 0.149018 0.213797
O O15 0.624270 0.290710 0.122128
O O16 0.041995 0.130369 0.112038
O O17 0.750000 0.250000 0.000000
#
# Coordination Sequence:
#
# PCOD9275773 Si02
#       8
#     8   4   8   8   8   8   8   8
#     4   9  20  38  62  88 118 171 214 259 322 392
#     4  10  22  40  66  94 134 178 212 274 350 386
#     4  11  25  44  64  92 133 176 217 271 337 401
#     4  11  23  39  65 100 132 170 221 284 330 404
#     4  10  20  39  64  93 131 173 217 272 336 397
#     4  10  21  41  63  96 129 174 220 269 333 403
#     4   9  19  38  62  91 124 158 218 266 319 386
#     4  11  24  42  64 100 136 172 233 277 338 416
#
# _framework density 21.496082999999999
#
# number of rings (size 3 to 8) (size 9 to 14) (size 15 to 20)
#    0.000    1.867    0.000    3.600    3.733    1.067 
#   16.800    0.667    0.000    0.000    0.000    0.000 
#    0.000    0.000    0.000    0.000    0.000    0.000 
#
# Total GULP energy -167015.262450 kJ/mol
# GULP energy per Si atom -5567.175415 kJ/mol
# Density = 2.144716 g / cm^3
# Si number density = 21.496083 Si / 1000 Ang^3
#
#
#
# Elastic Constant Matrix: (Units=GPa)
#
#
# Indices 1 2 3 4 5 6 
#
# 1 65.5576 8.8287 9.0570 -0.0080 9.4576 0.0045
# 2 8.8287 51.8158 18.6418 -0.0052 5.6207 -0.0013
# 3 9.0570 18.6418 130.6782 -0.0217 15.8529 0.0195
# 4 -0.0080 -0.0052 -0.0217 16.1027 0.0249 2.9977
# 5 9.4576 5.6207 15.8529 0.0249 30.2441 -0.0040
# 6 0.0045 -0.0013 0.0195 2.9977 -0.0040 24.7292
#
#
#
# Elastic Compliance Matrix: (Units=1/GPa)
#
#
# Indices 1 2 3 4 5 6 
#
# 1 0.016238 -0.002180 -0.000264 0.000015 -0.004534 -0.000005
# 2 -0.002180 0.020802 -0.002595 0.000004 -0.001824 0.000003
# 3 -0.000264 -0.002595 0.008514 0.000018 -0.003898 -0.000010
# 4 0.000015 0.000004 0.000018 0.063535 -0.000068 -0.007702
# 5 -0.004534 -0.001824 -0.003898 -0.000068 0.036864 0.000018
# 6 -0.000005 0.000003 -0.000010 -0.007702 0.000018 0.041372
#
#
# Mechanical properties :
#
#
# Convention : Reuss Voigt Hill
#
# Bulk Modulus (GPa) = 28.18875 35.67850 31.93363
# Shear Modulus (GPa) = 23.89731 28.31680 26.10706
#
# Velocity S-wave (km/s) = 3.33784 3.63340 3.48875
# Velocity P-wave (km/s) = 5.29120 5.85114 5.57820
#
# Compressibility (1/GPa) = 0.03547514
#
# Stress axis : x y z
#
# Youngs Moduli (GPa) = 61.58412 48.07216 117.45684
#
# Poissons Ratio (x) = 0.10479 0.03106
# Poissons Ratio (y) = 0.13424 0.30482
# Poissons Ratio (z) = 0.01628 0.12475
#
# Static dielectric constant tensor:
#      x y z
#    x 1.768580 0.035030 -0.007190 
#    y 0.035030 25.082470 0.001040 
#    z -0.007190 0.001040 1.844270 
# 
# From -- ./inp_files/311568.got.cif
#   From: 2010.05.17/outbox.cif.g08.bks.cpg/sg15_156_cif.got.tgz:311568.got - 2010.06.03 18:47:42.
