data_PCOD9275220
_publ_section_title
;
Structure prediction by ZEFSAII (Michael W. Deem and Ramdas Pophale) SiO2 
 PCOD9275220
Probable space group: C 2/C
;
_chemical_formula_sum "Si O2"
_cell_formula_units_Z 60
_cell_length_a 25.060689
_cell_length_b 21.951599
_cell_length_c 5.284448
_cell_angle_alpha 90.000000
_cell_angle_beta 90.885889
_cell_angle_gamma 90.000000
_cell_volume 2906.744653
_symmetry_space_group_name_H-M "C 2/C"
_symmetry_group_IT_number 15
_symmetry_cell_setting 'monoclinic'
loop_
_space_group_symop_operation_xyz
x,y,z
-x,y,1/2-z
-x,-y,-z
x,-y,1/2+z
1/2+x,1/2+y,z
1/2-x,1/2+y,1/2-z
1/2-x,1/2-y,-z
1/2+x,1/2-y,1/2+z
loop_
_atom_site_type_symbol
_atom_site_label
_atom_site_fract_x
_atom_site_fract_y
_atom_site_fract_z
Si Si1 0.051081 0.346568 0.365591
Si Si2 0.809090 0.844777 0.873680
Si Si3 0.152752 0.645174 0.135443
Si Si4 0.106795 0.745798 0.486040
Si Si5 0.802087 0.475522 0.782703
Si Si6 0.500000 0.248508 0.250000
Si Si7 0.250486 0.683844 0.874598
Si Si8 0.680094 0.522931 0.880192
O O1 0.095021 0.378474 0.542911
O O2 0.023478 0.295018 0.535381
O O3 0.000000 0.381810 0.250000
O O4 0.084319 0.308303 0.160987
O O5 0.857324 0.796344 0.876391
O O6 0.769438 0.818333 0.088460
O O7 0.821409 0.910479 0.996101
O O8 0.786760 0.851575 0.586450
O O9 0.141078 0.708554 0.279508
O O10 0.186006 0.594112 0.289772
O O11 0.191138 0.658538 0.901524
O O12 0.053861 0.778167 0.364153
O O13 0.826164 0.515207 0.561310
O O14 0.741215 0.499307 0.826377
O O15 0.250000 0.750000 0.000000
O O16 0.655627 0.519136 0.598903
#
# Coordination Sequence:
#
# PCOD9275220 Si02
#       8
#     8   8   8   8   8   4   8   8
#     4   9  19  37  59  84 115 145 191 243 305 363
#     4  12  24  38  58  86 126 160 202 243 292 359
#     4  11  22  34  58  82 116 156 200 240 293 353
#     4  10  21  35  59  90 117 154 187 247 305 354
#     4  10  21  36  53  75 106 154 205 237 272 329
#     4   8  18  38  56  86 116 146 192 234 302 374
#     4  12  23  35  50  87 127 160 188 233 296 364
#     4  10  20  39  55  75 110 161 207 240 275 329
#
# _framework density 20.641646999999999
#
# number of rings (size 3 to 8) (size 9 to 14) (size 15 to 20)
#    0.000    1.600    1.333    5.200    5.600    0.000 
#    0.000    0.000    0.000    0.800    0.000    0.933 
#    0.000    0.000    0.000    0.000    0.000    0.000 
#
# Total GULP energy -167105.109366 kJ/mol
# GULP energy per Si atom -5570.170312 kJ/mol
# Density = 2.059467 g / cm^3
# Si number density = 20.641647 Si / 1000 Ang^3
#
#
#
# Elastic Constant Matrix: (Units=GPa)
#
#
# Indices 1 2 3 4 5 6 
#
# 1 80.4489 5.1188 7.1103 0.0000 9.1526 0.0000
# 2 5.1188 60.7982 -9.9675 0.0000 2.7539 0.0000
# 3 7.1103 -9.9675 90.4819 0.0000 -6.4244 0.0000
# 4 0.0000 0.0000 0.0000 23.4603 0.0000 -2.2755
# 5 9.1526 2.7539 -6.4244 0.0000 25.0643 0.0000
# 6 0.0000 0.0000 0.0000 -2.2755 0.0000 3.7226
#
#
#
# Elastic Compliance Matrix: (Units=1/GPa)
#
#
# Indices 1 2 3 4 5 6 
#
# 1 0.013216 -0.001132 -0.001525 0.000000 -0.005093 0.000000
# 2 -0.001132 0.016895 0.001882 0.000000 -0.000961 0.000000
# 3 -0.001525 0.001882 0.011615 0.000000 0.003327 0.000000
# 4 0.000000 0.000000 0.000000 0.045312 0.000000 0.027698
# 5 -0.005093 -0.000961 0.003327 0.000000 0.042715 0.000000
# 6 0.000000 0.000000 0.000000 0.027698 0.000000 0.285561
#
#
# Mechanical properties :
#
#
# Convention : Reuss Voigt Hill
#
# Bulk Modulus (GPa) = 24.88989 26.25026 25.57008
# Shear Modulus (GPa) = 11.62094 25.74727 18.68410
#
# Velocity S-wave (km/s) = 2.37530 3.53561 3.01186
# Velocity P-wave (km/s) = 4.42798 5.42329 4.95072
#
# Compressibility (1/GPa) = 0.04017696
#
# Stress axis : x y z
#
# Youngs Moduli (GPa) = 75.66333 59.18839 86.09327
#
# Poissons Ratio (x) = 0.06700 0.13128
# Poissons Ratio (y) = 0.08565 -0.16202
# Poissons Ratio (z) = 0.11538 -0.11139
#
# Static dielectric constant tensor:
#      x y z
#    x 1.865320 0.000000 0.023470 
#    y 0.000000 1.816090 0.000000 
#    z 0.023470 0.000000 2.007330 
# 
# From -- ./inp_files/15834.got.cif
#   From: 2010.05.17/outbox.cif.g08.bks.cpg/sg15_8_cif.got.tgz:15834.got - 2010.06.03 18:47:42.
