data_PCOD9275165
_publ_section_title
;
Structure prediction by ZEFSAII (Michael W. Deem and Ramdas Pophale) SiO2 
 PCOD9275165
Probable space group: C 2/C
;
_chemical_formula_sum "Si O2"
_cell_formula_units_Z 52
_cell_length_a 22.556725
_cell_length_b 9.034111
_cell_length_c 17.540390
_cell_angle_alpha 90.000000
_cell_angle_beta 37.304637
_cell_angle_gamma 90.000000
_cell_volume 2166.262880
_symmetry_space_group_name_H-M "C 2/C"
_symmetry_group_IT_number 15
_symmetry_cell_setting 'monoclinic'
loop_
_space_group_symop_operation_xyz
x,y,z
-x,y,1/2-z
-x,-y,-z
x,-y,1/2+z
1/2+x,1/2+y,z
1/2-x,1/2+y,1/2-z
1/2-x,1/2-y,-z
1/2+x,1/2-y,1/2+z
loop_
_atom_site_type_symbol
_atom_site_label
_atom_site_fract_x
_atom_site_fract_y
_atom_site_fract_z
Si Si1 0.692824 0.599254 0.135000
Si Si2 0.987282 0.325238 0.518507
Si Si3 0.344718 0.877158 0.248218
Si Si4 0.000000 0.946880 0.750000
Si Si5 0.278757 0.101747 0.422917
Si Si6 0.909213 0.887124 0.483836
Si Si7 0.674182 0.406126 0.306696
O O1 0.722432 0.755994 0.139804
O O2 0.596233 0.631967 0.182625
O O3 0.677102 0.481118 0.220357
O O4 0.764605 0.520857 0.002733
O O5 0.056686 0.287874 0.374772
O O6 0.042367 0.260586 0.535491
O O7 0.000000 0.500000 0.500000
O O8 0.880227 0.252722 0.631858
O O9 0.280973 0.906492 0.236783
O O10 0.361348 0.021367 0.284722
O O11 0.030360 0.047477 0.647596
O O12 0.250000 0.250000 0.500000
O O13 0.198501 0.122088 0.439083
O O14 0.897113 0.994641 0.567925
#
# Coordination Sequence:
#
# PCOD9275165 Si02
#       7
#     8   8   8   4   8   8   8
#     4  11  22  42  72  96 139 184 246 290 357 441
#     4  12  26  39  67 105 142 173 245 303 358 415
#     4  11  26  44  70 107 141 189 242 301 360 435
#     4  10  20  38  70  92 134 184 238 284 358 434
#     4  10  25  41  68  97 141 183 231 286 370 429
#     4  10  21  42  62  97 128 188 232 285 353 439
#     4  11  24  43  73 100 140 192 241 299 366 429
#
# _framework density 24.004473000000001
#
# number of rings (size 3 to 8) (size 9 to 14) (size 15 to 20)
#    0.000    1.231    3.077    1.846    6.462    0.000 
#    0.000    1.538    0.000    0.923    0.000    0.000 
#    0.000    0.000    0.000    0.000    0.000    0.000 
#
# Total GULP energy -144906.903848 kJ/mol
# GULP energy per Si atom -5573.342456 kJ/mol
# Density = 2.394984 g / cm^3
# Si number density = 24.004473 Si / 1000 Ang^3
#
#
#
# Elastic Constant Matrix: (Units=GPa)
#
#
# Indices 1 2 3 4 5 6 
#
# 1 55.8133 13.0938 31.1790 -0.0003 30.2166 0.0001
# 2 13.0938 98.1843 17.9673 -0.0011 13.9249 0.0007
# 3 31.1790 17.9673 101.8351 -0.0003 21.1704 0.0002
# 4 -0.0003 -0.0011 -0.0003 29.6554 0.0003 16.0937
# 5 30.2166 13.9249 21.1704 0.0003 30.6328 -0.0001
# 6 0.0001 0.0007 0.0002 16.0937 -0.0001 29.9956
#
#
#
# Elastic Compliance Matrix: (Units=1/GPa)
#
#
# Indices 1 2 3 4 5 6 
#
# 1 0.040384 0.000722 -0.004837 0.000001 -0.036820 -0.000001
# 2 0.000722 0.010995 -0.001137 0.000001 -0.004924 -0.000001
# 3 -0.004837 -0.001137 0.012147 0.000000 -0.003107 0.000000
# 4 0.000001 0.000001 0.000000 0.047573 -0.000002 -0.025524
# 5 -0.036820 -0.004924 -0.003107 -0.000002 0.073350 0.000002
# 6 -0.000001 -0.000001 0.000000 -0.025524 0.000002 0.047033
#
#
# Mechanical properties :
#
#
# Convention : Reuss Voigt Hill
#
# Bulk Modulus (GPa) = 18.86056 42.25699 30.55878
# Shear Modulus (GPa) = 19.25588 30.96292 25.10940
#
# Velocity S-wave (km/s) = 2.83535 3.59539 3.23775
# Velocity P-wave (km/s) = 4.31197 5.90574 5.17063
#
# Compressibility (1/GPa) = 0.05302069
#
# Stress axis : x y z
#
# Youngs Moduli (GPa) = 24.76244 90.94918 82.32302
#
# Poissons Ratio (x) = -0.06563 0.39821
# Poissons Ratio (y) = -0.01787 0.09362
# Poissons Ratio (z) = 0.11978 0.10343
#
# Static dielectric constant tensor:
#      x y z
#    x 1.592000 0.000000 -0.133400 
#    y 0.000000 2.124610 0.000000 
#    z -0.133400 0.000000 2.129210 
# 
# From -- ./inp_files/221836.got.cif
#   From: 2010.05.17/outbox.cif.g08.bks.cpg/sg15_111_cif.got.tgz:221836.got - 2010.06.03 18:47:42.
