data_PCOD9275953
_publ_section_title
;
Structure prediction by ZEFSAII (Michael W. Deem and Ramdas Pophale) SiO2 
 PCOD9275953
Probable space group: C 2/C
;
_chemical_formula_sum "Si O2"
_cell_formula_units_Z 40
_cell_length_a 24.313628
_cell_length_b 5.523672
_cell_length_c 13.212290
_cell_angle_alpha 90.000000
_cell_angle_beta 72.047841
_cell_angle_gamma 90.000000
_cell_volume 1688.028328
_symmetry_space_group_name_H-M "C 2/C"
_symmetry_group_IT_number 15
_symmetry_cell_setting 'monoclinic'
loop_
_space_group_symop_operation_xyz
x,y,z
-x,y,1/2-z
-x,-y,-z
x,-y,1/2+z
1/2+x,1/2+y,z
1/2-x,1/2+y,1/2-z
1/2-x,1/2-y,-z
1/2+x,1/2-y,1/2+z
loop_
_atom_site_type_symbol
_atom_site_label
_atom_site_fract_x
_atom_site_fract_y
_atom_site_fract_z
Si Si1 0.372950 0.132178 0.085858
Si Si2 0.947055 0.259830 0.121178
Si Si3 0.256434 0.104595 0.684467
Si Si4 0.136999 0.041022 0.712010
Si Si5 0.566901 0.534759 0.078451
O O1 0.320788 0.942932 0.106156
O O2 0.358576 0.304302 0.188081
O O3 0.434804 0.026346 0.087409
O O4 0.383276 0.271587 0.976232
O O5 0.895019 0.201124 0.229109
O O6 0.007571 0.176172 0.132403
O O7 0.940234 0.107235 0.021949
O O8 0.246779 0.879376 0.770347
O O9 0.203185 0.049749 0.638563
O O10 0.091569 0.129707 0.653987
#
# Coordination Sequence:
#
# PCOD9275953 Si02
#       5
#     8   8   8   8   8
#     4  10  21  38  62  87 124 165 202 262 318 370
#     4  10  20  40  59  85 125 160 202 258 317 368
#     4  10  20  39  66  90 128 170 211 263 321 377
#     4  10  21  38  61  89 121 164 211 254 315 376
#     4  10  22  37  60  90 122 159 209 259 308 381
#
# _framework density 23.696283999999999
#
# number of rings (size 3 to 8) (size 9 to 14) (size 15 to 20)
#    0.000    2.000    2.000    1.200    0.000    2.400 
#    0.000    7.000    0.000    0.000    0.000    0.000 
#    0.000    0.000    0.000    0.000    0.000    0.000 
#
# Total GULP energy -111412.411525 kJ/mol
# GULP energy per Si atom -5570.620576 kJ/mol
# Density = 2.364235 g / cm^3
# Si number density = 23.696284 Si / 1000 Ang^3
#
#
#
# Elastic Constant Matrix: (Units=GPa)
#
#
# Indices 1 2 3 4 5 6 
#
# 1 147.4584 3.2490 18.3676 0.0000 -1.6548 0.0000
# 2 3.2490 52.4107 -0.0368 0.0000 -6.2750 0.0000
# 3 18.3676 -0.0368 49.3397 0.0000 0.7883 0.0000
# 4 0.0000 0.0000 0.0000 4.6168 0.0000 -9.4537
# 5 -1.6548 -6.2750 0.7883 0.0000 27.1986 0.0000
# 6 0.0000 0.0000 0.0000 -9.4537 0.0000 32.1500
#
#
#
# Elastic Compliance Matrix: (Units=1/GPa)
#
#
# Indices 1 2 3 4 5 6 
#
# 1 0.007126 -0.000393 -0.002660 0.000000 0.000420 0.000000
# 2 -0.000393 0.019644 0.000089 0.000000 0.004506 0.000000
# 3 -0.002660 0.000089 0.021270 0.000000 -0.000758 0.000000
# 4 0.000000 0.000000 0.000000 0.544380 0.000000 0.160074
# 5 0.000420 0.004506 -0.000758 0.000000 0.037854 0.000000
# 6 0.000000 0.000000 0.000000 0.160074 0.000000 0.078174
#
#
# Mechanical properties :
#
#
# Convention : Reuss Voigt Hill
#
# Bulk Modulus (GPa) = 23.74625 32.48540 28.11582
# Shear Modulus (GPa) = 6.86424 27.96835 17.41629
#
# Velocity S-wave (km/s) = 1.70383 3.43925 2.71399
# Velocity P-wave (km/s) = 3.73009 5.43232 4.65960
#
# Compressibility (1/GPa) = 0.04211192
#
# Stress axis : x y z
#
# Youngs Moduli (GPa) = 140.32582 50.90626 47.01457
#
# Poissons Ratio (x) = 0.02002 0.12505
# Poissons Ratio (y) = 0.05520 -0.00419
# Poissons Ratio (z) = 0.37325 -0.00454
#
# Static dielectric constant tensor:
#      x y z
#    x 1.989660 0.000000 -0.060120 
#    y 0.000000 1.967700 0.000000 
#    z -0.060120 0.000000 1.946640 
# 
# From -- ./inp_files/120700.got.cif
#   From: 2010.05.17/outbox.cif.g08.bks.cpg/sg15_61_cif.got.tgz:120700.got - 2010.06.03 18:47:42.
