data_PCOD9275579
_publ_section_title
;
Structure prediction by ZEFSAII (Michael W. Deem and Ramdas Pophale) SiO2 
 PCOD9275579
Probable space group: C 2/C
;
_chemical_formula_sum "Si O2"
_cell_formula_units_Z 60
_cell_length_a 12.876839
_cell_length_b 14.457931
_cell_length_c 17.525219
_cell_angle_alpha 90.000000
_cell_angle_beta 121.514579
_cell_angle_gamma 90.000000
_cell_volume 2781.486240
_symmetry_space_group_name_H-M "C 2/C"
_symmetry_group_IT_number 15
_symmetry_cell_setting 'monoclinic'
loop_
_space_group_symop_operation_xyz
x,y,z
-x,y,1/2-z
-x,-y,-z
x,-y,1/2+z
1/2+x,1/2+y,z
1/2-x,1/2+y,1/2-z
1/2-x,1/2-y,-z
1/2+x,1/2-y,1/2+z
loop_
_atom_site_type_symbol
_atom_site_label
_atom_site_fract_x
_atom_site_fract_y
_atom_site_fract_z
Si Si1 0.698965 0.711478 0.610478
Si Si2 0.081422 0.578461 0.853056
Si Si3 0.000000 0.189690 0.750000
Si Si4 0.484938 0.580377 0.594492
Si Si5 0.018970 0.293466 0.061854
Si Si6 0.373551 0.594634 0.392540
Si Si7 0.161643 0.661803 0.227305
Si Si8 0.450875 0.068398 0.047208
O O1 0.808460 0.646732 0.626275
O O2 0.595699 0.644264 0.606147
O O3 0.620054 0.768691 0.517814
O O4 0.736240 0.784575 0.689817
O O5 0.990116 0.638175 0.871092
O O6 0.000000 0.548089 0.750000
O O7 0.125778 0.494788 0.924691
O O8 0.048107 0.125022 0.837357
O O9 0.897001 0.258762 0.742461
O O10 0.387563 0.580910 0.488669
O O11 0.539314 0.477682 0.616629
O O12 0.082219 0.198277 0.105495
O O13 0.088520 0.342644 0.017483
O O14 0.239709 0.591071 0.306794
O O15 0.056871 0.608334 0.141660
O O16 0.500000 0.000000 0.000000
#
# Coordination Sequence:
#
# PCOD9275579 Si02
#       8
#     8   8   4   8   8   8   8   8
#     4   9  19  37  58  83 118 162 194 248 309 357
#     4  11  21  32  58  90 120 149 203 251 302 362
#     4  10  22  42  62  92 124 162 204 262 312 370
#     4   9  21  40  61  84 125 158 200 258 309 363
#     4   9  19  40  58  81 121 161 199 244 304 369
#     4  10  20  39  63  86 116 164 205 245 306 368
#     4  10  21  38  65  87 122 164 208 252 306 368
#     4   9  21  39  58  90 127 161 197 259 310 363
#
# _framework density 21.571202
#
# number of rings (size 3 to 8) (size 9 to 14) (size 15 to 20)
#    0.000    2.400    0.000    2.000    2.800    0.533 
#    6.000    4.000    2.933    0.000    0.000    0.000 
#    0.000    0.000    0.000    0.000    0.000    0.000 
#
# Total GULP energy -167404.831691 kJ/mol
# GULP energy per Si atom -5580.161056 kJ/mol
# Density = 2.152210 g / cm^3
# Si number density = 21.571202 Si / 1000 Ang^3
#
#
#
# Elastic Constant Matrix: (Units=GPa)
#
#
# Indices 1 2 3 4 5 6 
#
# 1 38.3128 15.3676 28.7338 0.0000 -20.7091 0.0000
# 2 15.3676 100.2091 29.8698 0.0000 -12.3580 0.0000
# 3 28.7338 29.8698 99.2293 0.0000 -17.1120 0.0000
# 4 0.0000 0.0000 0.0000 27.5785 0.0000 -12.3200
# 5 -20.7091 -12.3580 -17.1120 0.0000 16.6024 0.0000
# 6 0.0000 0.0000 0.0000 -12.3200 0.0000 25.2108
#
#
#
# Elastic Compliance Matrix: (Units=1/GPa)
#
#
# Indices 1 2 3 4 5 6 
#
# 1 0.084870 0.001552 -0.008012 0.000000 0.098761 0.000000
# 2 0.001552 0.011468 -0.002549 0.000000 0.007846 0.000000
# 3 -0.008012 -0.002549 0.013517 0.000000 0.002041 0.000000
# 4 0.000000 0.000000 0.000000 0.046387 0.000000 0.022668
# 5 0.098761 0.007846 0.002041 0.000000 0.191367 0.000000
# 6 0.000000 0.000000 0.000000 0.022668 0.000000 0.050743
#
#
# Mechanical properties :
#
#
# Convention : Reuss Voigt Hill
#
# Bulk Modulus (GPa) = 10.88865 42.85483 26.87174
# Shear Modulus (GPa) = 11.18617 24.79700 17.99158
#
# Velocity S-wave (km/s) = 2.27968 3.39417 2.89114
# Velocity P-wave (km/s) = 3.46237 5.93888 4.86098
#
# Compressibility (1/GPa) = 0.09183878
#
# Stress axis : x y z
#
# Youngs Moduli (GPa) = 11.78272 87.19666 73.98185
#
# Poissons Ratio (x) = -0.13535 0.59273
# Poissons Ratio (y) = -0.01829 0.18855
# Poissons Ratio (z) = 0.09440 0.22223
#
# Static dielectric constant tensor:
#      x y z
#    x 1.797850 0.000000 0.000330 
#    y 0.000000 1.791100 0.000000 
#    z 0.000330 0.000000 1.881230 
# 
# From -- ./inp_files/154281.got.cif
#   From: 2010.05.17/outbox.cif.g08.bks.cpg/sg15_78_cif.got.tgz:154281.got - 2010.06.03 18:47:42.
