data_PCOD9275659
_publ_section_title
;
Structure prediction by ZEFSAII (Michael W. Deem and Ramdas Pophale) SiO2 
 PCOD9275659
Probable space group: C 2/C
;
_chemical_formula_sum "Si O2"
_cell_formula_units_Z 48
_cell_length_a 13.876189
_cell_length_b 7.771478
_cell_length_c 17.676438
_cell_angle_alpha 90.000000
_cell_angle_beta 79.933641
_cell_angle_gamma 90.000000
_cell_volume 1876.856420
_symmetry_space_group_name_H-M "C 2/C"
_symmetry_group_IT_number 15
_symmetry_cell_setting 'monoclinic'
loop_
_space_group_symop_operation_xyz
x,y,z
-x,y,1/2-z
-x,-y,-z
x,-y,1/2+z
1/2+x,1/2+y,z
1/2-x,1/2+y,1/2-z
1/2-x,1/2-y,-z
1/2+x,1/2-y,1/2+z
loop_
_atom_site_type_symbol
_atom_site_label
_atom_site_fract_x
_atom_site_fract_y
_atom_site_fract_z
Si Si1 0.650474 0.025101 0.691122
Si Si2 0.900304 0.827806 0.254961
Si Si3 0.179338 0.412404 0.018265
Si Si4 0.198891 0.730417 0.824677
Si Si5 0.361411 0.365047 0.516266
Si Si6 0.442928 0.719393 0.576784
O O1 0.639742 0.097134 0.609116
O O2 0.641863 0.162851 0.759288
O O3 0.584487 0.857553 0.707655
O O4 0.755213 0.923361 0.686626
O O5 0.799323 0.883323 0.309008
O O6 0.894947 0.784243 0.166506
O O7 0.000000 0.935045 0.250000
O O8 0.252254 0.576808 0.005486
O O9 0.250000 0.250000 0.000000
O O10 0.098365 0.378648 0.965853
O O11 0.140540 0.742446 0.909797
O O12 0.406056 0.545493 0.540833
O O13 0.438886 0.292261 0.445006
#
# Coordination Sequence:
#
# PCOD9275659 Si02
#       6
#     8   8   8   8   8   8
#     4   9  20  36  63  87 121 169 213 263 321 393
#     4  10  22  39  59  87 132 161 205 267 332 387
#     4   9  17  35  62  90 124 168 220 267 328 389
#     4   9  18  38  61  86 123 166 208 260 323 385
#     4   9  19  37  63  94 127 162 228 270 317 403
#     4  10  20  39  63  92 128 171 214 280 327 389
#
# _framework density 25.574679
#
# number of rings (size 3 to 8) (size 9 to 14) (size 15 to 20)
#    1.000    1.667    0.000    3.000    0.000    1.333 
#    3.000   10.833    0.000    1.000    0.000    0.000 
#    0.000    0.000    0.000    0.000    0.000    0.000 
#
# Total GULP energy -133829.422950 kJ/mol
# GULP energy per Si atom -5576.225956 kJ/mol
# Density = 2.551647 g / cm^3
# Si number density = 25.574679 Si / 1000 Ang^3
#
#
#
# Elastic Constant Matrix: (Units=GPa)
#
#
# Indices 1 2 3 4 5 6 
#
# 1 83.5905 9.9052 16.8365 0.0000 -14.2662 0.0000
# 2 9.9052 79.3913 54.3954 0.0000 1.6557 0.0000
# 3 16.8365 54.3954 124.0846 0.0000 -0.9855 0.0000
# 4 0.0000 0.0000 0.0000 41.8568 0.0000 -1.2836
# 5 -14.2662 1.6557 -0.9855 0.0000 42.0509 0.0000
# 6 0.0000 0.0000 0.0000 -1.2836 0.0000 21.6229
#
#
#
# Elastic Compliance Matrix: (Units=1/GPa)
#
#
# Indices 1 2 3 4 5 6 
#
# 1 0.013095 -0.000762 -0.001407 0.000000 0.004439 0.000000
# 2 -0.000762 0.018081 -0.007832 0.000000 -0.001154 0.000000
# 3 -0.001407 -0.007832 0.011684 0.000000 0.000105 0.000000
# 4 0.000000 0.000000 0.000000 0.023935 0.000000 0.001421
# 5 0.004439 -0.001154 0.000105 0.000000 0.025335 0.000000
# 6 0.000000 0.000000 0.000000 0.001421 0.000000 0.046332
#
#
# Mechanical properties :
#
#
# Convention : Reuss Voigt Hill
#
# Bulk Modulus (GPa) = 43.75054 49.92674 46.83864
# Shear Modulus (GPa) = 30.10544 34.83472 32.47008
#
# Velocity S-wave (km/s) = 3.43470 3.69464 3.56704
# Velocity P-wave (km/s) = 5.73355 6.14531 5.94300
#
# Compressibility (1/GPa) = 0.02285686
#
# Stress axis : x y z
#
# Youngs Moduli (GPa) = 76.36775 55.30613 85.58566
#
# Poissons Ratio (x) = 0.04214 0.12046
# Poissons Ratio (y) = 0.05819 0.67031
# Poissons Ratio (z) = 0.10748 0.43316
#
# Static dielectric constant tensor:
#      x y z
#    x 1.897820 0.000000 0.066930 
#    y 0.000000 2.079680 0.000000 
#    z 0.066930 0.000000 1.937030 
# 
# From -- ./inp_files/203249.got.cif
#   From: 2010.05.17/outbox.cif.g08.bks.cpg/sg15_102_cif.got.tgz:203249.got - 2010.06.03 18:47:42.
