data_PCOD9275116
_publ_section_title
;
Structure prediction by ZEFSAII (Michael W. Deem and Ramdas Pophale) SiO2 
 PCOD9275116
Probable space group: C 2/C
;
_chemical_formula_sum "Si O2"
_cell_formula_units_Z 40
_cell_length_a 5.185870
_cell_length_b 22.864044
_cell_length_c 15.126595
_cell_angle_alpha 90.000000
_cell_angle_beta 117.832189
_cell_angle_gamma 90.000000
_cell_volume 1586.078648
_symmetry_space_group_name_H-M "C 2/C"
_symmetry_group_IT_number 15
_symmetry_cell_setting 'monoclinic'
loop_
_space_group_symop_operation_xyz
x,y,z
-x,y,1/2-z
-x,-y,-z
x,-y,1/2+z
1/2+x,1/2+y,z
1/2-x,1/2+y,1/2-z
1/2-x,1/2-y,-z
1/2+x,1/2-y,1/2+z
loop_
_atom_site_type_symbol
_atom_site_label
_atom_site_fract_x
_atom_site_fract_y
_atom_site_fract_z
Si Si1 0.648677 0.402544 0.179711
Si Si2 0.850572 0.415845 0.628144
Si Si3 0.144518 0.979241 0.870998
Si Si4 0.959548 0.694618 0.023995
Si Si5 0.149233 0.294336 0.368678
O O1 0.500000 0.390410 0.250000
O O2 0.471606 0.458070 0.115664
O O3 0.619628 0.345983 0.113405
O O4 0.000000 0.415499 0.250000
O O5 0.515138 0.431549 0.593767
O O6 0.905732 0.356292 0.584513
O O7 0.000000 0.412894 0.750000
O O8 0.021000 0.465493 0.597699
O O9 0.000000 0.975059 0.750000
O O10 0.264203 0.728268 0.094051
O O11 0.750000 0.750000 0.000000
O O12 0.974654 0.679861 0.923296
O O13 0.000000 0.291020 0.250000
#
# Coordination Sequence:
#
# PCOD9275116 Si02
#       5
#     8   8   8   8   8
#     4  10  20  38  69 100 135 176 229 280 341 415
#     4  10  22  38  67  95 135 177 223 272 343 395
#     4   9  18  37  63 100 130 172 221 276 331 407
#     4  11  27  44  67  99 140 175 238 288 335 414
#     4  10  26  45  69  98 133 183 228 282 350 409
#
# _framework density 25.219429000000002
#
# number of rings (size 3 to 8) (size 9 to 14) (size 15 to 20)
#    0.000    2.000    0.000    3.000   14.000    0.800 
#    0.000    2.000    0.000    0.000    0.000    0.000 
#    0.000    0.000    0.000    0.000    0.000    0.000 
#
# Total GULP energy -111813.257901 kJ/mol
# GULP energy per Si atom -5590.662895 kJ/mol
# Density = 2.516203 g / cm^3
# Si number density = 25.219429 Si / 1000 Ang^3
#
#
#
# Elastic Constant Matrix: (Units=GPa)
#
#
# Indices 1 2 3 4 5 6 
#
# 1 148.9888 33.2417 49.8801 0.0000 -36.5638 0.0000
# 2 33.2417 125.3272 34.8054 0.0000 -26.3388 0.0000
# 3 49.8801 34.8054 121.5647 0.0000 -26.1047 0.0000
# 4 0.0000 0.0000 0.000013505.7560 0.0000 3401.8896
# 5 -36.5638 -26.3388 -26.1047 0.0000 48.3969 0.0000
# 6 0.0000 0.0000 0.0000 3401.8896 0.0000 918.7203
#
#
#
# Elastic Compliance Matrix: (Units=1/GPa)
#
#
# Indices 1 2 3 4 5 6 
#
# 1 0.008899 -0.000629 -0.002376 0.000000 0.005099 0.000000
# 2 -0.000629 0.009386 -0.001622 0.000000 0.003758 0.000000
# 3 -0.002376 -0.001622 0.010281 0.000000 0.002867 0.000000
# 4 0.000000 0.000000 0.000000 0.001100 0.000000 -0.004073
# 5 0.005099 0.003758 0.002867 0.000000 0.028107 0.000000
# 6 0.000000 0.000000 0.000000 -0.004073 0.000000 0.016171
#
#
# Mechanical properties :
#
#
# Convention : Reuss Voigt Hill
#
# Bulk Modulus (GPa) = 51.78210 70.19278 60.98744
# Shear Modulus (GPa) = 55.77998 2913.10486 1484.44242
#
# Velocity S-wave (km/s) = 4.70807 34.02368 24.28762
# Velocity P-wave (km/s) = 7.08037 39.64057 28.47373
#
# Compressibility (1/GPa) = 0.01931169
#
# Stress axis : x y z
#
# Youngs Moduli (GPa) = 112.36861 106.53872 97.26287
#
# Poissons Ratio (x) = 0.06699 0.23114
# Poissons Ratio (y) = 0.07065 0.15780
# Poissons Ratio (z) = 0.26704 0.17285
#
# Static dielectric constant tensor:
#      x y z
#    x 2.144440 0.000000 0.165830 
#    y 0.000000 2.003020 0.000000 
#    z 0.165830 0.000000 2.066870 
# 
# From -- ./inp_files/129543.got.cif
#   From: 2010.05.17/outbox.cif.g08.bks.cpg/sg15_65_cif.got.tgz:129543.got - 2010.06.03 18:47:42.
