data_PCOD9275578
_publ_section_title
;
Structure prediction by ZEFSAII (Michael W. Deem and Ramdas Pophale) SiO2 
 PCOD9275578
Probable space group: C 2/C
;
_chemical_formula_sum "Si O2"
_cell_formula_units_Z 40
_cell_length_a 5.526123
_cell_length_b 24.336147
_cell_length_c 15.425567
_cell_angle_alpha 90.000000
_cell_angle_beta 127.185328
_cell_angle_gamma 90.000000
_cell_volume 1652.722685
_symmetry_space_group_name_H-M "C 2/C"
_symmetry_group_IT_number 15
_symmetry_cell_setting 'monoclinic'
loop_
_space_group_symop_operation_xyz
x,y,z
-x,y,1/2-z
-x,-y,-z
x,-y,1/2+z
1/2+x,1/2+y,z
1/2-x,1/2+y,1/2-z
1/2-x,1/2-y,-z
1/2+x,1/2-y,1/2+z
loop_
_atom_site_type_symbol
_atom_site_label
_atom_site_fract_x
_atom_site_fract_y
_atom_site_fract_z
Si Si1 0.159808 0.371303 0.053009
Si Si2 0.495720 0.597119 0.347225
Si Si3 0.637282 0.487289 0.435175
Si Si4 0.150004 0.809541 0.565622
Si Si5 0.971264 0.290714 0.346072
O O1 0.386737 0.422044 0.086653
O O2 0.183463 0.346152 0.153083
O O3 0.182657 0.321230 0.988462
O O4 0.825726 0.393964 0.960792
O O5 0.500000 0.617864 0.250000
O O6 0.449330 0.531567 0.337662
O O7 0.297719 0.634400 0.368245
O O8 0.500000 0.500000 0.500000
O O9 0.000000 0.500000 0.500000
O O10 0.193055 0.760100 0.642072
O O11 0.808433 0.798679 0.457938
O O12 0.000000 0.283769 0.250000
#
# Coordination Sequence:
#
# PCOD9275578 Si02
#       5
#     8   8   8   8   8
#     4  10  21  39  63  88 127 172 208 269 329 387
#     4  10  21  38  60  95 125 165 217 265 321 387
#     4  10  20  40  63  88 128 172 211 267 324 382
#     4  10  20  39  63  85 129 164 208 270 324 380
#     4  10  22  39  60  93 124 165 215 264 327 393
#
# _framework density 24.202486
#
# number of rings (size 3 to 8) (size 9 to 14) (size 15 to 20)
#    0.000    2.000    2.000    1.200    0.000    1.600 
#    3.600    2.000    0.000    0.000    0.000    0.000 
#    0.000    0.000    0.000    0.000    0.000    0.000 
#
# Total GULP energy -111571.772773 kJ/mol
# GULP energy per Si atom -5578.588639 kJ/mol
# Density = 2.414740 g / cm^3
# Si number density = 24.202486 Si / 1000 Ang^3
#
#
#
# Elastic Constant Matrix: (Units=GPa)
#
#
# Indices 1 2 3 4 5 6 
#
# 1 76.1833 26.2217 16.8342 0.0000 -20.0257 0.0000
# 2 26.2217 142.2325 44.8228 0.0000 -30.7121 0.0000
# 3 16.8342 44.8228 91.3662 0.0000 -18.3806 0.0000
# 4 0.0000 0.0000 0.0000 11.6144 0.0000 -18.0039
# 5 -20.0257 -30.7121 -18.3806 0.0000 54.8200 0.0000
# 6 0.0000 0.0000 0.0000 -18.0039 0.0000 25.0852
#
#
#
# Elastic Compliance Matrix: (Units=1/GPa)
#
#
# Indices 1 2 3 4 5 6 
#
# 1 0.015016 -0.001474 -0.001186 0.000000 0.004262 0.000000
# 2 -0.001474 0.009151 -0.003533 0.000000 0.003403 0.000000
# 3 -0.001186 -0.003533 0.013309 0.000000 0.002050 0.000000
# 4 0.000000 0.000000 0.000000 -0.765013 0.000000 -0.549057
# 5 0.004262 0.003403 0.002050 0.000000 0.022392 0.000000
# 6 0.000000 0.000000 0.000000 -0.549057 0.000000 -0.354199
#
#
# Mechanical properties :
#
#
# Convention : Reuss Voigt Hill
#
# Bulk Modulus (GPa) = 39.85762 53.94884 46.90323
# Shear Modulus (GPa) = -4.81420 33.09748 14.14164
#
# Velocity S-wave (km/s) = -1.41190 3.70202 2.41986
# Velocity P-wave (km/s) = 3.72105 6.37277 5.21816
#
# Compressibility (1/GPa) = 0.02508930
#
# Stress axis : x y z
#
# Youngs Moduli (GPa) = 66.59560 109.28001 75.13674
#
# Poissons Ratio (x) = 0.16111 0.08912
# Poissons Ratio (y) = 0.09818 0.26545
# Poissons Ratio (z) = 0.07899 0.38608
#
# Static dielectric constant tensor:
#      x y z
#    x 2.001100 0.000000 -0.039730 
#    y 0.000000 2.061480 0.000000 
#    z -0.039730 0.000000 1.891750 
# 
# From -- ./inp_files/73045.got.cif
#   From: 2010.05.17/outbox.cif.g08.bks.cpg/sg15_37_cif.got.tgz:73045.got - 2010.06.03 18:47:42.
