data_PCOD9275467
_publ_section_title
;
Structure prediction by ZEFSAII (Michael W. Deem and Ramdas Pophale) SiO2 
 PCOD9275467
Probable space group: C 2/C
;
_chemical_formula_sum "Si O2"
_cell_formula_units_Z 36
_cell_length_a 7.902633
_cell_length_b 25.494870
_cell_length_c 8.341126
_cell_angle_alpha 90.000000
_cell_angle_beta 101.946943
_cell_angle_gamma 90.000000
_cell_volume 1644.140697
_symmetry_space_group_name_H-M "C 2/C"
_symmetry_group_IT_number 15
_symmetry_cell_setting 'monoclinic'
loop_
_space_group_symop_operation_xyz
x,y,z
-x,y,1/2-z
-x,-y,-z
x,-y,1/2+z
1/2+x,1/2+y,z
1/2-x,1/2+y,1/2-z
1/2-x,1/2-y,-z
1/2+x,1/2-y,1/2+z
loop_
_atom_site_type_symbol
_atom_site_label
_atom_site_fract_x
_atom_site_fract_y
_atom_site_fract_z
Si Si1 0.060570 0.056426 0.576341
Si Si2 0.176319 0.141520 0.089458
Si Si3 0.420649 0.273399 0.454664
Si Si4 0.697392 0.137044 0.748289
Si Si5 0.500000 0.182263 0.250000
O O1 0.248196 0.084409 0.640445
O O2 0.000000 0.059113 0.750000
O O3 0.959321 0.095091 0.436650
O O4 0.000000 0.000000 0.500000
O O5 0.331720 0.147287 0.243302
O O6 0.272314 0.132648 0.936478
O O7 0.064963 0.194581 0.078479
O O8 0.250000 0.250000 0.500000
O O9 0.335729 0.317835 0.323114
O O10 0.517902 0.223893 0.396728
O O11 0.500000 0.150975 0.750000
#
# Coordination Sequence:
#
# PCOD9275467 Si02
#       5
#     8   8   8   8   4
#     4   9  20  44  65  82 118 154 195 257 310 356
#     4  10  22  41  56  87 124 157 198 249 297 356
#     4  11  22  35  59  84 123 164 196 241 294 352
#     4  10  20  39  62  86 117 159 202 238 305 363
#     4  12  22  36  58  86 126 156 204 242 284 366
#
# _framework density 21.895935999999999
#
# number of rings (size 3 to 8) (size 9 to 14) (size 15 to 20)
#    0.000    1.778    2.222    3.333    3.111    0.000 
#   14.000    2.222    0.000    0.000    0.000    0.000 
#    0.000    0.000    0.000    0.000    0.000    0.000 
#
# Total GULP energy -100278.815064 kJ/mol
# GULP energy per Si atom -5571.045281 kJ/mol
# Density = 2.184610 g / cm^3
# Si number density = 21.895936 Si / 1000 Ang^3
#
#
#
# Elastic Constant Matrix: (Units=GPa)
#
#
# Indices 1 2 3 4 5 6 
#
# 1 102.2567 9.2163 8.5400 0.0000 18.0410 0.0000
# 2 9.2163 97.0173 27.0947 0.0000 18.4054 0.0000
# 3 8.5400 27.0947 34.0215 0.0000 14.4303 0.0000
# 4 0.0000 0.0000 0.0000 26.9507 0.0000 3.6407
# 5 18.0410 18.4054 14.4303 0.0000 40.7191 0.0000
# 6 0.0000 0.0000 0.0000 3.6407 0.0000 16.1857
#
#
#
# Elastic Compliance Matrix: (Units=1/GPa)
#
#
# Indices 1 2 3 4 5 6 
#
# 1 0.010627 0.000067 -0.000837 0.000000 -0.004442 0.000000
# 2 0.000067 0.013503 -0.009615 0.000000 -0.002726 0.000000
# 3 -0.000837 -0.009615 0.041497 0.000000 -0.009989 0.000000
# 4 0.000000 0.000000 0.000000 0.038268 0.000000 -0.008608
# 5 -0.004442 -0.002726 -0.009989 0.000000 0.031299 0.000000
# 6 0.000000 0.000000 0.000000 -0.008608 0.000000 0.063719
#
#
# Mechanical properties :
#
#
# Convention : Reuss Voigt Hill
#
# Bulk Modulus (GPa) = 22.29226 35.88862 29.09044
# Shear Modulus (GPa) = 21.30975 29.33408 25.32191
#
# Velocity S-wave (km/s) = 3.12305 3.66417 3.40438
# Velocity P-wave (km/s) = 4.81743 5.85898 5.36355
#
# Compressibility (1/GPa) = 0.04485862
#
# Stress axis : x y z
#
# Youngs Moduli (GPa) = 94.10118 74.05552 24.09801
#
# Poissons Ratio (x) = -0.00495 0.02016
# Poissons Ratio (y) = -0.00629 0.23169
# Poissons Ratio (z) = 0.07873 0.71201
#
# Static dielectric constant tensor:
#      x y z
#    x 1.786460 0.000000 -0.023090 
#    y 0.000000 1.831200 0.000000 
#    z -0.023090 0.000000 1.915400 
# 
# From -- ./inp_files/23082.got.cif
#   From: 2010.05.17/outbox.cif.g08.bks.cpg/sg15_12_cif.got.tgz:23082.got - 2010.06.03 18:47:42.
