data_PCOD9275988
_publ_section_title
;
Structure prediction by ZEFSAII (Michael W. Deem and Ramdas Pophale) SiO2 
 PCOD9275988
Probable space group: C 2/C
;
_chemical_formula_sum "Si O2"
_cell_formula_units_Z 52
_cell_length_a 7.319748
_cell_length_b 20.233226
_cell_length_c 16.822207
_cell_angle_alpha 90.000000
_cell_angle_beta 62.229497
_cell_angle_gamma 90.000000
_cell_volume 2204.446880
_symmetry_space_group_name_H-M "C 2/C"
_symmetry_group_IT_number 15
_symmetry_cell_setting 'monoclinic'
loop_
_space_group_symop_operation_xyz
x,y,z
-x,y,1/2-z
-x,-y,-z
x,-y,1/2+z
1/2+x,1/2+y,z
1/2-x,1/2+y,1/2-z
1/2-x,1/2-y,-z
1/2+x,1/2-y,1/2+z
loop_
_atom_site_type_symbol
_atom_site_label
_atom_site_fract_x
_atom_site_fract_y
_atom_site_fract_z
Si Si1 0.347978 0.197892 0.897064
Si Si2 0.386041 0.338331 0.909653
Si Si3 0.500000 0.358077 0.250000
Si Si4 0.715566 0.435435 0.877999
Si Si5 0.290432 0.069354 0.815068
Si Si6 0.384366 0.117618 0.174479
Si Si7 0.926140 0.758180 0.397623
O O1 0.476385 0.266404 0.864873
O O2 0.389638 0.129084 0.845882
O O3 0.129199 0.215389 0.900972
O O4 0.308871 0.181541 0.996522
O O5 0.533193 0.384081 0.932698
O O6 0.295888 0.376920 0.853350
O O7 0.344730 0.401829 0.229120
O O8 0.380606 0.310622 0.336874
O O9 0.658064 0.512273 0.884798
O O10 0.783243 0.407268 0.776683
O O11 0.920100 0.427233 0.889501
O O12 0.500000 0.031170 0.750000
O O13 0.495374 0.189343 0.155798
O O14 0.750000 0.750000 0.500000
#
# Coordination Sequence:
#
# PCOD9275988 Si02
#       7
#     8   8   4   8   8   8   8
#     4   9  22  40  59  95 124 163 207 270 328 389
#     4  10  21  39  64  88 125 159 212 263 326 388
#     4  10  24  40  66  96 124 176 214 254 342 396
#     4  11  22  38  61  88 124 166 214 266 304 386
#     4  11  24  41  62  87 133 166 213 267 324 385
#     4  10  21  36  61  91 118 161 208 253 318 374
#     4  10  20  39  66  96 130 161 210 272 322 389
#
# _framework density 23.588685000000002
#
# number of rings (size 3 to 8) (size 9 to 14) (size 15 to 20)
#    0.000    1.846    1.538    2.308    2.154    9.231 
#    0.000    0.769    0.000    0.000    0.000    0.000 
#    0.000    0.000    0.000    0.000    0.000    0.000 
#
# Total GULP energy -145099.779864 kJ/mol
# GULP energy per Si atom -5580.760764 kJ/mol
# Density = 2.353500 g / cm^3
# Si number density = 23.588685 Si / 1000 Ang^3
#
#
#
# Elastic Constant Matrix: (Units=GPa)
#
#
# Indices 1 2 3 4 5 6 
#
# 1 65.7018 32.2071 -1.6701 0.0000 -1.5490 0.0000
# 2 32.2071 141.3785 24.3614 0.0000 0.7679 0.0000
# 3 -1.6701 24.3614 58.2059 0.0000 6.8379 0.0000
# 4 0.0000 0.0000 0.0000 28.3300 0.0000 -5.0726
# 5 -1.5490 0.7679 6.8379 0.0000 26.4889 0.0000
# 6 0.0000 0.0000 0.0000 -5.0726 0.0000 24.0095
#
#
#
# Elastic Compliance Matrix: (Units=1/GPa)
#
#
# Indices 1 2 3 4 5 6 
#
# 1 0.017430 -0.004363 0.002260 0.000000 0.000562 0.000000
# 2 -0.004363 0.008725 -0.003834 0.000000 0.000482 0.000000
# 3 0.002260 -0.003834 0.019410 0.000000 -0.004767 0.000000
# 4 0.000000 0.000000 0.000000 0.036686 0.000000 0.007751
# 5 0.000562 0.000482 -0.004767 0.000000 0.039001 0.000000
# 6 0.000000 0.000000 0.000000 0.007751 0.000000 0.043288
#
#
# Mechanical properties :
#
#
# Convention : Reuss Voigt Hill
#
# Bulk Modulus (GPa) = 29.68091 41.67590 35.67841
# Shear Modulus (GPa) = 26.64628 29.79153 28.21890
#
# Velocity S-wave (km/s) = 3.36463 3.55767 3.46249
# Velocity P-wave (km/s) = 5.26349 5.88066 5.58061
#
# Compressibility (1/GPa) = 0.03369169
#
# Stress axis : x y z
#
# Youngs Moduli (GPa) = 57.37290 114.61138 51.52042
#
# Poissons Ratio (x) = 0.50007 -0.11645
# Poissons Ratio (y) = 0.25033 0.19751
# Poissons Ratio (z) = -0.12967 0.43937
#
# Static dielectric constant tensor:
#      x y z
#    x 1.938750 0.000000 -0.029250 
#    y 0.000000 1.997140 0.000000 
#    z -0.029250 0.000000 1.984160 
# 
# From -- ./inp_files/136111.got.cif
#   From: 2010.05.17/outbox.cif.g08.bks.cpg/sg15_69_cif.got.tgz:136111.got - 2010.06.03 18:47:42.
