data_PCOD9275544
_publ_section_title
;
Structure prediction by ZEFSAII (Michael W. Deem and Ramdas Pophale) SiO2 
 PCOD9275544
Probable space group: C 2/C
;
_chemical_formula_sum "Si O2"
_cell_formula_units_Z 64
_cell_length_a 21.551869
_cell_length_b 15.227774
_cell_length_c 13.855163
_cell_angle_alpha 90.000000
_cell_angle_beta 141.466149
_cell_angle_gamma 90.000000
_cell_volume 2832.728456
_symmetry_space_group_name_H-M "C 2/C"
_symmetry_group_IT_number 15
_symmetry_cell_setting 'monoclinic'
loop_
_space_group_symop_operation_xyz
x,y,z
-x,y,1/2-z
-x,-y,-z
x,-y,1/2+z
1/2+x,1/2+y,z
1/2-x,1/2+y,1/2-z
1/2-x,1/2-y,-z
1/2+x,1/2-y,1/2+z
loop_
_atom_site_type_symbol
_atom_site_label
_atom_site_fract_x
_atom_site_fract_y
_atom_site_fract_z
Si Si1 0.157304 0.364686 0.951014
Si Si2 0.282585 0.157665 0.299390
Si Si3 0.131435 0.126587 0.278379
Si Si4 0.058490 0.910170 0.046038
Si Si5 0.196663 0.544824 0.915329
Si Si6 0.140510 0.769917 0.282901
Si Si7 0.291276 0.047936 0.795202
Si Si8 0.615923 0.778008 0.401120
O O1 0.272406 0.335475 0.078277
O O2 0.150830 0.390847 0.056745
O O3 0.143183 0.454709 0.876358
O O4 0.101999 0.286767 0.826639
O O5 0.176547 0.149487 0.227036
O O6 0.301893 0.201075 0.219072
O O7 0.344249 0.224237 0.442198
O O8 0.316062 0.055500 0.340491
O O9 0.192502 0.045550 0.400181
O O10 0.158769 0.204550 0.383566
O O11 0.012896 0.119701 0.128012
O O12 0.063622 0.831604 0.131111
O O13 0.172875 0.935347 0.165672
O O14 0.000000 0.000000 0.000000
O O15 0.192511 0.564552 0.797490
O O16 0.144206 0.624797 0.903423
O O17 0.500000 0.771204 0.250000
#
# Coordination Sequence:
#
# PCOD9275544 Si02
#       8
#     8   8   8   8   8   8   8   8
#     4  10  20  39  62  93 127 175 228 260 326 412
#     4  11  20  41  64  93 129 171 221 270 341 408
#     4  11  23  38  63  99 134 166 220 282 337 406
#     4  11  22  41  65  99 136 171 220 279 340 396
#     4  11  22  41  67  94 126 178 225 276 342 408
#     4  10  22  36  67  92 131 177 220 276 337 400
#     4  11  22  38  69  94 130 178 224 272 335 410
#     4  11  25  40  61  95 129 167 224 286 333 398
#
# _framework density 22.593057999999999
#
# number of rings (size 3 to 8) (size 9 to 14) (size 15 to 20)
#    0.000    1.250    5.000    3.000    8.750    0.000 
#    0.000    0.625    2.750    6.000    0.000    0.000 
#    0.000    0.000    0.000    0.000    0.000    0.000 
#
# Total GULP energy -178468.897971 kJ/mol
# GULP energy per Si atom -5577.153062 kJ/mol
# Density = 2.254164 g / cm^3
# Si number density = 22.593058 Si / 1000 Ang^3
#
#
#
# Elastic Constant Matrix: (Units=GPa)
#
#
# Indices 1 2 3 4 5 6 
#
# 1 63.9546 4.9692 32.0826 0.0000 -28.2287 0.0000
# 2 4.9692 98.8063 29.9534 0.0000 -9.4748 0.0000
# 3 32.0826 29.9534 76.4869 0.0000 -32.3145 0.0000
# 4 0.0000 0.0000 0.0000 41.8656 0.0000 -16.4251
# 5 -28.2287 -9.4748 -32.3145 0.0000 31.7121 0.0000
# 6 0.0000 0.0000 0.0000 -16.4251 0.0000 14.4201
#
#
#
# Elastic Compliance Matrix: (Units=1/GPa)
#
#
# Indices 1 2 3 4 5 6 
#
# 1 0.026121 0.001513 -0.002695 0.000000 0.020958 0.000000
# 2 0.001513 0.011646 -0.005542 0.000000 -0.000821 0.000000
# 3 -0.002695 -0.005542 0.025746 0.000000 0.022180 0.000000
# 4 0.000000 0.000000 0.000000 0.043184 0.000000 0.049188
# 5 0.020958 -0.000821 0.022180 0.000000 0.072545 0.000000
# 6 0.000000 0.000000 0.000000 0.049188 0.000000 0.125375
#
#
# Mechanical properties :
#
#
# Convention : Reuss Voigt Hill
#
# Bulk Modulus (GPa) = 19.97432 41.47314 30.72373
# Shear Modulus (GPa) = 14.93636 29.08241 22.00939
#
# Velocity S-wave (km/s) = 2.57398 3.59169 3.12455
# Velocity P-wave (km/s) = 4.20642 5.96630 5.16191
#
# Compressibility (1/GPa) = 0.05006427
#
# Stress axis : x y z
#
# Youngs Moduli (GPa) = 38.28384 85.86520 38.84158
#
# Poissons Ratio (x) = -0.12990 0.10466
# Poissons Ratio (y) = -0.05792 0.21528
# Poissons Ratio (z) = 0.10316 0.47590
#
# Static dielectric constant tensor:
#      x y z
#    x 1.869250 0.000000 -0.026300 
#    y 0.000000 1.866780 0.000000 
#    z -0.026300 0.000000 1.915280 
# 
# From -- ./inp_files/173687.got.cif
#   From: 2010.05.17/outbox.cif.g08.bks.cpg/sg15_87_cif.got.tgz:173687.got - 2010.06.03 18:47:42.
