data_PCOD9275124
_publ_section_title
;
Structure prediction by ZEFSAII (Michael W. Deem and Ramdas Pophale) SiO2 
 PCOD9275124
Probable space group: C 2/C
;
_chemical_formula_sum "Si O2"
_cell_formula_units_Z 64
_cell_length_a 13.594190
_cell_length_b 13.629596
_cell_length_c 29.517428
_cell_angle_alpha 90.000000
_cell_angle_beta 35.486494
_cell_angle_gamma 90.000000
_cell_volume 3174.865336
_symmetry_space_group_name_H-M "C 2/C"
_symmetry_group_IT_number 15
_symmetry_cell_setting 'monoclinic'
loop_
_space_group_symop_operation_xyz
x,y,z
-x,y,1/2-z
-x,-y,-z
x,-y,1/2+z
1/2+x,1/2+y,z
1/2-x,1/2+y,1/2-z
1/2-x,1/2-y,-z
1/2+x,1/2-y,1/2+z
loop_
_atom_site_type_symbol
_atom_site_label
_atom_site_fract_x
_atom_site_fract_y
_atom_site_fract_z
Si Si1 0.854987 0.234452 0.914475
Si Si2 0.649248 0.709802 0.080418
Si Si3 0.138411 0.424553 0.931430
Si Si4 0.570223 0.567685 0.678457
Si Si5 0.467046 0.912813 0.815076
Si Si6 0.661602 0.594797 0.277999
Si Si7 0.638383 0.871349 0.158584
Si Si8 0.335557 0.234089 0.145897
O O1 0.829678 0.139988 0.892586
O O2 0.859348 0.330740 0.881531
O O3 0.048321 0.223451 0.858787
O O4 0.750000 0.250000 0.000000
O O5 0.777779 0.640488 0.060428
O O6 0.477740 0.647012 0.137326
O O7 0.603279 0.802446 0.129131
O O8 0.750000 0.750000 0.000000
O O9 0.296203 0.487394 0.854064
O O10 0.073427 0.350906 0.917397
O O11 0.000000 0.500000 0.000000
O O12 0.500000 0.619548 0.750000
O O13 0.424997 0.505563 0.706955
O O14 0.500000 0.888359 0.750000
O O15 0.653322 0.921669 0.769170
O O16 0.366548 0.015826 0.853889
O O17 0.687343 0.672780 0.226803
O O18 0.500000 0.863884 0.250000
O O19 0.793782 0.820205 0.126412
#
# Coordination Sequence:
#
# PCOD9275124 Si02
#       8
#     8   8   8   8   8   8   8   8
#     4  11  25  43  61  90 134 171 204 259 328 385
#     4  10  22  38  61  96 128 158 209 268 319 382
#     4  10  21  39  62  93 128 160 205 262 319 374
#     4  11  22  39  67  95 124 164 216 260 311 377
#     4  10  24  42  64  93 128 166 220 265 313 379
#     4  10  21  39  65  97 125 160 215 267 310 379
#     4  10  20  38  69  88 118 164 216 261 310 374
#     4  10  20  40  66  91 121 167 216 253 311 384
#
# _framework density 20.158335999999998
#
# number of rings (size 3 to 8) (size 9 to 14) (size 15 to 20)
#    0.000    1.750    2.500    1.125    3.500    4.000 
#   11.250    0.625    0.000    0.000    0.000    0.000 
#    0.000    0.000    0.000    0.000    0.000    0.000 
#
# Total GULP energy -178370.748957 kJ/mol
# GULP energy per Si atom -5574.085905 kJ/mol
# Density = 2.011245 g / cm^3
# Si number density = 20.158336 Si / 1000 Ang^3
#
#
#
# Elastic Constant Matrix: (Units=GPa)
#
#
# Indices 1 2 3 4 5 6 
#
# 1 39.6630 38.7104 7.6919 0.0000 6.5551 0.0000
# 2 38.7104 125.1170 51.0495 0.0000 14.4274 0.0000
# 3 7.6919 51.0495 98.9448 0.0000 21.7935 -0.0001
# 4 0.0000 0.0000 0.0000 39.7211 0.0000 1.3008
# 5 6.5551 14.4274 21.7935 0.0000 24.0076 0.0000
# 6 0.0000 0.0000 -0.0001 1.3008 0.0000 22.2434
#
#
#
# Elastic Compliance Matrix: (Units=1/GPa)
#
#
# Indices 1 2 3 4 5 6 
#
# 1 0.038295 -0.013227 0.005499 0.000000 -0.007499 0.000000
# 2 -0.013227 0.014747 -0.006779 0.000000 0.000903 0.000000
# 3 0.005499 -0.006779 0.015762 0.000000 -0.011736 0.000000
# 4 0.000000 0.000000 0.000000 0.025224 0.000000 -0.001475
# 5 -0.007499 0.000903 -0.011736 0.000000 0.053811 0.000000
# 6 0.000000 0.000000 0.000000 -0.001475 0.000000 0.045043
#
#
# Mechanical properties :
#
#
# Convention : Reuss Voigt Hill
#
# Bulk Modulus (GPa) = 25.13262 50.95872 38.04567
# Shear Modulus (GPa) = 21.26222 28.27930 24.77076
#
# Velocity S-wave (km/s) = 3.25123 3.74954 3.50924
# Velocity P-wave (km/s) = 5.15642 6.63924 5.94425
#
# Compressibility (1/GPa) = 0.03978892
#
# Stress axis : x y z
#
# Youngs Moduli (GPa) = 26.11323 67.81167 63.44514
#
# Poissons Ratio (x) = 0.89695 -0.34890
# Poissons Ratio (y) = 0.34540 0.43010
# Poissons Ratio (z) = -0.14360 0.45971
#
# Static dielectric constant tensor:
#      x y z
#    x 1.785860 0.000000 -0.013250 
#    y 0.000000 1.716530 0.000000 
#    z -0.013250 0.000000 1.758510 
# 
# From -- ./inp_files/313577.got.cif
#   From: 2010.05.17/outbox.cif.g08.bks.cpg/sg15_157_cif.got.tgz:313577.got - 2010.06.03 18:47:42.
