data_PCOD9275105
_publ_section_title
;
Structure prediction by ZEFSAII (Michael W. Deem and Ramdas Pophale) SiO2 
 PCOD9275105
Probable space group: C 2/C
;
_chemical_formula_sum "Si O2"
_cell_formula_units_Z 36
_cell_length_a 8.470678
_cell_length_b 13.757778
_cell_length_c 23.068050
_cell_angle_alpha 90.000000
_cell_angle_beta 144.828054
_cell_angle_gamma 90.000000
_cell_volume 1548.545868
_symmetry_space_group_name_H-M "C 2/C"
_symmetry_group_IT_number 15
_symmetry_cell_setting 'monoclinic'
loop_
_space_group_symop_operation_xyz
x,y,z
-x,y,1/2-z
-x,-y,-z
x,-y,1/2+z
1/2+x,1/2+y,z
1/2-x,1/2+y,1/2-z
1/2-x,1/2-y,-z
1/2+x,1/2-y,1/2+z
loop_
_atom_site_type_symbol
_atom_site_label
_atom_site_fract_x
_atom_site_fract_y
_atom_site_fract_z
Si Si1 0.064588 0.223240 0.099094
Si Si2 0.818048 0.912486 0.969607
Si Si3 0.274572 0.647195 0.230253
Si Si4 0.000000 0.889984 0.250000
Si Si5 0.297234 0.619582 0.810180
O O1 0.126690 0.175099 0.057048
O O2 0.137212 0.151126 0.175061
O O3 0.246984 0.319123 0.158415
O O4 0.750000 0.250000 0.000000
O O5 0.491794 0.915531 0.866730
O O6 0.949193 0.894605 0.070893
O O7 0.000000 0.000000 0.000000
O O8 0.500000 0.622012 0.250000
O O9 0.223886 0.764007 0.206050
O O10 0.111435 0.932298 0.222408
O O11 0.000000 0.590340 0.750000
#
# Coordination Sequence:
#
# PCOD9275105 Si02
#       5
#     8   8   8   4   8
#     4  11  21  39  67  96 129 171 229 277 334 395
#     4  12  24  40  66  97 138 179 212 277 358 409
#     4  10  21  40  67  98 127 173 231 285 330 401
#     4  10  20  38  68  98 126 168 232 288 312 388
#     4  10  21  39  66 101 126 173 233 279 330 396
#
# _framework density 23.247616000000001
#
# number of rings (size 3 to 8) (size 9 to 14) (size 15 to 20)
#    0.000    1.333    4.444    4.667    3.111    1.778 
#    0.000    1.111   12.222    0.000    0.000    0.000 
#    0.000    0.000    0.000    0.000    0.000    0.000 
#
# Total GULP energy -100523.127196 kJ/mol
# GULP energy per Si atom -5584.618178 kJ/mol
# Density = 2.319470 g / cm^3
# Si number density = 23.247616 Si / 1000 Ang^3
#
#
#
# Elastic Constant Matrix: (Units=GPa)
#
#
# Indices 1 2 3 4 5 6 
#
# 1 194.7643 17.7369 97.3229 0.0001 5.2519 0.0001
# 2 17.7369 15.0804 30.0063 0.0000 -3.1019 0.0000
# 3 97.3229 30.0063 188.4574 0.0001 12.4310 0.0000
# 4 0.0001 0.0000 0.0001 30.6601 0.0001 9.4910
# 5 5.2519 -3.1019 12.4310 0.0001 64.8325 0.0001
# 6 0.0001 0.0000 0.0000 9.4910 0.0001 28.3862
#
#
#
# Elastic Compliance Matrix: (Units=1/GPa)
#
#
# Indices 1 2 3 4 5 6 
#
# 1 0.006944 -0.001507 -0.003346 0.000000 0.000007 0.000000
# 2 -0.001507 0.101342 -0.015886 0.000000 0.008017 0.000000
# 3 -0.003346 -0.015886 0.009719 0.000000 -0.002353 0.000000
# 4 0.000000 0.000000 0.000000 0.036381 0.000000 -0.012164
# 5 0.000007 0.008017 -0.002353 0.000000 0.016258 0.000000
# 6 0.000000 0.000000 0.000000 -0.012164 0.000000 0.039296
#
#
# Mechanical properties :
#
#
# Convention : Reuss Voigt Hill
#
# Bulk Modulus (GPa) = 13.06752 76.49270 44.78011
# Shear Modulus (GPa) = 18.05524 41.65817 29.85671
#
# Velocity S-wave (km/s) = 2.78987 4.23772 3.58759
# Velocity P-wave (km/s) = 4.00138 7.54448 6.03863
#
# Compressibility (1/GPa) = 0.07652563
#
# Stress axis : x y z
#
# Youngs Moduli (GPa) = 144.01738 9.86754 102.89165
#
# Poissons Ratio (x) = 0.01487 0.34431
# Poissons Ratio (y) = 0.21702 1.63458
# Poissons Ratio (z) = 0.48193 0.15676
#
# Static dielectric constant tensor:
#      x y z
#    x 1.834600 0.000000 -0.047520 
#    y 0.000000 1.869940 0.000000 
#    z -0.047520 0.000000 1.866560 
# 
# From -- ./inp_files/76366.got.cif
#   From: 2010.05.17/outbox.cif.g08.bks.cpg/sg15_39_cif.got.tgz:76366.got - 2010.06.03 18:47:42.
