data_PCOD9275733
_publ_section_title
;
Structure prediction by ZEFSAII (Michael W. Deem and Ramdas Pophale) SiO2 
 PCOD9275733
Probable space group: C 2/C
;
_chemical_formula_sum "Si O2"
_cell_formula_units_Z 64
_cell_length_a 18.285414
_cell_length_b 31.443580
_cell_length_c 11.409864
_cell_angle_alpha 90.000000
_cell_angle_beta 152.809808
_cell_angle_gamma 90.000000
_cell_volume 2997.656163
_symmetry_space_group_name_H-M "C 2/C"
_symmetry_group_IT_number 15
_symmetry_cell_setting 'monoclinic'
loop_
_space_group_symop_operation_xyz
x,y,z
-x,y,1/2-z
-x,-y,-z
x,-y,1/2+z
1/2+x,1/2+y,z
1/2-x,1/2+y,1/2-z
1/2-x,1/2-y,-z
1/2+x,1/2-y,1/2+z
loop_
_atom_site_type_symbol
_atom_site_label
_atom_site_fract_x
_atom_site_fract_y
_atom_site_fract_z
Si Si1 0.286305 0.722885 0.663410
Si Si2 0.419275 0.021486 0.766084
Si Si3 0.672981 0.063184 0.431707
Si Si4 0.351489 0.254427 0.807358
Si Si5 0.247689 0.335271 0.379459
Si Si6 0.233918 0.850179 0.828092
Si Si7 0.120270 0.133143 0.666488
Si Si8 0.474372 0.891841 0.994950
O O1 0.250000 0.750000 0.500000
O O2 0.155733 0.734874 0.573066
O O3 0.290652 0.672735 0.644674
O O4 0.465346 0.735400 0.965740
O O5 0.500000 0.026297 0.750000
O O6 0.286791 0.985621 0.545300
O O7 0.409550 0.069599 0.798419
O O8 0.500000 0.000000 0.000000
O O9 0.500000 0.062002 0.250000
O O10 0.793583 0.088901 0.685565
O O11 0.643538 0.089309 0.270894
O O12 0.262706 0.215524 0.615613
O O13 0.261743 0.299414 0.686036
O O14 0.261115 0.355347 0.525740
O O15 0.371301 0.351167 0.457552
O O16 0.078596 0.353408 0.092062
O O17 0.371937 0.873882 0.956102
O O18 0.059703 0.866958 0.543454
#
# Coordination Sequence:
#
# PCOD9275733 Si02
#       8
#     8   8   8   8   8   8   8   8
#     4  10  21  34  52  78 118 155 205 256 302 358
#     4   9  19  36  61  95 119 149 196 260 313 365
#     4  10  20  39  64  89 121 153 204 249 307 388
#     4  10  22  36  52  82 115 166 208 249 302 351
#     4  11  21  38  61  83 120 167 219 246 293 368
#     4  11  23  38  56  89 129 158 204 258 314 356
#     4  10  23  37  58  87 119 168 198 246 316 376
#     4  11  22  37  65  94 116 156 204 263 304 355
#
# _framework density 21.350013000000001
#
# number of rings (size 3 to 8) (size 9 to 14) (size 15 to 20)
#    0.000    1.750    1.250    3.000    3.500    0.500 
#    0.000    3.750    0.000    6.750    9.750    0.000 
#    0.000    0.000    0.000    0.000    0.000    0.000 
#
# Total GULP energy -178291.750115 kJ/mol
# GULP energy per Si atom -5571.617191 kJ/mol
# Density = 2.130142 g / cm^3
# Si number density = 21.350013 Si / 1000 Ang^3
#
#
#
# Elastic Constant Matrix: (Units=GPa)
#
#
# Indices 1 2 3 4 5 6 
#
# 1 74.9709 19.8364 7.8882 0.0000 2.1961 0.0000
# 2 19.8364 139.8122 33.8262 0.0000 6.5614 0.0000
# 3 7.8882 33.8262 23.4954 0.0000 3.9062 0.0000
# 4 0.0000 0.0000 0.0000 18.6021 0.0000 -2.3695
# 5 2.1961 6.5614 3.9062 0.0000 33.4499 0.0000
# 6 0.0000 0.0000 0.0000 -2.3695 0.0000 26.8945
#
#
#
# Elastic Compliance Matrix: (Units=1/GPa)
#
#
# Indices 1 2 3 4 5 6 
#
# 1 0.013983 -0.001298 -0.002769 0.000000 -0.000340 0.000000
# 2 -0.001298 0.011099 -0.015497 0.000000 -0.000282 0.000000
# 3 -0.002769 -0.015497 0.066558 0.000000 -0.004551 0.000000
# 4 0.000000 0.000000 0.000000 0.054368 0.000000 0.004790
# 5 -0.000340 -0.000282 -0.004551 0.000000 0.030505 0.000000
# 6 0.000000 0.000000 0.000000 0.004790 0.000000 0.037604
#
#
# Mechanical properties :
#
#
# Convention : Reuss Voigt Hill
#
# Bulk Modulus (GPa) = 19.04304 40.15332 29.59818
# Shear Modulus (GPa) = 18.46727 27.57115 23.01921
#
# Velocity S-wave (km/s) = 2.94424 3.59749 3.28713
# Velocity P-wave (km/s) = 4.52735 6.00865 5.31981
#
# Compressibility (1/GPa) = 0.05251263
#
# Stress axis : x y z
#
# Youngs Moduli (GPa) = 71.51397 90.09745 15.02443
#
# Poissons Ratio (x) = 0.11694 0.04161
# Poissons Ratio (y) = 0.09282 0.23283
# Poissons Ratio (z) = 0.19806 1.39620
#
# Static dielectric constant tensor:
#      x y z
#    x 1.800290 0.000000 -0.036970 
#    y 0.000000 1.799440 0.000000 
#    z -0.036970 0.000000 1.824620 
# 
# From -- ./inp_files/108650.got.cif
#   From: 2010.05.17/outbox.cif.g08.bks.cpg/sg15_55_cif.got.tgz:108650.got - 2010.06.03 18:47:42.
