data_PCOD9275428
_publ_section_title
;
Structure prediction by ZEFSAII (Michael W. Deem and Ramdas Pophale) SiO2 
 PCOD9275428
Probable space group: C 2/C
;
_chemical_formula_sum "Si O2"
_cell_formula_units_Z 36
_cell_length_a 18.843209
_cell_length_b 8.881964
_cell_length_c 22.941628
_cell_angle_alpha 90.000000
_cell_angle_beta 158.473565
_cell_angle_gamma 90.000000
_cell_volume 1408.873091
_symmetry_space_group_name_H-M "C 2/C"
_symmetry_group_IT_number 15
_symmetry_cell_setting 'monoclinic'
loop_
_space_group_symop_operation_xyz
x,y,z
-x,y,1/2-z
-x,-y,-z
x,-y,1/2+z
1/2+x,1/2+y,z
1/2-x,1/2+y,1/2-z
1/2-x,1/2-y,-z
1/2+x,1/2-y,1/2+z
loop_
_atom_site_type_symbol
_atom_site_label
_atom_site_fract_x
_atom_site_fract_y
_atom_site_fract_z
Si Si1 0.414125 0.836208 0.069324
Si Si2 0.153393 0.432710 0.691898
Si Si3 0.500000 0.972774 0.750000
Si Si4 0.113124 0.948499 0.749059
Si Si5 0.739698 0.256761 0.618518
O O1 0.437727 0.660337 0.099261
O O2 0.587755 0.900381 0.161129
O O3 0.446452 0.929460 0.152826
O O4 0.220758 0.875921 0.886917
O O5 0.247856 0.437957 0.701230
O O6 0.283319 0.357378 0.841060
O O7 0.957309 0.333430 0.542794
O O8 0.321277 0.866463 0.631834
O O9 0.099396 0.125142 0.750492
#
# Coordination Sequence:
#
# PCOD9275428 Si02
#       5
#     8   8   4   8   8
#     4  10  23  38  60  85 123 151 189 245 283 347
#     4  10  20  39  61  91 119 148 190 242 293 342
#     4  10  24  44  56  84 116 158 202 234 288 338
#     4  11  21  38  62  92 115 151 192 240 297 339
#     4  10  22  38  64  84 118 157 192 238 283 351
#
# _framework density 25.552339
#
# number of rings (size 3 to 8) (size 9 to 14) (size 15 to 20)
#    0.000    1.778    0.000    5.333    0.000   13.333 
#    0.000    7.778    0.000    0.000    0.000    0.000 
#    0.000    0.000    0.000    0.000    0.000    0.000 
#
# Total GULP energy -100934.617513 kJ/mol
# GULP energy per Si atom -5607.478751 kJ/mol
# Density = 2.549418 g / cm^3
# Si number density = 25.552339 Si / 1000 Ang^3
#
#
#
# Elastic Constant Matrix: (Units=GPa)
#
#
# Indices 1 2 3 4 5 6 
#
# 1 132.2429 23.3677 23.2678 0.0023 -11.0674 0.0001
# 2 23.3677 115.9076 10.3394 0.0075 2.3713 0.0022
# 3 23.2678 10.3394 36.7076 0.0110 -8.9251 0.0037
# 4 0.0023 0.0075 0.0110 39.8635 0.0030 -4.7365
# 5 -11.0674 2.3713 -8.9251 0.0030 31.1272 0.0003
# 6 0.0001 0.0022 0.0037 -4.7365 0.0003 46.4614
#
#
#
# Elastic Compliance Matrix: (Units=1/GPa)
#
#
# Indices 1 2 3 4 5 6 
#
# 1 0.008796 -0.001390 -0.004728 0.000001 0.001878 0.000001
# 2 -0.001390 0.009135 -0.002130 -0.000001 -0.001801 0.000000
# 3 -0.004728 -0.002130 0.032753 -0.000009 0.007873 -0.000003
# 4 0.000001 -0.000001 -0.000009 0.025393 -0.000005 0.002589
# 5 0.001878 -0.001801 0.007873 -0.000005 0.035188 -0.000001
# 6 0.000001 0.000000 -0.000003 0.002589 -0.000001 0.021787
#
#
# Mechanical properties :
#
#
# Convention : Reuss Voigt Hill
#
# Bulk Modulus (GPa) = 29.24891 44.31198 36.78045
# Shear Modulus (GPa) = 31.06670 38.68263 34.87467
#
# Velocity S-wave (km/s) = 3.49062 3.89505 3.69837
# Velocity P-wave (km/s) = 5.26474 6.13253 5.71513
#
# Compressibility (1/GPa) = 0.03418931
#
# Stress axis : x y z
#
# Youngs Moduli (GPa) = 113.68202 109.47355 30.53157
#
# Poissons Ratio (x) = 0.15218 0.14434
# Poissons Ratio (y) = 0.15803 0.06502
# Poissons Ratio (z) = 0.53745 0.23314
#
# Static dielectric constant tensor:
#      x y z
#    x 1.968130 0.000000 0.035540 
#    y 0.000000 1.971910 0.000000 
#    z 0.035540 0.000000 2.043720 
# 
# From -- ./inp_files/53613.got.cif
#   From: 2010.05.17/outbox.cif.g08.bks.cpg/sg15_27_cif.got.tgz:53613.got - 2010.06.03 18:47:42.
