data_PCOD9275997
_publ_section_title
;
Structure prediction by ZEFSAII (Michael W. Deem and Ramdas Pophale) SiO2 
 PCOD9275997
Probable space group: C 2/C
;
_chemical_formula_sum "Si O2"
_cell_formula_units_Z 44
_cell_length_a 8.601253
_cell_length_b 14.236760
_cell_length_c 21.665734
_cell_angle_alpha 90.000000
_cell_angle_beta 127.427152
_cell_angle_gamma 90.000000
_cell_volume 2106.862007
_symmetry_space_group_name_H-M "C 2/C"
_symmetry_group_IT_number 15
_symmetry_cell_setting 'monoclinic'
loop_
_space_group_symop_operation_xyz
x,y,z
-x,y,1/2-z
-x,-y,-z
x,-y,1/2+z
1/2+x,1/2+y,z
1/2-x,1/2+y,1/2-z
1/2-x,1/2-y,-z
1/2+x,1/2-y,1/2+z
loop_
_atom_site_type_symbol
_atom_site_label
_atom_site_fract_x
_atom_site_fract_y
_atom_site_fract_z
Si Si1 0.460651 0.960681 0.844129
Si Si2 0.719382 0.299740 0.808815
Si Si3 0.500000 0.885567 0.250000
Si Si4 0.378547 0.579479 0.504614
Si Si5 0.589785 0.231542 0.014267
Si Si6 0.671695 0.940050 0.074023
O O1 0.355277 0.864114 0.798378
O O2 0.658979 0.926733 0.925096
O O3 0.517133 0.042903 0.810740
O O4 0.312665 0.011865 0.856196
O O5 0.500000 0.338222 0.750000
O O6 0.681446 0.188277 0.787340
O O7 0.802693 0.308308 0.898582
O O8 0.500000 0.500000 0.500000
O O9 0.480052 0.676406 0.511850
O O10 0.354579 0.562579 0.572069
O O11 0.750000 0.250000 0.000000
O O12 0.425797 0.162491 0.947293
O O13 0.500000 0.000000 0.000000
#
# Coordination Sequence:
#
# PCOD9275997 Si02
#       6
#     8   8   4   8   8   8
#     4  11  23  48  66 100 139 179 237 286 346 424
#     4  10  24  44  66  94 140 184 226 278 347 420
#     4  10  24  46  66  94 142 190 226 282 348 414
#     4  11  23  38  68 103 130 172 223 295 345 401
#     4  12  22  40  69 100 134 175 226 290 350 408
#     4  10  20  39  66  97 131 160 222 291 340 400
#
# _framework density 20.884141
#
# number of rings (size 3 to 8) (size 9 to 14) (size 15 to 20)
#    0.545    0.727    3.636    4.909    0.000    1.455 
#    3.273    0.000    0.000    0.000    0.000    0.000 
#    0.000    0.000    0.000    0.000    0.000    0.000 
#
# Total GULP energy -122653.548731 kJ/mol
# GULP energy per Si atom -5575.161306 kJ/mol
# Density = 2.083661 g / cm^3
# Si number density = 20.884141 Si / 1000 Ang^3
#
#
#
# Elastic Constant Matrix: (Units=GPa)
#
#
# Indices 1 2 3 4 5 6 
#
# 1 116.9569 47.2982 4.7876 0.0000 -3.7268 0.0000
# 2 47.2982 123.4893 18.4984 0.0000 -0.1515 0.0000
# 3 4.7876 18.4984 37.8288 0.0000 10.3553 0.0000
# 4 0.0000 0.0000 0.0000 20.8652 0.0000 10.8730
# 5 -3.7268 -0.1515 10.3553 0.0000 26.5163 0.0000
# 6 0.0000 0.0000 0.0000 10.8730 0.0000 41.0185
#
#
#
# Elastic Compliance Matrix: (Units=1/GPa)
#
#
# Indices 1 2 3 4 5 6 
#
# 1 0.010172 -0.003937 0.000283 0.000000 0.001297 0.000000
# 2 -0.003937 0.010350 -0.004958 0.000000 0.001442 0.000000
# 3 0.000283 -0.004958 0.032270 0.000000 -0.012591 0.000000
# 4 0.000000 0.000000 0.000000 0.055608 0.000000 -0.014740
# 5 0.001297 0.001442 -0.012591 0.000000 0.042820 0.000000
# 6 0.000000 0.000000 0.000000 -0.014740 0.000000 0.028287
#
#
# Mechanical properties :
#
#
# Convention : Reuss Voigt Hill
#
# Bulk Modulus (GPa) = 28.11460 46.60482 37.35971
# Shear Modulus (GPa) = 23.97089 31.52607 27.74848
#
# Velocity S-wave (km/s) = 3.39160 3.88953 3.64907
# Velocity P-wave (km/s) = 5.36923 6.52193 5.97345
#
# Compressibility (1/GPa) = 0.03556871
#
# Stress axis : x y z
#
# Youngs Moduli (GPa) = 98.30938 96.61709 30.98846
#
# Poissons Ratio (x) = 0.38036 -0.00876
# Poissons Ratio (y) = 0.38702 0.15363
# Poissons Ratio (z) = -0.02780 0.47900
#
# Static dielectric constant tensor:
#      x y z
#    x 1.761120 0.000000 -0.021870 
#    y 0.000000 1.736850 0.000000 
#    z -0.021870 0.000000 1.795450 
# 
# From -- ./inp_files/231432.got.cif
#   From: 2010.05.17/outbox.cif.g08.bks.cpg/sg15_116_cif.got.tgz:231432.got - 2010.06.03 18:47:42.
