data_PCOD9275559
_publ_section_title
;
Structure prediction by ZEFSAII (Michael W. Deem and Ramdas Pophale) SiO2 
 PCOD9275559
Probable space group: C 2/C
;
_chemical_formula_sum "Si O2"
_cell_formula_units_Z 40
_cell_length_a 13.394456
_cell_length_b 13.224627
_cell_length_c 9.768009
_cell_angle_alpha 90.000000
_cell_angle_beta 72.273210
_cell_angle_gamma 90.000000
_cell_volume 1648.118028
_symmetry_space_group_name_H-M "C 2/C"
_symmetry_group_IT_number 15
_symmetry_cell_setting 'monoclinic'
loop_
_space_group_symop_operation_xyz
x,y,z
-x,y,1/2-z
-x,-y,-z
x,-y,1/2+z
1/2+x,1/2+y,z
1/2-x,1/2+y,1/2-z
1/2-x,1/2-y,-z
1/2+x,1/2-y,1/2+z
loop_
_atom_site_type_symbol
_atom_site_label
_atom_site_fract_x
_atom_site_fract_y
_atom_site_fract_z
Si Si1 0.425622 0.912470 0.159343
Si Si2 0.586657 0.581222 0.510593
Si Si3 0.707099 0.493510 0.236910
Si Si4 0.033093 0.293773 0.881015
Si Si5 0.246255 0.792012 0.350171
O O1 0.500000 0.947013 0.250000
O O2 0.331439 0.987721 0.154955
O O3 0.360094 0.813545 0.240838
O O4 0.497316 0.872492 0.009062
O O5 0.500000 0.500000 0.500000
O O6 0.661882 0.586191 0.343936
O O7 0.644499 0.541669 0.626571
O O8 0.530032 0.687946 0.565714
O O9 0.699605 0.404944 0.355097
O O10 0.156388 0.273151 0.818616
O O11 0.000000 0.333105 0.750000
O O12 0.250000 0.750000 0.500000
#
# Coordination Sequence:
#
# PCOD9275559 Si02
#       5
#     8   8   8   8   8
#     4  10  22  41  64  91 131 170 221 270 328 399
#     4  12  21  40  62  95 135 169 211 276 338 391
#     4  10  24  39  61  94 133 165 221 267 329 398
#     4  12  21  38  67  97 130 167 215 277 339 385
#     4  10  20  39  62  97 127 167 219 265 325 395
#
# _framework density 24.270105999999998
#
# number of rings (size 3 to 8) (size 9 to 14) (size 15 to 20)
#    1.200    0.000    6.000    0.600    0.000    6.400 
#    0.000    3.000    0.000    0.000    0.000    0.000 
#    0.000    0.000    0.000    0.000    0.000    0.000 
#
# Total GULP energy -111658.687646 kJ/mol
# GULP energy per Si atom -5582.934382 kJ/mol
# Density = 2.421487 g / cm^3
# Si number density = 24.270106 Si / 1000 Ang^3
#
#
#
# Elastic Constant Matrix: (Units=GPa)
#
#
# Indices 1 2 3 4 5 6 
#
# 1 167.2315 46.8489 51.1668 0.0000 7.8876 0.0000
# 2 46.8489 117.3470 51.2470 0.0000 -3.6729 0.0000
# 3 51.1668 51.2470 105.6850 0.0000 13.3474 0.0000
# 4 0.0000 0.0000 0.0000 -10.7802 0.0000 7.3702
# 5 7.8876 -3.6729 13.3474 0.0000 59.3378 0.0000
# 6 0.0000 0.0000 0.0000 7.3702 0.0000 25.7152
#
#
#
# Elastic Compliance Matrix: (Units=1/GPa)
#
#
# Indices 1 2 3 4 5 6 
#
# 1 0.007302 -0.001794 -0.002603 0.000000 -0.000496 0.000000
# 2 -0.001794 0.011465 -0.004951 0.000000 0.002062 0.000000
# 3 -0.002603 -0.004951 0.013501 0.000000 -0.002998 0.000000
# 4 0.000000 0.000000 0.000000 -0.077564 0.000000 0.022230
# 5 -0.000496 0.002062 -0.002998 0.000000 0.017721 0.000000
# 6 0.000000 0.000000 0.000000 0.022230 0.000000 0.032516
#
#
# Mechanical properties :
#
#
# Convention : Reuss Voigt Hill
#
# Bulk Modulus (GPa) = 73.67753 76.53210 75.10482
# Shear Modulus (GPa) = 177.55250 30.92126 104.23688
#
# Velocity S-wave (km/s) = 8.56246 3.57325 6.56063
# Velocity P-wave (km/s) = 11.32155 6.97324 9.40222
#
# Compressibility (1/GPa) = 0.01357266
#
# Stress axis : x y z
#
# Youngs Moduli (GPa) = 136.94751 87.22380 74.06609
#
# Poissons Ratio (x) = 0.15650 0.19276
# Poissons Ratio (y) = 0.24571 0.36671
# Poissons Ratio (z) = 0.35642 0.43185
#
# Static dielectric constant tensor:
#      x y z
#    x 2.092510 0.000000 -0.151180 
#    y 0.000000 2.026720 0.000000 
#    z -0.151180 0.000000 1.932860 
# 
# From -- ./inp_files/38670.got.cif
#   From: 2010.05.17/outbox.cif.g08.bks.cpg/sg15_20_cif.got.tgz:38670.got - 2010.06.03 18:47:42.
