data_PCOD9275406
_publ_section_title
;
Structure prediction by ZEFSAII (Michael W. Deem and Ramdas Pophale) SiO2 
 PCOD9275406
Probable space group: C 2/C
;
_chemical_formula_sum "Si O2"
_cell_formula_units_Z 52
_cell_length_a 8.744305
_cell_length_b 11.310773
_cell_length_c 26.588058
_cell_angle_alpha 90.000000
_cell_angle_beta 59.451596
_cell_angle_gamma 90.000000
_cell_volume 2264.687394
_symmetry_space_group_name_H-M "C 2/C"
_symmetry_group_IT_number 15
_symmetry_cell_setting 'monoclinic'
loop_
_space_group_symop_operation_xyz
x,y,z
-x,y,1/2-z
-x,-y,-z
x,-y,1/2+z
1/2+x,1/2+y,z
1/2-x,1/2+y,1/2-z
1/2-x,1/2-y,-z
1/2+x,1/2-y,1/2+z
loop_
_atom_site_type_symbol
_atom_site_label
_atom_site_fract_x
_atom_site_fract_y
_atom_site_fract_z
Si Si1 0.500000 0.602733 0.750000
Si Si2 0.853259 0.622628 0.081557
Si Si3 0.849564 0.718394 0.534508
Si Si4 0.955267 0.145855 0.108999
Si Si5 0.117303 0.532209 0.181021
Si Si6 0.122213 0.588317 0.848535
Si Si7 0.496096 0.730918 0.855220
O O1 0.312434 0.543689 0.795249
O O2 0.552230 0.671217 0.793253
O O3 0.653585 0.625669 0.094289
O O4 0.909056 0.500780 0.099975
O O5 0.879943 0.728563 0.118960
O O6 0.984627 0.644140 0.012817
O O7 0.750000 0.750000 0.500000
O O8 0.930728 0.827881 0.553382
O O9 0.680121 0.666921 0.593668
O O10 0.828398 0.041246 0.150588
O O11 0.879201 0.271269 0.142387
O O12 0.000000 0.545586 0.250000
O O13 0.036872 0.424500 0.164408
O O14 0.072795 0.642768 0.153062
#
# Coordination Sequence:
#
# PCOD9275406 Si02
#       7
#     4   8   8   8   8   8   8
#     4  12  20  42  64  94 130 174 216 264 326 382
#     4  10  23  40  65 101 124 166 225 256 317 390
#     4   9  18  39  70  91 125 172 207 264 324 375
#     4  11  22  43  63  92 132 164 206 274 320 368
#     4  10  20  39  61  87 128 170 210 263 314 377
#     4  11  25  39  64  95 124 171 217 251 325 385
#     4   9  18  39  68  90 129 174 206 264 330 365
#
# _framework density 22.961227000000001
#
# number of rings (size 3 to 8) (size 9 to 14) (size 15 to 20)
#    0.000    1.846    3.846    1.385    2.154    1.846 
#    0.000    0.000    0.000   15.692    0.000    0.000 
#    0.000    0.000    0.000    0.000    0.000    0.000 
#
# Total GULP energy -144827.938352 kJ/mol
# GULP energy per Si atom -5570.305321 kJ/mol
# Density = 2.290897 g / cm^3
# Si number density = 22.961227 Si / 1000 Ang^3
#
#
#
# Elastic Constant Matrix: (Units=GPa)
#
#
# Indices 1 2 3 4 5 6 
#
# 1 175.5885 26.2636 52.1539 0.0000 -4.2771 0.0000
# 2 26.2636 39.7581 16.8363 0.0000 6.8238 0.0000
# 3 52.1539 16.8363 128.7986 0.0000 10.8362 0.0000
# 4 0.0000 0.0000 0.0000 16.9128 0.0000 8.9676
# 5 -4.2771 6.8238 10.8362 0.0000 26.6558 0.0000
# 6 0.0000 0.0000 0.0000 8.9676 0.0000 37.0248
#
#
#
# Elastic Compliance Matrix: (Units=1/GPa)
#
#
# Indices 1 2 3 4 5 6 
#
# 1 0.007187 -0.004197 -0.002639 0.000000 0.003301 0.000000
# 2 -0.004197 0.029907 -0.001563 0.000000 -0.007694 0.000000
# 3 -0.002639 -0.001563 0.009359 0.000000 -0.003828 0.000000
# 4 0.000000 0.000000 0.000000 0.067839 0.000000 -0.016431
# 5 0.003301 -0.007694 -0.003828 0.000000 0.041571 0.000000
# 6 0.000000 0.000000 0.000000 -0.016431 0.000000 0.030989
#
#
# Mechanical properties :
#
#
# Convention : Reuss Voigt Hill
#
# Bulk Modulus (GPa) = 33.72037 59.40585 46.56311
# Shear Modulus (GPa) = 23.41555 32.71145 28.06350
#
# Velocity S-wave (km/s) = 3.19687 3.77853 3.49981
# Velocity P-wave (km/s) = 5.32394 6.70558 6.05430
#
# Compressibility (1/GPa) = 0.02965566
#
# Stress axis : x y z
#
# Youngs Moduli (GPa) = 139.13650 33.43743 106.84698
#
# Poissons Ratio (x) = 0.14032 0.28201
# Poissons Ratio (y) = 0.58389 0.16697
# Poissons Ratio (z) = 0.36724 0.05225
#
# Static dielectric constant tensor:
#      x y z
#    x 1.937460 0.000000 0.027240 
#    y 0.000000 1.909690 0.000000 
#    z 0.027240 0.000000 1.925810 
# 
# From -- ./inp_files/288348.got.cif
#   From: 2010.05.17/outbox.cif.g08.bks.cpg/sg15_145_cif.got.tgz:288348.got - 2010.06.03 18:47:42.
