data_PCOD9275691
_publ_section_title
;
Structure prediction by ZEFSAII (Michael W. Deem and Ramdas Pophale) SiO2 
 PCOD9275691
Probable space group: C 2/C
;
_chemical_formula_sum "Si O2"
_cell_formula_units_Z 32
_cell_length_a 5.422000
_cell_length_b 13.316745
_cell_length_c 22.098241
_cell_angle_alpha 90.000000
_cell_angle_beta 69.116879
_cell_angle_gamma 90.000000
_cell_volume 1490.754331
_symmetry_space_group_name_H-M "C 2/C"
_symmetry_group_IT_number 15
_symmetry_cell_setting 'monoclinic'
loop_
_space_group_symop_operation_xyz
x,y,z
-x,y,1/2-z
-x,-y,-z
x,-y,1/2+z
1/2+x,1/2+y,z
1/2-x,1/2+y,1/2-z
1/2-x,1/2-y,-z
1/2+x,1/2-y,1/2+z
loop_
_atom_site_type_symbol
_atom_site_label
_atom_site_fract_x
_atom_site_fract_y
_atom_site_fract_z
Si Si1 0.715358 0.471641 0.643289
Si Si2 0.184423 0.811553 0.096077
Si Si3 0.889351 0.685542 0.038528
Si Si4 0.323606 0.869539 0.819269
O O1 0.683394 0.589783 0.636245
O O2 0.771918 0.416897 0.573922
O O3 0.427773 0.428030 0.685495
O O4 0.968540 0.440406 0.661976
O O5 0.284971 0.717610 0.127169
O O6 0.919453 0.761143 0.092818
O O7 0.338886 0.838450 0.020640
O O8 0.750000 0.750000 0.000000
O O9 0.500000 0.824386 0.750000
#
# Coordination Sequence:
#
# PCOD9275691 Si02
#       4
#     8   8   8   8
#     4  11  24  41  66  93 124 165 209 256 315 374
#     4  10  23  40  63  94 126 166 202 256 318 369
#     4  10  20  39  63  96 130 158 202 257 314 379
#     4  11  25  43  61  89 125 163 216 262 300 366
#
# _framework density 21.465641999999999
#
# number of rings (size 3 to 8) (size 9 to 14) (size 15 to 20)
#    0.000    1.500    2.500    1.500    3.500    3.000 
#    0.000    0.000    0.000    0.000    0.000    0.000 
#    0.000    0.000    0.000    0.000    0.000    0.000 
#
# Total GULP energy -89106.478820 kJ/mol
# GULP energy per Si atom -5569.154926 kJ/mol
# Density = 2.141678 g / cm^3
# Si number density = 21.465642 Si / 1000 Ang^3
#
#
#
# Elastic Constant Matrix: (Units=GPa)
#
#
# Indices 1 2 3 4 5 6 
#
# 1 98.1575 40.6286 1.7937 0.0000 5.5363 0.0000
# 2 40.6286 123.5056 7.5967 0.0000 10.5312 0.0000
# 3 1.7937 7.5967 54.1802 0.0000 -7.4787 0.0000
# 4 0.0000 0.0000 0.0000 15.6467 0.0000 -1.0533
# 5 5.5363 10.5312 -7.4787 0.0000 38.4265 0.0000
# 6 0.0000 0.0000 0.0000 -1.0533 0.0000 11.0903
#
#
#
# Elastic Compliance Matrix: (Units=1/GPa)
#
#
# Indices 1 2 3 4 5 6 
#
# 1 0.011810 -0.003834 0.000058 0.000000 -0.000639 0.000000
# 2 -0.003834 0.009658 -0.001558 0.000000 -0.002398 0.000000
# 3 0.000058 -0.001558 0.019248 0.000000 0.004165 0.000000
# 4 0.000000 0.000000 0.000000 0.064323 0.000000 0.006109
# 5 -0.000639 -0.002398 0.004165 0.000000 0.027584 0.000000
# 6 0.000000 0.000000 0.000000 0.006109 0.000000 0.090750
#
#
# Mechanical properties :
#
#
# Convention : Reuss Voigt Hill
#
# Bulk Modulus (GPa) = 33.27952 41.76460 37.52206
# Shear Modulus (GPa) = 20.48709 28.08765 24.28737
#
# Velocity S-wave (km/s) = 3.09271 3.62123 3.36736
# Velocity P-wave (km/s) = 5.31887 6.08138 5.71286
#
# Compressibility (1/GPa) = 0.03004851
#
# Stress axis : x y z
#
# Youngs Moduli (GPa) = 84.67663 103.53747 51.95248
#
# Poissons Ratio (x) = 0.39696 -0.00303
# Poissons Ratio (y) = 0.32465 0.08096
# Poissons Ratio (z) = -0.00494 0.16134
#
# Static dielectric constant tensor:
#      x y z
#    x 1.896290 0.000000 -0.057860 
#    y 0.000000 1.779730 0.000000 
#    z -0.057860 0.000000 1.873950 
# 
# From -- ./inp_files/183715.got.cif
#   From: 2010.05.17/outbox.cif.g08.bks.cpg/sg15_92_cif.got.tgz:183715.got - 2010.06.03 18:47:42.
