data_PCOD9275521
_publ_section_title
;
Structure prediction by ZEFSAII (Michael W. Deem and Ramdas Pophale) SiO2 
 PCOD9275521
Probable space group: C 2/C
;
_chemical_formula_sum "Si O2"
_cell_formula_units_Z 60
_cell_length_a 13.587589
_cell_length_b 14.906630
_cell_length_c 14.852370
_cell_angle_alpha 90.000000
_cell_angle_beta 92.997311
_cell_angle_gamma 90.000000
_cell_volume 3004.160333
_symmetry_space_group_name_H-M "C 2/C"
_symmetry_group_IT_number 15
_symmetry_cell_setting 'monoclinic'
loop_
_space_group_symop_operation_xyz
x,y,z
-x,y,1/2-z
-x,-y,-z
x,-y,1/2+z
1/2+x,1/2+y,z
1/2-x,1/2+y,1/2-z
1/2-x,1/2-y,-z
1/2+x,1/2-y,1/2+z
loop_
_atom_site_type_symbol
_atom_site_label
_atom_site_fract_x
_atom_site_fract_y
_atom_site_fract_z
Si Si1 0.182304 0.113862 0.731702
Si Si2 0.138225 0.543937 0.871966
Si Si3 0.937067 0.927486 0.438776
Si Si4 0.236315 0.642657 0.402573
Si Si5 0.500000 0.945515 0.750000
Si Si6 0.240350 0.645455 0.018045
Si Si7 0.125724 0.174136 0.924034
Si Si8 0.191008 0.672989 0.213431
O O1 0.290535 0.080152 0.705461
O O2 0.105019 0.058208 0.665491
O O3 0.161143 0.117199 0.837692
O O4 0.174662 0.219887 0.704524
O O5 0.186911 0.452801 0.909704
O O6 0.033501 0.512528 0.830731
O O7 0.148245 0.612145 0.954192
O O8 0.838198 0.903363 0.487433
O O9 0.011062 0.843920 0.430962
O O10 0.000000 0.000000 0.500000
O O11 0.157789 0.723207 0.410884
O O12 0.319439 0.648546 0.481353
O O13 0.265815 0.655565 0.299750
O O14 0.408446 0.880907 0.767176
O O15 0.228110 0.632853 0.122614
O O16 0.250000 0.750000 0.000000
#
# Coordination Sequence:
#
# PCOD9275521 Si02
#       8
#     8   8   8   8   4   8   8   8
#     4  10  21  37  68  84 126 170 208 254 323 377
#     4  10  21  39  59  97 125 159 206 268 311 371
#     4  11  23  37  60  96 126 160 219 263 299 389
#     4   9  21  36  61  91 131 155 208 276 313 362
#     4  10  24  38  66  94 124 152 222 274 292 384
#     4  11  22  41  66  87 127 175 201 251 328 386
#     4  10  20  39  62  91 123 173 213 256 321 380
#     4  10  21  41  65  89 120 171 211 249 323 384
#
# _framework density 19.972303
#
# number of rings (size 3 to 8) (size 9 to 14) (size 15 to 20)
#    0.000    1.867    2.667    2.000    5.600    4.800 
#    0.000    7.333    0.000    0.000    0.000    0.000 
#    0.000    0.000    0.000    0.000    0.000    0.000 
#
# Total GULP energy -167246.560653 kJ/mol
# GULP energy per Si atom -5574.885355 kJ/mol
# Density = 1.992684 g / cm^3
# Si number density = 19.972303 Si / 1000 Ang^3
#
#
#
# Elastic Constant Matrix: (Units=GPa)
#
#
# Indices 1 2 3 4 5 6 
#
# 1 56.6078 4.1968 38.0376 0.0000 11.2433 0.0000
# 2 4.1968 53.5083 20.3499 0.0000 21.3057 0.0000
# 3 38.0376 20.3499 152.4305 0.0000 9.0051 0.0000
# 4 0.0000 0.0000 0.0000 30.4718 0.0000 14.2316
# 5 11.2433 21.3057 9.0051 0.0000 25.4491 0.0000
# 6 0.0000 0.0000 0.0000 14.2316 0.0000 26.0380
#
#
#
# Elastic Compliance Matrix: (Units=1/GPa)
#
#
# Indices 1 2 3 4 5 6 
#
# 1 0.023837 0.005612 -0.005922 0.000000 -0.013134 0.000000
# 2 0.005612 0.030247 -0.003877 0.000000 -0.026430 0.000000
# 3 -0.005922 -0.003877 0.008385 0.000000 0.002895 0.000000
# 4 0.000000 0.000000 0.000000 0.044066 0.000000 -0.024085
# 5 -0.013134 -0.026430 0.002895 0.000000 0.066199 0.000000
# 6 0.000000 0.000000 0.000000 -0.024085 0.000000 0.051570
#
#
# Mechanical properties :
#
#
# Convention : Reuss Voigt Hill
#
# Bulk Modulus (GPa) = 18.48591 43.07947 30.78269
# Shear Modulus (GPa) = 19.94353 29.72259 24.83306
#
# Velocity S-wave (km/s) = 3.16343 3.86189 3.52998
# Velocity P-wave (km/s) = 4.75593 6.44221 5.66220
#
# Compressibility (1/GPa) = 0.05409526
#
# Stress axis : x y z
#
# Youngs Moduli (GPa) = 41.95151 33.06144 119.26594
#
# Poissons Ratio (x) = -0.18555 0.70625
# Poissons Ratio (y) = -0.23544 0.46241
# Poissons Ratio (z) = 0.24842 0.12818
#
# Static dielectric constant tensor:
#      x y z
#    x 1.682730 0.000000 0.026040 
#    y 0.000000 1.737230 0.000000 
#    z 0.026040 0.000000 1.801430 
# 
# From -- ./inp_files/153958.got.cif
#   From: 2010.05.17/outbox.cif.g08.bks.cpg/sg15_77_cif.got.tgz:153958.got - 2010.06.03 18:47:42.
