data_PCOD9275607
_publ_section_title
;
Structure prediction by ZEFSAII (Michael W. Deem and Ramdas Pophale) SiO2 
 PCOD9275607
Probable space group: C 2/C
;
_chemical_formula_sum "Si O2"
_cell_formula_units_Z 64
_cell_length_a 19.360029
_cell_length_b 15.036636
_cell_length_c 23.933775
_cell_angle_alpha 90.000000
_cell_angle_beta 154.905740
_cell_angle_gamma 90.000000
_cell_volume 2954.915558
_symmetry_space_group_name_H-M "C 2/C"
_symmetry_group_IT_number 15
_symmetry_cell_setting 'monoclinic'
loop_
_space_group_symop_operation_xyz
x,y,z
-x,y,1/2-z
-x,-y,-z
x,-y,1/2+z
1/2+x,1/2+y,z
1/2-x,1/2+y,1/2-z
1/2-x,1/2-y,-z
1/2+x,1/2-y,1/2+z
loop_
_atom_site_type_symbol
_atom_site_label
_atom_site_fract_x
_atom_site_fract_y
_atom_site_fract_z
Si Si1 0.459732 0.039188 0.160453
Si Si2 0.111333 0.986598 0.878035
Si Si3 0.052334 0.746449 0.348822
Si Si4 0.809803 0.253762 0.768720
Si Si5 0.564581 0.723181 0.514765
Si Si6 0.733154 0.959005 0.793155
Si Si7 0.023660 0.979613 0.940041
Si Si8 0.315843 0.288636 0.605884
O O1 0.500000 0.997890 0.250000
O O2 0.503137 0.142917 0.193854
O O3 0.567281 0.995441 0.190963
O O4 0.272862 0.038559 0.009999
O O5 0.029225 0.974598 0.877956
O O6 0.166357 0.893343 0.891782
O O7 0.000000 0.029427 0.750000
O O8 0.250000 0.750000 0.500000
O O9 0.000000 0.782060 0.250000
O O10 0.940481 0.782505 0.318296
O O11 0.616936 0.233326 0.619486
O O12 0.806155 0.361959 0.760032
O O13 0.869175 0.228652 0.873835
O O14 0.550083 0.620447 0.483410
O O15 0.694153 0.767228 0.567278
O O16 0.846970 0.008188 0.832491
O O17 0.841380 0.959553 0.930020
O O18 0.500000 0.253825 0.750000
O O19 0.250000 0.250000 0.500000
#
# Coordination Sequence:
#
# PCOD9275607 Si02
#       8
#     8   8   8   8   8   8   8   8
#     4  10  20  39  63  89 116 162 207 251 303 372
#     4  11  24  39  62  92 131 161 201 253 309 362
#     4  10  21  39  66  90 120 155 206 264 319 368
#     4  10  22  39  63  91 124 164 201 257 311 365
#     4  11  22  39  63  90 129 163 207 248 307 371
#     4   9  20  37  65  85 119 160 210 249 297 364
#     4  10  20  40  64  91 121 168 203 247 307 371
#     4  11  23  38  59  91 127 170 201 248 300 364
#
# _framework density 21.658826000000001
#
# number of rings (size 3 to 8) (size 9 to 14) (size 15 to 20)
#    0.000    1.750    2.500    1.500    5.250    4.000 
#    0.000    0.625    0.000    0.000    0.000    0.000 
#    0.000    0.000    0.000    0.000    0.000    0.000 
#
# Total GULP energy -178549.607460 kJ/mol
# GULP energy per Si atom -5579.675233 kJ/mol
# Density = 2.160953 g / cm^3
# Si number density = 21.658826 Si / 1000 Ang^3
#
#
#
# Elastic Constant Matrix: (Units=GPa)
#
#
# Indices 1 2 3 4 5 6 
#
# 1 231.2761 25.5518 95.0769 0.0239 1.1934 0.0001
# 2 25.5518 50.5278 13.5781 0.0514 -8.1858 0.0002
# 3 95.0769 13.5781 147.9089 0.0187 -9.7194 0.0045
# 4 0.0239 0.0514 0.0187 65.8564 0.0101 -15.3067
# 5 1.1934 -8.1858 -9.7194 0.0101 46.1953 0.0001
# 6 0.0001 0.0002 0.0045 -15.3067 0.0001 21.8868
#
#
#
# Elastic Compliance Matrix: (Units=1/GPa)
#
#
# Indices 1 2 3 4 5 6 
#
# 1 0.006165 -0.002308 -0.003842 0.000001 -0.001377 0.000002
# 2 -0.002308 0.021649 -0.000251 -0.000020 0.003843 -0.000014
# 3 -0.003842 -0.000251 0.009387 -0.000002 0.002030 -0.000003
# 4 0.000001 -0.000020 -0.000002 0.018132 -0.000008 0.012681
# 5 -0.001377 0.003843 0.002030 -0.000008 0.022791 -0.000006
# 6 0.000002 -0.000014 -0.000003 0.012681 -0.000006 0.054558
#
#
# Mechanical properties :
#
#
# Convention : Reuss Voigt Hill
#
# Bulk Modulus (GPa) = 40.98607 77.56959 59.27783
# Shear Modulus (GPa) = 32.54868 46.48808 39.51838
#
# Velocity S-wave (km/s) = 3.88079 4.63793 4.27615
# Velocity P-wave (km/s) = 6.24862 8.03571 7.19784
#
# Compressibility (1/GPa) = 0.02439854
#
# Stress axis : x y z
#
# Youngs Moduli (GPa) = 162.19927 46.19257 106.53314
#
# Poissons Ratio (x) = 0.10663 0.40926
# Poissons Ratio (y) = 0.37443 0.02673
# Poissons Ratio (z) = 0.62311 0.01159
#
# Static dielectric constant tensor:
#      x y z
#    x 1.810880 0.000030 0.041680 
#    y 0.000030 0.635270 -0.000090 
#    z 0.041680 -0.000090 1.811900 
# 
# From -- ./inp_files/280504.got.cif
#   From: 2010.05.17/outbox.cif.g08.bks.cpg/sg15_141_cif.got.tgz:280504.got - 2010.06.03 18:47:42.
