data_PCOD9275915
_publ_section_title
;
Structure prediction by ZEFSAII (Michael W. Deem and Ramdas Pophale) SiO2 
 PCOD9275915
Probable space group: C 2/C
;
_chemical_formula_sum "Si O2"
_cell_formula_units_Z 64
_cell_length_a 13.771225
_cell_length_b 8.352383
_cell_length_c 23.623387
_cell_angle_alpha 90.000000
_cell_angle_beta 93.339288
_cell_angle_gamma 90.000000
_cell_volume 2712.608564
_symmetry_space_group_name_H-M "C 2/C"
_symmetry_group_IT_number 15
_symmetry_cell_setting 'monoclinic'
loop_
_space_group_symop_operation_xyz
x,y,z
-x,y,1/2-z
-x,-y,-z
x,-y,1/2+z
1/2+x,1/2+y,z
1/2-x,1/2+y,1/2-z
1/2-x,1/2-y,-z
1/2+x,1/2-y,1/2+z
loop_
_atom_site_type_symbol
_atom_site_label
_atom_site_fract_x
_atom_site_fract_y
_atom_site_fract_z
Si Si1 0.240553 0.845050 0.807650
Si Si2 0.995778 0.737232 0.083866
Si Si3 0.786127 0.078253 0.480337
Si Si4 0.176280 0.931261 0.123586
Si Si5 0.963270 0.726670 0.957033
Si Si6 0.068140 0.532561 0.652256
Si Si7 0.079570 0.145671 0.210785
Si Si8 0.130204 0.939474 0.915475
O O1 0.268713 0.666022 0.826251
O O2 0.180331 0.843628 0.748219
O O3 0.337889 0.951874 0.815641
O O4 0.172224 0.906666 0.855810
O O5 0.106323 0.803535 0.089734
O O6 0.992073 0.606931 0.133791
O O7 0.925648 0.889628 0.088657
O O8 0.975620 0.663158 0.021342
O O9 0.750000 0.250000 0.500000
O O10 0.897250 0.116048 0.465622
O O11 0.787750 0.961519 0.533404
O O12 0.750211 0.008331 0.419721
O O13 0.105289 0.050991 0.154776
O O14 0.912719 0.611754 0.909425
O O15 0.061821 0.795564 0.934013
O O16 0.039011 0.681811 0.689971
O O17 0.000000 0.069452 0.250000
#
# Coordination Sequence:
#
# PCOD9275915 Si02
#       8
#     8   8   8   8   8   8   8   8
#     4  11  26  43  67  99 131 179 231 276 342 396
#     4  10  20  39  65  96 132 176 218 267 337 398
#     4  11  21  38  66 102 136 180 218 277 346 408
#     4  11  22  45  68  95 137 175 224 284 332 410
#     4  11  19  40  65  96 142 176 217 272 333 411
#     4  11  23  41  65  98 131 171 221 285 331 401
#     4  12  25  48  71  91 129 181 232 284 342 391
#     4  11  21  41  66  98 138 180 221 270 341 410
#
# _framework density 23.593527000000002
#
# number of rings (size 3 to 8) (size 9 to 14) (size 15 to 20)
#    0.000    1.000    3.750    4.125    0.000    0.500 
#   11.250    6.250    0.000    0.000    0.000    0.000 
#    0.000    0.000    0.000    0.000    0.000    0.000 
#
# Total GULP energy -178838.217341 kJ/mol
# GULP energy per Si atom -5588.694292 kJ/mol
# Density = 2.353983 g / cm^3
# Si number density = 23.593527 Si / 1000 Ang^3
#
#
#
# Elastic Constant Matrix: (Units=GPa)
#
#
# Indices 1 2 3 4 5 6 
#
# 1 31.4239 9.9104 15.9376 0.0000 7.7125 0.0000
# 2 9.9104 80.4474 26.7635 0.0000 -1.1604 0.0000
# 3 15.9376 26.7635 115.3463 0.0000 12.9974 0.0000
# 4 0.0000 0.0000 0.0000 39.9734 0.0000 5.4077
# 5 7.7125 -1.1604 12.9974 0.0000 36.5239 0.0000
# 6 0.0000 0.0000 0.0000 5.4077 0.0000 29.2157
#
#
#
# Elastic Compliance Matrix: (Units=1/GPa)
#
#
# Indices 1 2 3 4 5 6 
#
# 1 0.036266 -0.003402 -0.003486 0.000000 -0.006525 0.000000
# 2 -0.003402 0.013880 -0.003002 0.000000 0.002227 0.000000
# 3 -0.003486 -0.003002 0.010184 0.000000 -0.002983 0.000000
# 4 0.000000 0.000000 0.000000 0.025659 0.000000 -0.004749
# 5 -0.006525 0.002227 -0.002983 0.000000 0.029890 0.000000
# 6 0.000000 0.000000 0.000000 -0.004749 0.000000 0.035107
#
#
# Mechanical properties :
#
#
# Convention : Reuss Voigt Hill
#
# Bulk Modulus (GPa) = 24.66077 36.93786 30.79932
# Shear Modulus (GPa) = 27.13237 32.78301 29.95769
#
# Velocity S-wave (km/s) = 3.39483 3.73163 3.56721
# Velocity P-wave (km/s) = 5.08346 5.85292 5.48171
#
# Compressibility (1/GPa) = 0.04055023
#
# Stress axis : x y z
#
# Youngs Moduli (GPa) = 27.57441 72.04480 98.19478
#
# Poissons Ratio (x) = 0.24509 0.34233
# Poissons Ratio (y) = 0.09380 0.29474
# Poissons Ratio (z) = 0.09613 0.21625
#
# Static dielectric constant tensor:
#      x y z
#    x 1.933360 0.000000 0.038050 
#    y 0.000000 1.946250 0.000000 
#    z 0.038050 0.000000 1.896340 
# 
# From -- ./inp_files/273163.got.cif
#   From: 2010.05.17/outbox.cif.g08.bks.cpg/sg15_137_cif.got.tgz:273163.got - 2010.06.03 18:47:42.
