data_PCOD9275516
_publ_section_title
;
Structure prediction by ZEFSAII (Michael W. Deem and Ramdas Pophale) SiO2 
 PCOD9275516
Probable space group: C 2/C
;
_chemical_formula_sum "Si O2"
_cell_formula_units_Z 60
_cell_length_a 17.388677
_cell_length_b 11.375241
_cell_length_c 20.216284
_cell_angle_alpha 90.000000
_cell_angle_beta 45.443094
_cell_angle_gamma 90.000000
_cell_volume 2849.352845
_symmetry_space_group_name_H-M "C 2/C"
_symmetry_group_IT_number 15
_symmetry_cell_setting 'monoclinic'
loop_
_space_group_symop_operation_xyz
x,y,z
-x,y,1/2-z
-x,-y,-z
x,-y,1/2+z
1/2+x,1/2+y,z
1/2-x,1/2+y,1/2-z
1/2-x,1/2-y,-z
1/2+x,1/2-y,1/2+z
loop_
_atom_site_type_symbol
_atom_site_label
_atom_site_fract_x
_atom_site_fract_y
_atom_site_fract_z
Si Si1 0.839980 0.579602 0.942961
Si Si2 0.195028 0.328730 0.681576
Si Si3 0.346599 0.373911 0.710678
Si Si4 0.766954 0.747204 0.100918
Si Si5 0.546344 0.396031 0.516306
Si Si6 0.665229 0.593107 0.520095
Si Si7 0.500000 0.990696 0.750000
Si Si8 0.949729 0.102277 0.712531
O O1 0.793837 0.664990 0.912445
O O2 0.957652 0.555527 0.841674
O O3 0.822582 0.649098 0.021201
O O4 0.771298 0.457643 0.992673
O O5 0.248895 0.371324 0.717398
O O6 0.288964 0.335862 0.569655
O O7 0.136941 0.203637 0.722291
O O8 0.102519 0.415879 0.711695
O O9 0.311378 0.304947 0.797059
O O10 0.450573 0.324689 0.608314
O O11 0.388828 0.502292 0.707614
O O12 0.865796 0.818646 0.074012
O O13 0.500000 0.500000 0.500000
O O14 0.611103 0.468399 0.532652
O O15 0.560806 0.655250 0.614213
O O16 0.000000 0.049443 0.750000
#
# Coordination Sequence:
#
# PCOD9275516 Si02
#       8
#     8   8   8   8   8   8   4   8
#     4   9  20  40  65  91 131 165 214 273 338 390
#     4  11  23  42  64  95 121 182 216 265 325 400
#     4  11  25  39  69  95 133 165 228 273 323 392
#     4  10  22  39  63 100 126 164 215 279 331 388
#     4  10  20  39  62  90 127 174 210 253 331 402
#     4   9  20  39  66  86 128 169 220 257 322 406
#     4  10  22  42  64  88 130 174 224 260 342 404
#     4  11  24  43  67  95 129 171 220 271 327 399
#
# _framework density 21.057413
#
# number of rings (size 3 to 8) (size 9 to 14) (size 15 to 20)
#    0.000    1.867    2.000    0.800    5.600    1.600 
#    2.400    0.667    0.000    0.000    0.000    0.000 
#    0.000    0.000    0.000    0.000    0.000    0.000 
#
# Total GULP energy -167188.966462 kJ/mol
# GULP energy per Si atom -5572.965549 kJ/mol
# Density = 2.100949 g / cm^3
# Si number density = 21.057413 Si / 1000 Ang^3
#
#
#
# Elastic Constant Matrix: (Units=GPa)
#
#
# Indices 1 2 3 4 5 6 
#
# 1 70.1682 16.3048 17.2379 0.0000 -0.9212 0.0000
# 2 16.3048 52.7840 31.7021 0.0000 -4.8491 0.0000
# 3 17.2379 31.7021 134.5847 0.0000 -16.4144 0.0000
# 4 0.0000 0.0000 0.0000 37.1706 0.0000 -3.3411
# 5 -0.9212 -4.8491 -16.4144 0.0000 25.4786 0.0000
# 6 0.0000 0.0000 0.0000 -3.3411 0.0000 18.3857
#
#
#
# Elastic Compliance Matrix: (Units=1/GPa)
#
#
# Indices 1 2 3 4 5 6 
#
# 1 0.015489 -0.004206 -0.001110 0.000000 -0.000955 0.000000
# 2 -0.004206 0.023229 -0.004789 0.000000 0.001184 0.000000
# 3 -0.001110 -0.004789 0.009316 0.000000 0.005051 0.000000
# 4 0.000000 0.000000 0.000000 0.027350 0.000000 0.004970
# 5 -0.000955 0.001184 0.005051 0.000000 0.042693 0.000000
# 6 0.000000 0.000000 0.000000 0.004970 0.000000 0.055293
#
#
# Mechanical properties :
#
#
# Convention : Reuss Voigt Hill
#
# Bulk Modulus (GPa) = 35.93742 43.11405 39.52574
# Shear Modulus (GPa) = 24.64825 29.02643 26.83734
#
# Velocity S-wave (km/s) = 3.42501 3.71677 3.57386
# Velocity P-wave (km/s) = 5.72227 6.24004 5.98675
#
# Compressibility (1/GPa) = 0.02782615
#
# Stress axis : x y z
#
# Youngs Moduli (GPa) = 64.56278 43.04943 107.33793
#
# Poissons Ratio (x) = 0.18105 0.11911
# Poissons Ratio (y) = 0.27153 0.51401
# Poissons Ratio (z) = 0.07164 0.20615
#
# Static dielectric constant tensor:
#      x y z
#    x 1.834550 0.000000 -0.012310 
#    y 0.000000 1.792020 0.000000 
#    z -0.012310 0.000000 1.858110 
# 
# From -- ./inp_files/248744.got.cif
#   From: 2010.05.17/outbox.cif.g08.bks.cpg/sg15_125_cif.got.tgz:248744.got - 2010.06.03 18:47:42.
