data_PCOD9275520
_publ_section_title
;
Structure prediction by ZEFSAII (Michael W. Deem and Ramdas Pophale) SiO2 
 PCOD9275520
Probable space group: C 2/C
;
_chemical_formula_sum "Si O2"
_cell_formula_units_Z 48
_cell_length_a 14.753520
_cell_length_b 28.568486
_cell_length_c 5.615711
_cell_angle_alpha 90.000000
_cell_angle_beta 104.123229
_cell_angle_gamma 90.000000
_cell_volume 2295.396890
_symmetry_space_group_name_H-M "C 2/C"
_symmetry_group_IT_number 15
_symmetry_cell_setting 'monoclinic'
loop_
_space_group_symop_operation_xyz
x,y,z
-x,y,1/2-z
-x,-y,-z
x,-y,1/2+z
1/2+x,1/2+y,z
1/2-x,1/2+y,1/2-z
1/2-x,1/2-y,-z
1/2+x,1/2-y,1/2+z
loop_
_atom_site_type_symbol
_atom_site_label
_atom_site_fract_x
_atom_site_fract_y
_atom_site_fract_z
Si Si1 0.839728 0.596380 0.256459
Si Si2 0.000000 0.028907 0.250000
Si Si3 0.397829 0.820726 0.078729
Si Si4 0.110487 0.753631 0.275716
Si Si5 0.000000 0.527955 0.250000
Si Si6 0.236744 0.326927 0.103268
Si Si7 0.206619 0.970668 0.914975
O O1 0.904342 0.638756 0.387095
O O2 0.907511 0.559781 0.174541
O O3 0.786329 0.567476 0.424818
O O4 0.767689 0.625212 0.046813
O O5 0.897446 0.051926 0.173169
O O6 0.000000 0.000000 0.500000
O O7 0.500000 0.819340 0.250000
O O8 0.309144 0.836590 0.173311
O O9 0.376307 0.768619 0.975731
O O10 0.164918 0.714087 0.464889
O O11 0.163156 0.802408 0.335496
O O12 0.000000 0.755100 0.250000
O O13 0.000000 0.500000 0.500000
O O14 0.214478 0.004041 0.679803
#
# Coordination Sequence:
#
# PCOD9275520 Si02
#       7
#     8   4   8   8   4   8   8
#     4  11  25  39  60  91 128 164 212 271 326 385
#     4   8  16  34  60  86 108 150 208 252 306 380
#     4  11  21  37  63  88 122 170 207 259 323 390
#     4  10  20  39  62  91 120 165 210 259 316 394
#     4  12  28  44  66  96 134 180 226 276 328 396
#     4  10  22  38  61  89 126 161 212 260 322 390
#     4  10  21  39  64  89 121 166 212 263 321 386
#
# _framework density 20.911418000000001
#
# number of rings (size 3 to 8) (size 9 to 14) (size 15 to 20)
#    0.000    1.667    1.667    2.500    8.167    0.000 
#    0.000    1.667    1.833    0.000    0.000    0.000 
#    0.000    0.000    0.000    0.000    0.000    0.000 
#
# Total GULP energy -133668.001843 kJ/mol
# GULP energy per Si atom -5569.500077 kJ/mol
# Density = 2.086382 g / cm^3
# Si number density = 20.911418 Si / 1000 Ang^3
#
#
#
# Elastic Constant Matrix: (Units=GPa)
#
#
# Indices 1 2 3 4 5 6 
#
# 1 93.7512 30.5736 6.2479 0.0000 1.1313 0.0000
# 2 30.5736 89.1635 30.4605 0.0000 0.5117 0.0000
# 3 6.2479 30.4605 71.7654 0.0000 -6.2397 0.0000
# 4 0.0000 0.0000 0.0000 17.3425 0.0000 -2.9831
# 5 1.1313 0.5117 -6.2397 0.0000 31.4795 0.0000
# 6 0.0000 0.0000 0.0000 -2.9831 0.0000 41.0901
#
#
#
# Elastic Compliance Matrix: (Units=1/GPa)
#
#
# Indices 1 2 3 4 5 6 
#
# 1 0.012052 -0.004406 0.000803 0.000000 -0.000202 0.000000
# 2 -0.004406 0.014784 -0.006002 0.000000 -0.001272 0.000000
# 3 0.000803 -0.006002 0.016706 0.000000 0.003380 0.000000
# 4 0.000000 0.000000 0.000000 0.058391 0.000000 0.004239
# 5 -0.000202 -0.001272 0.003380 0.000000 0.032465 0.000000
# 6 0.000000 0.000000 0.000000 0.004239 0.000000 0.024645
#
#
# Mechanical properties :
#
#
# Convention : Reuss Voigt Hill
#
# Bulk Modulus (GPa) = 41.09714 43.24937 42.17325
# Shear Modulus (GPa) = 26.82953 30.47564 28.65259
#
# Velocity S-wave (km/s) = 3.58580 3.82169 3.70562
# Velocity P-wave (km/s) = 6.06956 6.34041 6.20646
#
# Compressibility (1/GPa) = 0.02433260
#
# Stress axis : x y z
#
# Youngs Moduli (GPa) = 82.97199 67.64165 59.85977
#
# Poissons Ratio (x) = 0.29802 -0.04808
# Poissons Ratio (y) = 0.36556 0.35927
# Poissons Ratio (z) = -0.06664 0.40598
#
# Static dielectric constant tensor:
#      x y z
#    x 1.773710 0.000000 -0.000920 
#    y 0.000000 1.716780 0.000000 
#    z -0.000920 0.000000 1.921850 
# 
# From -- ./inp_files/8830.got.cif
#   From: 2010.05.17/outbox.cif.g08.bks.cpg/sg15_5_cif.got.tgz:8830.got - 2010.06.03 18:47:42.
