data_PCOD9275415
_publ_section_title
;
Structure prediction by ZEFSAII (Michael W. Deem and Ramdas Pophale) SiO2 
 PCOD9275415
Probable space group: C 2/C
;
_chemical_formula_sum "Si O2"
_cell_formula_units_Z 48
_cell_length_a 6.827281
_cell_length_b 26.871035
_cell_length_c 15.674543
_cell_angle_alpha 90.000000
_cell_angle_beta 50.797569
_cell_angle_gamma 90.000000
_cell_volume 2228.345998
_symmetry_space_group_name_H-M "C 2/C"
_symmetry_group_IT_number 15
_symmetry_cell_setting 'monoclinic'
loop_
_space_group_symop_operation_xyz
x,y,z
-x,y,1/2-z
-x,-y,-z
x,-y,1/2+z
1/2+x,1/2+y,z
1/2-x,1/2+y,1/2-z
1/2-x,1/2-y,-z
1/2+x,1/2-y,1/2+z
loop_
_atom_site_type_symbol
_atom_site_label
_atom_site_fract_x
_atom_site_fract_y
_atom_site_fract_z
Si Si1 0.500000 0.018214 0.750000
Si Si2 0.008494 0.540160 0.422116
Si Si3 0.231668 0.872829 0.553496
Si Si4 0.540385 0.590675 0.924252
Si Si5 0.500000 0.701636 0.250000
Si Si6 0.465213 0.220729 0.347528
Si Si7 0.759568 0.174143 0.924972
O O1 0.258897 0.053145 0.835268
O O2 0.441145 0.985059 0.682805
O O3 0.730074 0.563970 0.495092
O O4 0.000000 0.500000 0.500000
O O5 0.205102 0.582216 0.398701
O O6 0.110598 0.890140 0.498973
O O7 0.507947 0.849736 0.455632
O O8 0.064789 0.832996 0.650865
O O9 0.489411 0.635651 0.871218
O O10 0.244251 0.731888 0.306147
O O11 0.500000 0.192194 0.250000
O O12 0.318934 0.188228 0.456267
O O13 0.323976 0.272339 0.369139
#
# Coordination Sequence:
#
# PCOD9275415 Si02
#       7
#     4   8   8   8   4   8   8
#     4  12  26  41  68  94 124 176 212 261 328 378
#     4  11  25  45  63  95 131 167 217 268 320 383
#     4  10  22  41  63  91 128 166 211 267 319 382
#     4  11  24  44  63  93 129 164 216 265 320 384
#     4  10  22  35  64  96 118 168 214 257 324 384
#     4  10  20  39  61  89 124 163 209 257 320 387
#     4   9  22  40  60  89 128 162 205 267 316 380
#
# _framework density 21.540638999999999
#
# number of rings (size 3 to 8) (size 9 to 14) (size 15 to 20)
#    0.000    1.667    1.667    1.500    2.333    4.000 
#    3.000    5.000    0.000    0.000    0.000    0.000 
#    0.000    0.000    0.000    0.000    0.000    0.000 
#
# Total GULP energy -134152.165913 kJ/mol
# GULP energy per Si atom -5589.673580 kJ/mol
# Density = 2.149161 g / cm^3
# Si number density = 21.540639 Si / 1000 Ang^3
#
#
#
# Elastic Constant Matrix: (Units=GPa)
#
#
# Indices 1 2 3 4 5 6 
#
# 1 104.8972 37.1540 10.9115 0.0000 5.3522 0.0000
# 2 37.1540 65.1947 -2.9931 0.0000 -2.8021 0.0000
# 3 10.9115 -2.9931 52.2353 0.0000 9.8029 0.0000
# 4 0.0000 0.0000 0.0000 -9.9712 0.0000 -21.6360
# 5 5.3522 -2.8021 9.8029 0.0000 29.0642 0.0000
# 6 0.0000 0.0000 0.0000 -21.6360 0.0000 5.1017
#
#
#
# Elastic Compliance Matrix: (Units=1/GPa)
#
#
# Indices 1 2 3 4 5 6 
#
# 1 0.012518 -0.007346 -0.002637 0.000000 -0.002124 0.000000
# 2 -0.007346 0.019734 0.002193 0.000000 0.002516 0.000000
# 3 -0.002637 0.002193 0.021020 0.000000 -0.006393 0.000000
# 4 0.000000 0.000000 0.000000 -0.009830 0.000000 -0.041689
# 5 -0.002124 0.002516 -0.006393 0.000000 0.037196 0.000000
# 6 0.000000 0.000000 0.000000 -0.041689 0.000000 0.019213
#
#
# Mechanical properties :
#
#
# Convention : Reuss Voigt Hill
#
# Bulk Modulus (GPa) = 26.53087 34.71912 30.62500
# Shear Modulus (GPa) = 39.06374 16.65591 27.85983
#
# Velocity S-wave (km/s) = 4.26313 2.78372 3.60023
# Velocity P-wave (km/s) = 6.04779 5.14637 5.61520
#
# Compressibility (1/GPa) = 0.03769194
#
# Stress axis : x y z
#
# Youngs Moduli (GPa) = 79.88614 50.67389 47.57274
#
# Poissons Ratio (x) = 0.37226 0.12546
# Poissons Ratio (y) = 0.58686 -0.10434
# Poissons Ratio (z) = 0.21068 -0.11114
#
# Static dielectric constant tensor:
#      x y z
#    x 1.769490 0.000000 0.009240 
#    y 0.000000 1.796510 0.000000 
#    z 0.009240 0.000000 1.778770 
# 
# From -- ./inp_files/130373.got.cif
#   From: 2010.05.17/outbox.cif.g08.bks.cpg/sg15_66_cif.got.tgz:130373.got - 2010.06.03 18:47:42.
