data_PCOD9275890
_publ_section_title
;
Structure prediction by ZEFSAII (Michael W. Deem and Ramdas Pophale) SiO2 
 PCOD9275890
Probable space group: C 2/C
;
_chemical_formula_sum "Si O2"
_cell_formula_units_Z 56
_cell_length_a 25.936141
_cell_length_b 11.486368
_cell_length_c 16.469110
_cell_angle_alpha 90.000000
_cell_angle_beta 33.199918
_cell_angle_gamma 90.000000
_cell_volume 2686.529022
_symmetry_space_group_name_H-M "C 2/C"
_symmetry_group_IT_number 15
_symmetry_cell_setting 'monoclinic'
loop_
_space_group_symop_operation_xyz
x,y,z
-x,y,1/2-z
-x,-y,-z
x,-y,1/2+z
1/2+x,1/2+y,z
1/2-x,1/2+y,1/2-z
1/2-x,1/2-y,-z
1/2+x,1/2-y,1/2+z
loop_
_atom_site_type_symbol
_atom_site_label
_atom_site_fract_x
_atom_site_fract_y
_atom_site_fract_z
Si Si1 0.381132 0.396767 0.694968
Si Si2 0.728200 0.283958 0.327792
Si Si3 0.896605 0.465370 0.375485
Si Si4 0.377413 0.029154 0.580189
Si Si5 0.650277 0.291091 0.597477
Si Si6 0.401241 0.900160 0.715063
Si Si7 0.409245 0.666432 0.632464
O O1 0.294046 0.322818 0.772848
O O2 0.389371 0.373413 0.780914
O O3 0.372960 0.534739 0.691690
O O4 0.478800 0.348233 0.529202
O O5 0.805640 0.366014 0.185259
O O6 0.675339 0.338120 0.476020
O O7 0.643846 0.276031 0.374432
O O8 0.858117 0.472822 0.517419
O O9 0.904561 0.330759 0.338988
O O10 0.855146 0.536732 0.354123
O O11 0.000000 0.517092 0.250000
O O12 0.486882 0.068991 0.435543
O O13 0.363531 0.953960 0.680322
O O14 0.750000 0.250000 0.500000
O O15 0.391533 0.760842 0.726382
#
# Coordination Sequence:
#
# PCOD9275890 Si02
#       7
#     8   8   8   8   8   8   8
#     4  10  24  45  60  95 132 170 218 262 324 396
#     4  11  23  40  67  92 123 172 218 263 317 386
#     4  10  22  37  67  96 119 158 217 277 318 376
#     4  10  21  38  65  96 128 157 220 271 317 384
#     4  10  22  38  63  89 126 161 215 273 312 373
#     4  10  20  39  65  94 125 167 207 274 330 366
#     4  11  24  40  67  89 136 176 203 266 333 389
#
# _framework density 20.844740999999999
#
# number of rings (size 3 to 8) (size 9 to 14) (size 15 to 20)
#    0.000    1.714    1.429    2.571   12.000    0.000 
#    0.000    2.143    3.143    0.000    0.000    0.000 
#    0.000    0.000    0.000    0.000    0.000    0.000 
#
# Total GULP energy -156016.482024 kJ/mol
# GULP energy per Si atom -5572.017215 kJ/mol
# Density = 2.079730 g / cm^3
# Si number density = 20.844741 Si / 1000 Ang^3
#
#
#
# Elastic Constant Matrix: (Units=GPa)
#
#
# Indices 1 2 3 4 5 6 
#
# 1 99.3046 59.4776 37.3384 0.0000 23.6614 0.0000
# 2 59.4776 64.2417 33.2651 0.0000 7.0784 0.0000
# 3 37.3384 33.2651 51.4995 0.0000 22.5488 0.0000
# 4 0.0000 0.0000 0.0000 19.8659 0.0000 -2.0202
# 5 23.6614 7.0784 22.5488 0.0000 37.8464 0.0000
# 6 0.0000 0.0000 0.0000 -2.0202 0.0000 26.4205
#
#
#
# Elastic Compliance Matrix: (Units=1/GPa)
#
#
# Indices 1 2 3 4 5 6 
#
# 1 0.027663 -0.025332 0.002441 0.000000 -0.014011 0.000000
# 2 -0.025332 0.047736 -0.020961 0.000000 0.019398 0.000000
# 3 0.002441 -0.020961 0.040776 0.000000 -0.021900 0.000000
# 4 0.000000 0.000000 0.000000 0.050732 0.000000 0.003879
# 5 -0.014011 0.019398 -0.021900 0.000000 0.044603 0.000000
# 6 0.000000 0.000000 0.000000 0.003879 0.000000 0.038146
#
#
# Mechanical properties :
#
#
# Convention : Reuss Voigt Hill
#
# Bulk Modulus (GPa) = 35.12320 52.80091 43.96205
# Shear Modulus (GPa) = 14.41544 22.49085 18.45315
#
# Velocity S-wave (km/s) = 2.63261 3.28833 2.97857
# Velocity P-wave (km/s) = 5.11149 6.30897 5.74153
#
# Compressibility (1/GPa) = 0.02847121
#
# Stress axis : x y z
#
# Youngs Moduli (GPa) = 36.14964 20.94858 24.52395
#
# Poissons Ratio (x) = 0.53066 -0.05986
# Poissons Ratio (y) = 0.91572 0.51406
# Poissons Ratio (z) = -0.08824 0.43911
#
# Static dielectric constant tensor:
#      x y z
#    x 1.730100 0.000000 0.034200 
#    y 0.000000 1.772950 0.000000 
#    z 0.034200 0.000000 1.762420 
# 
# From -- ./inp_files/177570.got.cif
#   From: 2010.05.17/outbox.cif.g08.bks.cpg/sg15_89_cif.got.tgz:177570.got - 2010.06.03 18:47:42.
