data_PCOD9275316
_publ_section_title
;
Structure prediction by ZEFSAII (Michael W. Deem and Ramdas Pophale) SiO2 
 PCOD9275316
Probable space group: C 2/C
;
_chemical_formula_sum "Si O2"
_cell_formula_units_Z 52
_cell_length_a 11.233722
_cell_length_b 30.976588
_cell_length_c 8.454458
_cell_angle_alpha 90.000000
_cell_angle_beta 64.659501
_cell_angle_gamma 90.000000
_cell_volume 2658.923664
_symmetry_space_group_name_H-M "C 2/C"
_symmetry_group_IT_number 15
_symmetry_cell_setting 'monoclinic'
loop_
_space_group_symop_operation_xyz
x,y,z
-x,y,1/2-z
-x,-y,-z
x,-y,1/2+z
1/2+x,1/2+y,z
1/2-x,1/2+y,1/2-z
1/2-x,1/2-y,-z
1/2+x,1/2-y,1/2+z
loop_
_atom_site_type_symbol
_atom_site_label
_atom_site_fract_x
_atom_site_fract_y
_atom_site_fract_z
Si Si1 0.691587 0.125014 0.264433
Si Si2 0.000000 0.976666 0.250000
Si Si3 0.824716 0.963614 0.623719
Si Si4 0.153914 0.702182 0.712501
Si Si5 0.911920 0.531931 0.446921
Si Si6 0.596724 0.123930 0.961253
Si Si7 0.154104 0.796771 0.699741
O O1 0.758189 0.078024 0.239341
O O2 0.562667 0.128334 0.449666
O O3 0.796343 0.162041 0.235023
O O4 0.643007 0.131722 0.113489
O O5 0.898065 0.006781 0.209176
O O6 0.927768 0.950207 0.428349
O O7 0.711428 0.986794 0.581331
O O8 0.163788 0.659273 0.812354
O O9 0.176751 0.750253 0.770804
O O10 0.255922 0.701429 0.509476
O O11 0.000000 0.702905 0.750000
O O12 0.872589 0.572898 0.576983
O O13 0.000000 0.549163 0.250000
O O14 0.000000 0.500000 0.500000
O O15 0.000000 0.800099 0.750000
#
# Coordination Sequence:
#
# PCOD9275316 Si02
#       7
#     8   4   8   8   8   8   8
#     4  10  20  39  60  84 123 154 201 253 308 365
#     4  10  22  40  60  80 120 170 208 246 312 378
#     4  10  21  39  59  85 117 164 206 254 305 372
#     4  10  20  39  65  88 118 160 208 247 311 374
#     4  11  21  38  59  90 123 154 203 265 306 359
#     4  10  20  39  62  87 118 163 200 254 311 370
#     4  10  22  39  61  92 122 153 201 262 305 378
#
# _framework density 19.556785999999999
#
# number of rings (size 3 to 8) (size 9 to 14) (size 15 to 20)
#    0.000    1.846    4.615    0.923    1.077    1.231 
#    5.538    0.000    0.000    0.000    0.000    0.000 
#    0.000    0.000    0.000    0.000    0.000    0.000 
#
# Total GULP energy -144822.918279 kJ/mol
# GULP energy per Si atom -5570.112241 kJ/mol
# Density = 1.951227 g / cm^3
# Si number density = 19.556786 Si / 1000 Ang^3
#
#
#
# Elastic Constant Matrix: (Units=GPa)
#
#
# Indices 1 2 3 4 5 6 
#
# 1 108.2439 52.3385 9.8010 0.0000 -0.8947 0.0000
# 2 52.3385 116.4934 28.4652 0.0000 11.7038 0.0000
# 3 9.8010 28.4652 72.4767 0.0000 -18.8155 0.0000
# 4 0.0000 0.0000 0.0000 32.9136 0.0000 5.5384
# 5 -0.8947 11.7038 -18.8155 0.0000 26.1736 0.0000
# 6 0.0000 0.0000 0.0000 5.5384 0.0000 20.7739
#
#
#
# Elastic Compliance Matrix: (Units=1/GPa)
#
#
# Indices 1 2 3 4 5 6 
#
# 1 0.012235 -0.006522 0.002179 0.000000 0.004901 0.000000
# 2 -0.006522 0.014816 -0.008255 0.000000 -0.012783 0.000000
# 3 0.002179 -0.008255 0.021789 0.000000 0.019430 0.000000
# 4 0.000000 0.000000 0.000000 0.031810 0.000000 -0.008481
# 5 0.004901 -0.012783 0.019430 0.000000 0.058057 0.000000
# 6 0.000000 0.000000 0.000000 -0.008481 0.000000 0.050398
#
#
# Mechanical properties :
#
#
# Convention : Reuss Voigt Hill
#
# Bulk Modulus (GPa) = 42.29381 53.15816 47.72598
# Shear Modulus (GPa) = 22.50399 29.74618 26.12509
#
# Velocity S-wave (km/s) = 3.39588 3.90425 3.65890
# Velocity P-wave (km/s) = 6.08680 6.89672 6.50437
#
# Compressibility (1/GPa) = 0.02364412
#
# Stress axis : x y z
#
# Youngs Moduli (GPa) = 81.73208 67.49532 45.89427
#
# Poissons Ratio (x) = 0.44020 -0.10002
# Poissons Ratio (y) = 0.53305 0.37888
# Poissons Ratio (z) = -0.17813 0.55720
#
# Static dielectric constant tensor:
#      x y z
#    x 1.718090 0.000000 -0.035570 
#    y 0.000000 1.720200 0.000000 
#    z -0.035570 0.000000 1.724560 
# 
# From -- ./inp_files/35095.got.cif
#   From: 2010.05.17/outbox.cif.g08.bks.cpg/sg15_18_cif.got.tgz:35095.got - 2010.06.03 18:47:42.
