data_PCOD9275525
_publ_section_title
;
Structure prediction by ZEFSAII (Michael W. Deem and Ramdas Pophale) SiO2 
 PCOD9275525
Probable space group: C 2/C
;
_chemical_formula_sum "Si O2"
_cell_formula_units_Z 48
_cell_length_a 13.751404
_cell_length_b 12.174311
_cell_length_c 14.962952
_cell_angle_alpha 90.000000
_cell_angle_beta 73.333995
_cell_angle_gamma 90.000000
_cell_volume 2399.777472
_symmetry_space_group_name_H-M "C 2/C"
_symmetry_group_IT_number 15
_symmetry_cell_setting 'monoclinic'
loop_
_space_group_symop_operation_xyz
x,y,z
-x,y,1/2-z
-x,-y,-z
x,-y,1/2+z
1/2+x,1/2+y,z
1/2-x,1/2+y,1/2-z
1/2-x,1/2-y,-z
1/2+x,1/2-y,1/2+z
loop_
_atom_site_type_symbol
_atom_site_label
_atom_site_fract_x
_atom_site_fract_y
_atom_site_fract_z
Si Si1 0.317795 0.302197 0.208593
Si Si2 0.247867 0.024066 0.651789
Si Si3 0.894584 0.994236 0.578254
Si Si4 0.884714 0.838460 0.756797
Si Si5 0.219715 0.374576 0.527880
Si Si6 0.890835 0.415747 0.757847
O O1 0.317649 0.371800 0.299901
O O2 0.355072 0.387511 0.123916
O O3 0.202450 0.254787 0.229158
O O4 0.390597 0.197418 0.201074
O O5 0.316857 0.062925 0.551570
O O6 0.169634 0.923402 0.659710
O O7 0.317051 0.991967 0.719006
O O8 0.894023 0.910534 0.663192
O O9 0.818914 0.942436 0.527386
O O10 0.000000 0.000000 0.500000
O O11 0.000000 0.804603 0.750000
O O12 0.250000 0.250000 0.500000
O O13 0.153287 0.385352 0.633831
O O14 0.000000 0.464157 0.750000
#
# Coordination Sequence:
#
# PCOD9275525 Si02
#       6
#     8   8   8   8   8   8
#     4  10  20  42  61  87 134 163 212 273 317 384
#     4  10  21  41  63  90 128 167 214 268 313 383
#     4  11  23  39  65  98 127 169 225 269 318 386
#     4  10  20  39  62  91 128 172 209 262 335 373
#     4  12  22  41  68  92 127 167 221 266 317 392
#     4  11  24  41  64  95 128 171 214 261 330 384
#
# _framework density 20.001854999999999
#
# number of rings (size 3 to 8) (size 9 to 14) (size 15 to 20)
#    0.000    1.333    6.667    1.000    2.333    4.000 
#    0.000    7.500    0.000    0.000    0.000    0.000 
#    0.000    0.000    0.000    0.000    0.000    0.000 
#
# Total GULP energy -133762.952309 kJ/mol
# GULP energy per Si atom -5573.456346 kJ/mol
# Density = 1.995633 g / cm^3
# Si number density = 20.001855 Si / 1000 Ang^3
#
#
#
# Elastic Constant Matrix: (Units=GPa)
#
#
# Indices 1 2 3 4 5 6 
#
# 1 59.7572 -8.8667 23.4644 0.0000 -22.1712 0.0000
# 2 -8.8667 78.2500 46.3515 0.0000 -8.7795 0.0000
# 3 23.4644 46.3515 122.9319 0.0000 -4.0176 0.0000
# 4 0.0000 0.0000 0.0000 33.7532 0.0000 2.5614
# 5 -22.1712 -8.7795 -4.0176 0.0000 27.8540 0.0000
# 6 0.0000 0.0000 0.0000 2.5614 0.0000 12.0945
#
#
#
# Elastic Compliance Matrix: (Units=1/GPa)
#
#
# Indices 1 2 3 4 5 6 
#
# 1 0.033884 0.013424 -0.010559 0.000000 0.029679 0.000000
# 2 0.013424 0.022305 -0.010443 0.000000 0.016210 0.000000
# 3 -0.010559 -0.010443 0.013770 0.000000 -0.009710 0.000000
# 4 0.000000 0.000000 0.000000 0.030111 0.000000 -0.006377
# 5 0.029679 0.016210 -0.009710 0.000000 0.063234 0.000000
# 6 0.000000 0.000000 0.000000 -0.006377 0.000000 0.084033
#
#
# Mechanical properties :
#
#
# Convention : Reuss Voigt Hill
#
# Bulk Modulus (GPa) = 18.24688 42.53750 30.39219
# Shear Modulus (GPa) = 17.80878 28.07298 22.94088
#
# Velocity S-wave (km/s) = 2.98712 3.75042 3.39032
# Velocity P-wave (km/s) = 4.58689 6.32986 5.52751
#
# Compressibility (1/GPa) = 0.05480389
#
# Stress axis : x y z
#
# Youngs Moduli (GPa) = 29.51236 44.83280 72.62094
#
# Poissons Ratio (x) = -0.60184 0.76682
# Poissons Ratio (y) = -0.39618 0.75836
# Poissons Ratio (z) = 0.31163 0.46818
#
# Static dielectric constant tensor:
#      x y z
#    x 1.692100 0.000000 0.069950 
#    y 0.000000 1.721320 0.000000 
#    z 0.069950 0.000000 1.705210 
# 
# From -- ./inp_files/152466.got.cif
#   From: 2010.05.17/outbox.cif.g08.bks.cpg/sg15_77_cif.got.tgz:152466.got - 2010.06.03 18:47:42.
