data_PCOD9275132
_publ_section_title
;
Structure prediction by ZEFSAII (Michael W. Deem and Ramdas Pophale) SiO2 
 PCOD9275132
Probable space group: C 2/C
;
_chemical_formula_sum "Si O2"
_cell_formula_units_Z 36
_cell_length_a 7.959182
_cell_length_b 16.043609
_cell_length_c 12.928713
_cell_angle_alpha 90.000000
_cell_angle_beta 83.261850
_cell_angle_gamma 90.000000
_cell_volume 1639.515810
_symmetry_space_group_name_H-M "C 2/C"
_symmetry_group_IT_number 15
_symmetry_cell_setting 'monoclinic'
loop_
_space_group_symop_operation_xyz
x,y,z
-x,y,1/2-z
-x,-y,-z
x,-y,1/2+z
1/2+x,1/2+y,z
1/2-x,1/2+y,1/2-z
1/2-x,1/2-y,-z
1/2+x,1/2-y,1/2+z
loop_
_atom_site_type_symbol
_atom_site_label
_atom_site_fract_x
_atom_site_fract_y
_atom_site_fract_z
Si Si1 0.750460 0.196019 0.604538
Si Si2 0.500000 0.783464 0.750000
Si Si3 0.069422 0.415484 0.370272
Si Si4 0.350247 0.540722 0.681595
Si Si5 0.838865 0.417363 0.912097
O O1 0.750000 0.250000 0.500000
O O2 0.849695 0.236475 0.696193
O O3 0.852401 0.108430 0.589842
O O4 0.556855 0.163385 0.630282
O O5 0.415696 0.841493 0.843239
O O6 0.191217 0.434254 0.266244
O O7 0.176982 0.399883 0.466169
O O8 0.673785 0.549282 0.366271
O O9 0.964166 0.501769 0.394376
O O10 0.500000 0.545053 0.750000
#
# Coordination Sequence:
#
# PCOD9275132 Si02
#       5
#     8   4   8   8   8
#     4  11  22  39  66  95 133 174 219 272 342 394
#     4  12  20  40  66 106 130 172 218 286 328 404
#     4  10  21  41  66  96 129 185 218 269 339 400
#     4  11  23  42  64  97 139 180 221 277 329 401
#     4  10  20  38  69  94 130 174 224 271 333 397
#
# _framework density 21.957702000000001
#
# number of rings (size 3 to 8) (size 9 to 14) (size 15 to 20)
#    0.000    1.333    5.556    2.000    0.000    0.889 
#    0.000    8.889    0.000    0.000    0.000    0.000 
#    0.000    0.000    0.000    0.000    0.000    0.000 
#
# Total GULP energy -100298.757060 kJ/mol
# GULP energy per Si atom -5572.153170 kJ/mol
# Density = 2.190773 g / cm^3
# Si number density = 21.957702 Si / 1000 Ang^3
#
#
#
# Elastic Constant Matrix: (Units=GPa)
#
#
# Indices 1 2 3 4 5 6 
#
# 1 56.0771 25.4366 46.1406 0.0000 23.8389 0.0000
# 2 25.4366 70.4716 32.3940 0.0000 10.8832 0.0000
# 3 46.1406 32.3940 161.8417 0.0000 15.7807 0.0000
# 4 0.0000 0.0000 0.0000 42.0741 0.0000 10.3673
# 5 23.8389 10.8832 15.7807 0.0000 34.4249 0.0000
# 6 0.0000 0.0000 0.0000 10.3673 0.0000 10.0751
#
#
#
# Elastic Compliance Matrix: (Units=1/GPa)
#
#
# Indices 1 2 3 4 5 6 
#
# 1 0.034057 -0.006386 -0.006625 0.000000 -0.018528 0.000000
# 2 -0.006386 0.017282 -0.001609 0.000000 -0.000304 0.000000
# 3 -0.006625 -0.001609 0.008262 0.000000 0.001309 0.000000
# 4 0.000000 0.000000 0.000000 0.031841 0.000000 -0.032764
# 5 -0.018528 -0.000304 0.001309 0.000000 0.041375 0.000000
# 6 0.000000 0.000000 0.000000 -0.032764 0.000000 0.132969
#
#
# Mechanical properties :
#
#
# Convention : Reuss Voigt Hill
#
# Bulk Modulus (GPa) = 32.93688 55.14809 44.04249
# Shear Modulus (GPa) = 16.38566 29.60945 22.99755
#
# Velocity S-wave (km/s) = 2.73470 3.67614 3.23980
# Velocity P-wave (km/s) = 5.00041 6.57182 5.83922
#
# Compressibility (1/GPa) = 0.03036110
#
# Stress axis : x y z
#
# Youngs Moduli (GPa) = 29.36293 57.86505 121.03717
#
# Poissons Ratio (x) = 0.36953 0.80182
# Poissons Ratio (y) = 0.18752 0.19472
# Poissons Ratio (z) = 0.19452 0.09309
#
# Static dielectric constant tensor:
#      x y z
#    x 1.880270 0.000000 0.084750 
#    y 0.000000 1.824910 0.000000 
#    z 0.084750 0.000000 1.858560 
# 
# From -- ./inp_files/135249.got.cif
#   From: 2010.05.17/outbox.cif.g08.bks.cpg/sg15_68_cif.got.tgz:135249.got - 2010.06.03 18:47:42.
