data_PCOD9275171
_publ_section_title
;
Structure prediction by ZEFSAII (Michael W. Deem and Ramdas Pophale) SiO2 
 PCOD9275171
Probable space group: C 2/C
;
_chemical_formula_sum "Si O2"
_cell_formula_units_Z 48
_cell_length_a 9.259260
_cell_length_b 14.422110
_cell_length_c 22.211266
_cell_angle_alpha 90.000000
_cell_angle_beta 40.478755
_cell_angle_gamma 90.000000
_cell_volume 1925.458641
_symmetry_space_group_name_H-M "C 2/C"
_symmetry_group_IT_number 15
_symmetry_cell_setting 'monoclinic'
loop_
_space_group_symop_operation_xyz
x,y,z
-x,y,1/2-z
-x,-y,-z
x,-y,1/2+z
1/2+x,1/2+y,z
1/2-x,1/2+y,1/2-z
1/2-x,1/2-y,-z
1/2+x,1/2-y,1/2+z
loop_
_atom_site_type_symbol
_atom_site_label
_atom_site_fract_x
_atom_site_fract_y
_atom_site_fract_z
Si Si1 0.930464 0.516109 0.202343
Si Si2 0.911415 0.025059 0.384244
Si Si3 0.620115 0.344699 0.055964
Si Si4 0.826318 0.885893 0.038446
Si Si5 0.388536 0.776096 0.721809
Si Si6 0.595348 0.290014 0.654406
O O1 0.664439 0.501538 0.283362
O O2 0.972468 0.623526 0.171123
O O3 0.000000 0.511700 0.250000
O O4 0.095665 0.442613 0.120153
O O5 0.084495 0.920040 0.553373
O O6 0.778887 0.929838 0.437456
O O7 0.820554 0.104137 0.368463
O O8 0.508724 0.395283 0.033761
O O9 0.433438 0.302403 0.159143
O O10 0.750000 0.250000 0.000000
O O11 0.765949 0.778356 0.068906
O O12 0.500000 0.755638 0.750000
O O13 0.128212 0.786609 0.813678
O O14 0.500000 0.261567 0.750000
#
# Coordination Sequence:
#
# PCOD9275171 Si02
#       6
#     8   8   8   8   8   8
#     4  10  20  38  70  97 131 180 240 289 339 411
#     4  11  25  41  68 103 140 182 241 298 349 422
#     4  12  25  40  66 101 140 182 234 300 347 415
#     4  12  23  44  70 104 139 193 242 287 353 440
#     4  10  23  41  68 101 135 177 239 298 349 415
#     4  11  23  45  72 100 141 191 236 289 361 430
#
# _framework density 24.929126
#
# number of rings (size 3 to 8) (size 9 to 14) (size 15 to 20)
#    0.000    1.000    3.333    3.500    7.000    0.667 
#    0.000    0.833    0.000    0.000    0.000    0.000 
#    0.000    0.000    0.000    0.000    0.000    0.000 
#
# Total GULP energy -134099.450722 kJ/mol
# GULP energy per Si atom -5587.477113 kJ/mol
# Density = 2.487239 g / cm^3
# Si number density = 24.929126 Si / 1000 Ang^3
#
#
#
# Elastic Constant Matrix: (Units=GPa)
#
#
# Indices 1 2 3 4 5 6 
#
# 1 45.9491 -17.2169 14.1654 -0.0007 2.4193 0.0002
# 2 -17.2169 117.2955 44.9944 0.0002 0.5245 0.0002
# 3 14.1654 44.9944 93.8398 -0.0013 5.9238 0.0007
# 4 -0.0007 0.0002 -0.0013 49.0013 0.0010 -5.9908
# 5 2.4193 0.5245 5.9238 0.0010 28.6060 -0.0003
# 6 0.0002 0.0002 0.0007 -5.9908 -0.0003 25.0760
#
#
#
# Elastic Compliance Matrix: (Units=1/GPa)
#
#
# Indices 1 2 3 4 5 6 
#
# 1 0.026485 0.006622 -0.007117 0.000000 -0.000888 0.000000
# 2 0.006622 0.012123 -0.006853 0.000000 0.000637 0.000000
# 3 -0.007117 -0.006853 0.015169 0.000000 -0.002414 0.000000
# 4 0.000000 0.000000 0.000000 0.021022 -0.000001 0.005022
# 5 -0.000888 0.000637 -0.002414 -0.000001 0.035521 0.000000
# 6 0.000000 0.000000 0.000000 0.005022 0.000000 0.041079
#
#
# Mechanical properties :
#
#
# Convention : Reuss Voigt Hill
#
# Bulk Modulus (GPa) = 25.58774 37.88557 31.73666
# Shear Modulus (GPa) = 27.91409 34.87943 31.39676
#
# Velocity S-wave (km/s) = 3.34988 3.74457 3.55271
# Velocity P-wave (km/s) = 5.02481 5.82461 5.43943
#
# Compressibility (1/GPa) = 0.03908121
#
# Stress axis : x y z
#
# Youngs Moduli (GPa) = 37.75719 82.48656 65.92474
#
# Poissons Ratio (x) = -0.54619 0.46918
# Poissons Ratio (y) = -0.25001 0.45175
# Poissons Ratio (z) = 0.26871 0.56525
#
# Static dielectric constant tensor:
#      x y z
#    x 1.989050 0.000000 0.016850 
#    y 0.000000 2.111520 0.000000 
#    z 0.016850 0.000000 1.974550 
# 
# From -- ./inp_files/310943.got.cif
#   From: 2010.05.17/outbox.cif.g08.bks.cpg/sg15_156_cif.got.tgz:310943.got - 2010.06.03 18:47:42.
