data_PCOD9275993
_publ_section_title
;
Structure prediction by ZEFSAII (Michael W. Deem and Ramdas Pophale) SiO2 
 PCOD9275993
Probable space group: C 2/C
;
_chemical_formula_sum "Si O2"
_cell_formula_units_Z 48
_cell_length_a 8.113821
_cell_length_b 14.640344
_cell_length_c 18.555239
_cell_angle_alpha 90.000000
_cell_angle_beta 86.126729
_cell_angle_gamma 90.000000
_cell_volume 2199.126185
_symmetry_space_group_name_H-M "C 2/C"
_symmetry_group_IT_number 15
_symmetry_cell_setting 'monoclinic'
loop_
_space_group_symop_operation_xyz
x,y,z
-x,y,1/2-z
-x,-y,-z
x,-y,1/2+z
1/2+x,1/2+y,z
1/2-x,1/2+y,1/2-z
1/2-x,1/2-y,-z
1/2+x,1/2-y,1/2+z
loop_
_atom_site_type_symbol
_atom_site_label
_atom_site_fract_x
_atom_site_fract_y
_atom_site_fract_z
Si Si1 0.463281 0.052574 0.928974
Si Si2 0.648973 0.631756 0.300119
Si Si3 0.376254 0.981616 0.701877
Si Si4 0.065994 0.012900 0.618080
Si Si5 0.881455 0.740819 0.560522
Si Si6 0.117431 0.873779 0.483828
O O1 0.588453 0.136935 0.918393
O O2 0.286835 0.101035 0.939177
O O3 0.500984 0.974758 0.869216
O O4 0.500000 0.000000 0.000000
O O5 0.500000 0.660928 0.250000
O O6 0.808815 0.606502 0.247273
O O7 0.586673 0.536240 0.337379
O O8 0.664825 0.700411 0.366986
O O9 0.500000 0.037752 0.750000
O O10 0.208664 0.021645 0.673042
O O11 0.115781 0.941996 0.552952
O O12 0.015231 0.100393 0.573938
O O13 0.750000 0.750000 0.500000
O O14 0.053597 0.780393 0.521099
#
# Coordination Sequence:
#
# PCOD9275993 Si02
#       6
#     8   8   8   8   8   8
#     4  12  25  41  67 103 136 176 236 280 347 419
#     4   9  21  41  64  91 136 179 225 278 356 405
#     4  11  22  37  65  97 134 176 222 280 343 419
#     4   9  18  36  65  95 125 181 221 275 338 416
#     4  11  25  41  69 101 137 183 234 291 342 415
#     4  10  20  39  66  96 141 170 230 286 339 404
#
# _framework density 21.826851999999999
#
# number of rings (size 3 to 8) (size 9 to 14) (size 15 to 20)
#    0.000    1.667    1.667    2.500    7.000    0.667 
#    0.000    0.000    0.000    1.000    0.000    0.000 
#    0.000    0.000    0.000    0.000    0.000    0.000 
#
# Total GULP energy -133643.773363 kJ/mol
# GULP energy per Si atom -5568.490557 kJ/mol
# Density = 2.177717 g / cm^3
# Si number density = 21.826852 Si / 1000 Ang^3
#
#
#
# Elastic Constant Matrix: (Units=GPa)
#
#
# Indices 1 2 3 4 5 6 
#
# 1 123.2579 26.1834 49.5506 0.0000 -0.5111 0.0000
# 2 26.1834 76.8851 37.0228 0.0000 -0.4047 0.0000
# 3 49.5506 37.0228 157.5471 0.0000 5.1663 0.0000
# 4 0.0000 0.0000 0.0000 35.3063 0.0000 -3.1991
# 5 -0.5111 -0.4047 5.1663 0.0000 50.7219 0.0000
# 6 0.0000 0.0000 0.0000 -3.1991 0.0000 14.6807
#
#
#
# Elastic Compliance Matrix: (Units=1/GPa)
#
#
# Indices 1 2 3 4 5 6 
#
# 1 0.009568 -0.002032 -0.002543 0.000000 0.000339 0.000000
# 2 -0.002032 0.015109 -0.002924 0.000000 0.000398 0.000000
# 3 -0.002543 -0.002924 0.007862 0.000000 -0.000850 0.000000
# 4 0.000000 0.000000 0.000000 0.028894 0.000000 0.006296
# 5 0.000339 0.000398 -0.000850 0.000000 0.019809 0.000000
# 6 0.000000 0.000000 0.000000 0.006296 0.000000 0.069489
#
#
# Mechanical properties :
#
#
# Convention : Reuss Voigt Hill
#
# Bulk Modulus (GPa) = 57.01170 64.80043 60.90606
# Shear Modulus (GPa) = 29.14152 36.47066 32.80609
#
# Velocity S-wave (km/s) = 3.65790 4.09211 3.88108
# Velocity P-wave (km/s) = 6.63453 7.21665 6.93170
#
# Compressibility (1/GPa) = 0.01754026
#
# Stress axis : x y z
#
# Youngs Moduli (GPa) = 104.50981 66.18667 127.19116
#
# Poissons Ratio (x) = 0.13451 0.32344
# Poissons Ratio (y) = 0.21239 0.37195
# Poissons Ratio (z) = 0.26576 0.19355
#
# Static dielectric constant tensor:
#      x y z
#    x 1.870420 0.000000 -0.030780 
#    y 0.000000 1.763190 0.000000 
#    z -0.030780 0.000000 1.853550 
# 
# From -- ./inp_files/189251.got.cif
#   From: 2010.05.17/outbox.cif.g08.bks.cpg/sg15_95_cif.got.tgz:189251.got - 2010.06.03 18:47:42.
