data_PCOD9275080
_publ_section_title
;
Structure prediction by ZEFSAII (Michael W. Deem and Ramdas Pophale) SiO2 
 PCOD9275080
Probable space group: C 2/C
;
_chemical_formula_sum "Si O2"
_cell_formula_units_Z 56
_cell_length_a 20.609625
_cell_length_b 12.777727
_cell_length_c 15.499530
_cell_angle_alpha 90.000000
_cell_angle_beta 38.234591
_cell_angle_gamma 90.000000
_cell_volume 2526.100265
_symmetry_space_group_name_H-M "C 2/C"
_symmetry_group_IT_number 15
_symmetry_cell_setting 'monoclinic'
loop_
_space_group_symop_operation_xyz
x,y,z
-x,y,1/2-z
-x,-y,-z
x,-y,1/2+z
1/2+x,1/2+y,z
1/2-x,1/2+y,1/2-z
1/2-x,1/2-y,-z
1/2+x,1/2-y,1/2+z
loop_
_atom_site_type_symbol
_atom_site_label
_atom_site_fract_x
_atom_site_fract_y
_atom_site_fract_z
Si Si1 0.147090 0.902943 0.629705
Si Si2 0.000000 0.916418 0.250000
Si Si3 0.734323 0.262866 0.778293
Si Si4 0.442219 0.395127 0.582802
Si Si5 0.000000 0.717456 0.750000
Si Si6 0.436105 0.261380 0.162564
Si Si7 0.848567 0.385230 0.510605
Si Si8 0.422141 0.078472 0.529884
O O1 0.099452 0.904350 0.776932
O O2 0.271259 0.897093 0.509489
O O3 0.098251 0.795573 0.646928
O O4 0.096991 0.002685 0.634406
O O5 0.968357 0.842817 0.202942
O O6 0.655968 0.360805 0.872947
O O7 0.812339 0.249863 0.777064
O O8 0.798883 0.300084 0.627046
O O9 0.660424 0.161165 0.840878
O O10 0.500000 0.500000 0.500000
O O11 0.525218 0.306400 0.470716
O O12 0.967725 0.643562 0.862151
O O13 0.499874 0.153769 0.105947
O O14 0.850219 0.498644 0.552309
O O15 0.500000 0.000000 0.500000
#
# Coordination Sequence:
#
# PCOD9275080 Si02
#       8
#     8   4   8   8   4   8   8   8
#     4  10  22  41  65  97 131 173 230 277 338 407
#     4  11  22  39  66  94 142 179 212 279 350 416
#     4  10  23  40  69 101 127 175 230 286 333 401
#     4  10  20  38  68  94 123 170 229 280 326 386
#     4  11  24  41  66 100 136 177 222 283 342 408
#     4  11  22  41  63  95 132 177 222 282 338 407
#     4  11  23  44  68  96 136 180 225 287 340 404
#     4  11  24  42  64  99 133 172 230 286 338 398
#
# _framework density 22.168558999999998
#
# number of rings (size 3 to 8) (size 9 to 14) (size 15 to 20)
#    0.000    1.429    2.857    2.143    6.000    0.571 
#    0.000    9.286    0.000    0.000    0.000    0.000 
#    0.000    0.000    0.000    0.000    0.000    0.000 
#
# Total GULP energy -156078.364205 kJ/mol
# GULP energy per Si atom -5574.227293 kJ/mol
# Density = 2.211810 g / cm^3
# Si number density = 22.168559 Si / 1000 Ang^3
#
#
#
# Elastic Constant Matrix: (Units=GPa)
#
#
# Indices 1 2 3 4 5 6 
#
# 1 84.3663 47.5665 25.2685 0.0000 -32.2760 0.0000
# 2 47.5665 137.2184 49.9201 0.0000 -9.8825 0.0000
# 3 25.2685 49.9201 72.2575 0.0000 -12.4359 0.0000
# 4 0.0000 0.0000 0.0000 38.6918 0.0000 -5.5586
# 5 -32.2760 -9.8825 -12.4359 0.0000 36.0269 0.0000
# 6 0.0000 0.0000 0.0000 -5.5586 0.0000 42.8661
#
#
#
# Elastic Compliance Matrix: (Units=1/GPa)
#
#
# Indices 1 2 3 4 5 6 
#
# 1 0.022574 -0.006386 -0.000323 0.000000 0.018361 0.000000
# 2 -0.006386 0.011545 -0.006573 0.000000 -0.004823 0.000000
# 3 -0.000323 -0.006573 0.019279 0.000000 0.004562 0.000000
# 4 0.000000 0.000000 0.000000 0.026336 0.000000 0.003415
# 5 0.018361 -0.004823 0.004562 0.000000 0.044458 0.000000
# 6 0.000000 0.000000 0.000000 0.003415 0.000000 0.023771
#
#
# Mechanical properties :
#
#
# Convention : Reuss Voigt Hill
#
# Bulk Modulus (GPa) = 37.26432 59.92806 48.59619
# Shear Modulus (GPa) = 27.25219 34.92278 31.08748
#
# Velocity S-wave (km/s) = 3.50997 3.97335 3.74882
# Velocity P-wave (km/s) = 5.76823 6.93841 6.38021
#
# Compressibility (1/GPa) = 0.02683532
#
# Stress axis : x y z
#
# Youngs Moduli (GPa) = 44.29809 86.61632 51.87104
#
# Poissons Ratio (x) = 0.55310 0.01674
# Poissons Ratio (y) = 0.28287 0.34095
# Poissons Ratio (z) = 0.01429 0.56934
#
# Static dielectric constant tensor:
#      x y z
#    x 1.880560 0.000000 -0.016630 
#    y 0.000000 1.872920 0.000000 
#    z -0.016630 0.000000 1.865660 
# 
# From -- ./inp_files/255458.got.cif
#   From: 2010.05.17/outbox.cif.g08.bks.cpg/sg15_128_cif.got.tgz:255458.got - 2010.06.03 18:47:42.
