data_PCOD9275764
_publ_section_title
;
Structure prediction by ZEFSAII (Michael W. Deem and Ramdas Pophale) SiO2 
 PCOD9275764
Probable space group: C 2/C
;
_chemical_formula_sum "Si O2"
_cell_formula_units_Z 40
_cell_length_a 5.059042
_cell_length_b 24.721011
_cell_length_c 18.658627
_cell_angle_alpha 90.000000
_cell_angle_beta 132.997157
_cell_angle_gamma 90.000000
_cell_volume 1706.717941
_symmetry_space_group_name_H-M "C 2/C"
_symmetry_group_IT_number 15
_symmetry_cell_setting 'monoclinic'
loop_
_space_group_symop_operation_xyz
x,y,z
-x,y,1/2-z
-x,-y,-z
x,-y,1/2+z
1/2+x,1/2+y,z
1/2-x,1/2+y,1/2-z
1/2-x,1/2-y,-z
1/2+x,1/2-y,1/2+z
loop_
_atom_site_type_symbol
_atom_site_label
_atom_site_fract_x
_atom_site_fract_y
_atom_site_fract_z
Si Si1 0.292280 0.517872 0.136987
Si Si2 0.882858 0.908081 0.361315
Si Si3 0.068582 0.205826 0.678276
Si Si4 0.408826 0.426136 0.948436
Si Si5 0.069292 0.323770 0.678439
O O1 0.500000 0.528419 0.250000
O O2 0.390549 0.457951 0.128397
O O3 0.422046 0.556979 0.096275
O O4 0.875350 0.528295 0.077629
O O5 0.500000 0.909878 0.250000
O O6 0.064099 0.849668 0.381362
O O7 0.833466 0.914540 0.437006
O O8 0.500000 0.206693 0.750000
O O9 0.946549 0.264519 0.627513
O O10 0.000000 0.202094 0.750000
O O11 0.159461 0.373046 0.894028
O O12 0.500000 0.330913 0.750000
O O13 0.000000 0.322597 0.750000
#
# Coordination Sequence:
#
# PCOD9275764 Si02
#       5
#     8   8   8   8   8
#     4  12  25  44  67  94 127 165 210 265 322 375
#     4  11  25  44  65  93 132 172 212 258 312 376
#     4   9  20  38  62  89 123 168 212 255 309 370
#     4  12  25  41  67  98 128 165 213 260 317 380
#     4  10  20  39  64  92 126 163 209 264 314 366
#
# _framework density 23.436795
#
# number of rings (size 3 to 8) (size 9 to 14) (size 15 to 20)
#    0.000    1.200    0.000    6.600    0.000    7.200 
#    0.000    0.000    0.000   16.800    0.000    0.000 
#    0.000    0.000    0.000    0.000    0.000    0.000 
#
# Total GULP energy -111992.302679 kJ/mol
# GULP energy per Si atom -5599.615134 kJ/mol
# Density = 2.338345 g / cm^3
# Si number density = 23.436795 Si / 1000 Ang^3
#
#
#
# Elastic Constant Matrix: (Units=GPa)
#
#
# Indices 1 2 3 4 5 6 
#
# 1 168.3663 31.8361 45.2241 0.0000 -19.8407 0.0000
# 2 31.8361 199.1733 41.1397 0.0000 -19.5661 0.0000
# 3 45.2241 41.1397 133.1521 0.0000 -28.9698 0.0000
# 4 0.0000 0.0000 0.0000 -24.5270 0.0000 -2.0465
# 5 -19.8407 -19.5661 -28.9698 0.0000 31.6418 0.0000
# 6 0.0000 0.0000 0.0000 -2.0465 0.0000 36.1348
#
#
#
# Elastic Compliance Matrix: (Units=1/GPa)
#
#
# Indices 1 2 3 4 5 6 
#
# 1 0.006755 -0.000507 -0.001604 0.000000 0.002454 0.000000
# 2 -0.000507 0.005532 -0.001076 0.000000 0.002117 0.000000
# 3 -0.001604 -0.001076 0.010020 0.000000 0.007503 0.000000
# 4 0.000000 0.000000 0.000000 -0.040580 0.000000 -0.002298
# 5 0.002454 0.002117 0.007503 0.000000 0.041321 0.000000
# 6 0.000000 0.000000 0.000000 -0.002298 0.000000 0.027544
#
#
# Mechanical properties :
#
#
# Convention : Reuss Voigt Hill
#
# Bulk Modulus (GPa) = 62.76548 81.89903 72.33225
# Shear Modulus (GPa) = 80.28539 34.14938 57.21738
#
# Velocity S-wave (km/s) = 5.85922 3.82132 4.94636
# Velocity P-wave (km/s) = 8.52132 7.38177 7.97193
#
# Compressibility (1/GPa) = 0.01593233
#
# Stress axis : x y z
#
# Youngs Moduli (GPa) = 148.03156 180.76102 99.80296
#
# Poissons Ratio (x) = 0.09173 0.16006
# Poissons Ratio (y) = 0.07512 0.10741
# Poissons Ratio (z) = 0.23740 0.19454
#
# Static dielectric constant tensor:
#      x y z
#    x 1.828850 0.000000 0.017780 
#    y 0.000000 1.989730 0.000000 
#    z 0.017780 0.000000 1.880030 
# 
# From -- ./inp_files/228269.got.cif
#   From: 2010.05.17/outbox.cif.g08.bks.cpg/sg15_115_cif.got.tgz:228269.got - 2010.06.03 18:47:42.
