data_PCOD9275867
_publ_section_title
;
Structure prediction by ZEFSAII (Michael W. Deem and Ramdas Pophale) SiO2 
 PCOD9275867
Probable space group: C 2/C
;
_chemical_formula_sum "Si O2"
_cell_formula_units_Z 64
_cell_length_a 11.828898
_cell_length_b 31.317158
_cell_length_c 16.844634
_cell_angle_alpha 90.000000
_cell_angle_beta 151.260163
_cell_angle_gamma 90.000000
_cell_volume 3000.424484
_symmetry_space_group_name_H-M "C 2/C"
_symmetry_group_IT_number 15
_symmetry_cell_setting 'monoclinic'
loop_
_space_group_symop_operation_xyz
x,y,z
-x,y,1/2-z
-x,-y,-z
x,-y,1/2+z
1/2+x,1/2+y,z
1/2-x,1/2+y,1/2-z
1/2-x,1/2-y,-z
1/2+x,1/2-y,1/2+z
loop_
_atom_site_type_symbol
_atom_site_label
_atom_site_fract_x
_atom_site_fract_y
_atom_site_fract_z
Si Si1 0.107831 0.678099 0.234090
Si Si2 0.752989 0.386537 0.437482
Si Si3 0.261969 0.538522 0.446569
Si Si4 0.403130 0.815218 0.109856
Si Si5 0.516855 0.391899 0.009500
Si Si6 0.275476 0.943656 0.052580
Si Si7 0.964100 0.390786 0.400397
Si Si8 0.078478 0.223661 0.203686
O O1 0.321407 0.645009 0.387311
O O2 0.207005 0.705475 0.218773
O O3 0.000000 0.698616 0.250000
O O4 0.892203 0.648984 0.071697
O O5 0.500000 0.371903 0.250000
O O6 0.726419 0.429277 0.472446
O O7 0.905792 0.395915 0.454745
O O8 0.413908 0.562662 0.474654
O O9 0.334930 0.490493 0.512573
O O10 0.000000 0.537245 0.250000
O O11 0.500000 0.836070 0.250000
O O12 0.393696 0.847985 0.032341
O O13 0.565739 0.774862 0.187862
O O14 0.152071 0.796285 0.978374
O O15 0.615680 0.404468 0.984102
O O16 0.726217 0.384098 0.201544
O O17 0.500000 0.944228 0.250000
O O18 0.388947 0.930885 0.039572
O O19 0.000000 0.216896 0.250000
#
# Coordination Sequence:
#
# PCOD9275867 Si02
#       8
#     8   8   8   8   8   8   8   8
#     4  12  22  39  64  90 124 167 211 245 305 377
#     4  12  23  39  58  81 122 166 200 247 311 357
#     4  11  20  40  58  82 113 160 204 244 307 362
#     4  10  20  39  65  92 124 158 197 248 309 366
#     4  11  19  38  61  84 114 159 200 248 300 366
#     4   9  21  34  60  89 113 149 206 258 293 363
#     4  11  21  37  60  90 117 152 201 249 303 364
#     4  10  22  39  64  95 126 159 200 258 307 360
#
# _framework density 21.330314999999999
#
# number of rings (size 3 to 8) (size 9 to 14) (size 15 to 20)
#    0.000    1.250    3.750    3.750    0.000    0.500 
#    0.000    1.875    0.000    9.000    0.000    0.000 
#    0.000    0.000    0.000    0.000    0.000    0.000 
#
# Total GULP energy -178420.476749 kJ/mol
# GULP energy per Si atom -5575.639898 kJ/mol
# Density = 2.128177 g / cm^3
# Si number density = 21.330315 Si / 1000 Ang^3
#
#
#
# Elastic Constant Matrix: (Units=GPa)
#
#
# Indices 1 2 3 4 5 6 
#
# 1 146.6434 28.1662 -4.5859 0.0000 0.8949 0.0000
# 2 28.1662 82.2434 4.3350 0.0000 13.3770 0.0000
# 3 -4.5859 4.3350 28.0972 0.0000 1.8214 0.0000
# 4 0.0000 0.0000 0.0000 6.1095 0.0000 3.3704
# 5 0.8949 13.3770 1.8214 0.0000 20.5528 0.0000
# 6 0.0000 0.0000 0.0000 3.3704 0.0000 31.1480
#
#
#
# Elastic Compliance Matrix: (Units=1/GPa)
#
#
# Indices 1 2 3 4 5 6 
#
# 1 0.007406 -0.002845 0.001557 0.000000 0.001391 0.000000
# 2 -0.002845 0.014757 -0.002139 0.000000 -0.009292 0.000000
# 3 0.001557 -0.002139 0.036298 0.000000 -0.001892 0.000000
# 4 0.000000 0.000000 0.000000 0.174069 0.000000 -0.018836
# 5 0.001391 -0.009292 -0.001892 0.000000 0.054810 0.000000
# 6 0.000000 0.000000 0.000000 -0.018836 0.000000 0.034143
#
#
# Mechanical properties :
#
#
# Convention : Reuss Voigt Hill
#
# Bulk Modulus (GPa) = 19.37659 34.75720 27.06689
# Shear Modulus (GPa) = 14.47020 26.83331 20.65176
#
# Velocity S-wave (km/s) = 2.60741 3.55066 3.11495
# Velocity P-wave (km/s) = 4.26246 5.75671 5.06499
#
# Compressibility (1/GPa) = 0.05160868
#
# Stress axis : x y z
#
# Youngs Moduli (GPa) = 135.02816 67.76324 27.55003
#
# Poissons Ratio (x) = 0.19276 -0.04291
# Poissons Ratio (y) = 0.38411 0.05892
# Poissons Ratio (z) = -0.21030 0.14493
#
# Static dielectric constant tensor:
#      x y z
#    x 1.857780 0.000000 0.088710 
#    y 0.000000 1.780780 0.000000 
#    z 0.088710 0.000000 2.011490 
# 
# From -- ./inp_files/201494.got.cif
#   From: 2010.05.17/outbox.cif.g08.bks.cpg/sg15_101_cif.got.tgz:201494.got - 2010.06.03 18:47:42.
