data_PCOD9275583
_publ_section_title
;
Structure prediction by ZEFSAII (Michael W. Deem and Ramdas Pophale) SiO2 
 PCOD9275583
Probable space group: C 2/C
;
_chemical_formula_sum "Si O2"
_cell_formula_units_Z 44
_cell_length_a 7.511761
_cell_length_b 11.227876
_cell_length_c 26.306178
_cell_angle_alpha 90.000000
_cell_angle_beta 96.901451
_cell_angle_gamma 90.000000
_cell_volume 2202.616561
_symmetry_space_group_name_H-M "C 2/C"
_symmetry_group_IT_number 15
_symmetry_cell_setting 'monoclinic'
loop_
_space_group_symop_operation_xyz
x,y,z
-x,y,1/2-z
-x,-y,-z
x,-y,1/2+z
1/2+x,1/2+y,z
1/2-x,1/2+y,1/2-z
1/2-x,1/2-y,-z
1/2+x,1/2-y,1/2+z
loop_
_atom_site_type_symbol
_atom_site_label
_atom_site_fract_x
_atom_site_fract_y
_atom_site_fract_z
Si Si1 0.509051 0.296838 0.657994
Si Si2 0.619954 0.044583 0.706520
Si Si3 0.755719 0.182057 0.431123
Si Si4 0.850583 0.623333 0.390189
Si Si5 0.500000 0.519329 0.250000
Si Si6 0.810506 0.555112 0.976148
O O1 0.561087 0.171604 0.683653
O O2 0.642697 0.335153 0.617888
O O3 0.306926 0.286434 0.629561
O O4 0.518266 0.395848 0.701854
O O5 0.500000 0.005529 0.750000
O O6 0.610720 0.953314 0.659182
O O7 0.821992 0.054670 0.733971
O O8 0.539377 0.177742 0.415489
O O9 0.817971 0.312040 0.452934
O O10 0.796509 0.081511 0.475266
O O11 0.761684 0.535855 0.429583
O O12 0.000000 0.500000 0.000000
#
# Coordination Sequence:
#
# PCOD9275583 Si02
#       6
#     8   8   8   8   4   8
#     4  11  22  40  62  90 116 155 204 237 294 360
#     4  11  22  41  62  86 123 157 193 248 294 347
#     4  10  20  39  63  86 121 157 192 248 296 340
#     4  10  22  40  61  88 119 152 199 245 291 354
#     4  10  24  42  60  90 120 154 202 242 294 354
#     4   9  19  39  62  87 121 155 197 244 292 352
#
# _framework density 19.976243
#
# number of rings (size 3 to 8) (size 9 to 14) (size 15 to 20)
#    0.000    1.818    2.727    1.091    0.000    2.182 
#    4.909    8.182    0.000    0.000    0.000    0.000 
#    0.000    0.000    0.000    0.000    0.000    0.000 
#
# Total GULP energy -122723.726256 kJ/mol
# GULP energy per Si atom -5578.351193 kJ/mol
# Density = 1.993078 g / cm^3
# Si number density = 19.976243 Si / 1000 Ang^3
#
#
#
# Elastic Constant Matrix: (Units=GPa)
#
#
# Indices 1 2 3 4 5 6 
#
# 1 96.3044 44.2746 41.3213 0.0000 24.4651 0.0000
# 2 44.2746 63.3867 21.0238 0.0000 19.9717 0.0000
# 3 41.3213 21.0238 101.6664 0.0000 7.9320 0.0000
# 4 0.0000 0.0000 0.0000 4.4397 0.0000 20.8315
# 5 24.4651 19.9717 7.9320 0.0000 22.9138 0.0000
# 6 0.0000 0.0000 0.0000 20.8315 0.0000 -0.3537
#
#
#
# Elastic Compliance Matrix: (Units=1/GPa)
#
#
# Indices 1 2 3 4 5 6 
#
# 1 0.019348 -0.008038 -0.005279 0.000000 -0.011825 0.000000
# 2 -0.008038 0.026083 -0.001051 0.000000 -0.013789 0.000000
# 3 -0.005279 -0.001051 0.012012 0.000000 0.002395 0.000000
# 4 0.000000 0.000000 0.000000 0.000812 0.000000 0.047831
# 5 -0.011825 -0.013789 0.002395 0.000000 0.067456 0.000000
# 6 0.000000 0.000000 0.000000 0.047831 0.000000 -0.010194
#
#
# Mechanical properties :
#
#
# Convention : Reuss Voigt Hill
#
# Bulk Modulus (GPa) = 34.83362 52.73298 43.78330
# Shear Modulus (GPa) = 32.50480 15.71584 24.11032
#
# Velocity S-wave (km/s) = 4.03820 2.80791 3.47789
# Velocity P-wave (km/s) = 6.26244 6.08010 6.17194
#
# Compressibility (1/GPa) = 0.02870790
#
# Stress axis : x y z
#
# Youngs Moduli (GPa) = 51.68504 38.33845 83.24792
#
# Poissons Ratio (x) = 0.30815 0.43948
# Poissons Ratio (y) = 0.41542 0.08751
# Poissons Ratio (z) = 0.27285 0.04030
#
# Static dielectric constant tensor:
#      x y z
#    x 1.703600 0.000000 -0.004290 
#    y 0.000000 1.664590 0.000000 
#    z -0.004290 0.000000 1.748310 
# 
# From -- ./inp_files/304969.got.cif
#   From: 2010.05.17/outbox.cif.g08.bks.cpg/sg15_153_cif.got.tgz:304969.got - 2010.06.03 18:47:42.
