data_PCOD9275511
_publ_section_title
;
Structure prediction by ZEFSAII (Michael W. Deem and Ramdas Pophale) SiO2 
 PCOD9275511
Probable space group: C 2/C
;
_chemical_formula_sum "Si O2"
_cell_formula_units_Z 52
_cell_length_a 18.614497
_cell_length_b 14.705413
_cell_length_c 7.780736
_cell_angle_alpha 90.000000
_cell_angle_beta 110.672470
_cell_angle_gamma 90.000000
_cell_volume 1992.717861
_symmetry_space_group_name_H-M "C 2/C"
_symmetry_group_IT_number 15
_symmetry_cell_setting 'monoclinic'
loop_
_space_group_symop_operation_xyz
x,y,z
-x,y,1/2-z
-x,-y,-z
x,-y,1/2+z
1/2+x,1/2+y,z
1/2-x,1/2+y,1/2-z
1/2-x,1/2-y,-z
1/2+x,1/2-y,1/2+z
loop_
_atom_site_type_symbol
_atom_site_label
_atom_site_fract_x
_atom_site_fract_y
_atom_site_fract_z
Si Si1 0.800803 0.386954 0.433346
Si Si2 0.850089 0.571778 0.581721
Si Si3 0.037144 0.720220 0.954632
Si Si4 0.631232 0.607048 0.664668
Si Si5 0.893177 0.226495 0.495115
Si Si6 0.208517 0.842987 0.897164
Si Si7 0.500000 0.574546 0.750000
O O1 0.847338 0.464274 0.572598
O O2 0.707981 0.394324 0.347560
O O3 0.829839 0.290403 0.527109
O O4 0.827951 0.395728 0.255314
O O5 0.921191 0.629353 0.572682
O O6 0.779848 0.598333 0.394903
O O7 0.000000 0.763441 0.750000
O O8 0.964280 0.706589 0.013401
O O9 0.093141 0.792628 0.093633
O O10 0.666986 0.594870 0.504897
O O11 0.561307 0.539378 0.658999
O O12 0.850785 0.187806 0.293060
O O13 0.936262 0.140671 0.611049
O O14 0.250000 0.750000 0.000000
#
# Coordination Sequence:
#
# PCOD9275511 Si02
#       7
#     8   8   8   8   8   8   4
#     4  11  23  40  57  85 127 165 199 251 305 381
#     4  11  23  36  60  94 121 164 205 244 314 361
#     4  11  17  35  64  92 114 156 213 252 278 367
#     4  10  20  39  62  90 122 154 214 253 309 362
#     4  11  21  38  61  90 125 157 207 255 307 362
#     4  11  17  39  69  87 108 168 228 248 275 375
#     4  10  26  34  58  98 120 156 196 276 326 340
#
# _framework density 26.095013000000002
#
# number of rings (size 3 to 8) (size 9 to 14) (size 15 to 20)
#    0.000    1.231    7.692    0.000    0.000    4.923 
#    1.385    0.000    0.000   14.769    2.000    0.000 
#    0.000    0.000    0.000    0.000    0.000    0.000 
#
# Total GULP energy -145128.743650 kJ/mol
# GULP energy per Si atom -5581.874756 kJ/mol
# Density = 2.603562 g / cm^3
# Si number density = 26.095013 Si / 1000 Ang^3
#
#
#
# Elastic Constant Matrix: (Units=GPa)
#
#
# Indices 1 2 3 4 5 6 
#
# 1 127.3058 13.0291 6.0613 0.0000 19.4108 0.0000
# 2 13.0291 60.5153 19.2269 0.0000 2.3496 0.0000
# 3 6.0613 19.2269 96.2327 0.0000 25.8120 0.0000
# 4 0.0000 0.0000 0.0000 36.5064 0.0000 9.4617
# 5 19.4108 2.3496 25.8120 0.0000 35.0682 0.0000
# 6 0.0000 0.0000 0.0000 9.4617 0.0000 4.3757
#
#
#
# Elastic Compliance Matrix: (Units=1/GPa)
#
#
# Indices 1 2 3 4 5 6 
#
# 1 0.008896 -0.002144 0.001433 0.000000 -0.005835 0.000000
# 2 -0.002144 0.018249 -0.004363 0.000000 0.003175 0.000000
# 3 0.001433 -0.004363 0.014089 0.000000 -0.010871 0.000000
# 4 0.000000 0.000000 0.000000 0.062318 0.000000 -0.134752
# 5 -0.005835 0.003175 -0.010871 0.000000 0.039535 0.000000
# 6 0.000000 0.000000 0.000000 -0.134752 0.000000 0.519917
#
#
# Mechanical properties :
#
#
# Convention : Reuss Voigt Hill
#
# Bulk Modulus (GPa) = 32.16806 40.07650 36.12228
# Shear Modulus (GPa) = 7.31515 31.57249 19.44382
#
# Velocity S-wave (km/s) = 1.67611 3.48214 2.73264
# Velocity P-wave (km/s) = 4.01246 5.61768 4.88151
#
# Compressibility (1/GPa) = 0.03108674
#
# Stress axis : x y z
#
# Youngs Moduli (GPa) = 112.40948 54.79679 70.97851
#
# Poissons Ratio (x) = 0.11749 -0.10173
# Poissons Ratio (y) = 0.24102 0.30966
# Poissons Ratio (z) = -0.16111 0.23907
#
# Static dielectric constant tensor:
#      x y z
#    x 2.271240 0.000000 -0.196940 
#    y 0.000000 2.152050 0.000000 
#    z -0.196940 0.000000 2.194330 
# 
# From -- ./inp_files/49238.got.cif
#   From: 2010.05.17/outbox.cif.g08.bks.cpg/sg15_25_cif.got.tgz:49238.got - 2010.06.03 18:47:42.
