data_PCOD9275464
_publ_section_title
;
Structure prediction by ZEFSAII (Michael W. Deem and Ramdas Pophale) SiO2 
 PCOD9275464
Probable space group: C 2/C
;
_chemical_formula_sum "Si O2"
_cell_formula_units_Z 48
_cell_length_a 16.883698
_cell_length_b 12.139656
_cell_length_c 14.545790
_cell_angle_alpha 90.000000
_cell_angle_beta 41.473429
_cell_angle_gamma 90.000000
_cell_volume 1974.458853
_symmetry_space_group_name_H-M "C 2/C"
_symmetry_group_IT_number 15
_symmetry_cell_setting 'monoclinic'
loop_
_space_group_symop_operation_xyz
x,y,z
-x,y,1/2-z
-x,-y,-z
x,-y,1/2+z
1/2+x,1/2+y,z
1/2-x,1/2+y,1/2-z
1/2-x,1/2-y,-z
1/2+x,1/2-y,1/2+z
loop_
_atom_site_type_symbol
_atom_site_label
_atom_site_fract_x
_atom_site_fract_y
_atom_site_fract_z
Si Si1 0.160544 0.521806 0.925805
Si Si2 0.802727 0.512323 0.819064
Si Si3 0.140458 0.740726 0.706993
Si Si4 0.974655 0.691601 0.171895
Si Si5 0.585089 0.226268 0.470239
Si Si6 0.368480 0.539475 0.383720
O O1 0.197204 0.540298 0.788396
O O2 0.084545 0.407750 0.984654
O O3 0.274269 0.503921 0.891391
O O4 0.085254 0.619814 0.036158
O O5 0.869020 0.613295 0.813224
O O6 0.870397 0.398954 0.776363
O O7 0.674412 0.508506 0.977911
O O8 0.275572 0.748953 0.629155
O O9 0.134070 0.828463 0.631125
O O10 0.031247 0.766495 0.871584
O O11 0.935562 0.761211 0.117690
O O12 0.000000 0.740718 0.250000
O O13 0.500000 0.500177 0.250000
#
# Coordination Sequence:
#
# PCOD9275464 Si02
#       6
#     8   8   8   8   8   8
#     4  10  20  39  62  86 114 161 210 246 283 349
#     4  11  20  36  63  85 117 159 203 250 289 351
#     4  11  21  37  58  86 130 156 191 245 308 368
#     4  11  19  37  67  86 107 155 220 255 273 344
#     4  10  21  37  60  88 120 161 197 243 309 352
#     4  11  24  36  53  94 126 155 193 241 318 365
#
# _framework density 24.310459000000002
#
# number of rings (size 3 to 8) (size 9 to 14) (size 15 to 20)
#    0.000    1.333    5.000    2.500    0.000    2.667 
#    0.000    2.500    0.000    0.000    0.000    0.000 
#    0.000    0.000    0.000    0.000    0.000    0.000 
#
# Total GULP energy -134263.656708 kJ/mol
# GULP energy per Si atom -5594.319030 kJ/mol
# Density = 2.425513 g / cm^3
# Si number density = 24.310459 Si / 1000 Ang^3
#
#
#
# Elastic Constant Matrix: (Units=GPa)
#
#
# Indices 1 2 3 4 5 6 
#
# 1 136.9108 -11.0436 87.0660 0.0000 7.1362 0.0000
# 2 -11.0436 29.5640 17.2217 0.0000 1.5225 0.0000
# 3 87.0660 17.2217 230.4915 0.0000 -0.6756 0.0000
# 4 0.0000 0.0000 0.0000 23.1442 0.0000 2.6178
# 5 7.1362 1.5225 -0.6756 0.0000 35.6840 0.0000
# 6 0.0000 0.0000 0.0000 2.6178 0.0000 7.3038
#
#
#
# Elastic Compliance Matrix: (Units=1/GPa)
#
#
# Indices 1 2 3 4 5 6 
#
# 1 0.010969 0.006951 -0.004670 0.000000 -0.002579 0.000000
# 2 0.006951 0.039856 -0.005613 0.000000 -0.003197 0.000000
# 3 -0.004670 -0.005613 0.006526 0.000000 0.001297 0.000000
# 4 0.000000 0.000000 0.000000 0.045033 0.000000 -0.016140
# 5 -0.002579 -0.003197 0.001297 0.000000 0.028700 0.000000
# 6 0.000000 0.000000 0.000000 -0.016140 0.000000 0.142699
#
#
# Mechanical properties :
#
#
# Convention : Reuss Voigt Hill
#
# Bulk Modulus (GPa) = 19.72933 64.82830 42.27881
# Shear Modulus (GPa) = 16.81556 33.47454 25.14505
#
# Velocity S-wave (km/s) = 2.63287 3.71477 3.21959
# Velocity P-wave (km/s) = 4.16844 6.71744 5.59017
#
# Compressibility (1/GPa) = 0.05068595
#
# Stress axis : x y z
#
# Youngs Moduli (GPa) = 91.16448 25.09054 153.23441
#
# Poissons Ratio (x) = -0.17440 0.71567
# Poissons Ratio (y) = -0.63368 0.86009
# Poissons Ratio (z) = 0.42578 0.14083
#
# Static dielectric constant tensor:
#      x y z
#    x 1.970240 0.000000 0.020670 
#    y 0.000000 2.024280 0.000000 
#    z 0.020670 0.000000 1.955690 
# 
# From -- ./inp_files/162141.got.cif
#   From: 2010.05.17/outbox.cif.g08.bks.cpg/sg15_82_cif.got.tgz:162141.got - 2010.06.03 18:47:42.
