data_PCOD9275260
_publ_section_title
;
Structure prediction by ZEFSAII (Michael W. Deem and Ramdas Pophale) SiO2 
 PCOD9275260
Probable space group: C 2/C
;
_chemical_formula_sum "Si O2"
_cell_formula_units_Z 56
_cell_length_a 6.162447
_cell_length_b 22.327312
_cell_length_c 25.449975
_cell_angle_alpha 90.000000
_cell_angle_beta 57.842794
_cell_angle_gamma 90.000000
_cell_volume 2964.494244
_symmetry_space_group_name_H-M "C 2/C"
_symmetry_group_IT_number 15
_symmetry_cell_setting 'monoclinic'
loop_
_space_group_symop_operation_xyz
x,y,z
-x,y,1/2-z
-x,-y,-z
x,-y,1/2+z
1/2+x,1/2+y,z
1/2-x,1/2+y,1/2-z
1/2-x,1/2-y,-z
1/2+x,1/2-y,1/2+z
loop_
_atom_site_type_symbol
_atom_site_label
_atom_site_fract_x
_atom_site_fract_y
_atom_site_fract_z
Si Si1 0.796583 0.123802 0.694293
Si Si2 0.059799 0.797093 0.417976
Si Si3 0.500000 0.078454 0.250000
Si Si4 0.000000 0.777973 0.250000
Si Si5 0.291776 0.687942 0.061414
Si Si6 0.515584 0.296484 0.851756
Si Si7 0.001117 0.004502 0.187082
Si Si8 0.834035 0.388604 0.654880
O O1 0.500000 0.111554 0.750000
O O2 0.843349 0.148647 0.630090
O O3 0.894429 0.177735 0.718745
O O4 0.969431 0.064492 0.676601
O O5 0.300340 0.753116 0.388442
O O6 0.833044 0.755134 0.422642
O O7 0.964285 0.815890 0.487640
O O8 0.743109 0.038085 0.202236
O O9 0.584331 0.110330 0.293927
O O10 0.229233 0.735791 0.201146
O O11 0.435904 0.676425 0.097198
O O12 0.060146 0.640788 0.091995
O O13 0.406709 0.344813 0.824905
O O14 0.000000 0.005470 0.250000
O O15 0.246679 0.046376 0.144669
#
# Coordination Sequence:
#
# PCOD9275260 Si02
#       8
#     8   8   4   4   8   8   8   8
#     4  12  22  41  61  90 123 158 206 250 307 368
#     4  10  22  39  61  89 120 170 202 245 308 360
#     4  10  20  39  58  88 124 153 200 246 310 354
#     4  12  24  37  60  96 126 155 194 260 310 360
#     4  10  21  40  60  85 127 162 207 249 295 369
#     4  11  22  39  62  90 128 157 200 253 305 372
#     4  10  21  37  61  87 118 161 198 248 311 363
#     4  10  23  39  59  92 120 161 201 250 305 364
#
# _framework density 18.890236000000002
#
# number of rings (size 3 to 8) (size 9 to 14) (size 15 to 20)
#    0.000    1.429    4.286    1.286    0.000    4.571 
#    2.571    0.714    0.000    3.429    0.000    0.000 
#    0.000    0.000    0.000    0.000    0.000    0.000 
#
# Total GULP energy -156229.585220 kJ/mol
# GULP energy per Si atom -5579.628044 kJ/mol
# Density = 1.884724 g / cm^3
# Si number density = 18.890236 Si / 1000 Ang^3
#
#
#
# Elastic Constant Matrix: (Units=GPa)
#
#
# Indices 1 2 3 4 5 6 
#
# 1 92.1898 32.4141 34.0043 0.0000 16.2076 0.0000
# 2 32.4141 81.2166 39.6494 0.0000 11.8660 0.0000
# 3 34.0043 39.6494 104.2414 0.0000 6.6749 0.0000
# 4 0.0000 0.0000 0.0000********** 0.0000**********
# 5 16.2076 11.8660 6.6749 0.0000 11.8670 0.0000
# 6 0.0000 0.0000 0.0000********** 0.0000**********
#
#
#
# Elastic Compliance Matrix: (Units=1/GPa)
#
#
# Indices 1 2 3 4 5 6 
#
# 1 0.015927 -0.002188 -0.003227 0.000000 -0.017750 0.000000
# 2 -0.002188 0.017386 -0.005163 0.000000 -0.011492 0.000000
# 3 -0.003227 -0.005163 0.012445 0.000000 0.002570 0.000000
# 4 0.000000 0.000000 0.000000 0.008882 0.000000 -0.015639
# 5 -0.017750 -0.011492 0.002570 0.000000 0.118555 0.000000
# 6 0.000000 0.000000 0.000000 -0.015639 0.000000 0.027539
#
#
# Mechanical properties :
#
#
# Convention : Reuss Voigt Hill
#
# Bulk Modulus (GPa) = 40.64723 54.42037 47.53380
# Shear Modulus (GPa) = 21.73056 2593786.48575 1296904.10816
#
# Velocity S-wave (km/s) = 3.39537 1173.05753 829.48041
# Velocity P-wave (km/s) = 6.07748 1354.54082 957.81464
#
# Compressibility (1/GPa) = 0.02460192
#
# Stress axis : x y z
#
# Youngs Moduli (GPa) = 62.78528 57.51871 80.35327
#
# Poissons Ratio (x) = 0.12585 0.25928
# Poissons Ratio (y) = 0.13738 0.41488
# Poissons Ratio (z) = 0.20259 0.29698
#
# Static dielectric constant tensor:
#      x y z
#    x 1.715800 0.000000 -0.009050 
#    y 0.000000 1.707960 0.000000 
#    z -0.009050 0.000000 1.629640 
# 
# From -- ./inp_files/286339.got.cif
#   From: 2010.05.17/outbox.cif.g08.bks.cpg/sg15_144_cif.got.tgz:286339.got - 2010.06.03 18:47:42.
