data_PCOD9275872
_publ_section_title
;
Structure prediction by ZEFSAII (Michael W. Deem and Ramdas Pophale) SiO2 
 PCOD9275872
Probable space group: C 2/C
;
_chemical_formula_sum "Si O2"
_cell_formula_units_Z 56
_cell_length_a 9.407012
_cell_length_b 16.608810
_cell_length_c 29.978431
_cell_angle_alpha 90.000000
_cell_angle_beta 35.352314
_cell_angle_gamma 90.000000
_cell_volume 2710.063483
_symmetry_space_group_name_H-M "C 2/C"
_symmetry_group_IT_number 15
_symmetry_cell_setting 'monoclinic'
loop_
_space_group_symop_operation_xyz
x,y,z
-x,y,1/2-z
-x,-y,-z
x,-y,1/2+z
1/2+x,1/2+y,z
1/2-x,1/2+y,1/2-z
1/2-x,1/2-y,-z
1/2+x,1/2-y,1/2+z
loop_
_atom_site_type_symbol
_atom_site_label
_atom_site_fract_x
_atom_site_fract_y
_atom_site_fract_z
Si Si1 0.984531 0.790006 0.066077
Si Si2 0.662136 0.352744 0.638388
Si Si3 0.255151 0.744074 0.783832
Si Si4 0.463409 0.081663 0.981704
Si Si5 0.724245 0.623312 0.802906
Si Si6 0.716621 0.821790 0.044635
Si Si7 0.065394 0.967589 0.183843
O O1 0.784096 0.722210 0.132623
O O2 0.952145 0.861170 0.109847
O O3 0.910624 0.818632 0.035305
O O4 0.250000 0.750000 0.000000
O O5 0.393031 0.325005 0.691688
O O6 0.847014 0.361189 0.548902
O O7 0.653370 0.439829 0.663195
O O8 0.500000 0.756838 0.750000
O O9 0.308255 0.693585 0.725549
O O10 0.045180 0.694910 0.864657
O O11 0.289946 0.096508 0.983025
O O12 0.729400 0.089229 0.891151
O O13 0.500000 0.000000 0.000000
O O14 0.659449 0.542451 0.792501
O O15 0.000000 0.622508 0.750000
O O16 0.750000 0.750000 0.000000
O O17 0.000000 0.940654 0.250000
#
# Coordination Sequence:
#
# PCOD9275872 Si02
#       7
#     8   8   8   8   8   8   8
#     4  11  24  39  68  99 131 171 220 285 343 388
#     4  10  22  42  64  97 130 169 217 278 326 398
#     4  11  23  38  68  98 127 172 225 275 330 396
#     4  10  20  39  65  92 127 169 218 268 321 397
#     4  12  23  40  61  95 134 166 224 276 327 397
#     4  11  20  38  64  96 127 166 226 266 323 402
#     4  11  25  40  69  90 131 183 222 258 343 399
#
# _framework density 20.663720999999999
#
# number of rings (size 3 to 8) (size 9 to 14) (size 15 to 20)
#    0.000    1.143    5.714    3.000    4.000    0.571 
#    0.000    0.000    6.286    5.143    0.000    0.000 
#    0.000    0.000    0.000    0.000    0.000    0.000 
#
# Total GULP energy -156074.060850 kJ/mol
# GULP energy per Si atom -5574.073602 kJ/mol
# Density = 2.061669 g / cm^3
# Si number density = 20.663721 Si / 1000 Ang^3
#
#
#
# Elastic Constant Matrix: (Units=GPa)
#
#
# Indices 1 2 3 4 5 6 
#
# 1 151.7311 25.3768 39.1279 -0.0063 1.5161 0.0026
# 2 25.3768 48.8367 1.5139 0.0045 9.6362 -0.0012
# 3 39.1279 1.5139 96.1438 0.0277 14.5269 0.0006
# 4 -0.0063 0.0045 0.0277 23.2916 0.0050 6.9760
# 5 1.5161 9.6362 14.5269 0.0050 43.8522 -0.0046
# 6 0.0026 -0.0012 0.0006 6.9760 -0.0046 28.2886
#
#
#
# Elastic Compliance Matrix: (Units=1/GPa)
#
#
# Indices 1 2 3 4 5 6 
#
# 1 0.008255 -0.004554 -0.003575 0.000008 0.001899 -0.000002
# 2 -0.004554 0.023930 0.002366 -0.000008 -0.005885 0.000002
# 3 -0.003575 0.002366 0.012504 -0.000016 -0.004539 0.000003
# 4 0.000008 -0.000008 -0.000016 0.046358 0.000000 -0.011432
# 5 0.001899 -0.005885 -0.004539 0.000000 0.025535 0.000004
# 6 -0.000002 0.000002 0.000003 -0.011432 0.000004 0.038169
#
#
# Mechanical properties :
#
#
# Convention : Reuss Voigt Hill
#
# Bulk Modulus (GPa) = 30.15312 47.63877 38.89594
# Shear Modulus (GPa) = 28.19565 34.46599 31.33082
#
# Velocity S-wave (km/s) = 3.69792 4.08848 3.89810
# Velocity P-wave (km/s) = 5.73209 6.73735 6.25495
#
# Compressibility (1/GPa) = 0.03316407
#
# Stress axis : x y z
#
# Youngs Moduli (GPa) = 121.13744 41.78794 79.97128
#
# Poissons Ratio (x) = 0.19028 0.28589
# Poissons Ratio (y) = 0.55160 -0.18917
# Poissons Ratio (z) = 0.43305 -0.09885
#
# Static dielectric constant tensor:
#      x y z
#    x 1.781560 0.000010 -0.000560 
#    y 0.000010 1.795790 0.000000 
#    z -0.000560 0.000000 1.784530 
# 
# From -- ./inp_files/265590.got.cif
#   From: 2010.05.17/outbox.cif.g08.bks.cpg/sg15_133_cif.got.tgz:265590.got - 2010.06.03 18:47:42.
