data_PCOD9275040
_publ_section_title
;
Structure prediction by ZEFSAII (Michael W. Deem and Ramdas Pophale) SiO2 
 PCOD9275040
Probable space group: C 2/C
;
_chemical_formula_sum "Si O2"
_cell_formula_units_Z 28
_cell_length_a 7.187214
_cell_length_b 13.607455
_cell_length_c 11.769762
_cell_angle_alpha 90.000000
_cell_angle_beta 68.221229
_cell_angle_gamma 90.000000
_cell_volume 1068.918931
_symmetry_space_group_name_H-M "C 2/C"
_symmetry_group_IT_number 15
_symmetry_cell_setting 'monoclinic'
loop_
_space_group_symop_operation_xyz
x,y,z
-x,y,1/2-z
-x,-y,-z
x,-y,1/2+z
1/2+x,1/2+y,z
1/2-x,1/2+y,1/2-z
1/2-x,1/2-y,-z
1/2+x,1/2-y,1/2+z
loop_
_atom_site_type_symbol
_atom_site_label
_atom_site_fract_x
_atom_site_fract_y
_atom_site_fract_z
Si Si1 0.000000 0.680059 0.250000
Si Si2 0.704458 0.945060 0.523333
Si Si3 0.114092 0.317749 0.328703
Si Si4 0.566991 0.618078 0.104106
O O1 0.963823 0.606434 0.362457
O O2 0.812029 0.749977 0.261229
O O3 0.692401 0.890010 0.406423
O O4 0.895652 0.915910 0.555445
O O5 0.739156 0.058674 0.482967
O O6 0.000000 0.369459 0.250000
O O7 0.950546 0.235254 0.399904
O O8 0.500000 0.592249 0.250000
#
# Coordination Sequence:
#
# PCOD9275040 Si02
#       4
#     4   8   8   8
#     4  10  20  38  68 102 140 188 242 288 352 442
#     4  10  21  40  70 106 140 190 239 292 364 426
#     4  10  22  42  70 106 143 188 238 296 361 426
#     4   9  19  39  69 102 140 187 230 297 362 412
#
# _framework density 26.194690999999999
#
# number of rings (size 3 to 8) (size 9 to 14) (size 15 to 20)
#    0.000    2.286    0.000    3.429    2.000    1.143 
#    0.000   15.714   28.286    0.000    0.000    0.000 
#    0.000    0.000    0.000    0.000    0.000    0.000 
#
# Total GULP energy -78227.720582 kJ/mol
# GULP energy per Si atom -5587.694327 kJ/mol
# Density = 2.613507 g / cm^3
# Si number density = 26.194691 Si / 1000 Ang^3
#
#
#
# Elastic Constant Matrix: (Units=GPa)
#
#
# Indices 1 2 3 4 5 6 
#
# 1 173.4686 42.8494 82.3602 0.0000 41.8751 0.0000
# 2 42.8494 116.8687 51.3223 0.0000 10.1296 0.0000
# 3 82.3602 51.3223 85.6727 0.0000 20.5120 0.0000
# 4 0.0000 0.0000 0.0000 58.9092 0.0000 25.3909
# 5 41.8751 10.1296 20.5120 0.0000 66.5872 0.0000
# 6 0.0000 0.0000 0.0000 25.3909 0.0000 63.8620
#
#
#
# Elastic Compliance Matrix: (Units=1/GPa)
#
#
# Indices 1 2 3 4 5 6 
#
# 1 0.011634 0.000772 -0.010653 0.000000 -0.004152 0.000000
# 2 0.000772 0.011673 -0.007766 0.000000 0.000131 0.000000
# 3 -0.010653 -0.007766 0.026644 0.000000 -0.000327 0.000000
# 4 0.000000 0.000000 0.000000 0.020486 0.000000 -0.008145
# 5 -0.004152 0.000131 -0.000327 0.000000 0.017710 0.000000
# 6 0.000000 0.000000 0.000000 -0.008145 0.000000 0.018897
#
#
# Mechanical properties :
#
#
# Convention : Reuss Voigt Hill
#
# Bulk Modulus (GPa) = 68.22635 81.00821 74.61728
# Shear Modulus (GPa) = 33.96206 51.17023 42.56614
#
# Velocity S-wave (km/s) = 3.60463 4.42459 4.03549
# Velocity P-wave (km/s) = 6.58991 7.55614 7.08950
#
# Compressibility (1/GPa) = 0.01465709
#
# Stress axis : x y z
#
# Youngs Moduli (GPa) = 85.95427 85.67045 37.53188
#
# Poissons Ratio (x) = -0.06618 0.39982
# Poissons Ratio (y) = -0.06640 0.29149
# Poissons Ratio (z) = 0.91566 0.66535
#
# Static dielectric constant tensor:
#      x y z
#    x 2.070090 0.000000 -0.054960 
#    y 0.000000 2.036160 0.000000 
#    z -0.054960 0.000000 2.160360 
# 
# From -- ./inp_files/75477.got.cif
#   From: 2010.05.17/outbox.cif.g08.bks.cpg/sg15_38_cif.got.tgz:75477.got - 2010.06.03 18:47:42.
