data_PCOD9275902
_publ_section_title
;
Structure prediction by ZEFSAII (Michael W. Deem and Ramdas Pophale) SiO2 
 PCOD9275902
Probable space group: C 2/C
;
_chemical_formula_sum "Si O2"
_cell_formula_units_Z 64
_cell_length_a 29.176433
_cell_length_b 9.426275
_cell_length_c 17.067691
_cell_angle_alpha 90.000000
_cell_angle_beta 38.681150
_cell_angle_gamma 90.000000
_cell_volume 2933.710587
_symmetry_space_group_name_H-M "C 2/C"
_symmetry_group_IT_number 15
_symmetry_cell_setting 'monoclinic'
loop_
_space_group_symop_operation_xyz
x,y,z
-x,y,1/2-z
-x,-y,-z
x,-y,1/2+z
1/2+x,1/2+y,z
1/2-x,1/2+y,1/2-z
1/2-x,1/2-y,-z
1/2+x,1/2-y,1/2+z
loop_
_atom_site_type_symbol
_atom_site_label
_atom_site_fract_x
_atom_site_fract_y
_atom_site_fract_z
Si Si1 0.058090 0.022378 0.850341
Si Si2 0.788503 0.981805 0.779934
Si Si3 0.352443 0.509913 0.528808
Si Si4 0.349570 0.069203 0.602052
Si Si5 0.925406 0.701211 0.949493
Si Si6 0.464782 0.271017 0.373132
Si Si7 0.719273 0.828384 0.146148
Si Si8 0.083994 0.725762 0.725359
O O1 0.139071 0.044302 0.777253
O O2 0.070856 0.886591 0.775324
O O3 0.025065 0.151352 0.845358
O O4 0.000000 0.000000 0.000000
O O5 0.766465 0.836715 0.852946
O O6 0.810497 0.945970 0.660216
O O7 0.720174 0.086896 0.862534
O O8 0.401168 0.638243 0.498894
O O9 0.408071 0.394601 0.421584
O O10 0.293877 0.579961 0.547288
O O11 0.417741 0.161415 0.484690
O O12 0.325462 0.112465 0.720041
O O13 0.371472 0.905746 0.563935
O O14 0.919022 0.702073 0.863457
O O15 0.008635 0.658559 0.858960
O O16 0.500000 0.202164 0.250000
O O17 0.661775 0.830113 0.152251
#
# Coordination Sequence:
#
# PCOD9275902 Si02
#       8
#     8   8   8   8   8   8   8   8
#     4  11  19  39  69  96 122 162 224 270 307 382
#     4  10  20  39  65  95 125 158 218 272 321 370
#     4  11  20  38  63  93 120 164 213 259 316 376
#     4  11  24  41  63  90 130 171 202 264 333 375
#     4  11  22  39  62  90 129 164 203 257 326 381
#     4  12  24  40  62  93 128 172 209 257 324 392
#     4  10  21  40  65  96 121 162 220 270 311 380
#     4  10  22  38  63  94 126 164 215 262 316 379
#
# _framework density 21.815376000000001
#
# number of rings (size 3 to 8) (size 9 to 14) (size 15 to 20)
#    0.000    1.250    5.000    1.500    1.750    1.000 
#    2.250    1.875    0.000    0.000    0.000    0.000 
#    0.000    0.000    0.000    0.000    0.000    0.000 
#
# Total GULP energy -178744.891303 kJ/mol
# GULP energy per Si atom -5585.777853 kJ/mol
# Density = 2.176572 g / cm^3
# Si number density = 21.815376 Si / 1000 Ang^3
#
#
#
# Elastic Constant Matrix: (Units=GPa)
#
#
# Indices 1 2 3 4 5 6 
#
# 1 95.7239 2.0116 -6.3176 0.0024 -17.7586 0.0003
# 2 2.0116 30.0491 5.2860 0.0005 0.6963 -0.0013
# 3 -6.3176 5.2860 47.3090 0.0095 0.7366 -0.0024
# 4 0.0024 0.0005 0.0095 4.1079 -0.0043 -12.5567
# 5 -17.7586 0.6963 0.7366 -0.0043 33.8628 0.0008
# 6 0.0003 -0.0013 -0.0024 -12.5567 0.0008 21.8192
#
#
#
# Elastic Compliance Matrix: (Units=1/GPa)
#
#
# Indices 1 2 3 4 5 6 
#
# 1 0.011716 -0.001209 0.001604 0.000006 0.006134 0.000003
# 2 -0.001209 0.034084 -0.003950 -0.000012 -0.001249 -0.000005
# 3 0.001604 -0.003950 0.021786 0.000058 0.000449 0.000035
# 4 0.000006 -0.000012 0.000058 -0.320688 -0.000034 -0.184552
# 5 0.006134 -0.001249 0.000449 -0.000034 0.032764 -0.000021
# 6 0.000003 -0.000005 0.000035 -0.184552 -0.000021 -0.060376
#
#
# Mechanical properties :
#
#
# Convention : Reuss Voigt Hill
#
# Bulk Modulus (GPa) = 16.53539 19.44909 17.99224
# Shear Modulus (GPa) = -19.72803 23.43145 1.85171
#
# Velocity S-wave (km/s) = -3.01045 3.28087 0.92231
# Velocity P-wave (km/s) = 2.11839 4.82564 3.06588
#
# Compressibility (1/GPa) = 0.06047633
#
# Stress axis : x y z
#
# Youngs Moduli (GPa) = 85.35352 29.33962 45.90058
#
# Poissons Ratio (x) = 0.03546 -0.07363
# Poissons Ratio (y) = 0.10316 0.18132
# Poissons Ratio (z) = -0.13691 0.11590
#
# Static dielectric constant tensor:
#      x y z
#    x 1.820230 0.000000 -0.028340 
#    y 0.000000 1.793980 0.000000 
#    z -0.028340 0.000000 1.817780 
# 
# From -- ./inp_files/224596.got.cif
#   From: 2010.05.17/outbox.cif.g08.bks.cpg/sg15_113_cif.got.tgz:224596.got - 2010.06.03 18:47:42.
