data_PCOD9275463
_publ_section_title
;
Structure prediction by ZEFSAII (Michael W. Deem and Ramdas Pophale) SiO2 
 PCOD9275463
Probable space group: C 2/C
;
_chemical_formula_sum "Si O2"
_cell_formula_units_Z 64
_cell_length_a 9.815486
_cell_length_b 18.632993
_cell_length_c 33.203290
_cell_angle_alpha 90.000000
_cell_angle_beta 146.647199
_cell_angle_gamma 90.000000
_cell_volume 3338.678608
_symmetry_space_group_name_H-M "C 2/C"
_symmetry_group_IT_number 15
_symmetry_cell_setting 'monoclinic'
loop_
_space_group_symop_operation_xyz
x,y,z
-x,y,1/2-z
-x,-y,-z
x,-y,1/2+z
1/2+x,1/2+y,z
1/2-x,1/2+y,1/2-z
1/2-x,1/2-y,-z
1/2+x,1/2-y,1/2+z
loop_
_atom_site_type_symbol
_atom_site_label
_atom_site_fract_x
_atom_site_fract_y
_atom_site_fract_z
Si Si1 0.267609 0.333677 0.961748
Si Si2 0.778259 0.397509 0.302023
Si Si3 0.130095 0.560261 0.163631
Si Si4 0.731531 0.174822 0.950101
Si Si5 0.741138 0.847053 0.541312
Si Si6 0.271712 0.581090 0.798155
Si Si7 0.781834 0.169653 0.558630
Si Si8 0.510286 0.432732 0.824527
O O1 0.202248 0.254793 0.927927
O O2 0.116171 0.394982 0.902372
O O3 0.559899 0.346978 0.030170
O O4 0.201112 0.333017 0.992187
O O5 0.500000 0.402067 0.250000
O O6 0.896954 0.476827 0.332696
O O7 0.769088 0.375403 0.253359
O O8 0.955700 0.348014 0.371532
O O9 0.273795 0.559853 0.155968
O O10 0.289457 0.593029 0.240114
O O11 0.737989 0.260960 0.951078
O O12 0.811032 0.139560 0.012237
O O13 0.448651 0.864206 0.474143
O O14 0.896277 0.884462 0.615164
O O15 0.464388 0.627253 0.871922
O O16 0.412567 0.507705 0.819466
O O17 0.000000 0.567647 0.750000
#
# Coordination Sequence:
#
# PCOD9275463 Si02
#       8
#     8   8   8   8   8   8   8   8
#     4  10  21  39  59  87 120 152 195 248 290 343
#     4  11  21  40  60  82 120 160 193 236 293 356
#     4  10  20  39  62  86 114 156 197 239 292 350
#     4  10  23  38  58  88 123 152 194 246 293 344
#     4  10  21  39  60  87 117 156 196 239 293 352
#     4  11  23  38  57  90 119 149 197 247 293 345
#     4  10  21  38  60  86 118 153 197 242 289 350
#     4  10  21  39  61  85 118 153 197 240 290 354
#
# _framework density 19.169260000000001
#
# number of rings (size 3 to 8) (size 9 to 14) (size 15 to 20)
#    0.000    1.750    3.750    1.500    0.000    5.000 
#    2.250    0.625    0.000    0.000    0.000    0.000 
#    0.000    0.000    0.000    0.000    0.000    0.000 
#
# Total GULP energy -178322.475209 kJ/mol
# GULP energy per Si atom -5572.577350 kJ/mol
# Density = 1.912563 g / cm^3
# Si number density = 19.169260 Si / 1000 Ang^3
#
#
#
# Elastic Constant Matrix: (Units=GPa)
#
#
# Indices 1 2 3 4 5 6 
#
# 1 60.9156 16.6261 12.6202 -0.0012 -0.8803 -0.0003
# 2 16.6261 40.2135 43.1626 0.0001 11.8007 0.0001
# 3 12.6202 43.1626 85.0035 -0.0025 4.7557 -0.0010
# 4 -0.0012 0.0001 -0.0025 33.3874 -0.0017 -1.3528
# 5 -0.8803 11.8007 4.7557 -0.0017 32.4227 -0.0006
# 6 -0.0003 0.0001 -0.0010 -1.3528 -0.0006 15.4606
#
#
#
# Elastic Compliance Matrix: (Units=1/GPa)
#
#
# Indices 1 2 3 4 5 6 
#
# 1 0.019368 -0.013298 0.003606 0.000001 0.004837 0.000001
# 2 -0.013298 0.073409 -0.034065 -0.000005 -0.022083 -0.000005
# 3 0.003606 -0.034065 0.028058 0.000003 0.008381 0.000003
# 4 0.000001 -0.000005 0.000003 0.030058 0.000003 0.002630
# 5 0.004837 -0.022083 0.008381 0.000003 0.037782 0.000003
# 6 0.000001 -0.000005 0.000003 0.002630 0.000003 0.064911
#
#
# Mechanical properties :
#
#
# Convention : Reuss Voigt Hill
#
# Bulk Modulus (GPa) = 30.01134 36.77226 33.39180
# Shear Modulus (GPa) = 14.19622 23.83571 19.01597
#
# Velocity S-wave (km/s) = 2.72430 3.53006 3.15302
# Velocity P-wave (km/s) = 5.05823 5.98663 5.54190
#
# Compressibility (1/GPa) = 0.03332074
#
# Stress axis : x y z
#
# Youngs Moduli (GPa) = 51.63055 13.62233 35.64105
#
# Poissons Ratio (x) = 0.18114 -0.12852
# Poissons Ratio (y) = 0.68656 1.21413
# Poissons Ratio (z) = -0.18618 0.46405
#
# Static dielectric constant tensor:
#      x y z
#    x 1.673100 0.000000 -0.013930 
#    y 0.000000 1.655790 0.000000 
#    z -0.013930 0.000000 1.671690 
# 
# From -- ./inp_files/308790.got.cif
#   From: 2010.05.17/outbox.cif.g08.bks.cpg/sg15_155_cif.got.tgz:308790.got - 2010.06.03 18:47:42.
