data_PCOD9275918
_publ_section_title
;
Structure prediction by ZEFSAII (Michael W. Deem and Ramdas Pophale) SiO2 
 PCOD9275918
Probable space group: C 2/C
;
_chemical_formula_sum "Si O2"
_cell_formula_units_Z 64
_cell_length_a 10.910531
_cell_length_b 9.170900
_cell_length_c 28.695748
_cell_angle_alpha 90.000000
_cell_angle_beta 94.386396
_cell_angle_gamma 90.000000
_cell_volume 2862.868856
_symmetry_space_group_name_H-M "C 2/C"
_symmetry_group_IT_number 15
_symmetry_cell_setting 'monoclinic'
loop_
_space_group_symop_operation_xyz
x,y,z
-x,y,1/2-z
-x,-y,-z
x,-y,1/2+z
1/2+x,1/2+y,z
1/2-x,1/2+y,1/2-z
1/2-x,1/2-y,-z
1/2+x,1/2-y,1/2+z
loop_
_atom_site_type_symbol
_atom_site_label
_atom_site_fract_x
_atom_site_fract_y
_atom_site_fract_z
Si Si1 0.877995 0.783549 0.774570
Si Si2 0.774242 0.108648 0.444158
Si Si3 0.494602 0.848125 0.528714
Si Si4 0.850993 0.871053 0.517924
Si Si5 0.397775 0.815054 0.376578
Si Si6 0.329877 0.103453 0.634597
Si Si7 0.866201 0.460413 0.735558
Si Si8 0.218460 0.391216 0.607127
O O1 0.894263 0.787604 0.830874
O O2 0.865347 0.612259 0.763226
O O3 0.000000 0.833827 0.750000
O O4 0.753303 0.865217 0.757365
O O5 0.641703 0.168111 0.455754
O O6 0.849533 0.233358 0.420561
O O7 0.827597 0.016020 0.488179
O O8 0.749830 0.987367 0.403794
O O9 0.530825 0.714106 0.496720
O O10 0.595250 0.855552 0.573344
O O11 0.500000 0.000000 0.500000
O O12 0.750000 0.750000 0.500000
O O13 0.826223 0.904029 0.571240
O O14 0.538173 0.865777 0.384830
O O15 0.312062 0.958000 0.368515
O O16 0.356360 0.011727 0.681568
O O17 0.260500 0.256928 0.640475
O O18 0.000000 0.390711 0.750000
#
# Coordination Sequence:
#
# PCOD9275918 Si02
#       8
#     8   8   8   8   8   8   8   8
#     4  11  25  48  72 106 144 174 226 293 356 430
#     4  12  23  42  70  98 139 182 233 290 338 406
#     4  11  19  38  69  92 134 188 239 282 338 403
#     4  10  20  39  65  97 132 192 239 274 348 396
#     4  12  27  43  67 107 135 179 234 283 349 417
#     4  12  23  46  69  97 142 176 227 294 342 412
#     4  11  25  47  78 104 137 187 228 285 363 434
#     4  11  24  40  69 100 138 188 233 285 344 406
#
# _framework density 22.355197
#
# number of rings (size 3 to 8) (size 9 to 14) (size 15 to 20)
#    0.000    0.750   10.000    0.000    1.750    2.000 
#    0.000    2.500    0.000    0.000    0.000    0.000 
#    0.000    0.000    0.000    0.000    0.000    0.000 
#
# Total GULP energy -179048.080960 kJ/mol
# GULP energy per Si atom -5595.252530 kJ/mol
# Density = 2.230432 g / cm^3
# Si number density = 22.355197 Si / 1000 Ang^3
#
#
#
# Elastic Constant Matrix: (Units=GPa)
#
#
# Indices 1 2 3 4 5 6 
#
# 1 114.6958 53.9282 40.6229 0.0000 -25.7780 0.0000
# 2 53.9282 60.2318 6.0286 0.0000 -12.9286 0.0000
# 3 40.6229 6.0286 84.1004 0.0000 -12.7428 0.0000
# 4 0.0000 0.0000 0.0000 21.4733 0.0000 4.3146
# 5 -25.7780 -12.9286 -12.7428 0.0000 35.3075 0.0000
# 6 0.0000 0.0000 0.0000 4.3146 0.0000 43.0167
#
#
#
# Elastic Compliance Matrix: (Units=1/GPa)
#
#
# Indices 1 2 3 4 5 6 
#
# 1 0.020528 -0.016264 -0.007808 0.000000 0.006214 0.000000
# 2 -0.016264 0.030913 0.005877 0.000000 0.001566 0.000000
# 3 -0.007808 0.005877 0.015554 0.000000 0.002065 0.000000
# 4 0.000000 0.000000 0.000000 0.047527 0.000000 -0.004767
# 5 0.006214 0.001566 0.002065 0.000000 0.034178 0.000000
# 6 0.000000 0.000000 0.000000 -0.004767 0.000000 0.023725
#
#
# Mechanical properties :
#
#
# Convention : Reuss Voigt Hill
#
# Bulk Modulus (GPa) = 32.67531 51.13193 41.90362
# Shear Modulus (GPa) = 22.82938 30.52272 26.67605
#
# Velocity S-wave (km/s) = 3.19911 3.69908 3.45814
# Velocity P-wave (km/s) = 5.31920 6.41610 5.89323
#
# Compressibility (1/GPa) = 0.03060415
#
# Stress axis : x y z
#
# Youngs Moduli (GPa) = 48.71387 32.34934 64.29347
#
# Poissons Ratio (x) = 0.52614 0.50202
# Poissons Ratio (y) = 0.79230 -0.37788
# Poissons Ratio (z) = 0.38037 -0.19013
#
# Static dielectric constant tensor:
#      x y z
#    x 1.868150 0.000000 0.018790 
#    y 0.000000 1.815010 0.000000 
#    z 0.018790 0.000000 1.874830 
# 
# From -- ./inp_files/310324.got.cif
#   From: 2010.05.17/outbox.cif.g08.bks.cpg/sg15_156_cif.got.tgz:310324.got - 2010.06.03 18:47:42.
