data_PCOD9275852
_publ_section_title
;
Structure prediction by ZEFSAII (Michael W. Deem and Ramdas Pophale) SiO2 
 PCOD9275852
Probable space group: C 2/C
;
_chemical_formula_sum "Si O2"
_cell_formula_units_Z 40
_cell_length_a 11.150705
_cell_length_b 11.226282
_cell_length_c 12.833657
_cell_angle_alpha 90.000000
_cell_angle_beta 101.549055
_cell_angle_gamma 90.000000
_cell_volume 1574.003134
_symmetry_space_group_name_H-M "C 2/C"
_symmetry_group_IT_number 15
_symmetry_cell_setting 'monoclinic'
loop_
_space_group_symop_operation_xyz
x,y,z
-x,y,1/2-z
-x,-y,-z
x,-y,1/2+z
1/2+x,1/2+y,z
1/2-x,1/2+y,1/2-z
1/2-x,1/2-y,-z
1/2+x,1/2-y,1/2+z
loop_
_atom_site_type_symbol
_atom_site_label
_atom_site_fract_x
_atom_site_fract_y
_atom_site_fract_z
Si Si1 0.560036 0.125768 0.476956
Si Si2 0.207307 0.988294 0.513879
Si Si3 0.032945 0.044846 0.642479
Si Si4 0.101452 0.232747 0.192068
Si Si5 0.202992 0.305382 0.602086
O O1 0.606376 0.194390 0.587217
O O2 0.443461 0.195337 0.410433
O O3 0.500000 0.000000 0.500000
O O4 0.681021 0.094918 0.431720
O O5 0.255138 0.059124 0.421090
O O6 0.083997 0.929131 0.449570
O O7 0.157752 0.070317 0.600549
O O8 0.051312 0.900650 0.659767
O O9 0.000000 0.092754 0.750000
O O10 0.222858 0.226090 0.281836
O O11 0.000000 0.291241 0.250000
O O12 0.250000 0.250000 0.500000
#
# Coordination Sequence:
#
# PCOD9275852 Si02
#       5
#     8   8   8   8   8
#     4  10  23  40  62 103 140 171 231 300 343 404
#     4  10  21  38  62  96 134 169 229 297 337 397
#     4  10  20  39  65  90 126 183 236 275 345 423
#     4  11  20  40  67  91 132 193 238 266 350 436
#     4  11  20  39  65  96 134 187 229 276 356 427
#
# _framework density 25.412911000000001
#
# number of rings (size 3 to 8) (size 9 to 14) (size 15 to 20)
#    0.000    1.600    6.000    0.000    0.000    2.400 
#    0.000    1.000    0.000    0.000    0.000    0.000 
#    0.000    0.000    0.000    0.000    0.000    0.000 
#
# Total GULP energy -111744.301189 kJ/mol
# GULP energy per Si atom -5587.215059 kJ/mol
# Density = 2.535507 g / cm^3
# Si number density = 25.412911 Si / 1000 Ang^3
#
#
#
# Elastic Constant Matrix: (Units=GPa)
#
#
# Indices 1 2 3 4 5 6 
#
# 1 230.7155 29.6823 94.4845 0.0000 30.5873 0.0000
# 2 29.6823 57.1518 27.9405 0.0000 14.6222 0.0000
# 3 94.4845 27.9405 165.1237 0.0000 21.0020 0.0000
# 4 0.0000 0.0000 0.0000 21.9507 0.0000 -2.9422
# 5 30.5873 14.6222 21.0020 0.0000 41.8965 0.0000
# 6 0.0000 0.0000 0.0000 -2.9422 0.0000 48.8710
#
#
#
# Elastic Compliance Matrix: (Units=1/GPa)
#
#
# Indices 1 2 3 4 5 6 
#
# 1 0.006009 -0.001031 -0.002939 0.000000 -0.002554 0.000000
# 2 -0.001031 0.020460 -0.002200 0.000000 -0.005286 0.000000
# 3 -0.002939 -0.002200 0.008267 0.000000 -0.001230 0.000000
# 4 0.000000 0.000000 0.000000 0.045927 0.000000 0.002765
# 5 -0.002554 -0.005286 -0.001230 0.000000 0.028194 0.000000
# 6 0.000000 0.000000 0.000000 0.002765 0.000000 0.020628
#
#
# Mechanical properties :
#
#
# Convention : Reuss Voigt Hill
#
# Bulk Modulus (GPa) = 44.65000 84.13395 64.39198
# Shear Modulus (GPa) = 33.49144 42.60256 38.04700
#
# Velocity S-wave (km/s) = 3.63421 4.09885 3.87350
# Velocity P-wave (km/s) = 5.93447 7.45516 6.73785
#
# Compressibility (1/GPa) = 0.02239641
#
# Stress axis : x y z
#
# Youngs Moduli (GPa) = 166.40995 48.87486 120.96732
#
# Poissons Ratio (x) = 0.05037 0.35556
# Poissons Ratio (y) = 0.17149 0.26615
# Poissons Ratio (z) = 0.48913 0.10753
#
# Static dielectric constant tensor:
#      x y z
#    x 2.114300 0.000000 -0.058120 
#    y 0.000000 2.260920 0.000000 
#    z -0.058120 0.000000 1.938880 
# 
# From -- ./inp_files/86262.got.cif
#   From: 2010.05.17/outbox.cif.g08.bks.cpg/sg15_44_cif.got.tgz:86262.got - 2010.06.03 18:47:42.
