data_PCOD9275021
_publ_section_title
;
Structure prediction by ZEFSAII (Michael W. Deem and Ramdas Pophale) SiO2 
 PCOD9275021
Probable space group: C 2/C
;
_chemical_formula_sum "Si O2"
_cell_formula_units_Z 60
_cell_length_a 13.212567
_cell_length_b 19.368754
_cell_length_c 11.383580
_cell_angle_alpha 90.000000
_cell_angle_beta 114.571588
_cell_angle_gamma 90.000000
_cell_volume 2649.372104
_symmetry_space_group_name_H-M "C 2/C"
_symmetry_group_IT_number 15
_symmetry_cell_setting 'monoclinic'
loop_
_space_group_symop_operation_xyz
x,y,z
-x,y,1/2-z
-x,-y,-z
x,-y,1/2+z
1/2+x,1/2+y,z
1/2-x,1/2+y,1/2-z
1/2-x,1/2-y,-z
1/2+x,1/2-y,1/2+z
loop_
_atom_site_type_symbol
_atom_site_label
_atom_site_fract_x
_atom_site_fract_y
_atom_site_fract_z
Si Si1 0.895569 0.152568 0.344277
Si Si2 0.359953 0.632317 0.079119
Si Si3 0.701459 0.954184 0.800247
Si Si4 0.726965 0.483311 0.402125
Si Si5 0.147321 0.800635 0.160584
Si Si6 0.965180 0.339219 0.858217
Si Si7 0.500000 0.395556 0.250000
Si Si8 0.170651 0.283166 0.060824
O O1 0.866202 0.177702 0.198862
O O2 0.802999 0.100154 0.342006
O O3 0.900605 0.219541 0.425537
O O4 0.012589 0.114629 0.391838
O O5 0.300901 0.563173 0.087997
O O6 0.314284 0.669353 0.944230
O O7 0.596222 0.910310 0.701177
O O8 0.724563 0.013165 0.710308
O O9 0.702292 0.968535 0.942332
O O10 0.609232 0.440666 0.341175
O O11 0.115004 0.720028 0.130446
O O12 0.245763 0.808018 0.300727
O O13 0.047376 0.846377 0.169368
O O14 0.000000 0.307614 0.750000
O O15 0.081956 0.340810 0.981945
O O16 0.250000 0.250000 0.000000
#
# Coordination Sequence:
#
# PCOD9275021 Si02
#       8
#     8   8   8   8   8   8   4   8
#     4  10  20  38  67  98 141 178 219 284 357 416
#     4  10  22  40  64 101 139 185 227 280 354 415
#     4  11  24  45  72  98 142 187 238 296 349 423
#     4  11  25  45  68 104 140 192 238 289 352 415
#     4  12  23  38  67 107 134 172 230 288 347 416
#     4  12  24  43  70 101 138 183 225 291 356 416
#     4  12  24  38  74 106 142 172 238 298 342 426
#     4  12  23  40  65 103 136 172 228 278 356 417
#
# _framework density 22.646874
#
# number of rings (size 3 to 8) (size 9 to 14) (size 15 to 20)
#    0.000    0.800    4.667    3.200    3.733    2.133 
#    0.000    0.667    0.000    0.000    0.000    0.000 
#    0.000    0.000    0.000    0.000    0.000    0.000 
#
# Total GULP energy -167413.052237 kJ/mol
# GULP energy per Si atom -5580.435075 kJ/mol
# Density = 2.259533 g / cm^3
# Si number density = 22.646874 Si / 1000 Ang^3
#
#
#
# Elastic Constant Matrix: (Units=GPa)
#
#
# Indices 1 2 3 4 5 6 
#
# 1 47.6141 16.5640 31.5217 0.0000 15.4265 0.0000
# 2 16.5640 64.0672 42.0763 0.0000 -0.0279 0.0000
# 3 31.5217 42.0763 182.1436 0.0000 10.6848 0.0000
# 4 0.0000 0.0000 0.0000 38.6363 0.0000 6.1560
# 5 15.4265 -0.0279 10.6848 0.0000 38.1931 0.0000
# 6 0.0000 0.0000 0.0000 6.1560 0.0000 29.4455
#
#
#
# Elastic Compliance Matrix: (Units=1/GPa)
#
#
# Indices 1 2 3 4 5 6 
#
# 1 0.028299 -0.005319 -0.003048 0.000000 -0.010581 0.000000
# 2 -0.005319 0.019456 -0.003763 0.000000 0.003215 0.000000
# 3 -0.003048 -0.003763 0.006928 0.000000 -0.000710 0.000000
# 4 0.000000 0.000000 0.000000 0.026774 0.000000 -0.005598
# 5 -0.010581 0.003215 -0.000710 0.000000 0.030657 0.000000
# 6 0.000000 0.000000 0.000000 -0.005598 0.000000 0.035131
#
#
# Mechanical properties :
#
#
# Convention : Reuss Voigt Hill
#
# Bulk Modulus (GPa) = 32.86883 52.68322 42.77603
# Shear Modulus (GPa) = 27.52588 34.83252 31.17920
#
# Velocity S-wave (km/s) = 3.49010 3.92608 3.71449
# Velocity P-wave (km/s) = 5.54853 6.62311 6.10949
#
# Compressibility (1/GPa) = 0.03042396
#
# Stress axis : x y z
#
# Youngs Moduli (GPa) = 35.33744 51.39712 144.33206
#
# Poissons Ratio (x) = 0.27340 0.43990
# Poissons Ratio (y) = 0.18797 0.54306
# Poissons Ratio (z) = 0.10770 0.19339
#
# Static dielectric constant tensor:
#      x y z
#    x 1.859670 0.000000 0.014440 
#    y 0.000000 1.835690 0.000000 
#    z 0.014440 0.000000 1.926440 
# 
# From -- ./inp_files/99838.got.cif
#   From: 2010.05.17/outbox.cif.g08.bks.cpg/sg15_50_cif.got.tgz:99838.got - 2010.06.03 18:47:42.
