data_PCOD9275104
_publ_section_title
;
Structure prediction by ZEFSAII (Michael W. Deem and Ramdas Pophale) SiO2 
 PCOD9275104
Probable space group: C 2/C
;
_chemical_formula_sum "Si O2"
_cell_formula_units_Z 44
_cell_length_a 5.511173
_cell_length_b 24.738382
_cell_length_c 14.768404
_cell_angle_alpha 90.000000
_cell_angle_beta 112.452095
_cell_angle_gamma 90.000000
_cell_volume 1860.863316
_symmetry_space_group_name_H-M "C 2/C"
_symmetry_group_IT_number 15
_symmetry_cell_setting 'monoclinic'
loop_
_space_group_symop_operation_xyz
x,y,z
-x,y,1/2-z
-x,-y,-z
x,-y,1/2+z
1/2+x,1/2+y,z
1/2-x,1/2+y,1/2-z
1/2-x,1/2-y,-z
1/2+x,1/2-y,1/2+z
loop_
_atom_site_type_symbol
_atom_site_label
_atom_site_fract_x
_atom_site_fract_y
_atom_site_fract_z
Si Si1 0.860105 0.344091 0.132424
Si Si2 0.475613 0.937011 0.884261
Si Si3 0.000000 0.877850 0.750000
Si Si4 0.362462 0.287843 0.129458
Si Si5 0.771246 0.667614 0.140105
Si Si6 0.748471 0.961228 0.448687
O O1 0.597359 0.308055 0.098661
O O2 0.750424 0.404356 0.100830
O O3 0.000000 0.342104 0.250000
O O4 0.093197 0.323030 0.098921
O O5 0.680489 0.887061 0.909523
O O6 0.245252 0.916879 0.787412
O O7 0.567763 0.996111 0.870533
O O8 0.366824 0.945462 0.969649
O O9 0.991213 0.841348 0.838125
O O10 0.500000 0.289450 0.250000
O O11 0.289479 0.225734 0.098739
O O12 0.000000 0.669958 0.250000
O O13 0.000000 0.000000 0.500000
#
# Coordination Sequence:
#
# PCOD9275104 Si02
#       6
#     8   8   4   8   8   8
#     4  10  23  41  66  96 127 172 215 263 322 393
#     4  10  23  40  63  94 123 168 214 268 325 376
#     4  10  20  38  68  98 124 158 220 256 328 388
#     4   9  20  38  64  96 131 162 213 266 324 385
#     4   9  19  35  64  95 125 161 206 267 319 384
#     4  11  25  43  63  85 133 172 217 271 325 376
#
# _framework density 23.644938
#
# number of rings (size 3 to 8) (size 9 to 14) (size 15 to 20)
#    0.000    2.182    0.000    1.091   14.000    3.636 
#    1.636    1.818    0.000    0.000    0.000    0.000 
#    0.000    0.000    0.000    0.000    0.000    0.000 
#
# Total GULP energy -122815.972536 kJ/mol
# GULP energy per Si atom -5582.544206 kJ/mol
# Density = 2.359112 g / cm^3
# Si number density = 23.644938 Si / 1000 Ang^3
#
#
#
# Elastic Constant Matrix: (Units=GPa)
#
#
# Indices 1 2 3 4 5 6 
#
# 1 129.1646 83.7034 27.9334 0.0000 -7.3216 0.0000
# 2 83.7034 214.0018 36.4427 0.0000 -4.8450 0.0000
# 3 27.9334 36.4427 48.4625 0.0000 0.6056 0.0000
# 4 0.0000 0.0000 0.0000 42.4175 0.0000 -6.6085
# 5 -7.3216 -4.8450 0.6056 0.0000 31.9723 0.0000
# 6 0.0000 0.0000 0.0000 -6.6085 0.0000 32.5180
#
#
#
# Elastic Compliance Matrix: (Units=1/GPa)
#
#
# Indices 1 2 3 4 5 6 
#
# 1 0.011000 -0.003638 -0.003630 0.000000 0.002036 0.000000
# 2 -0.003638 0.006588 -0.002860 0.000000 0.000219 0.000000
# 3 -0.003630 -0.002860 0.024899 0.000000 -0.001736 0.000000
# 4 0.000000 0.000000 0.000000 0.024346 0.000000 0.004948
# 5 0.002036 0.000219 -0.001736 0.000000 0.031810 0.000000
# 6 0.000000 0.000000 0.000000 0.004948 0.000000 0.031758
#
#
# Mechanical properties :
#
#
# Convention : Reuss Voigt Hill
#
# Bulk Modulus (GPa) = 44.98176 76.42089 60.70132
# Shear Modulus (GPa) = 31.63229 37.61820 34.62525
#
# Velocity S-wave (km/s) = 3.66157 3.99301 3.83088
# Velocity P-wave (km/s) = 6.07793 7.32456 6.73017
#
# Compressibility (1/GPa) = 0.02223123
#
# Stress axis : x y z
#
# Youngs Moduli (GPa) = 90.90670 151.79448 40.16252
#
# Poissons Ratio (x) = 0.55228 0.14579
# Poissons Ratio (y) = 0.33075 0.11485
# Poissons Ratio (z) = 0.32999 0.43407
#
# Static dielectric constant tensor:
#      x y z
#    x 2.045590 0.000000 -0.037440 
#    y 0.000000 1.864340 0.000000 
#    z -0.037440 0.000000 2.029930 
# 
# From -- ./inp_files/184804.got.cif
#   From: 2010.05.17/outbox.cif.g08.bks.cpg/sg15_93_cif.got.tgz:184804.got - 2010.06.03 18:47:42.
