data_PCOD9275460
_publ_section_title
;
Structure prediction by ZEFSAII (Michael W. Deem and Ramdas Pophale) SiO2 
 PCOD9275460
Probable space group: C 2/C
;
_chemical_formula_sum "Si O2"
_cell_formula_units_Z 48
_cell_length_a 21.198115
_cell_length_b 12.495554
_cell_length_c 12.965290
_cell_angle_alpha 90.000000
_cell_angle_beta 40.910529
_cell_angle_gamma 90.000000
_cell_volume 2249.036610
_symmetry_space_group_name_H-M "C 2/C"
_symmetry_group_IT_number 15
_symmetry_cell_setting 'monoclinic'
loop_
_space_group_symop_operation_xyz
x,y,z
-x,y,1/2-z
-x,-y,-z
x,-y,1/2+z
1/2+x,1/2+y,z
1/2-x,1/2+y,1/2-z
1/2-x,1/2-y,-z
1/2+x,1/2-y,1/2+z
loop_
_atom_site_type_symbol
_atom_site_label
_atom_site_fract_x
_atom_site_fract_y
_atom_site_fract_z
Si Si1 0.887025 0.817651 0.870242
Si Si2 0.736698 0.357167 0.269789
Si Si3 0.742714 0.324099 0.909511
Si Si4 0.808871 0.978829 0.374586
Si Si5 0.107675 0.541447 0.381436
Si Si6 0.391617 0.082623 0.893826
O O1 0.875325 0.692993 0.853154
O O2 0.000000 0.831205 0.750000
O O3 0.855286 0.904560 0.825337
O O4 0.825759 0.837072 0.050637
O O5 0.778966 0.249949 0.162699
O O6 0.676309 0.414456 0.250343
O O7 0.821463 0.439921 0.194176
O O8 0.844705 0.379723 0.759124
O O9 0.750000 0.250000 0.000000
O O10 0.670678 0.414882 0.043718
O O11 0.694107 0.001745 0.519399
O O12 0.112989 0.608367 0.479931
O O13 0.000000 0.500000 0.500000
O O14 0.500000 0.039544 0.750000
#
# Coordination Sequence:
#
# PCOD9275460 Si02
#       6
#     8   8   8   8   8   8
#     4  11  22  38  59  87 125 164 208 247 304 378
#     4  10  22  40  62  90 121 163 205 258 318 372
#     4  10  20  39  62  85 123 162 201 256 317 369
#     4  10  21  39  62  85 121 162 199 259 313 369
#     4  11  21  38  66  95 124 160 211 264 318 379
#     4  10  21  36  58  91 123 155 203 255 310 374
#
# _framework density 21.342472000000001
#
# number of rings (size 3 to 8) (size 9 to 14) (size 15 to 20)
#    0.000    1.667    3.333    1.500    0.000    0.667 
#    0.000    3.333    0.000    1.000    0.000    0.000 
#    0.000    0.000    0.000    0.000    0.000    0.000 
#
# Total GULP energy -133788.624175 kJ/mol
# GULP energy per Si atom -5574.526007 kJ/mol
# Density = 2.129390 g / cm^3
# Si number density = 21.342472 Si / 1000 Ang^3
#
#
#
# Elastic Constant Matrix: (Units=GPa)
#
#
# Indices 1 2 3 4 5 6 
#
# 1 44.8356 19.3435 22.8939 0.0000 11.1286 0.0000
# 2 19.3435 55.3649 0.4436 0.0000 -8.0881 0.0000
# 3 22.8939 0.4436 73.9667 0.0000 -3.6035 0.0000
# 4 0.0000 0.0000 0.0000 24.6522 0.0000 14.3260
# 5 11.1286 -8.0881 -3.6035 0.0000 22.2429 0.0000
# 6 0.0000 0.0000 0.0000 14.3260 0.0000 24.2988
#
#
#
# Elastic Compliance Matrix: (Units=1/GPa)
#
#
# Indices 1 2 3 4 5 6 
#
# 1 0.049368 -0.022306 -0.016878 0.000000 -0.035545 0.000000
# 2 -0.022306 0.029157 0.007851 0.000000 0.023034 0.000000
# 3 -0.016878 0.007851 0.019400 0.000000 0.014442 0.000000
# 4 0.000000 0.000000 0.000000 0.061706 0.000000 -0.036381
# 5 -0.035545 0.023034 0.014442 0.000000 0.073458 0.000000
# 6 0.000000 0.000000 0.000000 -0.036381 0.000000 0.062604
#
#
# Mechanical properties :
#
#
# Convention : Reuss Voigt Hill
#
# Bulk Modulus (GPa) = 28.36040 28.83655 28.59847
# Shear Modulus (GPa) = 13.50947 23.00452 18.25700
#
# Velocity S-wave (km/s) = 2.51865 3.28666 2.92795
# Velocity P-wave (km/s) = 4.66639 5.28617 4.98592
#
# Compressibility (1/GPa) = 0.03526043
#
# Stress axis : x y z
#
# Youngs Moduli (GPa) = 20.25609 34.29677 51.54603
#
# Poissons Ratio (x) = 0.76501 0.87000
# Poissons Ratio (y) = 0.45183 -0.40470
# Poissons Ratio (z) = 0.34188 -0.26927
#
# Static dielectric constant tensor:
#      x y z
#    x 1.810790 0.000000 0.057160 
#    y 0.000000 1.874330 0.000000 
#    z 0.057160 0.000000 1.774850 
# 
# From -- ./inp_files/173591.got.cif
#   From: 2010.05.17/outbox.cif.g08.bks.cpg/sg15_87_cif.got.tgz:173591.got - 2010.06.03 18:47:42.
