data_PCOD9275017
_publ_section_title
;
Structure prediction by ZEFSAII (Michael W. Deem and Ramdas Pophale) SiO2 
 PCOD9275017
Probable space group: C 2/C
;
_chemical_formula_sum "Si O2"
_cell_formula_units_Z 48
_cell_length_a 7.781737
_cell_length_b 25.633410
_cell_length_c 11.525273
_cell_angle_alpha 90.000000
_cell_angle_beta 56.477211
_cell_angle_gamma 90.000000
_cell_volume 1916.577398
_symmetry_space_group_name_H-M "C 2/C"
_symmetry_group_IT_number 15
_symmetry_cell_setting 'monoclinic'
loop_
_space_group_symop_operation_xyz
x,y,z
-x,y,1/2-z
-x,-y,-z
x,-y,1/2+z
1/2+x,1/2+y,z
1/2-x,1/2+y,1/2-z
1/2-x,1/2-y,-z
1/2+x,1/2-y,1/2+z
loop_
_atom_site_type_symbol
_atom_site_label
_atom_site_fract_x
_atom_site_fract_y
_atom_site_fract_z
Si Si1 0.644250 0.677784 0.871512
Si Si2 0.750221 0.478566 0.844735
Si Si3 0.875347 0.291012 0.680763
Si Si4 0.208694 0.643857 0.921841
Si Si5 0.043073 0.873226 0.863380
Si Si6 0.265982 0.980398 0.089617
O O1 0.666227 0.739559 0.878486
O O2 0.413187 0.667088 0.907132
O O3 0.792202 0.660630 0.712321
O O4 0.649246 0.642585 0.984685
O O5 0.679427 0.418505 0.867908
O O6 0.684319 0.505069 0.747977
O O7 0.000000 0.479838 0.750000
O O8 0.684664 0.501548 0.994934
O O9 0.671710 0.320161 0.798628
O O10 0.000000 0.274619 0.750000
O O11 0.014254 0.332620 0.560799
O O12 0.229304 0.581952 0.918031
O O13 0.000000 0.891971 0.750000
O O14 0.500000 0.000000 0.000000
#
# Coordination Sequence:
#
# PCOD9275017 Si02
#       6
#     8   8   8   8   8   8
#     4  11  23  39  67 104 133 168 228 280 339 388
#     4  10  21  42  68  94 126 174 229 276 332 405
#     4  12  20  40  73  99 127 183 231 271 334 414
#     4  11  21  39  67 103 133 164 225 293 321 399
#     4  12  26  43  63  98 144 177 225 279 343 404
#     4  10  20  38  67  97 128 171 228 277 332 398
#
# _framework density 25.044646
#
# number of rings (size 3 to 8) (size 9 to 14) (size 15 to 20)
#    0.000    1.000    5.000    4.000    0.000    2.000 
#    3.000    4.167    0.000    0.000    0.000    0.000 
#    0.000    0.000    0.000    0.000    0.000    0.000 
#
# Total GULP energy -134439.140050 kJ/mol
# GULP energy per Si atom -5601.630835 kJ/mol
# Density = 2.498764 g / cm^3
# Si number density = 25.044646 Si / 1000 Ang^3
#
#
#
# Elastic Constant Matrix: (Units=GPa)
#
#
# Indices 1 2 3 4 5 6 
#
# 1 65.3341 6.0137 32.3168 0.0000 30.8918 0.0000
# 2 6.0137 132.0859 39.4503 0.0000 13.7298 0.0000
# 3 32.3168 39.4503 213.2237 0.0000 31.6881 0.0000
# 4 0.0000 0.0000 0.0000 25.8072 0.0000 0.5132
# 5 30.8918 13.7298 31.6881 0.0000 45.2449 0.0000
# 6 0.0000 0.0000 0.0000 0.5132 0.0000 8.6809
#
#
#
# Elastic Compliance Matrix: (Units=1/GPa)
#
#
# Indices 1 2 3 4 5 6 
#
# 1 0.023020 0.000939 -0.001434 0.000000 -0.014998 0.000000
# 2 0.000939 0.008151 -0.001326 0.000000 -0.002186 0.000000
# 3 -0.001434 -0.001326 0.005522 0.000000 -0.002486 0.000000
# 4 0.000000 0.000000 0.000000 0.038795 0.000000 -0.002293
# 5 -0.014998 -0.002186 -0.002486 0.000000 0.034747 0.000000
# 6 0.000000 0.000000 0.000000 -0.002293 0.000000 0.115331
#
#
# Mechanical properties :
#
#
# Convention : Reuss Voigt Hill
#
# Bulk Modulus (GPa) = 30.25428 62.91170 46.58299
# Shear Modulus (GPa) = 20.81385 38.13745 29.47565
#
# Velocity S-wave (km/s) = 2.88596 3.90651 3.43435
# Velocity P-wave (km/s) = 4.81782 6.74701 5.86232
#
# Compressibility (1/GPa) = 0.03305317
#
# Stress axis : x y z
#
# Youngs Moduli (GPa) = 43.43981 122.68070 181.09515
#
# Poissons Ratio (x) = -0.11522 0.25966
# Poissons Ratio (y) = -0.04080 0.24005
# Poissons Ratio (z) = 0.06228 0.16262
#
# Static dielectric constant tensor:
#      x y z
#    x 2.016810 0.000000 0.078580 
#    y 0.000000 2.018870 0.000000 
#    z 0.078580 0.000000 2.005780 
# 
# From -- ./inp_files/80539.got.cif
#   From: 2010.05.17/outbox.cif.g08.bks.cpg/sg15_41_cif.got.tgz:80539.got - 2010.06.03 18:47:42.
