data_PCOD9275215
_publ_section_title
;
Structure prediction by ZEFSAII (Michael W. Deem and Ramdas Pophale) SiO2 
 PCOD9275215
Probable space group: C 2/C
;
_chemical_formula_sum "Si O2"
_cell_formula_units_Z 64
_cell_length_a 22.262199
_cell_length_b 22.613201
_cell_length_c 22.421836
_cell_angle_alpha 90.000000
_cell_angle_beta 18.084010
_cell_angle_gamma 90.000000
_cell_volume 3503.794182
_symmetry_space_group_name_H-M "C 2/C"
_symmetry_group_IT_number 15
_symmetry_cell_setting 'monoclinic'
loop_
_space_group_symop_operation_xyz
x,y,z
-x,y,1/2-z
-x,-y,-z
x,-y,1/2+z
1/2+x,1/2+y,z
1/2-x,1/2+y,1/2-z
1/2-x,1/2-y,-z
1/2+x,1/2-y,1/2+z
loop_
_atom_site_type_symbol
_atom_site_label
_atom_site_fract_x
_atom_site_fract_y
_atom_site_fract_z
Si Si1 0.935930 0.512812 0.879225
Si Si2 0.413733 0.645511 0.975861
Si Si3 0.901619 0.254227 0.897347
Si Si4 0.215557 0.393540 0.766581
Si Si5 0.782264 0.022202 0.644139
Si Si6 0.715779 0.922950 0.331548
Si Si7 0.503713 0.881311 0.816867
Si Si8 0.697586 0.452344 0.701299
O O1 0.000000 0.520969 0.750000
O O2 0.112824 0.527533 0.756222
O O3 0.893449 0.442717 0.929472
O O4 0.758192 0.549461 0.075172
O O5 0.433608 0.700603 0.913391
O O6 0.610059 0.608871 0.798424
O O7 0.335975 0.655187 0.116830
O O8 0.227003 0.611026 0.124962
O O9 0.142430 0.251451 0.637149
O O10 0.920215 0.317681 0.913348
O O11 0.284890 0.457534 0.673737
O O12 0.245831 0.398621 0.808648
O O13 0.987898 0.390355 0.968040
O O14 0.977598 0.032775 0.423522
O O15 0.762225 0.068488 0.717524
O O16 0.689753 0.990222 0.378659
O O17 0.500000 0.873582 0.750000
#
# Coordination Sequence:
#
# PCOD9275215 Si02
#       8
#     8   8   8   8   8   8   8   8
#     4  11  22  34  53  75 109 152 187 224 273 334
#     4  12  21  37  56  78  93 135 199 236 282 336
#     4  11  23  41  56  68 103 154 193 249 285 307
#     4  11  19  33  54  78 102 130 172 246 282 336
#     4  11  18  34  52  77 107 130 173 233 279 338
#     4  11  19  32  57  78  96 132 175 240 289 330
#     4  10  20  39  53  67 106 144 191 242 269 320
#     4  11  18  33  53  75 109 132 169 236 286 327
#
# _framework density 18.265913999999999
#
# number of rings (size 3 to 8) (size 9 to 14) (size 15 to 20)
#    0.000    1.000    8.750    1.500    0.000    2.500 
#    0.000    0.000    0.000    0.000    0.000    0.000 
#    0.000    0.000    0.000    0.000    0.000   12.500 
#
# Total GULP energy -178266.936008 kJ/mol
# GULP energy per Si atom -5570.841750 kJ/mol
# Density = 1.822434 g / cm^3
# Si number density = 18.265914 Si / 1000 Ang^3
#
#
#
# Elastic Constant Matrix: (Units=GPa)
#
#
# Indices 1 2 3 4 5 6 
#
# 1 99.1367 42.7370 47.3617 -0.0269 14.7851 -0.0195
# 2 42.7370 45.1830 22.6327 -0.0979 8.1248 -0.0146
# 3 47.3617 22.6327 127.8235 -0.0287 13.8366 -0.0128
# 4 -0.0269 -0.0979 -0.0287 14.1892 0.0245 -2.3926
# 5 14.7851 8.1248 13.8366 0.0245 45.0708 0.0132
# 6 -0.0195 -0.0146 -0.0128 -2.3926 0.0132 25.0615
#
#
#
# Elastic Compliance Matrix: (Units=1/GPa)
#
#
# Indices 1 2 3 4 5 6 
#
# 1 0.019097 -0.015629 -0.004071 -0.000076 -0.002197 -0.000002
# 2 -0.015629 0.037522 -0.000699 0.000236 -0.001423 0.000033
# 3 -0.004071 -0.000699 0.009617 0.000010 -0.001491 0.000003
# 4 -0.000076 0.000236 0.000010 0.071631 -0.000061 0.006839
# 5 -0.002197 -0.001423 -0.001491 -0.000061 0.023622 -0.000022
# 6 -0.000002 0.000033 0.000003 0.006839 -0.000022 0.040555
#
#
# Mechanical properties :
#
#
# Convention : Reuss Voigt Hill
#
# Bulk Modulus (GPa) = 39.31082 55.28955 47.30018
# Shear Modulus (GPa) = 19.89491 27.49175 23.69333
#
# Velocity S-wave (km/s) = 3.30386 3.88375 3.60548
# Velocity P-wave (km/s) = 6.01016 7.10256 6.57907
#
# Compressibility (1/GPa) = 0.02543829
#
# Stress axis : x y z
#
# Youngs Moduli (GPa) = 52.36355 26.65123 103.98581
#
# Poissons Ratio (x) = 0.41654 0.42330
# Poissons Ratio (y) = 0.81841 0.07264
# Poissons Ratio (z) = 0.21316 0.01862
#
# Static dielectric constant tensor:
#      x y z
#    x 1.746290 -0.000020 0.023600 
#    y -0.000020 1.620930 0.000100 
#    z 0.023600 0.000100 1.870260 
# 
# From -- ./inp_files/253695.got.cif
#   From: 2010.05.17/outbox.cif.g08.bks.cpg/sg15_127_cif.got.tgz:253695.got - 2010.06.03 18:47:42.
