data_PCOD9275402
_publ_section_title
;
Structure prediction by ZEFSAII (Michael W. Deem and Ramdas Pophale) SiO2 
 PCOD9275402
Probable space group: C 2/C
;
_chemical_formula_sum "Si O2"
_cell_formula_units_Z 56
_cell_length_a 18.942190
_cell_length_b 12.588320
_cell_length_c 17.464345
_cell_angle_alpha 90.000000
_cell_angle_beta 134.945002
_cell_angle_gamma 90.000000
_cell_volume 2947.485958
_symmetry_space_group_name_H-M "C 2/C"
_symmetry_group_IT_number 15
_symmetry_cell_setting 'monoclinic'
loop_
_space_group_symop_operation_xyz
x,y,z
-x,y,1/2-z
-x,-y,-z
x,-y,1/2+z
1/2+x,1/2+y,z
1/2-x,1/2+y,1/2-z
1/2-x,1/2-y,-z
1/2+x,1/2-y,1/2+z
loop_
_atom_site_type_symbol
_atom_site_label
_atom_site_fract_x
_atom_site_fract_y
_atom_site_fract_z
Si Si1 0.118180 0.728644 0.133509
Si Si2 0.707646 0.425817 0.690405
Si Si3 0.198706 0.895146 0.300982
Si Si4 0.112720 0.041722 0.346253
Si Si5 0.903137 0.289735 0.405872
Si Si6 0.295349 0.608431 0.928125
Si Si7 0.598931 0.224626 0.777045
O O1 0.195173 0.631984 0.200914
O O2 0.131328 0.796156 0.222043
O O3 0.156819 0.807378 0.095177
O O4 0.007275 0.693457 0.027974
O O5 0.667055 0.508503 0.721218
O O6 0.631154 0.332741 0.610850
O O7 0.730581 0.500514 0.636195
O O8 0.311662 0.860521 0.367267
O O9 0.183467 0.946631 0.372101
O O10 0.132608 0.079722 0.447489
O O11 0.122163 0.150323 0.304330
O O12 0.000000 0.003470 0.250000
O O13 0.912793 0.304318 0.321482
O O14 0.193954 0.660941 0.880626
O O15 0.500000 0.203258 0.750000
#
# Coordination Sequence:
#
# PCOD9275402 Si02
#       7
#     8   8   8   8   8   8   8
#     4  10  21  37  64  87 119 157 200 253 291 354
#     4  10  20  39  61  87 121 156 206 242 295 364
#     4  10  21  39  60  88 122 155 205 250 288 367
#     4  11  23  37  62  93 120 156 200 251 308 356
#     4  11  21  39  62  92 118 159 203 246 305 352
#     4  11  22  40  61  89 123 160 195 257 302 357
#     4  11  21  38  59  93 127 151 193 252 311 359
#
# _framework density 18.999241999999999
#
# number of rings (size 3 to 8) (size 9 to 14) (size 15 to 20)
#    0.000    1.429    5.714    2.143    2.000    2.857 
#    2.571    2.857    0.000    0.000    0.000    0.000 
#    0.000    0.000    0.000    0.000    0.000    0.000 
#
# Total GULP energy -156247.596153 kJ/mol
# GULP energy per Si atom -5580.271291 kJ/mol
# Density = 1.895600 g / cm^3
# Si number density = 18.999242 Si / 1000 Ang^3
#
#
#
# Elastic Constant Matrix: (Units=GPa)
#
#
# Indices 1 2 3 4 5 6 
#
# 1 71.1319 22.9742 24.8862 0.0000 6.4092 0.0000
# 2 22.9742 32.0958 -0.9525 0.0000 -5.9965 0.0000
# 3 24.8862 -0.9525 92.8920 0.0000 10.2573 0.0000
# 4 0.0000 0.0000 0.0000 4.9553 0.0000 -5.1695
# 5 6.4092 -5.9965 10.2573 0.0000 17.2905 0.0000
# 6 0.0000 0.0000 0.0000 -5.1695 0.0000 29.9272
#
#
#
# Elastic Compliance Matrix: (Units=1/GPa)
#
#
# Indices 1 2 3 4 5 6 
#
# 1 0.022999 -0.018871 -0.005020 0.000000 -0.012092 0.000000
# 2 -0.018871 0.048886 0.003117 0.000000 0.022100 0.000000
# 3 -0.005020 0.003117 0.012646 0.000000 -0.004560 0.000000
# 4 0.000000 0.000000 0.000000 0.246163 0.000000 0.042521
# 5 -0.012092 0.022100 -0.004560 0.000000 0.072687 0.000000
# 6 0.000000 0.000000 0.000000 0.042521 0.000000 0.040759
#
#
# Mechanical properties :
#
#
# Convention : Reuss Voigt Hill
#
# Bulk Modulus (GPa) = 23.26545 32.21507 27.74026
# Shear Modulus (GPa) = 9.99970 20.38206 15.19088
#
# Velocity S-wave (km/s) = 2.29666 3.27889 2.83070
# Velocity P-wave (km/s) = 4.39373 5.59711 5.03153
#
# Compressibility (1/GPa) = 0.04298219
#
# Stress axis : x y z
#
# Youngs Moduli (GPa) = 43.48009 20.45579 79.07929
#
# Poissons Ratio (x) = 0.38602 0.39697
# Poissons Ratio (y) = 0.82050 -0.24645
# Poissons Ratio (z) = 0.21826 -0.06375
#
# Static dielectric constant tensor:
#      x y z
#    x 1.692190 0.000000 -0.023810 
#    y 0.000000 1.651230 0.000000 
#    z -0.023810 0.000000 1.663970 
# 
# From -- ./inp_files/210680.got.cif
#   From: 2010.05.17/outbox.cif.g08.bks.cpg/sg15_106_cif.got.tgz:210680.got - 2010.06.03 18:47:42.
