data_PCOD9275930
_publ_section_title
;
Structure prediction by ZEFSAII (Michael W. Deem and Ramdas Pophale) SiO2 
 PCOD9275930
Probable space group: C 2/C
;
_chemical_formula_sum "Si O2"
_cell_formula_units_Z 40
_cell_length_a 7.464883
_cell_length_b 11.743417
_cell_length_c 16.504698
_cell_angle_alpha 90.000000
_cell_angle_beta 86.711641
_cell_angle_gamma 90.000000
_cell_volume 1444.472942
_symmetry_space_group_name_H-M "C 2/C"
_symmetry_group_IT_number 15
_symmetry_cell_setting 'monoclinic'
loop_
_space_group_symop_operation_xyz
x,y,z
-x,y,1/2-z
-x,-y,-z
x,-y,1/2+z
1/2+x,1/2+y,z
1/2-x,1/2+y,1/2-z
1/2-x,1/2-y,-z
1/2+x,1/2-y,1/2+z
loop_
_atom_site_type_symbol
_atom_site_label
_atom_site_fract_x
_atom_site_fract_y
_atom_site_fract_z
Si Si1 0.705845 0.897646 0.736915
Si Si2 0.659191 0.747667 0.398105
Si Si3 0.723028 0.492138 0.591744
Si Si4 0.605399 0.596220 0.835610
Si Si5 0.451287 0.206858 0.044891
O O1 0.500000 0.864418 0.750000
O O2 0.829356 0.803833 0.691034
O O3 0.770554 0.927611 0.823367
O O4 0.726516 0.016715 0.687524
O O5 0.488212 0.727806 0.459352
O O6 0.841344 0.690462 0.430924
O O7 0.687397 0.883355 0.399247
O O8 0.514606 0.526304 0.595436
O O9 0.842157 0.408931 0.533971
O O10 0.500000 0.609169 0.750000
O O11 0.630796 0.713219 0.882707
#
# Coordination Sequence:
#
# PCOD9275930 Si02
#       5
#     8   8   8   8   8
#     4  11  22  39  63  89 122 164 213 256 304 381
#     4  10  22  38  62  95 119 164 213 251 317 376
#     4  10  21  38  64  89 123 161 208 261 310 371
#     4   9  22  40  62  92 126 164 207 262 313 366
#     4  10  20  39  66  86 126 165 203 261 315 371
#
# _framework density 27.691759000000001
#
# number of rings (size 3 to 8) (size 9 to 14) (size 15 to 20)
#    0.000    2.000    2.000    0.600    8.400    0.800 
#    3.600    1.000    0.000    0.000    0.000    0.000 
#    0.000    0.000    0.000    0.000    0.000    0.000 
#
# Total GULP energy -111883.814256 kJ/mol
# GULP energy per Si atom -5594.190713 kJ/mol
# Density = 2.762873 g / cm^3
# Si number density = 27.691759 Si / 1000 Ang^3
#
#
#
# Elastic Constant Matrix: (Units=GPa)
#
#
# Indices 1 2 3 4 5 6 
#
# 1 84.5006 50.6833 22.3831 0.0000 -3.3694 0.0000
# 2 50.6833 157.1051 62.4790 0.0000 -33.4897 0.0000
# 3 22.3831 62.4790 150.3587 0.0000 -28.9966 0.0000
# 4 0.0000 0.0000 0.0000 58.9995 0.0000 -14.2181
# 5 -3.3694 -33.4897 -28.9966 0.0000 36.6294 0.0000
# 6 0.0000 0.0000 0.0000 -14.2181 0.0000 34.1779
#
#
#
# Elastic Compliance Matrix: (Units=1/GPa)
#
#
# Indices 1 2 3 4 5 6 
#
# 1 0.015163 -0.005479 -0.000800 0.000000 -0.004248 0.000000
# 2 -0.005479 0.010576 -0.002138 0.000000 0.007473 0.000000
# 3 -0.000800 -0.002138 0.008576 0.000000 0.004761 0.000000
# 4 0.000000 0.000000 0.000000 0.018838 0.000000 0.007837
# 5 -0.004248 0.007473 0.004761 0.000000 0.037511 0.000000
# 6 0.000000 0.000000 0.000000 0.007837 0.000000 0.032519
#
#
# Mechanical properties :
#
#
# Convention : Reuss Voigt Hill
#
# Bulk Modulus (GPa) = 57.20148 73.67281 65.43715
# Shear Modulus (GPa) = 34.28323 43.05595 38.66959
#
# Velocity S-wave (km/s) = 3.52238 3.94741 3.74094
# Velocity P-wave (km/s) = 6.10281 6.88755 6.50702
#
# Compressibility (1/GPa) = 0.01748206
#
# Stress axis : x y z
#
# Youngs Moduli (GPa) = 65.94959 94.55352 116.60026
#
# Poissons Ratio (x) = 0.51808 0.09324
# Poissons Ratio (y) = 0.36135 0.24927
# Poissons Ratio (z) = 0.05274 0.20214
#
# Static dielectric constant tensor:
#      x y z
#    x 2.376490 0.000000 0.044800 
#    y 0.000000 2.288950 0.000000 
#    z 0.044800 0.000000 2.276520 
# 
# From -- ./inp_files/229789.got.cif
#   From: 2010.05.17/outbox.cif.g08.bks.cpg/sg15_115_cif.got.tgz:229789.got - 2010.06.03 18:47:42.
