data_PCOD9275642
_publ_section_title
;
Structure prediction by ZEFSAII (Michael W. Deem and Ramdas Pophale) SiO2 
 PCOD9275642
Probable space group: C 2/C
;
_chemical_formula_sum "Si O2"
_cell_formula_units_Z 56
_cell_length_a 15.285911
_cell_length_b 17.528622
_cell_length_c 22.188560
_cell_angle_alpha 90.000000
_cell_angle_beta 152.938707
_cell_angle_gamma 90.000000
_cell_volume 2704.740451
_symmetry_space_group_name_H-M "C 2/C"
_symmetry_group_IT_number 15
_symmetry_cell_setting 'monoclinic'
loop_
_space_group_symop_operation_xyz
x,y,z
-x,y,1/2-z
-x,-y,-z
x,-y,1/2+z
1/2+x,1/2+y,z
1/2-x,1/2+y,1/2-z
1/2-x,1/2-y,-z
1/2+x,1/2-y,1/2+z
loop_
_atom_site_type_symbol
_atom_site_label
_atom_site_fract_x
_atom_site_fract_y
_atom_site_fract_z
Si Si1 0.007327 0.600479 0.570877
Si Si2 0.531882 0.008887 0.703114
Si Si3 0.281237 0.481981 0.676981
Si Si4 0.369287 0.424724 0.856177
Si Si5 0.356987 0.259049 0.886305
Si Si6 0.887615 0.953465 0.057424
Si Si7 0.434522 0.725212 0.574329
O O1 0.060508 0.572465 0.670020
O O2 0.798543 0.567499 0.426196
O O3 0.146163 0.554672 0.609560
O O4 0.035848 0.689167 0.579813
O O5 0.500000 0.040734 0.750000
O O6 0.709583 0.951653 0.805599
O O7 0.337257 0.962225 0.570840
O O8 0.266517 0.427403 0.727416
O O9 0.493948 0.515839 0.812365
O O10 0.436593 0.341289 0.914906
O O11 0.468039 0.511322 0.055287
O O12 0.132919 0.254953 0.726747
O O13 0.392662 0.250030 0.979754
O O14 0.944596 0.866985 0.079829
O O15 0.250000 0.750000 0.500000
#
# Coordination Sequence:
#
# PCOD9275642 Si02
#       7
#     8   8   8   8   8   8   8
#     4  10  20  39  63  91 126 173 222 272 328 400
#     4  11  22  38  63  95 132 170 222 279 322 399
#     4   8  18  40  63  89 122 166 223 263 325 398
#     4   9  21  41  64  94 124 167 220 272 328 401
#     4  12  23  41  66  92 136 175 216 277 345 388
#     4  10  22  43  67  93 126 176 221 265 340 399
#     4  12  25  40  61 101 137 172 217 278 341 407
#
# _framework density 20.704388999999999
#
# number of rings (size 3 to 8) (size 9 to 14) (size 15 to 20)
#    0.857    0.857    1.429    3.000    0.000    6.286 
#    2.571    0.714    0.000    0.000    0.000    0.000 
#    0.000    0.000    0.000    0.000    0.000    0.000 
#
# Total GULP energy -156219.776425 kJ/mol
# GULP energy per Si atom -5579.277729 kJ/mol
# Density = 2.065726 g / cm^3
# Si number density = 20.704389 Si / 1000 Ang^3
#
#
#
# Elastic Constant Matrix: (Units=GPa)
#
#
# Indices 1 2 3 4 5 6 
#
# 1 40.1407 47.3832 3.8144 -0.0006 -9.4372 -0.0006
# 2 47.3832 124.0984 23.4352 0.0016 -4.8382 -0.0003
# 3 3.8144 23.4352 96.8055 0.0040 -9.3233 -0.0004
# 4 -0.0006 0.0016 0.0040 20.5641 0.0002 2.7804
# 5 -9.4372 -4.8382 -9.3233 0.0002 35.0312 -0.0004
# 6 -0.0006 -0.0003 -0.0004 2.7804 -0.0004 19.7968
#
#
#
# Elastic Compliance Matrix: (Units=1/GPa)
#
#
# Indices 1 2 3 4 5 6 
#
# 1 0.050356 -0.019496 0.003882 0.000002 0.011906 0.000001
# 2 -0.019496 0.016006 -0.003489 -0.000001 -0.003970 0.000000
# 3 0.003882 -0.003489 0.011367 -0.000002 0.003589 0.000001
# 4 0.000002 -0.000001 -0.000002 0.049570 0.000000 -0.006962
# 5 0.011906 -0.003970 0.003589 0.000000 0.032160 0.000001
# 6 0.000001 0.000000 0.000001 -0.006962 0.000001 0.051491
#
#
# Mechanical properties :
#
#
# Convention : Reuss Voigt Hill
#
# Bulk Modulus (GPa) = 25.30098 45.59001 35.44549
# Shear Modulus (GPa) = 19.05990 27.50586 23.28288
#
# Velocity S-wave (km/s) = 3.03739 3.64882 3.35705
# Velocity P-wave (km/s) = 4.95455 6.31024 5.67304
#
# Compressibility (1/GPa) = 0.03952416
#
# Stress axis : x y z
#
# Youngs Moduli (GPa) = 19.85857 62.47610 87.97126
#
# Poissons Ratio (x) = 1.21803 -0.34152
# Poissons Ratio (y) = 0.38716 0.30693
# Poissons Ratio (z) = -0.07709 0.21798
#
# Static dielectric constant tensor:
#      x y z
#    x 1.788860 0.000000 -0.033870 
#    y 0.000000 1.706490 0.000000 
#    z -0.033870 0.000000 1.821090 
# 
# From -- ./inp_files/245161.got.cif
#   From: 2010.05.17/outbox.cif.g08.bks.cpg/sg15_123_cif.got.tgz:245161.got - 2010.06.03 18:47:42.
