data_PCOD9275254
_publ_section_title
;
Structure prediction by ZEFSAII (Michael W. Deem and Ramdas Pophale) SiO2 
 PCOD9275254
Probable space group: C 2/C
;
_chemical_formula_sum "Si O2"
_cell_formula_units_Z 48
_cell_length_a 8.157582
_cell_length_b 23.766655
_cell_length_c 12.968111
_cell_angle_alpha 90.000000
_cell_angle_beta 72.760916
_cell_angle_gamma 90.000000
_cell_volume 2401.288571
_symmetry_space_group_name_H-M "C 2/C"
_symmetry_group_IT_number 15
_symmetry_cell_setting 'monoclinic'
loop_
_space_group_symop_operation_xyz
x,y,z
-x,y,1/2-z
-x,-y,-z
x,-y,1/2+z
1/2+x,1/2+y,z
1/2-x,1/2+y,1/2-z
1/2-x,1/2-y,-z
1/2+x,1/2-y,1/2+z
loop_
_atom_site_type_symbol
_atom_site_label
_atom_site_fract_x
_atom_site_fract_y
_atom_site_fract_z
Si Si1 0.021332 0.944091 0.068393
Si Si2 0.500000 0.216233 0.250000
Si Si3 0.500000 0.037379 0.250000
Si Si4 0.500000 0.848462 0.250000
Si Si5 0.729848 0.058666 0.784764
Si Si6 0.762045 0.250589 0.375018
Si Si7 0.500000 0.348032 0.750000
Si Si8 0.740848 0.622003 0.375988
O O1 0.151640 0.950778 0.139217
O O2 0.842032 0.932637 0.159565
O O3 0.106328 0.891495 0.991325
O O4 0.000000 0.000000 0.000000
O O5 0.599554 0.247108 0.325911
O O6 0.350246 0.179000 0.335044
O O7 0.387488 0.075196 0.346920
O O8 0.377516 0.997419 0.209236
O O9 0.400623 0.888850 0.188324
O O10 0.364431 0.806686 0.326608
O O11 0.750000 0.250000 0.500000
O O12 0.874658 0.194752 0.332250
O O13 0.378955 0.384747 0.701439
#
# Coordination Sequence:
#
# PCOD9275254 Si02
#       8
#     8   4   4   4   8   8   4   8
#     4  11  23  39  63  89 125 173 207 253 313 374
#     4   9  22  43  64 100 124 155 222 267 312 396
#     4  10  20  39  58  86 124 159 196 260 294 376
#     4  10  24  45  62  92 130 167 208 272 314 386
#     4  10  24  42  57  92 130 160 219 252 310 385
#     4  10  22  43  69  92 124 165 211 269 330 374
#     4   9  22  41  60  92 122 151 216 259 300 390
#     4  10  21  38  64  90 122 161 200 259 315 359
#
# _framework density 19.989267999999999
#
# number of rings (size 3 to 8) (size 9 to 14) (size 15 to 20)
#    0.000    2.000    1.667    0.000    7.000    2.000 
#    0.000    2.500    0.000    0.000    0.000    0.000 
#    0.000    0.000    0.000    0.000    0.000    0.000 
#
# Total GULP energy -133682.963746 kJ/mol
# GULP energy per Si atom -5570.123489 kJ/mol
# Density = 1.994377 g / cm^3
# Si number density = 19.989268 Si / 1000 Ang^3
#
#
#
# Elastic Constant Matrix: (Units=GPa)
#
#
# Indices 1 2 3 4 5 6 
#
# 1 127.7034 38.8231 52.4609 0.0000 7.8714 0.0000
# 2 38.8231 61.5536 32.9086 0.0000 8.0292 0.0000
# 3 52.4609 32.9086 110.2747 0.0000 13.1396 0.0000
# 4 0.0000 0.0000 0.0000 -3.0398 0.0000 2.2237
# 5 7.8714 8.0292 13.1396 0.0000 17.2143 0.0000
# 6 0.0000 0.0000 0.0000 2.2237 0.0000 45.5758
#
#
#
# Elastic Compliance Matrix: (Units=1/GPa)
#
#
# Indices 1 2 3 4 5 6 
#
# 1 0.010826 -0.004861 -0.003718 0.000000 0.000155 0.000000
# 2 -0.004861 0.021924 -0.003604 0.000000 -0.005252 0.000000
# 3 -0.003718 -0.003604 0.012661 0.000000 -0.006283 0.000000
# 4 0.000000 0.000000 0.000000 -0.317629 0.000000 0.015498
# 5 0.000155 -0.005252 -0.006283 0.000000 0.065266 0.000000
# 6 0.000000 0.000000 0.000000 0.015498 0.000000 0.021185
#
#
# Mechanical properties :
#
#
# Convention : Reuss Voigt Hill
#
# Bulk Modulus (GPa) = 47.51767 60.87966 54.19866
# Shear Modulus (GPa) = -32.38675 23.63932 -4.37372
#
# Velocity S-wave (km/s) = -4.02955 3.44263 -1.48080
# Velocity P-wave (km/s) = 1.47429 6.80621 4.92433
#
# Compressibility (1/GPa) = 0.02104480
#
# Stress axis : x y z
#
# Youngs Moduli (GPa) = 92.36800 45.61242 78.97982
#
# Poissons Ratio (x) = 0.22170 0.29367
# Poissons Ratio (y) = 0.44897 0.28468
# Poissons Ratio (z) = 0.34345 0.16441
#
# Static dielectric constant tensor:
#      x y z
#    x 1.703080 0.000000 -0.055890 
#    y 0.000000 1.709130 0.000000 
#    z -0.055890 0.000000 1.728300 
# 
# From -- ./inp_files/79227.got.cif
#   From: 2010.05.17/outbox.cif.g08.bks.cpg/sg15_40_cif.got.tgz:79227.got - 2010.06.03 18:47:42.
