data_PCOD9275457
_publ_section_title
;
Structure prediction by ZEFSAII (Michael W. Deem and Ramdas Pophale) SiO2 
 PCOD9275457
Probable space group: C 2/C
;
_chemical_formula_sum "Si O2"
_cell_formula_units_Z 40
_cell_length_a 12.214741
_cell_length_b 12.158396
_cell_length_c 13.489899
_cell_angle_alpha 90.000000
_cell_angle_beta 64.452648
_cell_angle_gamma 90.000000
_cell_volume 1807.532499
_symmetry_space_group_name_H-M "C 2/C"
_symmetry_group_IT_number 15
_symmetry_cell_setting 'monoclinic'
loop_
_space_group_symop_operation_xyz
x,y,z
-x,y,1/2-z
-x,-y,-z
x,-y,1/2+z
1/2+x,1/2+y,z
1/2-x,1/2+y,1/2-z
1/2-x,1/2-y,-z
1/2+x,1/2-y,1/2+z
loop_
_atom_site_type_symbol
_atom_site_label
_atom_site_fract_x
_atom_site_fract_y
_atom_site_fract_z
Si Si1 0.584760 0.845057 0.997952
Si Si2 0.441042 0.793688 0.875129
Si Si3 0.180945 0.126002 0.425676
Si Si4 0.396681 0.217549 0.716296
Si Si5 0.708984 0.614393 0.943786
O O1 0.469905 0.864234 0.114328
O O2 0.704981 0.901875 0.993035
O O3 0.539033 0.857765 0.904343
O O4 0.390587 0.694123 0.962153
O O5 0.500000 0.755469 0.750000
O O6 0.323718 0.865939 0.895463
O O7 0.618557 0.715218 0.997469
O O8 0.159737 0.189066 0.330863
O O9 0.147696 0.998796 0.438603
O O10 0.500000 0.261719 0.750000
O O11 0.296996 0.156590 0.821374
#
# Coordination Sequence:
#
# PCOD9275457 Si02
#       5
#     8   8   8   8   8
#     4   9  20  38  57  83 119 154 195 240 290 357
#     4  10  21  39  58  85 125 156 194 252 297 340
#     4  10  22  39  61  90 118 154 203 245 291 353
#     4   9  19  38  59  84 119 155 193 240 293 353
#     4  10  20  39  62  85 119 158 198 242 292 355
#
# _framework density 22.129615000000001
#
# number of rings (size 3 to 8) (size 9 to 14) (size 15 to 20)
#    0.000    2.400    0.000    1.200    0.000    6.400 
#    0.000   38.000    0.000    0.000    0.000    0.000 
#    0.000    0.000    0.000    0.000    0.000    0.000 
#
# Total GULP energy -111752.301127 kJ/mol
# GULP energy per Si atom -5587.615056 kJ/mol
# Density = 2.207925 g / cm^3
# Si number density = 22.129615 Si / 1000 Ang^3
#
#
#
# Elastic Constant Matrix: (Units=GPa)
#
#
# Indices 1 2 3 4 5 6 
#
# 1 86.4921 11.9375 41.3058 0.0000 10.4788 0.0000
# 2 11.9375 89.9162 16.0676 0.0000 3.3321 0.0000
# 3 41.3058 16.0676 141.3213 0.0000 11.6676 0.0000
# 4 0.0000 0.0000 0.0000 15.2630 0.0000 2.1787
# 5 10.4788 3.3321 11.6676 0.0000 52.4440 0.0000
# 6 0.0000 0.0000 0.0000 2.1787 0.0000 -5.0377
#
#
#
# Elastic Compliance Matrix: (Units=1/GPa)
#
#
# Indices 1 2 3 4 5 6 
#
# 1 0.013718 -0.001086 -0.003734 0.000000 -0.001841 0.000000
# 2 -0.001086 0.011448 -0.000960 0.000000 -0.000297 0.000000
# 3 -0.003734 -0.000960 0.008364 0.000000 -0.001054 0.000000
# 4 0.000000 0.000000 0.000000 0.061709 0.000000 0.026687
# 5 -0.001841 -0.000297 -0.001054 0.000000 0.019689 0.000000
# 6 0.000000 0.000000 0.000000 0.026687 0.000000 -0.186963
#
#
# Mechanical properties :
#
#
# Convention : Reuss Voigt Hill
#
# Bulk Modulus (GPa) = 45.51544 50.70570 48.11057
# Shear Modulus (GPa) = -94.06903 29.09511 -32.48696
#
# Velocity S-wave (km/s) = -6.52691 3.62989 -3.83565
# Velocity P-wave (km/s) = 6.01567 6.36639 1.47354
#
# Compressibility (1/GPa) = 0.02197057
#
# Stress axis : x y z
#
# Youngs Moduli (GPa) = 72.89719 87.35066 119.56592
#
# Poissons Ratio (x) = 0.09484 0.44647
# Poissons Ratio (y) = 0.07915 0.11475
# Poissons Ratio (z) = 0.27220 0.08383
#
# Static dielectric constant tensor:
#      x y z
#    x 1.840040 0.000000 0.022460 
#    y 0.000000 1.788700 0.000000 
#    z 0.022460 0.000000 1.825610 
# 
# From -- ./inp_files/195737.got.cif
#   From: 2010.05.17/outbox.cif.g08.bks.cpg/sg15_98_cif.got.tgz:195737.got - 2010.06.03 18:47:42.
