data_PCOD9275869
_publ_section_title
;
Structure prediction by ZEFSAII (Michael W. Deem and Ramdas Pophale) SiO2 
 PCOD9275869
Probable space group: C 2/C
;
_chemical_formula_sum "Si O2"
_cell_formula_units_Z 56
_cell_length_a 8.506284
_cell_length_b 18.317969
_cell_length_c 22.170586
_cell_angle_alpha 90.000000
_cell_angle_beta 135.255080
_cell_angle_gamma 90.000000
_cell_volume 2431.852703
_symmetry_space_group_name_H-M "C 2/C"
_symmetry_group_IT_number 15
_symmetry_cell_setting 'monoclinic'
loop_
_space_group_symop_operation_xyz
x,y,z
-x,y,1/2-z
-x,-y,-z
x,-y,1/2+z
1/2+x,1/2+y,z
1/2-x,1/2+y,1/2-z
1/2-x,1/2-y,-z
1/2+x,1/2-y,1/2+z
loop_
_atom_site_type_symbol
_atom_site_label
_atom_site_fract_x
_atom_site_fract_y
_atom_site_fract_z
Si Si1 0.858982 0.532473 0.381434
Si Si2 0.359762 0.781239 0.443236
Si Si3 0.617209 0.199615 0.688674
Si Si4 0.983724 0.688060 0.309921
Si Si5 0.798776 0.538803 0.737028
Si Si6 0.308486 0.429109 0.063694
Si Si7 0.739344 0.317266 0.865803
O O1 0.125916 0.550005 0.462219
O O2 0.786267 0.510233 0.294158
O O3 0.806024 0.462232 0.407640
O O4 0.719468 0.597530 0.378007
O O5 0.436661 0.803385 0.396983
O O6 0.228910 0.705966 0.400327
O O7 0.199991 0.842265 0.428993
O O8 0.566004 0.779810 0.543510
O O9 0.629738 0.120453 0.721398
O O10 0.457464 0.260125 0.676441
O O11 0.860176 0.235856 0.760258
O O12 0.000000 0.648563 0.250000
O O13 0.834224 0.663906 0.324967
O O14 0.564807 0.544598 0.636693
O O15 0.000000 0.513233 0.750000
#
# Coordination Sequence:
#
# PCOD9275869 Si02
#       7
#     8   8   8   8   8   8   8
#     4  10  24  42  68  97 130 180 228 279 338 412
#     4  10  20  39  65  92 125 172 220 274 326 402
#     4  11  22  38  64  98 128 167 227 277 327 404
#     4  10  21  36  60  89 122 169 216 263 321 400
#     4  12  24  40  69 101 136 181 228 285 338 406
#     4  10  21  43  69  96 129 176 234 274 335 411
#     4  11  23  40  61  95 136 165 213 280 346 396
#
# _framework density 23.027711
#
# number of rings (size 3 to 8) (size 9 to 14) (size 15 to 20)
#    0.000    1.429    2.857    2.571    0.000    3.429 
#    0.000    1.429    0.000    0.000    0.000    0.000 
#    0.000    0.000    0.000    0.000    0.000    0.000 
#
# Total GULP energy -156120.954495 kJ/mol
# GULP energy per Si atom -5575.748375 kJ/mol
# Density = 2.297530 g / cm^3
# Si number density = 23.027711 Si / 1000 Ang^3
#
#
#
# Elastic Constant Matrix: (Units=GPa)
#
#
# Indices 1 2 3 4 5 6 
#
# 1 47.1356 11.1554 16.3963 0.0000 4.5464 0.0000
# 2 11.1554 90.6512 18.6710 0.0000 13.7599 0.0000
# 3 16.3963 18.6710 129.9001 -0.0003 25.3667 0.0002
# 4 0.0000 0.0000 -0.0003 23.8705 0.0000 2.0518
# 5 4.5464 13.7599 25.3667 0.0000 32.2078 0.0001
# 6 0.0000 0.0000 0.0002 2.0518 0.0001 16.8768
#
#
#
# Elastic Compliance Matrix: (Units=1/GPa)
#
#
# Indices 1 2 3 4 5 6 
#
# 1 0.022634 -0.002231 -0.002480 0.000000 -0.000289 0.000000
# 2 -0.002231 0.012094 -0.000602 0.000000 -0.004378 0.000000
# 3 -0.002480 -0.000602 0.009429 0.000000 -0.006819 0.000000
# 4 0.000000 0.000000 0.000000 0.042335 0.000000 -0.005147
# 5 -0.000289 -0.004378 -0.006819 0.000000 0.038330 0.000000
# 6 0.000000 0.000000 0.000000 -0.005147 0.000000 0.059879
#
#
# Mechanical properties :
#
#
# Convention : Reuss Voigt Hill
#
# Bulk Modulus (GPa) = 29.82158 40.01468 34.91813
# Shear Modulus (GPa) = 24.21259 29.35530 26.78394
#
# Velocity S-wave (km/s) = 3.24613 3.57428 3.41415
# Velocity P-wave (km/s) = 5.19887 5.86928 5.54422
#
# Compressibility (1/GPa) = 0.03353277
#
# Stress axis : x y z
#
# Youngs Moduli (GPa) = 44.18173 82.68357 106.05102
#
# Poissons Ratio (x) = 0.18444 0.26299
# Poissons Ratio (y) = 0.09855 0.06383
# Poissons Ratio (z) = 0.10956 0.04976
#
# Static dielectric constant tensor:
#      x y z
#    x 1.881550 0.000000 -0.037790 
#    y 0.000000 1.881100 0.000000 
#    z -0.037790 0.000000 1.924700 
# 
# From -- ./inp_files/289743.got.cif
#   From: 2010.05.17/outbox.cif.g08.bks.cpg/sg15_145_cif.got.tgz:289743.got - 2010.06.03 18:47:42.
