data_PCOD9275418
_publ_section_title
;
Structure prediction by ZEFSAII (Michael W. Deem and Ramdas Pophale) SiO2 
 PCOD9275418
Probable space group: C 2/C
;
_chemical_formula_sum "Si O2"
_cell_formula_units_Z 52
_cell_length_a 19.110125
_cell_length_b 9.506887
_cell_length_c 18.573043
_cell_angle_alpha 90.000000
_cell_angle_beta 141.249966
_cell_angle_gamma 90.000000
_cell_volume 2112.061125
_symmetry_space_group_name_H-M "C 2/C"
_symmetry_group_IT_number 15
_symmetry_cell_setting 'monoclinic'
loop_
_space_group_symop_operation_xyz
x,y,z
-x,y,1/2-z
-x,-y,-z
x,-y,1/2+z
1/2+x,1/2+y,z
1/2-x,1/2+y,1/2-z
1/2-x,1/2-y,-z
1/2+x,1/2-y,1/2+z
loop_
_atom_site_type_symbol
_atom_site_label
_atom_site_fract_x
_atom_site_fract_y
_atom_site_fract_z
Si Si1 0.842416 0.004581 0.229444
Si Si2 0.880287 0.492227 0.045099
Si Si3 0.792387 0.897334 0.999997
Si Si4 0.000000 0.964457 0.750000
Si Si5 0.027630 0.649839 0.561131
Si Si6 0.800702 0.144269 0.339416
Si Si7 0.442733 0.777821 0.852792
O O1 0.924534 0.107172 0.250713
O O2 0.845799 0.041534 0.315293
O O3 0.721310 0.005494 0.094945
O O4 0.898657 0.851169 0.270739
O O5 0.811974 0.497964 0.065104
O O6 0.957649 0.631915 0.101928
O O7 0.962962 0.368872 0.084265
O O8 0.823550 0.880404 0.941645
O O9 0.901168 0.953710 0.128302
O O10 0.750000 0.750000 0.000000
O O11 0.154680 0.704430 0.655757
O O12 0.000000 0.500000 0.500000
O O13 0.973365 0.758183 0.459972
O O14 0.667674 0.128846 0.229324
#
# Coordination Sequence:
#
# PCOD9275418 Si02
#       7
#     8   8   8   4   8   8   8
#     4  11  23  42  65 101 126 178 224 279 321 410
#     4  10  22  42  66  89 143 180 212 259 373 390
#     4  11  22  39  62 100 127 170 213 282 334 395
#     4  10  22  40  64  82 140 172 204 274 350 374
#     4  10  20  39  61  89 126 175 205 265 335 404
#     4  12  25  37  70 103 127 166 240 276 324 392
#     4  11  21  36  67  93 133 171 216 283 324 398
#
# _framework density 24.6205
#
# number of rings (size 3 to 8) (size 9 to 14) (size 15 to 20)
#    0.000    1.231    1.538    7.385    2.154    3.077 
#    0.000    0.000    3.385    2.769    0.000    0.000 
#    0.000    0.000    0.000    0.000    0.000    0.000 
#
# Total GULP energy -144982.623870 kJ/mol
# GULP energy per Si atom -5576.254764 kJ/mol
# Density = 2.456446 g / cm^3
# Si number density = 24.620500 Si / 1000 Ang^3
#
#
#
# Elastic Constant Matrix: (Units=GPa)
#
#
# Indices 1 2 3 4 5 6 
#
# 1 220.1048 38.0986 56.5544 0.0000 21.8675 0.0000
# 2 38.0986 47.5457 37.8606 0.0000 5.8705 0.0000
# 3 56.5544 37.8606 99.9454 0.0000 22.3032 0.0000
# 4 0.0000 0.0000 0.0000 28.4913 0.0000 7.6028
# 5 21.8675 5.8705 22.3032 0.0000 44.8679 0.0000
# 6 0.0000 0.0000 0.0000 7.6028 0.0000 27.9943
#
#
#
# Elastic Compliance Matrix: (Units=1/GPa)
#
#
# Indices 1 2 3 4 5 6 
#
# 1 0.005652 -0.002955 -0.001744 0.000000 -0.001501 0.000000
# 2 -0.002955 0.031814 -0.010991 0.000000 0.002741 0.000000
# 3 -0.001744 -0.010991 0.016472 0.000000 -0.005900 0.000000
# 4 0.000000 0.000000 0.000000 0.037841 0.000000 -0.010277
# 5 -0.001501 0.002741 -0.005900 0.000000 0.025594 0.000000
# 6 0.000000 0.000000 0.000000 -0.010277 0.000000 0.038513
#
#
# Mechanical properties :
#
#
# Convention : Reuss Voigt Hill
#
# Bulk Modulus (GPa) = 44.32915 70.29145 57.31030
# Shear Modulus (GPa) = 25.66930 35.94284 30.80607
#
# Velocity S-wave (km/s) = 3.23243 3.82498 3.54112
# Velocity P-wave (km/s) = 5.65469 6.93680 6.32830
#
# Compressibility (1/GPa) = 0.02255852
#
# Stress axis : x y z
#
# Youngs Moduli (GPa) = 176.92901 31.43258 60.70732
#
# Poissons Ratio (x) = 0.09288 0.10586
# Poissons Ratio (y) = 0.52283 0.66725
# Poissons Ratio (z) = 0.30853 0.34548
#
# Static dielectric constant tensor:
#      x y z
#    x 2.136220 0.000000 -0.018470 
#    y 0.000000 2.087090 0.000000 
#    z -0.018470 0.000000 2.034440 
# 
# From -- ./inp_files/301996.got.cif
#   From: 2010.05.17/outbox.cif.g08.bks.cpg/sg15_151_cif.got.tgz:301996.got - 2010.06.03 18:47:42.
