data_PCOD9275780
_publ_section_title
;
Structure prediction by ZEFSAII (Michael W. Deem and Ramdas Pophale) SiO2 
 PCOD9275780
Probable space group: C 2/C
;
_chemical_formula_sum "Si O2"
_cell_formula_units_Z 60
_cell_length_a 11.962363
_cell_length_b 16.871729
_cell_length_c 14.622692
_cell_angle_alpha 90.000000
_cell_angle_beta 91.914503
_cell_angle_gamma 90.000000
_cell_volume 2949.588327
_symmetry_space_group_name_H-M "C 2/C"
_symmetry_group_IT_number 15
_symmetry_cell_setting 'monoclinic'
loop_
_space_group_symop_operation_xyz
x,y,z
-x,y,1/2-z
-x,-y,-z
x,-y,1/2+z
1/2+x,1/2+y,z
1/2-x,1/2+y,1/2-z
1/2-x,1/2-y,-z
1/2+x,1/2-y,1/2+z
loop_
_atom_site_type_symbol
_atom_site_label
_atom_site_fract_x
_atom_site_fract_y
_atom_site_fract_z
Si Si1 0.736671 0.185988 0.580278
Si Si2 0.500000 0.983995 0.250000
Si Si3 0.630062 0.411161 0.277106
Si Si4 0.865644 0.661525 0.448554
Si Si5 0.950907 0.576937 0.947125
Si Si6 0.721382 0.935253 0.721744
Si Si7 0.771143 0.812331 0.380874
Si Si8 0.870314 0.784644 0.760961
O O1 0.750000 0.250000 0.500000
O O2 0.842450 0.152742 0.641752
O O3 0.675419 0.105922 0.543774
O O4 0.657646 0.229118 0.653476
O O5 0.527057 0.934137 0.160132
O O6 0.387335 0.034116 0.225821
O O7 0.500000 0.420476 0.250000
O O8 0.693385 0.493678 0.297264
O O9 0.689045 0.378144 0.187265
O O10 0.836384 0.596798 0.372201
O O11 0.865308 0.746330 0.400113
O O12 0.769143 0.658519 0.522331
O O13 0.977899 0.646400 0.505437
O O14 0.000000 0.500000 0.000000
O O15 0.792237 0.862798 0.765334
O O16 0.671815 0.763873 0.328928
O O17 0.000000 0.803912 0.750000
#
# Coordination Sequence:
#
# PCOD9275780 Si02
#       8
#     8   4   8   8   8   8   8   8
#     4  11  26  43  65 104 138 175 237 288 350 412
#     4  12  24  42  68  96 136 174 226 284 352 406
#     4  11  23  45  65  91 135 178 217 270 343 415
#     4  10  20  39  64  94 126 159 224 277 333 396
#     4  12  24  41  69  97 135 177 224 289 344 410
#     4  11  23  42  64  99 128 175 228 275 342 416
#     4   9  21  39  64  92 122 171 219 270 330 411
#     4  10  22  42  67  94 132 182 223 276 348 423
#
# _framework density 20.341822000000001
#
# number of rings (size 3 to 8) (size 9 to 14) (size 15 to 20)
#    0.000    1.333    2.667    2.000    6.533    0.000 
#   10.800    0.667    0.000    0.000    0.000    0.000 
#    0.000    0.000    0.000    0.000    0.000    0.000 
#
# Total GULP energy -167455.239227 kJ/mol
# GULP energy per Si atom -5581.841308 kJ/mol
# Density = 2.029552 g / cm^3
# Si number density = 20.341822 Si / 1000 Ang^3
#
#
#
# Elastic Constant Matrix: (Units=GPa)
#
#
# Indices 1 2 3 4 5 6 
#
# 1 101.1724 18.1166 -3.1117 0.0000 21.3457 0.0000
# 2 18.1166 50.4086 16.2853 0.0000 4.8577 0.0000
# 3 -3.1117 16.2853 60.7461 0.0000 -0.4388 0.0000
# 4 0.0000 0.0000 0.0000 26.4883 0.0000 -5.2875
# 5 21.3457 4.8577 -0.4388 0.0000 24.4445 0.0000
# 6 0.0000 0.0000 0.0000 -5.2875 0.0000 22.3620
#
#
#
# Elastic Compliance Matrix: (Units=1/GPa)
#
#
# Indices 1 2 3 4 5 6 
#
# 1 0.012875 -0.004177 0.001704 0.000000 -0.010382 0.000000
# 2 -0.004177 0.023563 -0.006539 0.000000 -0.001152 0.000000
# 3 0.001704 -0.006539 0.018303 0.000000 0.000140 0.000000
# 4 0.000000 0.000000 0.000000 0.039623 0.000000 0.009369
# 5 -0.010382 -0.001152 0.000140 0.000000 0.050207 0.000000
# 6 0.000000 0.000000 0.000000 0.009369 0.000000 0.046934
#
#
# Mechanical properties :
#
#
# Convention : Reuss Voigt Hill
#
# Bulk Modulus (GPa) = 27.23544 30.54529 28.89036
# Shear Modulus (GPa) = 22.54612 26.72809 24.63710
#
# Velocity S-wave (km/s) = 3.33282 3.62877 3.48394
# Velocity P-wave (km/s) = 5.31302 5.71016 5.51517
#
# Compressibility (1/GPa) = 0.03671687
#
# Stress axis : x y z
#
# Youngs Moduli (GPa) = 77.66971 42.43972 54.63472
#
# Poissons Ratio (x) = 0.17729 -0.09312
# Poissons Ratio (y) = 0.32446 0.35727
# Poissons Ratio (z) = -0.13238 0.27752
#
# Static dielectric constant tensor:
#      x y z
#    x 1.748200 0.000000 0.035760 
#    y 0.000000 1.770190 0.000000 
#    z 0.035760 0.000000 1.712150 
# 
# From -- ./inp_files/145722.got.cif
#   From: 2010.05.17/outbox.cif.g08.bks.cpg/sg15_73_cif.got.tgz:145722.got - 2010.06.03 18:47:42.
