data_PCOD9275351
_publ_section_title
;
Structure prediction by ZEFSAII (Michael W. Deem and Ramdas Pophale) SiO2 
 PCOD9275351
Probable space group: C 2/C
;
_chemical_formula_sum "Si O2"
_cell_formula_units_Z 60
_cell_length_a 18.104954
_cell_length_b 22.265023
_cell_length_c 14.764839
_cell_angle_alpha 90.000000
_cell_angle_beta 30.660546
_cell_angle_gamma 90.000000
_cell_volume 3035.131293
_symmetry_space_group_name_H-M "C 2/C"
_symmetry_group_IT_number 15
_symmetry_cell_setting 'monoclinic'
loop_
_space_group_symop_operation_xyz
x,y,z
-x,y,1/2-z
-x,-y,-z
x,-y,1/2+z
1/2+x,1/2+y,z
1/2-x,1/2+y,1/2-z
1/2-x,1/2-y,-z
1/2+x,1/2-y,1/2+z
loop_
_atom_site_type_symbol
_atom_site_label
_atom_site_fract_x
_atom_site_fract_y
_atom_site_fract_z
Si Si1 0.846417 0.324066 0.584981
Si Si2 0.655923 0.790487 0.298115
Si Si3 0.225143 0.678439 0.529986
Si Si4 0.661835 0.373243 0.271667
Si Si5 0.320542 0.393856 0.607120
Si Si6 0.826350 0.814846 0.428896
Si Si7 0.000000 0.095706 0.250000
Si Si8 0.883692 0.025297 0.550255
O O1 0.713206 0.276941 0.726655
O O2 0.877976 0.334674 0.445975
O O3 0.787943 0.382236 0.696303
O O4 0.984120 0.295497 0.490109
O O5 0.684287 0.829204 0.177357
O O6 0.756916 0.817967 0.267973
O O7 0.250000 0.750000 0.500000
O O8 0.367746 0.639184 0.363490
O O9 0.486212 0.376174 0.459678
O O10 0.698149 0.362193 0.127838
O O11 0.705835 0.429480 0.289996
O O12 0.280502 0.348702 0.568704
O O13 0.313012 0.463731 0.588984
O O14 0.750000 0.750000 0.500000
O O15 0.000000 0.804712 0.250000
O O16 0.952866 0.058225 0.389444
O O17 0.000000 0.000000 0.500000
#
# Coordination Sequence:
#
# PCOD9275351 Si02
#       8
#     8   8   8   8   8   8   4   8
#     4  11  23  37  59  86 130 164 209 261 317 385
#     4  11  22  37  59  90 125 169 206 260 325 385
#     4  10  23  34  59  90 130 160 207 254 315 381
#     4  10  20  39  60  89 124 160 207 265 320 378
#     4  10  22  40  60  94 124 163 215 266 323 377
#     4  10  22  38  62  90 127 160 207 265 324 380
#     4  12  22  40  68  98 126 174 216 258 324 388
#     4  10  22  37  65  94 125 165 215 267 311 380
#
# _framework density 19.768502000000002
#
# number of rings (size 3 to 8) (size 9 to 14) (size 15 to 20)
#    0.000    1.600    1.333    3.600   12.133    3.200 
#    0.000    0.667    0.000    0.000    0.000    0.000 
#    0.000    0.000    0.000    0.000    0.000    0.000 
#
# Total GULP energy -167060.922711 kJ/mol
# GULP energy per Si atom -5568.697424 kJ/mol
# Density = 1.972351 g / cm^3
# Si number density = 19.768502 Si / 1000 Ang^3
#
#
#
# Elastic Constant Matrix: (Units=GPa)
#
#
# Indices 1 2 3 4 5 6 
#
# 1 91.7250 34.2656 20.5064 0.0032 15.7690 -0.0014
# 2 34.2656 111.0683 33.4260 0.0034 7.8378 -0.0023
# 3 20.5064 33.4260 56.3171 0.0077 8.1422 -0.0063
# 4 0.0032 0.0034 0.0077 30.4383 -0.0067 5.8453
# 5 15.7690 7.8378 8.1422 -0.0067 27.2564 0.0051
# 6 -0.0014 -0.0023 -0.0063 5.8453 0.0051 35.9888
#
#
#
# Elastic Compliance Matrix: (Units=1/GPa)
#
#
# Indices 1 2 3 4 5 6 
#
# 1 0.013644 -0.003095 -0.002214 -0.000002 -0.006342 0.000001
# 2 -0.003095 0.011705 -0.005845 0.000001 0.000171 -0.000001
# 3 -0.002214 -0.005845 0.022579 -0.000007 -0.003783 0.000005
# 4 -0.000002 0.000001 -0.000007 0.033911 0.000012 -0.005508
# 5 -0.006342 0.000171 -0.003783 0.000012 0.041439 -0.000009
# 6 0.000001 -0.000001 0.000005 -0.005508 -0.000009 0.028681
#
#
# Mechanical properties :
#
#
# Convention : Reuss Voigt Hill
#
# Bulk Modulus (GPa) = 39.03308 48.38961 43.71135
# Shear Modulus (GPa) = 27.35115 30.13087 28.74101
#
# Velocity S-wave (km/s) = 3.72368 3.90832 3.81711
# Velocity P-wave (km/s) = 6.18673 6.70059 6.44878
#
# Compressibility (1/GPa) = 0.02561929
#
# Stress axis : x y z
#
# Youngs Moduli (GPa) = 73.29373 85.43001 44.28895
#
# Poissons Ratio (x) = 0.26444 0.09805
# Poissons Ratio (y) = 0.22688 0.25888
# Poissons Ratio (z) = 0.16226 0.49935
#
# Static dielectric constant tensor:
#      x y z
#    x 1.679810 -0.000070 0.046890 
#    y -0.000070 1.745220 0.000040 
#    z 0.046890 0.000040 1.698770 
# 
# From -- ./inp_files/164098.got.cif
#   From: 2010.05.17/outbox.cif.g08.bks.cpg/sg15_83_cif.got.tgz:164098.got - 2010.06.03 18:47:42.
