data_PCOD9275273
_publ_section_title
;
Structure prediction by ZEFSAII (Michael W. Deem and Ramdas Pophale) SiO2 
 PCOD9275273
Probable space group: C 2/C
;
_chemical_formula_sum "Si O2"
_cell_formula_units_Z 64
_cell_length_a 23.171541
_cell_length_b 8.348546
_cell_length_c 15.965569
_cell_angle_alpha 90.000000
_cell_angle_beta 91.362904
_cell_angle_gamma 90.000000
_cell_volume 3087.644438
_symmetry_space_group_name_H-M "C 2/C"
_symmetry_group_IT_number 15
_symmetry_cell_setting 'monoclinic'
loop_
_space_group_symop_operation_xyz
x,y,z
-x,y,1/2-z
-x,-y,-z
x,-y,1/2+z
1/2+x,1/2+y,z
1/2-x,1/2+y,1/2-z
1/2-x,1/2-y,-z
1/2+x,1/2-y,1/2+z
loop_
_atom_site_type_symbol
_atom_site_label
_atom_site_fract_x
_atom_site_fract_y
_atom_site_fract_z
Si Si1 0.134273 0.925785 0.264886
Si Si2 0.842262 0.394595 0.206087
Si Si3 0.893743 0.810644 0.014611
Si Si4 0.204371 0.297469 0.873124
Si Si5 0.604141 0.351534 0.907777
Si Si6 0.062950 0.383169 0.713309
Si Si7 0.481731 0.176339 0.471193
Si Si8 0.828322 0.828011 0.858048
O O1 0.189039 0.862701 0.320111
O O2 0.094649 0.773077 0.249956
O O3 0.098098 0.054761 0.318402
O O4 0.155970 0.000188 0.179418
O O5 0.803028 0.546475 0.184821
O O6 0.854543 0.292804 0.122045
O O7 0.899952 0.467828 0.250883
O O8 0.817596 0.278173 0.275616
O O9 0.881837 0.777052 0.917161
O O10 0.958993 0.773866 0.043624
O O11 0.848404 0.702043 0.063458
O O12 0.878445 0.997297 0.032897
O O13 0.269363 0.310315 0.907995
O O14 0.552392 0.267411 0.956066
O O15 0.055789 0.351614 0.613868
O O16 0.000000 0.397828 0.750000
O O17 0.500000 0.000000 0.500000
#
# Coordination Sequence:
#
# PCOD9275273 Si02
#       8
#     8   8   8   8   8   8   8   8
#     4   9  21  37  58  85 114 148 192 233 280 338
#     4  10  22  38  60  85 112 146 193 235 279 339
#     4  11  23  38  57  85 117 151 189 231 282 341
#     4  10  20  39  59  81 114 151 188 238 285 325
#     4  10  21  39  58  83 118 149 181 231 287 341
#     4  11  21  38  59  84 115 151 188 233 282 338
#     4  12  23  38  59  84 116 152 185 231 288 339
#     4  11  21  37  59  85 112 150 194 236 278 331
#
# _framework density 20.727775000000001
#
# number of rings (size 3 to 8) (size 9 to 14) (size 15 to 20)
#    0.000    1.500    0.000    6.750    0.000    1.000 
#    0.000    5.625    0.000    0.000    0.000    0.000 
#    0.000    0.000    0.000    0.000    0.000    0.000 
#
# Total GULP energy -178376.769044 kJ/mol
# GULP energy per Si atom -5574.274033 kJ/mol
# Density = 2.068060 g / cm^3
# Si number density = 20.727775 Si / 1000 Ang^3
#
#
#
# Elastic Constant Matrix: (Units=GPa)
#
#
# Indices 1 2 3 4 5 6 
#
# 1 56.0880 0.8347 1.6813 0.0000 -6.4842 0.0000
# 2 0.8347 73.0070 4.0234 0.0000 -5.2854 0.0000
# 3 1.6813 4.0234 61.1056 0.0000 -6.4055 0.0000
# 4 0.0000 0.0000 0.0000 31.8368 0.0000 -3.0288
# 5 -6.4842 -5.2854 -6.4055 0.0000 33.9591 0.0000
# 6 0.0000 0.0000 0.0000 -3.0288 0.0000 14.0866
#
#
#
# Elastic Compliance Matrix: (Units=1/GPa)
#
#
# Indices 1 2 3 4 5 6 
#
# 1 0.018233 0.000050 -0.000142 0.000000 0.003462 0.000000
# 2 0.000050 0.013883 -0.000702 0.000000 0.002038 0.000000
# 3 -0.000142 -0.000702 0.016732 0.000000 0.003020 0.000000
# 4 0.000000 0.000000 0.000000 0.032066 0.000000 0.006895
# 5 0.003462 0.002038 0.003020 0.000000 0.030995 0.000000
# 6 0.000000 0.000000 0.000000 0.006895 0.000000 0.072472
#
#
# Mechanical properties :
#
#
# Convention : Reuss Voigt Hill
#
# Bulk Modulus (GPa) = 21.15954 22.58660 21.87307
# Shear Modulus (GPa) = 24.78665 28.22060 26.50363
#
# Velocity S-wave (km/s) = 3.46181 3.69384 3.57970
# Velocity P-wave (km/s) = 5.11950 5.39565 5.25939
#
# Compressibility (1/GPa) = 0.04726000
#
# Stress axis : x y z
#
# Youngs Moduli (GPa) = 54.84585 72.03070 59.76654
#
# Poissons Ratio (x) = -0.00360 0.00849
# Poissons Ratio (y) = -0.00274 0.04195
# Poissons Ratio (z) = 0.00779 0.05055
#
# Static dielectric constant tensor:
#      x y z
#    x 1.753460 0.000000 -0.012710 
#    y 0.000000 1.743070 0.000000 
#    z -0.012710 0.000000 1.778370 
# 
# From -- ./inp_files/172403.got.cif
#   From: 2010.05.17/outbox.cif.g08.bks.cpg/sg15_87_cif.got.tgz:172403.got - 2010.06.03 18:47:42.
