data_PCOD9275812
_publ_section_title
;
Structure prediction by ZEFSAII (Michael W. Deem and Ramdas Pophale) SiO2 
 PCOD9275812
Probable space group: C 2/C
;
_chemical_formula_sum "Si O2"
_cell_formula_units_Z 36
_cell_length_a 11.801783
_cell_length_b 7.878379
_cell_length_c 15.023410
_cell_angle_alpha 90.000000
_cell_angle_beta 66.093428
_cell_angle_gamma 90.000000
_cell_volume 1277.020248
_symmetry_space_group_name_H-M "C 2/C"
_symmetry_group_IT_number 15
_symmetry_cell_setting 'monoclinic'
loop_
_space_group_symop_operation_xyz
x,y,z
-x,y,1/2-z
-x,-y,-z
x,-y,1/2+z
1/2+x,1/2+y,z
1/2-x,1/2+y,1/2-z
1/2-x,1/2-y,-z
1/2+x,1/2-y,1/2+z
loop_
_atom_site_type_symbol
_atom_site_label
_atom_site_fract_x
_atom_site_fract_y
_atom_site_fract_z
Si Si1 0.893101 0.640324 0.046188
Si Si2 0.633949 0.260952 0.173448
Si Si3 0.788211 0.515190 0.752267
Si Si4 0.000000 0.769782 0.750000
Si Si5 0.364488 0.460373 0.954301
O O1 0.846994 0.608843 0.159919
O O2 0.780140 0.583822 0.017826
O O3 0.909336 0.841455 0.021833
O O4 0.000000 0.500000 0.000000
O O5 0.500000 0.202851 0.250000
O O6 0.680046 0.402646 0.229058
O O7 0.730308 0.105620 0.156272
O O8 0.626668 0.341929 0.077870
O O9 0.887590 0.655307 0.749176
O O10 0.053534 0.874332 0.650779
#
# Coordination Sequence:
#
# PCOD9275812 Si02
#       5
#     8   8   8   4   8
#     4  10  20  39  64  99 134 176 220 274 343 399
#     4  11  23  41  64  97 130 171 229 276 324 403
#     4  11  23  39  67  95 134 175 223 278 337 396
#     4  12  20  40  70  98 132 180 226 280 332 400
#     4  10  22  37  66  97 133 176 221 277 338 394
#
# _framework density 28.190624
#
# number of rings (size 3 to 8) (size 9 to 14) (size 15 to 20)
#    0.000    1.333    4.444    2.667    0.000    0.000 
#    0.000    1.111    0.000   34.667    0.000    0.000 
#    0.000    0.000    0.000    0.000    0.000    0.000 
#
# Total GULP energy -100785.586359 kJ/mol
# GULP energy per Si atom -5599.199242 kJ/mol
# Density = 2.812646 g / cm^3
# Si number density = 28.190624 Si / 1000 Ang^3
#
#
#
# Elastic Constant Matrix: (Units=GPa)
#
#
# Indices 1 2 3 4 5 6 
#
# 1 144.7287 31.6797 11.2459 0.0000 19.6087 0.0000
# 2 31.6797 123.9485 23.8294 0.0000 -0.2511 0.0000
# 3 11.2459 23.8294 60.1110 0.0000 12.8386 0.0000
# 4 0.0000 0.0000 0.0000 40.3695 0.0000 10.4225
# 5 19.6087 -0.2511 12.8386 0.0000 42.6481 0.0000
# 6 0.0000 0.0000 0.0000 10.4225 0.0000 71.4348
#
#
#
# Elastic Compliance Matrix: (Units=1/GPa)
#
#
# Indices 1 2 3 4 5 6 
#
# 1 0.007840 -0.002034 0.000120 0.000000 -0.003653 0.000000
# 2 -0.002034 0.009316 -0.003766 0.000000 0.002124 0.000000
# 3 0.000120 -0.003766 0.019368 0.000000 -0.005908 0.000000
# 4 0.000000 0.000000 0.000000 0.025741 0.000000 -0.003756
# 5 -0.003653 0.002124 -0.005908 0.000000 0.026918 0.000000
# 6 0.000000 0.000000 0.000000 -0.003756 0.000000 0.014547
#
#
# Mechanical properties :
#
#
# Convention : Reuss Voigt Hill
#
# Bulk Modulus (GPa) = 39.74022 51.36645 45.55333
# Shear Modulus (GPa) = 40.49246 48.35935 44.42591
#
# Velocity S-wave (km/s) = 3.79407 4.14628 3.97408
# Velocity P-wave (km/s) = 5.77242 6.41739 6.10343
#
# Compressibility (1/GPa) = 0.02516342
#
# Stress axis : x y z
#
# Youngs Moduli (GPa) = 127.54477 107.34012 51.63087
#
# Poissons Ratio (x) = 0.21837 -0.00619
# Poissons Ratio (y) = 0.25947 0.19445
# Poissons Ratio (z) = -0.01528 0.40426
#
# Static dielectric constant tensor:
#      x y z
#    x 2.174590 0.000000 0.002540 
#    y 0.000000 2.359290 0.000000 
#    z 0.002540 0.000000 2.206340 
# 
# From -- ./inp_files/194885.got.cif
#   From: 2010.05.17/outbox.cif.g08.bks.cpg/sg15_98_cif.got.tgz:194885.got - 2010.06.03 18:47:42.
