data_PCOD9275380
_publ_section_title
;
Structure prediction by ZEFSAII (Michael W. Deem and Ramdas Pophale) SiO2 
 PCOD9275380
Probable space group: C 2/C
;
_chemical_formula_sum "Si O2"
_cell_formula_units_Z 64
_cell_length_a 8.341935
_cell_length_b 15.063115
_cell_length_c 26.835166
_cell_angle_alpha 90.000000
_cell_angle_beta 110.576066
_cell_angle_gamma 90.000000
_cell_volume 3156.875815
_symmetry_space_group_name_H-M "C 2/C"
_symmetry_group_IT_number 15
_symmetry_cell_setting 'monoclinic'
loop_
_space_group_symop_operation_xyz
x,y,z
-x,y,1/2-z
-x,-y,-z
x,-y,1/2+z
1/2+x,1/2+y,z
1/2-x,1/2+y,1/2-z
1/2-x,1/2-y,-z
1/2+x,1/2-y,1/2+z
loop_
_atom_site_type_symbol
_atom_site_label
_atom_site_fract_x
_atom_site_fract_y
_atom_site_fract_z
Si Si1 0.667112 0.955076 0.041636
Si Si2 0.223357 0.194563 0.606455
Si Si3 0.780885 0.107169 0.129352
Si Si4 0.959802 0.103659 0.502463
Si Si5 0.368662 0.826654 0.369758
Si Si6 0.279213 0.967443 0.177035
Si Si7 0.375649 0.637625 0.382200
Si Si8 0.188237 0.477800 0.207689
O O1 0.782841 0.904741 0.013611
O O2 0.634027 0.882148 0.079980
O O3 0.752248 0.037291 0.081057
O O4 0.500000 0.000000 0.000000
O O5 0.186050 0.298278 0.612341
O O6 0.426935 0.187094 0.616919
O O7 0.203529 0.126066 0.650224
O O8 0.103329 0.155110 0.549913
O O9 0.979773 0.130076 0.144532
O O10 0.732960 0.057668 0.175102
O O11 0.946407 0.144257 0.446046
O O12 0.000000 0.000000 0.500000
O O13 0.282171 0.730505 0.363202
O O14 0.277971 0.886656 0.318164
O O15 0.484272 0.970476 0.194667
O O16 0.229725 0.984737 0.228911
O O17 0.222323 0.045690 0.133963
#
# Coordination Sequence:
#
# PCOD9275380 Si02
#       8
#     8   8   8   8   8   8   8   8
#     4  11  23  37  56  82 118 159 193 234 287 340
#     4  10  21  38  61  84 118 154 193 237 287 351
#     4  10  22  38  58  88 115 150 197 237 287 348
#     4  12  22  37  57  86 122 155 193 235 289 347
#     4   9  22  39  57  86 116 150 196 239 285 348
#     4  10  20  39  61  84 110 154 192 237 298 339
#     4  11  23  37  60  88 117 152 195 239 288 349
#     4   9  21  40  61  81 115 148 192 245 290 346
#
# _framework density 20.273209000000001
#
# number of rings (size 3 to 8) (size 9 to 14) (size 15 to 20)
#    0.000    1.750    2.500    0.750    5.250    4.000 
#    0.000    2.500    0.000    0.000    0.000    0.000 
#    0.000    0.000    0.000    0.000    0.000    0.000 
#
# Total GULP energy -178431.726803 kJ/mol
# GULP energy per Si atom -5575.991463 kJ/mol
# Density = 2.022707 g / cm^3
# Si number density = 20.273209 Si / 1000 Ang^3
#
#
#
# Elastic Constant Matrix: (Units=GPa)
#
#
# Indices 1 2 3 4 5 6 
#
# 1 22.4834 8.6648 14.0277 0.0000 -14.5124 0.0000
# 2 8.6648 138.7145 28.8024 0.0000 -13.4082 0.0000
# 3 14.0277 28.8024 97.2785 0.0000 -21.0978 0.0000
# 4 0.0000 0.0000 0.0000 11.2865 0.0000 -2.8434
# 5 -14.5124 -13.4082 -21.0978 0.0000 26.1380 0.0000
# 6 0.0000 0.0000 0.0000 -2.8434 0.0000 19.8140
#
#
#
# Elastic Compliance Matrix: (Units=1/GPa)
#
#
# Indices 1 2 3 4 5 6 
#
# 1 0.069661 -0.000383 -0.001923 0.000000 0.036929 0.000000
# 2 -0.000383 0.007826 -0.001742 0.000000 0.002396 0.000000
# 3 -0.001923 -0.001742 0.012907 0.000000 0.008457 0.000000
# 4 0.000000 0.000000 0.000000 0.091925 0.000000 0.013192
# 5 0.036929 0.002396 0.008457 0.000000 0.066818 0.000000
# 6 0.000000 0.000000 0.000000 0.013192 0.000000 0.052362
#
#
# Mechanical properties :
#
#
# Convention : Reuss Voigt Hill
#
# Bulk Modulus (GPa) = 12.15079 40.16293 26.15686
# Shear Modulus (GPa) = 14.83556 25.24646 20.04101
#
# Velocity S-wave (km/s) = 2.70808 3.53273 3.14753
# Velocity P-wave (km/s) = 3.97301 6.04103 5.11267
#
# Compressibility (1/GPa) = 0.08229918
#
# Stress axis : x y z
#
# Youngs Moduli (GPa) = 14.35518 127.77369 77.47707
#
# Poissons Ratio (x) = 0.04888 0.14897
# Poissons Ratio (y) = 0.00549 0.13500
# Poissons Ratio (z) = 0.02760 0.22264
#
# Static dielectric constant tensor:
#      x y z
#    x 1.755740 0.000000 0.002600 
#    y 0.000000 1.745920 0.000000 
#    z 0.002600 0.000000 1.709690 
# 
# From -- ./inp_files/288820.got.cif
#   From: 2010.05.17/outbox.cif.g08.bks.cpg/sg15_145_cif.got.tgz:288820.got - 2010.06.03 18:47:42.
