data_PCOD9275888
_publ_section_title
;
Structure prediction by ZEFSAII (Michael W. Deem and Ramdas Pophale) SiO2 
 PCOD9275888
Probable space group: C 2/C
;
_chemical_formula_sum "Si O2"
_cell_formula_units_Z 32
_cell_length_a 21.407641
_cell_length_b 9.874003
_cell_length_c 13.571838
_cell_angle_alpha 90.000000
_cell_angle_beta 152.438381
_cell_angle_gamma 90.000000
_cell_volume 1327.401732
_symmetry_space_group_name_H-M "C 2/C"
_symmetry_group_IT_number 15
_symmetry_cell_setting 'monoclinic'
loop_
_space_group_symop_operation_xyz
x,y,z
-x,y,1/2-z
-x,-y,-z
x,-y,1/2+z
1/2+x,1/2+y,z
1/2-x,1/2+y,1/2-z
1/2-x,1/2-y,-z
1/2+x,1/2-y,1/2+z
loop_
_atom_site_type_symbol
_atom_site_label
_atom_site_fract_x
_atom_site_fract_y
_atom_site_fract_z
Si Si1 0.293445 0.981587 0.802882
Si Si2 0.023784 0.668728 0.552912
Si Si3 0.993492 0.928704 0.849779
Si Si4 0.788675 0.594896 0.521405
O O1 0.872215 0.376676 0.386722
O O2 0.134551 0.996327 0.560218
O O3 0.368812 0.876636 0.835941
O O4 0.313429 0.929789 0.941883
O O5 0.019401 0.823899 0.578143
O O6 0.082690 0.582222 0.728984
O O7 0.000000 0.860637 0.750000
O O8 0.844595 0.994557 0.640499
O O9 0.750000 0.750000 0.500000
#
# Coordination Sequence:
#
# PCOD9275888 Si02
#       4
#     8   8   8   8
#     4  11  22  36  62 100 130 165 219 262 325 366
#     4  10  22  38  63  94 129 171 214 267 312 382
#     4  11  21  38  65  97 129 170 218 263 310 383
#     4  10  20  39  65  94 121 165 220 268 307 381
#
# _framework density 24.107244000000001
#
# number of rings (size 3 to 8) (size 9 to 14) (size 15 to 20)
#    0.000    1.500    2.500    4.500    3.500    0.000 
#    0.000    0.000    0.000   16.500    0.000    0.000 
#    0.000    0.000    0.000    0.000    0.000    0.000 
#
# Total GULP energy -89080.107056 kJ/mol
# GULP energy per Si atom -5567.506691 kJ/mol
# Density = 2.405238 g / cm^3
# Si number density = 24.107244 Si / 1000 Ang^3
#
#
#
# Elastic Constant Matrix: (Units=GPa)
#
#
# Indices 1 2 3 4 5 6 
#
# 1 157.9340 32.6418 32.2029 0.0000 8.7053 0.0000
# 2 32.6418 27.8334 24.0294 0.0000 -6.0255 0.0000
# 3 32.2029 24.0294 154.5096 0.0000 39.7979 0.0000
# 4 0.0000 0.0000 0.0000 36.2310 0.0000 3.4097
# 5 8.7053 -6.0255 39.7979 0.0000 49.7826 0.0000
# 6 0.0000 0.0000 0.0000 3.4097 0.0000 47.4774
#
#
#
# Elastic Compliance Matrix: (Units=1/GPa)
#
#
# Indices 1 2 3 4 5 6 
#
# 1 0.008826 -0.012057 0.001019 0.000000 -0.003817 0.000000
# 2 -0.012057 0.065678 -0.012961 0.000000 0.020419 0.000000
# 3 0.001019 -0.012961 0.010988 0.000000 -0.010531 0.000000
# 4 0.000000 0.000000 0.000000 0.027789 0.000000 -0.001996
# 5 -0.003817 0.020419 -0.010531 0.000000 0.031645 0.000000
# 6 0.000000 0.000000 0.000000 -0.001996 0.000000 0.021206
#
#
# Mechanical properties :
#
#
# Convention : Reuss Voigt Hill
#
# Bulk Modulus (GPa) = 26.67089 57.55836 42.11463
# Shear Modulus (GPa) = 22.06253 43.45839 32.76046
#
# Velocity S-wave (km/s) = 3.02848 4.25044 3.69039
# Velocity P-wave (km/s) = 4.82870 6.92937 5.97212
#
# Compressibility (1/GPa) = 0.03749406
#
# Stress axis : x y z
#
# Youngs Moduli (GPa) = 113.29644 15.22578 91.00856
#
# Poissons Ratio (x) = 0.18358 -0.09272
# Poissons Ratio (y) = 1.36603 1.17955
# Poissons Ratio (z) = -0.11542 0.19734
#
# Static dielectric constant tensor:
#      x y z
#    x 1.968270 0.000000 -0.019460 
#    y 0.000000 2.069880 0.000000 
#    z -0.019460 0.000000 2.109010 
# 
# From -- ./inp_files/222378.got.cif
#   From: 2010.05.17/outbox.cif.g08.bks.cpg/sg15_112_cif.got.tgz:222378.got - 2010.06.03 18:47:42.
