data_PCOD9275536
_publ_section_title
;
Structure prediction by ZEFSAII (Michael W. Deem and Ramdas Pophale) SiO2 
 PCOD9275536
Probable space group: C 2/C
;
_chemical_formula_sum "Si O2"
_cell_formula_units_Z 48
_cell_length_a 8.530133
_cell_length_b 29.832833
_cell_length_c 13.340755
_cell_angle_alpha 90.000000
_cell_angle_beta 41.576777
_cell_angle_gamma 90.000000
_cell_volume 2252.953242
_symmetry_space_group_name_H-M "C 2/C"
_symmetry_group_IT_number 15
_symmetry_cell_setting 'monoclinic'
loop_
_space_group_symop_operation_xyz
x,y,z
-x,y,1/2-z
-x,-y,-z
x,-y,1/2+z
1/2+x,1/2+y,z
1/2-x,1/2+y,1/2-z
1/2-x,1/2-y,-z
1/2+x,1/2-y,1/2+z
loop_
_atom_site_type_symbol
_atom_site_label
_atom_site_fract_x
_atom_site_fract_y
_atom_site_fract_z
Si Si1 0.000000 0.080252 0.250000
Si Si2 0.117257 0.261695 0.961095
Si Si3 0.000000 0.387419 0.250000
Si Si4 0.462839 0.551378 0.490619
Si Si5 0.293588 0.153607 0.203279
Si Si6 0.762465 0.183744 0.749715
Si Si7 0.317659 0.366986 0.525537
O O1 0.016769 0.053703 0.139288
O O2 0.216779 0.113722 0.167246
O O3 0.239612 0.300742 0.838900
O O4 0.145455 0.218531 0.878290
O O5 0.250000 0.250000 0.000000
O O6 0.860035 0.283661 0.109920
O O7 0.777595 0.420478 0.371712
O O8 0.937242 0.351742 0.191745
O O9 0.500000 0.500000 0.500000
O O10 0.653322 0.580562 0.462639
O O11 0.149751 0.152538 0.376591
O O12 0.562356 0.146114 0.108032
O O13 0.991843 0.151734 0.643883
#
# Coordination Sequence:
#
# PCOD9275536 Si02
#       7
#     4   8   4   8   8   8   8
#     4  10  22  39  70  96 122 170 222 255 328 404
#     4  12  23  35  60  93 126 166 224 266 311 378
#     4  10  20  39  62  92 126 168 208 265 324 386
#     4  10  22  42  68  98 132 166 214 272 331 401
#     4  10  22  40  65  92 125 170 221 267 322 389
#     4  11  22  37  60  90 129 170 217 264 323 375
#     4   9  22  43  63  91 132 171 211 274 338 380
#
# _framework density 21.305368999999999
#
# number of rings (size 3 to 8) (size 9 to 14) (size 15 to 20)
#    0.000    1.667    1.667    2.000    7.000    4.000 
#    0.000    6.667    0.000    0.000    0.000    0.000 
#    0.000    0.000    0.000    0.000    0.000    0.000 
#
# Total GULP energy -133841.856863 kJ/mol
# GULP energy per Si atom -5576.744036 kJ/mol
# Density = 2.125688 g / cm^3
# Si number density = 21.305369 Si / 1000 Ang^3
#
#
#
# Elastic Constant Matrix: (Units=GPa)
#
#
# Indices 1 2 3 4 5 6 
#
# 1 79.3093 53.3839 20.8482 0.0000 12.3936 0.0000
# 2 53.3839 176.4879 56.7067 0.0000 24.6564 0.0000
# 3 20.8482 56.7067 80.0422 0.0000 5.5244 0.0000
# 4 0.0000 0.0000 0.0000 23.0379 0.0000 4.9112
# 5 12.3936 24.6564 5.5244 0.0000 28.0911 0.0000
# 6 0.0000 0.0000 0.0000 4.9112 0.0000 20.8813
#
#
#
# Elastic Compliance Matrix: (Units=1/GPa)
#
#
# Indices 1 2 3 4 5 6 
#
# 1 0.016158 -0.004068 -0.001095 0.000000 -0.003342 0.000000
# 2 -0.004068 0.009303 -0.005162 0.000000 -0.005356 0.000000
# 3 -0.001095 -0.005162 0.016311 0.000000 0.001806 0.000000
# 4 0.000000 0.000000 0.000000 0.045698 0.000000 -0.010748
# 5 -0.003342 -0.005356 0.001806 0.000000 0.041419 0.000000
# 6 0.000000 0.000000 0.000000 -0.010748 0.000000 0.050418
#
#
# Mechanical properties :
#
#
# Convention : Reuss Voigt Hill
#
# Bulk Modulus (GPa) = 47.34701 66.41299 56.88000
# Shear Modulus (GPa) = 24.15480 28.06210 26.10845
#
# Velocity S-wave (km/s) = 3.37076 3.63318 3.50443
# Velocity P-wave (km/s) = 6.11724 6.98853 6.56735
#
# Compressibility (1/GPa) = 0.02112066
#
# Stress axis : x y z
#
# Youngs Moduli (GPa) = 61.89028 107.48650 61.30829
#
# Poissons Ratio (x) = 0.43730 0.06716
# Poissons Ratio (y) = 0.25180 0.31646
# Poissons Ratio (z) = 0.06780 0.55482
#
# Static dielectric constant tensor:
#      x y z
#    x 1.839630 0.000000 0.009240 
#    y 0.000000 1.765700 0.000000 
#    z 0.009240 0.000000 1.870000 
# 
# From -- ./inp_files/138952.got.cif
#   From: 2010.05.17/outbox.cif.g08.bks.cpg/sg15_70_cif.got.tgz:138952.got - 2010.06.03 18:47:42.
