data_PCOD9275164
_publ_section_title
;
Structure prediction by ZEFSAII (Michael W. Deem and Ramdas Pophale) SiO2 
 PCOD9275164
Probable space group: C 2/C
;
_chemical_formula_sum "Si O2"
_cell_formula_units_Z 52
_cell_length_a 9.863236
_cell_length_b 11.538534
_cell_length_c 20.715019
_cell_angle_alpha 90.000000
_cell_angle_beta 122.399193
_cell_angle_gamma 90.000000
_cell_volume 1990.537804
_symmetry_space_group_name_H-M "C 2/C"
_symmetry_group_IT_number 15
_symmetry_cell_setting 'monoclinic'
loop_
_space_group_symop_operation_xyz
x,y,z
-x,y,1/2-z
-x,-y,-z
x,-y,1/2+z
1/2+x,1/2+y,z
1/2-x,1/2+y,1/2-z
1/2-x,1/2-y,-z
1/2+x,1/2-y,1/2+z
loop_
_atom_site_type_symbol
_atom_site_label
_atom_site_fract_x
_atom_site_fract_y
_atom_site_fract_z
Si Si1 0.213745 0.010609 0.425125
Si Si2 0.288667 0.867311 0.815382
Si Si3 0.650869 0.552977 0.157613
Si Si4 0.822379 0.734947 0.915982
Si Si5 0.500000 0.182048 0.750000
Si Si6 0.074315 0.191542 0.577452
Si Si7 0.874405 0.631401 0.584145
O O1 0.301494 0.062881 0.385215
O O2 0.298091 0.038022 0.515027
O O3 0.039166 0.072023 0.377373
O O4 0.214850 0.873496 0.409729
O O5 0.248466 0.955942 0.748658
O O6 0.144953 0.771866 0.772676
O O7 0.432252 0.777267 0.862962
O O8 0.735680 0.658651 0.142495
O O9 0.626141 0.436421 0.111206
O O10 0.973476 0.682276 0.914690
O O11 0.910783 0.797045 0.997938
O O12 0.449962 0.107909 0.674689
O O13 0.223283 0.215159 0.564990
#
# Coordination Sequence:
#
# PCOD9275164 Si02
#       7
#     8   8   8   8   4   8   8
#     4  12  25  42  74  99 138 183 233 288 343 423
#     4  11  22  42  68 102 128 182 229 282 348 405
#     4  12  25  46  66 101 148 178 232 283 351 426
#     4  12  24  44  71 100 132 188 235 283 351 414
#     4  10  20  38  70  92 130 180 224 284 350 402
#     4  11  25  43  71  99 136 186 226 291 354 406
#     4  11  22  43  66 100 131 172 239 287 335 418
#
# _framework density 26.123595000000002
#
# number of rings (size 3 to 8) (size 9 to 14) (size 15 to 20)
#    0.000    0.615    6.154    2.308    2.154    0.615 
#    0.000    0.000    0.000    1.846    0.000    0.000 
#    0.000    0.000    0.000    0.000    0.000    0.000 
#
# Total GULP energy -145195.416980 kJ/mol
# GULP energy per Si atom -5584.439115 kJ/mol
# Density = 2.606414 g / cm^3
# Si number density = 26.123595 Si / 1000 Ang^3
#
#
#
# Elastic Constant Matrix: (Units=GPa)
#
#
# Indices 1 2 3 4 5 6 
#
# 1 35.4337 18.5337 13.4297 0.0000 1.0010 0.0000
# 2 18.5337 135.3821 51.0172 0.0000 -10.7440 0.0000
# 3 13.4297 51.0172 178.2767 0.0000 -20.4117 0.0000
# 4 0.0000 0.0000 0.0000 39.9991 0.0000 9.2153
# 5 1.0010 -10.7440 -20.4117 0.0000 14.3029 0.0000
# 6 0.0000 0.0000 0.0000 9.2153 0.0000 30.3885
#
#
#
# Elastic Compliance Matrix: (Units=1/GPa)
#
#
# Indices 1 2 3 4 5 6 
#
# 1 0.031446 -0.004165 -0.002136 0.000000 -0.008378 0.000000
# 2 -0.004165 0.008971 -0.001731 0.000000 0.004559 0.000000
# 3 -0.002136 -0.001731 0.007332 0.000000 0.009312 0.000000
# 4 0.000000 0.000000 0.000000 0.026878 0.000000 -0.008151
# 5 -0.008378 0.004559 0.009312 0.000000 0.087217 0.000000
# 6 0.000000 0.000000 0.000000 -0.008151 0.000000 0.035379
#
#
# Mechanical properties :
#
#
# Convention : Reuss Voigt Hill
#
# Bulk Modulus (GPa) = 31.56150 57.22820 44.39485
# Shear Modulus (GPa) = 22.33641 34.67889 28.50765
#
# Velocity S-wave (km/s) = 2.92726 3.64743 3.30701
# Velocity P-wave (km/s) = 4.85108 6.30021 5.62252
#
# Compressibility (1/GPa) = 0.03168417
#
# Stress axis : x y z
#
# Youngs Moduli (GPa) = 31.80010 111.47058 136.39072
#
# Poissons Ratio (x) = 0.46426 0.29137
# Poissons Ratio (y) = 0.13244 0.23616
# Poissons Ratio (z) = 0.06793 0.19301
#
# Static dielectric constant tensor:
#      x y z
#    x 2.214250 0.000000 -0.094700 
#    y 0.000000 2.130880 0.000000 
#    z -0.094700 0.000000 2.066260 
# 
# From -- ./inp_files/237698.got.cif
#   From: 2010.05.17/outbox.cif.g08.bks.cpg/sg15_119_cif.got.tgz:237698.got - 2010.06.03 18:47:42.
