data_PCOD9275873
_publ_section_title
;
Structure prediction by ZEFSAII (Michael W. Deem and Ramdas Pophale) SiO2 
 PCOD9275873
Probable space group: C 2/C
;
_chemical_formula_sum "Si O2"
_cell_formula_units_Z 64
_cell_length_a 18.250743
_cell_length_b 14.584165
_cell_length_c 15.475448
_cell_angle_alpha 90.000000
_cell_angle_beta 136.573636
_cell_angle_gamma 90.000000
_cell_volume 2831.578632
_symmetry_space_group_name_H-M "C 2/C"
_symmetry_group_IT_number 15
_symmetry_cell_setting 'monoclinic'
loop_
_space_group_symop_operation_xyz
x,y,z
-x,y,1/2-z
-x,-y,-z
x,-y,1/2+z
1/2+x,1/2+y,z
1/2-x,1/2+y,1/2-z
1/2-x,1/2-y,-z
1/2+x,1/2-y,1/2+z
loop_
_atom_site_type_symbol
_atom_site_label
_atom_site_fract_x
_atom_site_fract_y
_atom_site_fract_z
Si Si1 0.400118 0.627402 0.727415
Si Si2 0.108178 0.738183 0.574320
Si Si3 0.478221 0.696555 0.322745
Si Si4 0.946490 0.323199 0.787619
Si Si5 0.280096 0.441897 0.615596
Si Si6 0.714509 0.617542 0.709770
Si Si7 0.237421 0.411804 0.767536
Si Si8 0.716377 0.335110 0.030179
O O1 0.500000 0.606300 0.750000
O O2 0.380489 0.734860 0.694833
O O3 0.317940 0.545779 0.640581
O O4 0.394647 0.624976 0.829035
O O5 0.190852 0.653367 0.648019
O O6 0.176724 0.833231 0.633607
O O7 0.043559 0.745778 0.609850
O O8 0.032998 0.719501 0.428034
O O9 0.500000 0.748870 0.250000
O O10 0.385021 0.622486 0.225084
O O11 0.590319 0.645601 0.430656
O O12 0.868612 0.388362 0.772439
O O13 0.000000 0.367173 0.750000
O O14 0.213592 0.417580 0.643845
O O15 0.233166 0.415470 0.482948
O O16 0.721403 0.514510 0.680946
O O17 0.740210 0.681469 0.649685
O O18 0.750000 0.250000 0.000000
#
# Coordination Sequence:
#
# PCOD9275873 Si02
#       8
#     8   8   8   8   8   8   8   8
#     4  10  20  39  65  92 127 170 221 278 332 385
#     4  11  23  42  67  93 134 175 220 278 338 397
#     4   9  18  33  58  92 128 166 206 265 335 403
#     4  11  25  44  67  91 129 180 229 280 329 396
#     4   9  20  37  62  94 134 165 213 276 342 401
#     4  11  23  41  66  99 135 176 224 273 343 405
#     4  10  23  45  64  96 134 173 225 278 334 406
#     4  11  21  35  63  97 134 173 217 279 338 401
#
# _framework density 22.602232999999998
#
# number of rings (size 3 to 8) (size 9 to 14) (size 15 to 20)
#    0.000    1.750    1.250    4.125    1.750    4.000 
#    4.500    7.500    0.000    0.000    0.000    0.000 
#    0.000    0.000    0.000    0.000    0.000    0.000 
#
# Total GULP energy -178142.584955 kJ/mol
# GULP energy per Si atom -5566.955780 kJ/mol
# Density = 2.255079 g / cm^3
# Si number density = 22.602233 Si / 1000 Ang^3
#
#
#
# Elastic Constant Matrix: (Units=GPa)
#
#
# Indices 1 2 3 4 5 6 
#
# 1 203.8957 52.2059 30.1624 0.0000 -39.2624 0.0000
# 2 52.2059 78.1974 -0.6105 0.0000 0.7695 0.0000
# 3 30.1624 -0.6105 46.3535 0.0000 -12.8477 0.0000
# 4 0.0000 0.0000 0.0000 16.5176 0.0000 -2.1388
# 5 -39.2624 0.7695 -12.8477 0.0000 28.5865 0.0000
# 6 0.0000 0.0000 0.0000 -2.1388 0.0000 35.5118
#
#
#
# Elastic Compliance Matrix: (Units=1/GPa)
#
#
# Indices 1 2 3 4 5 6 
#
# 1 0.009115 -0.006220 -0.002852 0.000000 0.011405 0.000000
# 2 -0.006220 0.017036 0.002030 0.000000 -0.008089 0.000000
# 3 -0.002852 0.002030 0.025536 0.000000 0.007505 0.000000
# 4 0.000000 0.000000 0.000000 0.061017 0.000000 0.003675
# 5 0.011405 -0.008089 0.007505 0.000000 0.054236 0.000000
# 6 0.000000 0.000000 0.000000 0.003675 0.000000 0.028381
#
#
# Mechanical properties :
#
#
# Convention : Reuss Voigt Hill
#
# Bulk Modulus (GPa) = 26.59396 54.66248 40.62822
# Shear Modulus (GPa) = 22.52854 32.56908 27.54881
#
# Velocity S-wave (km/s) = 3.16054 3.80013 3.49500
# Velocity P-wave (km/s) = 5.01102 6.59482 5.85671
#
# Compressibility (1/GPa) = 0.03760252
#
# Stress axis : x y z
#
# Youngs Moduli (GPa) = 109.70883 58.69899 39.16029
#
# Poissons Ratio (x) = 0.36510 0.11169
# Poissons Ratio (y) = 0.68237 -0.07948
# Poissons Ratio (z) = 0.31290 -0.11914
#
# Static dielectric constant tensor:
#      x y z
#    x 1.898110 0.000000 -0.058810 
#    y 0.000000 1.862210 0.000000 
#    z -0.058810 0.000000 1.986970 
# 
# From -- ./inp_files/162599.got.cif
#   From: 2010.05.17/outbox.cif.g08.bks.cpg/sg15_82_cif.got.tgz:162599.got - 2010.06.03 18:47:42.
