data_PCOD9275740
_publ_section_title
;
Structure prediction by ZEFSAII (Michael W. Deem and Ramdas Pophale) SiO2 
 PCOD9275740
Probable space group: C 2/C
;
_chemical_formula_sum "Si O2"
_cell_formula_units_Z 52
_cell_length_a 22.379533
_cell_length_b 14.794539
_cell_length_c 8.892241
_cell_angle_alpha 90.000000
_cell_angle_beta 121.219689
_cell_angle_gamma 90.000000
_cell_volume 2517.818170
_symmetry_space_group_name_H-M "C 2/C"
_symmetry_group_IT_number 15
_symmetry_cell_setting 'monoclinic'
loop_
_space_group_symop_operation_xyz
x,y,z
-x,y,1/2-z
-x,-y,-z
x,-y,1/2+z
1/2+x,1/2+y,z
1/2-x,1/2+y,1/2-z
1/2-x,1/2-y,-z
1/2+x,1/2-y,1/2+z
loop_
_atom_site_type_symbol
_atom_site_label
_atom_site_fract_x
_atom_site_fract_y
_atom_site_fract_z
Si Si1 0.571164 0.463220 0.661981
Si Si2 0.425132 0.885556 0.437645
Si Si3 0.436125 0.693547 0.573743
Si Si4 0.288975 0.355595 0.962208
Si Si5 0.268485 0.818767 0.286893
Si Si6 0.000000 0.471830 0.250000
Si Si7 0.840804 0.950727 0.446317
O O1 0.500000 0.500000 0.500000
O O2 0.581661 0.368564 0.591162
O O3 0.630166 0.532563 0.681846
O O4 0.590447 0.449232 0.859434
O O5 0.456979 0.791959 0.542906
O O6 0.342696 0.859593 0.330781
O O7 0.456518 0.914007 0.316690
O O8 0.447659 0.964284 0.584025
O O9 0.500000 0.653049 0.750000
O O10 0.366634 0.688394 0.584065
O O11 0.262688 0.289821 0.793228
O O12 0.296701 0.459336 0.925580
O O13 0.244137 0.347281 0.054725
O O14 0.207118 0.863543 0.110249
#
# Coordination Sequence:
#
# PCOD9275740 Si02
#       7
#     8   8   8   8   8   4   8
#     4  11  22  38  60  89 128 165 209 257 312 386
#     4  10  22  41  65  90 125 165 210 268 323 384
#     4  10  20  39  64  89 127 168 208 265 321 381
#     4   9  20  39  59  94 126 164 215 254 315 390
#     4  10  21  38  66  90 126 167 212 256 323 387
#     4  10  22  42  62  94 122 162 224 266 316 392
#     4  11  21  38  60  93 126 165 209 262 315 376
#
# _framework density 20.652802000000001
#
# number of rings (size 3 to 8) (size 9 to 14) (size 15 to 20)
#    0.000    1.846    2.308    2.308    2.154    0.000 
#    2.769    8.462    0.000    0.000    0.000    0.000 
#    0.000    0.000    0.000    0.000    0.000    0.000 
#
# Total GULP energy -144910.575609 kJ/mol
# GULP energy per Si atom -5573.483677 kJ/mol
# Density = 2.060580 g / cm^3
# Si number density = 20.652802 Si / 1000 Ang^3
#
#
#
# Elastic Constant Matrix: (Units=GPa)
#
#
# Indices 1 2 3 4 5 6 
#
# 1 92.1132 26.7549 31.5033 0.0000 -15.6863 0.0000
# 2 26.7549 97.5133 38.9888 0.0000 -2.3787 0.0000
# 3 31.5033 38.9888 89.0037 0.0000 -3.6958 0.0000
# 4 0.0000 0.0000 0.0000 32.2440 0.0000 4.4088
# 5 -15.6863 -2.3787 -3.6958 0.0000 34.3165 0.0000
# 6 0.0000 0.0000 0.0000 4.4088 0.0000 27.8134
#
#
#
# Elastic Compliance Matrix: (Units=1/GPa)
#
#
# Indices 1 2 3 4 5 6 
#
# 1 0.013713 -0.002154 -0.003672 0.000000 0.005723 0.000000
# 2 -0.002154 0.012774 -0.004859 0.000000 -0.000623 0.000000
# 3 -0.003672 -0.004859 0.014646 0.000000 -0.000438 0.000000
# 4 0.000000 0.000000 0.000000 0.031701 0.000000 -0.005025
# 5 0.005723 -0.000623 -0.000438 0.000000 0.031666 0.000000
# 6 0.000000 0.000000 0.000000 -0.005025 0.000000 0.036750
#
#
# Mechanical properties :
#
#
# Convention : Reuss Voigt Hill
#
# Bulk Modulus (GPa) = 50.60550 52.56936 51.58743
# Shear Modulus (GPa) = 29.54961 30.96701 30.25831
#
# Velocity S-wave (km/s) = 3.78667 3.87642 3.83181
# Velocity P-wave (km/s) = 6.60868 6.74868 6.67905
#
# Compressibility (1/GPa) = 0.01976070
#
# Stress axis : x y z
#
# Youngs Moduli (GPa) = 72.92593 78.28600 68.28008
#
# Poissons Ratio (x) = 0.16866 0.25074
# Poissons Ratio (y) = 0.15712 0.33177
# Poissons Ratio (z) = 0.26780 0.38038
#
# Static dielectric constant tensor:
#      x y z
#    x 1.807670 0.000000 -0.004510 
#    y 0.000000 1.764650 0.000000 
#    z -0.004510 0.000000 1.771550 
# 
# From -- ./inp_files/61657.got.cif
#   From: 2010.05.17/outbox.cif.g08.bks.cpg/sg15_31_cif.got.tgz:61657.got - 2010.06.03 18:47:42.
