data_PCOD9275253
_publ_section_title
;
Structure prediction by ZEFSAII (Michael W. Deem and Ramdas Pophale) SiO2 
 PCOD9275253
Probable space group: C 2/C
;
_chemical_formula_sum "Si O2"
_cell_formula_units_Z 56
_cell_length_a 28.241486
_cell_length_b 14.532451
_cell_length_c 14.543929
_cell_angle_alpha 90.000000
_cell_angle_beta 28.551300
_cell_angle_gamma 90.000000
_cell_volume 2852.899435
_symmetry_space_group_name_H-M "C 2/C"
_symmetry_group_IT_number 15
_symmetry_cell_setting 'monoclinic'
loop_
_space_group_symop_operation_xyz
x,y,z
-x,y,1/2-z
-x,-y,-z
x,-y,1/2+z
1/2+x,1/2+y,z
1/2-x,1/2+y,1/2-z
1/2-x,1/2-y,-z
1/2+x,1/2-y,1/2+z
loop_
_atom_site_type_symbol
_atom_site_label
_atom_site_fract_x
_atom_site_fract_y
_atom_site_fract_z
Si Si1 0.000000 0.864593 0.750000
Si Si2 0.640131 0.782418 0.961410
Si Si3 0.000000 0.447443 0.250000
Si Si4 0.092514 0.987201 0.218831
Si Si5 0.186237 0.732672 0.701610
Si Si6 0.420288 0.955333 0.068317
Si Si7 0.373820 0.431025 0.651491
Si Si8 0.741736 0.415844 0.838775
O O1 0.058082 0.794712 0.584318
O O2 0.075765 0.926926 0.678199
O O3 0.727270 0.734620 0.869641
O O4 0.691613 0.825617 0.785076
O O5 0.590417 0.871015 0.099591
O O6 0.967947 0.515196 0.387906
O O7 0.981587 0.959945 0.433711
O O8 0.148549 0.013399 0.217085
O O9 0.149841 0.910657 0.063617
O O10 0.250000 0.750000 0.500000
O O11 0.112308 0.646952 0.843618
O O12 0.124489 0.825138 0.822698
O O13 0.314783 0.006496 0.250333
O O14 0.500000 0.000000 0.000000
O O15 0.299147 0.440306 0.693373
#
# Coordination Sequence:
#
# PCOD9275253 Si02
#       8
#     4   8   4   8   8   8   8   8
#     4  11  18  34  61  90 116 158 201 248 298 349
#     4   9  20  34  59  87 118 159 199 254 292 363
#     4   9  20  40  55  90 128 160 201 254 314 369
#     4  11  21  37  65  87 120 158 198 254 308 359
#     4  11  21  37  60  89 120 159 211 251 299 369
#     4  11  23  38  64  89 122 166 203 255 313 371
#     4  10  22  37  59  93 119 155 203 253 300 369
#     4  10  20  39  58  86 123 155 200 245 310 356
#
# _framework density 19.629155000000001
#
# number of rings (size 3 to 8) (size 9 to 14) (size 15 to 20)
#    0.000    1.714    1.429    3.429    0.000    4.571 
#    5.143    0.000    0.000    4.286    0.000    0.000 
#    0.000    0.000    0.000    0.000    0.000    0.000 
#
# Total GULP energy -155929.586656 kJ/mol
# GULP energy per Si atom -5568.913809 kJ/mol
# Density = 1.958448 g / cm^3
# Si number density = 19.629155 Si / 1000 Ang^3
#
#
#
# Elastic Constant Matrix: (Units=GPa)
#
#
# Indices 1 2 3 4 5 6 
#
# 1 55.5410 16.2711 17.8957 0.0000 0.5469 0.0000
# 2 16.2711 94.4613 42.8641 0.0000 1.1609 0.0000
# 3 17.8957 42.8641 93.9140 0.0000 12.7405 0.0000
# 4 0.0000 0.0000 0.0000 34.4569 0.0000 -9.3989
# 5 0.5469 1.1609 12.7405 0.0000 23.5691 0.0000
# 6 0.0000 0.0000 0.0000 -9.3989 0.0000 15.6984
#
#
#
# Elastic Compliance Matrix: (Units=1/GPa)
#
#
# Indices 1 2 3 4 5 6 
#
# 1 0.019544 -0.002037 -0.002964 0.000000 0.001249 0.000000
# 2 -0.002037 0.013743 -0.006258 0.000000 0.002753 0.000000
# 3 -0.002964 -0.006258 0.015127 0.000000 -0.007800 0.000000
# 4 0.000000 0.000000 0.000000 0.034687 0.000000 0.020768
# 5 0.001249 0.002753 -0.007800 0.000000 0.046480 0.000000
# 6 0.000000 0.000000 0.000000 0.020768 0.000000 0.076135
#
#
# Mechanical properties :
#
#
# Convention : Reuss Voigt Hill
#
# Bulk Modulus (GPa) = 38.61474 44.21979 41.41727
# Shear Modulus (GPa) = 21.10899 25.87059 23.48979
#
# Velocity S-wave (km/s) = 3.28287 3.63432 3.46306
# Velocity P-wave (km/s) = 5.83819 6.33937 6.09393
#
# Compressibility (1/GPa) = 0.02589684
#
# Stress axis : x y z
#
# Youngs Moduli (GPa) = 51.16621 72.76400 66.10589
#
# Poissons Ratio (x) = 0.14821 0.19594
# Poissons Ratio (y) = 0.10422 0.41369
# Poissons Ratio (z) = 0.15166 0.45535
#
# Static dielectric constant tensor:
#      x y z
#    x 1.727700 0.000000 0.025910 
#    y 0.000000 1.728180 0.000000 
#    z 0.025910 0.000000 1.735940 
# 
# From -- ./inp_files/153426.got.cif
#   From: 2010.05.17/outbox.cif.g08.bks.cpg/sg15_77_cif.got.tgz:153426.got - 2010.06.03 18:47:42.
