data_PCOD9275238
_publ_section_title
;
Structure prediction by ZEFSAII (Michael W. Deem and Ramdas Pophale) SiO2 
 PCOD9275238
Probable space group: C 2/C
;
_chemical_formula_sum "Si O2"
_cell_formula_units_Z 64
_cell_length_a 15.523279
_cell_length_b 10.122436
_cell_length_c 29.834144
_cell_angle_alpha 90.000000
_cell_angle_beta 135.188397
_cell_angle_gamma 90.000000
_cell_volume 3303.956769
_symmetry_space_group_name_H-M "C 2/C"
_symmetry_group_IT_number 15
_symmetry_cell_setting 'monoclinic'
loop_
_space_group_symop_operation_xyz
x,y,z
-x,y,1/2-z
-x,-y,-z
x,-y,1/2+z
1/2+x,1/2+y,z
1/2-x,1/2+y,1/2-z
1/2-x,1/2-y,-z
1/2+x,1/2-y,1/2+z
loop_
_atom_site_type_symbol
_atom_site_label
_atom_site_fract_x
_atom_site_fract_y
_atom_site_fract_z
Si Si1 0.694385 0.290102 0.902404
Si Si2 0.053366 0.919379 0.720550
Si Si3 0.081164 0.542332 0.235525
Si Si4 0.280006 0.241629 0.063591
Si Si5 0.120618 0.525748 0.909845
Si Si6 0.114508 0.523524 0.510496
Si Si7 0.936445 0.806427 0.320391
Si Si8 0.754941 0.699789 0.679191
O O1 0.560198 0.353729 0.847217
O O2 0.682441 0.168260 0.931896
O O3 0.734511 0.227280 0.869546
O O4 0.787778 0.405940 0.947990
O O5 0.000000 0.953984 0.750000
O O6 0.159054 0.811874 0.766616
O O7 0.096134 0.052303 0.712384
O O8 0.113631 0.686068 0.228341
O O9 0.188325 0.442265 0.287653
O O10 0.000000 0.559297 0.250000
O O11 0.996013 0.475480 0.165952
O O12 0.416833 0.293362 0.123831
O O13 0.288030 0.085961 0.076441
O O14 0.250000 0.250000 0.000000
O O15 0.181389 0.339330 0.048511
O O16 0.083017 0.480103 0.945826
O O17 0.000000 0.500000 0.500000
O O18 0.877915 0.791682 0.347825
#
# Coordination Sequence:
#
# PCOD9275238 Si02
#       8
#     8   8   8   8   8   8   8   8
#     4  11  21  40  64  87 127 166 202 250 315 369
#     4  10  20  39  57  88 123 164 199 248 307 363
#     4  11  20  39  60  87 123 162 202 246 307 369
#     4   9  21  40  61  84 123 158 202 253 314 358
#     4  10  21  41  66  86 124 169 197 249 320 364
#     4  11  24  42  67  94 118 159 220 266 303 368
#     4  11  22  36  61  89 120 162 202 252 305 360
#     4  11  22  37  60  92 125 159 204 250 300 371
#
# _framework density 19.370714
#
# number of rings (size 3 to 8) (size 9 to 14) (size 15 to 20)
#    0.000    1.500    3.750    1.875    5.250    0.000 
#    0.000    1.875    0.000    0.000    0.000    0.000 
#    0.000    0.000    0.000    0.000    0.000    0.000 
#
# Total GULP energy -178644.085541 kJ/mol
# GULP energy per Si atom -5582.627673 kJ/mol
# Density = 1.932663 g / cm^3
# Si number density = 19.370714 Si / 1000 Ang^3
#
#
#
# Elastic Constant Matrix: (Units=GPa)
#
#
# Indices 1 2 3 4 5 6 
#
# 1 77.2937 18.0929 0.8115 0.0000 -5.1735 0.0000
# 2 18.0929 93.2158 -3.3307 0.0000 -8.7131 0.0000
# 3 0.8115 -3.3307 40.0888 0.0000 -10.8438 0.0000
# 4 0.0000 0.0000 0.0000 21.0935 0.0000 -9.0578
# 5 -5.1735 -8.7131 -10.8438 0.0000 16.2713 0.0000
# 6 0.0000 0.0000 0.0000 -9.0578 0.0000 15.7846
#
#
#
# Elastic Compliance Matrix: (Units=1/GPa)
#
#
# Indices 1 2 3 4 5 6 
#
# 1 0.013706 -0.002325 0.000453 0.000000 0.003415 0.000000
# 2 -0.002325 0.012021 0.003156 0.000000 0.007801 0.000000
# 3 0.000453 0.003156 0.031344 0.000000 0.022723 0.000000
# 4 0.000000 0.000000 0.000000 0.062910 0.000000 0.036100
# 5 0.003415 0.007801 0.022723 0.000000 0.081864 0.000000
# 6 0.000000 0.000000 0.000000 0.036100 0.000000 0.084069
#
#
# Mechanical properties :
#
#
# Convention : Reuss Voigt Hill
#
# Bulk Modulus (GPa) = 16.76753 26.86064 21.81409
# Shear Modulus (GPa) = 16.48940 23.63150 20.06045
#
# Velocity S-wave (km/s) = 2.92079 3.49658 3.22158
# Velocity P-wave (km/s) = 4.47768 5.49529 5.01237
#
# Compressibility (1/GPa) = 0.05963907
#
# Stress axis : x y z
#
# Youngs Moduli (GPa) = 72.96247 83.18780 31.90400
#
# Poissons Ratio (x) = 0.19340 -0.01446
# Poissons Ratio (y) = 0.16963 -0.10069
# Poissons Ratio (z) = -0.03306 -0.26254
#
# Static dielectric constant tensor:
#      x y z
#    x 1.658700 0.000000 -0.002440 
#    y 0.000000 1.706390 0.000000 
#    z -0.002440 0.000000 1.676160 
# 
# From -- ./inp_files/313182.got.cif
#   From: 2010.05.17/outbox.cif.g08.bks.cpg/sg15_157_cif.got.tgz:313182.got - 2010.06.03 18:47:42.
