data_PCOD9275836
_publ_section_title
;
Structure prediction by ZEFSAII (Michael W. Deem and Ramdas Pophale) SiO2 
 PCOD9275836
Probable space group: C 2/C
;
_chemical_formula_sum "Si O2"
_cell_formula_units_Z 48
_cell_length_a 27.531784
_cell_length_b 11.503590
_cell_length_c 13.627137
_cell_angle_alpha 90.000000
_cell_angle_beta 150.457078
_cell_angle_gamma 90.000000
_cell_volume 2128.069140
_symmetry_space_group_name_H-M "C 2/C"
_symmetry_group_IT_number 15
_symmetry_cell_setting 'monoclinic'
loop_
_space_group_symop_operation_xyz
x,y,z
-x,y,1/2-z
-x,-y,-z
x,-y,1/2+z
1/2+x,1/2+y,z
1/2-x,1/2+y,1/2-z
1/2-x,1/2-y,-z
1/2+x,1/2-y,1/2+z
loop_
_atom_site_type_symbol
_atom_site_label
_atom_site_fract_x
_atom_site_fract_y
_atom_site_fract_z
Si Si1 0.752875 0.662515 0.594943
Si Si2 0.857429 0.280382 0.642907
Si Si3 0.583299 0.030612 0.724720
Si Si4 0.899423 0.046518 0.044086
Si Si5 0.936375 0.279881 0.991383
Si Si6 0.719063 0.665085 0.178708
O O1 0.750000 0.750000 0.500000
O O2 0.826717 0.566967 0.685263
O O3 0.653797 0.599490 0.454005
O O4 0.786171 0.737398 0.747079
O O5 0.750000 0.250000 0.500000
O O6 0.880858 0.415224 0.656157
O O7 0.930845 0.259143 0.863713
O O8 0.851233 0.205001 0.534099
O O9 0.531549 0.141341 0.686713
O O10 0.500000 0.000000 0.500000
O O11 0.000000 0.985033 0.250000
O O12 0.929963 0.155166 0.030930
O O13 0.821465 0.959258 0.858380
O O14 0.833010 0.340520 0.842875
#
# Coordination Sequence:
#
# PCOD9275836 Si02
#       6
#     8   8   8   8   8   8
#     4  11  24  41  60  88 122 159 203 252 312 371
#     4   9  18  37  64  91 120 156 204 254 304 361
#     4  10  20  39  65  89 118 157 205 258 307 368
#     4  11  23  40  60  88 127 164 203 254 307 368
#     4   9  20  40  63  90 121 163 210 255 309 369
#     4  10  23  41  62  90 123 163 208 255 311 371
#
# _framework density 22.555658000000001
#
# number of rings (size 3 to 8) (size 9 to 14) (size 15 to 20)
#    0.000    2.000    0.000    4.000    0.000    8.000 
#    0.000    9.167    0.000    0.000    0.000    0.000 
#    0.000    0.000    0.000    0.000    0.000    0.000 
#
# Total GULP energy -133925.275236 kJ/mol
# GULP energy per Si atom -5580.219802 kJ/mol
# Density = 2.250432 g / cm^3
# Si number density = 22.555658 Si / 1000 Ang^3
#
#
#
# Elastic Constant Matrix: (Units=GPa)
#
#
# Indices 1 2 3 4 5 6 
#
# 1 78.6313 31.8580 27.8822 0.0000 4.3680 0.0000
# 2 31.8580 96.2288 27.5688 0.0000 24.5307 0.0000
# 3 27.8822 27.5688 62.2060 0.0000 17.1898 0.0000
# 4 0.0000 0.0000 0.0000 50.6567 0.0000 11.1256
# 5 4.3680 24.5307 17.1898 0.0000 26.4539 0.0000
# 6 0.0000 0.0000 0.0000 11.1256 0.0000 46.9239
#
#
#
# Elastic Compliance Matrix: (Units=1/GPa)
#
#
# Indices 1 2 3 4 5 6 
#
# 1 0.017029 -0.005313 -0.007145 0.000000 0.006758 0.000000
# 2 -0.005313 0.015776 -0.000987 0.000000 -0.013110 0.000000
# 3 -0.007145 -0.000987 0.023325 0.000000 -0.013061 0.000000
# 4 0.000000 0.000000 0.000000 0.020825 0.000000 -0.004938
# 5 0.006758 -0.013110 -0.013061 0.000000 0.057330 0.000000
# 6 0.000000 0.000000 0.000000 -0.004938 0.000000 0.022482
#
#
# Mechanical properties :
#
#
# Convention : Reuss Voigt Hill
#
# Bulk Modulus (GPa) = 34.20254 45.74269 39.97262
# Shear Modulus (GPa) = 25.85257 34.79071 30.32164
#
# Velocity S-wave (km/s) = 3.38918 3.93165 3.67045
# Velocity P-wave (km/s) = 5.52376 6.39800 5.97689
#
# Compressibility (1/GPa) = 0.02923759
#
# Stress axis : x y z
#
# Youngs Moduli (GPa) = 58.72475 63.38827 42.87191
#
# Poissons Ratio (x) = 0.33680 0.30634
# Poissons Ratio (y) = 0.31202 0.04233
# Poissons Ratio (z) = 0.41961 0.06258
#
# Static dielectric constant tensor:
#      x y z
#    x 1.839320 0.000000 -0.013850 
#    y 0.000000 1.903710 0.000000 
#    z -0.013850 0.000000 1.833780 
# 
# From -- ./inp_files/181816.got.cif
#   From: 2010.05.17/outbox.cif.g08.bks.cpg/sg15_91_cif.got.tgz:181816.got - 2010.06.03 18:47:42.
