data_PCOD9275003
_publ_section_title
;
Structure prediction by ZEFSAII (Michael W. Deem and Ramdas Pophale) SiO2 
 PCOD9275003
Probable space group: C 2/C
;
_chemical_formula_sum "Si O2"
_cell_formula_units_Z 56
_cell_length_a 17.848396
_cell_length_b 15.168190
_cell_length_c 20.405238
_cell_angle_alpha 90.000000
_cell_angle_beta 151.406728
_cell_angle_gamma 90.000000
_cell_volume 2643.851814
_symmetry_space_group_name_H-M "C 2/C"
_symmetry_group_IT_number 15
_symmetry_cell_setting 'monoclinic'
loop_
_space_group_symop_operation_xyz
x,y,z
-x,y,1/2-z
-x,-y,-z
x,-y,1/2+z
1/2+x,1/2+y,z
1/2-x,1/2+y,1/2-z
1/2-x,1/2-y,-z
1/2+x,1/2-y,1/2+z
loop_
_atom_site_type_symbol
_atom_site_label
_atom_site_fract_x
_atom_site_fract_y
_atom_site_fract_z
Si Si1 0.092812 0.223979 0.183596
Si Si2 0.238863 0.291168 0.419963
Si Si3 0.141959 0.032593 0.264575
Si Si4 0.132369 0.236353 0.010016
Si Si5 0.196413 0.838201 0.246640
Si Si6 0.776176 0.961952 0.521768
Si Si7 0.131901 0.356206 0.900442
O O1 0.112080 0.250610 0.274587
O O2 0.155297 0.122027 0.230579
O O3 0.183713 0.302002 0.215911
O O4 0.912574 0.222197 0.023562
O O5 0.250000 0.250000 0.500000
O O6 0.217926 0.391337 0.424384
O O7 0.200133 0.940067 0.275846
O O8 0.217626 0.054234 0.394434
O O9 0.957042 0.020158 0.139556
O O10 0.087114 0.325524 0.938036
O O11 0.978755 0.183911 0.913109
O O12 0.255738 0.270247 0.158033
O O13 0.209448 0.181678 0.009819
O O14 0.660586 0.041939 0.424415
O O15 0.000000 0.326110 0.750000
#
# Coordination Sequence:
#
# PCOD9275003 Si02
#       7
#     8   8   8   8   8   8   8
#     4  11  25  44  66  98 128 174 220 263 330 403
#     4  11  22  44  70  95 125 164 219 285 322 367
#     4  10  21  41  68  93 123 179 216 262 327 390
#     4  11  23  37  62  94 131 175 211 269 317 379
#     4  12  23  44  64  91 138 179 212 259 333 404
#     4  10  20  38  67  95 126 161 225 268 320 377
#     4  11  21  35  59 100 131 160 222 269 317 370
#
# _framework density 21.181217
#
# number of rings (size 3 to 8) (size 9 to 14) (size 15 to 20)
#    0.000    1.143    5.714    1.286    0.000    1.143 
#    2.571    6.429    0.000    0.000    0.000    0.000 
#    0.000    0.000    0.000    0.000    0.000    0.000 
#
# Total GULP energy -155934.104384 kJ/mol
# GULP energy per Si atom -5569.075157 kJ/mol
# Density = 2.113301 g / cm^3
# Si number density = 21.181217 Si / 1000 Ang^3
#
#
#
# Elastic Constant Matrix: (Units=GPa)
#
#
# Indices 1 2 3 4 5 6 
#
# 1 51.9072 17.1710 -5.0466 0.0038 -3.3129 0.0016
# 2 17.1710 90.8711 9.9213 0.0011 5.6033 0.0024
# 3 -5.0466 9.9213 48.5600 -0.0028 -3.3116 0.0003
# 4 0.0038 0.0011 -0.0028 26.3185 0.0015 -3.7825
# 5 -3.3129 5.6033 -3.3116 0.0015 23.0807 0.0004
# 6 0.0016 0.0024 0.0003 -3.7825 0.0004 30.3910
#
#
#
# Elastic Compliance Matrix: (Units=1/GPa)
#
#
# Indices 1 2 3 4 5 6 
#
# 1 0.021476 -0.004735 0.003522 -0.000003 0.004738 -0.000001
# 2 -0.004735 0.012523 -0.003337 0.000000 -0.004198 -0.000001
# 3 0.003522 -0.003337 0.021945 0.000002 0.004464 0.000000
# 4 -0.000003 0.000000 0.000002 0.038688 -0.000003 0.004815
# 5 0.004738 -0.004198 0.004464 -0.000003 0.045666 -0.000001
# 6 -0.000001 -0.000001 0.000000 0.004815 -0.000001 0.033504
#
#
# Mechanical properties :
#
#
# Convention : Reuss Voigt Hill
#
# Bulk Modulus (GPa) = 21.34678 26.15884 23.75281
# Shear Modulus (GPa) = 25.18688 27.24420 26.21554
#
# Velocity S-wave (km/s) = 3.45209 3.59031 3.52188
# Velocity P-wave (km/s) = 5.09797 5.43728 5.27036
#
# Compressibility (1/GPa) = 0.04684548
#
# Stress axis : x y z
#
# Youngs Moduli (GPa) = 46.56300 79.85623 45.56774
#
# Poissons Ratio (x) = 0.37811 -0.16051
# Poissons Ratio (y) = 0.22047 0.15205
# Poissons Ratio (z) = -0.16401 0.26647
#
# Static dielectric constant tensor:
#      x y z
#    x 1.833630 -0.000030 -0.003500 
#    y -0.000030 1.577720 0.000010 
#    z -0.003500 0.000010 1.745500 
# 
# From -- ./inp_files/249271.got.cif
#   From: 2010.05.17/outbox.cif.g08.bks.cpg/sg15_125_cif.got.tgz:249271.got - 2010.06.03 18:47:42.
