data_PCOD9275924
_publ_section_title
;
Structure prediction by ZEFSAII (Michael W. Deem and Ramdas Pophale) SiO2 
 PCOD9275924
Probable space group: C 2/C
;
_chemical_formula_sum "Si O2"
_cell_formula_units_Z 36
_cell_length_a 7.079378
_cell_length_b 13.129293
_cell_length_c 23.794164
_cell_angle_alpha 90.000000
_cell_angle_beta 48.755581
_cell_angle_gamma 90.000000
_cell_volume 1662.912143
_symmetry_space_group_name_H-M "C 2/C"
_symmetry_group_IT_number 15
_symmetry_cell_setting 'monoclinic'
loop_
_space_group_symop_operation_xyz
x,y,z
-x,y,1/2-z
-x,-y,-z
x,-y,1/2+z
1/2+x,1/2+y,z
1/2-x,1/2+y,1/2-z
1/2-x,1/2-y,-z
1/2+x,1/2-y,1/2+z
loop_
_atom_site_type_symbol
_atom_site_label
_atom_site_fract_x
_atom_site_fract_y
_atom_site_fract_z
Si Si1 0.500000 0.647971 0.250000
Si Si2 0.499301 0.260344 0.183887
Si Si3 0.424369 0.275040 0.518492
Si Si4 0.839741 0.011871 0.872276
Si Si5 0.702341 0.921347 0.013250
O O1 0.534713 0.575672 0.189077
O O2 0.745557 0.716593 0.208014
O O3 0.500000 0.243570 0.250000
O O4 0.738483 0.208519 0.107429
O O5 0.532073 0.380343 0.165333
O O6 0.250000 0.250000 0.500000
O O7 0.588009 0.175158 0.500899
O O8 0.609154 0.371234 0.479336
O O9 0.542723 0.022831 0.914327
O O10 0.834085 0.988269 0.939646
#
# Coordination Sequence:
#
# PCOD9275924 Si02
#       5
#     4   8   8   8   8
#     4  12  24  44  64  92 138 178 216 280 334 402
#     4  11  24  43  64  96 136 175 226 275 339 409
#     4  10  20  39  66 100 129 175 227 279 344 403
#     4  10  21  43  67  95 130 181 224 278 351 400
#     4   9  20  40  66  92 134 168 220 291 334 401
#
# _framework density 21.648766999999999
#
# number of rings (size 3 to 8) (size 9 to 14) (size 15 to 20)
#    0.000    1.778    1.111    2.667    0.000    3.556 
#    6.000   17.778    0.000    0.000    0.000    0.000 
#    0.000    0.000    0.000    0.000    0.000    0.000 
#
# Total GULP energy -100704.437584 kJ/mol
# GULP energy per Si atom -5594.690977 kJ/mol
# Density = 2.159949 g / cm^3
# Si number density = 21.648767 Si / 1000 Ang^3
#
#
#
# Elastic Constant Matrix: (Units=GPa)
#
#
# Indices 1 2 3 4 5 6 
#
# 1 95.6310 43.0128 6.9454 0.0000 -3.9129 0.0005
# 2 43.0128 58.9487 36.5702 0.0001 -12.2445 0.0001
# 3 6.9454 36.5702 73.7875 -0.0010 -8.7616 0.0011
# 4 0.0000 0.0001 -0.0010 57.2394 0.0018 -31.8745
# 5 -3.9129 -12.2445 -8.7616 0.0018 17.8617 -0.0020
# 6 0.0005 0.0001 0.0011 -31.8745 -0.0020 64.6095
#
#
#
# Elastic Compliance Matrix: (Units=1/GPa)
#
#
# Indices 1 2 3 4 5 6 
#
# 1 0.018098 -0.018589 0.006867 0.000000 -0.005410 0.000000
# 2 -0.018589 0.046040 -0.018905 -0.000001 0.018215 0.000001
# 3 0.006867 -0.018905 0.022209 0.000000 -0.000561 0.000000
# 4 0.000000 -0.000001 0.000000 0.024088 -0.000001 0.011884
# 5 -0.005410 0.018215 -0.000561 -0.000001 0.067012 0.000001
# 6 0.000000 0.000001 0.000000 0.011884 0.000001 0.021340
#
#
# Mechanical properties :
#
#
# Convention : Reuss Voigt Hill
#
# Bulk Modulus (GPa) = 39.85352 44.60267 42.22810
# Shear Modulus (GPa) = 18.62843 37.39804 28.01324
#
# Velocity S-wave (km/s) = 2.93658 4.16082 3.60111
# Velocity P-wave (km/s) = 5.47240 6.61293 6.06951
#
# Compressibility (1/GPa) = 0.02509189
#
# Stress axis : x y z
#
# Youngs Moduli (GPa) = 55.25500 21.72021 45.02633
#
# Poissons Ratio (x) = 0.40377 -0.30921
# Poissons Ratio (y) = 1.02716 0.85125
# Poissons Ratio (z) = -0.37945 0.41063
#
# Static dielectric constant tensor:
#      x y z
#    x 1.794190 0.000000 -0.006770 
#    y 0.000000 1.805540 0.000000 
#    z -0.006770 0.000000 1.775860 
# 
# From -- ./inp_files/260065.got.cif
#   From: 2010.05.17/outbox.cif.g08.bks.cpg/sg15_131_cif.got.tgz:260065.got - 2010.06.03 18:47:42.
