data_PCOD9275010
_publ_section_title
;
Structure prediction by ZEFSAII (Michael W. Deem and Ramdas Pophale) SiO2 
 PCOD9275010
Probable space group: C 2/C
;
_chemical_formula_sum "Si O2"
_cell_formula_units_Z 40
_cell_length_a 14.564835
_cell_length_b 14.283609
_cell_length_c 13.309773
_cell_angle_alpha 90.000000
_cell_angle_beta 38.666259
_cell_angle_gamma 90.000000
_cell_volume 1729.989019
_symmetry_space_group_name_H-M "C 2/C"
_symmetry_group_IT_number 15
_symmetry_cell_setting 'monoclinic'
loop_
_space_group_symop_operation_xyz
x,y,z
-x,y,1/2-z
-x,-y,-z
x,-y,1/2+z
1/2+x,1/2+y,z
1/2-x,1/2+y,1/2-z
1/2-x,1/2-y,-z
1/2+x,1/2-y,1/2+z
loop_
_atom_site_type_symbol
_atom_site_label
_atom_site_fract_x
_atom_site_fract_y
_atom_site_fract_z
Si Si1 0.361065 0.860273 0.309828
Si Si2 0.855941 0.790919 0.646806
Si Si3 0.460435 0.028651 0.421494
Si Si4 0.660230 0.424988 0.647257
Si Si5 0.948596 0.261245 0.687401
O O1 0.500000 0.816282 0.250000
O O2 0.348797 0.804232 0.217807
O O3 0.777390 0.860784 0.997911
O O4 0.416094 0.965873 0.240541
O O5 0.846141 0.869841 0.741254
O O6 0.975066 0.637252 0.387202
O O7 0.721417 0.785200 0.683950
O O8 0.998541 0.796861 0.454929
O O9 0.500000 0.000000 0.500000
O O10 0.292786 0.998048 0.545785
O O11 0.500000 0.458633 0.750000
O O12 0.000000 0.220452 0.750000
#
# Coordination Sequence:
#
# PCOD9275010 Si02
#       5
#     8   8   8   8   8
#     4  10  20  38  67  96 126 167 206 260 331 382
#     4  12  22  39  64  93 134 162 210 268 313 390
#     4  11  21  46  69  89 128 177 217 255 317 389
#     4  11  22  38  65 102 127 157 209 277 328 368
#     4  12  25  43  65  90 128 179 219 253 312 384
#
# _framework density 23.121532999999999
#
# number of rings (size 3 to 8) (size 9 to 14) (size 15 to 20)
#    0.000    0.800    4.000    6.000    0.000    0.000 
#    0.000    6.000    0.000    0.000    0.000    0.000 
#    0.000    0.000    0.000    0.000    0.000    0.000 
#
# Total GULP energy -111772.134946 kJ/mol
# GULP energy per Si atom -5588.606747 kJ/mol
# Density = 2.306891 g / cm^3
# Si number density = 23.121533 Si / 1000 Ang^3
#
#
#
# Elastic Constant Matrix: (Units=GPa)
#
#
# Indices 1 2 3 4 5 6 
#
# 1 124.7493 -6.2905 33.6334 0.0000 -2.6989 0.0000
# 2 -6.2905 43.1926 5.1402 0.0000 0.2155 0.0000
# 3 33.6334 5.1402 88.5163 0.0000 -2.9744 0.0000
# 4 0.0000 0.0000 0.0000 21.2994 0.0000 -0.8640
# 5 -2.6989 0.2155 -2.9744 0.0000 59.6456 0.0000
# 6 0.0000 0.0000 0.0000 -0.8640 0.0000 27.6594
#
#
#
# Elastic Compliance Matrix: (Units=1/GPa)
#
#
# Indices 1 2 3 4 5 6 
#
# 1 0.009062 0.001740 -0.003537 0.000000 0.000227 0.000000
# 2 0.001740 0.023649 -0.002038 0.000000 -0.000108 0.000000
# 3 -0.003537 -0.002038 0.012776 0.000000 0.000484 0.000000
# 4 0.000000 0.000000 0.000000 0.047009 0.000000 0.001468
# 5 0.000227 -0.000108 0.000484 0.000000 0.016801 0.000000
# 6 0.000000 0.000000 0.000000 0.001468 0.000000 0.036200
#
#
# Mechanical properties :
#
#
# Convention : Reuss Voigt Hill
#
# Bulk Modulus (GPa) = 26.44351 35.71381 31.07866
# Shear Modulus (GPa) = 30.16191 36.65255 33.40723
#
# Velocity S-wave (km/s) = 3.61570 3.98579 3.80525
# Velocity P-wave (km/s) = 5.37518 6.05489 5.72513
#
# Compressibility (1/GPa) = 0.03781647
#
# Stress axis : x y z
#
# Youngs Moduli (GPa) = 110.34787 42.28592 78.27279
#
# Poissons Ratio (x) = -0.07356 0.27683
# Poissons Ratio (y) = -0.19196 0.15951
# Poissons Ratio (z) = 0.39027 0.08617
#
# Static dielectric constant tensor:
#      x y z
#    x 1.963900 0.000000 0.029630 
#    y 0.000000 1.880150 0.000000 
#    z 0.029630 0.000000 1.905280 
# 
# From -- ./inp_files/90581.got.cif
#   From: 2010.05.17/outbox.cif.g08.bks.cpg/sg15_46_cif.got.tgz:90581.got - 2010.06.03 18:47:42.
