data_PCOD9275492
_publ_section_title
;
Structure prediction by ZEFSAII (Michael W. Deem and Ramdas Pophale) SiO2 
 PCOD9275492
Probable space group: C 2/C
;
_chemical_formula_sum "Si O2"
_cell_formula_units_Z 36
_cell_length_a 15.329590
_cell_length_b 6.712651
_cell_length_c 15.313358
_cell_angle_alpha 90.000000
_cell_angle_beta 99.302917
_cell_angle_gamma 90.000000
_cell_volume 1555.052598
_symmetry_space_group_name_H-M "C 2/C"
_symmetry_group_IT_number 15
_symmetry_cell_setting 'monoclinic'
loop_
_space_group_symop_operation_xyz
x,y,z
-x,y,1/2-z
-x,-y,-z
x,-y,1/2+z
1/2+x,1/2+y,z
1/2-x,1/2+y,1/2-z
1/2-x,1/2-y,-z
1/2+x,1/2-y,1/2+z
loop_
_atom_site_type_symbol
_atom_site_label
_atom_site_fract_x
_atom_site_fract_y
_atom_site_fract_z
Si Si1 0.000000 0.471134 0.750000
Si Si2 0.173953 0.876268 0.439117
Si Si3 0.712066 0.773282 0.607342
Si Si4 0.683338 0.062643 0.293850
Si Si5 0.488713 0.199389 0.440794
O O1 0.905882 0.573373 0.720520
O O2 0.986446 0.349581 0.836877
O O3 0.250000 0.750000 0.500000
O O4 0.218121 0.093631 0.435384
O O5 0.165682 0.767385 0.342871
O O6 0.076160 0.838253 0.465498
O O7 0.707255 0.892217 0.698947
O O8 0.746100 0.558265 0.640453
O O9 0.612670 0.746640 0.556380
O O10 0.500000 0.000000 0.500000
#
# Coordination Sequence:
#
# PCOD9275492 Si02
#       5
#     4   8   8   8   8
#     4   8  20  38  58  82 124 156 200 256 312 372
#     4  11  22  40  63  90 125 165 211 260 323 385
#     4  11  21  40  65  88 124 165 210 261 319 384
#     4  10  21  40  62  90 119 163 209 259 316 381
#     4  10  20  39  62  88 125 166 202 260 323 373
#
# _framework density 23.15034
#
# number of rings (size 3 to 8) (size 9 to 14) (size 15 to 20)
#    0.000    1.778    4.444    0.000    0.000    0.889 
#    4.000    1.111    0.000    0.000    0.000    0.000 
#    0.000    0.000    0.000    0.000    0.000    0.000 
#
# Total GULP energy -100324.428030 kJ/mol
# GULP energy per Si atom -5573.579335 kJ/mol
# Density = 2.309765 g / cm^3
# Si number density = 23.150340 Si / 1000 Ang^3
#
#
#
# Elastic Constant Matrix: (Units=GPa)
#
#
# Indices 1 2 3 4 5 6 
#
# 1 219.0142 73.6121 58.3756 0.0000 15.5338 0.0000
# 2 73.6121 93.6558 20.9209 0.0000 3.0688 0.0000
# 3 58.3756 20.9209 88.8941 0.0000 -1.3749 0.0000
# 4 0.0000 0.0000 0.0000 38.8218 0.0000 7.6331
# 5 15.5338 3.0688 -1.3749 0.0000 51.3399 0.0000
# 6 0.0000 0.0000 0.0000 7.6331 0.0000 41.9713
#
#
#
# Elastic Compliance Matrix: (Units=1/GPa)
#
#
# Indices 1 2 3 4 5 6 
#
# 1 0.007333 -0.004871 -0.003701 0.000000 -0.002027 0.000000
# 2 -0.004871 0.014533 -0.000213 0.000000 0.000599 0.000000
# 3 -0.003701 -0.000213 0.013753 0.000000 0.001501 0.000000
# 4 0.000000 0.000000 0.000000 0.026714 0.000000 -0.004858
# 5 -0.002027 0.000599 0.001501 0.000000 0.020096 0.000000
# 6 0.000000 0.000000 0.000000 -0.004858 0.000000 0.024709
#
#
# Mechanical properties :
#
#
# Convention : Reuss Voigt Hill
#
# Bulk Modulus (GPa) = 55.39695 78.59794 66.99745
# Shear Modulus (GPa) = 38.24875 43.00361 40.62618
#
# Velocity S-wave (km/s) = 4.06912 4.31464 4.19368
# Velocity P-wave (km/s) = 6.78662 7.67113 7.24239
#
# Compressibility (1/GPa) = 0.01805154
#
# Stress axis : x y z
#
# Youngs Moduli (GPa) = 136.36877 68.80655 72.71280
#
# Poissons Ratio (x) = 0.33513 0.26908
# Poissons Ratio (y) = 0.66420 0.01546
# Poissons Ratio (z) = 0.50464 0.01463
#
# Static dielectric constant tensor:
#      x y z
#    x 1.887130 0.000000 0.010060 
#    y 0.000000 1.851830 0.000000 
#    z 0.010060 0.000000 1.913700 
# 
# From -- ./inp_files/150196.got.cif
#   From: 2010.05.17/outbox.cif.g08.bks.cpg/sg15_76_cif.got.tgz:150196.got - 2010.06.03 18:47:42.
