data_PCOD9275734
_publ_section_title
;
Structure prediction by ZEFSAII (Michael W. Deem and Ramdas Pophale) SiO2 
 PCOD9275734
Probable space group: C 2/C
;
_chemical_formula_sum "Si O2"
_cell_formula_units_Z 36
_cell_length_a 6.902017
_cell_length_b 11.461209
_cell_length_c 21.539752
_cell_angle_alpha 90.000000
_cell_angle_beta 77.227008
_cell_angle_gamma 90.000000
_cell_volume 1661.746424
_symmetry_space_group_name_H-M "C 2/C"
_symmetry_group_IT_number 15
_symmetry_cell_setting 'monoclinic'
loop_
_space_group_symop_operation_xyz
x,y,z
-x,y,1/2-z
-x,-y,-z
x,-y,1/2+z
1/2+x,1/2+y,z
1/2-x,1/2+y,1/2-z
1/2-x,1/2-y,-z
1/2+x,1/2-y,1/2+z
loop_
_atom_site_type_symbol
_atom_site_label
_atom_site_fract_x
_atom_site_fract_y
_atom_site_fract_z
Si Si1 0.771007 0.961209 0.647125
Si Si2 0.007851 0.114586 0.541882
Si Si3 0.613676 0.234156 0.931626
Si Si4 0.421292 0.885739 0.191590
Si Si5 0.000000 0.987716 0.250000
O O1 0.546126 0.994066 0.678698
O O2 0.867866 0.076344 0.608201
O O3 0.903324 0.942087 0.699399
O O4 0.779938 0.851989 0.600617
O O5 0.225683 0.143814 0.553049
O O6 0.972992 0.223344 0.497737
O O7 0.000000 0.000000 0.500000
O O8 0.528344 0.181230 0.874981
O O9 0.500000 0.829707 0.250000
O O10 0.186561 0.910311 0.213143
#
# Coordination Sequence:
#
# PCOD9275734 Si02
#       5
#     8   8   8   8   4
#     4  10  21  39  60  89 122 158 204 248 302 364
#     4   9  19  39  64  90 126 157 198 257 299 355
#     4  10  20  39  64  89 122 162 201 249 306 362
#     4  10  22  40  60  90 122 160 208 251 303 363
#     4  10  20  42  58  82 132 156 194 272 290 348
#
# _framework density 21.663954
#
# number of rings (size 3 to 8) (size 9 to 14) (size 15 to 20)
#    0.000    2.222    2.222    0.000    1.556    0.889 
#   10.000   10.000    0.000    0.000    0.000    0.000 
#    0.000    0.000    0.000    0.000    0.000    0.000 
#
# Total GULP energy -100268.569006 kJ/mol
# GULP energy per Si atom -5570.476056 kJ/mol
# Density = 2.161465 g / cm^3
# Si number density = 21.663954 Si / 1000 Ang^3
#
#
#
# Elastic Constant Matrix: (Units=GPa)
#
#
# Indices 1 2 3 4 5 6 
#
# 1 107.1356 38.1777 27.0221 0.0000 8.5331 0.0000
# 2 38.1777 60.0555 17.7267 0.0000 11.0648 0.0000
# 3 27.0221 17.7267 88.0513 0.0000 38.7285 0.0000
# 4 0.0000 0.0000 0.0000 41.1611 0.0000 9.4662
# 5 8.5331 11.0648 38.7285 0.0000 33.8158 0.0000
# 6 0.0000 0.0000 0.0000 9.4662 0.0000 23.5769
#
#
#
# Elastic Compliance Matrix: (Units=1/GPa)
#
#
# Indices 1 2 3 4 5 6 
#
# 1 0.012786 -0.007644 -0.004163 0.000000 0.004043 0.000000
# 2 -0.007644 0.022475 0.000418 0.000000 -0.005904 0.000000
# 3 -0.004163 0.000418 0.024480 0.000000 -0.027123 0.000000
# 4 0.000000 0.000000 0.000000 0.026766 0.000000 -0.010747
# 5 0.004043 -0.005904 -0.027123 0.000000 0.061547 0.000000
# 6 0.000000 0.000000 0.000000 -0.010747 0.000000 0.046729
#
#
# Mechanical properties :
#
#
# Convention : Reuss Voigt Hill
#
# Bulk Modulus (GPa) = 27.05448 46.78840 36.92144
# Shear Modulus (GPa) = 21.75014 31.19847 26.47431
#
# Velocity S-wave (km/s) = 3.17200 3.79899 3.49957
# Velocity P-wave (km/s) = 5.09223 6.39432 5.78006
#
# Compressibility (1/GPa) = 0.03696246
#
# Stress axis : x y z
#
# Youngs Moduli (GPa) = 78.21058 44.49373 40.84917
#
# Poissons Ratio (x) = 0.34012 0.17006
# Poissons Ratio (y) = 0.59785 -0.01707
# Poissons Ratio (z) = 0.32560 -0.01859
#
# Static dielectric constant tensor:
#      x y z
#    x 1.779100 0.000000 0.010310 
#    y 0.000000 1.798420 0.000000 
#    z 0.010310 0.000000 1.864080 
# 
# From -- ./inp_files/226442.got.cif
#   From: 2010.05.17/outbox.cif.g08.bks.cpg/sg15_114_cif.got.tgz:226442.got - 2010.06.03 18:47:42.
