data_PCOD9275829
_publ_section_title
;
Structure prediction by ZEFSAII (Michael W. Deem and Ramdas Pophale) SiO2 
 PCOD9275829
Probable space group: C 2/C
;
_chemical_formula_sum "Si O2"
_cell_formula_units_Z 48
_cell_length_a 9.564239
_cell_length_b 24.376819
_cell_length_c 9.420331
_cell_angle_alpha 90.000000
_cell_angle_beta 71.334438
_cell_angle_gamma 90.000000
_cell_volume 2080.790160
_symmetry_space_group_name_H-M "C 2/C"
_symmetry_group_IT_number 15
_symmetry_cell_setting 'monoclinic'
loop_
_space_group_symop_operation_xyz
x,y,z
-x,y,1/2-z
-x,-y,-z
x,-y,1/2+z
1/2+x,1/2+y,z
1/2-x,1/2+y,1/2-z
1/2-x,1/2-y,-z
1/2+x,1/2-y,1/2+z
loop_
_atom_site_type_symbol
_atom_site_label
_atom_site_fract_x
_atom_site_fract_y
_atom_site_fract_z
Si Si1 0.544343 0.330894 0.443727
Si Si2 0.826425 0.534531 0.848675
Si Si3 0.080288 0.273005 0.070914
Si Si4 0.202918 0.880338 0.167231
Si Si5 0.333917 0.091230 0.356165
Si Si6 0.737098 0.875803 0.913103
O O1 0.493360 0.269818 0.496946
O O2 0.680030 0.330888 0.285197
O O3 0.432954 0.371812 0.399618
O O4 0.611347 0.357058 0.562788
O O5 0.732240 0.567548 0.760054
O O6 0.779762 0.471581 0.880181
O O7 0.803344 0.565637 0.005332
O O8 0.000000 0.537409 0.750000
O O9 0.110736 0.333901 0.006152
O O10 0.000000 0.271988 0.250000
O O11 0.250000 0.250000 0.000000
O O12 0.329929 0.881819 0.010792
O O13 0.500000 0.088685 0.250000
O O14 0.250101 0.123094 0.259281
#
# Coordination Sequence:
#
# PCOD9275829 Si02
#       6
#     8   8   8   8   8   8
#     4   9  22  42  63  87 128 176 206 265 326 384
#     4  10  20  39  65  87 129 174 214 263 325 390
#     4  10  22  40  69  95 127 179 227 262 323 399
#     4  10  21  40  63  91 129 166 209 266 326 376
#     4  11  23  37  61  99 129 166 216 271 324 383
#     4  10  21  39  63  94 125 173 217 261 323 397
#
# _framework density 23.068159000000001
#
# number of rings (size 3 to 8) (size 9 to 14) (size 15 to 20)
#    0.000    2.000    0.000    2.500    4.667    5.333 
#    3.000   15.833    0.000    0.000    0.000    0.000 
#    0.000    0.000    0.000    0.000    0.000    0.000 
#
# Total GULP energy -133805.989308 kJ/mol
# GULP energy per Si atom -5575.249554 kJ/mol
# Density = 2.301566 g / cm^3
# Si number density = 23.068159 Si / 1000 Ang^3
#
#
#
# Elastic Constant Matrix: (Units=GPa)
#
#
# Indices 1 2 3 4 5 6 
#
# 1 86.2452 40.8647 6.1235 0.0000 19.2958 0.0000
# 2 40.8647 72.8669 39.4098 0.0000 0.4634 0.0000
# 3 6.1235 39.4098 140.1909 0.0000 -3.3532 0.0000
# 4 0.0000 0.0000 0.0000 31.4035 0.0000 -2.0498
# 5 19.2958 0.4634 -3.3532 0.0000 36.7294 0.0000
# 6 0.0000 0.0000 0.0000 -2.0498 0.0000 4.0322
#
#
#
# Elastic Compliance Matrix: (Units=1/GPa)
#
#
# Indices 1 2 3 4 5 6 
#
# 1 0.019312 -0.012012 0.002299 0.000000 -0.009784 0.000000
# 2 -0.012012 0.023669 -0.005998 0.000000 0.005464 0.000000
# 3 0.002299 -0.005998 0.008711 0.000000 -0.000337 0.000000
# 4 0.000000 0.000000 0.000000 0.032936 0.000000 0.016743
# 5 -0.009784 0.005464 -0.000337 0.000000 0.032267 0.000000
# 6 0.000000 0.000000 0.000000 0.016743 0.000000 0.256514
#
#
# Mechanical properties :
#
#
# Convention : Reuss Voigt Hill
#
# Bulk Modulus (GPa) = 49.33334 52.45544 50.89439
# Shear Modulus (GPa) = 12.14807 28.62668 20.38737
#
# Velocity S-wave (km/s) = 2.29730 3.52655 2.97608
# Velocity P-wave (km/s) = 5.33565 6.27461 5.82408
#
# Compressibility (1/GPa) = 0.02027027
#
# Stress axis : x y z
#
# Youngs Moduli (GPa) = 51.78141 42.24864 114.79859
#
# Poissons Ratio (x) = 0.50747 -0.26393
# Poissons Ratio (y) = 0.62198 0.68861
# Poissons Ratio (z) = -0.11905 0.25343
#
# Static dielectric constant tensor:
#      x y z
#    x 2.040330 0.000000 -0.075440 
#    y 0.000000 1.893570 0.000000 
#    z -0.075440 0.000000 1.908920 
# 
# From -- ./inp_files/32547.got.cif
#   From: 2010.05.17/outbox.cif.g08.bks.cpg/sg15_17_cif.got.tgz:32547.got - 2010.06.03 18:47:42.
