data_PCOD9275431
_publ_section_title
;
Structure prediction by ZEFSAII (Michael W. Deem and Ramdas Pophale) SiO2 
 PCOD9275431
Probable space group: C 2/C
;
_chemical_formula_sum "Si O2"
_cell_formula_units_Z 60
_cell_length_a 19.657810
_cell_length_b 18.986777
_cell_length_c 8.221037
_cell_angle_alpha 90.000000
_cell_angle_beta 130.934365
_cell_angle_gamma 90.000000
_cell_volume 2318.060800
_symmetry_space_group_name_H-M "C 2/C"
_symmetry_group_IT_number 15
_symmetry_cell_setting 'monoclinic'
loop_
_space_group_symop_operation_xyz
x,y,z
-x,y,1/2-z
-x,-y,-z
x,-y,1/2+z
1/2+x,1/2+y,z
1/2-x,1/2+y,1/2-z
1/2-x,1/2-y,-z
1/2+x,1/2-y,1/2+z
loop_
_atom_site_type_symbol
_atom_site_label
_atom_site_fract_x
_atom_site_fract_y
_atom_site_fract_z
Si Si1 0.117656 0.528729 0.633670
Si Si2 0.802339 0.895811 0.799561
Si Si3 0.095462 0.605248 0.937263
Si Si4 0.607959 0.331743 0.066182
Si Si5 0.173650 0.970504 0.011759
Si Si6 0.904387 0.671022 0.046790
Si Si7 0.250000 0.250000 0.000000
Si Si8 0.405028 0.278376 0.799208
O O1 0.112114 0.557164 0.806398
O O2 0.074878 0.452226 0.545302
O O3 0.224311 0.524598 0.763107
O O4 0.087544 0.588145 0.461948
O O5 0.696962 0.870485 0.645280
O O6 0.820640 0.939083 0.660174
O O7 0.855936 0.824429 0.858551
O O8 0.847255 0.946602 0.005155
O O9 0.000000 0.645390 0.750000
O O10 0.617891 0.414105 0.031448
O O11 0.672884 0.303649 0.305483
O O12 0.506576 0.306873 0.943816
O O13 0.636606 0.291398 0.943274
O O14 0.000000 0.701037 0.250000
O O15 0.828515 0.697175 0.047646
O O16 0.888965 0.700347 0.839530
#
# Coordination Sequence:
#
# PCOD9275431 Si02
#       8
#     8   8   8   8   8   8   4   8
#     4  10  21  40  63  90 131 164 213 278 333 394
#     4   9  20  37  60  91 124 171 214 274 331 390
#     4  10  20  39  61  91 125 168 214 273 339 395
#     4  10  21  43  69  93 134 178 221 276 334 396
#     4   9  18  37  61  91 126 165 218 269 331 388
#     4  12  25  45  66  98 134 176 224 276 331 403
#     4  12  24  44  68  94 132 182 218 274 336 384
#     4  10  23  44  65  95 139 175 218 275 333 402
#
# _framework density 25.883704000000002
#
# number of rings (size 3 to 8) (size 9 to 14) (size 15 to 20)
#    0.000    1.867    2.667    0.800    0.000    2.133 
#    9.600    0.000    0.000    0.000    0.000    0.000 
#    0.000    0.000    0.000    0.000    0.000    0.000 
#
# Total GULP energy -167260.499549 kJ/mol
# GULP energy per Si atom -5575.349985 kJ/mol
# Density = 2.582479 g / cm^3
# Si number density = 25.883704 Si / 1000 Ang^3
#
#
#
# Elastic Constant Matrix: (Units=GPa)
#
#
# Indices 1 2 3 4 5 6 
#
# 1 84.0512 7.2302 31.4679 0.0000 3.4634 0.0000
# 2 7.2302 78.2906 10.8525 0.0000 -7.2958 0.0000
# 3 31.4679 10.8525 32.6618 0.0000 -0.7197 0.0000
# 4 0.0000 0.0000 0.0000 26.9509 0.0000 -15.5689
# 5 3.4634 -7.2958 -0.7197 0.0000 35.3161 0.0000
# 6 0.0000 0.0000 0.0000 -15.5689 0.0000 34.2410
#
#
#
# Elastic Compliance Matrix: (Units=1/GPa)
#
#
# Indices 1 2 3 4 5 6 
#
# 1 0.018809 0.000615 -0.018372 0.000000 -0.002092 0.000000
# 2 0.000615 0.013667 -0.005075 0.000000 0.002660 0.000000
# 3 -0.018372 -0.005075 0.050043 0.000000 0.001773 0.000000
# 4 0.000000 0.000000 0.000000 0.050322 0.000000 0.022881
# 5 -0.002092 0.002660 0.001773 0.000000 0.029106 0.000000
# 6 0.000000 0.000000 0.000000 0.022881 0.000000 0.039608
#
#
# Mechanical properties :
#
#
# Convention : Reuss Voigt Hill
#
# Bulk Modulus (GPa) = 27.13345 32.67831 29.90588
# Shear Modulus (GPa) = 19.26743 28.99847 24.13295
#
# Velocity S-wave (km/s) = 2.73130 3.35077 3.05677
# Velocity P-wave (km/s) = 4.52242 5.25573 4.90280
#
# Compressibility (1/GPa) = 0.03685488
#
# Stress axis : x y z
#
# Youngs Moduli (GPa) = 53.16579 73.16635 19.98300
#
# Poissons Ratio (x) = -0.04497 0.36713
# Poissons Ratio (y) = -0.03268 0.10141
# Poissons Ratio (z) = 0.97676 0.37131
#
# Static dielectric constant tensor:
#      x y z
#    x 2.177610 0.000000 0.048560 
#    y 0.000000 2.141320 0.000000 
#    z 0.048560 0.000000 2.200020 
# 
# From -- ./inp_files/58125.got.cif
#   From: 2010.05.17/outbox.cif.g08.bks.cpg/sg15_30_cif.got.tgz:58125.got - 2010.06.03 18:47:42.
