data_PCOD9275421
_publ_section_title
;
Structure prediction by ZEFSAII (Michael W. Deem and Ramdas Pophale) SiO2 
 PCOD9275421
Probable space group: C 2/C
;
_chemical_formula_sum "Si O2"
_cell_formula_units_Z 44
_cell_length_a 12.244082
_cell_length_b 37.354762
_cell_length_c 5.246415
_cell_angle_alpha 90.000000
_cell_angle_beta 89.309415
_cell_angle_gamma 90.000000
_cell_volume 2399.403552
_symmetry_space_group_name_H-M "C 2/C"
_symmetry_group_IT_number 15
_symmetry_cell_setting 'monoclinic'
loop_
_space_group_symop_operation_xyz
x,y,z
-x,y,1/2-z
-x,-y,-z
x,-y,1/2+z
1/2+x,1/2+y,z
1/2-x,1/2+y,1/2-z
1/2-x,1/2-y,-z
1/2+x,1/2-y,1/2+z
loop_
_atom_site_type_symbol
_atom_site_label
_atom_site_fract_x
_atom_site_fract_y
_atom_site_fract_z
Si Si1 0.304552 0.081312 0.764417
Si Si2 0.631324 0.124636 0.237546
Si Si3 0.129580 0.778870 0.253505
Si Si4 0.369176 0.477300 0.256251
Si Si5 0.261638 0.798194 0.747796
Si Si6 0.000000 0.475538 0.250000
O O1 0.325983 0.106758 0.523319
O O2 0.190163 0.060681 0.752663
O O3 0.395170 0.050071 0.754148
O O4 0.320633 0.103202 0.023326
O O5 0.500000 0.122095 0.250000
O O6 0.669759 0.165566 0.250260
O O7 0.184834 0.795885 0.501736
O O8 0.160094 0.736634 0.259643
O O9 0.000000 0.783735 0.250000
O O10 0.187248 0.794711 0.001266
O O11 0.500000 0.473143 0.250000
O O12 0.337770 0.498890 0.512004
O O13 0.000000 0.500000 0.500000
#
# Coordination Sequence:
#
# PCOD9275421 Si02
#       6
#     8   8   8   8   8   4
#     4  12  23  39  59  89 119 153 193 246 289 364
#     4  12  23  41  58  84 123 159 193 232 304 364
#     4  10  20  39  61  90 119 149 206 257 294 338
#     4  10  21  40  63  84 110 150 195 242 289 340
#     4  10  22  37  62  88 116 163 197 242 300 359
#     4  12  22  36  58  86 118 152 192 244 302 340
#
# _framework density 18.337889000000001
#
# number of rings (size 3 to 8) (size 9 to 14) (size 15 to 20)
#    0.000    1.091    1.818    5.455    0.000    0.000 
#    0.000   10.909    0.000    0.000    0.000    0.000 
#    0.000    0.000    0.000    0.000    0.000    0.000 
#
# Total GULP energy -123041.950379 kJ/mol
# GULP energy per Si atom -5592.815926 kJ/mol
# Density = 1.829615 g / cm^3
# Si number density = 18.337889 Si / 1000 Ang^3
#
#
#
# Elastic Constant Matrix: (Units=GPa)
#
#
# Indices 1 2 3 4 5 6 
#
# 1 67.0560 24.3057 28.6170 0.0000 8.3590 0.0000
# 2 24.3057 86.5809 30.7621 0.0000 16.0933 0.0000
# 3 28.6170 30.7621 132.2016 0.0000 32.4025 0.0000
# 4 0.0000 0.0000 0.0000 1.9013 0.0000 -1.7518
# 5 8.3590 16.0933 32.4025 0.0000 11.6731 0.0000
# 6 0.0000 0.0000 0.0000 -1.7518 0.0000 26.5405
#
#
#
# Elastic Compliance Matrix: (Units=1/GPa)
#
#
# Indices 1 2 3 4 5 6 
#
# 1 0.017596 -0.004284 -0.003665 0.000000 0.003479 0.000000
# 2 -0.004284 0.017761 0.006396 0.000000 -0.039172 0.000000
# 3 -0.003665 0.006396 0.026239 0.000000 -0.079029 0.000000
# 4 0.000000 0.000000 0.000000 0.560025 0.000000 0.036964
# 5 0.003479 -0.039172 -0.079029 0.000000 0.356552 0.000000
# 6 0.000000 0.000000 0.000000 0.036964 0.000000 0.040118
#
#
# Mechanical properties :
#
#
# Convention : Reuss Voigt Hill
#
# Bulk Modulus (GPa) = 17.09696 50.35646 33.72671
# Shear Modulus (GPa) = 4.80356 21.49988 13.15172
#
# Velocity S-wave (km/s) = 1.62023 3.42779 2.68094
# Velocity P-wave (km/s) = 3.58382 6.57163 5.29292
#
# Compressibility (1/GPa) = 0.05848992
#
# Stress axis : x y z
#
# Youngs Moduli (GPa) = 56.83066 56.30177 38.11096
#
# Poissons Ratio (x) = 0.24121 0.13966
# Poissons Ratio (y) = 0.24348 -0.24374
# Poissons Ratio (z) = 0.20827 -0.36008
#
# Static dielectric constant tensor:
#      x y z
#    x 1.645750 0.000000 -0.021120 
#    y 0.000000 1.539670 0.000000 
#    z -0.021120 0.000000 1.599680 
# 
# From -- ./inp_files/5789.got.cif
#   From: 2010.05.17/outbox.cif.g08.bks.cpg/sg15_3_cif.got.tgz:5789.got - 2010.06.03 18:47:42.
