data_PCOD9275682
_publ_section_title
;
Structure prediction by ZEFSAII (Michael W. Deem and Ramdas Pophale) SiO2 
 PCOD9275682
Probable space group: C 2/C
;
_chemical_formula_sum "Si O2"
_cell_formula_units_Z 40
_cell_length_a 22.471931
_cell_length_b 7.378780
_cell_length_c 14.636126
_cell_angle_alpha 90.000000
_cell_angle_beta 36.511061
_cell_angle_gamma 90.000000
_cell_volume 1443.949395
_symmetry_space_group_name_H-M "C 2/C"
_symmetry_group_IT_number 15
_symmetry_cell_setting 'monoclinic'
loop_
_space_group_symop_operation_xyz
x,y,z
-x,y,1/2-z
-x,-y,-z
x,-y,1/2+z
1/2+x,1/2+y,z
1/2-x,1/2+y,1/2-z
1/2-x,1/2-y,-z
1/2+x,1/2-y,1/2+z
loop_
_atom_site_type_symbol
_atom_site_label
_atom_site_fract_x
_atom_site_fract_y
_atom_site_fract_z
Si Si1 0.796798 0.016981 0.773510
Si Si2 0.471165 0.287872 0.019467
Si Si3 0.119348 0.737313 0.969313
Si Si4 0.190134 0.980590 0.531844
Si Si5 0.912763 0.615289 0.793131
O O1 0.680516 0.058519 0.913666
O O2 0.853511 0.187333 0.657303
O O3 0.828621 0.837655 0.681682
O O4 0.828293 0.025236 0.839685
O O5 0.500000 0.500000 0.000000
O O6 0.509836 0.197447 0.065287
O O7 0.526003 0.204926 0.865820
O O8 0.136798 0.877602 0.030390
O O9 0.140498 0.781889 0.584263
O O10 0.312078 0.980201 0.376004
O O11 0.000000 0.529260 0.750000
#
# Coordination Sequence:
#
# PCOD9275682 Si02
#       5
#     8   8   8   8   8
#     4  11  24  42  65  97 128 172 224 264 339 388
#     4  10  20  39  63  95 119 172 221 260 319 389
#     4  11  23  42  65  91 135 168 216 280 315 402
#     4  11  24  40  64  97 130 177 216 272 335 386
#     4  11  22  39  67  96 132 167 225 269 327 393
#
# _framework density 27.701803000000002
#
# number of rings (size 3 to 8) (size 9 to 14) (size 15 to 20)
#    0.000    1.200    4.000    4.200    5.600    0.000 
#    3.600    2.000    0.000    0.000    0.000    0.000 
#    0.000    0.000    0.000    0.000    0.000    0.000 
#
# Total GULP energy -111953.482052 kJ/mol
# GULP energy per Si atom -5597.674103 kJ/mol
# Density = 2.763875 g / cm^3
# Si number density = 27.701803 Si / 1000 Ang^3
#
#
#
# Elastic Constant Matrix: (Units=GPa)
#
#
# Indices 1 2 3 4 5 6 
#
# 1 140.5780 16.8632 45.5676 -0.0009 0.1945 0.0001
# 2 16.8632 72.8583 18.2953 -0.0024 7.1538 0.0011
# 3 45.5676 18.2953 125.2200 -0.0003 -3.4225 0.0003
# 4 -0.0009 -0.0024 -0.0003 36.4729 0.0004 -5.9103
# 5 0.1945 7.1538 -3.4225 0.0004 67.9065 -0.0004
# 6 0.0001 0.0011 0.0003 -5.9103 -0.0004 53.5536
#
#
#
# Elastic Compliance Matrix: (Units=1/GPa)
#
#
# Indices 1 2 3 4 5 6 
#
# 1 0.008163 -0.001183 -0.002799 0.000000 -0.000040 0.000000
# 2 -0.001183 0.014597 -0.001747 0.000001 -0.001622 0.000000
# 3 -0.002799 -0.001747 0.009278 0.000000 0.000660 0.000000
# 4 0.000000 0.000001 0.000000 0.027917 0.000000 0.003081
# 5 -0.000040 -0.001622 0.000660 0.000000 0.014930 0.000000
# 6 0.000000 0.000000 0.000000 0.003081 0.000000 0.019013
#
#
# Mechanical properties :
#
#
# Convention : Reuss Voigt Hill
#
# Bulk Modulus (GPa) = 48.58799 55.56762 52.07781
# Shear Modulus (GPa) = 44.55790 48.78194 46.66992
#
# Velocity S-wave (km/s) = 4.01494 4.20094 4.10899
# Velocity P-wave (km/s) = 6.25066 6.60555 6.43055
#
# Compressibility (1/GPa) = 0.02058122
#
# Stress axis : x y z
#
# Youngs Moduli (GPa) = 122.51032 68.50777 107.78634
#
# Poissons Ratio (x) = 0.08101 0.30166
# Poissons Ratio (y) = 0.14488 0.18827
# Poissons Ratio (z) = 0.34287 0.11966
#
# Static dielectric constant tensor:
#      x y z
#    x 2.254300 0.000000 -0.133290 
#    y 0.000000 2.181950 0.000000 
#    z -0.133290 0.000000 2.304170 
# 
# From -- ./inp_files/160199.got.cif
#   From: 2010.05.17/outbox.cif.g08.bks.cpg/sg15_81_cif.got.tgz:160199.got - 2010.06.03 18:47:42.
