data_PCOD9275024
_publ_section_title
;
Structure prediction by ZEFSAII (Michael W. Deem and Ramdas Pophale) SiO2 
 PCOD9275024
Probable space group: C 2/C
;
_chemical_formula_sum "Si O2"
_cell_formula_units_Z 64
_cell_length_a 9.212141
_cell_length_b 21.098570
_cell_length_c 16.314803
_cell_angle_alpha 90.000000
_cell_angle_beta 99.190056
_cell_angle_gamma 90.000000
_cell_volume 3130.291199
_symmetry_space_group_name_H-M "C 2/C"
_symmetry_group_IT_number 15
_symmetry_cell_setting 'monoclinic'
loop_
_space_group_symop_operation_xyz
x,y,z
-x,y,1/2-z
-x,-y,-z
x,-y,1/2+z
1/2+x,1/2+y,z
1/2-x,1/2+y,1/2-z
1/2-x,1/2-y,-z
1/2+x,1/2-y,1/2+z
loop_
_atom_site_type_symbol
_atom_site_label
_atom_site_fract_x
_atom_site_fract_y
_atom_site_fract_z
Si Si1 0.048815 0.665493 0.539261
Si Si2 0.742139 0.686060 0.807564
Si Si3 0.982967 0.802502 0.971143
Si Si4 0.850937 0.036343 0.968140
Si Si5 0.248245 0.646088 0.076497
Si Si6 0.266964 0.095741 0.079027
Si Si7 0.573701 0.650664 0.638537
Si Si8 0.670155 0.825890 0.757117
O O1 0.119162 0.653364 0.634957
O O2 0.116621 0.620839 0.476438
O O3 0.104236 0.737706 0.534848
O O4 0.877754 0.666216 0.500191
O O5 0.701517 0.663373 0.713684
O O6 0.591369 0.663894 0.841556
O O7 0.754754 0.762480 0.795785
O O8 0.076834 0.802183 0.062727
O O9 0.105642 0.810557 0.913239
O O10 0.879516 0.864081 0.958512
O O11 0.892239 0.083057 0.897863
O O12 0.744291 0.979472 0.931697
O O13 0.797244 0.077997 0.041501
O O14 0.000000 0.000000 0.000000
O O15 0.197003 0.650923 0.166364
O O16 0.301084 0.119104 0.173895
O O17 0.500000 0.806469 0.750000
#
# Coordination Sequence:
#
# PCOD9275024 Si02
#       8
#     8   8   8   8   8   8   8   8
#     4  12  22  40  67 104 138 173 222 284 355 407
#     4  11  21  38  69 103 136 176 225 278 346 411
#     4  11  21  42  66 100 131 179 226 279 341 408
#     4  11  23  49  67  94 138 186 245 269 325 425
#     4  11  26  43  69  98 141 184 222 290 348 400
#     4  12  23  42  73  96 134 187 233 275 336 409
#     4  10  20  38  67  99 128 174 232 276 322 394
#     4  12  23  44  68 107 143 169 226 292 350 407
#
# _framework density 20.445383
#
# number of rings (size 3 to 8) (size 9 to 14) (size 15 to 20)
#    0.000    0.750    7.500    2.250    0.000    2.000 
#    6.750    5.000    0.000    0.000    0.000    0.000 
#    0.000    0.000    0.000    0.000    0.000    0.000 
#
# Total GULP energy -178295.664137 kJ/mol
# GULP energy per Si atom -5571.739504 kJ/mol
# Density = 2.039885 g / cm^3
# Si number density = 20.445383 Si / 1000 Ang^3
#
#
#
# Elastic Constant Matrix: (Units=GPa)
#
#
# Indices 1 2 3 4 5 6 
#
# 1 29.2042 -14.3879 -17.1636 0.0000 6.9395 0.0000
# 2 -14.3879 96.3260 9.4027 0.0000 2.9669 0.0000
# 3 -17.1636 9.4027 85.3608 0.0000 16.9052 0.0000
# 4 0.0000 0.0000 0.0000 18.2225 0.0000 4.4307
# 5 6.9395 2.9669 16.9052 0.0000 24.0605 0.0000
# 6 0.0000 0.0000 0.0000 4.4307 0.0000 32.9918
#
#
#
# Elastic Compliance Matrix: (Units=1/GPa)
#
#
# Indices 1 2 3 4 5 6 
#
# 1 0.053179 0.007287 0.015224 0.000000 -0.026933 0.000000
# 2 0.007287 0.011499 0.001040 0.000000 -0.004250 0.000000
# 3 0.015224 0.001040 0.018071 0.000000 -0.017216 0.000000
# 4 0.000000 0.000000 0.000000 0.056730 0.000000 -0.007619
# 5 -0.026933 -0.004250 -0.017216 0.000000 0.061950 0.000000
# 6 0.000000 0.000000 0.000000 -0.007619 0.000000 0.031334
#
#
# Mechanical properties :
#
#
# Convention : Reuss Voigt Hill
#
# Bulk Modulus (GPa) = 7.70117 18.51037 13.10577
# Shear Modulus (GPa) = 21.83938 30.59095 26.21516
#
# Velocity S-wave (km/s) = 3.27185 3.87231 3.58467
# Velocity P-wave (km/s) = 4.24832 5.39131 4.85358
#
# Compressibility (1/GPa) = 0.12985036
#
# Stress axis : x y z
#
# Youngs Moduli (GPa) = 18.80456 86.96285 55.33722
#
# Poissons Ratio (x) = -0.63366 -0.84245
# Poissons Ratio (y) = -0.13702 -0.05756
# Poissons Ratio (z) = -0.28628 -0.09046
#
# Static dielectric constant tensor:
#      x y z
#    x 1.829810 0.000000 0.012030 
#    y 0.000000 1.783350 0.000000 
#    z 0.012030 0.000000 1.772110 
# 
# From -- ./inp_files/192176.got.cif
#   From: 2010.05.17/outbox.cif.g08.bks.cpg/sg15_97_cif.got.tgz:192176.got - 2010.06.03 18:47:42.
