data_PCOD9275770
_publ_section_title
;
Structure prediction by ZEFSAII (Michael W. Deem and Ramdas Pophale) SiO2 
 PCOD9275770
Probable space group: C 2/C
;
_chemical_formula_sum "Si O2"
_cell_formula_units_Z 44
_cell_length_a 10.966282
_cell_length_b 36.675148
_cell_length_c 5.235262
_cell_angle_alpha 90.000000
_cell_angle_beta 85.328085
_cell_angle_gamma 90.000000
_cell_volume 2098.574203
_symmetry_space_group_name_H-M "C 2/C"
_symmetry_group_IT_number 15
_symmetry_cell_setting 'monoclinic'
loop_
_space_group_symop_operation_xyz
x,y,z
-x,y,1/2-z
-x,-y,-z
x,-y,1/2+z
1/2+x,1/2+y,z
1/2-x,1/2+y,1/2-z
1/2-x,1/2-y,-z
1/2+x,1/2-y,1/2+z
loop_
_atom_site_type_symbol
_atom_site_label
_atom_site_fract_x
_atom_site_fract_y
_atom_site_fract_z
Si Si1 0.273545 0.080686 0.768605
Si Si2 0.642387 0.120297 0.245082
Si Si3 0.134181 0.782003 0.306885
Si Si4 0.362505 0.515107 0.565614
Si Si5 0.282450 0.797857 0.772185
Si Si6 0.000000 0.475079 0.250000
O O1 0.285045 0.102740 0.504740
O O2 0.152981 0.056080 0.832961
O O3 0.382222 0.051002 0.759119
O O4 0.298400 0.106759 0.002718
O O5 0.500000 0.108715 0.250000
O O6 0.649104 0.163937 0.240844
O O7 0.177867 0.797355 0.570989
O O8 0.138705 0.737794 0.314379
O O9 0.000000 0.794332 0.250000
O O10 0.226694 0.792474 0.063583
O O11 0.500000 0.500000 0.500000
O O12 0.304830 0.510331 0.295461
O O13 0.000000 0.500000 0.500000
#
# Coordination Sequence:
#
# PCOD9275770 Si02
#       6
#     8   8   8   8   8   4
#     4  12  23  39  61  92 124 162 199 261 314 391
#     4  12  23  41  61  91 135 164 203 251 330 383
#     4  10  20  39  64  93 125 161 225 259 306 357
#     4  10  21  40  66  86 112 154 204 264 300 356
#     4  10  22  37  64  94 124 172 205 265 308 371
#     4  12  22  36  58  90 120 156 200 248 324 370
#
# _framework density 20.966615999999998
#
# number of rings (size 3 to 8) (size 9 to 14) (size 15 to 20)
#    0.000    1.091    1.818    5.455    0.000    0.000 
#    0.000    5.455   40.000    0.000    0.000    0.000 
#    0.000    0.000    0.000    0.000    0.000    0.000 
#
# Total GULP energy -122937.050369 kJ/mol
# GULP energy per Si atom -5588.047744 kJ/mol
# Density = 2.091890 g / cm^3
# Si number density = 20.966616 Si / 1000 Ang^3
#
#
#
# Elastic Constant Matrix: (Units=GPa)
#
#
# Indices 1 2 3 4 5 6 
#
# 1 55.6947 11.9550 -9.3691 0.0000 -2.5697 0.0000
# 2 11.9550 96.0930 42.6758 0.0000 -12.0353 0.0000
# 3 -9.3691 42.6758 143.0073 0.0000 2.9338 0.0000
# 4 0.0000 0.0000 0.0000 25.8629 0.0000 1.0185
# 5 -2.5697 -12.0353 2.9338 0.0000 18.2291 0.0000
# 6 0.0000 0.0000 0.0000 1.0185 0.0000 21.1112
#
#
#
# Elastic Compliance Matrix: (Units=1/GPa)
#
#
# Indices 1 2 3 4 5 6 
#
# 1 0.019058 -0.003356 0.002248 0.000000 0.000109 0.000000
# 2 -0.003356 0.014071 -0.004615 0.000000 0.009560 0.000000
# 3 0.002248 -0.004615 0.008602 0.000000 -0.004114 0.000000
# 4 0.000000 0.000000 0.000000 0.038739 0.000000 -0.001869
# 5 0.000109 0.009560 -0.004114 0.000000 0.061846 0.000000
# 6 0.000000 0.000000 0.000000 -0.001869 0.000000 0.047458
#
#
# Mechanical properties :
#
#
# Convention : Reuss Voigt Hill
#
# Bulk Modulus (GPa) = 33.01938 42.81313 37.91626
# Shear Modulus (GPa) = 23.66130 29.67620 26.66875
#
# Velocity S-wave (km/s) = 3.36299 3.76626 3.57033
# Velocity P-wave (km/s) = 5.55539 6.27511 5.92619
#
# Compressibility (1/GPa) = 0.03028524
#
# Stress axis : x y z
#
# Youngs Moduli (GPa) = 52.47005 71.06846 116.25870
#
# Poissons Ratio (x) = 0.23848 -0.26132
# Poissons Ratio (y) = 0.17607 0.53653
# Poissons Ratio (z) = -0.11794 0.32798
#
# Static dielectric constant tensor:
#      x y z
#    x 1.859180 0.000000 0.032600 
#    y 0.000000 1.747840 0.000000 
#    z 0.032600 0.000000 1.771670 
# 
# From -- ./inp_files/5788.got.cif
#   From: 2010.05.17/outbox.cif.g08.bks.cpg/sg15_3_cif.got.tgz:5788.got - 2010.06.03 18:47:42.
