data_PCOD9275187
_publ_section_title
;
Structure prediction by ZEFSAII (Michael W. Deem and Ramdas Pophale) SiO2 
 PCOD9275187
Probable space group: C 2/C
;
_chemical_formula_sum "Si O2"
_cell_formula_units_Z 40
_cell_length_a 11.923851
_cell_length_b 8.163331
_cell_length_c 18.387165
_cell_angle_alpha 90.000000
_cell_angle_beta 89.838510
_cell_angle_gamma 90.000000
_cell_volume 1789.769055
_symmetry_space_group_name_H-M "C 2/C"
_symmetry_group_IT_number 15
_symmetry_cell_setting 'monoclinic'
loop_
_space_group_symop_operation_xyz
x,y,z
-x,y,1/2-z
-x,-y,-z
x,-y,1/2+z
1/2+x,1/2+y,z
1/2-x,1/2+y,1/2-z
1/2-x,1/2-y,-z
1/2+x,1/2-y,1/2+z
loop_
_atom_site_type_symbol
_atom_site_label
_atom_site_fract_x
_atom_site_fract_y
_atom_site_fract_z
Si Si1 0.188033 0.630125 0.594610
Si Si2 0.969850 0.449830 0.167382
Si Si3 0.208967 0.667140 0.284660
Si Si4 0.266365 0.659111 0.854669
Si Si5 0.631543 0.478567 0.516180
O O1 0.236950 0.684963 0.672123
O O2 0.281673 0.528240 0.551472
O O3 0.157036 0.800931 0.553490
O O4 0.070650 0.545505 0.611711
O O5 0.910820 0.624785 0.179835
O O6 0.868747 0.337941 0.136585
O O7 0.000000 0.393410 0.250000
O O8 0.280938 0.507411 0.306050
O O9 0.199151 0.698292 0.199676
O O10 0.329170 0.620809 0.928509
O O11 0.500000 0.500000 0.500000
#
# Coordination Sequence:
#
# PCOD9275187 Si02
#       5
#     8   8   8   8   8
#     4  10  20  44  65  92 139 168 216 275 329 389
#     4  10  20  38  71  95 128 171 214 275 333 377
#     4   9  19  38  67  95 126 171 223 269 327 384
#     4   9  20  40  67  99 129 169 226 265 332 390
#     4  10  23  43  64  95 136 177 214 270 331 392
#
# _framework density 22.349250999999999
#
# number of rings (size 3 to 8) (size 9 to 14) (size 15 to 20)
#    1.200    1.200    2.000    0.000    0.000    2.400 
#    7.200    1.000    0.000    0.000    0.000    0.000 
#    0.000    0.000    0.000    0.000    0.000    0.000 
#
# Total GULP energy -111513.873781 kJ/mol
# GULP energy per Si atom -5575.693689 kJ/mol
# Density = 2.229838 g / cm^3
# Si number density = 22.349251 Si / 1000 Ang^3
#
#
#
# Elastic Constant Matrix: (Units=GPa)
#
#
# Indices 1 2 3 4 5 6 
#
# 1 159.0385 17.3101 41.7331 0.0000 -13.0971 0.0000
# 2 17.3101 42.7940 2.6190 0.0000 -8.2999 0.0000
# 3 41.7331 2.6190 56.3537 0.0000 5.9266 0.0000
# 4 0.0000 0.0000 0.0000 28.2736 0.0000 -2.7690
# 5 -13.0971 -8.2999 5.9266 0.0000 44.5827 0.0000
# 6 0.0000 0.0000 0.0000 -2.7690 0.0000 25.7605
#
#
#
# Elastic Compliance Matrix: (Units=1/GPa)
#
#
# Indices 1 2 3 4 5 6 
#
# 1 0.008497 -0.002479 -0.006482 0.000000 0.002896 0.000000
# 2 -0.002479 0.025114 0.000257 0.000000 0.003913 0.000000
# 3 -0.006482 0.000257 0.023051 0.000000 -0.004921 0.000000
# 4 0.000000 0.000000 0.000000 0.035745 0.000000 0.003842
# 5 0.002896 0.003913 -0.004921 0.000000 0.024664 0.000000
# 6 0.000000 0.000000 0.000000 0.003842 0.000000 0.039232
#
#
# Mechanical properties :
#
#
# Convention : Reuss Voigt Hill
#
# Bulk Modulus (GPa) = 25.47502 42.39008 33.93255
# Shear Modulus (GPa) = 26.76742 32.82496 29.79619
#
# Velocity S-wave (km/s) = 3.46452 3.83656 3.65527
# Velocity P-wave (km/s) = 5.23710 6.21561 5.74722
#
# Compressibility (1/GPa) = 0.03925414
#
# Stress axis : x y z
#
# Youngs Moduli (GPa) = 117.68859 39.81909 43.38234
#
# Poissons Ratio (x) = 0.09869 0.28120
# Poissons Ratio (y) = 0.29170 -0.01114
# Poissons Ratio (z) = 0.76285 -0.01023
#
# Static dielectric constant tensor:
#      x y z
#    x 1.825950 0.000000 0.016180 
#    y 0.000000 1.895880 0.000000 
#    z 0.016180 0.000000 1.822510 
# 
# From -- ./inp_files/235896.got.cif
#   From: 2010.05.17/outbox.cif.g08.bks.cpg/sg15_118_cif.got.tgz:235896.got - 2010.06.03 18:47:42.
