data_PCOD9275491
_publ_section_title
;
Structure prediction by ZEFSAII (Michael W. Deem and Ramdas Pophale) SiO2 
 PCOD9275491
Probable space group: C 2/C
;
_chemical_formula_sum "Si O2"
_cell_formula_units_Z 56
_cell_length_a 6.937467
_cell_length_b 12.651717
_cell_length_c 25.154493
_cell_angle_alpha 90.000000
_cell_angle_beta 110.594797
_cell_angle_gamma 90.000000
_cell_volume 2066.732463
_symmetry_space_group_name_H-M "C 2/C"
_symmetry_group_IT_number 15
_symmetry_cell_setting 'monoclinic'
loop_
_space_group_symop_operation_xyz
x,y,z
-x,y,1/2-z
-x,-y,-z
x,-y,1/2+z
1/2+x,1/2+y,z
1/2-x,1/2+y,1/2-z
1/2-x,1/2-y,-z
1/2+x,1/2-y,1/2+z
loop_
_atom_site_type_symbol
_atom_site_label
_atom_site_fract_x
_atom_site_fract_y
_atom_site_fract_z
Si Si1 0.914862 0.897882 0.185803
Si Si2 0.252076 0.655109 0.945993
Si Si3 0.579092 0.911926 0.315062
Si Si4 0.522572 0.649537 0.055544
Si Si5 0.060280 0.268401 0.904157
Si Si6 0.820246 0.572485 0.310415
Si Si7 0.156239 0.065540 0.182681
O O1 0.863887 0.814651 0.133877
O O2 0.000000 0.852477 0.250000
O O3 0.911942 0.034440 0.183669
O O4 0.166641 0.930705 0.183813
O O5 0.158442 0.614019 0.882395
O O6 0.455807 0.711564 0.943096
O O7 0.082865 0.735635 0.951027
O O8 0.350719 0.587824 0.003989
O O9 0.500000 0.863355 0.250000
O O10 0.330020 0.933692 0.313950
O O11 0.580337 0.046918 0.314024
O O12 0.753939 0.659623 0.057519
O O13 0.566154 0.612639 0.119679
O O14 0.887256 0.339932 0.859408
O O15 0.733218 0.615935 0.245726
#
# Coordination Sequence:
#
# PCOD9275491 Si02
#       7
#     8   8   8   8   8   8   8
#     4  10  22  38  63  98 135 169 221 287 335 403
#     4  11  25  44  62  96 129 170 225 276 321 404
#     4  10  20  39  62  88 123 159 208 269 328 392
#     4  11  25  42  65  90 132 175 224 270 326 402
#     4  12  23  41  70  94 130 179 220 274 345 392
#     4  10  22  38  64  98 130 163 221 279 332 404
#     4  10  20  41  60  91 129 167 211 269 331 395
#
# _framework density 27.095914
#
# number of rings (size 3 to 8) (size 9 to 14) (size 15 to 20)
#    0.000    1.429    2.857    2.143    2.000    1.714 
#    0.000    0.000    0.000    6.000    0.000    0.000 
#    0.000    0.000    0.000    0.000    0.000    0.000 
#
# Total GULP energy -155943.145397 kJ/mol
# GULP energy per Si atom -5569.398050 kJ/mol
# Density = 2.703424 g / cm^3
# Si number density = 27.095914 Si / 1000 Ang^3
#
#
#
# Elastic Constant Matrix: (Units=GPa)
#
#
# Indices 1 2 3 4 5 6 
#
# 1 202.8847 21.4693 52.7865 0.0000 15.9623 0.0000
# 2 21.4693 43.2022 37.8470 0.0000 14.0961 0.0000
# 3 52.7865 37.8470 260.8512 0.0000 54.2066 0.0000
# 4 0.0000 0.0000 0.0000 31.0545 0.0000 2.4522
# 5 15.9623 14.0961 54.2066 0.0000 51.5588 0.0000
# 6 0.0000 0.0000 0.0000 2.4522 0.0000 63.4454
#
#
#
# Elastic Compliance Matrix: (Units=1/GPa)
#
#
# Indices 1 2 3 4 5 6 
#
# 1 0.005349 -0.001898 -0.000730 0.000000 -0.000369 0.000000
# 2 -0.001898 0.027886 -0.002815 0.000000 -0.004077 0.000000
# 3 -0.000730 -0.002815 0.005352 0.000000 -0.004631 0.000000
# 4 0.000000 0.000000 0.000000 0.032300 0.000000 -0.001248
# 5 -0.000369 -0.004077 -0.004631 0.000000 0.025494 0.000000
# 6 0.000000 0.000000 0.000000 -0.001248 0.000000 0.015810
#
#
# Mechanical properties :
#
#
# Convention : Reuss Voigt Hill
#
# Bulk Modulus (GPa) = 36.09900 81.23819 58.66860
# Shear Modulus (GPa) = 37.78998 55.53411 46.66205
#
# Velocity S-wave (km/s) = 3.73859 4.53209 4.15433
# Velocity P-wave (km/s) = 5.65576 7.57848 6.68659
#
# Compressibility (1/GPa) = 0.02770160
#
# Stress axis : x y z
#
# Youngs Moduli (GPa) = 186.95788 35.86007 186.83850
#
# Poissons Ratio (x) = 0.06806 0.13645
# Poissons Ratio (y) = 0.35481 0.52589
# Poissons Ratio (z) = 0.13654 0.10093
#
# Static dielectric constant tensor:
#      x y z
#    x 2.570650 0.000000 0.017440 
#    y 0.000000 2.167630 0.000000 
#    z 0.017440 0.000000 1.925350 
# 
# From -- ./inp_files/264828.got.cif
#   From: 2010.05.17/outbox.cif.g08.bks.cpg/sg15_133_cif.got.tgz:264828.got - 2010.06.03 18:47:42.
