data_PCOD9275680
_publ_section_title
;
Structure prediction by ZEFSAII (Michael W. Deem and Ramdas Pophale) SiO2 
 PCOD9275680
Probable space group: C 2/C
;
_chemical_formula_sum "Si O2"
_cell_formula_units_Z 40
_cell_length_a 5.665391
_cell_length_b 28.761447
_cell_length_c 10.336030
_cell_angle_alpha 90.000000
_cell_angle_beta 71.330891
_cell_angle_gamma 90.000000
_cell_volume 1595.585085
_symmetry_space_group_name_H-M "C 2/C"
_symmetry_group_IT_number 15
_symmetry_cell_setting 'monoclinic'
loop_
_space_group_symop_operation_xyz
x,y,z
-x,y,1/2-z
-x,-y,-z
x,-y,1/2+z
1/2+x,1/2+y,z
1/2-x,1/2+y,1/2-z
1/2-x,1/2-y,-z
1/2+x,1/2-y,1/2+z
loop_
_atom_site_type_symbol
_atom_site_label
_atom_site_fract_x
_atom_site_fract_y
_atom_site_fract_z
Si Si1 0.220076 0.803511 0.958487
Si Si2 0.776713 0.662435 0.050785
Si Si3 0.500000 0.204098 0.750000
Si Si4 0.500000 0.297326 0.250000
Si Si5 0.572121 0.930721 0.883790
Si Si6 0.142094 0.023501 0.598655
O O1 0.499087 0.821606 0.893337
O O2 0.102130 0.826026 0.111041
O O3 0.993213 0.813097 0.900759
O O4 0.250000 0.750000 0.000000
O O5 0.902618 0.674843 0.889744
O O6 0.753111 0.608107 0.083393
O O7 0.755980 0.229864 0.742470
O O8 0.500000 0.919593 0.750000
O O9 0.701771 0.980708 0.868011
O O10 0.321617 0.937196 0.010180
O O11 0.000000 0.041941 0.750000
O O12 0.000000 0.000000 0.500000
#
# Coordination Sequence:
#
# PCOD9275680 Si02
#       6
#     8   8   4   4   8   8
#     4  10  20  39  63  94 131 176 230 287 357 440
#     4  10  22  38  66  98 132 178 229 296 364 425
#     4   8  16  34  54  88 118 157 216 279 338 406
#     4   8  16  32  56  78 120 159 208 277 336 392
#     4  11  25  44  69 104 149 190 247 312 374 457
#     4  11  24  45  73 102 143 202 248 304 378 454
#
# _framework density 25.069177
#
# number of rings (size 3 to 8) (size 9 to 14) (size 15 to 20)
#    0.000    2.000    2.000    0.600    2.800    1.600 
#    9.000    0.000    0.000    0.000    0.000    0.000 
#    0.000    0.000    0.000    0.000    0.000    0.000 
#
# Total GULP energy -111570.328736 kJ/mol
# GULP energy per Si atom -5578.516437 kJ/mol
# Density = 2.501212 g / cm^3
# Si number density = 25.069177 Si / 1000 Ang^3
#
#
#
# Elastic Constant Matrix: (Units=GPa)
#
#
# Indices 1 2 3 4 5 6 
#
# 1 234.8168 39.4935 34.4542 0.0000 7.8117 0.0000
# 2 39.4935 90.9097 26.6219 0.0000 -5.1055 0.0000
# 3 34.4542 26.6219 156.0942 0.0000 13.4502 0.0000
# 4 0.0000 0.0000 0.0000 18.0093 0.0000 5.8075
# 5 7.8117 -5.1055 13.4502 0.0000 31.1188 0.0000
# 6 0.0000 0.0000 0.0000 5.8075 0.0000 39.4278
#
#
#
# Elastic Compliance Matrix: (Units=1/GPa)
#
#
# Indices 1 2 3 4 5 6 
#
# 1 0.004715 -0.001942 -0.000603 0.000000 -0.001242 0.000000
# 2 -0.001942 0.012628 -0.002021 0.000000 0.003433 0.000000
# 3 -0.000603 -0.002021 0.007167 0.000000 -0.003278 0.000000
# 4 0.000000 0.000000 0.000000 0.058296 0.000000 -0.008587
# 5 -0.001242 0.003433 -0.003278 0.000000 0.034427 0.000000
# 6 0.000000 0.000000 0.000000 -0.008587 0.000000 0.026628
#
#
# Mechanical properties :
#
#
# Convention : Reuss Voigt Hill
#
# Bulk Modulus (GPa) = 65.02269 75.88443 70.45356
# Shear Modulus (GPa) = 31.62235 43.12792 37.37513
#
# Velocity S-wave (km/s) = 3.55548 4.15222 3.86538
# Velocity P-wave (km/s) = 6.54590 7.30230 6.93442
#
# Compressibility (1/GPa) = 0.01537925
#
# Stress axis : x y z
#
# Youngs Moduli (GPa) = 212.09322 79.18926 139.53801
#
# Poissons Ratio (x) = 0.15375 0.08408
# Poissons Ratio (y) = 0.41179 0.28200
# Poissons Ratio (z) = 0.12780 0.16004
#
# Static dielectric constant tensor:
#      x y z
#    x 2.071800 0.000000 -0.009000 
#    y 0.000000 1.919060 0.000000 
#    z -0.009000 0.000000 2.134120 
# 
# From -- ./inp_files/73135.got.cif
#   From: 2010.05.17/outbox.cif.g08.bks.cpg/sg15_37_cif.got.tgz:73135.got - 2010.06.03 18:47:42.
