data_PCOD9275041
_publ_section_title
;
Structure prediction by ZEFSAII (Michael W. Deem and Ramdas Pophale) SiO2 
 PCOD9275041
Probable space group: C 2/C
;
_chemical_formula_sum "Si O2"
_cell_formula_units_Z 60
_cell_length_a 9.037939
_cell_length_b 28.788114
_cell_length_c 11.648829
_cell_angle_alpha 90.000000
_cell_angle_beta 74.074227
_cell_angle_gamma 90.000000
_cell_volume 2914.522848
_symmetry_space_group_name_H-M "C 2/C"
_symmetry_group_IT_number 15
_symmetry_cell_setting 'monoclinic'
loop_
_space_group_symop_operation_xyz
x,y,z
-x,y,1/2-z
-x,-y,-z
x,-y,1/2+z
1/2+x,1/2+y,z
1/2-x,1/2+y,1/2-z
1/2-x,1/2-y,-z
1/2+x,1/2-y,1/2+z
loop_
_atom_site_type_symbol
_atom_site_label
_atom_site_fract_x
_atom_site_fract_y
_atom_site_fract_z
Si Si1 0.853283 0.887024 0.202035
Si Si2 0.438467 0.853584 0.135505
Si Si3 0.179958 0.748687 0.889196
Si Si4 0.449170 0.665431 0.463514
Si Si5 0.000000 0.283486 0.750000
Si Si6 0.146038 0.351912 0.888322
Si Si7 0.914283 0.989057 0.140363
Si Si8 0.644398 0.411559 0.808109
O O1 0.718541 0.881035 0.322497
O O2 0.843183 0.937682 0.145101
O O3 0.000000 0.884435 0.250000
O O4 0.871173 0.846257 0.102915
O O5 0.500000 0.857977 0.250000
O O6 0.400384 0.799566 0.122466
O O7 0.555246 0.872031 0.015840
O O8 0.338092 0.756307 0.784528
O O9 0.054309 0.789785 0.916875
O O10 0.250000 0.750000 0.000000
O O11 0.305835 0.668459 0.405740
O O12 0.567443 0.622181 0.418947
O O13 0.027622 0.316661 0.853522
O O14 0.210061 0.386981 0.779980
O O15 0.000000 0.987141 0.250000
O O16 0.814205 0.035889 0.170271
O O17 0.000000 0.000000 0.000000
O O18 0.500000 0.413992 0.750000
#
# Coordination Sequence:
#
# PCOD9275041 Si02
#       8
#     8   8   8   8   4   8   8   8
#     4  11  24  41  67  99 134 170 219 280 331 396
#     4  12  27  43  63  92 134 179 219 269 335 395
#     4  12  27  42  62  95 130 176 220 273 331 396
#     4  11  22  42  68  93 128 172 226 269 330 395
#     4  12  26  42  64  94 134 160 224 284 328 386
#     4  11  24  44  65  95 130 175 218 278 329 399
#     4  10  20  38  68 104 132 168 223 280 337 403
#     4   9  19  38  69  96 124 166 220 270 324 398
#
# _framework density 20.586562000000001
#
# number of rings (size 3 to 8) (size 9 to 14) (size 15 to 20)
#    0.000    1.067    5.333    0.800    4.667    0.533 
#    0.000    0.667    1.467    0.000    0.000    0.000 
#    0.000    0.000    0.000    0.000    0.000    0.000 
#
# Total GULP energy -167125.576911 kJ/mol
# GULP energy per Si atom -5570.852564 kJ/mol
# Density = 2.053971 g / cm^3
# Si number density = 20.586562 Si / 1000 Ang^3
#
#
#
# Elastic Constant Matrix: (Units=GPa)
#
#
# Indices 1 2 3 4 5 6 
#
# 1 82.8876 11.7797 12.8092 0.0000 -16.4644 0.0000
# 2 11.7797 52.7830 -6.1436 0.0000 -15.8312 0.0000
# 3 12.8092 -6.1436 89.7865 0.0000 -23.7010 0.0000
# 4 0.0000 0.0000 0.0000 38.8103 0.0000 -46.3207
# 5 -16.4644 -15.8312 -23.7010 0.0000 41.0186 0.0000
# 6 0.0000 0.0000 0.0000 -46.3207 0.0000 109.3278
#
#
#
# Elastic Compliance Matrix: (Units=1/GPa)
#
#
# Indices 1 2 3 4 5 6 
#
# 1 0.013283 -0.001855 -0.000948 0.000000 0.004068 0.000000
# 2 -0.001855 0.023195 0.004741 0.000000 0.010947 0.000000
# 3 -0.000948 0.004741 0.014136 0.000000 0.009617 0.000000
# 4 0.000000 0.000000 0.000000 0.052125 0.000000 0.022084
# 5 0.004068 0.010947 0.009617 0.000000 0.035794 0.000000
# 6 0.000000 0.000000 0.000000 0.022084 0.000000 0.018504
#
#
# Mechanical properties :
#
#
# Convention : Reuss Voigt Hill
#
# Bulk Modulus (GPa) = 18.35173 29.14976 23.75074
# Shear Modulus (GPa) = 29.18490 51.63212 40.40851
#
# Velocity S-wave (km/s) = 3.76928 5.01348 4.43522
# Velocity P-wave (km/s) = 5.27987 6.90678 6.14738
#
# Compressibility (1/GPa) = 0.05449078
#
# Stress axis : x y z
#
# Youngs Moduli (GPa) = 75.28628 43.11340 70.74196
#
# Poissons Ratio (x) = 0.07996 0.06706
# Poissons Ratio (y) = 0.13962 -0.33542
# Poissons Ratio (z) = 0.07137 -0.20442
#
# Static dielectric constant tensor:
#      x y z
#    x 2.027830 0.000000 -0.312550 
#    y 0.000000 1.767670 0.000000 
#    z -0.312550 0.000000 2.174710 
# 
# From -- ./inp_files/82553.got.cif
#   From: 2010.05.17/outbox.cif.g08.bks.cpg/sg15_42_cif.got.tgz:82553.got - 2010.06.03 18:47:42.
