data_PCOD9275223
_publ_section_title
;
Structure prediction by ZEFSAII (Michael W. Deem and Ramdas Pophale) SiO2 
 PCOD9275223
Probable space group: C 2/C
;
_chemical_formula_sum "Si O2"
_cell_formula_units_Z 64
_cell_length_a 23.044298
_cell_length_b 18.518537
_cell_length_c 12.395578
_cell_angle_alpha 90.000000
_cell_angle_beta 137.353259
_cell_angle_gamma 90.000000
_cell_volume 3583.694729
_symmetry_space_group_name_H-M "C 2/C"
_symmetry_group_IT_number 15
_symmetry_cell_setting 'monoclinic'
loop_
_space_group_symop_operation_xyz
x,y,z
-x,y,1/2-z
-x,-y,-z
x,-y,1/2+z
1/2+x,1/2+y,z
1/2-x,1/2+y,1/2-z
1/2-x,1/2-y,-z
1/2+x,1/2-y,1/2+z
loop_
_atom_site_type_symbol
_atom_site_label
_atom_site_fract_x
_atom_site_fract_y
_atom_site_fract_z
Si Si1 0.562122 0.393860 0.075204
Si Si2 0.584932 0.129293 0.918557
Si Si3 0.009542 0.592078 0.135043
Si Si4 0.633364 0.012268 0.156546
Si Si5 0.503789 0.768169 0.481736
Si Si6 0.318790 0.197622 0.646294
Si Si7 0.432594 0.481502 0.755075
Si Si8 0.205037 0.921138 0.089999
O O1 0.583182 0.441939 0.208742
O O2 0.639243 0.404850 0.096005
O O3 0.541480 0.309643 0.062900
O O4 0.478477 0.429790 0.904895
O O5 0.500000 0.094827 0.750000
O O6 0.551818 0.198804 0.941459
O O7 0.644696 0.149885 0.901859
O O8 0.625952 0.074443 0.057498
O O9 0.000000 0.594275 0.250000
O O10 0.091222 0.545134 0.207228
O O11 0.928452 0.552596 0.967753
O O12 0.015693 0.671459 0.090469
O O13 0.729653 0.985998 0.298500
O O14 0.402628 0.765719 0.313613
O O15 0.250000 0.250000 0.500000
O O16 0.266116 0.147073 0.654441
O O17 0.500000 0.492032 0.750000
O O18 0.350839 0.442525 0.591096
#
# Coordination Sequence:
#
# PCOD9275223 Si02
#       8
#     8   8   8   8   8   8   8   8
#     4  10  21  39  63  78 118 155 193 244 286 350
#     4   9  20  35  58  80 115 156 188 236 295 349
#     4  10  21  36  60  84 120 159 191 234 293 364
#     4  10  21  36  56  89 119 147 199 239 290 360
#     4  10  20  39  55  84 114 158 196 230 296 362
#     4  11  21  34  56  89 115 145 195 249 301 347
#     4   9  21  40  59  86 107 152 203 238 291 340
#     4  11  22  35  58  90 115 144 193 252 294 338
#
# _framework density 17.858664999999998
#
# number of rings (size 3 to 8) (size 9 to 14) (size 15 to 20)
#    0.000    2.000    1.250    1.875    5.250    4.000 
#    2.250    0.000    0.000    2.250    0.000    0.000 
#    0.000    0.000    0.000    0.000    0.000    0.000 
#
# Total GULP energy -178602.429625 kJ/mol
# GULP energy per Si atom -5581.325926 kJ/mol
# Density = 1.781802 g / cm^3
# Si number density = 17.858665 Si / 1000 Ang^3
#
#
#
# Elastic Constant Matrix: (Units=GPa)
#
#
# Indices 1 2 3 4 5 6 
#
# 1 61.1980 25.6283 24.8134 0.0000 4.0685 0.0000
# 2 25.6283 90.5658 17.0374 0.0000 4.5768 0.0000
# 3 24.8134 17.0374 43.1346 0.0000 9.7005 0.0000
# 4 0.0000 0.0000 0.0000 24.2967 0.0000 -2.7904
# 5 4.0685 4.5768 9.7005 0.0000 35.6057 0.0000
# 6 0.0000 0.0000 0.0000 -2.7904 0.0000 5.0365
#
#
#
# Elastic Compliance Matrix: (Units=1/GPa)
#
#
# Indices 1 2 3 4 5 6 
#
# 1 0.022803 -0.004315 -0.011667 0.000000 0.001128 0.000000
# 2 -0.004315 0.012747 -0.002445 0.000000 -0.000479 0.000000
# 3 -0.011667 -0.002445 0.032480 0.000000 -0.007201 0.000000
# 4 0.000000 0.000000 0.000000 0.043955 0.000000 0.024352
# 5 0.001128 -0.000479 -0.007201 0.000000 0.029980 0.000000
# 6 0.000000 0.000000 0.000000 0.024352 0.000000 0.212044
#
#
# Mechanical properties :
#
#
# Convention : Reuss Voigt Hill
#
# Bulk Modulus (GPa) = 32.07535 36.65074 34.36304
# Shear Modulus (GPa) = 12.46095 21.48238 16.97166
#
# Velocity S-wave (km/s) = 2.64437 3.47206 3.08609
# Velocity P-wave (km/s) = 5.22716 6.05317 5.65527
#
# Compressibility (1/GPa) = 0.03117659
#
# Stress axis : x y z
#
# Youngs Moduli (GPa) = 43.85419 78.45056 30.78845
#
# Poissons Ratio (x) = 0.33851 0.35920
# Poissons Ratio (y) = 0.18923 0.07527
# Poissons Ratio (z) = 0.51163 0.19179
#
# Static dielectric constant tensor:
#      x y z
#    x 1.587010 0.000000 -0.008780 
#    y 0.000000 1.636290 0.000000 
#    z -0.008780 0.000000 1.598980 
# 
# From -- ./inp_files/113683.got.cif
#   From: 2010.05.17/outbox.cif.g08.bks.cpg/sg15_57_cif.got.tgz:113683.got - 2010.06.03 18:47:42.
