data_PCOD9275662
_publ_section_title
;
Structure prediction by ZEFSAII (Michael W. Deem and Ramdas Pophale) SiO2 
 PCOD9275662
Probable space group: C 2/C
;
_chemical_formula_sum "Si O2"
_cell_formula_units_Z 44
_cell_length_a 11.234084
_cell_length_b 12.194570
_cell_length_c 18.043669
_cell_angle_alpha 90.000000
_cell_angle_beta 129.034527
_cell_angle_gamma 90.000000
_cell_volume 1920.080976
_symmetry_space_group_name_H-M "C 2/C"
_symmetry_group_IT_number 15
_symmetry_cell_setting 'monoclinic'
loop_
_space_group_symop_operation_xyz
x,y,z
-x,y,1/2-z
-x,-y,-z
x,-y,1/2+z
1/2+x,1/2+y,z
1/2-x,1/2+y,1/2-z
1/2-x,1/2-y,-z
1/2+x,1/2-y,1/2+z
loop_
_atom_site_type_symbol
_atom_site_label
_atom_site_fract_x
_atom_site_fract_y
_atom_site_fract_z
Si Si1 0.781280 0.147517 0.066361
Si Si2 0.493340 0.723342 0.602650
Si Si3 0.000000 0.257995 0.250000
Si Si4 0.687064 0.911196 0.029450
Si Si5 0.196307 0.704617 0.687799
Si Si6 0.027270 0.112827 0.052050
O O1 0.847711 0.189372 0.169592
O O2 0.934166 0.098274 0.089765
O O3 0.673318 0.042511 0.021170
O O4 0.750000 0.250000 0.000000
O O5 0.432347 0.847617 0.570712
O O6 0.349600 0.644567 0.567095
O O7 0.636034 0.700099 0.710891
O O8 0.538025 0.696420 0.535050
O O9 0.935539 0.314350 0.300420
O O10 0.676118 0.877223 0.111256
O O11 0.177182 0.824705 0.640441
O O12 0.000000 0.000000 0.000000
#
# Coordination Sequence:
#
# PCOD9275662 Si02
#       6
#     8   8   4   8   8   8
#     4  11  23  42  67  96 135 178 221 271 338 408
#     4  10  20  40  67 103 137 169 231 280 337 400
#     4  10  24  44  62  92 136 176 228 272 336 402
#     4  10  22  39  69 103 135 177 220 286 340 399
#     4  10  22  39  66 100 131 180 229 279 335 406
#     4  10  20  39  63  92 133 179 221 268 337 402
#
# _framework density 22.915699
#
# number of rings (size 3 to 8) (size 9 to 14) (size 15 to 20)
#    0.000    1.818    1.818    1.636    2.545    0.000 
#    0.000   20.000    0.000    0.000    0.000    0.000 
#    0.000    0.000    0.000    0.000    0.000    0.000 
#
# Total GULP energy -122477.429864 kJ/mol
# GULP energy per Si atom -5567.155903 kJ/mol
# Density = 2.286354 g / cm^3
# Si number density = 22.915699 Si / 1000 Ang^3
#
#
#
# Elastic Constant Matrix: (Units=GPa)
#
#
# Indices 1 2 3 4 5 6 
#
# 1 82.9721 11.6705 14.2307 0.0000 -15.4254 0.0000
# 2 11.6705 127.2809 29.3521 0.0000 0.2960 0.0000
# 3 14.2307 29.3521 111.2761 0.0000 8.5551 0.0000
# 4 0.0000 0.0000 0.0000 19.2616 0.0000 -4.9167
# 5 -15.4254 0.2960 8.5551 0.0000 40.4188 0.0000
# 6 0.0000 0.0000 0.0000 -4.9167 0.0000 28.9176
#
#
#
# Elastic Compliance Matrix: (Units=1/GPa)
#
#
# Indices 1 2 3 4 5 6 
#
# 1 0.013538 -0.000805 -0.001948 0.000000 0.005585 0.000000
# 2 -0.000805 0.008420 -0.002124 0.000000 0.000081 0.000000
# 3 -0.001948 -0.002124 0.010015 0.000000 -0.002848 0.000000
# 4 0.000000 0.000000 0.000000 0.054272 0.000000 0.009228
# 5 0.005585 0.000081 -0.002848 0.000000 0.027475 0.000000
# 6 0.000000 0.000000 0.000000 0.009228 0.000000 0.036150
#
#
# Mechanical properties :
#
#
# Convention : Reuss Voigt Hill
#
# Bulk Modulus (GPa) = 45.00877 48.00398 46.50637
# Shear Modulus (GPa) = 29.93453 35.47131 32.70292
#
# Velocity S-wave (km/s) = 3.61818 3.93861 3.78179
# Velocity P-wave (km/s) = 6.09415 6.45578 6.27757
#
# Compressibility (1/GPa) = 0.02221789
#
# Stress axis : x y z
#
# Youngs Moduli (GPa) = 73.86647 118.76279 99.84908
#
# Poissons Ratio (x) = 0.09560 0.19454
# Poissons Ratio (y) = 0.05946 0.21211
# Poissons Ratio (z) = 0.14392 0.25229
#
# Static dielectric constant tensor:
#      x y z
#    x 1.951890 0.000000 0.090150 
#    y 0.000000 2.161340 0.000000 
#    z 0.090150 0.000000 1.798760 
# 
# From -- ./inp_files/237302.got.cif
#   From: 2010.05.17/outbox.cif.g08.bks.cpg/sg15_119_cif.got.tgz:237302.got - 2010.06.03 18:47:42.
