data_PCOD9275766
_publ_section_title
;
Structure prediction by ZEFSAII (Michael W. Deem and Ramdas Pophale) SiO2 
 PCOD9275766
Probable space group: C 2/C
;
_chemical_formula_sum "Si O2"
_cell_formula_units_Z 44
_cell_length_a 10.042431
_cell_length_b 10.692636
_cell_length_c 29.355952
_cell_angle_alpha 90.000000
_cell_angle_beta 43.169944
_cell_angle_gamma 90.000000
_cell_volume 2156.653701
_symmetry_space_group_name_H-M "C 2/C"
_symmetry_group_IT_number 15
_symmetry_cell_setting 'monoclinic'
loop_
_space_group_symop_operation_xyz
x,y,z
-x,y,1/2-z
-x,-y,-z
x,-y,1/2+z
1/2+x,1/2+y,z
1/2-x,1/2+y,1/2-z
1/2-x,1/2-y,-z
1/2+x,1/2-y,1/2+z
loop_
_atom_site_type_symbol
_atom_site_label
_atom_site_fract_x
_atom_site_fract_y
_atom_site_fract_z
Si Si1 0.560213 0.648236 0.441255
Si Si2 0.812833 0.489107 0.446524
Si Si3 0.573401 0.781178 0.149511
Si Si4 0.543037 0.871015 0.963446
Si Si5 0.293488 0.822655 0.790115
Si Si6 0.000000 0.437775 0.250000
O O1 0.692314 0.551942 0.436072
O O2 0.351721 0.583619 0.482979
O O3 0.532408 0.763029 0.483333
O O4 0.671357 0.675712 0.367212
O O5 0.928522 0.378090 0.392565
O O6 0.929490 0.595662 0.444719
O O7 0.736748 0.674961 0.101585
O O8 0.353830 0.732285 0.209359
O O9 0.616116 0.857356 0.184635
O O10 0.500000 0.000000 0.000000
O O11 0.500000 0.758124 0.750000
O O12 0.356277 0.963600 0.761290
#
# Coordination Sequence:
#
# PCOD9275766 Si02
#       6
#     8   8   8   8   8   4
#     4  10  20  39  64  92 129 167 207 265 318 380
#     4  10  20  39  65  96 126 164 209 264 328 372
#     4  11  23  44  65  91 132 165 213 271 317 378
#     4  11  23  38  64 102 128 163 213 271 326 378
#     4  10  22  43  61  89 126 171 213 257 315 380
#     4  10  24  44  62  88 128 172 214 252 316 382
#
# _framework density 20.401976999999999
#
# number of rings (size 3 to 8) (size 9 to 14) (size 15 to 20)
#    0.545    1.091    1.818    2.727    0.000    5.818 
#   13.091    0.000    0.000    0.000    0.000    0.000 
#    0.000    0.000    0.000    0.000    0.000    0.000 
#
# Total GULP energy -122555.931799 kJ/mol
# GULP energy per Si atom -5570.724173 kJ/mol
# Density = 2.035554 g / cm^3
# Si number density = 20.401977 Si / 1000 Ang^3
#
#
#
# Elastic Constant Matrix: (Units=GPa)
#
#
# Indices 1 2 3 4 5 6 
#
# 1 50.3239 20.6750 -1.0918 0.0000 -13.1245 0.0000
# 2 20.6750 90.0756 14.7052 0.0000 -21.9464 0.0000
# 3 -1.0918 14.7052 53.8654 0.0000 -10.8943 0.0000
# 4 0.0000 0.0000 0.0000 33.1072 0.0000 -0.6534
# 5 -13.1245 -21.9464 -10.8943 0.0000 27.2134 0.0000
# 6 0.0000 0.0000 0.0000 -0.6534 0.0000 35.8863
#
#
#
# Elastic Compliance Matrix: (Units=1/GPa)
#
#
# Indices 1 2 3 4 5 6 
#
# 1 0.024074 -0.003644 0.003522 0.000000 0.010081 0.000000
# 2 -0.003644 0.014505 -0.002202 0.000000 0.009058 0.000000
# 3 0.003522 -0.002202 0.020915 0.000000 0.008296 0.000000
# 4 0.000000 0.000000 0.000000 0.030216 0.000000 0.000550
# 5 0.010081 0.009058 0.008296 0.000000 0.052235 0.000000
# 6 0.000000 0.000000 0.000000 0.000550 0.000000 0.027876
#
#
# Mechanical properties :
#
#
# Convention : Reuss Voigt Hill
#
# Bulk Modulus (GPa) = 18.23298 29.20462 23.71880
# Shear Modulus (GPa) = 25.94023 29.90647 27.92335
#
# Velocity S-wave (km/s) = 3.56962 3.83281 3.70355
# Velocity P-wave (km/s) = 5.09370 5.82520 5.47169
#
# Compressibility (1/GPa) = 0.05484567
#
# Stress axis : x y z
#
# Youngs Moduli (GPa) = 41.53829 68.94293 47.81238
#
# Poissons Ratio (x) = 0.25126 -0.16839
# Poissons Ratio (y) = 0.15138 0.10526
# Poissons Ratio (z) = -0.14629 0.15178
#
# Static dielectric constant tensor:
#      x y z
#    x 1.787710 0.000000 0.009390 
#    y 0.000000 1.787300 0.000000 
#    z 0.009390 0.000000 1.753860 
# 
# From -- ./inp_files/307018.got.cif
#   From: 2010.05.17/outbox.cif.g08.bks.cpg/sg15_154_cif.got.tgz:307018.got - 2010.06.03 18:47:42.
