data_PCOD9275160
_publ_section_title
;
Structure prediction by ZEFSAII (Michael W. Deem and Ramdas Pophale) SiO2 
 PCOD9275160
Probable space group: C 2/C
;
_chemical_formula_sum "Si O2"
_cell_formula_units_Z 44
_cell_length_a 15.333298
_cell_length_b 28.525616
_cell_length_c 8.215072
_cell_angle_alpha 90.000000
_cell_angle_beta 140.869900
_cell_angle_gamma 90.000000
_cell_volume 2267.612001
_symmetry_space_group_name_H-M "C 2/C"
_symmetry_group_IT_number 15
_symmetry_cell_setting 'monoclinic'
loop_
_space_group_symop_operation_xyz
x,y,z
-x,y,1/2-z
-x,-y,-z
x,-y,1/2+z
1/2+x,1/2+y,z
1/2-x,1/2+y,1/2-z
1/2-x,1/2-y,-z
1/2+x,1/2-y,1/2+z
loop_
_atom_site_type_symbol
_atom_site_label
_atom_site_fract_x
_atom_site_fract_y
_atom_site_fract_z
Si Si1 0.000000 0.511129 0.250000
Si Si2 0.679190 0.776728 0.247123
Si Si3 0.648885 0.681424 0.043208
Si Si4 0.113305 0.432181 0.182073
Si Si5 0.653546 0.639100 0.415244
Si Si6 0.445366 0.156813 0.357116
O O1 0.922040 0.475857 0.256237
O O2 0.107311 0.545281 0.494814
O O3 0.750000 0.750000 0.500000
O O4 0.664085 0.737760 0.087102
O O5 0.778356 0.821382 0.368287
O O6 0.529470 0.800126 0.062720
O O7 0.656287 0.658758 0.234871
O O8 0.782533 0.663561 0.139017
O O9 0.500000 0.671138 0.750000
O O10 0.252258 0.406426 0.432090
O O11 0.996432 0.391382 0.014552
O O12 0.500000 0.630505 0.250000
O O13 0.500000 0.156546 0.250000
#
# Coordination Sequence:
#
# PCOD9275160 Si02
#       6
#     4   8   8   8   8   8
#     4  10  20  38  70  92 118 148 204 264 312 396
#     4   9  22  37  58  84 122 166 215 255 303 355
#     4  11  25  38  60  91 126 174 220 258 303 356
#     4  10  21  40  64  96 119 156 204 257 321 372
#     4  10  23  41  62  87 130 165 204 258 318 370
#     4  11  23  39  61  90 129 162 209 263 305 367
#
# _framework density 19.403672
#
# number of rings (size 3 to 8) (size 9 to 14) (size 15 to 20)
#    0.000    1.818    0.909    1.636   10.182    6.545 
#    0.000    0.909    0.000    4.364    0.000    0.000 
#    0.000    0.000    0.000    0.000    0.000    0.000 
#
# Total GULP energy -122810.169350 kJ/mol
# GULP energy per Si atom -5582.280425 kJ/mol
# Density = 1.935951 g / cm^3
# Si number density = 19.403672 Si / 1000 Ang^3
#
#
#
# Elastic Constant Matrix: (Units=GPa)
#
#
# Indices 1 2 3 4 5 6 
#
# 1 88.2758 34.4860 63.5751 0.0000 17.9347 0.0000
# 2 34.4860 105.2258 54.9247 0.0000 9.5769 0.0000
# 3 63.5751 54.9247 146.9824 0.0000 25.6885 0.0000
# 4 0.0000 0.0000 0.0000 33.3394 0.0000 -6.8205
# 5 17.9347 9.5769 25.6885 0.0000 38.4378 0.0000
# 6 0.0000 0.0000 0.0000 -6.8205 0.0000 14.0332
#
#
#
# Elastic Compliance Matrix: (Units=1/GPa)
#
#
# Indices 1 2 3 4 5 6 
#
# 1 0.017228 -0.002183 -0.006030 0.000000 -0.003464 0.000000
# 2 -0.002183 0.012083 -0.003649 0.000000 0.000447 0.000000
# 3 -0.006030 -0.003649 0.011464 0.000000 -0.003939 0.000000
# 4 0.000000 0.000000 0.000000 0.033306 0.000000 0.016188
# 5 -0.003464 0.000447 -0.003939 0.000000 0.030153 0.000000
# 6 0.000000 0.000000 0.000000 0.016188 0.000000 0.079127
#
#
# Mechanical properties :
#
#
# Convention : Reuss Voigt Hill
#
# Bulk Modulus (GPa) = 58.65279 71.82840 65.24059
# Shear Modulus (GPa) = 23.49965 29.66195 26.58080
#
# Velocity S-wave (km/s) = 3.48385 3.91407 3.70521
# Velocity P-wave (km/s) = 6.81735 7.58452 7.21114
#
# Compressibility (1/GPa) = 0.01704949
#
# Stress axis : x y z
#
# Youngs Moduli (GPa) = 58.04557 82.76199 87.23128
#
# Poissons Ratio (x) = 0.18068 0.52604
# Poissons Ratio (y) = 0.12672 0.31830
# Poissons Ratio (z) = 0.35004 0.30199
#
# Static dielectric constant tensor:
#      x y z
#    x 1.701830 0.000000 -0.049520 
#    y 0.000000 1.669630 0.000000 
#    z -0.049520 0.000000 1.712570 
# 
# From -- ./inp_files/43710.got.cif
#   From: 2010.05.17/outbox.cif.g08.bks.cpg/sg15_22_cif.got.tgz:43710.got - 2010.06.03 18:47:42.
