data_PCOD9275550
_publ_section_title
;
Structure prediction by ZEFSAII (Michael W. Deem and Ramdas Pophale) SiO2 
 PCOD9275550
Probable space group: C 2/C
;
_chemical_formula_sum "Si O2"
_cell_formula_units_Z 60
_cell_length_a 7.916069
_cell_length_b 19.850050
_cell_length_c 18.099467
_cell_angle_alpha 90.000000
_cell_angle_beta 92.652484
_cell_angle_gamma 90.000000
_cell_volume 2841.001141
_symmetry_space_group_name_H-M "C 2/C"
_symmetry_group_IT_number 15
_symmetry_cell_setting 'monoclinic'
loop_
_space_group_symop_operation_xyz
x,y,z
-x,y,1/2-z
-x,-y,-z
x,-y,1/2+z
1/2+x,1/2+y,z
1/2-x,1/2+y,1/2-z
1/2-x,1/2-y,-z
1/2+x,1/2-y,1/2+z
loop_
_atom_site_type_symbol
_atom_site_label
_atom_site_fract_x
_atom_site_fract_y
_atom_site_fract_z
Si Si1 0.326171 0.436031 0.783858
Si Si2 0.429044 0.736979 0.038363
Si Si3 0.636727 0.622039 0.063660
Si Si4 0.215063 0.890098 0.400182
Si Si5 0.895324 0.082746 0.812528
Si Si6 0.500000 0.156463 0.250000
Si Si7 0.047100 0.346971 0.336240
Si Si8 0.888139 0.735873 0.108503
O O1 0.500000 0.410921 0.750000
O O2 0.349149 0.431839 0.872648
O O3 0.318169 0.516190 0.771724
O O4 0.164987 0.392181 0.756251
O O5 0.456270 0.656512 0.046026
O O6 0.449539 0.780771 0.112496
O O7 0.250000 0.750000 0.000000
O O8 0.546372 0.764076 0.974276
O O9 0.729284 0.686747 0.101183
O O10 0.722443 0.602600 0.988671
O O11 0.399014 0.895979 0.365953
O O12 0.161811 0.812899 0.380285
O O13 0.049580 0.931846 0.371773
O O14 0.736299 0.122304 0.841584
O O15 0.000000 0.120508 0.750000
O O16 0.499934 0.203721 0.176548
O O17 0.000000 0.332908 0.250000
#
# Coordination Sequence:
#
# PCOD9275550 Si02
#       8
#     8   8   8   8   8   4   8   8
#     4  10  25  45  65  89 127 172 220 260 317 372
#     4  11  22  37  62  96 133 162 200 261 327 387
#     4  10  20  42  64  88 130 167 201 262 325 379
#     4  11  21  41  64  93 135 161 204 268 324 381
#     4  11  25  42  61  93 125 172 217 267 313 369
#     4  10  24  40  70  92 124 166 216 264 308 396
#     4  12  23  38  67  94 124 170 215 259 323 381
#     4  10  20  39  62  94 132 163 199 259 333 373
#
# _framework density 21.119316000000001
#
# number of rings (size 3 to 8) (size 9 to 14) (size 15 to 20)
#    0.000    1.333    4.000    2.400    3.733    2.133 
#    0.000    0.667    0.000    0.000    0.000    0.000 
#    0.000    0.000    0.000    0.000    0.000    0.000 
#
# Total GULP energy -167213.083732 kJ/mol
# GULP energy per Si atom -5573.769458 kJ/mol
# Density = 2.107125 g / cm^3
# Si number density = 21.119316 Si / 1000 Ang^3
#
#
#
# Elastic Constant Matrix: (Units=GPa)
#
#
# Indices 1 2 3 4 5 6 
#
# 1 131.3592 20.9851 36.8359 0.0000 -13.9212 0.0000
# 2 20.9851 35.8669 13.7505 0.0000 -11.0764 0.0000
# 3 36.8359 13.7505 139.5604 0.0000 -7.2746 0.0000
# 4 0.0000 0.0000 0.0000 26.2754 0.0000 5.2825
# 5 -13.9212 -11.0764 -7.2746 0.0000 27.3410 0.0000
# 6 0.0000 0.0000 0.0000 5.2825 0.0000 20.0281
#
#
#
# Elastic Compliance Matrix: (Units=1/GPa)
#
#
# Indices 1 2 3 4 5 6 
#
# 1 0.009011 -0.003761 -0.001874 0.000000 0.002566 0.000000
# 2 -0.003761 0.034323 -0.001789 0.000000 0.011514 0.000000
# 3 -0.001874 -0.001789 0.007858 0.000000 0.000412 0.000000
# 4 0.000000 0.000000 0.000000 0.040190 0.000000 -0.010600
# 5 0.002566 0.011514 0.000412 0.000000 0.042656 0.000000
# 6 0.000000 0.000000 0.000000 -0.010600 0.000000 0.052726
#
#
# Mechanical properties :
#
#
# Convention : Reuss Voigt Hill
#
# Bulk Modulus (GPa) = 27.51538 49.99218 38.75378
# Shear Modulus (GPa) = 23.39446 30.40988 26.90217
#
# Velocity S-wave (km/s) = 3.33187 3.79873 3.57293
# Velocity P-wave (km/s) = 5.27812 6.55463 5.95070
#
# Compressibility (1/GPa) = 0.03634331
#
# Stress axis : x y z
#
# Youngs Moduli (GPa) = 110.97484 29.13493 127.26357
#
# Poissons Ratio (x) = 0.10959 0.23850
# Poissons Ratio (y) = 0.41742 0.22765
# Poissons Ratio (z) = 0.20797 0.05212
#
# Static dielectric constant tensor:
#      x y z
#    x 1.329830 0.000000 0.191010 
#    y 0.000000 1.819540 0.000000 
#    z 0.191010 0.000000 1.777890 
# 
# From -- ./inp_files/192210.got.cif
#   From: 2010.05.17/outbox.cif.g08.bks.cpg/sg15_97_cif.got.tgz:192210.got - 2010.06.03 18:47:42.
