data_PCOD9275825
_publ_section_title
;
Structure prediction by ZEFSAII (Michael W. Deem and Ramdas Pophale) SiO2 
 PCOD9275825
Probable space group: C 2/C
;
_chemical_formula_sum "Si O2"
_cell_formula_units_Z 48
_cell_length_a 8.407424
_cell_length_b 15.283003
_cell_length_c 26.572140
_cell_angle_alpha 90.000000
_cell_angle_beta 41.690422
_cell_angle_gamma 90.000000
_cell_volume 2270.851528
_symmetry_space_group_name_H-M "C 2/C"
_symmetry_group_IT_number 15
_symmetry_cell_setting 'monoclinic'
loop_
_space_group_symop_operation_xyz
x,y,z
-x,y,1/2-z
-x,-y,-z
x,-y,1/2+z
1/2+x,1/2+y,z
1/2-x,1/2+y,1/2-z
1/2-x,1/2-y,-z
1/2+x,1/2-y,1/2+z
loop_
_atom_site_type_symbol
_atom_site_label
_atom_site_fract_x
_atom_site_fract_y
_atom_site_fract_z
Si Si1 0.916786 0.311579 0.426917
Si Si2 0.415070 0.911516 0.576285
Si Si3 0.177770 0.964613 0.525588
Si Si4 0.739611 0.545332 0.830861
Si Si5 0.361309 0.421405 0.332552
Si Si6 0.156629 0.258033 0.163783
O O1 0.750000 0.250000 0.500000
O O2 0.756477 0.400265 0.462616
O O3 0.969047 0.265588 0.361261
O O4 0.166550 0.346682 0.390721
O O5 0.299391 0.923932 0.547769
O O6 0.357895 0.815716 0.609554
O O7 0.689169 0.942039 0.510387
O O8 0.282748 0.987362 0.639811
O O9 0.898417 0.978649 0.600084
O O10 0.557678 0.558522 0.827756
O O11 0.763496 0.642641 0.846755
O O12 0.000000 0.516738 0.750000
O O13 0.500000 0.396031 0.250000
O O14 0.000000 0.234895 0.250000
#
# Coordination Sequence:
#
# PCOD9275825 Si02
#       6
#     8   8   8   8   8   8
#     4  11  22  40  67  91 122 162 208 256 307 373
#     4   9  18  35  63  90 118 157 211 248 299 374
#     4   9  19  38  61  90 119 164 208 246 304 372
#     4  10  22  38  61  89 131 161 206 258 309 364
#     4  10  20  39  65  86 119 168 207 244 309 375
#     4  11  22  37  61  93 130 155 200 262 311 358
#
# _framework density 21.137445
#
# number of rings (size 3 to 8) (size 9 to 14) (size 15 to 20)
#    0.000    2.000    1.667    3.500    0.000    1.333 
#    0.000    0.833    7.333    0.000    0.000    0.000 
#    0.000    0.000    0.000    0.000    0.000    0.000 
#
# Total GULP energy -133814.090058 kJ/mol
# GULP energy per Si atom -5575.587086 kJ/mol
# Density = 2.108934 g / cm^3
# Si number density = 21.137445 Si / 1000 Ang^3
#
#
#
# Elastic Constant Matrix: (Units=GPa)
#
#
# Indices 1 2 3 4 5 6 
#
# 1 40.8990 -3.8233 37.7787 -0.0001 -5.9633 0.0004
# 2 -3.8233 32.4599 29.4725 -0.0044 -0.5978 0.0028
# 3 37.7787 29.4725 141.4538 -0.0034 -9.5490 -0.0017
# 4 -0.0001 -0.0044 -0.0034 39.5546 -0.0012 2.5182
# 5 -5.9633 -0.5978 -9.5490 -0.0012 34.4900 0.0004
# 6 0.0004 0.0028 -0.0017 2.5182 0.0004 18.1366
#
#
#
# Elastic Compliance Matrix: (Units=1/GPa)
#
#
# Indices 1 2 3 4 5 6 
#
# 1 0.039399 0.017334 -0.013914 0.000001 0.003260 -0.000005
# 2 0.017334 0.045704 -0.014161 0.000004 -0.000131 -0.000009
# 3 -0.013914 -0.014161 0.013815 -0.000001 0.001174 0.000004
# 4 0.000001 0.000004 -0.000001 0.025507 0.000001 -0.003541
# 5 0.003260 -0.000131 0.001174 0.000001 0.029880 -0.000001
# 6 -0.000005 -0.000009 0.000004 -0.003541 -0.000001 0.055629
#
#
# Mechanical properties :
#
#
# Convention : Reuss Voigt Hill
#
# Bulk Modulus (GPa) = 12.91389 37.96319 25.43854
# Shear Modulus (GPa) = 19.43804 28.52858 23.98331
#
# Velocity S-wave (km/s) = 3.03578 3.67777 3.37209
# Velocity P-wave (km/s) = 4.29077 6.00282 5.21750
#
# Compressibility (1/GPa) = 0.07743598
#
# Stress axis : x y z
#
# Youngs Moduli (GPa) = 25.38168 21.87986 72.38398
#
# Poissons Ratio (x) = -0.37926 1.00714
# Poissons Ratio (y) = -0.43996 1.02503
# Poissons Ratio (z) = 0.35316 0.30984
#
# Static dielectric constant tensor:
#      x y z
#    x 1.829050 0.000000 0.050260 
#    y 0.000000 1.768150 0.000000 
#    z 0.050260 0.000000 1.820590 
# 
# From -- ./inp_files/307917.got.cif
#   From: 2010.05.17/outbox.cif.g08.bks.cpg/sg15_154_cif.got.tgz:307917.got - 2010.06.03 18:47:42.
