data_PCOD9275146
_publ_section_title
;
Structure prediction by ZEFSAII (Michael W. Deem and Ramdas Pophale) SiO2 
 PCOD9275146
Probable space group: C 2/C
;
_chemical_formula_sum "Si O2"
_cell_formula_units_Z 48
_cell_length_a 17.011271
_cell_length_b 8.016635
_cell_length_c 29.715539
_cell_angle_alpha 90.000000
_cell_angle_beta 30.111135
_cell_angle_gamma 90.000000
_cell_volume 2033.004264
_symmetry_space_group_name_H-M "C 2/C"
_symmetry_group_IT_number 15
_symmetry_cell_setting 'monoclinic'
loop_
_space_group_symop_operation_xyz
x,y,z
-x,y,1/2-z
-x,-y,-z
x,-y,1/2+z
1/2+x,1/2+y,z
1/2-x,1/2+y,1/2-z
1/2-x,1/2-y,-z
1/2+x,1/2-y,1/2+z
loop_
_atom_site_type_symbol
_atom_site_label
_atom_site_fract_x
_atom_site_fract_y
_atom_site_fract_z
Si Si1 0.747183 0.333672 0.409797
Si Si2 0.531287 0.546383 0.333367
Si Si3 0.827774 0.413159 0.223784
Si Si4 0.831405 0.634455 0.310564
Si Si5 0.750000 0.750000 0.000000
Si Si6 0.443529 0.886264 0.069373
Si Si7 0.000000 0.088124 0.250000
O O1 0.736892 0.504322 0.389145
O O2 0.833742 0.339692 0.414607
O O3 0.586012 0.245342 0.504628
O O4 0.848308 0.207539 0.329386
O O5 0.641377 0.421135 0.305692
O O6 0.360819 0.584309 0.437011
O O7 0.509903 0.495198 0.292190
O O8 0.627323 0.721478 0.288824
O O9 0.853828 0.539318 0.252027
O O10 0.914970 0.460461 0.133356
O O11 0.716229 0.791035 0.363247
O O12 0.000000 0.658344 0.250000
O O13 0.500000 0.000000 0.000000
#
# Coordination Sequence:
#
# PCOD9275146 Si02
#       7
#     8   8   8   8   4   8   4
#     4  11  20  41  72 101 139 184 246 291 352 434
#     4  11  22  41  71  96 138 178 242 286 359 425
#     4  12  23  47  69 104 139 193 235 296 369 437
#     4  12  25  48  75 107 142 197 248 303 366 441
#     4  10  20  40  64 104 124 180 234 298 332 426
#     4  12  28  46  69 108 150 190 242 305 376 438
#     4  10  20  38  70 100 128 188 236 288 344 428
#
# _framework density 23.610378000000001
#
# number of rings (size 3 to 8) (size 9 to 14) (size 15 to 20)
#    0.000    0.667    5.833    2.500    0.000    0.000 
#    9.000    0.833    0.000    0.000    0.000    0.000 
#    0.000    0.000    0.000    0.000    0.000    0.000 
#
# Total GULP energy -133741.202234 kJ/mol
# GULP energy per Si atom -5572.550093 kJ/mol
# Density = 2.355664 g / cm^3
# Si number density = 23.610378 Si / 1000 Ang^3
#
#
#
# Elastic Constant Matrix: (Units=GPa)
#
#
# Indices 1 2 3 4 5 6 
#
# 1 86.6599 17.7026 17.7315 0.0019 26.9703 0.0130
# 2 17.7026 63.7360 23.6372 -0.0070 11.7916 0.0102
# 3 17.7315 23.6372 127.0488 0.0038 12.6599 -0.0019
# 4 0.0019 -0.0070 0.0038 41.7431 -0.0007 -3.9354
# 5 26.9703 11.7916 12.6599 -0.0007 60.5398 0.0004
# 6 0.0130 0.0102 -0.0019 -3.9354 0.0004 27.6946
#
#
#
# Elastic Compliance Matrix: (Units=1/GPa)
#
#
# Indices 1 2 3 4 5 6 
#
# 1 0.013966 -0.002509 -0.000930 -0.000002 -0.005539 -0.000006
# 2 -0.002509 0.017741 -0.002775 0.000003 -0.001757 -0.000005
# 3 -0.000930 -0.002775 0.008601 -0.000001 -0.000844 0.000002
# 4 -0.000002 0.000003 -0.000001 0.024281 0.000001 0.003450
# 5 -0.005539 -0.001757 -0.000844 0.000001 0.019504 0.000003
# 6 -0.000006 -0.000005 0.000002 0.003450 0.000003 0.036598
#
#
# Mechanical properties :
#
#
# Convention : Reuss Voigt Hill
#
# Bulk Modulus (GPa) = 35.87044 43.95414 39.91229
# Shear Modulus (GPa) = 35.10863 40.55374 37.83119
#
# Velocity S-wave (km/s) = 3.86035 4.14892 4.00723
# Velocity P-wave (km/s) = 5.92413 6.45044 6.19288
#
# Compressibility (1/GPa) = 0.02787811
#
# Stress axis : x y z
#
# Youngs Moduli (GPa) = 71.60234 56.36644 116.26206
#
# Poissons Ratio (x) = 0.14144 0.10817
# Poissons Ratio (y) = 0.17967 0.32267
# Poissons Ratio (z) = 0.06662 0.15644
#
# Static dielectric constant tensor:
#      x y z
#    x 1.741100 0.000000 0.218850 
#    y 0.000000 1.761000 0.000000 
#    z 0.218850 0.000000 1.706760 
# 
# From -- ./inp_files/315647.got.cif
#   From: 2010.05.17/outbox.cif.g08.bks.cpg/sg15_158_cif.got.tgz:315647.got - 2010.06.03 18:47:42.
