data_PCOD9275175
_publ_section_title
;
Structure prediction by ZEFSAII (Michael W. Deem and Ramdas Pophale) SiO2 
 PCOD9275175
Probable space group: C 2/C
;
_chemical_formula_sum "Si O2"
_cell_formula_units_Z 60
_cell_length_a 7.403310
_cell_length_b 15.668894
_cell_length_c 23.928227
_cell_angle_alpha 90.000000
_cell_angle_beta 90.472167
_cell_angle_gamma 90.000000
_cell_volume 2775.620271
_symmetry_space_group_name_H-M "C 2/C"
_symmetry_group_IT_number 15
_symmetry_cell_setting 'monoclinic'
loop_
_space_group_symop_operation_xyz
x,y,z
-x,y,1/2-z
-x,-y,-z
x,-y,1/2+z
1/2+x,1/2+y,z
1/2-x,1/2+y,1/2-z
1/2-x,1/2-y,-z
1/2+x,1/2-y,1/2+z
loop_
_atom_site_type_symbol
_atom_site_label
_atom_site_fract_x
_atom_site_fract_y
_atom_site_fract_z
Si Si1 0.554955 0.111268 0.585932
Si Si2 0.369741 0.200915 0.800287
Si Si3 0.351284 0.573138 0.509878
Si Si4 0.905531 0.598602 0.306895
Si Si5 0.000000 0.235578 0.750000
Si Si6 0.690897 0.965727 0.896356
Si Si7 0.475470 0.623542 0.147727
Si Si8 0.068588 0.780389 0.969963
O O1 0.597475 0.139867 0.648087
O O2 0.718133 0.056459 0.560717
O O3 0.537276 0.196210 0.549255
O O4 0.367349 0.060565 0.587015
O O5 0.500000 0.180085 0.750000
O O6 0.167152 0.190038 0.778121
O O7 0.420728 0.298128 0.820270
O O8 0.500000 0.500000 0.500000
O O9 0.224023 0.580615 0.455070
O O10 0.458824 0.661306 0.512918
O O11 0.921348 0.700408 0.296864
O O12 0.694266 0.586891 0.318517
O O13 0.000000 0.563138 0.250000
O O14 0.027944 0.569935 0.358721
O O15 0.875974 0.948876 0.863954
O O16 0.410442 0.663699 0.087600
O O17 0.250000 0.750000 0.000000
#
# Coordination Sequence:
#
# PCOD9275175 Si02
#       8
#     8   8   8   8   4   8   8   8
#     4  11  26  43  67 101 144 176 225 296 350 409
#     4  11  21  44  66  98 137 178 225 283 349 419
#     4  11  25  46  71  99 137 188 236 284 350 422
#     4  10  21  37  69 102 129 178 235 283 333 406
#     4  10  20  38  70  98 130 182 226 280 342 424
#     4  11  24  41  68  96 138 178 232 288 342 406
#     4  10  21  39  68  99 133 178 234 278 338 418
#     4  10  23  41  66 102 138 177 222 281 352 420
#
# _framework density 21.616789000000001
#
# number of rings (size 3 to 8) (size 9 to 14) (size 15 to 20)
#    0.400    1.067    2.667    1.600    5.600    1.600 
#    2.400    0.000    2.933    0.000    0.000    0.000 
#    0.000    0.000    0.000    0.000    0.000    0.000 
#
# Total GULP energy -167557.228283 kJ/mol
# GULP energy per Si atom -5585.240943 kJ/mol
# Density = 2.156759 g / cm^3
# Si number density = 21.616789 Si / 1000 Ang^3
#
#
#
# Elastic Constant Matrix: (Units=GPa)
#
#
# Indices 1 2 3 4 5 6 
#
# 1 155.9723 50.5239 59.5844 0.0000 -21.9141 0.0000
# 2 50.5239 58.8482 14.8821 0.0000 -11.4322 0.0000
# 3 59.5844 14.8821 89.6006 0.0000 -12.2254 0.0000
# 4 0.0000 0.0000 0.0000 23.2246 0.0000 -6.9408
# 5 -21.9141 -11.4322 -12.2254 0.0000 46.5045 0.0000
# 6 0.0000 0.0000 0.0000 -6.9408 0.0000 62.7764
#
#
#
# Elastic Compliance Matrix: (Units=1/GPa)
#
#
# Indices 1 2 3 4 5 6 
#
# 1 0.011637 -0.008072 -0.006141 0.000000 0.001885 0.000000
# 2 -0.008072 0.023979 0.001732 0.000000 0.002547 0.000000
# 3 -0.006141 0.001732 0.015164 0.000000 0.001519 0.000000
# 4 0.000000 0.000000 0.000000 0.044529 0.000000 0.004923
# 5 0.001885 0.002547 0.001519 0.000000 0.023417 0.000000
# 6 0.000000 0.000000 0.000000 0.004923 0.000000 0.016474
#
#
# Mechanical properties :
#
#
# Convention : Reuss Voigt Hill
#
# Bulk Modulus (GPa) = 38.72988 61.60021 50.16504
# Shear Modulus (GPa) = 29.62687 38.46313 34.04500
#
# Velocity S-wave (km/s) = 3.70611 4.22277 3.97285
# Velocity P-wave (km/s) = 6.02239 7.23423 6.65594
#
# Compressibility (1/GPa) = 0.02581986
#
# Stress axis : x y z
#
# Youngs Moduli (GPa) = 85.93548 41.70261 65.94753
#
# Poissons Ratio (x) = 0.33660 0.40495
# Poissons Ratio (y) = 0.69363 -0.11424
# Poissons Ratio (z) = 0.52769 -0.07224
#
# Static dielectric constant tensor:
#      x y z
#    x 1.789100 0.000000 -0.018640 
#    y 0.000000 1.823740 0.000000 
#    z -0.018640 0.000000 1.774130 
# 
# From -- ./inp_files/305661.got.cif
#   From: 2010.05.17/outbox.cif.g08.bks.cpg/sg15_153_cif.got.tgz:305661.got - 2010.06.03 18:47:42.
