data_PCOD9275765
_publ_section_title
;
Structure prediction by ZEFSAII (Michael W. Deem and Ramdas Pophale) SiO2 
 PCOD9275765
Probable space group: C 2/C
;
_chemical_formula_sum "Si O2"
_cell_formula_units_Z 52
_cell_length_a 7.833250
_cell_length_b 11.704991
_cell_length_c 28.528246
_cell_angle_alpha 90.000000
_cell_angle_beta 114.401394
_cell_angle_gamma 90.000000
_cell_volume 2382.050112
_symmetry_space_group_name_H-M "C 2/C"
_symmetry_group_IT_number 15
_symmetry_cell_setting 'monoclinic'
loop_
_space_group_symop_operation_xyz
x,y,z
-x,y,1/2-z
-x,-y,-z
x,-y,1/2+z
1/2+x,1/2+y,z
1/2-x,1/2+y,1/2-z
1/2-x,1/2-y,-z
1/2+x,1/2-y,1/2+z
loop_
_atom_site_type_symbol
_atom_site_label
_atom_site_fract_x
_atom_site_fract_y
_atom_site_fract_z
Si Si1 0.500000 0.391861 0.250000
Si Si2 0.177022 0.602401 0.127112
Si Si3 0.702073 0.857652 0.371872
Si Si4 0.939251 0.884538 0.145024
Si Si5 0.897066 0.496400 0.787489
Si Si6 0.363735 0.961936 0.037667
Si Si7 0.204619 0.653702 0.532087
O O1 0.447607 0.326746 0.196725
O O2 0.318302 0.465935 0.244015
O O3 0.264617 0.722545 0.123486
O O4 0.332609 0.503664 0.141144
O O5 0.108038 0.601504 0.173273
O O6 0.008375 0.557007 0.075354
O O7 0.507051 0.900711 0.327341
O O8 0.726411 0.906436 0.426934
O O9 0.860446 0.904502 0.355195
O O10 0.820819 0.820607 0.092004
O O11 0.000000 0.473531 0.750000
O O12 0.492163 0.868905 0.025453
O O13 0.241779 0.032394 0.986536
O O14 0.250000 0.750000 0.500000
#
# Coordination Sequence:
#
# PCOD9275765 Si02
#       7
#     4   8   8   8   8   8   8
#     4  10  20  42  66  90 136 168 210 272 318 384
#     4   9  21  40  61  91 129 166 213 263 322 389
#     4  11  21  40  66  94 127 172 217 262 333 388
#     4  10  21  38  63  90 130 165 212 271 313 386
#     4  10  20  41  64  91 132 169 213 276 320 377
#     4   9  21  39  62  91 130 165 209 276 317 383
#     4  10  20  39  64  92 127 171 215 267 331 387
#
# _framework density 21.829934999999999
#
# number of rings (size 3 to 8) (size 9 to 14) (size 15 to 20)
#    0.000    2.154    1.538    1.846    0.000    1.846 
#    6.923   18.462    0.000    0.000    0.000    0.000 
#    0.000    0.000    0.000    0.000    0.000    0.000 
#
# Total GULP energy -145106.909247 kJ/mol
# GULP energy per Si atom -5581.034971 kJ/mol
# Density = 2.178025 g / cm^3
# Si number density = 21.829935 Si / 1000 Ang^3
#
#
#
# Elastic Constant Matrix: (Units=GPa)
#
#
# Indices 1 2 3 4 5 6 
#
# 1 103.6548 18.2419 32.7116 0.0000 -26.1831 0.0000
# 2 18.2419 69.1133 20.6559 0.0000 -11.9301 0.0000
# 3 32.7116 20.6559 137.9584 0.0000 -40.4981 0.0000
# 4 0.0000 0.0000 0.0000 5.6049 0.0000 4.9598
# 5 -26.1831 -11.9301 -40.4981 0.0000 52.0454 0.0000
# 6 0.0000 0.0000 0.0000 4.9598 0.0000 11.1085
#
#
#
# Elastic Compliance Matrix: (Units=1/GPa)
#
#
# Indices 1 2 3 4 5 6 
#
# 1 0.011465 -0.001922 -0.001124 0.000000 0.004453 0.000000
# 2 -0.001922 0.015668 -0.001451 0.000000 0.001495 0.000000
# 3 -0.001124 -0.001451 0.009680 0.000000 0.006634 0.000000
# 4 0.000000 0.000000 0.000000 0.294952 0.000000 -0.131692
# 5 0.004453 0.001495 0.006634 0.000000 0.026959 0.000000
# 6 0.000000 0.000000 0.000000 -0.131692 0.000000 0.148820
#
#
# Mechanical properties :
#
#
# Convention : Reuss Voigt Hill
#
# Bulk Modulus (GPa) = 35.94544 50.43835 43.19190
# Shear Modulus (GPa) = 9.50913 29.69290 19.60102
#
# Velocity S-wave (km/s) = 2.08937 3.69208 2.99974
# Velocity P-wave (km/s) = 4.72467 6.42888 5.64150
#
# Compressibility (1/GPa) = 0.02781994
#
# Stress axis : x y z
#
# Youngs Moduli (GPa) = 87.22197 63.82404 103.30852
#
# Poissons Ratio (x) = 0.12265 0.11607
# Poissons Ratio (y) = 0.16761 0.14993
# Poissons Ratio (z) = 0.09800 0.09263
#
# Static dielectric constant tensor:
#      x y z
#    x 1.818350 0.000000 0.020500 
#    y 0.000000 1.783830 0.000000 
#    z 0.020500 0.000000 1.891320 
# 
# From -- ./inp_files/307290.got.cif
#   From: 2010.05.17/outbox.cif.g08.bks.cpg/sg15_154_cif.got.tgz:307290.got - 2010.06.03 18:47:42.
