data_PCOD9275366
_publ_section_title
;
Structure prediction by ZEFSAII (Michael W. Deem and Ramdas Pophale) SiO2 
 PCOD9275366
Probable space group: C 2/C
;
_chemical_formula_sum "Si O2"
_cell_formula_units_Z 56
_cell_length_a 10.845084
_cell_length_b 8.349371
_cell_length_c 26.875858
_cell_angle_alpha 90.000000
_cell_angle_beta 77.203854
_cell_angle_gamma 90.000000
_cell_volume 2373.158748
_symmetry_space_group_name_H-M "C 2/C"
_symmetry_group_IT_number 15
_symmetry_cell_setting 'monoclinic'
loop_
_space_group_symop_operation_xyz
x,y,z
-x,y,1/2-z
-x,-y,-z
x,-y,1/2+z
1/2+x,1/2+y,z
1/2-x,1/2+y,1/2-z
1/2-x,1/2-y,-z
1/2+x,1/2-y,1/2+z
loop_
_atom_site_type_symbol
_atom_site_label
_atom_site_fract_x
_atom_site_fract_y
_atom_site_fract_z
Si Si1 0.934764 0.864889 0.803698
Si Si2 0.694012 0.973769 0.949176
Si Si3 0.961131 0.016774 0.446598
Si Si4 0.406718 0.042387 0.858268
Si Si5 0.850024 0.089803 0.155153
Si Si6 0.573567 0.842343 0.544997
Si Si7 0.185138 0.543085 0.832743
O O1 0.911492 0.732592 0.848287
O O2 0.000000 0.787095 0.750000
O O3 0.042960 0.979300 0.817337
O O4 0.805556 0.951206 0.801163
O O5 0.826777 0.895697 0.952531
O O6 0.569975 0.863398 0.961826
O O7 0.698475 0.025874 0.891351
O O8 0.661415 0.117412 0.990198
O O9 0.076608 0.085280 0.404371
O O10 0.924994 0.835334 0.432718
O O11 0.000000 0.000000 0.500000
O O12 0.546260 0.980191 0.829943
O O13 0.283552 0.993499 0.838884
O O14 0.395560 0.973294 0.915168
O O15 0.817830 0.268175 0.176257
#
# Coordination Sequence:
#
# PCOD9275366 Si02
#       7
#     8   8   8   8   8   8   8
#     4  11  26  48  71  96 129 172 226 289 356 411
#     4  10  20  39  60  91 140 179 222 270 323 394
#     4  12  23  35  62  99 142 186 229 272 325 408
#     4  10  24  42  70  99 134 172 225 279 338 412
#     4  11  24  40  68 101 133 177 224 272 343 404
#     4  10  22  38  63  96 137 185 226 273 334 400
#     4  10  22  44  67  96 138 178 216 283 338 406
#
# _framework density 23.597241
#
# number of rings (size 3 to 8) (size 9 to 14) (size 15 to 20)
#    0.000    1.429    1.429    3.000    4.000    4.000 
#    0.000    0.714    0.000    0.000    0.000    0.000 
#    0.000    0.000    0.000    0.000    0.000    0.000 
#
# Total GULP energy -156392.986052 kJ/mol
# GULP energy per Si atom -5585.463788 kJ/mol
# Density = 2.354353 g / cm^3
# Si number density = 23.597241 Si / 1000 Ang^3
#
#
#
# Elastic Constant Matrix: (Units=GPa)
#
#
# Indices 1 2 3 4 5 6 
#
# 1 205.5287 23.3520 6.9330 0.0000 -13.7049 0.0000
# 2 23.3520 56.7758 18.8786 0.0000 -16.9250 0.0000
# 3 6.9330 18.8786 64.4015 0.0000 -9.0017 0.0000
# 4 0.0000 0.0000 0.0000 14.0621 0.0000 2.5687
# 5 -13.7049 -16.9250 -9.0017 0.0000 28.9141 0.0000
# 6 0.0000 0.0000 0.0000 2.5687 0.0000 35.2432
#
#
#
# Elastic Compliance Matrix: (Units=1/GPa)
#
#
# Indices 1 2 3 4 5 6 
#
# 1 0.005156 -0.001733 0.000160 0.000000 0.001479 0.000000
# 2 -0.001733 0.023381 -0.005091 0.000000 0.011280 0.000000
# 3 0.000160 -0.005091 0.017352 0.000000 0.002498 0.000000
# 4 0.000000 0.000000 0.000000 0.072073 0.000000 -0.005253
# 5 0.001479 0.011280 0.002498 0.000000 0.042667 0.000000
# 6 0.000000 0.000000 0.000000 -0.005253 0.000000 0.028757
#
#
# Mechanical properties :
#
#
# Convention : Reuss Voigt Hill
#
# Bulk Modulus (GPa) = 30.71148 47.22590 38.96869
# Shear Modulus (GPa) = 23.41192 34.14670 28.77931
#
# Velocity S-wave (km/s) = 3.15325 3.80816 3.49607
# Velocity P-wave (km/s) = 5.12840 6.27637 5.73120
#
# Compressibility (1/GPa) = 0.03256111
#
# Stress axis : x y z
#
# Youngs Moduli (GPa) = 193.96346 42.76957 57.63081
#
# Poissons Ratio (x) = 0.07410 -0.00920
# Poissons Ratio (y) = 0.33607 0.29338
# Poissons Ratio (z) = -0.03097 0.21773
#
# Static dielectric constant tensor:
#      x y z
#    x 1.937210 0.000000 0.011850 
#    y 0.000000 1.934720 0.000000 
#    z 0.011850 0.000000 1.908650 
# 
# From -- ./inp_files/309914.got.cif
#   From: 2010.05.17/outbox.cif.g08.bks.cpg/sg15_155_cif.got.tgz:309914.got - 2010.06.03 18:47:42.
