data_PCOD9275566
_publ_section_title
;
Structure prediction by ZEFSAII (Michael W. Deem and Ramdas Pophale) SiO2 
 PCOD9275566
Probable space group: C 2/C
;
_chemical_formula_sum "Si O2"
_cell_formula_units_Z 48
_cell_length_a 17.027331
_cell_length_b 15.726492
_cell_length_c 16.638356
_cell_angle_alpha 90.000000
_cell_angle_beta 151.996139
_cell_angle_gamma 90.000000
_cell_volume 2091.959040
_symmetry_space_group_name_H-M "C 2/C"
_symmetry_group_IT_number 15
_symmetry_cell_setting 'monoclinic'
loop_
_space_group_symop_operation_xyz
x,y,z
-x,y,1/2-z
-x,-y,-z
x,-y,1/2+z
1/2+x,1/2+y,z
1/2-x,1/2+y,1/2-z
1/2-x,1/2-y,-z
1/2+x,1/2-y,1/2+z
loop_
_atom_site_type_symbol
_atom_site_label
_atom_site_fract_x
_atom_site_fract_y
_atom_site_fract_z
Si Si1 0.539805 0.278196 0.513985
Si Si2 0.798016 0.516660 0.054983
Si Si3 0.797988 0.365181 0.256538
Si Si4 0.198030 0.340850 0.424921
Si Si5 0.862101 0.682738 0.057778
Si Si6 0.676085 0.540019 0.127467
O O1 0.360104 0.322480 0.342256
O O2 0.554291 0.202341 0.592632
O O3 0.574065 0.225495 0.464384
O O4 0.665088 0.359426 0.640555
O O5 0.737013 0.424591 0.970581
O O6 0.772821 0.591869 0.968675
O O7 0.712865 0.540494 0.063928
O O8 0.000000 0.505342 0.250000
O O9 0.752129 0.357217 0.121722
O O10 0.807137 0.467381 0.278760
O O11 0.250000 0.250000 0.500000
O O12 0.000000 0.339042 0.250000
O O13 0.000000 0.666349 0.250000
O O14 0.750000 0.750000 0.000000
O O15 0.500000 0.500000 0.000000
#
# Coordination Sequence:
#
# PCOD9275566 Si02
#       6
#     8   8   8   8   8   8
#     4  11  21  38  60  88 123 161 199 247 304 365
#     4   9  19  35  58  83 117 155 195 247 305 353
#     4  10  22  38  60  87 120 160 201 247 308 361
#     4  10  20  39  63  83 114 157 204 253 299 352
#     4  11  21  36  60  88 122 158 200 246 304 364
#     4   9  19  37  58  79 120 163 192 243 306 358
#
# _framework density 22.945
#
# number of rings (size 3 to 8) (size 9 to 14) (size 15 to 20)
#    0.000    2.000    1.667    2.000    2.333    0.000 
#    3.000    1.667    0.000    0.000    0.000    0.000 
#    0.000    0.000    0.000    0.000    0.000    0.000 
#
# Total GULP energy -133643.922528 kJ/mol
# GULP energy per Si atom -5568.496772 kJ/mol
# Density = 2.289278 g / cm^3
# Si number density = 22.945000 Si / 1000 Ang^3
#
#
#
# Elastic Constant Matrix: (Units=GPa)
#
#
# Indices 1 2 3 4 5 6 
#
# 1 90.7945 26.4629 -5.9760 0.0014 11.4955 0.0010
# 2 26.4629 213.4419 22.6040 0.0001 -10.6940 0.0006
# 3 -5.9760 22.6040 18.7921 0.0019 2.3008 0.0019
# 4 0.0014 0.0001 0.0019 24.0980 0.0012 -6.5426
# 5 11.4955 -10.6940 2.3008 0.0012 20.9172 0.0013
# 6 0.0010 0.0006 0.0019 -6.5426 0.0013 46.5963
#
#
#
# Elastic Compliance Matrix: (Units=1/GPa)
#
#
# Indices 1 2 3 4 5 6 
#
# 1 0.013911 -0.003263 0.009619 -0.000001 -0.010371 -0.000001
# 2 -0.003263 0.006400 -0.009484 0.000001 0.006108 0.000000
# 3 0.009619 -0.009484 0.069862 -0.000006 -0.017819 -0.000003
# 4 -0.000001 0.000001 -0.000006 0.043142 -0.000001 0.006058
# 5 -0.010371 0.006108 -0.017819 -0.000001 0.058590 -0.000001
# 6 -0.000001 0.000000 -0.000003 0.006058 -0.000001 0.022311
#
#
# Mechanical properties :
#
#
# Convention : Reuss Voigt Hill
#
# Bulk Modulus (GPa) = 11.91660 45.46780 28.69220
# Shear Modulus (GPa) = 20.12513 36.98481 28.55497
#
# Velocity S-wave (km/s) = 2.96481 4.01919 3.53157
# Velocity P-wave (km/s) = 4.11399 6.43409 5.40011
#
# Compressibility (1/GPa) = 0.08391658
#
# Stress axis : x y z
#
# Youngs Moduli (GPa) = 71.88503 156.24811 14.31393
#
# Poissons Ratio (x) = 0.50983 -0.13768
# Poissons Ratio (y) = 0.23456 0.13575
# Poissons Ratio (z) = -0.69143 1.48183
#
# Static dielectric constant tensor:
#      x y z
#    x 1.876800 0.000000 0.048660 
#    y 0.000000 2.110730 0.000000 
#    z 0.048660 0.000000 1.935600 
# 
# From -- ./inp_files/211461.got.cif
#   From: 2010.05.17/outbox.cif.g08.bks.cpg/sg15_106_cif.got.tgz:211461.got - 2010.06.03 18:47:42.
