data_PCOD9275229
_publ_section_title
;
Structure prediction by ZEFSAII (Michael W. Deem and Ramdas Pophale) SiO2 
 PCOD9275229
Probable space group: C 2/C
;
_chemical_formula_sum "Si O2"
_cell_formula_units_Z 48
_cell_length_a 7.164434
_cell_length_b 9.061801
_cell_length_c 28.886694
_cell_angle_alpha 90.000000
_cell_angle_beta 93.115187
_cell_angle_gamma 90.000000
_cell_volume 1872.630173
_symmetry_space_group_name_H-M "C 2/C"
_symmetry_group_IT_number 15
_symmetry_cell_setting 'monoclinic'
loop_
_space_group_symop_operation_xyz
x,y,z
-x,y,1/2-z
-x,-y,-z
x,-y,1/2+z
1/2+x,1/2+y,z
1/2-x,1/2+y,1/2-z
1/2-x,1/2-y,-z
1/2+x,1/2-y,1/2+z
loop_
_atom_site_type_symbol
_atom_site_label
_atom_site_fract_x
_atom_site_fract_y
_atom_site_fract_z
Si Si1 0.740461 0.824572 0.110802
Si Si2 0.239761 0.434921 0.547441
Si Si3 0.210910 0.842502 0.799876
Si Si4 0.213191 0.699912 0.706211
Si Si5 0.789543 0.566250 0.049088
Si Si6 0.690018 0.817838 0.391292
O O1 0.816640 0.758564 0.159476
O O2 0.742126 0.728867 0.064378
O O3 0.525656 0.849179 0.121490
O O4 0.819090 0.976329 0.092647
O O5 0.292210 0.505093 0.499454
O O6 0.300514 0.270673 0.559961
O O7 0.014383 0.439611 0.547517
O O8 0.289823 0.755294 0.756432
O O9 0.274101 0.771089 0.849738
O O10 0.987820 0.791840 0.797144
O O11 0.265836 0.017379 0.795211
O O12 0.725232 0.472216 0.092669
#
# Coordination Sequence:
#
# PCOD9275229 Si02
#       6
#     8   8   8   8   8   8
#     4  10  21  38  60  87 124 166 220 267 336 402
#     4  10  20  39  56  87 127 165 216 280 331 399
#     4  10  22  43  69  96 135 176 223 284 349 414
#     4  10  22  43  68  97 135 173 226 284 347 416
#     4  10  22  35  59  90 123 168 218 275 335 400
#     4  10  21  38  60  85 127 165 217 271 334 402
#
# _framework density 25.632397000000001
#
# number of rings (size 3 to 8) (size 9 to 14) (size 15 to 20)
#    0.000    2.000    1.667    1.000    2.333    2.000 
#    0.000    3.333    0.000    0.000    0.000    0.000 
#    0.000    0.000    0.000    0.000    0.000    0.000 
#
# Total GULP energy -133698.599224 kJ/mol
# GULP energy per Si atom -5570.774968 kJ/mol
# Density = 2.557406 g / cm^3
# Si number density = 25.632397 Si / 1000 Ang^3
#
#
#
# Elastic Constant Matrix: (Units=GPa)
#
#
# Indices 1 2 3 4 5 6 
#
# 1 140.6289 26.0254 14.5837 0.0000 -21.4932 0.0000
# 2 26.0254 99.7483 26.2933 0.0000 3.8818 0.0000
# 3 14.5837 26.2933 140.5412 0.0000 8.6076 0.0000
# 4 0.0000 0.0000 0.0000 53.3604 0.0000 -0.6100
# 5 -21.4932 3.8818 8.6076 0.0000 -12.4882 0.0000
# 6 0.0000 0.0000 0.0000 -0.6100 0.0000 -15.1068
#
#
#
# Elastic Compliance Matrix: (Units=1/GPa)
#
#
# Indices 1 2 3 4 5 6 
#
# 1 0.005758 -0.001172 0.000241 0.000000 -0.010108 0.000000
# 2 -0.001172 0.010740 -0.002126 0.000000 0.003891 0.000000
# 3 0.000241 -0.002126 0.007248 0.000000 0.003920 0.000000
# 4 0.000000 0.000000 0.000000 0.018732 0.000000 -0.000756
# 5 -0.010108 0.003891 0.003920 0.000000 -0.058767 0.000000
# 6 0.000000 0.000000 0.000000 -0.000756 0.000000 -0.066165
#
#
# Mechanical properties :
#
#
# Convention : Reuss Voigt Hill
#
# Bulk Modulus (GPa) = 56.71783 57.19146 56.95465
# Shear Modulus (GPa) = -70.96059 26.08747 -22.43656
#
# Velocity S-wave (km/s) = -5.26726 3.19369 -2.96179
# Velocity P-wave (km/s) = 3.84924 5.99668 3.25142
#
# Compressibility (1/GPa) = 0.01763114
#
# Stress axis : x y z
#
# Youngs Moduli (GPa) = 173.67155 93.10876 137.96925
#
# Poissons Ratio (x) = 0.10917 -0.03324
# Poissons Ratio (y) = 0.20362 0.29332
# Poissons Ratio (z) = -0.04185 0.19795
#
# Static dielectric constant tensor:
#      x y z
#    x 2.043170 0.000000 0.067450 
#    y 0.000000 1.952970 0.000000 
#    z 0.067450 0.000000 2.079150 
# 
# From -- ./inp_files/306646.got.cif
#   From: 2010.05.17/outbox.cif.g08.bks.cpg/sg15_154_cif.got.tgz:306646.got - 2010.06.03 18:47:42.
