data_PCOD9275099
_publ_section_title
;
Structure prediction by ZEFSAII (Michael W. Deem and Ramdas Pophale) SiO2 
 PCOD9275099
Probable space group: C 2/C
;
_chemical_formula_sum "Si O2"
_cell_formula_units_Z 56
_cell_length_a 32.035952
_cell_length_b 9.715741
_cell_length_c 9.277956
_cell_angle_alpha 90.000000
_cell_angle_beta 115.241857
_cell_angle_gamma 90.000000
_cell_volume 2612.053156
_symmetry_space_group_name_H-M "C 2/C"
_symmetry_group_IT_number 15
_symmetry_cell_setting 'monoclinic'
loop_
_space_group_symop_operation_xyz
x,y,z
-x,y,1/2-z
-x,-y,-z
x,-y,1/2+z
1/2+x,1/2+y,z
1/2-x,1/2+y,1/2-z
1/2-x,1/2-y,-z
1/2+x,1/2-y,1/2+z
loop_
_atom_site_type_symbol
_atom_site_label
_atom_site_fract_x
_atom_site_fract_y
_atom_site_fract_z
Si Si1 0.191275 0.071796 0.688454
Si Si2 0.360974 0.720465 0.356458
Si Si3 0.682058 0.991257 0.637066
Si Si4 0.027710 0.842291 0.931950
Si Si5 0.538423 0.348337 0.432845
Si Si6 0.118213 0.721750 0.948974
Si Si7 0.754777 0.480350 0.525217
O O1 0.152529 0.177718 0.585855
O O2 0.167778 0.921341 0.673426
O O3 0.226133 0.063649 0.603086
O O4 0.218176 0.106281 0.876982
O O5 0.327833 0.846546 0.355442
O O6 0.409879 0.707712 0.514764
O O7 0.376009 0.745597 0.211872
O O8 0.718793 0.947645 0.568160
O O9 0.634649 0.929521 0.512309
O O10 0.702721 0.928515 0.814634
O O11 0.068827 0.747984 0.943066
O O12 0.000000 0.877053 0.750000
O O13 0.045995 0.994281 0.004552
O O14 0.990954 0.776702 0.984976
O O15 0.500000 0.344349 0.250000
#
# Coordination Sequence:
#
# PCOD9275099 Si02
#       7
#     8   8   8   8   8   8   8
#     4  11  24  40  75  96 128 168 231 279 327 371
#     4  12  24  45  66 100 135 170 218 277 322 394
#     4  11  26  44  67  89 141 182 215 261 339 386
#     4  10  20  38  68  97 130 165 207 269 331 379
#     4  10  22  38  66 103 129 160 212 273 324 383
#     4  12  24  44  67 101 131 177 216 272 327 391
#     4  10  24  44  62 102 127 177 223 277 321 391
#
# _framework density 21.439076
#
# number of rings (size 3 to 8) (size 9 to 14) (size 15 to 20)
#    0.000    1.143    5.714    0.000    0.000   10.286 
#    0.000    1.429    0.000    0.000    0.000    0.000 
#    0.000    0.000    0.000    0.000    0.000    0.000 
#
# Total GULP energy -155999.149628 kJ/mol
# GULP energy per Si atom -5571.398201 kJ/mol
# Density = 2.139028 g / cm^3
# Si number density = 21.439076 Si / 1000 Ang^3
#
#
#
# Elastic Constant Matrix: (Units=GPa)
#
#
# Indices 1 2 3 4 5 6 
#
# 1 102.2563 10.4696 19.5088 0.0000 3.8883 0.0000
# 2 10.4696 59.2734 1.3869 0.0000 7.5363 0.0000
# 3 19.5088 1.3869 107.3405 0.0000 3.8741 0.0000
# 4 0.0000 0.0000 0.0000 14.6878 0.0000 6.6897
# 5 3.8883 7.5363 3.8741 0.0000 38.3174 0.0000
# 6 0.0000 0.0000 0.0000 6.6897 0.0000 6.5780
#
#
#
# Elastic Compliance Matrix: (Units=1/GPa)
#
#
# Indices 1 2 3 4 5 6 
#
# 1 0.010325 -0.001714 -0.001835 0.000000 -0.000525 0.000000
# 2 -0.001714 0.017589 0.000204 0.000000 -0.003306 0.000000
# 3 -0.001835 0.000204 0.009677 0.000000 -0.000832 0.000000
# 4 0.000000 0.000000 0.000000 0.126830 0.000000 -0.128983
# 5 -0.000525 -0.003306 -0.000832 0.000000 0.026885 0.000000
# 6 0.000000 0.000000 0.000000 -0.128983 0.000000 0.283195
#
#
# Mechanical properties :
#
#
# Convention : Reuss Voigt Hill
#
# Bulk Modulus (GPa) = 32.36280 36.84453 34.60367
# Shear Modulus (GPa) = 10.17309 27.75031 18.96170
#
# Velocity S-wave (km/s) = 2.18069 3.60165 2.97719
# Velocity P-wave (km/s) = 4.63342 5.87528 5.29091
#
# Compressibility (1/GPa) = 0.03089967
#
# Stress axis : x y z
#
# Youngs Moduli (GPa) = 96.85256 56.85265 103.33630
#
# Poissons Ratio (x) = 0.09745 0.18967
# Poissons Ratio (y) = 0.16601 -0.02104
# Poissons Ratio (z) = 0.17777 -0.01157
#
# Static dielectric constant tensor:
#      x y z
#    x 1.785880 0.000000 0.027110 
#    y 0.000000 1.808350 0.000000 
#    z 0.027110 0.000000 1.833670 
# 
# From -- ./inp_files/69146.got.cif
#   From: 2010.05.17/outbox.cif.g08.bks.cpg/sg15_35_cif.got.tgz:69146.got - 2010.06.03 18:47:42.
