data_PCOD9275161
_publ_section_title
;
Structure prediction by ZEFSAII (Michael W. Deem and Ramdas Pophale) SiO2 
 PCOD9275161
Probable space group: C 2/C
;
_chemical_formula_sum "Si O2"
_cell_formula_units_Z 52
_cell_length_a 24.467761
_cell_length_b 5.414915
_cell_length_c 17.413286
_cell_angle_alpha 90.000000
_cell_angle_beta 86.894766
_cell_angle_gamma 90.000000
_cell_volume 2303.713538
_symmetry_space_group_name_H-M "C 2/C"
_symmetry_group_IT_number 15
_symmetry_cell_setting 'monoclinic'
loop_
_space_group_symop_operation_xyz
x,y,z
-x,y,1/2-z
-x,-y,-z
x,-y,1/2+z
1/2+x,1/2+y,z
1/2-x,1/2+y,1/2-z
1/2-x,1/2-y,-z
1/2+x,1/2-y,1/2+z
loop_
_atom_site_type_symbol
_atom_site_label
_atom_site_fract_x
_atom_site_fract_y
_atom_site_fract_z
Si Si1 0.904211 0.859932 0.808514
Si Si2 0.418809 0.998792 0.168407
Si Si3 0.660447 0.770443 0.442141
Si Si4 0.676271 0.716824 0.747718
Si Si5 0.500000 0.283596 0.250000
Si Si6 0.161537 0.468414 0.096250
Si Si7 0.224513 0.233146 0.894347
O O1 0.921243 0.668447 0.743109
O O2 0.890131 0.712492 0.886899
O O3 0.845623 0.963519 0.785015
O O4 0.950560 0.065125 0.794340
O O5 0.371257 0.195885 0.189646
O O6 0.475247 0.141358 0.177239
O O7 0.395459 0.834598 0.100547
O O8 0.651363 0.827513 0.532271
O O9 0.686244 0.501698 0.422980
O O10 0.702721 0.990500 0.413844
O O11 0.675009 0.894927 0.675077
O O12 0.726971 0.712350 0.800708
O O13 0.216041 0.313470 0.074120
#
# Coordination Sequence:
#
# PCOD9275161 Si02
#       7
#     8   8   8   8   4   8   8
#     4  10  20  39  62  93 126 163 226 287 328 389
#     4   9  19  39  61  91 123 171 220 274 331 407
#     4  11  24  43  62  96 138 186 217 272 337 409
#     4   9  21  36  59  90 124 171 220 274 312 386
#     4  10  20  38  70  92 122 170 232 290 344 398
#     4  11  25  36  64  97 137 170 228 280 334 393
#     4  11  24  41  64  91 139 187 227 259 332 406
#
# _framework density 22.572251000000001
#
# number of rings (size 3 to 8) (size 9 to 14) (size 15 to 20)
#    0.000    1.846    1.538    1.385    6.462    0.000 
#    0.000    0.769    0.000   12.923    0.000    0.000 
#    0.000    0.000    0.000    0.000    0.000    0.000 
#
# Total GULP energy -144926.936454 kJ/mol
# GULP energy per Si atom -5574.112941 kJ/mol
# Density = 2.252088 g / cm^3
# Si number density = 22.572251 Si / 1000 Ang^3
#
#
#
# Elastic Constant Matrix: (Units=GPa)
#
#
# Indices 1 2 3 4 5 6 
#
# 1 95.4425 25.7454 21.9745 0.0000 13.8310 0.0000
# 2 25.7454 89.6643 11.9003 0.0000 -5.9063 0.0000
# 3 21.9745 11.9003 73.4681 0.0000 5.7289 0.0000
# 4 0.0000 0.0000 0.0000 30.9461 0.0000 -2.7841
# 5 13.8310 -5.9063 5.7289 0.0000 15.5748 0.0000
# 6 0.0000 0.0000 0.0000 -2.7841 0.0000 40.7101
#
#
#
# Elastic Compliance Matrix: (Units=1/GPa)
#
#
# Indices 1 2 3 4 5 6 
#
# 1 0.014260 -0.004660 -0.002456 0.000000 -0.013527 0.000000
# 2 -0.004660 0.013336 -0.001527 0.000000 0.009757 0.000000
# 3 -0.002456 -0.001527 0.014896 0.000000 -0.003878 0.000000
# 4 0.000000 0.000000 0.000000 0.032514 0.000000 0.002224
# 5 -0.013527 0.009757 -0.003878 0.000000 0.081345 0.000000
# 6 0.000000 0.000000 0.000000 0.002224 0.000000 0.024716
#
#
# Mechanical properties :
#
#
# Convention : Reuss Voigt Hill
#
# Bulk Modulus (GPa) = 39.67213 41.97946 40.82579
# Shear Modulus (GPa) = 24.18323 30.70985 27.44654
#
# Velocity S-wave (km/s) = 3.27673 3.69252 3.49082
# Velocity P-wave (km/s) = 5.65064 6.06776 5.86291
#
# Compressibility (1/GPa) = 0.02520661
#
# Stress axis : x y z
#
# Youngs Moduli (GPa) = 70.12565 74.98473 67.13398
#
# Poissons Ratio (x) = 0.34940 0.16486
# Poissons Ratio (y) = 0.32676 0.10253
# Poissons Ratio (z) = 0.17220 0.11452
#
# Static dielectric constant tensor:
#      x y z
#    x 1.918170 0.000000 -0.037170 
#    y 0.000000 1.916680 0.000000 
#    z -0.037170 0.000000 1.920910 
# 
# From -- ./inp_files/220946.got.cif
#   From: 2010.05.17/outbox.cif.g08.bks.cpg/sg15_111_cif.got.tgz:220946.got - 2010.06.03 18:47:42.
