data_PCOD9275513
_publ_section_title
;
Structure prediction by ZEFSAII (Michael W. Deem and Ramdas Pophale) SiO2 
 PCOD9275513
Probable space group: C 2/C
;
_chemical_formula_sum "Si O2"
_cell_formula_units_Z 60
_cell_length_a 25.173766
_cell_length_b 9.386941
_cell_length_c 24.305113
_cell_angle_alpha 90.000000
_cell_angle_beta 147.327949
_cell_angle_gamma 90.000000
_cell_volume 3100.464414
_symmetry_space_group_name_H-M "C 2/C"
_symmetry_group_IT_number 15
_symmetry_cell_setting 'monoclinic'
loop_
_space_group_symop_operation_xyz
x,y,z
-x,y,1/2-z
-x,-y,-z
x,-y,1/2+z
1/2+x,1/2+y,z
1/2-x,1/2+y,1/2-z
1/2-x,1/2-y,-z
1/2+x,1/2-y,1/2+z
loop_
_atom_site_type_symbol
_atom_site_label
_atom_site_fract_x
_atom_site_fract_y
_atom_site_fract_z
Si Si1 0.395815 0.399296 0.676218
Si Si2 0.246109 0.358416 0.047262
Si Si3 0.841527 0.401220 0.846230
Si Si4 0.000000 0.368918 0.250000
Si Si5 0.142728 0.234389 0.744890
Si Si6 0.024861 0.548164 0.378236
Si Si7 0.638494 0.410661 0.724777
Si Si8 0.466530 0.160384 0.926919
O O1 0.500000 0.470826 0.750000
O O2 0.307630 0.501396 0.583599
O O3 0.388234 0.380810 0.735204
O O4 0.409016 0.241520 0.662665
O O5 0.296085 0.292556 0.145844
O O6 0.250000 0.250000 0.000000
O O7 0.136723 0.406320 0.967241
O O8 0.809550 0.337648 0.759414
O O9 0.753184 0.381889 0.811667
O O10 0.876540 0.565901 0.872604
O O11 0.942765 0.324130 0.952359
O O12 0.012236 0.465349 0.207854
O O13 0.041698 0.313215 0.671488
O O14 0.124320 0.078664 0.703543
O O15 0.008805 0.440408 0.414983
O O16 0.573291 0.307829 0.630666
#
# Coordination Sequence:
#
# PCOD9275513 Si02
#       8
#     8   8   8   4   8   8   8   8
#     4   9  21  39  63  91 127 161 208 262 319 364
#     4  11  24  39  67  94 126 176 210 264 321 394
#     4  10  22  38  64  91 124 167 213 262 319 383
#     4  10  20  40  66  90 126 164 200 276 316 380
#     4  10  24  41  61  93 131 165 208 275 315 386
#     4  11  22  40  64  94 123 166 215 259 330 382
#     4  11  20  39  64  88 127 168 206 261 323 376
#     4  10  20  39  62  90 122 165 213 261 317 384
#
# _framework density 19.351939000000002
#
# number of rings (size 3 to 8) (size 9 to 14) (size 15 to 20)
#    0.400    1.333    1.333    3.200    3.733    3.200 
#    0.000    2.667    0.000    0.000    0.000    0.000 
#    0.000    0.000    0.000    0.000    0.000    0.000 
#
# Total GULP energy -167391.389462 kJ/mol
# GULP energy per Si atom -5579.712982 kJ/mol
# Density = 1.930789 g / cm^3
# Si number density = 19.351939 Si / 1000 Ang^3
#
#
#
# Elastic Constant Matrix: (Units=GPa)
#
#
# Indices 1 2 3 4 5 6 
#
# 1 89.5329 17.5892 28.2220 0.0000 16.1399 0.0000
# 2 17.5892 89.8127 52.4649 0.0000 2.6120 0.0000
# 3 28.2220 52.4649 74.3791 0.0000 7.8297 0.0000
# 4 0.0000 0.0000 0.0000 32.5216 0.0000 -15.3371
# 5 16.1399 2.6120 7.8297 0.0000 38.6395 0.0000
# 6 0.0000 0.0000 0.0000 -15.3371 0.0000 11.4417
#
#
#
# Elastic Compliance Matrix: (Units=1/GPa)
#
#
# Indices 1 2 3 4 5 6 
#
# 1 0.013476 0.000334 -0.004858 0.000000 -0.004667 0.000000
# 2 0.000334 0.019026 -0.013689 0.000000 0.001348 0.000000
# 3 -0.004858 -0.013689 0.025170 0.000000 -0.002146 0.000000
# 4 0.000000 0.000000 0.000000 0.083593 0.000000 0.112053
# 5 -0.004667 0.001348 -0.002146 0.000000 0.028173 0.000000
# 6 0.000000 0.000000 0.000000 0.112053 0.000000 0.237602
#
#
# Mechanical properties :
#
#
# Convention : Reuss Voigt Hill
#
# Bulk Modulus (GPa) = 47.06672 50.03076 48.54874
# Shear Modulus (GPa) = 11.09759 26.88379 18.99069
#
# Velocity S-wave (km/s) = 2.39730 3.73125 3.13602
# Velocity P-wave (km/s) = 5.66012 6.66874 6.18503
#
# Compressibility (1/GPa) = 0.02124644
#
# Stress axis : x y z
#
# Youngs Moduli (GPa) = 74.20614 52.55843 39.73009
#
# Poissons Ratio (x) = -0.01757 0.19300
# Poissons Ratio (y) = -0.02480 0.54388
# Poissons Ratio (z) = 0.36047 0.71950
#
# Static dielectric constant tensor:
#      x y z
#    x 1.679250 0.000000 -0.002200 
#    y 0.000000 1.670640 0.000000 
#    z -0.002200 0.000000 1.673380 
# 
# From -- ./inp_files/303099.got.cif
#   From: 2010.05.17/outbox.cif.g08.bks.cpg/sg15_152_cif.got.tgz:303099.got - 2010.06.03 18:47:42.
