data_PCOD9275301
_publ_section_title
;
Structure prediction by ZEFSAII (Michael W. Deem and Ramdas Pophale) SiO2 
 PCOD9275301
Probable space group: C 2/C
;
_chemical_formula_sum "Si O2"
_cell_formula_units_Z 52
_cell_length_a 9.707812
_cell_length_b 28.893875
_cell_length_c 8.414761
_cell_angle_alpha 90.000000
_cell_angle_beta 68.111636
_cell_angle_gamma 90.000000
_cell_volume 2190.159359
_symmetry_space_group_name_H-M "C 2/C"
_symmetry_group_IT_number 15
_symmetry_cell_setting 'monoclinic'
loop_
_space_group_symop_operation_xyz
x,y,z
-x,y,1/2-z
-x,-y,-z
x,-y,1/2+z
1/2+x,1/2+y,z
1/2-x,1/2+y,1/2-z
1/2-x,1/2-y,-z
1/2+x,1/2-y,1/2+z
loop_
_atom_site_type_symbol
_atom_site_label
_atom_site_fract_x
_atom_site_fract_y
_atom_site_fract_z
Si Si1 0.192929 0.831975 0.587935
Si Si2 0.449367 0.907273 0.957011
Si Si3 0.000000 0.187656 0.750000
Si Si4 0.600761 0.277039 0.892262
Si Si5 0.691359 0.172973 0.783900
Si Si6 0.764323 0.067026 0.426932
Si Si7 0.666445 0.983650 0.265125
O O1 0.217314 0.811330 0.753825
O O2 0.322767 0.830289 0.401667
O O3 0.144665 0.885557 0.622553
O O4 0.063914 0.795993 0.586537
O O5 0.500000 0.906149 0.750000
O O6 0.599128 0.913151 0.989612
O O7 0.376936 0.861290 0.057879
O O8 0.357856 0.951382 0.067521
O O9 0.867902 0.160611 0.723188
O O10 0.090767 0.217222 0.584295
O O11 0.639840 0.224986 0.836383
O O12 0.770328 0.041636 0.592714
O O13 0.752078 0.029355 0.290767
O O14 0.500000 0.990638 0.250000
#
# Coordination Sequence:
#
# PCOD9275301 Si02
#       7
#     8   8   4   8   8   8   8
#     4  10  23  42  64  93 127 175 220 263 319 394
#     4  11  23  36  61  99 137 170 213 267 329 392
#     4  10  24  42  62  92 124 168 220 270 320 378
#     4  10  23  43  65  89 132 169 220 268 321 379
#     4  11  23  42  65  93 131 175 217 267 322 387
#     4  11  21  38  64  92 133 166 215 272 330 391
#     4  10  20  39  59  93 132 167 213 273 330 384
#
# _framework density 23.742564999999999
#
# number of rings (size 3 to 8) (size 9 to 14) (size 15 to 20)
#    0.000    1.538    1.538    4.154    3.231    4.923 
#    0.000    0.000    0.000    5.538    0.000    0.000 
#    0.000    0.000    0.000    0.000    0.000    0.000 
#
# Total GULP energy -144762.161810 kJ/mol
# GULP energy per Si atom -5567.775454 kJ/mol
# Density = 2.368853 g / cm^3
# Si number density = 23.742565 Si / 1000 Ang^3
#
#
#
# Elastic Constant Matrix: (Units=GPa)
#
#
# Indices 1 2 3 4 5 6 
#
# 1 34.5211 22.9759 -6.7127 0.0000 1.6237 0.0000
# 2 22.9759 190.2272 83.3959 0.0000 8.1516 0.0000
# 3 -6.7127 83.3959 180.6706 0.0000 16.9342 0.0000
# 4 0.0000 0.0000 0.0000 -4.2420 0.0000 70.5087
# 5 1.6237 8.1516 16.9342 0.0000 17.7439 0.0000
# 6 0.0000 0.0000 0.0000 70.5087 0.0000 -168.1904
#
#
#
# Elastic Compliance Matrix: (Units=1/GPa)
#
#
# Indices 1 2 3 4 5 6 
#
# 1 0.033907 -0.005817 0.004376 0.000000 -0.004607 0.000000
# 2 -0.005817 0.007589 -0.003780 0.000000 0.000654 0.000000
# 3 0.004376 -0.003780 0.008036 0.000000 -0.006333 0.000000
# 4 0.000000 0.000000 0.000000 0.039500 0.000000 0.016559
# 5 -0.004607 0.000654 -0.006333 0.000000 0.062523 0.000000
# 6 0.000000 0.000000 0.000000 0.016559 0.000000 0.000996
#
#
# Mechanical properties :
#
#
# Convention : Reuss Voigt Hill
#
# Bulk Modulus (GPa) = 25.58141 67.19299 46.38720
# Shear Modulus (GPa) = 28.40570 -10.55369 8.92601
#
# Velocity S-wave (km/s) = 3.46266 -2.11062 1.94105
# Velocity P-wave (km/s) = 5.17538 4.73524 4.96019
#
# Compressibility (1/GPa) = 0.03909089
#
# Stress axis : x y z
#
# Youngs Moduli (GPa) = 29.49268 131.77594 124.43903
#
# Poissons Ratio (x) = 0.76648 -0.54460
# Poissons Ratio (y) = 0.17154 0.47041
# Poissons Ratio (z) = -0.12907 0.49814
#
# Static dielectric constant tensor:
#      x y z
#    x 2.149550 0.000000 0.191900 
#    y 0.000000 1.984520 0.000000 
#    z 0.191900 0.000000 2.257950 
# 
# From -- ./inp_files/34066.got.cif
#   From: 2010.05.17/outbox.cif.g08.bks.cpg/sg15_18_cif.got.tgz:34066.got - 2010.06.03 18:47:42.
