data_PCOD9275033
_publ_section_title
;
Structure prediction by ZEFSAII (Michael W. Deem and Ramdas Pophale) SiO2 
 PCOD9275033
Probable space group: C 2/C
;
_chemical_formula_sum "Si O2"
_cell_formula_units_Z 44
_cell_length_a 9.204485
_cell_length_b 21.032612
_cell_length_c 11.378091
_cell_angle_alpha 90.000000
_cell_angle_beta 60.506039
_cell_angle_gamma 90.000000
_cell_volume 1917.276628
_symmetry_space_group_name_H-M "C 2/C"
_symmetry_group_IT_number 15
_symmetry_cell_setting 'monoclinic'
loop_
_space_group_symop_operation_xyz
x,y,z
-x,y,1/2-z
-x,-y,-z
x,-y,1/2+z
1/2+x,1/2+y,z
1/2-x,1/2+y,1/2-z
1/2-x,1/2-y,-z
1/2+x,1/2-y,1/2+z
loop_
_atom_site_type_symbol
_atom_site_label
_atom_site_fract_x
_atom_site_fract_y
_atom_site_fract_z
Si Si1 0.396873 0.502231 0.916524
Si Si2 0.487479 0.798726 0.895496
Si Si3 0.500000 0.307114 0.750000
Si Si4 0.815476 0.140353 0.870340
Si Si5 0.264842 0.800461 0.317145
Si Si6 0.292571 0.878280 0.528160
O O1 0.500000 0.491851 0.750000
O O2 0.329838 0.573719 0.928579
O O3 0.244668 0.451664 0.981651
O O4 0.500000 0.500000 0.000000
O O5 0.500000 0.798758 0.750000
O O6 0.585430 0.735481 0.903725
O O7 0.589481 0.858536 0.911355
O O8 0.297468 0.811812 0.010485
O O9 0.625833 0.259816 0.765130
O O10 0.606801 0.351973 0.626459
O O11 0.728431 0.142640 0.778110
O O12 0.000000 0.157768 0.750000
O O13 0.339158 0.831626 0.403491
#
# Coordination Sequence:
#
# PCOD9275033 Si02
#       6
#     8   8   4   8   8   8
#     4  11  25  44  71 100 136 189 240 288 349 426
#     4  11  26  42  66 105 143 179 230 292 357 415
#     4  10  20  38  68 100 144 174 228 278 368 416
#     4  11  25  44  67  98 140 183 234 283 351 416
#     4  11  22  41  69 103 137 181 229 292 352 423
#     4  11  22  41  69 100 136 184 235 286 349 420
#
# _framework density 22.949217999999998
#
# number of rings (size 3 to 8) (size 9 to 14) (size 15 to 20)
#    0.000    1.091    0.909    7.091    2.545    6.545 
#    0.000    0.000    0.000    0.000    0.000    0.000 
#    0.000    0.000    0.000    0.000    0.000    0.000 
#
# Total GULP energy -122611.026327 kJ/mol
# GULP energy per Si atom -5573.228469 kJ/mol
# Density = 2.289698 g / cm^3
# Si number density = 22.949218 Si / 1000 Ang^3
#
#
#
# Elastic Constant Matrix: (Units=GPa)
#
#
# Indices 1 2 3 4 5 6 
#
# 1 100.8392 68.7472 43.5052 0.0000 10.5006 0.0000
# 2 68.7472 150.3299 31.4354 0.0000 3.5461 0.0000
# 3 43.5052 31.4354 105.5641 0.0000 0.7249 0.0000
# 4 0.0000 0.0000 0.0000 -36.1343 0.0000 47.0783
# 5 10.5006 3.5461 0.7249 0.0000 50.6085 0.0000
# 6 0.0000 0.0000 0.0000 47.0783 0.0000 6.0588
#
#
#
# Elastic Compliance Matrix: (Units=1/GPa)
#
#
# Indices 1 2 3 4 5 6 
#
# 1 0.016873 -0.006608 -0.004966 0.000000 -0.002967 0.000000
# 2 -0.006608 0.009693 -0.000168 0.000000 0.000694 0.000000
# 3 -0.004966 -0.000168 0.011563 0.000000 0.000876 0.000000
# 4 0.000000 0.000000 0.000000 -0.002488 0.000000 0.019332
# 5 -0.002967 0.000694 0.000876 0.000000 0.020314 0.000000
# 6 0.000000 0.000000 0.000000 0.019332 0.000000 0.014838
#
#
# Mechanical properties :
#
#
# Convention : Reuss Voigt Hill
#
# Bulk Modulus (GPa) = 68.27676 71.56764 69.92220
# Shear Modulus (GPa) = 50.42506 18.30962 34.36734
#
# Velocity S-wave (km/s) = 4.69256 2.82766 3.87400
# Velocity P-wave (km/s) = 7.69260 6.47408 7.10949
#
# Compressibility (1/GPa) = 0.01464627
#
# Stress axis : x y z
#
# Youngs Moduli (GPa) = 59.26666 103.17191 86.48043
#
# Poissons Ratio (x) = 0.68174 0.42943
# Poissons Ratio (y) = 0.39162 0.01452
# Poissons Ratio (z) = 0.29429 0.01732
#
# Static dielectric constant tensor:
#      x y z
#    x 1.946990 0.000000 -0.043540 
#    y 0.000000 1.820110 0.000000 
#    z -0.043540 0.000000 1.953160 
# 
# From -- ./inp_files/79706.got.cif
#   From: 2010.05.17/outbox.cif.g08.bks.cpg/sg15_40_cif.got.tgz:79706.got - 2010.06.03 18:47:42.
