data_PCOD9275849
_publ_section_title
;
Structure prediction by ZEFSAII (Michael W. Deem and Ramdas Pophale) SiO2 
 PCOD9275849
Probable space group: C 2/C
;
_chemical_formula_sum "Si O2"
_cell_formula_units_Z 48
_cell_length_a 24.815833
_cell_length_b 8.878444
_cell_length_c 10.828946
_cell_angle_alpha 90.000000
_cell_angle_beta 104.800275
_cell_angle_gamma 90.000000
_cell_volume 2306.739237
_symmetry_space_group_name_H-M "C 2/C"
_symmetry_group_IT_number 15
_symmetry_cell_setting 'monoclinic'
loop_
_space_group_symop_operation_xyz
x,y,z
-x,y,1/2-z
-x,-y,-z
x,-y,1/2+z
1/2+x,1/2+y,z
1/2-x,1/2+y,1/2-z
1/2-x,1/2-y,-z
1/2+x,1/2-y,1/2+z
loop_
_atom_site_type_symbol
_atom_site_label
_atom_site_fract_x
_atom_site_fract_y
_atom_site_fract_z
Si Si1 0.979034 0.746926 0.010619
Si Si2 0.835614 0.490995 0.659373
Si Si3 0.669627 0.674631 0.397201
Si Si4 0.212899 0.595677 0.110606
Si Si5 0.545637 0.992567 0.190252
Si Si6 0.049955 0.960767 0.877938
O O1 0.014398 0.636041 0.117041
O O2 0.943972 0.875257 0.057202
O O3 0.942991 0.631720 0.907241
O O4 0.025137 0.840556 0.960269
O O5 0.833820 0.670966 0.681206
O O6 0.813540 0.479491 0.505914
O O7 0.804248 0.419593 0.757496
O O8 0.900493 0.453377 0.706417
O O9 0.721050 0.583696 0.371625
O O10 0.690417 0.742980 0.542550
O O11 0.609779 0.596800 0.366622
O O12 0.500000 0.914379 0.250000
O O13 0.000000 0.975421 0.750000
#
# Coordination Sequence:
#
# PCOD9275849 Si02
#       6
#     8   8   8   8   8   8
#     4  10  23  36  60  91 127 159 216 251 334 384
#     4  10  20  39  65  90 125 164 221 266 323 387
#     4   9  20  41  64  83 136 167 214 265 331 385
#     4   9  21  41  62  95 119 176 215 270 324 379
#     4  11  22  38  62  92 124 166 209 271 319 383
#     4  11  21  41  59  93 124 172 202 264 328 389
#
# _framework density 20.808592999999998
#
# number of rings (size 3 to 8) (size 9 to 14) (size 15 to 20)
#    1.000    1.000    0.000    4.000    4.667    0.000 
#    9.000    2.500    0.000    0.000    0.000    0.000 
#    0.000    0.000    0.000    0.000    0.000    0.000 
#
# Total GULP energy -133738.858988 kJ/mol
# GULP energy per Si atom -5572.452458 kJ/mol
# Density = 2.076123 g / cm^3
# Si number density = 20.808593 Si / 1000 Ang^3
#
#
#
# Elastic Constant Matrix: (Units=GPa)
#
#
# Indices 1 2 3 4 5 6 
#
# 1 100.6052 -0.2918 -0.3939 0.0000 4.2624 0.0000
# 2 -0.2918 64.9002 0.7746 0.0000 -5.8010 0.0000
# 3 -0.3939 0.7746 32.8381 0.0000 -2.9419 0.0000
# 4 0.0000 0.0000 0.0000 17.8638 0.0000 -12.3944
# 5 4.2624 -5.8010 -2.9419 0.0000 20.5079 0.0000
# 6 0.0000 0.0000 0.0000 -12.3944 0.0000 20.5499
#
#
#
# Elastic Compliance Matrix: (Units=1/GPa)
#
#
# Indices 1 2 3 4 5 6 
#
# 1 0.010030 -0.000145 -0.000068 0.000000 -0.002135 0.000000
# 2 -0.000145 0.015810 0.000029 0.000000 0.004506 0.000000
# 3 -0.000068 0.000029 0.030849 0.000000 0.004448 0.000000
# 4 0.000000 0.000000 0.000000 0.096263 0.000000 0.058060
# 5 -0.002135 0.004506 0.004448 0.000000 0.051118 0.000000
# 6 0.000000 0.000000 0.000000 0.058060 0.000000 0.083680
#
#
# Mechanical properties :
#
#
# Convention : Reuss Voigt Hill
#
# Bulk Modulus (GPa) = 17.75501 22.05794 19.90648
# Shear Modulus (GPa) = 16.29241 25.00127 20.64684
#
# Velocity S-wave (km/s) = 2.80119 3.47001 3.15338
# Velocity P-wave (km/s) = 4.36042 5.16508 4.77971
#
# Compressibility (1/GPa) = 0.05632212
#
# Stress axis : x y z
#
# Youngs Moduli (GPa) = 99.70459 63.25085 32.41551
#
# Poissons Ratio (x) = 0.00917 0.00219
# Poissons Ratio (y) = 0.01445 -0.00094
# Poissons Ratio (z) = 0.00674 -0.00184
#
# Static dielectric constant tensor:
#      x y z
#    x 1.655390 0.000000 -0.036040 
#    y 0.000000 1.746470 0.000000 
#    z -0.036040 0.000000 1.836840 
# 
# From -- ./inp_files/121158.got.cif
#   From: 2010.05.17/outbox.cif.g08.bks.cpg/sg15_61_cif.got.tgz:121158.got - 2010.06.03 18:47:42.
