data_PCOD9275540
_publ_section_title
;
Structure prediction by ZEFSAII (Michael W. Deem and Ramdas Pophale) SiO2 
 PCOD9275540
Probable space group: C 2/C
;
_chemical_formula_sum "Si O2"
_cell_formula_units_Z 56
_cell_length_a 8.445856
_cell_length_b 15.201748
_cell_length_c 23.306912
_cell_angle_alpha 90.000000
_cell_angle_beta 52.079996
_cell_angle_gamma 90.000000
_cell_volume 2360.625752
_symmetry_space_group_name_H-M "C 2/C"
_symmetry_group_IT_number 15
_symmetry_cell_setting 'monoclinic'
loop_
_space_group_symop_operation_xyz
x,y,z
-x,y,1/2-z
-x,-y,-z
x,-y,1/2+z
1/2+x,1/2+y,z
1/2-x,1/2+y,1/2-z
1/2-x,1/2-y,-z
1/2+x,1/2-y,1/2+z
loop_
_atom_site_type_symbol
_atom_site_label
_atom_site_fract_x
_atom_site_fract_y
_atom_site_fract_z
Si Si1 0.951660 0.494402 0.133561
Si Si2 0.684775 0.297858 0.791150
Si Si3 0.188840 0.890230 0.613075
Si Si4 0.637198 0.581831 0.989576
Si Si5 0.937237 0.786836 0.088173
Si Si6 0.117172 0.323081 0.636200
Si Si7 0.187918 0.612631 0.739215
O O1 0.826524 0.533835 0.108624
O O2 0.786147 0.452705 0.213345
O O3 0.127529 0.425586 0.080270
O O4 0.088659 0.575637 0.125966
O O5 0.530416 0.374551 0.810919
O O6 0.724043 0.300697 0.850331
O O7 0.613155 0.203875 0.784327
O O8 0.898804 0.307281 0.713793
O O9 0.148769 0.907166 0.555186
O O10 0.298476 0.797572 0.603443
O O11 0.540014 0.661822 0.975972
O O12 0.500000 0.500000 0.000000
O O13 0.844175 0.857378 0.155463
O O14 0.119863 0.742645 0.082006
O O15 0.000000 0.568404 0.750000
#
# Coordination Sequence:
#
# PCOD9275540 Si02
#       7
#     8   8   8   8   8   8   8
#     4  11  24  40  62  92 124 167 208 266 321 369
#     4  10  20  39  62  93 121 161 202 254 315 389
#     4  11  23  42  65  89 125 170 215 246 309 398
#     4  12  25  41  61  90 128 167 215 269 312 369
#     4  10  22  42  65  91 120 170 208 254 322 382
#     4   9  22  39  64  91 128 158 204 258 320 384
#     4  11  20  38  67  92 124 154 204 263 326 376
#
# _framework density 23.722524
#
# number of rings (size 3 to 8) (size 9 to 14) (size 15 to 20)
#    0.000    1.429    2.857    1.714    2.000    2.286 
#    0.000   12.143    0.000    0.000    0.000    0.000 
#    0.000    0.000    0.000    0.000    0.000    0.000 
#
# Total GULP energy -156321.186462 kJ/mol
# GULP energy per Si atom -5582.899516 kJ/mol
# Density = 2.366853 g / cm^3
# Si number density = 23.722524 Si / 1000 Ang^3
#
#
#
# Elastic Constant Matrix: (Units=GPa)
#
#
# Indices 1 2 3 4 5 6 
#
# 1 119.2675 32.7431 47.2426 0.0000 27.8030 -0.0005
# 2 32.7431 55.0571 38.2860 0.0000 12.3159 -0.0003
# 3 47.2426 38.2860 92.8853 0.0000 34.2139 -0.0001
# 4 0.0000 0.0000 0.0000 35.0536 0.0000 11.6647
# 5 27.8030 12.3159 34.2139 0.0000 43.8330 0.0002
# 6 -0.0005 -0.0003 -0.0001 11.6647 0.0002 26.4177
#
#
#
# Elastic Compliance Matrix: (Units=1/GPa)
#
#
# Indices 1 2 3 4 5 6 
#
# 1 0.011512 -0.004075 -0.002677 0.000000 -0.004067 0.000000
# 2 -0.004075 0.026969 -0.010112 0.000000 0.002900 0.000000
# 3 -0.002677 -0.010112 0.020525 0.000000 -0.011481 0.000000
# 4 0.000000 0.000000 0.000000 0.033441 0.000000 -0.014766
# 5 -0.004067 0.002900 -0.011481 0.000000 0.033541 0.000000
# 6 0.000000 0.000000 0.000000 -0.014766 0.000000 0.044373
#
#
# Mechanical properties :
#
#
# Convention : Reuss Voigt Hill
#
# Bulk Modulus (GPa) = 39.56059 55.97258 47.76658
# Shear Modulus (GPa) = 23.52769 30.99007 27.25888
#
# Velocity S-wave (km/s) = 3.15268 3.61828 3.39347
# Velocity P-wave (km/s) = 5.47404 6.41107 5.96100
#
# Compressibility (1/GPa) = 0.02527768
#
# Stress axis : x y z
#
# Youngs Moduli (GPa) = 86.86755 37.07915 48.72136
#
# Poissons Ratio (x) = 0.15108 0.13045
# Poissons Ratio (y) = 0.35394 0.49268
# Poissons Ratio (z) = 0.23258 0.37495
#
# Static dielectric constant tensor:
#      x y z
#    x 1.895350 0.000000 0.001690 
#    y 0.000000 1.907840 0.000000 
#    z 0.001690 0.000000 1.988610 
# 
# From -- ./inp_files/264562.got.cif
#   From: 2010.05.17/outbox.cif.g08.bks.cpg/sg15_133_cif.got.tgz:264562.got - 2010.06.03 18:47:42.
