data_PCOD9275381
_publ_section_title
;
Structure prediction by ZEFSAII (Michael W. Deem and Ramdas Pophale) SiO2 
 PCOD9275381
Probable space group: C 2/C
;
_chemical_formula_sum "Si O2"
_cell_formula_units_Z 52
_cell_length_a 10.521004
_cell_length_b 16.117507
_cell_length_c 12.640339
_cell_angle_alpha 90.000000
_cell_angle_beta 96.496398
_cell_angle_gamma 90.000000
_cell_volume 2129.688891
_symmetry_space_group_name_H-M "C 2/C"
_symmetry_group_IT_number 15
_symmetry_cell_setting 'monoclinic'
loop_
_space_group_symop_operation_xyz
x,y,z
-x,y,1/2-z
-x,-y,-z
x,-y,1/2+z
1/2+x,1/2+y,z
1/2-x,1/2+y,1/2-z
1/2-x,1/2-y,-z
1/2+x,1/2-y,1/2+z
loop_
_atom_site_type_symbol
_atom_site_label
_atom_site_fract_x
_atom_site_fract_y
_atom_site_fract_z
Si Si1 0.267480 0.083202 0.691208
Si Si2 0.500000 0.392978 0.750000
Si Si3 0.529685 0.188239 0.093853
Si Si4 0.500000 0.337042 0.250000
Si Si5 0.638592 0.275979 0.565068
Si Si6 0.000000 0.462218 0.750000
Si Si7 0.880098 0.036019 0.430416
Si Si8 0.312289 0.731073 0.179742
O O1 0.325456 0.171635 0.664038
O O2 0.133212 0.112725 0.738659
O O3 0.375645 0.022518 0.752391
O O4 0.229035 0.031978 0.582146
O O5 0.594507 0.448589 0.692255
O O6 0.574225 0.332482 0.837804
O O7 0.484171 0.270755 0.153703
O O8 0.487744 0.103565 0.149983
O O9 0.682626 0.196497 0.117653
O O10 0.471234 0.209096 0.974250
O O11 0.750000 0.250000 0.500000
O O12 0.630282 0.371987 0.530941
O O13 0.683750 0.275326 0.691436
O O14 0.000000 0.000000 0.500000
#
# Coordination Sequence:
#
# PCOD9275381 Si02
#       8
#     8   4   8   4   8   4   8   8
#     4  11  21  37  59  90 122 157 203 259 315 367
#     4  10  22  42  62  88 130 168 206 262 322 380
#     4  10  20  39  61  84 115 161 209 245 299 383
#     4   9  19  36  61  83 116 166 208 247 307 376
#     4  11  21  37  61  87 116 157 208 251 302 382
#     4  11  21  36  59  87 122 154 194 259 321 364
#     4  11  23  39  63  94 121 161 215 267 314 366
#     4  10  22  40  62  87 121 169 205 250 321 380
#
# _framework density 24.416712
#
# number of rings (size 3 to 8) (size 9 to 14) (size 15 to 20)
#    0.000    1.538    0.000    8.308    0.000    1.231 
#    0.000    9.231    0.000    0.000    0.000    0.000 
#    0.000    0.000    0.000    0.000    0.000    0.000 
#
# Total GULP energy -144977.464298 kJ/mol
# GULP energy per Si atom -5576.056319 kJ/mol
# Density = 2.436114 g / cm^3
# Si number density = 24.416712 Si / 1000 Ang^3
#
#
#
# Elastic Constant Matrix: (Units=GPa)
#
#
# Indices 1 2 3 4 5 6 
#
# 1 106.0216 72.8615 20.5188 0.0000 20.9199 0.0000
# 2 72.8615 187.9489 7.9490 0.0000 7.5024 0.0000
# 3 20.5188 7.9490 31.9506 0.0000 17.1106 0.0000
# 4 0.0000 0.0000 0.0000 25.5323 0.0000 21.7000
# 5 20.9199 7.5024 17.1106 0.0000 39.2672 0.0000
# 6 0.0000 0.0000 0.0000 21.7000 0.0000 48.2675
#
#
#
# Elastic Compliance Matrix: (Units=1/GPa)
#
#
# Indices 1 2 3 4 5 6 
#
# 1 0.015241 -0.005476 -0.006049 0.000000 -0.004438 0.000000
# 2 -0.005476 0.007354 0.001144 0.000000 0.001014 0.000000
# 3 -0.006049 0.001144 0.043423 0.000000 -0.015917 0.000000
# 4 0.000000 0.000000 0.000000 0.063386 0.000000 -0.028497
# 5 -0.004438 0.001014 -0.015917 0.000000 0.034573 0.000000
# 6 0.000000 0.000000 0.000000 -0.028497 0.000000 0.033529
#
#
# Mechanical properties :
#
#
# Convention : Reuss Voigt Hill
#
# Bulk Modulus (GPa) = 22.09611 58.73108 40.41359
# Shear Modulus (GPa) = 21.42667 37.58617 29.50642
#
# Velocity S-wave (km/s) = 2.96555 3.92773 3.48005
# Velocity P-wave (km/s) = 4.56017 6.68395 5.72147
#
# Compressibility (1/GPa) = 0.04525684
#
# Stress axis : x y z
#
# Youngs Moduli (GPa) = 65.61046 135.97178 23.02946
#
# Poissons Ratio (x) = 0.74453 0.13931
# Poissons Ratio (y) = 0.35926 -0.02634
# Poissons Ratio (z) = 0.39689 -0.15555
#
# Static dielectric constant tensor:
#      x y z
#    x 1.846530 0.000000 0.089120 
#    y 0.000000 1.925090 0.000000 
#    z 0.089120 0.000000 1.984220 
# 
# From -- ./inp_files/144360.got.cif
#   From: 2010.05.17/outbox.cif.g08.bks.cpg/sg15_73_cif.got.tgz:144360.got - 2010.06.03 18:47:42.
