data_PCOD9275140
_publ_section_title
;
Structure prediction by ZEFSAII (Michael W. Deem and Ramdas Pophale) SiO2 
 PCOD9275140
Probable space group: C 2/C
;
_chemical_formula_sum "Si O2"
_cell_formula_units_Z 48
_cell_length_a 14.281626
_cell_length_b 12.082216
_cell_length_c 13.099187
_cell_angle_alpha 90.000000
_cell_angle_beta 91.195235
_cell_angle_gamma 90.000000
_cell_volume 2259.821260
_symmetry_space_group_name_H-M "C 2/C"
_symmetry_group_IT_number 15
_symmetry_cell_setting 'monoclinic'
loop_
_space_group_symop_operation_xyz
x,y,z
-x,y,1/2-z
-x,-y,-z
x,-y,1/2+z
1/2+x,1/2+y,z
1/2-x,1/2+y,1/2-z
1/2-x,1/2-y,-z
1/2+x,1/2-y,1/2+z
loop_
_atom_site_type_symbol
_atom_site_label
_atom_site_fract_x
_atom_site_fract_y
_atom_site_fract_z
Si Si1 0.570999 0.843442 0.978878
Si Si2 0.398550 0.352589 0.271970
Si Si3 0.456023 0.622720 0.996254
Si Si4 0.791380 0.349855 0.701383
Si Si5 0.398252 0.601168 0.210843
Si Si6 0.069204 0.491640 0.659302
O O1 0.661256 0.860023 0.908308
O O2 0.486191 0.904399 0.914912
O O3 0.536018 0.717582 0.992873
O O4 0.588753 0.905299 0.085969
O O5 0.500000 0.297618 0.250000
O O6 0.396748 0.371758 0.391864
O O7 0.317716 0.273022 0.236185
O O8 0.398525 0.467654 0.212686
O O9 0.392048 0.640536 0.094427
O O10 0.500000 0.500000 0.000000
O O11 0.682020 0.365387 0.713186
O O12 0.843426 0.432862 0.782542
O O13 0.500000 0.638143 0.250000
O O14 0.000000 0.523761 0.750000
#
# Coordination Sequence:
#
# PCOD9275140 Si02
#       6
#     8   8   8   8   8   8
#     4  10  20  38  69  98 131 172 217 270 338 390
#     4  11  20  44  71  90 128 181 218 260 333 405
#     4  12  21  41  72  91 131 182 216 262 334 398
#     4  11  21  43  69  95 128 177 229 263 328 408
#     4  11  26  43  62  99 134 170 222 282 325 384
#     4   9  19  39  64 100 137 167 211 277 334 392
#
# _framework density 21.240618999999999
#
# number of rings (size 3 to 8) (size 9 to 14) (size 15 to 20)
#    0.000    1.333    6.667    0.500    0.000    2.667 
#   12.000    0.833    0.000    0.000    0.000    0.000 
#    0.000    0.000    0.000    0.000    0.000    0.000 
#
# Total GULP energy -134134.394786 kJ/mol
# GULP energy per Si atom -5588.933116 kJ/mol
# Density = 2.119227 g / cm^3
# Si number density = 21.240619 Si / 1000 Ang^3
#
#
#
# Elastic Constant Matrix: (Units=GPa)
#
#
# Indices 1 2 3 4 5 6 
#
# 1 90.1004 30.5868 28.8778 0.0000 -28.8407 0.0000
# 2 30.5868 83.7295 47.9138 0.0000 -15.0534 0.0000
# 3 28.8778 47.9138 141.3994 0.0000 -2.6884 0.0000
# 4 0.0000 0.0000 0.0000 34.5186 0.0000 2.7259
# 5 -28.8407 -15.0534 -2.6884 0.0000 25.7121 0.0000
# 6 0.0000 0.0000 0.0000 2.7259 0.0000 17.4232
#
#
#
# Elastic Compliance Matrix: (Units=1/GPa)
#
#
# Indices 1 2 3 4 5 6 
#
# 1 0.019027 -0.001660 -0.002942 0.000000 0.020063 0.000000
# 2 -0.001660 0.016895 -0.005244 0.000000 0.007481 0.000000
# 3 -0.002942 -0.005244 0.009347 0.000000 -0.005393 0.000000
# 4 0.000000 0.000000 0.000000 0.029332 0.000000 -0.004589
# 5 0.020063 0.007481 -0.005393 0.000000 0.065212 0.000000
# 6 0.000000 0.000000 0.000000 -0.004589 0.000000 0.058113
#
#
# Mechanical properties :
#
#
# Convention : Reuss Voigt Hill
#
# Bulk Modulus (GPa) = 39.09575 58.88733 48.99154
# Shear Modulus (GPa) = 22.10967 29.38750 25.74858
#
# Velocity S-wave (km/s) = 3.22982 3.72365 3.48549
# Velocity P-wave (km/s) = 5.68815 6.80232 6.27003
#
# Compressibility (1/GPa) = 0.02557822
#
# Stress axis : x y z
#
# Youngs Moduli (GPa) = 52.55612 59.18757 106.98239
#
# Poissons Ratio (x) = 0.09827 0.31473
# Poissons Ratio (y) = 0.08726 0.56099
# Poissons Ratio (z) = 0.15461 0.31037
#
# Static dielectric constant tensor:
#      x y z
#    x 1.967880 0.000000 -0.036990 
#    y 0.000000 1.776180 0.000000 
#    z -0.036990 0.000000 1.803670 
# 
# From -- ./inp_files/151872.got.cif
#   From: 2010.05.17/outbox.cif.g08.bks.cpg/sg15_76_cif.got.tgz:151872.got - 2010.06.03 18:47:42.
