data_PCOD9275977
_publ_section_title
;
Structure prediction by ZEFSAII (Michael W. Deem and Ramdas Pophale) SiO2 
 PCOD9275977
Probable space group: C 2/C
;
_chemical_formula_sum "Si O2"
_cell_formula_units_Z 48
_cell_length_a 20.735917
_cell_length_b 7.247926
_cell_length_c 20.361662
_cell_angle_alpha 90.000000
_cell_angle_beta 52.389019
_cell_angle_gamma 90.000000
_cell_volume 2424.209157
_symmetry_space_group_name_H-M "C 2/C"
_symmetry_group_IT_number 15
_symmetry_cell_setting 'monoclinic'
loop_
_space_group_symop_operation_xyz
x,y,z
-x,y,1/2-z
-x,-y,-z
x,-y,1/2+z
1/2+x,1/2+y,z
1/2-x,1/2+y,1/2-z
1/2-x,1/2-y,-z
1/2+x,1/2-y,1/2+z
loop_
_atom_site_type_symbol
_atom_site_label
_atom_site_fract_x
_atom_site_fract_y
_atom_site_fract_z
Si Si1 0.837127 0.784954 0.478935
Si Si2 0.145612 0.953493 0.298608
Si Si3 0.096879 0.380877 0.903913
Si Si4 0.024834 0.062544 0.158868
Si Si5 0.210793 0.265227 0.347226
Si Si6 0.956910 0.447255 0.418894
O O1 0.750000 0.750000 0.500000
O O2 0.816856 0.827289 0.567764
O O3 0.885801 0.590994 0.447368
O O4 0.896808 0.939358 0.410552
O O5 0.139815 0.808700 0.361282
O O6 0.197702 0.844640 0.211365
O O7 0.055326 0.006178 0.332603
O O8 0.192729 0.130272 0.297709
O O9 0.155476 0.554450 0.873411
O O10 0.037149 0.428873 0.880350
O O11 0.053280 0.363080 0.001319
O O12 0.000000 0.037248 0.250000
O O13 0.039506 0.278262 0.133201
#
# Coordination Sequence:
#
# PCOD9275977 Si02
#       6
#     8   8   8   8   8   8
#     4  11  25  46  64  93 132 177 212 257 323 388
#     4  12  22  40  65  97 130 165 212 268 317 376
#     4  10  20  39  66  94 124 159 212 263 317 377
#     4  12  26  43  65  95 129 171 218 265 319 379
#     4  11  23  39  66  99 131 165 211 264 320 377
#     4  10  22  41  66  94 124 162 213 267 317 374
#
# _framework density 19.800272
#
# number of rings (size 3 to 8) (size 9 to 14) (size 15 to 20)
#    0.000    1.000    5.000    2.000    0.000    2.667 
#    6.000    0.000    0.000    0.000    0.000    0.000 
#    0.000    0.000    0.000    0.000    0.000    0.000 
#
# Total GULP energy -133935.698246 kJ/mol
# GULP energy per Si atom -5580.654094 kJ/mol
# Density = 1.975521 g / cm^3
# Si number density = 19.800272 Si / 1000 Ang^3
#
#
#
# Elastic Constant Matrix: (Units=GPa)
#
#
# Indices 1 2 3 4 5 6 
#
# 1 97.5288 21.0031 12.6372 0.0001 -16.8974 0.0003
# 2 21.0031 74.8634 22.2005 0.0002 -0.8412 0.0002
# 3 12.6372 22.2005 80.5375 0.0001 -2.8134 -0.0003
# 4 0.0001 0.0002 0.0001 37.4350 0.0000 -2.5773
# 5 -16.8974 -0.8412 -2.8134 0.0000 30.5001 0.0001
# 6 0.0003 0.0002 -0.0003 -2.5773 0.0001 19.3412
#
#
#
# Elastic Compliance Matrix: (Units=1/GPa)
#
#
# Indices 1 2 3 4 5 6 
#
# 1 0.012167 -0.003094 -0.000826 0.000000 0.006579 0.000000
# 2 -0.003094 0.015334 -0.003799 0.000000 -0.001642 0.000000
# 3 -0.000826 -0.003799 0.013618 0.000000 0.000694 0.000000
# 4 0.000000 0.000000 0.000000 0.026960 0.000000 0.003593
# 5 0.006579 -0.001642 0.000694 0.000000 0.036450 0.000000
# 6 0.000000 0.000000 0.000000 0.003593 0.000000 0.052182
#
#
# Mechanical properties :
#
#
# Convention : Reuss Voigt Hill
#
# Bulk Modulus (GPa) = 38.94176 40.51238 39.72707
# Shear Modulus (GPa) = 27.66879 30.59451 29.13165
#
# Velocity S-wave (km/s) = 3.74223 3.93511 3.83988
# Velocity P-wave (km/s) = 6.19535 6.41496 6.30611
#
# Compressibility (1/GPa) = 0.02567938
#
# Stress axis : x y z
#
# Youngs Moduli (GPa) = 82.19179 65.21520 73.43451
#
# Poissons Ratio (x) = 0.20180 0.06068
# Poissons Ratio (y) = 0.25434 0.27895
# Poissons Ratio (z) = 0.06791 0.24773
#
# Static dielectric constant tensor:
#      x y z
#    x 1.715400 0.000000 -0.013970 
#    y 0.000000 1.670750 0.000000 
#    z -0.013970 0.000000 1.749240 
# 
# From -- ./inp_files/254243.got.cif
#   From: 2010.05.17/outbox.cif.g08.bks.cpg/sg15_128_cif.got.tgz:254243.got - 2010.06.03 18:47:42.
