data_PCOD9275956
_publ_section_title
;
Structure prediction by ZEFSAII (Michael W. Deem and Ramdas Pophale) SiO2 
 PCOD9275956
Probable space group: C 2/C
;
_chemical_formula_sum "Si O2"
_cell_formula_units_Z 64
_cell_length_a 16.686186
_cell_length_b 32.614114
_cell_length_c 8.409348
_cell_angle_alpha 90.000000
_cell_angle_beta 45.251168
_cell_angle_gamma 90.000000
_cell_volume 3250.165615
_symmetry_space_group_name_H-M "C 2/C"
_symmetry_group_IT_number 15
_symmetry_cell_setting 'monoclinic'
loop_
_space_group_symop_operation_xyz
x,y,z
-x,y,1/2-z
-x,-y,-z
x,-y,1/2+z
1/2+x,1/2+y,z
1/2-x,1/2+y,1/2-z
1/2-x,1/2-y,-z
1/2+x,1/2-y,1/2+z
loop_
_atom_site_type_symbol
_atom_site_label
_atom_site_fract_x
_atom_site_fract_y
_atom_site_fract_z
Si Si1 0.625195 0.444290 0.641371
Si Si2 0.540572 0.187250 0.871469
Si Si3 0.376680 0.473394 0.491009
Si Si4 0.206576 0.685868 0.138861
Si Si5 0.988340 0.546383 0.074421
Si Si6 0.679927 0.893901 0.245495
Si Si7 0.769022 0.405582 0.951875
Si Si8 0.623246 0.752640 0.494392
O O1 0.500000 0.434457 0.750000
O O2 0.622350 0.459907 0.827324
O O3 0.678021 0.481916 0.462517
O O4 0.708503 0.406039 0.505863
O O5 0.500000 0.190703 0.750000
O O6 0.626092 0.149831 0.780381
O O7 0.423319 0.179990 0.128049
O O8 0.594656 0.228720 0.863682
O O9 0.328288 0.437689 0.448393
O O10 0.500000 0.480928 0.250000
O O11 0.255580 0.640296 0.069935
O O12 0.187976 0.710913 0.000358
O O13 0.291082 0.714673 0.120477
O O14 0.873085 0.572199 0.216030
O O15 0.000000 0.545725 0.250000
O O16 0.000000 0.500000 0.000000
O O17 0.083481 0.572386 0.852519
O O18 0.705445 0.898868 0.397737
O O19 0.500000 0.744237 0.750000
#
# Coordination Sequence:
#
# PCOD9275956 Si02
#       8
#     8   8   8   8   8   8   8   8
#     4  11  23  41  62  86 125 167 219 263 316 376
#     4  11  23  38  64  94 129 166 200 254 323 378
#     4  11  23  40  63  89 120 170 215 266 318 371
#     4  10  20  39  66  91 123 163 211 256 312 379
#     4  10  22  35  54  85 123 166 207 257 304 365
#     4  11  22  38  60  88 126 167 208 261 317 370
#     4  11  21  37  61  89 123 165 212 263 310 375
#     4   9  20  40  67  95 120 159 210 257 308 389
#
# _framework density 19.691305
#
# number of rings (size 3 to 8) (size 9 to 14) (size 15 to 20)
#    0.000    1.500    2.500    3.750    1.750    4.500 
#    0.000    0.000    0.000    0.000    0.000    0.000 
#    0.000    0.000    0.000    0.000    0.000    0.000 
#
# Total GULP energy -178501.678282 kJ/mol
# GULP energy per Si atom -5578.177446 kJ/mol
# Density = 1.964649 g / cm^3
# Si number density = 19.691305 Si / 1000 Ang^3
#
#
#
# Elastic Constant Matrix: (Units=GPa)
#
#
# Indices 1 2 3 4 5 6 
#
# 1 83.7257 38.9102 18.1549 0.0000 6.8362 0.0000
# 2 38.9102 125.9354 26.4752 0.0000 -10.8920 0.0000
# 3 18.1549 26.4752 57.2050 0.0000 -1.8098 0.0000
# 4 0.0000 0.0000 0.0000 20.8402 0.0000 -12.5968
# 5 6.8362 -10.8920 -1.8098 0.0000 27.5597 0.0000
# 6 0.0000 0.0000 0.0000 -12.5968 0.0000 46.3727
#
#
#
# Elastic Compliance Matrix: (Units=1/GPa)
#
#
# Indices 1 2 3 4 5 6 
#
# 1 0.015166 -0.004579 -0.002876 0.000000 -0.005761 0.000000
# 2 -0.004579 0.010473 -0.003234 0.000000 0.005063 0.000000
# 3 -0.002876 -0.003234 0.019914 0.000000 0.000743 0.000000
# 4 0.000000 0.000000 0.000000 0.057411 0.000000 0.015595
# 5 -0.005761 0.005063 0.000743 0.000000 0.039763 0.000000
# 6 0.000000 0.000000 0.000000 0.015595 0.000000 0.025801
#
#
# Mechanical properties :
#
#
# Convention : Reuss Voigt Hill
#
# Bulk Modulus (GPa) = 41.36526 48.21631 44.79078
# Shear Modulus (GPa) = 25.25711 31.17623 28.21667
#
# Velocity S-wave (km/s) = 3.58530 3.98332 3.78954
# Velocity P-wave (km/s) = 6.17994 6.75981 6.47637
#
# Compressibility (1/GPa) = 0.02417488
#
# Stress axis : x y z
#
# Youngs Moduli (GPa) = 65.93714 95.48241 50.21653
#
# Poissons Ratio (x) = 0.43726 0.14442
# Poissons Ratio (y) = 0.30195 0.16238
# Poissons Ratio (z) = 0.18963 0.30875
#
# Static dielectric constant tensor:
#      x y z
#    x 1.733800 0.000000 -0.026550 
#    y 0.000000 1.680400 0.000000 
#    z -0.026550 0.000000 1.692000 
# 
# From -- ./inp_files/52790.got.cif
#   From: 2010.05.17/outbox.cif.g08.bks.cpg/sg15_27_cif.got.tgz:52790.got - 2010.06.03 18:47:42.
