data_PCOD9275475
_publ_section_title
;
Structure prediction by ZEFSAII (Michael W. Deem and Ramdas Pophale) SiO2 
 PCOD9275475
Probable space group: C 2/C
;
_chemical_formula_sum "Si O2"
_cell_formula_units_Z 52
_cell_length_a 9.761063
_cell_length_b 29.406382
_cell_length_c 9.053669
_cell_angle_alpha 90.000000
_cell_angle_beta 89.343010
_cell_angle_gamma 90.000000
_cell_volume 2598.572099
_symmetry_space_group_name_H-M "C 2/C"
_symmetry_group_IT_number 15
_symmetry_cell_setting 'monoclinic'
loop_
_space_group_symop_operation_xyz
x,y,z
-x,y,1/2-z
-x,-y,-z
x,-y,1/2+z
1/2+x,1/2+y,z
1/2-x,1/2+y,1/2-z
1/2-x,1/2-y,-z
1/2+x,1/2-y,1/2+z
loop_
_atom_site_type_symbol
_atom_site_label
_atom_site_fract_x
_atom_site_fract_y
_atom_site_fract_z
Si Si1 0.223360 0.835562 0.440742
Si Si2 0.692149 0.090550 0.769017
Si Si3 0.090413 0.858442 0.052854
Si Si4 0.500000 0.107809 0.250000
Si Si5 0.450546 0.949112 0.472151
Si Si6 0.655678 0.734771 0.721317
Si Si7 0.745966 0.831965 0.709704
O O1 0.324130 0.864656 0.335407
O O2 0.215220 0.785583 0.371906
O O3 0.250762 0.834734 0.613249
O O4 0.072001 0.857937 0.423452
O O5 0.826871 0.101928 0.863657
O O6 0.678056 0.052757 0.639484
O O7 0.573272 0.077175 0.884745
O O8 0.143785 0.810239 0.120430
O O9 0.131691 0.855366 0.881133
O O10 0.571155 0.076171 0.372258
O O11 0.390440 0.140381 0.330615
O O12 0.500000 0.000000 0.500000
O O13 0.500000 0.750558 0.750000
O O14 0.737236 0.778725 0.669444
#
# Coordination Sequence:
#
# PCOD9275475 Si02
#       7
#     8   8   8   4   8   8   8
#     4  10  21  37  59  83 119 166 209 238 294 358
#     4  10  20  39  62  87 117 150 190 234 297 364
#     4  10  21  37  59  83 119 166 209 238 294 358
#     4  12  22  36  60  94 116 154 194 252 310 354
#     4  11  23  41  65  95 117 147 191 245 317 373
#     4   9  19  34  53  81 117 164 204 258 298 336
#     4  12  20  35  56  84 125 153 212 255 295 350
#
# _framework density 20.010991000000001
#
# number of rings (size 3 to 8) (size 9 to 14) (size 15 to 20)
#    0.000    1.538    3.846    3.692    0.000    0.000 
#    0.000    0.000   13.538    3.692    0.000    0.000 
#    0.000    0.000    0.000    0.000    0.000    0.000 
#
# Total GULP energy -144849.367955 kJ/mol
# GULP energy per Si atom -5571.129537 kJ/mol
# Density = 1.996544 g / cm^3
# Si number density = 20.010991 Si / 1000 Ang^3
#
#
#
# Elastic Constant Matrix: (Units=GPa)
#
#
# Indices 1 2 3 4 5 6 
#
# 1 48.9704 36.2122 5.2478 0.0000 -2.8107 0.0000
# 2 36.2122 85.5836 22.4162 0.0000 5.5544 0.0000
# 3 5.2478 22.4162 85.0073 0.0000 0.1742 0.0000
# 4 0.0000 0.0000 0.0000 20.0983 0.0000 -1.9347
# 5 -2.8107 5.5544 0.1742 0.0000 36.5140 0.0000
# 6 0.0000 0.0000 0.0000 -1.9347 0.0000 14.7693
#
#
#
# Elastic Compliance Matrix: (Units=1/GPa)
#
#
# Indices 1 2 3 4 5 6 
#
# 1 0.030614 -0.013689 0.001711 0.000000 0.004431 0.000000
# 2 -0.013689 0.018805 -0.004106 0.000000 -0.003895 0.000000
# 3 0.001711 -0.004106 0.012739 0.000000 0.000695 0.000000
# 4 0.000000 0.000000 0.000000 0.050391 0.000000 0.006601
# 5 0.004431 -0.003895 0.000695 0.000000 0.028317 0.000000
# 6 0.000000 0.000000 0.000000 0.006601 0.000000 0.068573
#
#
# Mechanical properties :
#
#
# Convention : Reuss Voigt Hill
#
# Bulk Modulus (GPa) = 33.34426 38.59041 35.96733
# Shear Modulus (GPa) = 19.87252 24.65534 22.26393
#
# Velocity S-wave (km/s) = 3.15474 3.51392 3.33916
# Velocity P-wave (km/s) = 5.47439 5.98247 5.73406
#
# Compressibility (1/GPa) = 0.02999017
#
# Stress axis : x y z
#
# Youngs Moduli (GPa) = 32.66461 53.17794 78.49708
#
# Poissons Ratio (x) = 0.72796 -0.13429
# Poissons Ratio (y) = 0.44715 0.32229
# Poissons Ratio (z) = -0.05588 0.21833
#
# Static dielectric constant tensor:
#      x y z
#    x 1.736660 0.000000 0.035890 
#    y 0.000000 1.700370 0.000000 
#    z 0.035890 0.000000 1.767860 
# 
# From -- ./inp_files/33582.got.cif
#   From: 2010.05.17/outbox.cif.g08.bks.cpg/sg15_17_cif.got.tgz:33582.got - 2010.06.03 18:47:42.
