data_PCOD9275139
_publ_section_title
;
Structure prediction by ZEFSAII (Michael W. Deem and Ramdas Pophale) SiO2 
 PCOD9275139
Probable space group: C 2/C
;
_chemical_formula_sum "Si O2"
_cell_formula_units_Z 56
_cell_length_a 12.529917
_cell_length_b 14.767774
_cell_length_c 17.201970
_cell_angle_alpha 90.000000
_cell_angle_beta 123.364481
_cell_angle_gamma 90.000000
_cell_volume 2658.435709
_symmetry_space_group_name_H-M "C 2/C"
_symmetry_group_IT_number 15
_symmetry_cell_setting 'monoclinic'
loop_
_space_group_symop_operation_xyz
x,y,z
-x,y,1/2-z
-x,-y,-z
x,-y,1/2+z
1/2+x,1/2+y,z
1/2-x,1/2+y,1/2-z
1/2-x,1/2-y,-z
1/2+x,1/2-y,1/2+z
loop_
_atom_site_type_symbol
_atom_site_label
_atom_site_fract_x
_atom_site_fract_y
_atom_site_fract_z
Si Si1 0.261723 0.854091 0.983222
Si Si2 0.728775 0.533799 0.756141
Si Si3 0.891234 0.348437 0.639284
Si Si4 0.965024 0.005633 0.077990
Si Si5 0.643300 0.956126 0.336765
Si Si6 0.868832 0.851753 0.147233
Si Si7 0.564861 0.922773 0.579748
O O1 0.334792 0.867118 0.931634
O O2 0.130489 0.911809 0.939324
O O3 0.250000 0.750000 0.000000
O O4 0.351056 0.901111 0.082686
O O5 0.594333 0.487347 0.681623
O O6 0.765429 0.586091 0.692055
O O7 0.721456 0.593876 0.830223
O O8 0.846289 0.467276 0.818430
O O9 0.815001 0.440290 0.628537
O O10 0.826187 0.250487 0.613891
O O11 0.000000 0.344246 0.750000
O O12 0.958495 0.366117 0.583144
O O13 0.898855 0.913399 0.084324
O O14 0.000000 0.000000 0.000000
O O15 0.500000 0.956019 0.250000
O O16 0.000000 0.846707 0.250000
O O17 0.500000 0.000000 0.500000
#
# Coordination Sequence:
#
# PCOD9275139 Si02
#       7
#     8   8   8   8   8   8   8
#     4  12  27  44  66  98 136 177 229 279 336 412
#     4  11  21  42  70  94 135 176 219 275 339 401
#     4  10  20  38  69  98 129 168 223 269 335 395
#     4  11  23  42  67  91 136 180 217 275 343 390
#     4  11  21  44  67  96 136 180 215 282 343 402
#     4   9  21  38  64 101 130 167 223 270 327 401
#     4  12  23  42  70  95 133 179 219 277 337 394
#
# _framework density 21.065018999999999
#
# number of rings (size 3 to 8) (size 9 to 14) (size 15 to 20)
#    0.000    1.143    7.143    0.000    2.000    1.143 
#    2.571    4.286    0.000    0.000    0.000    0.000 
#    0.000    0.000    0.000    0.000    0.000    0.000 
#
# Total GULP energy -156325.530922 kJ/mol
# GULP energy per Si atom -5583.054676 kJ/mol
# Density = 2.101707 g / cm^3
# Si number density = 21.065019 Si / 1000 Ang^3
#
#
#
# Elastic Constant Matrix: (Units=GPa)
#
#
# Indices 1 2 3 4 5 6 
#
# 1 113.4992 32.2312 21.3606 0.0000 -32.8407 0.0000
# 2 32.2312 126.1160 27.3470 0.0000 -9.5695 0.0000
# 3 21.3606 27.3470 94.6933 0.0000 -3.6496 0.0000
# 4 0.0000 0.0000 0.0000 22.1768 0.0000 -1.7857
# 5 -32.8407 -9.5695 -3.6496 0.0000 50.9401 0.0000
# 6 0.0000 0.0000 0.0000 -1.7857 0.0000 20.2862
#
#
#
# Elastic Compliance Matrix: (Units=1/GPa)
#
#
# Indices 1 2 3 4 5 6 
#
# 1 0.011788 -0.002089 -0.001783 0.000000 0.007079 0.000000
# 2 -0.002089 0.008932 -0.002101 0.000000 0.000181 0.000000
# 3 -0.001783 -0.002101 0.011542 0.000000 -0.000717 0.000000
# 4 0.000000 0.000000 0.000000 0.045414 0.000000 0.003998
# 5 0.007079 0.000181 -0.000717 0.000000 0.024177 0.000000
# 6 0.000000 0.000000 0.000000 0.003998 0.000000 0.049646
#
#
# Mechanical properties :
#
#
# Convention : Reuss Voigt Hill
#
# Bulk Modulus (GPa) = 49.22333 55.13180 52.17757
# Shear Modulus (GPa) = 29.37404 35.57194 32.47299
#
# Velocity S-wave (km/s) = 3.73828 4.11381 3.93053
# Velocity P-wave (km/s) = 6.48468 6.98524 6.73961
#
# Compressibility (1/GPa) = 0.02031557
#
# Stress axis : x y z
#
# Youngs Moduli (GPa) = 84.83382 111.95145 86.64110
#
# Poissons Ratio (x) = 0.23384 0.15448
# Poissons Ratio (y) = 0.17720 0.18208
# Poissons Ratio (z) = 0.15126 0.23527
#
# Static dielectric constant tensor:
#      x y z
#    x 1.807060 0.000000 -0.001640 
#    y 0.000000 1.740680 0.000000 
#    z -0.001640 0.000000 1.797520 
# 
# From -- ./inp_files/198437.got.cif
#   From: 2010.05.17/outbox.cif.g08.bks.cpg/sg15_100_cif.got.tgz:198437.got - 2010.06.03 18:47:42.
