data_PCOD9275996
_publ_section_title
;
Structure prediction by ZEFSAII (Michael W. Deem and Ramdas Pophale) SiO2 
 PCOD9275996
Probable space group: C 2/C
;
_chemical_formula_sum "Si O2"
_cell_formula_units_Z 56
_cell_length_a 23.108426
_cell_length_b 11.630982
_cell_length_c 11.055228
_cell_angle_alpha 90.000000
_cell_angle_beta 129.115745
_cell_angle_gamma 90.000000
_cell_volume 2305.393842
_symmetry_space_group_name_H-M "C 2/C"
_symmetry_group_IT_number 15
_symmetry_cell_setting 'monoclinic'
loop_
_space_group_symop_operation_xyz
x,y,z
-x,y,1/2-z
-x,-y,-z
x,-y,1/2+z
1/2+x,1/2+y,z
1/2-x,1/2+y,1/2-z
1/2-x,1/2-y,-z
1/2+x,1/2-y,1/2+z
loop_
_atom_site_type_symbol
_atom_site_label
_atom_site_fract_x
_atom_site_fract_y
_atom_site_fract_z
Si Si1 0.928734 0.555223 0.837477
Si Si2 0.119303 0.762639 0.457729
Si Si3 0.400430 0.321326 0.354726
Si Si4 0.186768 0.400450 0.708671
Si Si5 0.332910 0.439224 0.780888
Si Si6 0.545152 0.679814 0.185330
Si Si7 0.750000 0.250000 0.500000
Si Si8 0.000000 0.402268 0.750000
O O1 0.857263 0.515848 0.817913
O O2 0.933420 0.687607 0.809489
O O3 0.937308 0.481096 0.726381
O O4 0.000000 0.500000 0.000000
O O5 0.111144 0.801194 0.304801
O O6 0.127498 0.866841 0.559484
O O7 0.198394 0.700733 0.546095
O O8 0.048839 0.684120 0.396039
O O9 0.373484 0.203521 0.383054
O O10 0.347536 0.426723 0.316986
O O11 0.483169 0.351919 0.502973
O O12 0.246075 0.409649 0.679554
O O13 0.229905 0.361581 0.887744
O O14 0.380644 0.396953 0.728273
O O15 0.500000 0.666838 0.250000
#
# Coordination Sequence:
#
# PCOD9275996 Si02
#       8
#     8   8   8   8   8   8   4   4
#     4  12  22  42  67 100 137 181 226 286 341 414
#     4  10  20  39  66  97 127 172 237 275 332 409
#     4  11  23  46  68 101 136 179 231 291 346 419
#     4  10  22  43  69 102 138 177 241 289 350 414
#     4  11  26  43  71 101 136 189 226 292 351 420
#     4  12  27  45  67 104 145 182 230 282 360 430
#     4   8  16  36  58  94 130 158 220 286 324 398
#     4  12  20  38  68  94 126 178 230 278 340 392
#
# _framework density 24.290859999999999
#
# number of rings (size 3 to 8) (size 9 to 14) (size 15 to 20)
#    0.000    1.143    5.000    2.143    4.000    0.000 
#    2.571    5.000    0.000    0.000    0.000    0.000 
#    0.000    0.000    0.000    0.000    0.000    0.000 
#
# Total GULP energy -155980.706595 kJ/mol
# GULP energy per Si atom -5570.739521 kJ/mol
# Density = 2.423557 g / cm^3
# Si number density = 24.290860 Si / 1000 Ang^3
#
#
#
# Elastic Constant Matrix: (Units=GPa)
#
#
# Indices 1 2 3 4 5 6 
#
# 1 179.4344 34.8861 2.6866 0.0000 4.9321 0.0000
# 2 34.8861 54.8553 8.4192 0.0000 2.2820 0.0000
# 3 2.6866 8.4192 22.6377 0.0000 -0.5336 0.0000
# 4 0.0000 0.0000 0.0000 1.5083 0.0000 13.6009
# 5 4.9321 2.2820 -0.5336 0.0000 31.7418 0.0000
# 6 0.0000 0.0000 0.0000 13.6009 0.0000 43.4305
#
#
#
# Elastic Compliance Matrix: (Units=1/GPa)
#
#
# Indices 1 2 3 4 5 6 
#
# 1 0.006388 -0.004152 0.000770 0.000000 -0.000681 0.000000
# 2 -0.004152 0.022105 -0.007754 0.000000 -0.001074 0.000000
# 3 0.000770 -0.007754 0.046995 0.000000 0.001228 0.000000
# 4 0.000000 0.000000 0.000000 -0.363508 0.000000 0.113838
# 5 -0.000681 -0.001074 0.001228 0.000000 0.031708 0.000000
# 6 0.000000 0.000000 0.000000 0.113838 0.000000 -0.012625
#
#
# Mechanical properties :
#
#
# Convention : Reuss Voigt Hill
#
# Bulk Modulus (GPa) = 18.79114 38.76791 28.77952
# Shear Modulus (GPa) = -21.84104 29.39850 3.77873
#
# Velocity S-wave (km/s) = -3.00183 3.48267 1.24860
# Velocity P-wave (km/s) = 2.06445 5.67155 3.73527
#
# Compressibility (1/GPa) = 0.05321656
#
# Stress axis : x y z
#
# Youngs Moduli (GPa) = 156.55529 45.23841 21.27870
#
# Poissons Ratio (x) = 0.18783 -0.01639
# Poissons Ratio (y) = 0.65003 0.16499
# Poissons Ratio (z) = -0.12056 0.35077
#
# Static dielectric constant tensor:
#      x y z
#    x 1.967000 0.000000 -0.281300 
#    y 0.000000 1.926250 0.000000 
#    z -0.281300 0.000000 1.742550 
# 
# From -- ./inp_files/117701.got.cif
#   From: 2010.05.17/outbox.cif.g08.bks.cpg/sg15_59_cif.got.tgz:117701.got - 2010.06.03 18:47:42.
