data_PCOD9275433
_publ_section_title
;
Structure prediction by ZEFSAII (Michael W. Deem and Ramdas Pophale) SiO2 
 PCOD9275433
Probable space group: C 2/C
;
_chemical_formula_sum "Si O2"
_cell_formula_units_Z 40
_cell_length_a 10.568664
_cell_length_b 12.861047
_cell_length_c 18.903682
_cell_angle_alpha 90.000000
_cell_angle_beta 51.994145
_cell_angle_gamma 90.000000
_cell_volume 2024.604912
_symmetry_space_group_name_H-M "C 2/C"
_symmetry_group_IT_number 15
_symmetry_cell_setting 'monoclinic'
loop_
_space_group_symop_operation_xyz
x,y,z
-x,y,1/2-z
-x,-y,-z
x,-y,1/2+z
1/2+x,1/2+y,z
1/2-x,1/2+y,1/2-z
1/2-x,1/2-y,-z
1/2+x,1/2-y,1/2+z
loop_
_atom_site_type_symbol
_atom_site_label
_atom_site_fract_x
_atom_site_fract_y
_atom_site_fract_z
Si Si1 0.192347 0.153122 0.194083
Si Si2 0.185793 0.524056 0.676045
Si Si3 0.339556 0.305367 0.033805
Si Si4 0.185499 0.924880 0.209757
Si Si5 0.699802 0.302360 0.856732
O O1 0.300729 0.230421 0.112544
O O2 0.209392 0.178014 0.269964
O O3 0.000000 0.164460 0.250000
O O4 0.243850 0.035300 0.159081
O O5 0.262897 0.586359 0.584622
O O6 0.277828 0.558436 0.717997
O O7 0.195474 0.401111 0.654052
O O8 0.000000 0.554037 0.750000
O O9 0.250000 0.250000 0.000000
O O10 0.523763 0.317781 0.949505
O O11 0.257003 0.819246 0.152866
O O12 0.000000 0.920569 0.250000
#
# Coordination Sequence:
#
# PCOD9275433 Si02
#       5
#     8   8   8   8   8
#     4  10  20  39  61  91 127 172 214 258 314 376
#     4  11  23  42  67  94 129 169 216 261 321 380
#     4  12  22  37  68  98 128 165 224 260 311 384
#     4  10  22  41  67  88 130 173 209 261 326 378
#     4  11  22  39  63  93 130 169 210 267 317 375
#
# _framework density 19.75694
#
# number of rings (size 3 to 8) (size 9 to 14) (size 15 to 20)
#    0.000    1.200    4.000    3.000    0.000    0.800 
#    0.000    1.000    0.000    0.000    0.000    0.000 
#    0.000    0.000    0.000    0.000    0.000    0.000 
#
# Total GULP energy -111452.676073 kJ/mol
# GULP energy per Si atom -5572.633804 kJ/mol
# Density = 1.971197 g / cm^3
# Si number density = 19.756940 Si / 1000 Ang^3
#
#
#
# Elastic Constant Matrix: (Units=GPa)
#
#
# Indices 1 2 3 4 5 6 
#
# 1 53.9017 -3.8373 12.6866 0.0000 -7.4802 0.0000
# 2 -3.8373 134.4962 40.5777 0.0000 -6.1326 0.0000
# 3 12.6866 40.5777 113.5968 0.0000 -6.8676 0.0000
# 4 0.0000 0.0000 0.0000 50.4245 0.0000 -0.7182
# 5 -7.4802 -6.1326 -6.8676 0.0000 19.8771 0.0000
# 6 0.0000 0.0000 0.0000 -0.7182 0.0000 22.2372
#
#
#
# Elastic Compliance Matrix: (Units=1/GPa)
#
#
# Indices 1 2 3 4 5 6 
#
# 1 0.020247 0.001636 -0.002405 0.000000 0.007293 0.000000
# 2 0.001636 0.008514 -0.003092 0.000000 0.002174 0.000000
# 3 -0.002405 -0.003092 0.010279 0.000000 0.001692 0.000000
# 4 0.000000 0.000000 0.000000 0.019841 0.000000 0.000641
# 5 0.007293 0.002174 0.001692 0.000000 0.054309 0.000000
# 6 0.000000 0.000000 0.000000 0.000641 0.000000 0.044990
#
#
# Mechanical properties :
#
#
# Convention : Reuss Voigt Hill
#
# Bulk Modulus (GPa) = 31.93195 44.53874 38.23535
# Shear Modulus (GPa) = 28.35411 35.34561 31.84986
#
# Velocity S-wave (km/s) = 3.79244 4.23427 4.01943
# Velocity P-wave (km/s) = 5.94763 6.81892 6.39812
#
# Compressibility (1/GPa) = 0.03131660
#
# Stress axis : x y z
#
# Youngs Moduli (GPa) = 49.39052 117.45428 97.28976
#
# Poissons Ratio (x) = -0.19211 0.23393
# Poissons Ratio (y) = -0.08079 0.30087
# Poissons Ratio (z) = 0.11876 0.36323
#
# Static dielectric constant tensor:
#      x y z
#    x 1.732070 0.000000 0.010560 
#    y 0.000000 2.499010 0.000000 
#    z 0.010560 0.000000 1.646280 
# 
# From -- ./inp_files/141704.got.cif
#   From: 2010.05.17/outbox.cif.g08.bks.cpg/sg15_71_cif.got.tgz:141704.got - 2010.06.03 18:47:42.
