data_PCOD9275865
_publ_section_title
;
Structure prediction by ZEFSAII (Michael W. Deem and Ramdas Pophale) SiO2 
 PCOD9275865
Probable space group: C 2/C
;
_chemical_formula_sum "Si O2"
_cell_formula_units_Z 56
_cell_length_a 7.252588
_cell_length_b 31.718779
_cell_length_c 12.070735
_cell_angle_alpha 90.000000
_cell_angle_beta 122.672701
_cell_angle_gamma 90.000000
_cell_volume 2337.414000
_symmetry_space_group_name_H-M "C 2/C"
_symmetry_group_IT_number 15
_symmetry_cell_setting 'monoclinic'
loop_
_space_group_symop_operation_xyz
x,y,z
-x,y,1/2-z
-x,-y,-z
x,-y,1/2+z
1/2+x,1/2+y,z
1/2-x,1/2+y,1/2-z
1/2-x,1/2-y,-z
1/2+x,1/2-y,1/2+z
loop_
_atom_site_type_symbol
_atom_site_label
_atom_site_fract_x
_atom_site_fract_y
_atom_site_fract_z
Si Si1 0.097907 0.847488 0.896198
Si Si2 0.043347 0.720427 0.396764
Si Si3 0.240614 0.942104 0.951376
Si Si4 0.816979 0.481401 0.348868
Si Si5 0.957308 0.055577 0.568680
Si Si6 0.749277 0.206607 0.864304
Si Si7 0.644795 0.650416 0.966168
O O1 0.223469 0.891977 0.924997
O O2 0.232046 0.813128 0.007892
O O3 0.000000 0.833124 0.750000
O O4 0.892817 0.853272 0.913212
O O5 0.250000 0.750000 0.500000
O O6 0.128772 0.675616 0.472514
O O7 0.000000 0.717747 0.250000
O O8 0.839594 0.746623 0.377694
O O9 0.267870 0.968492 0.845583
O O10 0.454530 0.957254 0.089072
O O11 0.034294 0.949414 0.967522
O O12 0.747790 0.470451 0.453989
O O13 0.654558 0.461240 0.208509
O O14 0.891410 0.102930 0.582113
O O15 0.500000 0.202827 0.750000
O O16 0.930374 0.177501 0.858528
#
# Coordination Sequence:
#
# PCOD9275865 Si02
#       7
#     8   8   8   8   8   8   8
#     4   9  20  38  67  97 137 184 228 281 349 417
#     4  10  21  47  69  98 137 173 221 295 356 436
#     4  10  21  39  61  93 144 180 236 287 353 407
#     4  10  22  36  61 103 129 186 233 292 354 408
#     4  10  20  39  65  91 135 182 238 288 350 420
#     4   9  20  41  71 102 126 178 233 280 358 420
#     4   8  20  40  67  94 132 178 231 286 361 401
#
# _framework density 23.958100999999999
#
# number of rings (size 3 to 8) (size 9 to 14) (size 15 to 20)
#    0.857    1.714    0.000    0.857    4.000    0.000 
#   15.429    3.571    3.143    0.000    0.000    0.000 
#    0.000    0.000    0.000    0.000    0.000    0.000 
#
# Total GULP energy -155965.113646 kJ/mol
# GULP energy per Si atom -5570.182630 kJ/mol
# Density = 2.390357 g / cm^3
# Si number density = 23.958101 Si / 1000 Ang^3
#
#
#
# Elastic Constant Matrix: (Units=GPa)
#
#
# Indices 1 2 3 4 5 6 
#
# 1 78.1813 43.2682 35.8813 0.0000 4.7481 0.0000
# 2 43.2682 154.0610 62.6814 0.0000 5.9580 0.0000
# 3 35.8813 62.6814 144.6149 0.0000 11.2093 0.0000
# 4 0.0000 0.0000 0.0000 25.8213 0.0000 6.5950
# 5 4.7481 5.9580 11.2093 0.0000 19.2730 0.0000
# 6 0.0000 0.0000 0.0000 6.5950 0.0000 61.0599
#
#
#
# Elastic Compliance Matrix: (Units=1/GPa)
#
#
# Indices 1 2 3 4 5 6 
#
# 1 0.015857 -0.003451 -0.002323 0.000000 -0.001489 0.000000
# 2 -0.003451 0.008636 -0.002875 0.000000 -0.000147 0.000000
# 3 -0.002323 -0.002875 0.009032 0.000000 -0.003792 0.000000
# 4 0.000000 0.000000 0.000000 0.039826 0.000000 -0.004302
# 5 -0.001489 -0.000147 -0.003792 0.000000 0.054503 0.000000
# 6 0.000000 0.000000 0.000000 -0.004302 0.000000 0.016842
#
#
# Mechanical properties :
#
#
# Convention : Reuss Voigt Hill
#
# Bulk Modulus (GPa) = 61.63151 73.39098 67.51124
# Shear Modulus (GPa) = 29.86792 36.89926 33.38359
#
# Velocity S-wave (km/s) = 3.53466 3.92874 3.73690
# Velocity P-wave (km/s) = 6.51452 7.16098 6.84538
#
# Compressibility (1/GPa) = 0.01622547
#
# Stress axis : x y z
#
# Youngs Moduli (GPa) = 63.06275 115.79906 110.72230
#
# Poissons Ratio (x) = 0.39958 0.25725
# Poissons Ratio (y) = 0.21761 0.31838
# Poissons Ratio (z) = 0.14652 0.33297
#
# Static dielectric constant tensor:
#      x y z
#    x 1.979290 0.000000 -0.016720 
#    y 0.000000 2.020110 0.000000 
#    z -0.016720 0.000000 1.890920 
# 
# From -- ./inp_files/139577.got.cif
#   From: 2010.05.17/outbox.cif.g08.bks.cpg/sg15_70_cif.got.tgz:139577.got - 2010.06.03 18:47:42.
