data_PCOD9275052
_publ_section_title
;
Structure prediction by ZEFSAII (Michael W. Deem and Ramdas Pophale) SiO2 
 PCOD9275052
Probable space group: C 2/C
;
_chemical_formula_sum "Si O2"
_cell_formula_units_Z 64
_cell_length_a 24.206715
_cell_length_b 8.116771
_cell_length_c 14.885153
_cell_angle_alpha 90.000000
_cell_angle_beta 65.853620
_cell_angle_gamma 90.000000
_cell_volume 2668.744005
_symmetry_space_group_name_H-M "C 2/C"
_symmetry_group_IT_number 15
_symmetry_cell_setting 'monoclinic'
loop_
_space_group_symop_operation_xyz
x,y,z
-x,y,1/2-z
-x,-y,-z
x,-y,1/2+z
1/2+x,1/2+y,z
1/2-x,1/2+y,1/2-z
1/2-x,1/2-y,-z
1/2+x,1/2-y,1/2+z
loop_
_atom_site_type_symbol
_atom_site_label
_atom_site_fract_x
_atom_site_fract_y
_atom_site_fract_z
Si Si1 0.194307 0.527146 0.018793
Si Si2 0.255599 0.248766 0.352622
Si Si3 0.035718 0.478818 0.810332
Si Si4 0.567546 0.150169 0.022121
Si Si5 0.368217 0.348815 0.656025
Si Si6 0.438332 0.556010 0.843216
Si Si7 0.379105 0.306829 0.206075
Si Si8 0.123394 0.740878 0.653602
O O1 0.217453 0.628777 0.089356
O O2 0.130106 0.594884 0.025999
O O3 0.176555 0.347616 0.064316
O O4 0.240313 0.575740 0.909344
O O5 0.193262 0.173265 0.358449
O O6 0.308024 0.271470 0.245239
O O7 0.083091 0.359131 0.828517
O O8 0.072185 0.616466 0.729155
O O9 0.000000 0.391434 0.750000
O O10 0.981131 0.488526 0.918716
O O11 0.550263 0.322917 0.082011
O O12 0.584632 0.210610 0.910863
O O13 0.394327 0.533931 0.636438
O O14 0.352627 0.317312 0.769809
O O15 0.500000 0.516433 0.750000
O O16 0.394615 0.642980 0.799055
O O17 0.407394 0.382156 0.885166
#
# Coordination Sequence:
#
# PCOD9275052 Si02
#       8
#     8   8   8   8   8   8   8   8
#     4  10  20  38  68  88 114 161 216 250 298 370
#     4  10  20  39  65  84 119 164 210 249 299 360
#     4  12  19  37  70  87 117 162 206 247 304 367
#     4  11  20  42  63  89 118 168 206 242 307 378
#     4  10  27  38  57  92 130 157 201 257 309 357
#     4  11  20  37  62  89 120 154 206 253 296 363
#     4  11  20  39  61  89 119 164 204 241 312 372
#     4  11  23  39  58 100 122 152 202 262 308 354
#
# _framework density 23.981318999999999
#
# number of rings (size 3 to 8) (size 9 to 14) (size 15 to 20)
#    0.000    1.250    6.250    0.375    1.750    1.000 
#    0.000    6.250    0.000    0.000    0.000    0.000 
#    0.000    0.000    0.000    0.000    0.000    0.000 
#
# Total GULP energy -178676.096105 kJ/mol
# GULP energy per Si atom -5583.628003 kJ/mol
# Density = 2.392674 g / cm^3
# Si number density = 23.981319 Si / 1000 Ang^3
#
#
#
# Elastic Constant Matrix: (Units=GPa)
#
#
# Indices 1 2 3 4 5 6 
#
# 1 66.5304 3.4488 2.8651 0.0000 -21.3813 0.0000
# 2 3.4488 57.0296 -11.6561 0.0000 -0.4049 0.0000
# 3 2.8651 -11.6561 31.9102 0.0000 6.9553 0.0000
# 4 0.0000 0.0000 0.0000 16.9580 0.0000 -7.5356
# 5 -21.3813 -0.4049 6.9553 0.0000 25.7680 0.0000
# 6 0.0000 0.0000 0.0000 -7.5356 0.0000 32.5747
#
#
#
# Elastic Compliance Matrix: (Units=1/GPa)
#
#
# Indices 1 2 3 4 5 6 
#
# 1 0.021969 -0.002688 -0.007351 0.000000 0.020171 0.000000
# 2 -0.002688 0.019346 0.008211 0.000000 -0.004143 0.000000
# 3 -0.007351 0.008211 0.038568 0.000000 -0.016381 0.000000
# 4 0.000000 0.000000 0.000000 0.065726 0.000000 0.015204
# 5 0.020171 -0.004143 -0.016381 0.000000 0.059901 0.000000
# 6 0.000000 0.000000 0.000000 0.015204 0.000000 0.034216
#
#
# Mechanical properties :
#
#
# Convention : Reuss Voigt Hill
#
# Bulk Modulus (GPa) = 13.11865 16.08731 14.60298
# Shear Modulus (GPa) = 18.60188 25.78097 22.19142
#
# Velocity S-wave (km/s) = 2.78813 3.28234 3.04528
# Velocity P-wave (km/s) = 3.98084 4.59215 4.29738
#
# Compressibility (1/GPa) = 0.07622735
#
# Stress axis : x y z
#
# Youngs Moduli (GPa) = 45.51845 51.69010 25.92854
#
# Poissons Ratio (x) = 0.13893 0.19060
# Poissons Ratio (y) = 0.12234 -0.21290
# Poissons Ratio (z) = 0.33460 -0.42442
#
# Static dielectric constant tensor:
#      x y z
#    x 1.919050 0.000000 -0.014800 
#    y 0.000000 1.987870 0.000000 
#    z -0.014800 0.000000 1.950490 
# 
# From -- ./inp_files/176568.got.cif
#   From: 2010.05.17/outbox.cif.g08.bks.cpg/sg15_89_cif.got.tgz:176568.got - 2010.06.03 18:47:42.
