data_PCOD9275079
_publ_section_title
;
Structure prediction by ZEFSAII (Michael W. Deem and Ramdas Pophale) SiO2 
 PCOD9275079
Probable space group: C 2/C
;
_chemical_formula_sum "Si O2"
_cell_formula_units_Z 44
_cell_length_a 10.498459
_cell_length_b 26.612782
_cell_length_c 9.307659
_cell_angle_alpha 90.000000
_cell_angle_beta 63.094864
_cell_angle_gamma 90.000000
_cell_volume 2319.011003
_symmetry_space_group_name_H-M "C 2/C"
_symmetry_group_IT_number 15
_symmetry_cell_setting 'monoclinic'
loop_
_space_group_symop_operation_xyz
x,y,z
-x,y,1/2-z
-x,-y,-z
x,-y,1/2+z
1/2+x,1/2+y,z
1/2-x,1/2+y,1/2-z
1/2-x,1/2-y,-z
1/2+x,1/2-y,1/2+z
loop_
_atom_site_type_symbol
_atom_site_label
_atom_site_fract_x
_atom_site_fract_y
_atom_site_fract_z
Si Si1 0.059670 0.430099 0.473193
Si Si2 0.216953 0.663626 0.018645
Si Si3 0.487653 0.762896 0.507997
Si Si4 0.000000 0.801107 0.250000
Si Si5 0.193422 0.355892 0.871093
Si Si6 0.500000 0.993512 0.250000
Si Si7 0.500000 0.682661 0.250000
O O1 0.158364 0.383543 0.460066
O O2 0.090931 0.457229 0.307066
O O3 0.898681 0.406084 0.552202
O O4 0.072577 0.469954 0.596332
O O5 0.383118 0.669303 0.900018
O O6 0.128229 0.711111 0.003568
O O7 0.185292 0.654172 0.202880
O O8 0.418048 0.733354 0.676668
O O9 0.387244 0.808847 0.512732
O O10 0.515822 0.721537 0.373920
O O11 0.358110 0.351347 0.831458
#
# Coordination Sequence:
#
# PCOD9275079 Si02
#       7
#     8   8   8   4   8   4   4
#     4  10  21  39  66  89 108 140 181 242 282 339
#     4  11  21  37  58  82 115 151 194 232 276 327
#     4  11  21  36  56  80 110 160 203 230 253 319
#     4  12  20  33  58  77 114 157 194 217 268 334
#     4  11  21  38  55  83 119 150 188 235 281 322
#     4  10  20  38  68  94 102 132 190 234 292 342
#     4  12  24  33  52  85 124 153 186 231 280 316
#
# _framework density 18.973604000000002
#
# number of rings (size 3 to 8) (size 9 to 14) (size 15 to 20)
#    0.000    1.091    5.455    3.273    0.000    4.364 
#    0.000    0.000    0.000    6.545    0.000    0.000 
#    0.000    0.000    0.000    0.000    0.000    0.000 
#
# Total GULP energy -122720.233892 kJ/mol
# GULP energy per Si atom -5578.192450 kJ/mol
# Density = 1.893042 g / cm^3
# Si number density = 18.973604 Si / 1000 Ang^3
#
#
#
# Elastic Constant Matrix: (Units=GPa)
#
#
# Indices 1 2 3 4 5 6 
#
# 1 80.7944 31.8085 12.7684 0.0000 -10.4798 0.0000
# 2 31.8085 85.0655 26.8621 0.0000 5.9779 0.0000
# 3 12.7684 26.8621 58.6178 0.0000 10.0423 0.0000
# 4 0.0000 0.0000 0.0000 18.5156 0.0000 11.6181
# 5 -10.4798 5.9779 10.0423 0.0000 39.5111 0.0000
# 6 0.0000 0.0000 0.0000 11.6181 0.0000 12.9144
#
#
#
# Elastic Compliance Matrix: (Units=1/GPa)
#
#
# Indices 1 2 3 4 5 6 
#
# 1 0.015584 -0.005663 -0.001730 0.000000 0.005430 0.000000
# 2 -0.005663 0.015812 -0.005589 0.000000 -0.002474 0.000000
# 3 -0.001730 -0.005589 0.020839 0.000000 -0.004910 0.000000
# 4 0.000000 0.000000 0.000000 0.124014 0.000000 -0.111566
# 5 0.005430 -0.002474 -0.004910 0.000000 0.028372 0.000000
# 6 0.000000 0.000000 0.000000 -0.111566 0.000000 0.177801
#
#
# Mechanical properties :
#
#
# Convention : Reuss Voigt Hill
#
# Bulk Modulus (GPa) = 38.06305 40.81730 39.44018
# Shear Modulus (GPa) = 11.98636 24.39079 18.18857
#
# Velocity S-wave (km/s) = 2.51617 3.58929 3.09953
# Velocity P-wave (km/s) = 5.34285 6.22388 5.80012
#
# Compressibility (1/GPa) = 0.02627220
#
# Stress axis : x y z
#
# Youngs Moduli (GPa) = 64.16772 63.24431 47.98788
#
# Poissons Ratio (x) = 0.35813 0.08301
# Poissons Ratio (y) = 0.36336 0.26818
# Poissons Ratio (z) = 0.11100 0.35344
#
# Static dielectric constant tensor:
#      x y z
#    x 1.690110 0.000000 0.019190 
#    y 0.000000 1.663360 0.000000 
#    z 0.019190 0.000000 1.691920 
# 
# From -- ./inp_files/32786.got.cif
#   From: 2010.05.17/outbox.cif.g08.bks.cpg/sg15_17_cif.got.tgz:32786.got - 2010.06.03 18:47:42.
