data_PCOD9275633
_publ_section_title
;
Structure prediction by ZEFSAII (Michael W. Deem and Ramdas Pophale) SiO2 
 PCOD9275633
Probable space group: C 2/C
;
_chemical_formula_sum "Si O2"
_cell_formula_units_Z 48
_cell_length_a 9.626631
_cell_length_b 24.425375
_cell_length_c 10.631109
_cell_angle_alpha 90.000000
_cell_angle_beta 113.536679
_cell_angle_gamma 90.000000
_cell_volume 2291.769467
_symmetry_space_group_name_H-M "C 2/C"
_symmetry_group_IT_number 15
_symmetry_cell_setting 'monoclinic'
loop_
_space_group_symop_operation_xyz
x,y,z
-x,y,1/2-z
-x,-y,-z
x,-y,1/2+z
1/2+x,1/2+y,z
1/2-x,1/2+y,1/2-z
1/2-x,1/2-y,-z
1/2+x,1/2-y,1/2+z
loop_
_atom_site_type_symbol
_atom_site_label
_atom_site_fract_x
_atom_site_fract_y
_atom_site_fract_z
Si Si1 0.345982 0.419969 0.960663
Si Si2 0.819212 0.722150 0.654138
Si Si3 0.595934 0.054884 0.559637
Si Si4 0.303244 0.111668 0.526402
Si Si5 0.644300 0.465090 0.146136
Si Si6 0.162992 0.830413 0.740921
O O1 0.370152 0.469668 0.870758
O O2 0.356647 0.362085 0.895771
O O3 0.182748 0.425795 0.966130
O O4 0.485415 0.433890 0.103612
O O5 0.750000 0.750000 0.500000
O O6 0.768201 0.659706 0.614643
O O7 0.772177 0.768481 0.738897
O O8 0.000000 0.716652 0.750000
O O9 0.479150 0.097523 0.577786
O O10 0.728892 0.045372 0.706129
O O11 0.500000 0.000000 0.500000
O O12 0.212160 0.058664 0.539338
O O13 0.257776 0.132729 0.372174
O O14 0.000000 0.826546 0.750000
#
# Coordination Sequence:
#
# PCOD9275633 Si02
#       6
#     8   8   8   8   8   8
#     4  11  24  38  61  91 129 171 209 255 315 390
#     4   9  19  35  61  92 116 159 216 267 305 367
#     4  12  24  38  57  93 135 165 200 260 323 377
#     4  11  21  38  64  91 123 166 212 262 311 375
#     4  11  23  38  60  87 129 173 211 249 313 389
#     4  10  20  39  63  90 122 162 217 259 310 370
#
# _framework density 20.944516
#
# number of rings (size 3 to 8) (size 9 to 14) (size 15 to 20)
#    0.000    1.333    3.333    3.000    0.000    2.000 
#    0.000    0.000    0.000    9.000   13.000    0.000 
#    0.000    0.000    0.000    0.000    0.000    0.000 
#
# Total GULP energy -133755.910066 kJ/mol
# GULP energy per Si atom -5573.162919 kJ/mol
# Density = 2.089685 g / cm^3
# Si number density = 20.944516 Si / 1000 Ang^3
#
#
#
# Elastic Constant Matrix: (Units=GPa)
#
#
# Indices 1 2 3 4 5 6 
#
# 1 97.7205 20.3036 11.2613 0.0000 3.7573 0.0000
# 2 20.3036 100.6491 21.6304 0.0000 -2.2829 0.0000
# 3 11.2613 21.6304 66.3271 0.0000 24.7448 0.0000
# 4 0.0000 0.0000 0.0000 23.1090 0.0000 6.4138
# 5 3.7573 -2.2829 24.7448 0.0000 32.2272 0.0000
# 6 0.0000 0.0000 0.0000 6.4138 0.0000 18.3795
#
#
#
# Elastic Compliance Matrix: (Units=1/GPa)
#
#
# Indices 1 2 3 4 5 6 
#
# 1 0.010780 -0.001992 -0.000924 0.000000 -0.000689 0.000000
# 2 -0.001992 0.011612 -0.005385 0.000000 0.005189 0.000000
# 3 -0.000924 -0.005385 0.023953 0.000000 -0.018666 0.000000
# 4 0.000000 0.000000 0.000000 0.047914 0.000000 -0.016720
# 5 -0.000689 0.005189 -0.018666 0.000000 0.045810 0.000000
# 6 0.000000 0.000000 0.000000 -0.016720 0.000000 0.060243
#
#
# Mechanical properties :
#
#
# Convention : Reuss Voigt Hill
#
# Bulk Modulus (GPa) = 33.61921 41.23192 37.42556
# Shear Modulus (GPa) = 22.04314 28.84321 25.44318
#
# Velocity S-wave (km/s) = 3.24767 3.71499 3.48916
# Velocity P-wave (km/s) = 5.49086 6.17499 5.84295
#
# Compressibility (1/GPa) = 0.02974490
#
# Stress axis : x y z
#
# Youngs Moduli (GPa) = 92.76414 86.11606 41.74776
#
# Poissons Ratio (x) = 0.17152 0.03857
# Poissons Ratio (y) = 0.18476 0.22480
# Poissons Ratio (z) = 0.08570 0.46372
#
# Static dielectric constant tensor:
#      x y z
#    x 1.697480 0.000000 -0.072210 
#    y 0.000000 1.781210 0.000000 
#    z -0.072210 0.000000 1.730490 
# 
# From -- ./inp_files/79904.got.cif
#   From: 2010.05.17/outbox.cif.g08.bks.cpg/sg15_40_cif.got.tgz:79904.got - 2010.06.03 18:47:42.
