data_PCOD9275866
_publ_section_title
;
Structure prediction by ZEFSAII (Michael W. Deem and Ramdas Pophale) SiO2 
 PCOD9275866
Probable space group: C 2/C
;
_chemical_formula_sum "Si O2"
_cell_formula_units_Z 60
_cell_length_a 26.470508
_cell_length_b 8.561208
_cell_length_c 25.797750
_cell_angle_alpha 90.000000
_cell_angle_beta 152.600827
_cell_angle_gamma 90.000000
_cell_volume 2690.379048
_symmetry_space_group_name_H-M "C 2/C"
_symmetry_group_IT_number 15
_symmetry_cell_setting 'monoclinic'
loop_
_space_group_symop_operation_xyz
x,y,z
-x,y,1/2-z
-x,-y,-z
x,-y,1/2+z
1/2+x,1/2+y,z
1/2-x,1/2+y,1/2-z
1/2-x,1/2-y,-z
1/2+x,1/2-y,1/2+z
loop_
_atom_site_type_symbol
_atom_site_label
_atom_site_fract_x
_atom_site_fract_y
_atom_site_fract_z
Si Si1 0.933699 0.740131 0.052383
Si Si2 0.102690 0.443705 0.434094
Si Si3 0.015069 0.786503 0.591847
Si Si4 0.147455 0.400113 0.127725
Si Si5 0.302138 0.522827 0.907450
Si Si6 0.500000 0.239758 0.750000
Si Si7 0.670778 0.328389 0.822160
Si Si8 0.156637 0.695768 0.199484
O O1 0.936786 0.621044 0.102311
O O2 0.054249 0.759661 0.138435
O O3 0.876592 0.642141 0.953365
O O4 0.862982 0.893850 0.998554
O O5 0.080004 0.362439 0.358946
O O6 0.228027 0.430990 0.566491
O O7 0.030802 0.347499 0.410990
O O8 0.072706 0.709698 0.595546
O O9 0.110368 0.868505 0.713143
O O10 0.909902 0.891223 0.482255
O O11 0.128952 0.578541 0.126995
O O12 0.269473 0.339800 0.250264
O O13 0.225997 0.655533 0.863942
O O14 0.228225 0.421253 0.801186
O O15 0.577411 0.330779 0.780772
#
# Coordination Sequence:
#
# PCOD9275866 Si02
#       8
#     8   8   8   8   8   4   8   8
#     4  11  24  38  56  86 125 166 203 249 298 364
#     4  10  21  38  63  86 117 157 200 256 309 369
#     4  10  21  37  61  86 121 162 203 252 297 355
#     4  11  24  34  58  84 124 164 214 245 297 350
#     4  10  23  39  60  89 124 161 205 243 303 363
#     4  10  20  40  66  92 114 150 198 264 324 366
#     4  10  20  39  65  92 116 152 201 258 312 371
#     4  11  23  37  53  83 122 169 205 251 291 345
#
# _framework density 22.301690000000001
#
# number of rings (size 3 to 8) (size 9 to 14) (size 15 to 20)
#    0.000    1.600    2.667    1.600    5.600    2.133 
#    0.000    0.667    0.000    8.000    0.000    0.000 
#    0.000    0.000    0.000    0.000    0.000    0.000 
#
# Total GULP energy -167708.864692 kJ/mol
# GULP energy per Si atom -5590.295490 kJ/mol
# Density = 2.225093 g / cm^3
# Si number density = 22.301690 Si / 1000 Ang^3
#
#
#
# Elastic Constant Matrix: (Units=GPa)
#
#
# Indices 1 2 3 4 5 6 
#
# 1 60.9453 11.9207 20.7953 0.0000 10.0195 0.0000
# 2 11.9207 51.6556 12.6072 0.0000 9.6955 0.0000
# 3 20.7953 12.6072 110.9580 0.0000 21.3656 0.0000
# 4 0.0000 0.0000 0.0000 37.4127 0.0000 8.6135
# 5 10.0195 9.6955 21.3656 0.0000 30.7489 0.0000
# 6 0.0000 0.0000 0.0000 8.6135 0.0000 15.1458
#
#
#
# Elastic Compliance Matrix: (Units=1/GPa)
#
#
# Indices 1 2 3 4 5 6 
#
# 1 0.018386 -0.003017 -0.002462 0.000000 -0.003329 0.000000
# 2 -0.003017 0.021225 -0.000862 0.000000 -0.005110 0.000000
# 3 -0.002462 -0.000862 0.010811 0.000000 -0.006438 0.000000
# 4 0.000000 0.000000 0.000000 0.030756 0.000000 -0.017491
# 5 -0.003329 -0.005110 -0.006438 0.000000 0.039691 0.000000
# 6 0.000000 0.000000 0.000000 -0.017491 0.000000 0.075972
#
#
# Mechanical properties :
#
#
# Convention : Reuss Voigt Hill
#
# Bulk Modulus (GPa) = 26.49746 34.91170 30.70458
# Shear Modulus (GPa) = 22.51208 28.54388 25.52798
#
# Velocity S-wave (km/s) = 3.18061 3.58145 3.38696
# Velocity P-wave (km/s) = 5.03939 5.72631 5.39380
#
# Compressibility (1/GPa) = 0.03773947
#
# Stress axis : x y z
#
# Youngs Moduli (GPa) = 54.39028 47.11459 92.49418
#
# Poissons Ratio (x) = 0.14216 0.22771
# Poissons Ratio (y) = 0.16411 0.07974
# Poissons Ratio (z) = 0.13390 0.04062
#
# Static dielectric constant tensor:
#      x y z
#    x 1.772810 0.000000 -0.001400 
#    y 0.000000 1.843570 0.000000 
#    z -0.001400 0.000000 1.894960 
# 
# From -- ./inp_files/303101.got.cif
#   From: 2010.05.17/outbox.cif.g08.bks.cpg/sg15_152_cif.got.tgz:303101.got - 2010.06.03 18:47:42.
