data_PCOD9275799
_publ_section_title
;
Structure prediction by ZEFSAII (Michael W. Deem and Ramdas Pophale) SiO2 
 PCOD9275799
Probable space group: C 2/C
;
_chemical_formula_sum "Si O2"
_cell_formula_units_Z 56
_cell_length_a 18.333604
_cell_length_b 7.998940
_cell_length_c 18.375161
_cell_angle_alpha 90.000000
_cell_angle_beta 115.172704
_cell_angle_gamma 90.000000
_cell_volume 2438.789491
_symmetry_space_group_name_H-M "C 2/C"
_symmetry_group_IT_number 15
_symmetry_cell_setting 'monoclinic'
loop_
_space_group_symop_operation_xyz
x,y,z
-x,y,1/2-z
-x,-y,-z
x,-y,1/2+z
1/2+x,1/2+y,z
1/2-x,1/2+y,1/2-z
1/2-x,1/2-y,-z
1/2+x,1/2-y,1/2+z
loop_
_atom_site_type_symbol
_atom_site_label
_atom_site_fract_x
_atom_site_fract_y
_atom_site_fract_z
Si Si1 0.818438 0.081555 0.610812
Si Si2 0.211710 0.730177 0.830610
Si Si3 0.109457 0.168146 0.565218
Si Si4 0.944716 0.527613 0.545625
Si Si5 0.546153 0.230614 0.692927
Si Si6 0.804796 0.569174 0.070614
Si Si7 0.528780 0.454016 0.412424
O O1 0.798463 0.273565 0.622520
O O2 0.770399 0.058089 0.514781
O O3 0.793550 0.925940 0.649961
O O4 0.912452 0.072113 0.630613
O O5 0.304192 0.673555 0.859043
O O6 0.141503 0.706092 0.742020
O O7 0.184348 0.606341 0.884481
O O8 0.109392 0.315450 0.505361
O O9 0.082886 0.007846 0.505422
O O10 0.035439 0.184606 0.590293
O O11 0.880371 0.397385 0.548889
O O12 0.000000 0.500000 0.500000
O O13 0.002884 0.577298 0.635619
O O14 0.500000 0.254649 0.750000
O O15 0.526465 0.388574 0.633938
#
# Coordination Sequence:
#
# PCOD9275799 Si02
#       7
#     8   8   8   8   8   8   8
#     4  11  21  36  65  99 129 170 235 281 333 414
#     4  12  21  43  66  94 138 178 216 294 351 403
#     4  10  21  38  66  89 129 178 218 270 353 402
#     4  11  22  41  64  96 138 185 228 285 349 424
#     4  11  22  40  70  96 133 182 233 286 361 414
#     4  11  22  36  66 104 129 174 234 283 336 417
#     4  10  20  39  64  96 124 174 225 279 333 424
#
# _framework density 22.962212000000001
#
# number of rings (size 3 to 8) (size 9 to 14) (size 15 to 20)
#    0.000    1.143    5.714    2.143    0.000    0.000 
#    2.571    4.286    0.000    0.000    0.000    0.000 
#    0.000    0.000    0.000    0.000    0.000    0.000 
#
# Total GULP energy -156284.473163 kJ/mol
# GULP energy per Si atom -5581.588327 kJ/mol
# Density = 2.290995 g / cm^3
# Si number density = 22.962212 Si / 1000 Ang^3
#
#
#
# Elastic Constant Matrix: (Units=GPa)
#
#
# Indices 1 2 3 4 5 6 
#
# 1 115.5850 11.9887 32.0700 0.0000 33.6363 0.0000
# 2 11.9887 61.2322 7.2056 0.0000 0.0601 0.0000
# 3 32.0700 7.2056 85.3109 0.0000 34.8173 0.0000
# 4 0.0000 0.0000 0.0000 21.7190 0.0000 -1.3692
# 5 33.6363 0.0601 34.8173 0.0000 46.3485 0.0000
# 6 0.0000 0.0000 0.0000 -1.3692 0.0000 29.3965
#
#
#
# Elastic Compliance Matrix: (Units=1/GPa)
#
#
# Indices 1 2 3 4 5 6 
#
# 1 0.011320 -0.002086 -0.001049 0.000000 -0.007424 0.000000
# 2 -0.002086 0.016950 -0.001812 0.000000 0.002853 0.000000
# 3 -0.001049 -0.001812 0.017244 0.000000 -0.012190 0.000000
# 4 0.000000 0.000000 0.000000 0.046178 0.000000 0.002151
# 5 -0.007424 0.002853 -0.012190 0.000000 0.036117 0.000000
# 6 0.000000 0.000000 0.000000 0.002151 0.000000 0.034118
#
#
# Mechanical properties :
#
#
# Convention : Reuss Voigt Hill
#
# Bulk Modulus (GPa) = 28.07344 40.51741 34.29542
# Shear Modulus (GPa) = 27.21918 33.55039 30.38479
#
# Velocity S-wave (km/s) = 3.44668 3.82660 3.64160
# Velocity P-wave (km/s) = 5.30019 6.09978 5.71399
#
# Compressibility (1/GPa) = 0.03562086
#
# Stress axis : x y z
#
# Youngs Moduli (GPa) = 88.34295 58.99699 57.98970
#
# Poissons Ratio (x) = 0.12304 0.06084
# Poissons Ratio (y) = 0.18424 0.10507
# Poissons Ratio (z) = 0.09269 0.10690
#
# Static dielectric constant tensor:
#      x y z
#    x 1.955880 0.000000 -0.006770 
#    y 0.000000 1.958210 0.000000 
#    z -0.006770 0.000000 1.804360 
# 
# From -- ./inp_files/247575.got.cif
#   From: 2010.05.17/outbox.cif.g08.bks.cpg/sg15_124_cif.got.tgz:247575.got - 2010.06.03 18:47:42.
