data_PCOD9275676
_publ_section_title
;
Structure prediction by ZEFSAII (Michael W. Deem and Ramdas Pophale) SiO2 
 PCOD9275676
Probable space group: C 2/C
;
_chemical_formula_sum "Si O2"
_cell_formula_units_Z 56
_cell_length_a 18.642133
_cell_length_b 7.452331
_cell_length_c 18.190923
_cell_angle_alpha 90.000000
_cell_angle_beta 71.755018
_cell_angle_gamma 90.000000
_cell_volume 2400.164747
_symmetry_space_group_name_H-M "C 2/C"
_symmetry_group_IT_number 15
_symmetry_cell_setting 'monoclinic'
loop_
_space_group_symop_operation_xyz
x,y,z
-x,y,1/2-z
-x,-y,-z
x,-y,1/2+z
1/2+x,1/2+y,z
1/2-x,1/2+y,1/2-z
1/2-x,1/2-y,-z
1/2+x,1/2-y,1/2+z
loop_
_atom_site_type_symbol
_atom_site_label
_atom_site_fract_x
_atom_site_fract_y
_atom_site_fract_z
Si Si1 0.272322 0.339290 0.133177
Si Si2 0.012172 0.909372 0.660342
Si Si3 0.362874 0.131370 0.926807
Si Si4 0.806389 0.341390 0.043382
Si Si5 0.777993 0.269910 0.793261
Si Si6 0.570106 0.794400 0.682571
Si Si7 0.417526 0.541801 0.059262
O O1 0.210065 0.293213 0.092559
O O2 0.246068 0.537926 0.167973
O O3 0.264930 0.233782 0.211281
O O4 0.357557 0.378633 0.078521
O O5 0.072438 0.779592 0.601681
O O6 0.000000 0.860998 0.750000
O O7 0.935515 0.903885 0.637841
O O8 0.042699 0.114253 0.650934
O O9 0.395904 0.952028 0.876809
O O10 0.333760 0.036529 0.009966
O O11 0.766398 0.356297 0.135335
O O12 0.876090 0.205042 0.031578
O O13 0.750000 0.250000 0.000000
O O14 0.865685 0.236367 0.780812
O O15 0.500000 0.869554 0.750000
O O16 0.500000 0.500000 0.000000
#
# Coordination Sequence:
#
# PCOD9275676 Si02
#       7
#     8   8   8   8   8   8   8
#     4  10  22  41  66  98 132 178 224 281 338 407
#     4  11  25  41  70 104 140 173 229 291 338 398
#     4  11  23  42  70  97 135 181 228 273 347 409
#     4  11  21  45  67  90 136 187 215 280 347 401
#     4  10  22  38  66  91 129 175 223 276 336 401
#     4  10  20  39  63  93 134 178 215 275 348 393
#     4  11  24  44  70  99 138 179 226 282 346 404
#
# _framework density 23.331733
#
# number of rings (size 3 to 8) (size 9 to 14) (size 15 to 20)
#    0.000    1.429    4.286    3.000    6.000    0.571 
#    2.571    1.429    0.000    0.000    0.000    0.000 
#    0.000    0.000    0.000    0.000    0.000    0.000 
#
# Total GULP energy -156574.716470 kJ/mol
# GULP energy per Si atom -5591.954160 kJ/mol
# Density = 2.327863 g / cm^3
# Si number density = 23.331733 Si / 1000 Ang^3
#
#
#
# Elastic Constant Matrix: (Units=GPa)
#
#
# Indices 1 2 3 4 5 6 
#
# 1 144.8486 39.2156 28.6779 0.0000 -2.4362 0.0000
# 2 39.2156 86.2188 26.7772 0.0000 1.8618 0.0000
# 3 28.6779 26.7772 74.7388 0.0000 -12.9165 0.0000
# 4 0.0000 0.0000 0.0000 39.0410 0.0000 1.5925
# 5 -2.4362 1.8618 -12.9165 0.0000 46.2843 0.0000
# 6 0.0000 0.0000 0.0000 1.5925 0.0000 62.7123
#
#
#
# Elastic Compliance Matrix: (Units=1/GPa)
#
#
# Indices 1 2 3 4 5 6 
#
# 1 0.008136 -0.003072 -0.002023 0.000000 -0.000013 0.000000
# 2 -0.003072 0.014375 -0.004307 0.000000 -0.001942 0.000000
# 3 -0.002023 -0.004307 0.016507 0.000000 0.004673 0.000000
# 4 0.000000 0.000000 0.000000 0.025641 0.000000 -0.000651
# 5 -0.000013 -0.001942 0.004673 0.000000 0.022987 0.000000
# 6 0.000000 0.000000 0.000000 -0.000651 0.000000 0.015962
#
#
# Mechanical properties :
#
#
# Convention : Reuss Voigt Hill
#
# Bulk Modulus (GPa) = 49.47252 55.01642 52.24447
# Shear Modulus (GPa) = 38.71433 43.68322 41.19877
#
# Velocity S-wave (km/s) = 4.07787 4.33166 4.20668
# Velocity P-wave (km/s) = 6.58954 6.97488 6.78495
#
# Compressibility (1/GPa) = 0.02021324
#
# Stress axis : x y z
#
# Youngs Moduli (GPa) = 122.91370 69.56428 60.57959
#
# Poissons Ratio (x) = 0.21368 0.12258
# Poissons Ratio (y) = 0.37756 0.26093
# Poissons Ratio (z) = 0.24871 0.29963
#
# Static dielectric constant tensor:
#      x y z
#    x 0.966690 0.000000 -1.992000 
#    y 0.000000 1.896760 0.000000 
#    z -1.992000 0.000000 -2.459860 
# 
# From -- ./inp_files/209522.got.cif
#   From: 2010.05.17/outbox.cif.g08.bks.cpg/sg15_105_cif.got.tgz:209522.got - 2010.06.03 18:47:42.
