data_PCOD9275128
_publ_section_title
;
Structure prediction by ZEFSAII (Michael W. Deem and Ramdas Pophale) SiO2 
 PCOD9275128
Probable space group: C 2/C
;
_chemical_formula_sum "Si O2"
_cell_formula_units_Z 52
_cell_length_a 10.628604
_cell_length_b 15.251333
_cell_length_c 15.926620
_cell_angle_alpha 90.000000
_cell_angle_beta 99.476631
_cell_angle_gamma 90.000000
_cell_volume 2546.478104
_symmetry_space_group_name_H-M "C 2/C"
_symmetry_group_IT_number 15
_symmetry_cell_setting 'monoclinic'
loop_
_space_group_symop_operation_xyz
x,y,z
-x,y,1/2-z
-x,-y,-z
x,-y,1/2+z
1/2+x,1/2+y,z
1/2-x,1/2+y,1/2-z
1/2-x,1/2-y,-z
1/2+x,1/2-y,1/2+z
loop_
_atom_site_type_symbol
_atom_site_label
_atom_site_fract_x
_atom_site_fract_y
_atom_site_fract_z
Si Si1 0.379196 0.303390 0.499782
Si Si2 0.861451 0.064094 0.145095
Si Si3 0.094805 0.476116 0.086746
Si Si4 0.226330 0.121416 0.184311
Si Si5 0.355408 0.775068 0.442664
Si Si6 0.574356 0.469765 0.091493
Si Si7 0.000000 0.444197 0.750000
O O1 0.250000 0.250000 0.500000
O O2 0.403148 0.359250 0.587043
O O3 0.504844 0.245152 0.504167
O O4 0.374719 0.373111 0.422759
O O5 0.841909 0.101641 0.235124
O O6 0.724275 0.032378 0.096946
O O7 0.964524 0.985830 0.148706
O O8 0.139144 0.375727 0.083710
O O9 0.032870 0.498401 0.170758
O O10 0.000000 0.500000 0.000000
O O11 0.178670 0.210576 0.137836
O O12 0.376988 0.114707 0.215633
O O13 0.185736 0.039017 0.121594
O O14 0.250000 0.750000 0.500000
O O15 0.500000 0.500000 0.000000
#
# Coordination Sequence:
#
# PCOD9275128 Si02
#       7
#     8   8   8   8   8   8   4
#     4  11  24  40  68 104 131 172 231 282 338 417
#     4  10  22  43  67  97 127 187 229 280 348 408
#     4  11  24  42  70 100 142 182 229 284 359 426
#     4  11  23  44  67  96 138 181 235 291 345 416
#     4  12  25  41  70  98 135 181 229 293 350 415
#     4  10  20  38  69  93 125 175 227 274 338 410
#     4  10  26  42  68  98 136 188 226 288 358 418
#
# _framework density 20.420361
#
# number of rings (size 3 to 8) (size 9 to 14) (size 15 to 20)
#    0.000    1.231    3.077    3.231    8.615    2.462 
#    2.769    0.000    0.000    0.000    0.000    0.000 
#    0.000    0.000    0.000    0.000    0.000    0.000 
#
# Total GULP energy -145241.125753 kJ/mol
# GULP energy per Si atom -5586.197144 kJ/mol
# Density = 2.037388 g / cm^3
# Si number density = 20.420361 Si / 1000 Ang^3
#
#
#
# Elastic Constant Matrix: (Units=GPa)
#
#
# Indices 1 2 3 4 5 6 
#
# 1 145.0548 32.1372 37.3257 0.0000 -4.5339 0.0000
# 2 32.1372 78.6469 34.0197 0.0000 -1.6062 0.0000
# 3 37.3257 34.0197 94.7027 0.0000 -0.2711 0.0000
# 4 0.0000 0.0000 0.0000 27.2945 0.0000 -0.9647
# 5 -4.5339 -1.6062 -0.2711 0.0000 38.0646 0.0000
# 6 0.0000 0.0000 0.0000 -0.9647 0.0000 34.4421
#
#
#
# Elastic Compliance Matrix: (Units=1/GPa)
#
#
# Indices 1 2 3 4 5 6 
#
# 1 0.008023 -0.002243 -0.002354 0.000000 0.000844 0.000000
# 2 -0.002243 0.015695 -0.004753 0.000000 0.000361 0.000000
# 3 -0.002354 -0.004753 0.013193 0.000000 -0.000387 0.000000
# 4 0.000000 0.000000 0.000000 0.036674 0.000000 0.001027
# 5 0.000844 0.000361 -0.000387 0.000000 0.026384 0.000000
# 6 0.000000 0.000000 0.000000 0.001027 0.000000 0.029063
#
#
# Mechanical properties :
#
#
# Convention : Reuss Voigt Hill
#
# Bulk Modulus (GPa) = 54.91022 58.37439 56.64230
# Shear Modulus (GPa) = 32.50922 34.28838 33.39880
#
# Velocity S-wave (km/s) = 3.99432 4.10216 4.04860
# Velocity P-wave (km/s) = 6.94414 7.14740 7.04650
#
# Compressibility (1/GPa) = 0.01821155
#
# Stress axis : x y z
#
# Youngs Moduli (GPa) = 124.64182 63.71496 75.79520
#
# Poissons Ratio (x) = 0.14291 0.17842
# Poissons Ratio (y) = 0.27956 0.36025
# Poissons Ratio (z) = 0.29341 0.30284
#
# Static dielectric constant tensor:
#      x y z
#    x 1.846350 0.000000 -0.004230 
#    y 0.000000 1.642450 0.000000 
#    z -0.004230 0.000000 1.773780 
# 
# From -- ./inp_files/231140.got.cif
#   From: 2010.05.17/outbox.cif.g08.bks.cpg/sg15_116_cif.got.tgz:231140.got - 2010.06.03 18:47:42.
