data_PCOD9275998
_publ_section_title
;
Structure prediction by ZEFSAII (Michael W. Deem and Ramdas Pophale) SiO2 
 PCOD9275998
Probable space group: C 2/C
;
_chemical_formula_sum "Si O2"
_cell_formula_units_Z 36
_cell_length_a 10.595759
_cell_length_b 8.542335
_cell_length_c 14.155380
_cell_angle_alpha 90.000000
_cell_angle_beta 100.703514
_cell_angle_gamma 90.000000
_cell_volume 1258.947399
_symmetry_space_group_name_H-M "C 2/C"
_symmetry_group_IT_number 15
_symmetry_cell_setting 'monoclinic'
loop_
_space_group_symop_operation_xyz
x,y,z
-x,y,1/2-z
-x,-y,-z
x,-y,1/2+z
1/2+x,1/2+y,z
1/2-x,1/2+y,1/2-z
1/2-x,1/2-y,-z
1/2+x,1/2-y,1/2+z
loop_
_atom_site_type_symbol
_atom_site_label
_atom_site_fract_x
_atom_site_fract_y
_atom_site_fract_z
Si Si1 0.500000 0.798518 0.750000
Si Si2 0.449462 0.946486 0.382163
Si Si3 0.214118 0.897720 0.932702
Si Si4 0.637471 0.654858 0.040971
Si Si5 0.702315 0.472423 0.237821
O O1 0.386236 0.679805 0.761577
O O2 0.473408 0.910513 0.655370
O O3 0.467375 0.774086 0.429179
O O4 0.311475 0.554543 0.363477
O O5 0.346325 0.918293 0.282702
O O6 0.357340 0.975937 0.948037
O O7 0.175734 0.900448 0.817368
O O8 0.250000 0.750000 0.000000
O O9 0.112067 0.019230 0.961692
O O10 0.750000 0.750000 0.000000
#
# Coordination Sequence:
#
# PCOD9275998 Si02
#       5
#     4   8   8   8   8
#     4  12  22  44  72 102 138 186 246 274 366 432
#     4   9  22  38  66  95 136 182 219 298 345 410
#     4   9  20  38  66  97 136 187 228 287 363 410
#     4  10  20  39  66  97 137 182 237 282 359 420
#     4  10  23  40  69  95 139 188 223 299 348 416
#
# _framework density 28.595319
#
# number of rings (size 3 to 8) (size 9 to 14) (size 15 to 20)
#    1.333    0.889    0.000    2.667    3.111    0.889 
#    0.000    5.556    0.000    0.000    0.000    0.000 
#    0.000    0.000    0.000    0.000    0.000    0.000 
#
# Total GULP energy -100464.678193 kJ/mol
# GULP energy per Si atom -5581.371011 kJ/mol
# Density = 2.853023 g / cm^3
# Si number density = 28.595319 Si / 1000 Ang^3
#
#
#
# Elastic Constant Matrix: (Units=GPa)
#
#
# Indices 1 2 3 4 5 6 
#
# 1 101.0971 53.2111 8.6098 0.0000 -10.7385 0.0000
# 2 53.2111 210.9829 86.4675 0.0000 -16.1370 0.0000
# 3 8.6098 86.4675 168.8142 0.0000 -16.9627 0.0000
# 4 0.0000 0.0000 0.0000 84.0020 0.0000 -25.9852
# 5 -10.7385 -16.1370 -16.9627 0.0000 34.7238 0.0000
# 6 0.0000 0.0000 0.0000 -25.9852 0.0000 55.7557
#
#
#
# Elastic Compliance Matrix: (Units=1/GPa)
#
#
# Indices 1 2 3 4 5 6 
#
# 1 0.011826 -0.003338 0.001386 0.000000 0.002783 0.000000
# 2 -0.003338 0.007002 -0.003358 0.000000 0.000582 0.000000
# 3 0.001386 -0.003358 0.007844 0.000000 0.002700 0.000000
# 4 0.000000 0.000000 0.000000 0.013910 0.000000 0.006483
# 5 0.002783 0.000582 0.002700 0.000000 0.031249 0.000000
# 6 0.000000 0.000000 0.000000 0.006483 0.000000 0.020957
#
#
# Mechanical properties :
#
#
# Convention : Reuss Voigt Hill
#
# Bulk Modulus (GPa) = 62.29282 86.38567 74.33924
# Shear Modulus (GPa) = 45.97383 57.07002 51.52193
#
# Velocity S-wave (km/s) = 4.01401 4.47226 4.24932
# Velocity P-wave (km/s) = 6.58139 7.54609 7.08019
#
# Compressibility (1/GPa) = 0.01605322
#
# Stress axis : x y z
#
# Youngs Moduli (GPa) = 84.56060 142.81288 127.48248
#
# Poissons Ratio (x) = 0.47667 -0.17671
# Poissons Ratio (y) = 0.28224 0.42807
# Poissons Ratio (z) = -0.11721 0.47955
#
# Static dielectric constant tensor:
#      x y z
#    x 2.356000 0.000000 0.029040 
#    y 0.000000 2.274770 0.000000 
#    z 0.029040 0.000000 2.231520 
# 
# From -- ./inp_files/241497.got.cif
#   From: 2010.05.17/outbox.cif.g08.bks.cpg/sg15_121_cif.got.tgz:241497.got - 2010.06.03 18:47:42.
