data_PCOD9275800
_publ_section_title
;
Structure prediction by ZEFSAII (Michael W. Deem and Ramdas Pophale) SiO2 
 PCOD9275800
Probable space group: C 2/C
;
_chemical_formula_sum "Si O2"
_cell_formula_units_Z 56
_cell_length_a 26.785982
_cell_length_b 10.014126
_cell_length_c 15.620592
_cell_angle_alpha 90.000000
_cell_angle_beta 39.970927
_cell_angle_gamma 90.000000
_cell_volume 2691.676410
_symmetry_space_group_name_H-M "C 2/C"
_symmetry_group_IT_number 15
_symmetry_cell_setting 'monoclinic'
loop_
_space_group_symop_operation_xyz
x,y,z
-x,y,1/2-z
-x,-y,-z
x,-y,1/2+z
1/2+x,1/2+y,z
1/2-x,1/2+y,1/2-z
1/2-x,1/2-y,-z
1/2+x,1/2-y,1/2+z
loop_
_atom_site_type_symbol
_atom_site_label
_atom_site_fract_x
_atom_site_fract_y
_atom_site_fract_z
Si Si1 0.774184 0.399464 0.447445
Si Si2 0.061877 0.294602 0.240128
Si Si3 0.923635 0.255699 0.904804
Si Si4 0.544742 0.305416 0.950528
Si Si5 0.742415 0.848401 0.429272
Si Si6 0.369374 0.448738 0.960553
Si Si7 0.617242 0.419414 0.360260
O O1 0.750000 0.250000 0.500000
O O2 0.866841 0.395292 0.334638
O O3 0.743990 0.502366 0.556444
O O4 0.724302 0.444292 0.430307
O O5 0.034242 0.263628 0.372756
O O6 0.093284 0.154462 0.156606
O O7 0.000000 0.343017 0.250000
O O8 0.000000 0.291002 0.750000
O O9 0.903344 0.098610 0.910972
O O10 0.936726 0.276217 0.988787
O O11 0.844944 0.332512 0.986874
O O12 0.611452 0.419691 0.855582
O O13 0.461811 0.372065 0.080370
O O14 0.750000 0.750000 0.500000
O O15 0.810376 0.836089 0.270678
O O16 0.387308 0.399469 0.032087
#
# Coordination Sequence:
#
# PCOD9275800 Si02
#       7
#     8   8   8   8   8   8   8
#     4  10  23  40  65  91 128 176 218 266 323 396
#     4  11  21  39  64  92 131 172 224 266 333 383
#     4  11  24  40  69  97 135 173 220 274 345 399
#     4  10  22  38  65  99 129 176 224 278 320 404
#     4  12  24  43  66  97 136 174 216 278 338 394
#     4  10  20  39  64  96 127 176 223 277 320 397
#     4  10  21  37  63  97 135 167 226 278 333 384
#
# _framework density 20.804877999999999
#
# number of rings (size 3 to 8) (size 9 to 14) (size 15 to 20)
#    0.000    1.429    2.857    3.000    6.000    0.571 
#    2.571    0.000    0.000    2.571    0.000    0.000 
#    0.000    0.000    0.000    0.000    0.000    0.000 
#
# Total GULP energy -156077.318660 kJ/mol
# GULP energy per Si atom -5574.189952 kJ/mol
# Density = 2.075753 g / cm^3
# Si number density = 20.804878 Si / 1000 Ang^3
#
#
#
# Elastic Constant Matrix: (Units=GPa)
#
#
# Indices 1 2 3 4 5 6 
#
# 1 161.8380 6.1518 37.1164 0.0000 -3.2564 0.0000
# 2 6.1518 29.0311 16.2890 -0.0003 4.1818 0.0002
# 3 37.1164 16.2890 91.1125 -0.0003 -2.6475 0.0002
# 4 0.0000 -0.0003 -0.0003 17.3031 0.0002 -12.2534
# 5 -3.2564 4.1818 -2.6475 0.0002 36.0838 -0.0001
# 6 0.0000 0.0002 0.0002 -12.2534 -0.0001 27.5189
#
#
#
# Elastic Compliance Matrix: (Units=1/GPa)
#
#
# Indices 1 2 3 4 5 6 
#
# 1 0.006822 0.000054 -0.002777 0.000000 0.000406 0.000000
# 2 0.000054 0.039190 -0.007175 0.000001 -0.005063 0.000000
# 3 -0.002777 -0.007175 0.013435 0.000000 0.001567 0.000000
# 4 0.000000 0.000001 0.000000 0.084410 0.000000 0.037585
# 5 0.000406 -0.005063 0.001567 0.000000 0.028452 0.000000
# 6 0.000000 0.000000 0.000000 0.037585 0.000000 0.053074
#
#
# Mechanical properties :
#
#
# Convention : Reuss Voigt Hill
#
# Bulk Modulus (GPa) = 25.22062 44.56622 34.89342
# Shear Modulus (GPa) = 19.35020 31.00945 25.17982
#
# Velocity S-wave (km/s) = 3.05303 3.86487 3.48269
# Velocity P-wave (km/s) = 4.95749 6.43303 5.74285
#
# Compressibility (1/GPa) = 0.03965010
#
# Stress axis : x y z
#
# Youngs Moduli (GPa) = 146.58462 25.51689 74.43230
#
# Poissons Ratio (x) = -0.00138 0.20669
# Poissons Ratio (y) = -0.00792 0.53408
# Poissons Ratio (z) = 0.40706 0.18309
#
# Static dielectric constant tensor:
#      x y z
#    x 1.722840 0.000000 -0.034590 
#    y 0.000000 1.780160 0.000000 
#    z -0.034590 0.000000 1.768790 
# 
# From -- ./inp_files/177549.got.cif
#   From: 2010.05.17/outbox.cif.g08.bks.cpg/sg15_89_cif.got.tgz:177549.got - 2010.06.03 18:47:42.
