data_PCOD9275348
_publ_section_title
;
Structure prediction by ZEFSAII (Michael W. Deem and Ramdas Pophale) SiO2 
 PCOD9275348
Probable space group: C 2/C
;
_chemical_formula_sum "Si O2"
_cell_formula_units_Z 52
_cell_length_a 8.334390
_cell_length_b 27.470268
_cell_length_c 12.748565
_cell_angle_alpha 90.000000
_cell_angle_beta 89.963492
_cell_angle_gamma 90.000000
_cell_volume 2918.756935
_symmetry_space_group_name_H-M "C 2/C"
_symmetry_group_IT_number 15
_symmetry_cell_setting 'monoclinic'
loop_
_space_group_symop_operation_xyz
x,y,z
-x,y,1/2-z
-x,-y,-z
x,-y,1/2+z
1/2+x,1/2+y,z
1/2-x,1/2+y,1/2-z
1/2-x,1/2-y,-z
1/2+x,1/2-y,1/2+z
loop_
_atom_site_type_symbol
_atom_site_label
_atom_site_fract_x
_atom_site_fract_y
_atom_site_fract_z
Si Si1 0.405428 0.931784 0.571415
Si Si2 0.181601 0.314292 0.217370
Si Si3 0.674819 0.301309 0.699872
Si Si4 0.091627 0.458801 0.359372
Si Si5 0.500000 0.139991 0.250000
Si Si6 0.161701 0.142549 0.990378
Si Si7 0.384001 0.386744 0.345170
O O1 0.491244 0.941795 0.460697
O O2 0.500244 0.894920 0.647818
O O3 0.241532 0.904351 0.543768
O O4 0.382511 0.983404 0.628015
O O5 0.200225 0.256345 0.211924
O O6 0.231173 0.338787 0.107299
O O7 0.295078 0.338524 0.303840
O O8 0.000000 0.325477 0.250000
O O9 0.500000 0.313950 0.750000
O O10 0.659028 0.316131 0.578316
O O11 0.834458 0.328752 0.743707
O O12 0.255085 0.428587 0.362178
O O13 0.000000 0.449224 0.250000
O O14 0.990949 0.127450 0.944027
O O15 0.500000 0.402393 0.250000
#
# Coordination Sequence:
#
# PCOD9275348 Si02
#       7
#     8   8   8   8   4   8   8
#     4  10  22  39  61  86 116 161 205 247 309 367
#     4  10  20  39  60  89 118 159 203 251 302 364
#     4  10  23  39  61  89 125 163 210 247 306 375
#     4  11  21  38  63  86 116 155 210 251 297 376
#     4  10  22  42  62  88 128 170 198 254 312 364
#     4  10  21  38  57  86 125 154 197 255 306 362
#     4  10  21  35  60  87 121 151 196 252 306 353
#
# _framework density 17.815802999999999
#
# number of rings (size 3 to 8) (size 9 to 14) (size 15 to 20)
#    0.000    1.846    0.769    3.692    5.385    0.615 
#    0.000    4.615    0.000    0.000    0.000    0.000 
#    0.000    0.000    0.000    0.000    0.000    0.000 
#
# Total GULP energy -145082.970658 kJ/mol
# GULP energy per Si atom -5580.114256 kJ/mol
# Density = 1.777525 g / cm^3
# Si number density = 17.815803 Si / 1000 Ang^3
#
#
#
# Elastic Constant Matrix: (Units=GPa)
#
#
# Indices 1 2 3 4 5 6 
#
# 1 116.9262 61.0794 58.3843 0.0000 13.4463 0.0000
# 2 61.0794 104.3992 42.8575 0.0000 5.1107 0.0000
# 3 58.3843 42.8575 98.3798 0.0000 23.7260 0.0000
# 4 0.0000 0.0000 0.0000 -496.0420 0.0000 185.8131
# 5 13.4463 5.1107 23.7260 0.0000 27.4407 0.0000
# 6 0.0000 0.0000 0.0000 185.8131 0.0000 -56.5964
#
#
#
# Elastic Compliance Matrix: (Units=1/GPa)
#
#
# Indices 1 2 3 4 5 6 
#
# 1 0.014849 -0.006239 -0.005837 0.000000 -0.001067 0.000000
# 2 -0.006239 0.014460 -0.003392 0.000000 0.003297 0.000000
# 3 -0.005837 -0.003392 0.018022 0.000000 -0.012090 0.000000
# 4 0.000000 0.000000 0.000000 0.008771 0.000000 0.028798
# 5 -0.001067 0.003297 -0.012090 0.000000 0.046805 0.000000
# 6 0.000000 0.000000 0.000000 0.028798 0.000000 0.076878
#
#
# Mechanical properties :
#
#
# Convention : Reuss Voigt Hill
#
# Bulk Modulus (GPa) = 60.99176 71.59417 66.29297
# Shear Modulus (GPa) = 23.12837 -94.54726 -35.70945
#
# Velocity S-wave (km/s) = 3.60695 -7.29277 -4.48188
# Velocity P-wave (km/s) = 7.18720 5.53531 3.24161
#
# Compressibility (1/GPa) = 0.01639566
#
# Stress axis : x y z
#
# Youngs Moduli (GPa) = 67.34604 69.15770 55.48824
#
# Poissons Ratio (x) = 0.43148 0.32387
# Poissons Ratio (y) = 0.42017 0.18819
# Poissons Ratio (z) = 0.39308 0.23455
#
# Static dielectric constant tensor:
#      x y z
#    x 1.626740 0.000000 0.002820 
#    y 0.000000 1.596170 0.000000 
#    z 0.002820 0.000000 1.606130 
# 
# From -- ./inp_files/80727.got.cif
#   From: 2010.05.17/outbox.cif.g08.bks.cpg/sg15_41_cif.got.tgz:80727.got - 2010.06.03 18:47:42.
