data_PCOD9275876
_publ_section_title
;
Structure prediction by ZEFSAII (Michael W. Deem and Ramdas Pophale) SiO2 
 PCOD9275876
Probable space group: C 2/C
;
_chemical_formula_sum "Si O2"
_cell_formula_units_Z 48
_cell_length_a 26.897150
_cell_length_b 7.583402
_cell_length_c 9.490743
_cell_angle_alpha 90.000000
_cell_angle_beta 83.412091
_cell_angle_gamma 90.000000
_cell_volume 1923.062506
_symmetry_space_group_name_H-M "C 2/C"
_symmetry_group_IT_number 15
_symmetry_cell_setting 'monoclinic'
loop_
_space_group_symop_operation_xyz
x,y,z
-x,y,1/2-z
-x,-y,-z
x,-y,1/2+z
1/2+x,1/2+y,z
1/2-x,1/2+y,1/2-z
1/2-x,1/2-y,-z
1/2+x,1/2-y,1/2+z
loop_
_atom_site_type_symbol
_atom_site_label
_atom_site_fract_x
_atom_site_fract_y
_atom_site_fract_z
Si Si1 0.623381 0.809661 0.821707
Si Si2 0.451140 0.386455 0.542652
Si Si3 0.727653 0.349933 0.373347
Si Si4 0.101521 0.569381 0.043621
Si Si5 0.814113 0.225125 0.163791
Si Si6 0.896939 0.945132 0.819775
O O1 0.679976 0.762488 0.839223
O O2 0.615915 0.953352 0.700801
O O3 0.602971 0.638559 0.751003
O O4 0.596488 0.884366 0.967600
O O5 0.500000 0.500000 0.500000
O O6 0.445723 0.196166 0.470539
O O7 0.439913 0.356185 0.710889
O O8 0.408336 0.505681 0.476410
O O9 0.750000 0.250000 0.500000
O O10 0.769686 0.343887 0.238312
O O11 0.709589 0.551151 0.401704
O O12 0.148430 0.669604 0.951221
O O13 0.846157 0.148749 0.286773
#
# Coordination Sequence:
#
# PCOD9275876 Si02
#       6
#     8   8   8   8   8   8
#     4  10  23  39  59  89 127 166 208 258 314 367
#     4  10  20  39  65  93 118 155 200 255 315 387
#     4  11  25  36  62  90 127 172 218 263 306 364
#     4  10  23  41  63  89 127 166 207 264 316 375
#     4  10  23  40  58  89 122 168 218 256 309 364
#     4   9  21  37  63  88 124 157 201 252 314 376
#
# _framework density 24.960187000000001
#
# number of rings (size 3 to 8) (size 9 to 14) (size 15 to 20)
#    0.000    2.000    0.000    1.500   16.333    2.000 
#    0.000    0.833    0.000    6.000    0.000    0.000 
#    0.000    0.000    0.000    0.000    0.000    0.000 
#
# Total GULP energy -134264.091209 kJ/mol
# GULP energy per Si atom -5594.337134 kJ/mol
# Density = 2.490338 g / cm^3
# Si number density = 24.960187 Si / 1000 Ang^3
#
#
#
# Elastic Constant Matrix: (Units=GPa)
#
#
# Indices 1 2 3 4 5 6 
#
# 1 43.8501 0.1983 -15.1148 0.0000 -6.8917 0.0000
# 2 0.1983 99.8935 -21.6283 0.0000 3.5364 0.0000
# 3 -15.1148 -21.6283 74.8398 0.0000 10.5384 0.0000
# 4 0.0000 0.0000 0.0000 39.6293 0.0000 -4.0607
# 5 -6.8917 3.5364 10.5384 0.0000 27.7341 0.0000
# 6 0.0000 0.0000 0.0000 -4.0607 0.0000 9.5056
#
#
#
# Elastic Compliance Matrix: (Units=1/GPa)
#
#
# Indices 1 2 3 4 5 6 
#
# 1 0.025102 0.000812 0.004692 0.000000 0.004352 0.000000
# 2 0.000812 0.010897 0.003677 0.000000 -0.002585 0.000000
# 3 0.004692 0.003677 0.016137 0.000000 -0.005435 0.000000
# 4 0.000000 0.000000 0.000000 0.026389 0.000000 0.011273
# 5 0.004352 -0.002585 -0.005435 0.000000 0.039533 0.000000
# 6 0.000000 0.000000 0.000000 0.011273 0.000000 0.110017
#
#
# Mechanical properties :
#
#
# Convention : Reuss Voigt Hill
#
# Bulk Modulus (GPa) = 14.18489 16.16598 15.17543
# Shear Modulus (GPa) = 21.43964 32.38235 26.91099
#
# Velocity S-wave (km/s) = 2.93397 3.60580 3.28709
# Velocity P-wave (km/s) = 4.14402 4.88123 4.52766
#
# Compressibility (1/GPa) = 0.07049756
#
# Stress axis : x y z
#
# Youngs Moduli (GPa) = 39.83684 91.77097 61.96809
#
# Poissons Ratio (x) = -0.07451 -0.29073
# Poissons Ratio (y) = -0.03234 -0.22786
# Poissons Ratio (z) = -0.18690 -0.33745
#
# Static dielectric constant tensor:
#      x y z
#    x 1.961690 0.000000 -0.016230 
#    y 0.000000 2.051170 0.000000 
#    z -0.016230 0.000000 2.045590 
# 
# From -- ./inp_files/121099.got.cif
#   From: 2010.05.17/outbox.cif.g08.bks.cpg/sg15_61_cif.got.tgz:121099.got - 2010.06.03 18:47:42.
