data_PCOD9275384
_publ_section_title
;
Structure prediction by ZEFSAII (Michael W. Deem and Ramdas Pophale) SiO2 
 PCOD9275384
Probable space group: C 2/C
;
_chemical_formula_sum "Si O2"
_cell_formula_units_Z 64
_cell_length_a 26.684882
_cell_length_b 11.759349
_cell_length_c 20.489253
_cell_angle_alpha 90.000000
_cell_angle_beta 149.335612
_cell_angle_gamma 90.000000
_cell_volume 3279.079941
_symmetry_space_group_name_H-M "C 2/C"
_symmetry_group_IT_number 15
_symmetry_cell_setting 'monoclinic'
loop_
_space_group_symop_operation_xyz
x,y,z
-x,y,1/2-z
-x,-y,-z
x,-y,1/2+z
1/2+x,1/2+y,z
1/2-x,1/2+y,1/2-z
1/2-x,1/2-y,-z
1/2+x,1/2-y,1/2+z
loop_
_atom_site_type_symbol
_atom_site_label
_atom_site_fract_x
_atom_site_fract_y
_atom_site_fract_z
Si Si1 0.003826 0.149197 0.954881
Si Si2 0.553896 0.473258 0.379847
Si Si3 0.824995 0.986547 0.311536
Si Si4 0.666893 0.873288 0.576404
Si Si5 0.236749 0.489850 0.855488
Si Si6 0.988947 0.234495 0.160736
Si Si7 0.206096 0.727657 0.878817
Si Si8 0.438498 0.111280 0.408305
O O1 0.006802 0.284628 0.963844
O O2 0.002709 0.095739 0.880931
O O3 0.902930 0.108081 0.876655
O O4 0.100995 0.094534 0.096627
O O5 0.500000 0.463870 0.250000
O O6 0.666874 0.432543 0.505670
O O7 0.558145 0.609076 0.402482
O O8 0.736702 0.016193 0.162508
O O9 0.773234 0.969678 0.323866
O O10 0.564976 0.847924 0.424810
O O11 0.732939 0.785704 0.610263
O O12 0.631320 0.850551 0.609905
O O13 0.208764 0.594804 0.868992
O O14 0.139079 0.418025 0.734818
O O15 0.096363 0.227105 0.251297
O O16 0.000000 0.246318 0.250000
O O17 0.250000 0.750000 0.000000
O O18 0.500000 0.000000 0.500000
#
# Coordination Sequence:
#
# PCOD9275384 Si02
#       8
#     8   8   8   8   8   8   8   8
#     4  10  21  39  63  89 119 159 220 246 310 373
#     4  10  20  39  61  84 120 162 211 250 301 365
#     4   9  21  37  62  93 120 165 204 266 298 372
#     4  11  22  37  59  95 131 165 205 254 329 381
#     4  10  21  39  55  90 125 155 201 250 315 365
#     4  11  21  35  58  95 130 165 205 258 313 374
#     4  12  21  35  63  90 131 164 198 259 321 378
#     4  11  25  41  63  91 126 167 202 266 325 375
#
# _framework density 19.517669999999999
#
# number of rings (size 3 to 8) (size 9 to 14) (size 15 to 20)
#    0.000    1.500    2.500    3.000    7.000    0.000 
#    6.750    0.625    2.750    0.000    0.000    0.000 
#    0.000    0.000    0.000    0.000    0.000    0.000 
#
# Total GULP energy -178302.518305 kJ/mol
# GULP energy per Si atom -5571.953697 kJ/mol
# Density = 1.947325 g / cm^3
# Si number density = 19.517670 Si / 1000 Ang^3
#
#
#
# Elastic Constant Matrix: (Units=GPa)
#
#
# Indices 1 2 3 4 5 6 
#
# 1 52.0140 23.8813 13.5941 0.0000 -5.8298 0.0000
# 2 23.8813 82.6741 36.5957 0.0000 -12.7567 0.0000
# 3 13.5941 36.5957 98.1070 0.0000 1.5981 0.0000
# 4 0.0000 0.0000 0.0000 27.0088 0.0000 -7.2299
# 5 -5.8298 -12.7567 1.5981 0.0000 26.9947 0.0000
# 6 0.0000 0.0000 0.0000 -7.2299 0.0000 25.8848
#
#
#
# Elastic Compliance Matrix: (Units=1/GPa)
#
#
# Indices 1 2 3 4 5 6 
#
# 1 0.022339 -0.005660 -0.001020 0.000000 0.002210 0.000000
# 2 -0.005660 0.017457 -0.005848 0.000000 0.007373 0.000000
# 3 -0.001020 -0.005848 0.012576 0.000000 -0.003728 0.000000
# 4 0.000000 0.000000 0.000000 0.040017 0.000000 0.011177
# 5 0.002210 0.007373 -0.003728 0.000000 0.041227 0.000000
# 6 0.000000 0.000000 0.000000 0.011177 0.000000 0.041755
#
#
# Mechanical properties :
#
#
# Convention : Reuss Voigt Hill
#
# Bulk Modulus (GPa) = 36.60824 42.32636 39.46730
# Shear Modulus (GPa) = 23.86286 26.55926 25.21106
#
# Velocity S-wave (km/s) = 3.50040 3.69288 3.59793
# Velocity P-wave (km/s) = 5.92742 6.31794 6.12579
#
# Compressibility (1/GPa) = 0.02731625
#
# Stress axis : x y z
#
# Youngs Moduli (GPa) = 44.76541 57.28425 79.51508
#
# Poissons Ratio (x) = 0.32425 0.08110
# Poissons Ratio (y) = 0.25339 0.46496
# Poissons Ratio (z) = 0.04566 0.33497
#
# Static dielectric constant tensor:
#      x y z
#    x 1.706610 0.000000 0.041780 
#    y 0.000000 3.476710 0.000000 
#    z 0.041780 0.000000 1.788650 
# 
# From -- ./inp_files/257524.got.cif
#   From: 2010.05.17/outbox.cif.g08.bks.cpg/sg15_129_cif.got.tgz:257524.got - 2010.06.03 18:47:42.
