data_PCOD9275333
_publ_section_title
;
Structure prediction by ZEFSAII (Michael W. Deem and Ramdas Pophale) SiO2 
 PCOD9275333
Probable space group: C 2/C
;
_chemical_formula_sum "Si O2"
_cell_formula_units_Z 48
_cell_length_a 5.575063
_cell_length_b 30.642976
_cell_length_c 14.079595
_cell_angle_alpha 90.000000
_cell_angle_beta 95.030210
_cell_angle_gamma 90.000000
_cell_volume 2396.045243
_symmetry_space_group_name_H-M "C 2/C"
_symmetry_group_IT_number 15
_symmetry_cell_setting 'monoclinic'
loop_
_space_group_symop_operation_xyz
x,y,z
-x,y,1/2-z
-x,-y,-z
x,-y,1/2+z
1/2+x,1/2+y,z
1/2-x,1/2+y,1/2-z
1/2-x,1/2-y,-z
1/2+x,1/2-y,1/2+z
loop_
_atom_site_type_symbol
_atom_site_label
_atom_site_fract_x
_atom_site_fract_y
_atom_site_fract_z
Si Si1 0.744004 0.452162 0.010687
Si Si2 0.412427 0.002056 0.346634
Si Si3 0.500000 0.181065 0.750000
Si Si4 0.008464 0.638506 0.555688
Si Si5 0.500000 0.733754 0.750000
Si Si6 0.381238 0.583382 0.647304
Si Si7 0.509593 0.770103 0.542073
O O1 0.519853 0.440704 0.067795
O O2 0.868126 0.491117 0.075313
O O3 0.893870 0.406838 0.017202
O O4 0.731951 0.468438 0.902187
O O5 0.500000 0.020897 0.250000
O O6 0.303342 0.954109 0.324209
O O7 0.415341 0.152769 0.656466
O O8 0.742700 0.207981 0.731758
O O9 0.279363 0.625646 0.591830
O O10 0.988694 0.678940 0.485491
O O11 0.527372 0.761109 0.654411
O O12 0.500000 0.596715 0.750000
O O13 0.250000 0.750000 0.500000
O O14 0.750000 0.750000 0.500000
#
# Coordination Sequence:
#
# PCOD9275333 Si02
#       7
#     8   8   4   8   4   8   8
#     4  10  22  38  59  88 125 164 210 266 325 389
#     4  10  20  39  60  86 123 168 213 256 324 396
#     4  12  24  40  72  98 129 172 225 280 344 390
#     4  11  25  38  62  97 129 164 215 277 331 393
#     4  12  24  46  68  98 129 178 225 276 334 410
#     4  11  21  36  64  96 127 163 212 274 331 389
#     4  12  25  45  70  98 134 179 223 273 342 407
#
# _framework density 20.033010000000001
#
# number of rings (size 3 to 8) (size 9 to 14) (size 15 to 20)
#    0.000    1.000    5.000    1.500    8.167    0.000 
#    1.500    0.000    0.000    0.000    0.000    0.000 
#    0.000    0.000    0.000    0.000    0.000    0.000 
#
# Total GULP energy -133770.681820 kJ/mol
# GULP energy per Si atom -5573.778409 kJ/mol
# Density = 1.998741 g / cm^3
# Si number density = 20.033010 Si / 1000 Ang^3
#
#
#
# Elastic Constant Matrix: (Units=GPa)
#
#
# Indices 1 2 3 4 5 6 
#
# 1 85.0856 26.3559 37.9543 0.0000 -17.8830 0.0000
# 2 26.3559 91.1794 50.8082 0.0000 -3.0977 0.0000
# 3 37.9543 50.8082 145.8795 0.0000 -24.4422 0.0000
# 4 0.0000 0.0000 0.0000 41.5158 0.0000 -5.6645
# 5 -17.8830 -3.0977 -24.4422 0.0000 32.8227 0.0000
# 6 0.0000 0.0000 0.0000 -5.6645 0.0000 51.9447
#
#
#
# Elastic Compliance Matrix: (Units=1/GPa)
#
#
# Indices 1 2 3 4 5 6 
#
# 1 0.014847 -0.003137 -0.001673 0.000000 0.006547 0.000000
# 2 -0.003137 0.014463 -0.004889 0.000000 -0.003985 0.000000
# 3 -0.001673 -0.004889 0.010012 0.000000 0.006083 0.000000
# 4 0.000000 0.000000 0.000000 0.024451 0.000000 0.002666
# 5 0.006547 -0.003985 0.006083 0.000000 0.038187 0.000000
# 6 0.000000 0.000000 0.000000 0.002666 0.000000 0.019542
#
#
# Mechanical properties :
#
#
# Convention : Reuss Voigt Hill
#
# Bulk Modulus (GPa) = 50.18992 61.37571 55.78282
# Shear Modulus (GPa) = 33.88876 39.05838 36.47357
#
# Velocity S-wave (km/s) = 4.11742 4.42033 4.27156
# Velocity P-wave (km/s) = 6.90740 7.53367 7.22733
#
# Compressibility (1/GPa) = 0.01992432
#
# Stress axis : x y z
#
# Youngs Moduli (GPa) = 67.35386 69.14249 99.87804
#
# Poissons Ratio (x) = 0.21688 0.16714
# Poissons Ratio (y) = 0.21127 0.48828
# Poissons Ratio (z) = 0.11271 0.33802
#
# Static dielectric constant tensor:
#      x y z
#    x 1.843620 0.000000 -0.010910 
#    y 0.000000 1.721620 0.000000 
#    z -0.010910 0.000000 1.741680 
# 
# From -- ./inp_files/130109.got.cif
#   From: 2010.05.17/outbox.cif.g08.bks.cpg/sg15_66_cif.got.tgz:130109.got - 2010.06.03 18:47:42.
