data_PCOD9275664
_publ_section_title
;
Structure prediction by ZEFSAII (Michael W. Deem and Ramdas Pophale) SiO2 
 PCOD9275664
Probable space group: C 2/C
;
_chemical_formula_sum "Si O2"
_cell_formula_units_Z 60
_cell_length_a 16.185957
_cell_length_b 28.780976
_cell_length_c 11.475597
_cell_angle_alpha 90.000000
_cell_angle_beta 146.527706
_cell_angle_gamma 90.000000
_cell_volume 2948.432781
_symmetry_space_group_name_H-M "C 2/C"
_symmetry_group_IT_number 15
_symmetry_cell_setting 'monoclinic'
loop_
_space_group_symop_operation_xyz
x,y,z
-x,y,1/2-z
-x,-y,-z
x,-y,1/2+z
1/2+x,1/2+y,z
1/2-x,1/2+y,1/2-z
1/2-x,1/2-y,-z
1/2+x,1/2-y,1/2+z
loop_
_atom_site_type_symbol
_atom_site_label
_atom_site_fract_x
_atom_site_fract_y
_atom_site_fract_z
Si Si1 0.170238 0.918715 0.406561
Si Si2 0.000000 0.725998 0.750000
Si Si3 0.104094 0.571788 0.111433
Si Si4 0.588883 0.209728 0.214640
Si Si5 0.123498 0.475759 0.998802
Si Si6 0.512381 0.707375 0.482910
Si Si7 0.207376 0.328659 0.081428
Si Si8 0.214538 0.664663 0.137162
O O1 0.275705 0.921749 0.643882
O O2 0.223429 0.959365 0.381656
O O3 0.217959 0.872597 0.392354
O O4 0.000000 0.918830 0.250000
O O5 0.021773 0.759044 0.664941
O O6 0.860638 0.692629 0.557040
O O7 0.131330 0.616140 0.061088
O O8 0.945244 0.561279 0.988922
O O9 0.136216 0.524825 0.077590
O O10 0.678088 0.206498 0.439258
O O11 0.686614 0.196164 0.219009
O O12 0.509196 0.258455 0.091943
O O13 0.461247 0.169337 0.069389
O O14 0.000000 0.478832 0.750000
O O15 0.681324 0.688846 0.688312
O O16 0.393808 0.665647 0.339729
#
# Coordination Sequence:
#
# PCOD9275664 Si02
#       8
#     8   4   8   8   8   8   8   8
#     4  11  22  38  61  92 124 155 192 242 308 365
#     4  10  24  40  58  82 122 166 206 250 294 352
#     4  10  20  39  63  93 118 152 202 246 303 359
#     4  10  21  36  57  87 116 155 199 245 298 345
#     4   9  21  39  66  88 123 153 194 250 299 364
#     4  11  23  40  58  83 121 163 202 247 304 354
#     4  11  22  36  59  88 121 156 193 249 298 359
#     4  11  21  37  63  86 116 157 205 253 288 359
#
# _framework density 20.349795
#
# number of rings (size 3 to 8) (size 9 to 14) (size 15 to 20)
#    0.000    1.600    1.333    4.000    4.667    2.667 
#    0.000    0.000    1.467    0.000    0.000    0.000 
#    0.000    0.000    0.000    0.000    0.000    0.000 
#
# Total GULP energy -167353.830413 kJ/mol
# GULP energy per Si atom -5578.461014 kJ/mol
# Density = 2.030348 g / cm^3
# Si number density = 20.349795 Si / 1000 Ang^3
#
#
#
# Elastic Constant Matrix: (Units=GPa)
#
#
# Indices 1 2 3 4 5 6 
#
# 1 59.3410 16.2497 25.1803 0.0000 10.2878 0.0000
# 2 16.2497 81.3510 9.5237 0.0000 -1.0001 0.0000
# 3 25.1803 9.5237 83.4617 0.0000 4.2948 0.0000
# 4 0.0000 0.0000 0.0000 11.2423 0.0000 -3.9154
# 5 10.2878 -1.0001 4.2948 0.0000 38.8174 0.0000
# 6 0.0000 0.0000 0.0000 -3.9154 0.0000 34.5952
#
#
#
# Elastic Compliance Matrix: (Units=1/GPa)
#
#
# Indices 1 2 3 4 5 6 
#
# 1 0.021141 -0.003617 -0.005705 0.000000 -0.005065 0.000000
# 2 -0.003617 0.013087 -0.000471 0.000000 0.001348 0.000000
# 3 -0.005705 -0.000471 0.013758 0.000000 -0.000022 0.000000
# 4 0.000000 0.000000 0.000000 0.092600 0.000000 0.010480
# 5 -0.005065 0.001348 -0.000022 0.000000 0.027141 0.000000
# 6 0.000000 0.000000 0.000000 0.010480 0.000000 0.030092
#
#
# Mechanical properties :
#
#
# Convention : Reuss Voigt Hill
#
# Bulk Modulus (GPa) = 35.21311 36.22899 35.72105
# Shear Modulus (GPa) = 22.03887 28.47765 25.25826
#
# Velocity S-wave (km/s) = 3.29447 3.74492 3.52690
# Velocity P-wave (km/s) = 5.64029 6.04492 5.84611
#
# Compressibility (1/GPa) = 0.02839851
#
# Stress axis : x y z
#
# Youngs Moduli (GPa) = 47.30105 76.41339 72.68691
#
# Poissons Ratio (x) = 0.27641 0.41467
# Poissons Ratio (y) = 0.17110 0.03426
# Poissons Ratio (z) = 0.26985 0.03602
#
# Static dielectric constant tensor:
#      x y z
#    x 1.747830 0.000000 0.011630 
#    y 0.000000 1.769340 0.000000 
#    z 0.011630 0.000000 1.707110 
# 
# From -- ./inp_files/108457.got.cif
#   From: 2010.05.17/outbox.cif.g08.bks.cpg/sg15_55_cif.got.tgz:108457.got - 2010.06.03 18:47:42.
