data_PCOD9275553
_publ_section_title
;
Structure prediction by ZEFSAII (Michael W. Deem and Ramdas Pophale) SiO2 
 PCOD9275553
Probable space group: C 2/C
;
_chemical_formula_sum "Si O2"
_cell_formula_units_Z 40
_cell_length_a 21.516798
_cell_length_b 10.278864
_cell_length_c 24.700159
_cell_angle_alpha 90.000000
_cell_angle_beta 161.115802
_cell_angle_gamma 90.000000
_cell_volume 1768.099967
_symmetry_space_group_name_H-M "C 2/C"
_symmetry_group_IT_number 15
_symmetry_cell_setting 'monoclinic'
loop_
_space_group_symop_operation_xyz
x,y,z
-x,y,1/2-z
-x,-y,-z
x,-y,1/2+z
1/2+x,1/2+y,z
1/2-x,1/2+y,1/2-z
1/2-x,1/2-y,-z
1/2+x,1/2-y,1/2+z
loop_
_atom_site_type_symbol
_atom_site_label
_atom_site_fract_x
_atom_site_fract_y
_atom_site_fract_z
Si Si1 0.987071 0.173443 0.454467
Si Si2 0.679366 0.063191 0.115723
Si Si3 0.302922 0.900700 0.471207
Si Si4 0.731196 0.901596 0.939953
Si Si5 0.255145 0.449309 0.845192
O O1 0.839506 0.111620 0.290000
O O2 0.860856 0.175303 0.405848
O O3 0.082058 0.305289 0.512370
O O4 0.159779 0.076112 0.613141
O O5 0.500000 0.000000 0.000000
O O6 0.765281 0.968065 0.140295
O O7 0.211635 0.948010 0.453170
O O8 0.282303 0.746409 0.464855
O O9 0.529633 0.930717 0.655282
O O10 0.500000 0.905135 0.750000
O O11 0.801183 0.978101 0.945732
#
# Coordination Sequence:
#
# PCOD9275553 Si02
#       5
#     8   8   8   8   8
#     4  11  25  39  63  94 134 173 221 266 333 395
#     4  12  24  40  63  93 133 171 218 272 331 387
#     4  10  20  39  62  95 128 167 219 269 325 385
#     4   9  20  37  66  95 127 169 221 272 322 383
#     4  10  21  40  60  91 128 172 216 270 323 387
#
# _framework density 22.623156000000002
#
# number of rings (size 3 to 8) (size 9 to 14) (size 15 to 20)
#    0.000    1.600    2.000    2.400    2.800    4.800 
#    0.000    1.000    0.000    3.600    0.000    0.000 
#    0.000    0.000    0.000    0.000    0.000    0.000 
#
# Total GULP energy -111540.032928 kJ/mol
# GULP energy per Si atom -5577.001646 kJ/mol
# Density = 2.257166 g / cm^3
# Si number density = 22.623156 Si / 1000 Ang^3
#
#
#
# Elastic Constant Matrix: (Units=GPa)
#
#
# Indices 1 2 3 4 5 6 
#
# 1 150.8682 17.4788 26.1524 0.0018 -1.6968 0.0002
# 2 17.4788 58.3128 9.9928 0.0004 2.3188 0.0003
# 3 26.1524 9.9928 83.5526 0.0026 -0.2536 0.0007
# 4 0.0018 0.0004 0.0026 28.8306 0.0008 -2.6316
# 5 -1.6968 2.3188 -0.2536 0.0008 24.7135 0.0000
# 6 0.0002 0.0003 0.0007 -2.6316 0.0000 34.4779
#
#
#
# Elastic Compliance Matrix: (Units=1/GPa)
#
#
# Indices 1 2 3 4 5 6 
#
# 1 0.007201 -0.001836 -0.002032 0.000000 0.000646 0.000000
# 2 -0.001836 0.018044 -0.001589 0.000000 -0.001835 0.000000
# 3 -0.002032 -0.001589 0.012795 -0.000001 0.000141 0.000000
# 4 0.000000 0.000000 -0.000001 0.034929 -0.000001 0.002666
# 5 0.000646 -0.001835 0.000141 -0.000001 0.040682 0.000000
# 6 0.000000 0.000000 0.000000 0.002666 0.000000 0.029208
#
#
# Mechanical properties :
#
#
# Convention : Reuss Voigt Hill
#
# Bulk Modulus (GPa) = 36.86513 44.44238 40.65376
# Shear Modulus (GPa) = 30.70986 33.54505 32.12746
#
# Velocity S-wave (km/s) = 3.68836 3.85486 3.77253
# Velocity P-wave (km/s) = 5.87106 6.28495 6.08152
#
# Compressibility (1/GPa) = 0.02712590
#
# Stress axis : x y z
#
# Youngs Moduli (GPa) = 138.87865 55.41881 78.15487
#
# Poissons Ratio (x) = 0.10173 0.15883
# Poissons Ratio (y) = 0.25494 0.12419
# Poissons Ratio (z) = 0.28224 0.08806
#
# Static dielectric constant tensor:
#      x y z
#    x 1.965100 0.000000 -0.079520 
#    y 0.000000 1.885720 0.000000 
#    z -0.079520 0.000000 1.860530 
# 
# From -- ./inp_files/318531.got.cif
#   From: 2010.05.17/outbox.cif.g08.bks.cpg/sg15_160_cif.got.tgz:318531.got - 2010.06.03 18:47:42.
