data_PCOD9275830
_publ_section_title
;
Structure prediction by ZEFSAII (Michael W. Deem and Ramdas Pophale) SiO2 
 PCOD9275830
Probable space group: C 2/C
;
_chemical_formula_sum "Si O2"
_cell_formula_units_Z 60
_cell_length_a 19.337925
_cell_length_b 23.730995
_cell_length_c 8.412718
_cell_angle_alpha 90.000000
_cell_angle_beta 42.417285
_cell_angle_gamma 90.000000
_cell_volume 2604.115771
_symmetry_space_group_name_H-M "C 2/C"
_symmetry_group_IT_number 15
_symmetry_cell_setting 'monoclinic'
loop_
_space_group_symop_operation_xyz
x,y,z
-x,y,1/2-z
-x,-y,-z
x,-y,1/2+z
1/2+x,1/2+y,z
1/2-x,1/2+y,1/2-z
1/2-x,1/2-y,-z
1/2+x,1/2-y,1/2+z
loop_
_atom_site_type_symbol
_atom_site_label
_atom_site_fract_x
_atom_site_fract_y
_atom_site_fract_z
Si Si1 0.463185 0.781455 0.061031
Si Si2 0.090486 0.163500 0.220049
Si Si3 0.610044 0.119069 0.610185
Si Si4 0.303299 0.178387 0.304268
Si Si5 0.138654 0.040479 0.789669
Si Si6 0.277359 0.435239 0.022344
Si Si7 0.727562 0.205822 0.809929
Si Si8 0.500000 0.540330 0.750000
O O1 0.451325 0.714541 0.102958
O O2 0.413346 0.816914 0.291593
O O3 0.389259 0.800977 0.045854
O O4 0.581132 0.798923 0.857630
O O5 0.136369 0.105256 0.205901
O O6 0.000000 0.150086 0.250000
O O7 0.190150 0.189125 0.961686
O O8 0.500000 0.094447 0.750000
O O9 0.681920 0.125180 0.334053
O O10 0.668323 0.087363 0.650056
O O11 0.252338 0.172750 0.561359
O O12 0.243813 0.228208 0.317437
O O13 0.072044 0.070610 0.761636
O O14 0.207663 0.997339 0.571354
O O15 0.203358 0.069436 0.821392
O O16 0.065398 0.002021 0.027013
#
# Coordination Sequence:
#
# PCOD9275830 Si02
#       8
#     8   8   8   8   8   8   8   4
#     4  11  19  38  60  87 125 167 202 245 298 367
#     4  12  22  35  60  93 123 164 211 242 300 385
#     4  10  20  39  65  88 118 162 210 246 307 380
#     4  10  21  35  55  86 128 164 198 253 298 351
#     4   9  20  38  61  83 120 148 206 257 313 368
#     4  11  23  40  63  90 115 163 209 260 317 372
#     4  11  20  35  55  82 125 166 202 248 299 351
#     4   8  16  36  62  82 108 164 176 242 326 366
#
# _framework density 23.040451000000001
#
# number of rings (size 3 to 8) (size 9 to 14) (size 15 to 20)
#    0.000    1.600    4.000    2.000    5.600    0.000 
#    4.800    0.667    2.933    0.000    0.000    0.000 
#    0.000    0.000    0.000    0.000    0.000    0.000 
#
# Total GULP energy -167457.853453 kJ/mol
# GULP energy per Si atom -5581.928448 kJ/mol
# Density = 2.298801 g / cm^3
# Si number density = 23.040451 Si / 1000 Ang^3
#
#
#
# Elastic Constant Matrix: (Units=GPa)
#
#
# Indices 1 2 3 4 5 6 
#
# 1 197.7578 26.0026 15.7248 0.0000 -4.4432 0.0000
# 2 26.0026 50.8472 5.4362 0.0000 -0.8775 0.0000
# 3 15.7248 5.4362 40.1309 0.0000 10.0037 0.0000
# 4 0.0000 0.0000 0.0000 16.1094 0.0000 1.7993
# 5 -4.4432 -0.8775 10.0037 0.0000 33.5911 0.0000
# 6 0.0000 0.0000 0.0000 1.7993 0.0000 30.4954
#
#
#
# Elastic Compliance Matrix: (Units=1/GPa)
#
#
# Indices 1 2 3 4 5 6 
#
# 1 0.005602 -0.002610 -0.002170 0.000000 0.001319 0.000000
# 2 -0.002610 0.021236 -0.002059 0.000000 0.000823 0.000000
# 3 -0.002170 -0.002059 0.028228 0.000000 -0.008748 0.000000
# 4 0.000000 0.000000 0.000000 0.062487 0.000000 -0.003687
# 5 0.001319 0.000823 -0.008748 0.000000 0.032571 0.000000
# 6 0.000000 0.000000 0.000000 -0.003687 0.000000 0.033009
#
#
# Mechanical properties :
#
#
# Convention : Reuss Voigt Hill
#
# Bulk Modulus (GPa) = 24.16194 42.56258 33.36226
# Shear Modulus (GPa) = 23.74073 32.14399 27.94236
#
# Velocity S-wave (km/s) = 3.21346 3.73917 3.48624
# Velocity P-wave (km/s) = 4.92726 6.09549 5.54224
#
# Compressibility (1/GPa) = 0.04138741
#
# Stress axis : x y z
#
# Youngs Moduli (GPa) = 178.50463 47.09020 35.42535
#
# Poissons Ratio (x) = 0.12291 0.07689
# Poissons Ratio (y) = 0.46590 0.07294
# Poissons Ratio (z) = 0.38743 0.09696
#
# Static dielectric constant tensor:
#      x y z
#    x 1.910460 0.000000 0.040100 
#    y 0.000000 1.901910 0.000000 
#    z 0.040100 0.000000 1.908720 
# 
# From -- ./inp_files/52168.got.cif
#   From: 2010.05.17/outbox.cif.g08.bks.cpg/sg15_27_cif.got.tgz:52168.got - 2010.06.03 18:47:42.
