data_PCOD9275344
_publ_section_title
;
Structure prediction by ZEFSAII (Michael W. Deem and Ramdas Pophale) SiO2 
 PCOD9275344
Probable space group: C 2/C
;
_chemical_formula_sum "Si O2"
_cell_formula_units_Z 52
_cell_length_a 9.199494
_cell_length_b 22.110121
_cell_length_c 21.282669
_cell_angle_alpha 90.000000
_cell_angle_beta 34.101123
_cell_angle_gamma 90.000000
_cell_volume 2427.040503
_symmetry_space_group_name_H-M "C 2/C"
_symmetry_group_IT_number 15
_symmetry_cell_setting 'monoclinic'
loop_
_space_group_symop_operation_xyz
x,y,z
-x,y,1/2-z
-x,-y,-z
x,-y,1/2+z
1/2+x,1/2+y,z
1/2-x,1/2+y,1/2-z
1/2-x,1/2-y,-z
1/2+x,1/2-y,1/2+z
loop_
_atom_site_type_symbol
_atom_site_label
_atom_site_fract_x
_atom_site_fract_y
_atom_site_fract_z
Si Si1 0.227302 0.500355 0.061319
Si Si2 0.781927 0.803567 0.631195
Si Si3 0.384989 0.588200 0.895309
Si Si4 0.576828 0.295673 0.406457
Si Si5 0.447301 0.772810 0.173059
Si Si6 0.876705 0.600236 0.639090
Si Si7 0.500000 0.923887 0.750000
O O1 0.124382 0.435181 0.076604
O O2 0.021343 0.533315 0.181598
O O3 0.500000 0.500000 0.000000
O O4 0.277159 0.538965 0.981317
O O5 0.500000 0.777595 0.750000
O O6 0.984484 0.781541 0.611208
O O7 0.735547 0.875741 0.654910
O O8 0.852606 0.780959 0.536346
O O9 0.478632 0.644797 0.904891
O O10 0.637353 0.571241 0.763879
O O11 0.170187 0.598552 0.918502
O O12 0.713213 0.255298 0.304312
O O13 0.817438 0.298387 0.369450
O O14 0.368746 0.829887 0.159865
#
# Coordination Sequence:
#
# PCOD9275344 Si02
#       7
#     8   8   8   8   8   8   4
#     4  12  22  40  64  90 128 171 220 270 326 396
#     4  10  22  39  63  94 132 169 216 273 333 400
#     4  10  20  39  60  88 125 160 207 266 323 387
#     4  10  20  40  65  88 128 169 217 267 327 401
#     4  10  22  39  64  95 123 166 221 270 325 396
#     4  10  23  36  63  94 121 161 216 268 324 385
#     4  10  24  40  62  96 132 176 220 264 340 390
#
# _framework density 21.425270999999999
#
# number of rings (size 3 to 8) (size 9 to 14) (size 15 to 20)
#    0.462    1.231    1.538    2.769    4.308    3.077 
#    2.769    0.000    0.000    0.000    0.000    0.000 
#    0.000    0.000    0.000    0.000    0.000    0.000 
#
# Total GULP energy -144825.998825 kJ/mol
# GULP energy per Si atom -5570.230724 kJ/mol
# Density = 2.137651 g / cm^3
# Si number density = 21.425271 Si / 1000 Ang^3
#
#
#
# Elastic Constant Matrix: (Units=GPa)
#
#
# Indices 1 2 3 4 5 6 
#
# 1 132.4476 30.9566 41.0132 0.0104 20.1280 -0.0202
# 2 30.9566 53.6294 4.9962 0.0035 9.0158 -0.0086
# 3 41.0132 4.9962 90.8300 -0.0016 20.0883 -0.0008
# 4 0.0104 0.0035 -0.0016 18.9112 -0.0036 -0.3649
# 5 20.1280 9.0158 20.0883 -0.0036 43.1055 0.0089
# 6 -0.0202 -0.0086 -0.0008 -0.3649 0.0089 37.6660
#
#
#
# Elastic Compliance Matrix: (Units=1/GPa)
#
#
# Indices 1 2 3 4 5 6 
#
# 1 0.010282 -0.005254 -0.003941 -0.000005 -0.001866 0.000005
# 2 -0.005254 0.022014 0.001825 -0.000001 -0.003002 0.000003
# 3 -0.003941 0.001825 0.013787 0.000002 -0.004967 0.000000
# 4 -0.000005 -0.000001 0.000002 0.052889 0.000006 0.000512
# 5 -0.001866 -0.003002 -0.004967 0.000006 0.027012 -0.000008
# 6 0.000005 0.000003 0.000000 0.000512 -0.000008 0.026554
#
#
# Mechanical properties :
#
#
# Convention : Reuss Voigt Hill
#
# Bulk Modulus (GPa) = 31.90479 47.87098 39.88788
# Shear Modulus (GPa) = 28.13312 33.26593 30.69952
#
# Velocity S-wave (km/s) = 3.62758 3.94464 3.78943
# Velocity P-wave (km/s) = 5.69818 6.56800 6.14849
#
# Compressibility (1/GPa) = 0.03134326
#
# Stress axis : x y z
#
# Youngs Moduli (GPa) = 97.25575 45.42554 72.53104
#
# Poissons Ratio (x) = 0.23868 0.28586
# Poissons Ratio (y) = 0.51102 -0.13240
# Poissons Ratio (z) = 0.38330 -0.08292
#
# Static dielectric constant tensor:
#      x y z
#    x 1.830100 0.000000 -0.062580 
#    y 0.000000 1.731360 0.000000 
#    z -0.062580 0.000000 1.845160 
# 
# From -- ./inp_files/234389.got.cif
#   From: 2010.05.17/outbox.cif.g08.bks.cpg/sg15_118_cif.got.tgz:234389.got - 2010.06.03 18:47:42.
