data_PCOD9275281
_publ_section_title
;
Structure prediction by ZEFSAII (Michael W. Deem and Ramdas Pophale) SiO2 
 PCOD9275281
Probable space group: C 2/C
;
_chemical_formula_sum "Si O2"
_cell_formula_units_Z 56
_cell_length_a 9.194372
_cell_length_b 19.455758
_cell_length_c 29.882268
_cell_angle_alpha 90.000000
_cell_angle_beta 33.150330
_cell_angle_gamma 90.000000
_cell_volume 2923.089882
_symmetry_space_group_name_H-M "C 2/C"
_symmetry_group_IT_number 15
_symmetry_cell_setting 'monoclinic'
loop_
_space_group_symop_operation_xyz
x,y,z
-x,y,1/2-z
-x,-y,-z
x,-y,1/2+z
1/2+x,1/2+y,z
1/2-x,1/2+y,1/2-z
1/2-x,1/2-y,-z
1/2+x,1/2-y,1/2+z
loop_
_atom_site_type_symbol
_atom_site_label
_atom_site_fract_x
_atom_site_fract_y
_atom_site_fract_z
Si Si1 0.973922 0.005673 0.191710
Si Si2 0.488925 0.916109 0.072399
Si Si3 0.075497 0.029145 0.566408
Si Si4 0.000000 0.658898 0.750000
Si Si5 0.134476 0.670483 0.978740
Si Si6 0.078887 0.272136 0.874152
Si Si7 0.500000 0.623269 0.250000
Si Si8 0.962517 0.567011 0.842232
O O1 0.069112 0.075477 0.190118
O O2 0.684706 0.992131 0.287456
O O3 0.189059 0.946598 0.147772
O O4 0.966562 0.005304 0.140097
O O5 0.510495 0.859218 0.027887
O O6 0.544473 0.893953 0.108874
O O7 0.690196 0.979399 0.010900
O O8 0.196858 0.103910 0.547405
O O9 0.827961 0.040336 0.597000
O O10 0.771565 0.707032 0.827498
O O11 0.076929 0.612084 0.771907
O O12 0.316828 0.737255 0.920954
O O13 0.974890 0.696505 0.063149
O O14 0.246774 0.328881 0.804327
#
# Coordination Sequence:
#
# PCOD9275281 Si02
#       8
#     8   8   8   4   8   8   4   8
#     4  11  20  36  58  88 124 152 201 257 309 364
#     4  11  22  36  60  93 123 154 198 265 314 358
#     4  11  21  37  60  89 126 158 198 255 319 371
#     4  11  20  40  58  86 114 165 204 236 304 375
#     4  10  20  39  59  87 114 162 210 246 300 364
#     4  10  21  36  63  80 117 162 210 244 285 372
#     4  11  20  34  58  94 114 155 212 248 302 363
#     4  12  21  37  60  92 123 158 197 257 318 370
#
# _framework density 19.157810000000001
#
# number of rings (size 3 to 8) (size 9 to 14) (size 15 to 20)
#    0.000    1.143    4.286    4.714    0.000    0.000 
#    0.000    0.714    0.000    6.857    0.000    0.000 
#    0.000    0.000    0.000    0.000    0.000    0.000 
#
# Total GULP energy -156104.286153 kJ/mol
# GULP energy per Si atom -5575.153077 kJ/mol
# Density = 1.911421 g / cm^3
# Si number density = 19.157810 Si / 1000 Ang^3
#
#
#
# Elastic Constant Matrix: (Units=GPa)
#
#
# Indices 1 2 3 4 5 6 
#
# 1 120.8944 35.3755 37.9704 -0.0127 7.1824 -0.0879
# 2 35.3755 79.6670 22.6953 0.0658 14.6683 -0.0341
# 3 37.9704 22.6953 67.0126 0.0752 6.4232 -0.1168
# 4 -0.0127 0.0658 0.0752 26.9317 0.0424 -3.0838
# 5 7.1824 14.6683 6.4232 0.0424 23.8698 0.0977
# 6 -0.0879 -0.0341 -0.1168 -3.0838 0.0977 14.2970
#
#
#
# Elastic Compliance Matrix: (Units=1/GPa)
#
#
# Indices 1 2 3 4 5 6 
#
# 1 0.010831 -0.003420 -0.004996 0.000030 0.000187 0.000023
# 2 -0.003420 0.016401 -0.002822 -0.000015 -0.008291 0.000048
# 3 -0.004996 -0.002822 0.018886 -0.000031 -0.001845 0.000123
# 4 0.000030 -0.000015 -0.000031 0.038072 -0.000092 0.008213
# 5 0.000187 -0.008291 -0.001845 -0.000092 0.047430 -0.000378
# 6 0.000023 0.000048 0.000123 0.008213 -0.000378 0.071720
#
#
# Mechanical properties :
#
#
# Convention : Reuss Voigt Hill
#
# Bulk Modulus (GPa) = 42.29916 51.07294 46.68605
# Shear Modulus (GPa) = 21.39511 24.45523 22.92517
#
# Velocity S-wave (km/s) = 3.34546 3.57671 3.46301
# Velocity P-wave (km/s) = 6.08687 6.61620 6.35705
#
# Compressibility (1/GPa) = 0.02364113
#
# Stress axis : x y z
#
# Youngs Moduli (GPa) = 92.33002 60.97023 52.94815
#
# Poissons Ratio (x) = 0.20854 0.26455
# Poissons Ratio (y) = 0.31581 0.14941
# Poissons Ratio (z) = 0.46132 0.17205
#
# Static dielectric constant tensor:
#      x y z
#    x 1.694750 -0.000010 -0.032900 
#    y -0.000010 1.658610 0.000000 
#    z -0.032900 0.000000 1.740480 
# 
# From -- ./inp_files/192048.got.cif
#   From: 2010.05.17/outbox.cif.g08.bks.cpg/sg15_97_cif.got.tgz:192048.got - 2010.06.03 18:47:42.
