data_PCOD9275677
_publ_section_title
;
Structure prediction by ZEFSAII (Michael W. Deem and Ramdas Pophale) SiO2 
 PCOD9275677
Probable space group: C 2/C
;
_chemical_formula_sum "Si O2"
_cell_formula_units_Z 52
_cell_length_a 11.680847
_cell_length_b 16.761355
_cell_length_c 20.006501
_cell_angle_alpha 90.000000
_cell_angle_beta 137.068658
_cell_angle_gamma 90.000000
_cell_volume 2667.959169
_symmetry_space_group_name_H-M "C 2/C"
_symmetry_group_IT_number 15
_symmetry_cell_setting 'monoclinic'
loop_
_space_group_symop_operation_xyz
x,y,z
-x,y,1/2-z
-x,-y,-z
x,-y,1/2+z
1/2+x,1/2+y,z
1/2-x,1/2+y,1/2-z
1/2-x,1/2-y,-z
1/2+x,1/2-y,1/2+z
loop_
_atom_site_type_symbol
_atom_site_label
_atom_site_fract_x
_atom_site_fract_y
_atom_site_fract_z
Si Si1 0.413713 0.005892 0.535253
Si Si2 0.793159 0.839049 0.538055
Si Si3 0.215151 0.583994 0.229960
Si Si4 0.817116 0.137378 0.532618
Si Si5 0.558648 0.583846 0.051961
Si Si6 0.000000 0.111424 0.250000
Si Si7 0.498232 0.776580 0.668899
O O1 0.357830 0.096680 0.523744
O O2 0.500000 0.000000 0.500000
O O3 0.553066 0.969584 0.644680
O O4 0.248491 0.948762 0.469741
O O5 0.750000 0.750000 0.500000
O O6 0.922650 0.873473 0.539443
O O7 0.885892 0.840622 0.649114
O O8 0.282553 0.568675 0.332752
O O9 0.362743 0.567651 0.238970
O O10 0.162562 0.678330 0.209789
O O11 0.903699 0.133308 0.497712
O O12 0.645327 0.182973 0.439195
O O13 0.945040 0.184308 0.635586
O O14 0.500000 0.500000 0.000000
O O15 0.500000 0.792588 0.750000
#
# Coordination Sequence:
#
# PCOD9275677 Si02
#       7
#     8   8   8   8   8   4   8
#     4  11  22  44  67  93 127 173 218 267 324 394
#     4  11  25  43  67  94 134 173 218 268 325 392
#     4  10  22  40  70  88 132 173 213 266 331 385
#     4  10  22  38  65  93 125 165 215 266 320 380
#     4  11  22  43  64  93 130 169 214 269 328 380
#     4  10  22  44  62  92 132 176 202 268 334 380
#     4  10  20  39  63  94 125 164 211 265 319 383
#
# _framework density 19.490552999999998
#
# number of rings (size 3 to 8) (size 9 to 14) (size 15 to 20)
#    0.000    1.538    4.615    0.000    2.154    1.231 
#    6.923    0.000    0.000    0.000    0.000    0.000 
#    0.000    0.000    0.000    0.000    0.000    0.000 
#
# Total GULP energy -144828.292444 kJ/mol
# GULP energy per Si atom -5570.318940 kJ/mol
# Density = 1.944619 g / cm^3
# Si number density = 19.490553 Si / 1000 Ang^3
#
#
#
# Elastic Constant Matrix: (Units=GPa)
#
#
# Indices 1 2 3 4 5 6 
#
# 1 87.9874 23.6203 23.1095 0.0000 -8.2104 0.0000
# 2 23.6203 118.5057 55.7846 0.0000 3.3038 0.0000
# 3 23.1095 55.7846 107.4671 0.0000 -2.3574 0.0000
# 4 0.0000 0.0000 0.0000 13.4636 0.0000 -3.3030
# 5 -8.2104 3.3038 -2.3574 0.0000 24.6905 0.0000
# 6 0.0000 0.0000 0.0000 -3.3030 0.0000 11.4806
#
#
#
# Elastic Compliance Matrix: (Units=1/GPa)
#
#
# Indices 1 2 3 4 5 6 
#
# 1 0.012708 -0.001868 -0.001668 0.000000 0.004316 0.000000
# 2 -0.001868 0.011546 -0.005651 0.000000 -0.002706 0.000000
# 3 -0.001668 -0.005651 0.012628 0.000000 0.001407 0.000000
# 4 0.000000 0.000000 0.000000 0.079915 0.000000 0.022992
# 5 0.004316 -0.002706 0.001407 0.000000 0.042433 0.000000
# 6 0.000000 0.000000 0.000000 0.022992 0.000000 0.093718
#
#
# Mechanical properties :
#
#
# Convention : Reuss Voigt Hill
#
# Bulk Modulus (GPa) = 54.03250 57.66545 55.84897
# Shear Modulus (GPa) = 18.01851 24.02334 21.02093
#
# Velocity S-wave (km/s) = 3.04382 3.51460 3.28764
# Velocity P-wave (km/s) = 6.33527 6.79120 6.56720
#
# Compressibility (1/GPa) = 0.01850738
#
# Stress axis : x y z
#
# Youngs Moduli (GPa) = 78.69277 86.60732 79.18733
#
# Poissons Ratio (x) = 0.16177 0.13211
# Poissons Ratio (y) = 0.14698 0.44751
# Poissons Ratio (z) = 0.13129 0.48944
#
# Static dielectric constant tensor:
#      x y z
#    x 1.685930 0.000000 0.024120 
#    y 0.000000 1.735570 0.000000 
#    z 0.024120 0.000000 1.704550 
# 
# From -- ./inp_files/239876.got.cif
#   From: 2010.05.17/outbox.cif.g08.bks.cpg/sg15_120_cif.got.tgz:239876.got - 2010.06.03 18:47:42.
