data_PCOD9275947
_publ_section_title
;
Structure prediction by ZEFSAII (Michael W. Deem and Ramdas Pophale) SiO2 
 PCOD9275947
Probable space group: C 2/C
;
_chemical_formula_sum "Si O2"
_cell_formula_units_Z 56
_cell_length_a 13.895420
_cell_length_b 18.116771
_cell_length_c 11.377017
_cell_angle_alpha 90.000000
_cell_angle_beta 88.767144
_cell_angle_gamma 90.000000
_cell_volume 2863.388876
_symmetry_space_group_name_H-M "C 2/C"
_symmetry_group_IT_number 15
_symmetry_cell_setting 'monoclinic'
loop_
_space_group_symop_operation_xyz
x,y,z
-x,y,1/2-z
-x,-y,-z
x,-y,1/2+z
1/2+x,1/2+y,z
1/2-x,1/2+y,1/2-z
1/2-x,1/2-y,-z
1/2+x,1/2-y,1/2+z
loop_
_atom_site_type_symbol
_atom_site_label
_atom_site_fract_x
_atom_site_fract_y
_atom_site_fract_z
Si Si1 0.090479 0.727600 0.951339
Si Si2 0.996447 0.418986 0.943623
Si Si3 0.909129 0.878896 0.184193
Si Si4 0.513228 0.374474 0.579304
Si Si5 0.209415 0.235063 0.683672
Si Si6 0.865255 0.953951 0.723465
Si Si7 0.158327 0.602430 0.259096
O O1 0.183200 0.721246 0.865382
O O2 0.016978 0.789401 0.907484
O O3 0.037703 0.649624 0.974536
O O4 0.137423 0.759399 0.072232
O O5 0.917578 0.416260 0.841368
O O6 0.100107 0.404562 0.881485
O O7 0.000000 0.500000 0.000000
O O8 0.821852 0.827105 0.223676
O O9 0.000000 0.845174 0.250000
O O10 0.892913 0.961008 0.232024
O O11 0.937577 0.883814 0.047853
O O12 0.414048 0.420686 0.603621
O O13 0.585489 0.406043 0.674970
O O14 0.197145 0.314727 0.742570
O O15 0.751683 0.947237 0.737911
#
# Coordination Sequence:
#
# PCOD9275947 Si02
#       7
#     8   8   8   8   8   8   8
#     4  10  20  39  66  90 123 165 214 261 307 383
#     4  10  23  40  66  94 122 164 212 267 316 367
#     4  12  23  36  63  96 126 160 216 268 316 375
#     4  11  22  42  61  93 129 166 205 255 323 383
#     4  10  21  37  65  94 117 168 216 260 313 370
#     4  11  25  40  63  92 134 170 199 263 328 380
#     4  10  22  44  63  87 126 163 214 258 314 379
#
# _framework density 19.557245000000002
#
# number of rings (size 3 to 8) (size 9 to 14) (size 15 to 20)
#    0.000    1.429    4.286    1.286    4.000    1.143 
#    0.000    7.143    0.000    0.000    0.000    0.000 
#    0.000    0.000    0.000    0.000    0.000    0.000 
#
# Total GULP energy -156318.942914 kJ/mol
# GULP energy per Si atom -5582.819390 kJ/mol
# Density = 1.951273 g / cm^3
# Si number density = 19.557245 Si / 1000 Ang^3
#
#
#
# Elastic Constant Matrix: (Units=GPa)
#
#
# Indices 1 2 3 4 5 6 
#
# 1 111.5659 42.4342 35.1238 0.0000 -39.5139 0.0000
# 2 42.4342 102.7556 29.9757 0.0000 -19.3646 0.0000
# 3 35.1238 29.9757 84.4912 0.0000 -34.2626 0.0000
# 4 0.0000 0.0000 0.0000 76.7578 0.0000 25.8471
# 5 -39.5139 -19.3646 -34.2626 0.0000 31.4901 0.0000
# 6 0.0000 0.0000 0.0000 25.8471 0.0000 48.4035
#
#
#
# Elastic Compliance Matrix: (Units=1/GPa)
#
#
# Indices 1 2 3 4 5 6 
#
# 1 0.017745 -0.003904 0.003694 0.000000 0.023884 0.000000
# 2 -0.003904 0.012074 -0.002928 0.000000 -0.000661 0.000000
# 3 0.003694 -0.002928 0.022349 0.000000 0.027151 0.000000
# 4 0.000000 0.000000 0.000000 0.015884 0.000000 -0.008482
# 5 0.023884 -0.000661 0.027151 0.000000 0.090862 0.000000
# 6 0.000000 0.000000 0.000000 -0.008482 0.000000 0.025189
#
#
# Mechanical properties :
#
#
# Convention : Reuss Voigt Hill
#
# Bulk Modulus (GPa) = 21.79105 57.09777 39.44441
# Shear Modulus (GPa) = 24.30994 44.08221 34.19607
#
# Velocity S-wave (km/s) = 3.52947 4.75279 4.18606
# Velocity P-wave (km/s) = 5.27028 7.70567 6.60126
#
# Compressibility (1/GPa) = 0.04589039
#
# Stress axis : x y z
#
# Youngs Moduli (GPa) = 56.35502 82.82281 44.74439
#
# Poissons Ratio (x) = 0.32337 -0.16529
# Poissons Ratio (y) = 0.22003 0.13103
# Poissons Ratio (z) = -0.20818 0.24254
#
# Static dielectric constant tensor:
#      x y z
#    x 6.308910 0.000000 -0.494360 
#    y 0.000000 1.663570 0.000000 
#    z -0.494360 0.000000 1.757870 
# 
# From -- ./inp_files/97005.got.cif
#   From: 2010.05.17/outbox.cif.g08.bks.cpg/sg15_49_cif.got.tgz:97005.got - 2010.06.03 18:47:42.
