data_PCOD9275730
_publ_section_title
;
Structure prediction by ZEFSAII (Michael W. Deem and Ramdas Pophale) SiO2 
 PCOD9275730
Probable space group: C 2/C
;
_chemical_formula_sum "Si O2"
_cell_formula_units_Z 48
_cell_length_a 28.789600
_cell_length_b 8.649839
_cell_length_c 14.870903
_cell_angle_alpha 90.000000
_cell_angle_beta 40.213512
_cell_angle_gamma 90.000000
_cell_volume 2390.946956
_symmetry_space_group_name_H-M "C 2/C"
_symmetry_group_IT_number 15
_symmetry_cell_setting 'monoclinic'
loop_
_space_group_symop_operation_xyz
x,y,z
-x,y,1/2-z
-x,-y,-z
x,-y,1/2+z
1/2+x,1/2+y,z
1/2-x,1/2+y,1/2-z
1/2-x,1/2-y,-z
1/2+x,1/2-y,1/2+z
loop_
_atom_site_type_symbol
_atom_site_label
_atom_site_fract_x
_atom_site_fract_y
_atom_site_fract_z
Si Si1 0.550260 0.370050 0.966596
Si Si2 0.693635 0.378159 0.047499
Si Si3 0.054050 0.681113 0.246316
Si Si4 0.809849 0.960054 0.246769
Si Si5 0.078433 0.443928 0.354123
Si Si6 0.208095 0.593756 0.260532
O O1 0.621005 0.455363 0.897706
O O2 0.576027 0.240041 0.857571
O O3 0.500000 0.500000 0.000000
O O4 0.500295 0.279072 0.110520
O O5 0.619990 0.294963 0.125621
O O6 0.681517 0.472823 0.157669
O O7 0.750000 0.250000 0.000000
O O8 0.733415 0.451131 0.903157
O O9 0.090377 0.538083 0.245010
O O10 0.000000 0.623465 0.250000
O O11 0.806133 0.777772 0.227229
O O12 0.740119 0.042415 0.308398
O O13 0.136250 0.502556 0.340849
O O14 0.000000 0.500000 0.500000
#
# Coordination Sequence:
#
# PCOD9275730 Si02
#       6
#     8   8   8   8   8   8
#     4  11  21  40  65  87 127 166 208 259 319 375
#     4  10  20  39  64  88 128 163 209 258 316 380
#     4  11  21  39  67  91 123 169 213 259 323 380
#     4  11  21  39  65  93 123 171 204 259 320 376
#     4  10  21  39  60  89 122 159 207 257 305 377
#     4  11  22  40  65  93 125 165 217 257 320 385
#
# _framework density 20.075726
#
# number of rings (size 3 to 8) (size 9 to 14) (size 15 to 20)
#    0.000    1.333    5.000    3.000    0.000    4.000 
#    0.000    4.167    0.000    0.000    0.000    0.000 
#    0.000    0.000    0.000    0.000    0.000    0.000 
#
# Total GULP energy -133849.711720 kJ/mol
# GULP energy per Si atom -5577.071322 kJ/mol
# Density = 2.003003 g / cm^3
# Si number density = 20.075726 Si / 1000 Ang^3
#
#
#
# Elastic Constant Matrix: (Units=GPa)
#
#
# Indices 1 2 3 4 5 6 
#
# 1 110.1851 32.2570 2.9484 0.0000 -33.7696 0.0000
# 2 32.2570 117.0305 15.5318 0.0000 -8.4521 0.0000
# 3 2.9484 15.5318 52.3617 0.0000 -24.6943 0.0000
# 4 0.0000 0.0000 0.0000 18.1052 0.0000 -14.2632
# 5 -33.7696 -8.4521 -24.6943 0.0000 30.9278 0.0000
# 6 0.0000 0.0000 0.0000 -14.2632 0.0000 30.2582
#
#
#
# Elastic Compliance Matrix: (Units=1/GPa)
#
#
# Indices 1 2 3 4 5 6 
#
# 1 0.020874 -0.005479 0.016830 0.000000 0.034733 0.000000
# 2 -0.005479 0.010338 -0.006812 0.000000 -0.008596 0.000000
# 3 0.016830 -0.006812 0.044847 0.000000 0.052323 0.000000
# 4 0.000000 0.000000 0.000000 0.087859 0.000000 0.041415
# 5 0.034733 -0.008596 0.052323 0.000000 0.109686 0.000000
# 6 0.000000 0.000000 0.000000 0.041415 0.000000 0.052571
#
#
# Mechanical properties :
#
#
# Convention : Reuss Voigt Hill
#
# Bulk Modulus (GPa) = 11.74558 42.33908 27.04233
# Shear Modulus (GPa) = 14.47277 31.11426 22.79352
#
# Velocity S-wave (km/s) = 2.68789 3.94108 3.37319
# Velocity P-wave (km/s) = 3.93654 6.46877 5.35450
#
# Compressibility (1/GPa) = 0.08513844
#
# Stress axis : x y z
#
# Youngs Moduli (GPa) = 47.90597 96.72941 22.29806
#
# Poissons Ratio (x) = 0.52995 -0.37528
# Poissons Ratio (y) = 0.26246 0.15189
# Poissons Ratio (z) = -0.80627 0.65892
#
# Static dielectric constant tensor:
#      x y z
#    x 2.100150 0.000000 -0.045490 
#    y 0.000000 1.727140 0.000000 
#    z -0.045490 0.000000 1.798080 
# 
# From -- ./inp_files/180714.got.cif
#   From: 2010.05.17/outbox.cif.g08.bks.cpg/sg15_91_cif.got.tgz:180714.got - 2010.06.03 18:47:42.
