data_PCOD9275687
_publ_section_title
;
Structure prediction by ZEFSAII (Michael W. Deem and Ramdas Pophale) SiO2 
 PCOD9275687
Probable space group: C 2/C
;
_chemical_formula_sum "Si O2"
_cell_formula_units_Z 60
_cell_length_a 12.683036
_cell_length_b 18.762390
_cell_length_c 27.755425
_cell_angle_alpha 90.000000
_cell_angle_beta 150.921203
_cell_angle_gamma 90.000000
_cell_volume 3210.009043
_symmetry_space_group_name_H-M "C 2/C"
_symmetry_group_IT_number 15
_symmetry_cell_setting 'monoclinic'
loop_
_space_group_symop_operation_xyz
x,y,z
-x,y,1/2-z
-x,-y,-z
x,-y,1/2+z
1/2+x,1/2+y,z
1/2-x,1/2+y,1/2-z
1/2-x,1/2-y,-z
1/2+x,1/2-y,1/2+z
loop_
_atom_site_type_symbol
_atom_site_label
_atom_site_fract_x
_atom_site_fract_y
_atom_site_fract_z
Si Si1 0.880958 0.401243 0.549041
Si Si2 0.754546 0.551159 0.644593
Si Si3 0.314243 0.803179 0.774304
Si Si4 0.577692 0.818314 0.030586
Si Si5 0.965814 0.191308 0.913753
Si Si6 0.180949 0.819682 0.943136
Si Si7 0.352395 0.462882 0.510584
Si Si8 0.500000 0.256192 0.250000
O O1 0.900153 0.379301 0.501000
O O2 0.683128 0.352904 0.490033
O O3 0.817002 0.482240 0.533248
O O4 0.086153 0.373760 0.661444
O O5 0.712314 0.632352 0.644275
O O6 0.587752 0.500407 0.606303
O O7 0.700685 0.545953 0.566770
O O8 0.000000 0.529298 0.750000
O O9 0.400888 0.737755 0.841554
O O10 0.400395 0.790115 0.754357
O O11 0.055149 0.805092 0.673414
O O12 0.800310 0.802433 0.148384
O O13 0.516623 0.746216 0.976870
O O14 0.375127 0.834551 0.983783
O O15 0.250000 0.750000 0.000000
O O16 0.152504 0.887212 0.966254
#
# Coordination Sequence:
#
# PCOD9275687 Si02
#       8
#     8   8   8   8   8   8   8   4
#     4  10  21  44  65  86 131 168 216 261 308 387
#     4  10  23  39  68  89 125 170 207 256 326 381
#     4  11  23  37  66  96 127 171 212 262 314 381
#     4  11  22  39  64  95 128 169 209 261 316 376
#     4  10  20  39  63  96 125 160 215 263 313 368
#     4  12  26  40  60  96 136 157 212 280 320 366
#     4  10  25  44  59  95 128 166 212 266 320 378
#     4  12  20  36  66  98 122 168 220 244 320 376
#
# _framework density 18.691535999999999
#
# number of rings (size 3 to 8) (size 9 to 14) (size 15 to 20)
#    0.000    1.333    4.000    1.600    5.600    3.200 
#    0.000    0.000    0.000    0.000    0.000    0.000 
#    0.000    0.000    0.000    0.000    0.000    0.000 
#
# Total GULP energy -167614.337399 kJ/mol
# GULP energy per Si atom -5587.144580 kJ/mol
# Density = 1.864899 g / cm^3
# Si number density = 18.691536 Si / 1000 Ang^3
#
#
#
# Elastic Constant Matrix: (Units=GPa)
#
#
# Indices 1 2 3 4 5 6 
#
# 1 86.2753 16.7426 20.2167 0.0000 -0.9639 -0.0001
# 2 16.7426 99.1424 13.4814 0.0004 -7.3409 0.0002
# 3 20.2167 13.4814 105.3915 0.0030 8.3411 -0.0002
# 4 0.0000 0.0004 0.0030 7.3119 -0.0001 10.6304
# 5 -0.9639 -7.3409 8.3411 -0.0001 29.6823 0.0002
# 6 -0.0001 0.0002 -0.0002 10.6304 0.0002 26.5260
#
#
#
# Elastic Compliance Matrix: (Units=1/GPa)
#
#
# Indices 1 2 3 4 5 6 
#
# 1 0.012457 -0.001759 -0.002211 0.000002 0.000591 -0.000001
# 2 -0.001759 0.010777 -0.001276 0.000000 0.002967 0.000000
# 3 -0.002211 -0.001276 0.010336 -0.000011 -0.003292 0.000004
# 4 0.000002 0.000000 -0.000011 0.327683 0.000005 -0.131321
# 5 0.000591 0.002967 -0.003292 0.000005 0.035368 -0.000002
# 6 -0.000001 0.000000 0.000004 -0.131321 -0.000002 0.090326
#
#
# Mechanical properties :
#
#
# Convention : Reuss Voigt Hill
#
# Bulk Modulus (GPa) = 43.33256 43.52118 43.42687
# Shear Modulus (GPa) = 9.89839 28.72859 19.31349
#
# Velocity S-wave (km/s) = 2.30372 3.92469 3.21795
# Velocity P-wave (km/s) = 5.50541 6.62360 6.09022
#
# Compressibility (1/GPa) = 0.02307733
#
# Stress axis : x y z
#
# Youngs Moduli (GPa) = 80.27632 92.79236 96.74586
#
# Poissons Ratio (x) = 0.16324 0.21393
# Poissons Ratio (y) = 0.14122 0.12343
# Poissons Ratio (z) = 0.17751 0.11839
#
# Static dielectric constant tensor:
#      x y z
#    x 1.656100 0.000000 0.018610 
#    y 0.000000 1.632460 0.000000 
#    z 0.018610 0.000000 1.659760 
# 
# From -- ./inp_files/119981.got.cif
#   From: 2010.05.17/outbox.cif.g08.bks.cpg/sg15_60_cif.got.tgz:119981.got - 2010.06.03 18:47:42.
