data_PCOD9275278
_publ_section_title
;
Structure prediction by ZEFSAII (Michael W. Deem and Ramdas Pophale) SiO2 
 PCOD9275278
Probable space group: C 2/C
;
_chemical_formula_sum "Si O2"
_cell_formula_units_Z 56
_cell_length_a 27.489846
_cell_length_b 10.251695
_cell_length_c 9.358238
_cell_angle_alpha 90.000000
_cell_angle_beta 106.647163
_cell_angle_gamma 90.000000
_cell_volume 2526.777820
_symmetry_space_group_name_H-M "C 2/C"
_symmetry_group_IT_number 15
_symmetry_cell_setting 'monoclinic'
loop_
_space_group_symop_operation_xyz
x,y,z
-x,y,1/2-z
-x,-y,-z
x,-y,1/2+z
1/2+x,1/2+y,z
1/2-x,1/2+y,1/2-z
1/2-x,1/2-y,-z
1/2+x,1/2-y,1/2+z
loop_
_atom_site_type_symbol
_atom_site_label
_atom_site_fract_x
_atom_site_fract_y
_atom_site_fract_z
Si Si1 0.277081 0.634545 0.328497
Si Si2 0.950061 0.754595 0.308642
Si Si3 0.103862 0.851882 0.619348
Si Si4 0.529008 0.896405 0.422259
Si Si5 0.112556 0.406519 0.943377
Si Si6 0.059680 0.982862 0.828499
Si Si7 0.268710 0.919807 0.407413
O O1 0.336502 0.619890 0.345538
O O2 0.262368 0.787093 0.310682
O O3 0.245213 0.544887 0.196098
O O4 0.265984 0.591743 0.481767
O O5 0.966918 0.735841 0.484655
O O6 0.910687 0.645274 0.224956
O O7 0.924824 0.890895 0.253619
O O8 0.000000 0.740831 0.250000
O O9 0.096993 0.707211 0.544782
O O10 0.073349 0.956657 0.494448
O O11 0.087428 0.864882 0.770791
O O12 0.500000 0.884722 0.250000
O O13 0.500000 0.000000 0.500000
O O14 0.584041 0.959325 0.447697
O O15 0.172639 0.419695 0.994722
O O16 0.000000 0.966099 0.750000
#
# Coordination Sequence:
#
# PCOD9275278 Si02
#       7
#     8   8   8   8   8   8   8
#     4  10  22  43  65  92 125 167 212 264 325 375
#     4  10  20  39  59  84 124 160 196 246 302 359
#     4  10  21  41  62  85 123 161 199 251 309 367
#     4  12  21  37  59  85 121 162 196 240 301 367
#     4  10  21  37  61  86 125 157 201 251 310 355
#     4  10  21  39  62  89 119 161 202 248 298 364
#     4  10  23  40  66  93 125 166 214 270 316 378
#
# _framework density 22.162614999999999
#
# number of rings (size 3 to 8) (size 9 to 14) (size 15 to 20)
#    0.000    1.714    2.857    1.286    2.000    1.714 
#    2.571    0.714    0.000    0.000    0.000    0.000 
#    0.000    0.000    0.000    0.000    0.000    0.000 
#
# Total GULP energy -156555.799807 kJ/mol
# GULP energy per Si atom -5591.278565 kJ/mol
# Density = 2.211217 g / cm^3
# Si number density = 22.162615 Si / 1000 Ang^3
#
#
#
# Elastic Constant Matrix: (Units=GPa)
#
#
# Indices 1 2 3 4 5 6 
#
# 1 84.4854 18.4603 8.3490 0.0000 7.3199 0.0000
# 2 18.4603 34.6049 20.8030 0.0000 8.0205 0.0000
# 3 8.3490 20.8030 86.0285 0.0000 5.5572 0.0000
# 4 0.0000 0.0000 0.0000 34.0587 0.0000 3.5232
# 5 7.3199 8.0205 5.5572 0.0000 27.6876 0.0000
# 6 0.0000 0.0000 0.0000 3.5232 0.0000 18.6863
#
#
#
# Elastic Compliance Matrix: (Units=1/GPa)
#
#
# Indices 1 2 3 4 5 6 
#
# 1 0.013483 -0.007134 0.000520 0.000000 -0.001602 0.000000
# 2 -0.007134 0.039561 -0.008364 0.000000 -0.007895 0.000000
# 3 0.000520 -0.008364 0.013625 0.000000 -0.000449 0.000000
# 4 0.000000 0.000000 0.000000 0.029945 0.000000 -0.005646
# 5 -0.001602 -0.007895 -0.000449 0.000000 0.038918 0.000000
# 6 0.000000 0.000000 0.000000 -0.005646 0.000000 0.054580
#
#
# Mechanical properties :
#
#
# Convention : Reuss Voigt Hill
#
# Bulk Modulus (GPa) = 27.23795 33.37147 30.30471
# Shear Modulus (GPa) = 21.52343 26.58698 24.05520
#
# Velocity S-wave (km/s) = 3.11972 3.46733 3.29811
# Velocity P-wave (km/s) = 5.02928 5.57854 5.31101
#
# Compressibility (1/GPa) = 0.03671348
#
# Stress axis : x y z
#
# Youngs Moduli (GPa) = 74.17021 25.27726 73.39347
#
# Poissons Ratio (x) = 0.18032 -0.03817
# Poissons Ratio (y) = 0.52910 0.61388
# Poissons Ratio (z) = -0.03857 0.21142
#
# Static dielectric constant tensor:
#      x y z
#    x 1.802850 0.000000 -0.052650 
#    y 0.000000 1.864450 0.000000 
#    z -0.052650 0.000000 1.850670 
# 
# From -- ./inp_files/65539.got.cif
#   From: 2010.05.17/outbox.cif.g08.bks.cpg/sg15_33_cif.got.tgz:65539.got - 2010.06.03 18:47:42.
