data_PCOD9275987
_publ_section_title
;
Structure prediction by ZEFSAII (Michael W. Deem and Ramdas Pophale) SiO2 
 PCOD9275987
Probable space group: C 2/C
;
_chemical_formula_sum "Si O2"
_cell_formula_units_Z 48
_cell_length_a 14.602089
_cell_length_b 8.685257
_cell_length_c 28.939528
_cell_angle_alpha 90.000000
_cell_angle_beta 40.515334
_cell_angle_gamma 90.000000
_cell_volume 2384.347635
_symmetry_space_group_name_H-M "C 2/C"
_symmetry_group_IT_number 15
_symmetry_cell_setting 'monoclinic'
loop_
_space_group_symop_operation_xyz
x,y,z
-x,y,1/2-z
-x,-y,-z
x,-y,1/2+z
1/2+x,1/2+y,z
1/2-x,1/2+y,1/2-z
1/2-x,1/2-y,-z
1/2+x,1/2-y,1/2+z
loop_
_atom_site_type_symbol
_atom_site_label
_atom_site_fract_x
_atom_site_fract_y
_atom_site_fract_z
Si Si1 0.293289 0.747563 0.172635
Si Si2 0.343572 0.579572 0.694625
Si Si3 0.372662 0.940308 0.836153
Si Si4 0.579512 0.980631 0.921684
Si Si5 0.167357 0.757838 0.682255
Si Si6 0.095636 0.272733 0.579374
O O1 0.320847 0.600248 0.194447
O O2 0.190666 0.858587 0.241280
O O3 0.235252 0.672978 0.147872
O O4 0.414755 0.860929 0.109197
O O5 0.236351 0.674268 0.701505
O O6 0.505193 0.619053 0.622101
O O7 0.500000 0.945500 0.750000
O O8 0.408498 0.869637 0.871624
O O9 0.321292 0.116719 0.858747
O O10 0.735257 0.903946 0.867004
O O11 0.492855 0.862363 0.924554
O O12 0.500000 0.000000 0.000000
O O13 0.000000 0.795130 0.750000
O O14 0.250000 0.250000 0.500000
#
# Coordination Sequence:
#
# PCOD9275987 Si02
#       6
#     8   8   8   8   8   8
#     4  11  22  40  66  92 131 168 225 270 333 388
#     4  10  21  40  65  98 126 173 214 277 328 398
#     4  10  20  39  66  96 126 168 221 274 328 398
#     4  11  25  44  61  95 138 174 222 280 330 397
#     4   9  21  39  68  92 126 167 224 269 329 389
#     4  11  23  43  65  94 137 175 215 270 343 400
#
# _framework density 20.131291999999998
#
# number of rings (size 3 to 8) (size 9 to 14) (size 15 to 20)
#    0.000    1.667    1.667    3.000    4.667    2.000 
#    9.000    6.667    0.000    0.000    0.000    0.000 
#    0.000    0.000    0.000    0.000    0.000    0.000 
#
# Total GULP energy -133899.288463 kJ/mol
# GULP energy per Si atom -5579.137019 kJ/mol
# Density = 2.008547 g / cm^3
# Si number density = 20.131292 Si / 1000 Ang^3
#
#
#
# Elastic Constant Matrix: (Units=GPa)
#
#
# Indices 1 2 3 4 5 6 
#
# 1 54.5252 15.2503 38.3811 0.0000 -13.2191 0.0003
# 2 15.2503 97.6334 54.9296 0.0000 0.3505 0.0005
# 3 38.3811 54.9296 126.7830 0.0000 -6.3366 0.0000
# 4 0.0000 0.0000 0.0000 20.7843 0.0000 1.9007
# 5 -13.2191 0.3505 -6.3366 0.0000 32.8566 0.0000
# 6 0.0003 0.0005 0.0000 1.9007 0.0000 15.2868
#
#
#
# Elastic Compliance Matrix: (Units=1/GPa)
#
#
# Indices 1 2 3 4 5 6 
#
# 1 0.025654 0.000106 -0.007367 0.000000 0.008899 -0.000001
# 2 0.000106 0.013598 -0.005986 0.000000 -0.001257 0.000000
# 3 -0.007367 -0.005986 0.012689 0.000000 -0.000453 0.000000
# 4 0.000000 0.000000 0.000000 0.048666 0.000000 -0.006051
# 5 0.008899 -0.001257 -0.000453 0.000000 0.033942 0.000000
# 6 -0.000001 0.000000 0.000000 -0.006051 0.000000 0.066168
#
#
# Mechanical properties :
#
#
# Convention : Reuss Voigt Hill
#
# Bulk Modulus (GPa) = 39.29987 55.11819 47.20903
# Shear Modulus (GPa) = 21.21382 25.14427 23.17905
#
# Velocity S-wave (km/s) = 3.24971 3.53797 3.39690
# Velocity P-wave (km/s) = 5.80043 6.64293 6.23592
#
# Compressibility (1/GPa) = 0.02544538
#
# Stress axis : x y z
#
# Youngs Moduli (GPa) = 38.98021 73.53786 78.80941
#
# Poissons Ratio (x) = -0.00778 0.58061
# Poissons Ratio (y) = -0.00412 0.47179
# Poissons Ratio (z) = 0.28718 0.44023
#
# Static dielectric constant tensor:
#      x y z
#    x 1.791550 0.000000 -0.005300 
#    y 0.000000 1.750130 0.000000 
#    z -0.005300 0.000000 1.732070 
# 
# From -- ./inp_files/295400.got.cif
#   From: 2010.05.17/outbox.cif.g08.bks.cpg/sg15_148_cif.got.tgz:295400.got - 2010.06.03 18:47:42.
