data_PCOD9275274
_publ_section_title
;
Structure prediction by ZEFSAII (Michael W. Deem and Ramdas Pophale) SiO2 
 PCOD9275274
Probable space group: C 2/C
;
_chemical_formula_sum "Si O2"
_cell_formula_units_Z 44
_cell_length_a 6.422173
_cell_length_b 13.361806
_cell_length_c 26.820572
_cell_angle_alpha 90.000000
_cell_angle_beta 108.149625
_cell_angle_gamma 90.000000
_cell_volume 2187.013087
_symmetry_space_group_name_H-M "C 2/C"
_symmetry_group_IT_number 15
_symmetry_cell_setting 'monoclinic'
loop_
_space_group_symop_operation_xyz
x,y,z
-x,y,1/2-z
-x,-y,-z
x,-y,1/2+z
1/2+x,1/2+y,z
1/2-x,1/2+y,1/2-z
1/2-x,1/2-y,-z
1/2+x,1/2-y,1/2+z
loop_
_atom_site_type_symbol
_atom_site_label
_atom_site_fract_x
_atom_site_fract_y
_atom_site_fract_z
Si Si1 0.297222 0.895046 0.706807
Si Si2 0.079112 0.740262 0.838875
Si Si3 0.500000 0.081405 0.750000
Si Si4 0.486853 0.844128 0.619617
Si Si5 0.025260 0.771776 0.554797
Si Si6 0.634354 0.903413 0.527554
O O1 0.500000 0.840236 0.750000
O O2 0.383915 0.906669 0.656833
O O3 0.076957 0.832621 0.688873
O O4 0.296635 0.003452 0.732260
O O5 0.330728 0.767515 0.847080
O O6 0.004724 0.648539 0.799421
O O7 0.051758 0.729321 0.896683
O O8 0.281405 0.790095 0.578966
O O9 0.606771 0.903788 0.584999
O O10 0.890710 0.876093 0.536671
O O11 0.972896 0.693091 0.507664
O O12 0.500000 0.000000 0.500000
#
# Coordination Sequence:
#
# PCOD9275274 Si02
#       6
#     8   8   4   8   8   8
#     4   9  21  38  57  87 118 147 202 241 279 353
#     4  10  20  40  61  83 121 154 192 245 292 342
#     4  10  22  38  64  86 112 162 194 236 302 338
#     4  10  20  39  59  82 122 153 183 249 289 336
#     4   9  21  40  56  84 120 147 193 240 285 345
#     4  10  21  36  61  87 112 154 194 233 289 347
#
# _framework density 20.118763000000001
#
# number of rings (size 3 to 8) (size 9 to 14) (size 15 to 20)
#    0.545    1.818    0.000    1.636    2.545    0.727 
#    9.818    5.455    0.000    0.000    0.000    0.000 
#    0.000    0.000    0.000    0.000    0.000    0.000 
#
# Total GULP energy -122479.042037 kJ/mol
# GULP energy per Si atom -5567.229184 kJ/mol
# Density = 2.007297 g / cm^3
# Si number density = 20.118763 Si / 1000 Ang^3
#
#
#
# Elastic Constant Matrix: (Units=GPa)
#
#
# Indices 1 2 3 4 5 6 
#
# 1 99.5949 38.2761 17.8250 0.0000 24.0398 0.0000
# 2 38.2761 79.3578 22.3538 0.0000 13.6503 0.0000
# 3 17.8250 22.3538 72.5120 0.0000 17.0940 0.0000
# 4 0.0000 0.0000 0.0000 27.8220 0.0000 8.3115
# 5 24.0398 13.6503 17.0940 0.0000 26.1134 0.0000
# 6 0.0000 0.0000 0.0000 8.3115 0.0000 16.4561
#
#
#
# Elastic Compliance Matrix: (Units=1/GPa)
#
#
# Indices 1 2 3 4 5 6 
#
# 1 0.014665 -0.005345 0.000670 0.000000 -0.011145 0.000000
# 2 -0.005345 0.016381 -0.003402 0.000000 -0.001415 0.000000
# 3 0.000670 -0.003402 0.017029 0.000000 -0.009986 0.000000
# 4 0.000000 0.000000 0.000000 0.042330 0.000000 -0.021380
# 5 -0.011145 -0.001415 -0.009986 0.000000 0.055831 0.000000
# 6 0.000000 0.000000 0.000000 -0.021380 0.000000 0.071566
#
#
# Mechanical properties :
#
#
# Convention : Reuss Voigt Hill
#
# Bulk Modulus (GPa) = 31.32782 45.37494 38.35138
# Shear Modulus (GPa) = 20.44184 25.61230 23.02707
#
# Velocity S-wave (km/s) = 3.19103 3.57186 3.38680
# Velocity P-wave (km/s) = 5.40205 6.29392 5.86496
#
# Compressibility (1/GPa) = 0.03192051
#
# Stress axis : x y z
#
# Youngs Moduli (GPa) = 68.18904 61.04637 58.72342
#
# Poissons Ratio (x) = 0.32629 -0.03935
# Poissons Ratio (y) = 0.36447 0.19980
# Poissons Ratio (z) = -0.04570 0.20770
#
# Static dielectric constant tensor:
#      x y z
#    x 1.751200 0.000000 0.000240 
#    y 0.000000 1.707520 0.000000 
#    z 0.000240 0.000000 1.752670 
# 
# From -- ./inp_files/285477.got.cif
#   From: 2010.05.17/outbox.cif.g08.bks.cpg/sg15_143_cif.got.tgz:285477.got - 2010.06.03 18:47:42.
