data_PCOD9275296
_publ_section_title
;
Structure prediction by ZEFSAII (Michael W. Deem and Ramdas Pophale) SiO2 
 PCOD9275296
Probable space group: C 2/C
;
_chemical_formula_sum "Si O2"
_cell_formula_units_Z 64
_cell_length_a 17.463317
_cell_length_b 17.377993
_cell_length_c 16.180515
_cell_angle_alpha 90.000000
_cell_angle_beta 29.876182
_cell_angle_gamma 90.000000
_cell_volume 2446.014697
_symmetry_space_group_name_H-M "C 2/C"
_symmetry_group_IT_number 15
_symmetry_cell_setting 'monoclinic'
loop_
_space_group_symop_operation_xyz
x,y,z
-x,y,1/2-z
-x,-y,-z
x,-y,1/2+z
1/2+x,1/2+y,z
1/2-x,1/2+y,1/2-z
1/2-x,1/2-y,-z
1/2+x,1/2-y,1/2+z
loop_
_atom_site_type_symbol
_atom_site_label
_atom_site_fract_x
_atom_site_fract_y
_atom_site_fract_z
Si Si1 0.574974 0.745586 0.598551
Si Si2 0.308603 0.972794 0.822962
Si Si3 0.647237 0.080688 0.031588
Si Si4 0.864871 0.283903 0.326508
Si Si5 0.763598 0.877893 0.199176
Si Si6 0.218605 0.274017 0.727265
Si Si7 0.458664 0.524282 0.693384
Si Si8 0.408873 0.640510 0.169802
O O1 0.500000 0.710182 0.750000
O O2 0.639962 0.829157 0.561670
O O3 0.705167 0.699555 0.429585
O O4 0.450853 0.757159 0.643088
O O5 0.307492 0.038609 0.750914
O O6 0.327689 0.970790 0.908139
O O7 0.479040 0.934866 0.648874
O O8 0.120683 0.958528 0.996202
O O9 0.797610 0.070007 0.832129
O O10 0.750000 0.250000 0.500000
O O11 0.776522 0.342904 0.353402
O O12 0.931110 0.214260 0.208606
O O13 0.000000 0.324073 0.250000
O O14 0.711859 0.807453 0.306330
O O15 0.948722 0.873546 0.025183
O O16 0.256433 0.336743 0.760992
O O17 0.500000 0.533032 0.750000
O O18 0.407184 0.436977 0.723046
#
# Coordination Sequence:
#
# PCOD9275296 Si02
#       8
#     8   8   8   8   8   8   8   8
#     4  12  25  50  75 100 131 174 244 309 356 414
#     4   9  19  38  64  99 140 177 224 279 345 412
#     4  10  21  41  68 105 138 176 237 291 342 410
#     4  11  21  28  49  90 130 187 232 264 322 395
#     4  10  21  38  62  94 143 183 221 281 347 432
#     4  11  25  45  69  99 135 182 231 292 366 421
#     4   9  19  35  66 102 138 189 224 270 343 419
#     4  10  20  39  59  91 146 181 221 284 343 423
#
# _framework density 26.165012000000001
#
# number of rings (size 3 to 8) (size 9 to 14) (size 15 to 20)
#    0.000    1.750    3.750    0.750    5.250    1.000 
#    2.250    3.125    0.000    3.000    0.000    0.000 
#    0.000    0.000    0.000    0.000    0.000    0.000 
#
# Total GULP energy -178441.337697 kJ/mol
# GULP energy per Si atom -5576.291803 kJ/mol
# Density = 2.610546 g / cm^3
# Si number density = 26.165012 Si / 1000 Ang^3
#
#
#
# Elastic Constant Matrix: (Units=GPa)
#
#
# Indices 1 2 3 4 5 6 
#
# 1 112.2958 28.4033 14.3194 0.0014 -43.4690 -0.0006
# 2 28.4033 81.6422 -16.9559 -0.0076 -3.2022 0.0013
# 3 14.3194 -16.9559 108.6685 -0.0029 -19.7152 -0.0009
# 4 0.0014 -0.0076 -0.0029 -13.0982 0.0041 4.7540
# 5 -43.4690 -3.2022 -19.7152 0.0041 42.1359 -0.0005
# 6 -0.0006 0.0013 -0.0009 4.7540 -0.0005 27.5998
#
#
#
# Elastic Compliance Matrix: (Units=1/GPa)
#
#
# Indices 1 2 3 4 5 6 
#
# 1 0.016747 -0.005151 0.000058 0.000010 0.016913 -0.000001
# 2 -0.005151 0.014409 0.002362 -0.000010 -0.003114 0.000001
# 3 0.000058 0.002362 0.010498 -0.000002 0.005151 0.000001
# 4 0.000010 -0.000010 -0.000002 -0.071854 0.000016 0.012377
# 5 0.016913 -0.003114 0.005151 0.000016 0.043354 -0.000001
# 6 -0.000001 0.000001 0.000001 0.012377 -0.000001 0.034100
#
#
# Mechanical properties :
#
#
# Convention : Reuss Voigt Hill
#
# Bulk Modulus (GPa) = 27.63028 39.34890 33.48959
# Shear Modulus (GPa) = 77.18369 29.78348 53.48359
#
# Velocity S-wave (km/s) = 5.43717 3.37752 4.52606
# Velocity P-wave (km/s) = 7.07107 5.50287 6.33568
#
# Compressibility (1/GPa) = 0.03619218
#
# Stress axis : x y z
#
# Youngs Moduli (GPa) = 59.71077 69.40081 95.25829
#
# Poissons Ratio (x) = 0.35749 -0.00551
# Poissons Ratio (y) = 0.30757 -0.22501
# Poissons Ratio (z) = -0.00345 -0.16393
#
# Static dielectric constant tensor:
#      x y z
#    x 2.069710 -0.000510 0.179870 
#    y -0.000510 2.846300 0.000040 
#    z 0.179870 0.000040 1.951710 
# 
# From -- ./inp_files/211969.got.cif
#   From: 2010.05.17/outbox.cif.g08.bks.cpg/sg15_106_cif.got.tgz:211969.got - 2010.06.03 18:47:42.
