data_PCOD9275447
_publ_section_title
;
Structure prediction by ZEFSAII (Michael W. Deem and Ramdas Pophale) SiO2 
 PCOD9275447
Probable space group: C 2/C
;
_chemical_formula_sum "Si O2"
_cell_formula_units_Z 40
_cell_length_a 13.247821
_cell_length_b 5.343361
_cell_length_c 24.247669
_cell_angle_alpha 90.000000
_cell_angle_beta 83.809972
_cell_angle_gamma 90.000000
_cell_volume 1706.434038
_symmetry_space_group_name_H-M "C 2/C"
_symmetry_group_IT_number 15
_symmetry_cell_setting 'monoclinic'
loop_
_space_group_symop_operation_xyz
x,y,z
-x,y,1/2-z
-x,-y,-z
x,-y,1/2+z
1/2+x,1/2+y,z
1/2-x,1/2+y,1/2-z
1/2-x,1/2-y,-z
1/2+x,1/2-y,1/2+z
loop_
_atom_site_type_symbol
_atom_site_label
_atom_site_fract_x
_atom_site_fract_y
_atom_site_fract_z
Si Si1 0.289391 0.723354 0.719680
Si Si2 0.149541 0.099561 0.020832
Si Si3 0.511537 0.824546 0.672606
Si Si4 0.874322 0.810770 0.851623
Si Si5 0.011150 0.704993 0.045974
O O1 0.261683 0.442785 0.740462
O O2 0.409396 0.766856 0.711249
O O3 0.240050 0.771584 0.662411
O O4 0.115641 0.211690 0.082627
O O5 0.127471 0.808226 0.037024
O O6 0.250000 0.250000 0.000000
O O7 0.077343 0.111740 0.971233
O O8 0.584879 0.582695 0.668687
O O9 0.483536 0.852963 0.609637
O O10 0.563275 0.089839 0.681767
O O11 0.000000 0.500000 0.000000
#
# Coordination Sequence:
#
# PCOD9275447 Si02
#       5
#     8   8   8   8   8
#     4  12  27  46  68  98 126 170 228 280 334 387
#     4  10  21  38  61  94 133 174 218 264 320 401
#     4  11  24  44  69  96 138 170 215 277 324 400
#     4  11  24  44  67  98 130 176 220 265 339 393
#     4  10  20  39  61  95 132 172 212 260 331 396
#
# _framework density 23.440695000000002
#
# number of rings (size 3 to 8) (size 9 to 14) (size 15 to 20)
#    0.000    1.200    2.000    3.600    0.000    5.600 
#    7.200    0.000    0.000    0.000    0.000    0.000 
#    0.000    0.000    0.000    0.000    0.000    0.000 
#
# Total GULP energy -111519.889469 kJ/mol
# GULP energy per Si atom -5575.994473 kJ/mol
# Density = 2.338734 g / cm^3
# Si number density = 23.440695 Si / 1000 Ang^3
#
#
#
# Elastic Constant Matrix: (Units=GPa)
#
#
# Indices 1 2 3 4 5 6 
#
# 1 82.1156 8.3990 -3.4436 0.0000 -10.3077 0.0000
# 2 8.3990 104.2795 5.8367 0.0000 -21.0906 0.0000
# 3 -3.4436 5.8367 81.1863 0.0000 3.2795 0.0000
# 4 0.0000 0.0000 0.0000 30.0744 0.0000 1.6679
# 5 -10.3077 -21.0906 3.2795 0.0000 49.2320 0.0000
# 6 0.0000 0.0000 0.0000 1.6679 0.0000 32.5115
#
#
#
# Elastic Compliance Matrix: (Units=1/GPa)
#
#
# Indices 1 2 3 4 5 6 
#
# 1 0.012551 -0.000561 0.000478 0.000000 0.002356 0.000000
# 2 -0.000561 0.010596 -0.000967 0.000000 0.004486 0.000000
# 3 0.000478 -0.000967 0.012453 0.000000 -0.001144 0.000000
# 4 0.000000 0.000000 0.000000 0.033346 0.000000 -0.001711
# 5 0.002356 0.004486 -0.001144 0.000000 0.022803 0.000000
# 6 0.000000 0.000000 0.000000 -0.001711 0.000000 0.030846
#
#
# Mechanical properties :
#
#
# Convention : Reuss Voigt Hill
#
# Bulk Modulus (GPa) = 29.85099 32.12951 30.99025
# Shear Modulus (GPa) = 36.80170 39.48286 38.14228
#
# Velocity S-wave (km/s) = 3.96661 4.10856 4.03821
# Velocity P-wave (km/s) = 5.80870 6.02026 5.91543
#
# Compressibility (1/GPa) = 0.03349972
#
# Stress axis : x y z
#
# Youngs Moduli (GPa) = 79.67444 94.37274 80.29987
#
# Poissons Ratio (x) = 0.05296 -0.03835
# Poissons Ratio (y) = 0.04471 0.07764
# Poissons Ratio (z) = -0.03805 0.09124
#
# Static dielectric constant tensor:
#      x y z
#    x 2.002490 0.000000 0.054770 
#    y 0.000000 2.083340 0.000000 
#    z 0.054770 0.000000 1.960550 
# 
# From -- ./inp_files/290529.got.cif
#   From: 2010.05.17/outbox.cif.g08.bks.cpg/sg15_146_cif.got.tgz:290529.got - 2010.06.03 18:47:42.
