data_PCOD9275587
_publ_section_title
;
Structure prediction by ZEFSAII (Michael W. Deem and Ramdas Pophale) SiO2 
 PCOD9275587
Probable space group: C 2/C
;
_chemical_formula_sum "Si O2"
_cell_formula_units_Z 28
_cell_length_a 16.516977
_cell_length_b 13.514485
_cell_length_c 5.284739
_cell_angle_alpha 90.000000
_cell_angle_beta 111.069170
_cell_angle_gamma 90.000000
_cell_volume 1100.788092
_symmetry_space_group_name_H-M "C 2/C"
_symmetry_group_IT_number 15
_symmetry_cell_setting 'monoclinic'
loop_
_space_group_symop_operation_xyz
x,y,z
-x,y,1/2-z
-x,-y,-z
x,-y,1/2+z
1/2+x,1/2+y,z
1/2-x,1/2+y,1/2-z
1/2-x,1/2-y,-z
1/2+x,1/2-y,1/2+z
loop_
_atom_site_type_symbol
_atom_site_label
_atom_site_fract_x
_atom_site_fract_y
_atom_site_fract_z
Si Si1 0.122651 0.212154 0.071014
Si Si2 0.132627 0.553997 0.603491
Si Si3 0.824854 0.893523 0.382473
Si Si4 0.000000 0.091953 0.250000
O O1 0.114643 0.329711 0.063901
O O2 0.182525 0.172128 0.370630
O O3 0.032732 0.163360 0.061900
O O4 0.157290 0.173803 0.842368
O O5 0.100750 0.495164 0.324591
O O6 0.238055 0.547426 0.734547
O O7 0.912738 0.956829 0.541109
#
# Coordination Sequence:
#
# PCOD9275587 Si02
#       4
#     8   8   8   4
#     4  10  20  39  63  87 111 154 205 235 278 342
#     4  12  24  38  58  92 124 150 184 244 304 342
#     4  10  20  39  63  87 111 154 205 235 278 342
#     4   8  22  34  70  84 106 154 212 232 274 330
#
# _framework density 25.436319999999998
#
# number of rings (size 3 to 8) (size 9 to 14) (size 15 to 20)
#    1.714    0.000    0.000    6.000    0.000    0.000 
#    0.000    2.857    0.000    0.000    0.000    0.000 
#    0.000    0.000    0.000    0.000    0.000    0.000 
#
# Total GULP energy -78334.325652 kJ/mol
# GULP energy per Si atom -5595.308975 kJ/mol
# Density = 2.537843 g / cm^3
# Si number density = 25.436320 Si / 1000 Ang^3
#
#
#
# Elastic Constant Matrix: (Units=GPa)
#
#
# Indices 1 2 3 4 5 6 
#
# 1 61.0159 -3.0967 74.9798 0.0000 56.6149 0.0000
# 2 -3.0967 110.3905 98.0864 0.0000 25.7689 0.0000
# 3 74.9798 98.0864 155.1033 0.0000 -111.3911 0.0000
# 4 0.0000 0.0000 0.0000 30.3718 0.0000 -40.2682
# 5 56.6149 25.7689 -111.3911 0.0000 -41.1827 0.0000
# 6 0.0000 0.0000 0.0000 -40.2682 0.0000 -37.6418
#
#
#
# Elastic Compliance Matrix: (Units=1/GPa)
#
#
# Indices 1 2 3 4 5 6 
#
# 1 0.008743 -0.002606 0.001659 0.000000 0.005900 0.000000
# 2 -0.002606 0.008793 -0.000993 0.000000 0.004605 0.000000
# 3 0.001659 -0.000993 0.002537 0.000000 -0.005203 0.000000
# 4 0.000000 0.000000 0.000000 0.013615 0.000000 -0.014565
# 5 0.005900 0.004605 -0.005203 0.000000 0.000783 0.000000
# 6 0.000000 0.000000 0.000000 -0.014565 0.000000 -0.010985
#
#
# Mechanical properties :
#
#
# Convention : Reuss Voigt Hill
#
# Bulk Modulus (GPa) = 61.75746 74.04986 67.90366
# Shear Modulus (GPa) = 152.60727 0.74547 76.67637
#
# Velocity S-wave (km/s) = 7.75410 0.54195 5.49635
# Velocity P-wave (km/s) = 10.22253 5.43752 8.18739
#
# Compressibility (1/GPa) = 0.01619238
#
# Stress axis : x y z
#
# Youngs Moduli (GPa) = 114.37642 113.72561 394.16744
#
# Poissons Ratio (x) = 0.29642 -0.65403
# Poissons Ratio (y) = 0.29811 0.39150
# Poissons Ratio (z) = -0.18978 0.11296
#
# Static dielectric constant tensor:
#      x y z
#    x 2.069930 0.000000 0.051460 
#    y 0.000000 1.926470 0.000000 
#    z 0.051460 0.000000 2.017290 
# 
# From -- ./inp_files/12649.got.cif
#   From: 2010.05.17/outbox.cif.g08.bks.cpg/sg15_7_cif.got.tgz:12649.got - 2010.06.03 18:47:42.
