data_PCOD9275841
_publ_section_title
;
Structure prediction by ZEFSAII (Michael W. Deem and Ramdas Pophale) SiO2 
 PCOD9275841
Probable space group: C 2/C
;
_chemical_formula_sum "Si O2"
_cell_formula_units_Z 44
_cell_length_a 8.148895
_cell_length_b 14.013762
_cell_length_c 17.395297
_cell_angle_alpha 90.000000
_cell_angle_beta 115.120983
_cell_angle_gamma 90.000000
_cell_volume 1798.590184
_symmetry_space_group_name_H-M "C 2/C"
_symmetry_group_IT_number 15
_symmetry_cell_setting 'monoclinic'
loop_
_space_group_symop_operation_xyz
x,y,z
-x,y,1/2-z
-x,-y,-z
x,-y,1/2+z
1/2+x,1/2+y,z
1/2-x,1/2+y,1/2-z
1/2-x,1/2-y,-z
1/2+x,1/2-y,1/2+z
loop_
_atom_site_type_symbol
_atom_site_label
_atom_site_fract_x
_atom_site_fract_y
_atom_site_fract_z
Si Si1 0.462826 0.392645 0.106297
Si Si2 0.999572 0.564072 0.160018
Si Si3 0.754848 0.396052 0.300256
Si Si4 0.314787 0.041757 0.505257
Si Si5 0.500000 0.234253 0.750000
Si Si6 0.853980 0.283113 0.914328
O O1 0.609507 0.403510 0.203217
O O2 0.302467 0.351849 0.129680
O O3 0.368552 0.488167 0.056658
O O4 0.553932 0.321115 0.063735
O O5 0.179825 0.504058 0.176502
O O6 0.003538 0.658782 0.110951
O O7 0.000000 0.582853 0.250000
O O8 0.843757 0.492858 0.098695
O O9 0.912225 0.332289 0.297077
O O10 0.500000 0.000000 0.500000
O O11 0.321949 0.152391 0.483165
O O12 0.668461 0.283915 0.826796
#
# Coordination Sequence:
#
# PCOD9275841 Si02
#       6
#     8   8   8   8   4   8
#     4  10  21  39  65  98 130 168 225 275 327 395
#     4  11  23  40  65  92 129 171 221 269 333 405
#     4  10  20  39  65  89 133 172 207 275 336 382
#     4  10  21  41  63  97 130 176 217 276 339 384
#     4  10  22  38  62  98 130 168 220 268 334 394
#     4  10  23  39  68  98 127 174 227 267 334 404
#
# _framework density 24.463605000000001
#
# number of rings (size 3 to 8) (size 9 to 14) (size 15 to 20)
#    0.000    1.818    4.545    0.000    7.636    2.909 
#    0.000    1.818    0.000    0.000    0.000    0.000 
#    0.000    0.000    0.000    0.000    0.000    0.000 
#
# Total GULP energy -122753.245636 kJ/mol
# GULP energy per Si atom -5579.692983 kJ/mol
# Density = 2.440793 g / cm^3
# Si number density = 24.463605 Si / 1000 Ang^3
#
#
#
# Elastic Constant Matrix: (Units=GPa)
#
#
# Indices 1 2 3 4 5 6 
#
# 1 78.5143 31.4628 14.3931 0.0000 -11.8163 0.0000
# 2 31.4628 93.0541 10.3495 0.0000 15.0255 0.0000
# 3 14.3931 10.3495 68.5198 0.0000 -2.6471 0.0000
# 4 0.0000 0.0000 0.0000 31.8931 0.0000 8.2559
# 5 -11.8163 15.0255 -2.6471 0.0000 35.6283 0.0000
# 6 0.0000 0.0000 0.0000 8.2559 0.0000 24.1837
#
#
#
# Elastic Compliance Matrix: (Units=1/GPa)
#
#
# Indices 1 2 3 4 5 6 
#
# 1 0.017198 -0.006932 -0.002239 0.000000 0.008461 0.000000
# 2 -0.006932 0.014588 -0.001077 0.000000 -0.008531 0.000000
# 3 -0.002239 -0.001077 0.015260 0.000000 0.000845 0.000000
# 4 0.000000 0.000000 0.000000 0.034394 0.000000 -0.011742
# 5 0.008461 -0.008531 0.000845 0.000000 0.034534 0.000000
# 6 0.000000 0.000000 0.000000 -0.011742 0.000000 0.045359
#
#
# Mechanical properties :
#
#
# Convention : Reuss Voigt Hill
#
# Bulk Modulus (GPa) = 37.66419 39.16652 38.41535
# Shear Modulus (GPa) = 26.22220 30.59987 28.41104
#
# Velocity S-wave (km/s) = 3.27752 3.54055 3.41157
# Velocity P-wave (km/s) = 5.45456 5.72353 5.59067
#
# Compressibility (1/GPa) = 0.02655042
#
# Stress axis : x y z
#
# Youngs Moduli (GPa) = 58.14561 68.55154 65.53133
#
# Poissons Ratio (x) = 0.47521 0.14670
# Poissons Ratio (y) = 0.40307 0.07056
# Poissons Ratio (z) = 0.13017 0.07381
#
# Static dielectric constant tensor:
#      x y z
#    x 2.069430 0.000000 0.012390 
#    y 0.000000 1.966160 0.000000 
#    z 0.012390 0.000000 2.028250 
# 
# From -- ./inp_files/231428.got.cif
#   From: 2010.05.17/outbox.cif.g08.bks.cpg/sg15_116_cif.got.tgz:231428.got - 2010.06.03 18:47:42.
