data_PCOD9275747
_publ_section_title
;
Structure prediction by ZEFSAII (Michael W. Deem and Ramdas Pophale) SiO2 
 PCOD9275747
Probable space group: C 2/C
;
_chemical_formula_sum "Si O2"
_cell_formula_units_Z 52
_cell_length_a 15.596470
_cell_length_b 5.638610
_cell_length_c 28.137802
_cell_angle_alpha 90.000000
_cell_angle_beta 62.755383
_cell_angle_gamma 90.000000
_cell_volume 2199.984838
_symmetry_space_group_name_H-M "C 2/C"
_symmetry_group_IT_number 15
_symmetry_cell_setting 'monoclinic'
loop_
_space_group_symop_operation_xyz
x,y,z
-x,y,1/2-z
-x,-y,-z
x,-y,1/2+z
1/2+x,1/2+y,z
1/2-x,1/2+y,1/2-z
1/2-x,1/2-y,-z
1/2+x,1/2-y,1/2+z
loop_
_atom_site_type_symbol
_atom_site_label
_atom_site_fract_x
_atom_site_fract_y
_atom_site_fract_z
Si Si1 0.985628 0.250243 0.151505
Si Si2 0.357454 0.986456 0.008122
Si Si3 0.000000 0.143092 0.250000
Si Si4 0.197800 0.931554 0.317386
Si Si5 0.128235 0.540609 0.386894
Si Si6 0.186733 0.818239 0.213629
Si Si7 0.871426 0.990407 0.953543
O O1 0.960854 0.471967 0.124374
O O2 0.063778 0.076069 0.108409
O O3 0.883225 0.119356 0.176622
O O4 0.007257 0.296565 0.200549
O O5 0.393058 0.745282 0.972582
O O6 0.384975 0.251101 0.982284
O O7 0.385424 0.963155 0.056164
O O8 0.240748 0.990197 0.032920
O O9 0.091230 0.965121 0.229563
O O10 0.149917 0.816033 0.375554
O O11 0.206271 0.791159 0.265680
O O12 0.299757 0.045448 0.305016
O O13 0.228199 0.443647 0.338163
#
# Coordination Sequence:
#
# PCOD9275747 Si02
#       7
#     8   8   4   8   8   8   8
#     4  10  24  41  67  96 139 171 231 284 345 416
#     4  10  24  43  72  96 136 181 234 278 360 407
#     4  10  22  44  68 104 130 178 228 286 354 416
#     4  10  21  39  62  92 129 179 217 275 342 418
#     4  11  23  40  66  98 130 183 223 281 346 421
#     4  10  20  39  64  90 134 173 224 277 340 417
#     4  10  23  47  66 101 135 180 229 295 339 421
#
# _framework density 23.636524000000001
#
# number of rings (size 3 to 8) (size 9 to 14) (size 15 to 20)
#    0.000    1.846    1.538    0.923    6.462    1.231 
#    2.769    6.923    0.000    0.000    0.000    0.000 
#    0.000    0.000    0.000    0.000    0.000    0.000 
#
# Total GULP energy -144995.528111 kJ/mol
# GULP energy per Si atom -5576.751081 kJ/mol
# Density = 2.358273 g / cm^3
# Si number density = 23.636524 Si / 1000 Ang^3
#
#
#
# Elastic Constant Matrix: (Units=GPa)
#
#
# Indices 1 2 3 4 5 6 
#
# 1 74.2182 34.4652 51.0794 0.0014 8.3794 0.0021
# 2 34.4652 85.5208 35.2984 0.0046 10.5749 0.0014
# 3 51.0794 35.2984 124.5116 0.0023 16.5858 0.0006
# 4 0.0014 0.0046 0.0023 34.1394 0.0000 -4.8072
# 5 8.3794 10.5749 16.5858 0.0000 42.9115 0.0003
# 6 0.0021 0.0014 0.0006 -4.8072 0.0003 20.2188
#
#
#
# Elastic Compliance Matrix: (Units=1/GPa)
#
#
# Indices 1 2 3 4 5 6 
#
# 1 0.020844 -0.005516 -0.006986 0.000000 -0.000011 -0.000001
# 2 -0.005516 0.014852 -0.001691 -0.000002 -0.001930 -0.000001
# 3 -0.006986 -0.001691 0.011744 0.000000 -0.002758 0.000000
# 4 0.000000 -0.000002 0.000000 0.030306 0.000000 0.007206
# 5 -0.000011 -0.001930 -0.002758 0.000000 0.024848 0.000000
# 6 -0.000001 -0.000001 0.000000 0.007206 0.000000 0.051172
#
#
# Mechanical properties :
#
#
# Convention : Reuss Voigt Hill
#
# Bulk Modulus (GPa) = 52.47718 58.43738 55.45728
# Shear Modulus (GPa) = 26.52471 30.34780 28.43625
#
# Velocity S-wave (km/s) = 3.35355 3.58709 3.47228
# Velocity P-wave (km/s) = 6.10287 6.47559 6.29199
#
# Compressibility (1/GPa) = 0.01905590
#
# Stress axis : x y z
#
# Youngs Moduli (GPa) = 47.97467 67.32948 85.14904
#
# Poissons Ratio (x) = 0.37136 0.59486
# Poissons Ratio (y) = 0.26461 0.14397
# Poissons Ratio (z) = 0.33515 0.11384
#
# Static dielectric constant tensor:
#      x y z
#    x 1.885260 0.000000 -0.010430 
#    y 0.000000 2.257980 0.000000 
#    z -0.010430 0.000000 1.977410 
# 
# From -- ./inp_files/297676.got.cif
#   From: 2010.05.17/outbox.cif.g08.bks.cpg/sg15_149_cif.got.tgz:297676.got - 2010.06.03 18:47:42.
