data_PCOD9275506
_publ_section_title
;
Structure prediction by ZEFSAII (Michael W. Deem and Ramdas Pophale) SiO2 
 PCOD9275506
Probable space group: C 2/C
;
_chemical_formula_sum "Si O2"
_cell_formula_units_Z 56
_cell_length_a 26.000924
_cell_length_b 9.709569
_cell_length_c 10.165754
_cell_angle_alpha 90.000000
_cell_angle_beta 70.202475
_cell_angle_gamma 90.000000
_cell_volume 2414.736105
_symmetry_space_group_name_H-M "C 2/C"
_symmetry_group_IT_number 15
_symmetry_cell_setting 'monoclinic'
loop_
_space_group_symop_operation_xyz
x,y,z
-x,y,1/2-z
-x,-y,-z
x,-y,1/2+z
1/2+x,1/2+y,z
1/2-x,1/2+y,1/2-z
1/2-x,1/2-y,-z
1/2+x,1/2-y,1/2+z
loop_
_atom_site_type_symbol
_atom_site_label
_atom_site_fract_x
_atom_site_fract_y
_atom_site_fract_z
Si Si1 0.079546 0.162269 0.758118
Si Si2 0.939065 0.795104 0.814562
Si Si3 0.398943 0.472538 0.521942
Si Si4 0.208576 0.202575 0.344635
Si Si5 0.052969 0.409518 0.958584
Si Si6 0.318045 0.154639 0.364357
Si Si7 0.135340 0.607325 0.767634
O O1 0.070316 0.129025 0.610889
O O2 0.049009 0.291702 0.849091
O O3 0.141667 0.220788 0.711274
O O4 0.075180 0.031702 0.863551
O O5 0.910133 0.725696 0.716261
O O6 0.000000 0.856427 0.750000
O O7 0.898097 0.894693 0.927367
O O8 0.946629 0.667179 0.904663
O O9 0.339293 0.411092 0.601164
O O10 0.269123 0.142555 0.301180
O O11 0.203987 0.301325 0.475616
O O12 0.189632 0.304825 0.246970
O O13 0.106031 0.505895 0.896810
O O14 0.000000 0.500000 0.000000
O O15 0.348965 0.009731 0.350395
#
# Coordination Sequence:
#
# PCOD9275506 Si02
#       7
#     8   8   8   8   8   8   8
#     4   9  20  38  65  90 128 163 208 262 313 381
#     4  11  22  39  61  90 125 163 209 268 310 376
#     4  10  21  40  60  92 127 164 206 260 315 386
#     4  10  21  39  61  88 129 168 206 260 321 379
#     4  10  20  39  62  89 124 166 212 263 315 368
#     4   9  21  39  61  92 125 165 212 262 312 382
#     4  11  21  38  64  91 121 165 215 263 316 375
#
# _framework density 23.190942
#
# number of rings (size 3 to 8) (size 9 to 14) (size 15 to 20)
#    0.000    2.000    1.429    1.714    2.000    0.000 
#    5.143    2.857    0.000    0.000    0.000    0.000 
#    0.000    0.000    0.000    0.000    0.000    0.000 
#
# Total GULP energy -156036.260496 kJ/mol
# GULP energy per Si atom -5572.723589 kJ/mol
# Density = 2.313816 g / cm^3
# Si number density = 23.190942 Si / 1000 Ang^3
#
#
#
# Elastic Constant Matrix: (Units=GPa)
#
#
# Indices 1 2 3 4 5 6 
#
# 1 59.2237 33.0124 8.0942 0.0000 2.8477 0.0000
# 2 33.0124 88.1275 5.1234 0.0000 0.8806 0.0000
# 3 8.0942 5.1234 51.7158 0.0000 3.6240 0.0000
# 4 0.0000 0.0000 0.0000 17.0824 0.0000 -3.8853
# 5 2.8477 0.8806 3.6240 0.0000 17.7781 0.0000
# 6 0.0000 0.0000 0.0000 -3.8853 0.0000 28.0435
#
#
#
# Elastic Compliance Matrix: (Units=1/GPa)
#
#
# Indices 1 2 3 4 5 6 
#
# 1 0.021802 -0.007999 -0.002438 0.000000 -0.002599 0.000000
# 2 -0.007999 0.014350 -0.000213 0.000000 0.000614 0.000000
# 3 -0.002438 -0.000213 0.019997 0.000000 -0.003675 0.000000
# 4 0.000000 0.000000 0.000000 0.060444 0.000000 0.008374
# 5 -0.002599 0.000614 -0.003675 0.000000 0.057384 0.000000
# 6 0.000000 0.000000 0.000000 0.008374 0.000000 0.036819
#
#
# Mechanical properties :
#
#
# Convention : Reuss Voigt Hill
#
# Bulk Modulus (GPa) = 28.69497 32.39190 30.54343
# Shear Modulus (GPa) = 20.51599 22.76994 21.64297
#
# Velocity S-wave (km/s) = 2.97754 3.13684 3.05823
# Velocity P-wave (km/s) = 4.92151 5.20745 5.06649
#
# Compressibility (1/GPa) = 0.03484931
#
# Stress axis : x y z
#
# Youngs Moduli (GPa) = 45.86675 69.68651 50.00856
#
# Poissons Ratio (x) = 0.55745 0.12191
# Poissons Ratio (y) = 0.36691 0.01063
# Poissons Ratio (z) = 0.11181 0.01482
#
# Static dielectric constant tensor:
#      x y z
#    x 2.089310 0.000000 0.116650 
#    y 0.000000 1.889370 0.000000 
#    z 0.116650 0.000000 1.984750 
# 
# From -- ./inp_files/125535.got.cif
#   From: 2010.05.17/outbox.cif.g08.bks.cpg/sg15_63_cif.got.tgz:125535.got - 2010.06.03 18:47:42.
