data_PCOD9275012
_publ_section_title
;
Structure prediction by ZEFSAII (Michael W. Deem and Ramdas Pophale) SiO2 
 PCOD9275012
Probable space group: C 2/C
;
_chemical_formula_sum "Si O2"
_cell_formula_units_Z 52
_cell_length_a 6.142029
_cell_length_b 14.927989
_cell_length_c 23.851639
_cell_angle_alpha 90.000000
_cell_angle_beta 79.263445
_cell_angle_gamma 90.000000
_cell_volume 2148.628666
_symmetry_space_group_name_H-M "C 2/C"
_symmetry_group_IT_number 15
_symmetry_cell_setting 'monoclinic'
loop_
_space_group_symop_operation_xyz
x,y,z
-x,y,1/2-z
-x,-y,-z
x,-y,1/2+z
1/2+x,1/2+y,z
1/2-x,1/2+y,1/2-z
1/2-x,1/2-y,-z
1/2+x,1/2-y,1/2+z
loop_
_atom_site_type_symbol
_atom_site_label
_atom_site_fract_x
_atom_site_fract_y
_atom_site_fract_z
Si Si1 0.321941 0.821290 0.950941
Si Si2 0.101761 0.555403 0.642772
Si Si3 0.289472 0.062215 0.554749
Si Si4 0.453885 0.300890 0.135886
Si Si5 0.000000 0.292044 0.750000
Si Si6 0.216160 0.944499 0.713236
Si Si7 0.996577 0.914255 0.608737
O O1 0.530062 0.784603 0.906418
O O2 0.121636 0.833158 0.916661
O O3 0.250000 0.750000 0.000000
O O4 0.346194 0.907107 0.989447
O O5 0.220725 0.648123 0.652710
O O6 0.289483 0.479213 0.633293
O O7 0.997704 0.562904 0.586077
O O8 0.906167 0.516662 0.691186
O O9 0.118562 0.128919 0.596622
O O10 0.158899 0.968782 0.560043
O O11 0.532031 0.267429 0.193029
O O12 0.198267 0.361913 0.753682
O O13 0.132662 0.903214 0.658811
O O14 0.000000 0.989560 0.750000
#
# Coordination Sequence:
#
# PCOD9275012 Si02
#       7
#     8   8   8   8   4   8   8
#     4  10  20  38  67  96 137 186 226 285 343 407
#     4  10  22  43  64  98 133 175 228 285 346 413
#     4   9  21  41  65  96 136 181 230 281 340 408
#     4  10  23  43  63  99 138 172 229 286 348 412
#     4  12  26  46  68 100 132 176 230 284 352 412
#     4  11  23  42  68  93 129 179 235 282 343 418
#     4  10  21  41  63  97 135 176 234 287 336 410
#
# _framework density 24.201483
#
# number of rings (size 3 to 8) (size 9 to 14) (size 15 to 20)
#    0.000    1.846    0.000    3.231    0.000    4.923 
#   23.538    6.154    0.000    0.000    0.000    0.000 
#    0.000    0.000    0.000    0.000    0.000    0.000 
#
# Total GULP energy -145473.416488 kJ/mol
# GULP energy per Si atom -5595.131403 kJ/mol
# Density = 2.414640 g / cm^3
# Si number density = 24.201483 Si / 1000 Ang^3
#
#
#
# Elastic Constant Matrix: (Units=GPa)
#
#
# Indices 1 2 3 4 5 6 
#
# 1 136.7898 55.8321 59.0479 0.0000 -4.4607 0.0000
# 2 55.8321 77.8095 60.6132 0.0000 -8.4539 0.0000
# 3 59.0479 60.6132 143.7052 0.0000 -12.3384 0.0000
# 4 0.0000 0.0000 0.0000 26.2409 0.0000 15.3748
# 5 -4.4607 -8.4539 -12.3384 0.0000 36.8422 0.0000
# 6 0.0000 0.0000 0.0000 15.3748 0.0000 41.1578
#
#
#
# Elastic Compliance Matrix: (Units=1/GPa)
#
#
# Indices 1 2 3 4 5 6 
#
# 1 0.010634 -0.006342 -0.001759 0.000000 -0.000757 0.000000
# 2 -0.006342 0.023032 -0.006920 0.000000 0.002200 0.000000
# 3 -0.001759 -0.006920 0.010755 0.000000 0.001801 0.000000
# 4 0.000000 0.000000 0.000000 0.048786 0.000000 -0.018225
# 5 -0.000757 0.002200 0.001801 0.000000 0.028159 0.000000
# 6 0.000000 0.000000 0.000000 -0.018225 0.000000 0.031105
#
#
# Mechanical properties :
#
#
# Convention : Reuss Voigt Hill
#
# Bulk Modulus (GPa) = 69.54908 78.81009 74.17958
# Shear Modulus (GPa) = 26.69421 33.03560 29.86490
#
# Velocity S-wave (km/s) = 3.32475 3.69863 3.51666
# Velocity P-wave (km/s) = 6.59837 7.13265 6.87070
#
# Compressibility (1/GPa) = 0.01437834
#
# Stress axis : x y z
#
# Youngs Moduli (GPa) = 94.03961 43.41755 92.97980
#
# Poissons Ratio (x) = 0.27535 0.16359
# Poissons Ratio (y) = 0.59639 0.64342
# Poissons Ratio (z) = 0.16546 0.30045
#
# Static dielectric constant tensor:
#      x y z
#    x 1.925650 0.000000 -0.012000 
#    y 0.000000 2.027490 0.000000 
#    z -0.012000 0.000000 1.915510 
# 
# From -- ./inp_files/285814.got.cif
#   From: 2010.05.17/outbox.cif.g08.bks.cpg/sg15_143_cif.got.tgz:285814.got - 2010.06.03 18:47:42.
