data_PCOD9275736
_publ_section_title
;
Structure prediction by ZEFSAII (Michael W. Deem and Ramdas Pophale) SiO2 
 PCOD9275736
Probable space group: C 2/C
;
_chemical_formula_sum "Si O2"
_cell_formula_units_Z 60
_cell_length_a 11.916551
_cell_length_b 7.666778
_cell_length_c 26.901967
_cell_angle_alpha 90.000000
_cell_angle_beta 78.762679
_cell_angle_gamma 90.000000
_cell_volume 2410.685437
_symmetry_space_group_name_H-M "C 2/C"
_symmetry_group_IT_number 15
_symmetry_cell_setting 'monoclinic'
loop_
_space_group_symop_operation_xyz
x,y,z
-x,y,1/2-z
-x,-y,-z
x,-y,1/2+z
1/2+x,1/2+y,z
1/2-x,1/2+y,1/2-z
1/2-x,1/2-y,-z
1/2+x,1/2-y,1/2+z
loop_
_atom_site_type_symbol
_atom_site_label
_atom_site_fract_x
_atom_site_fract_y
_atom_site_fract_z
Si Si1 0.175190 0.907802 0.814392
Si Si2 0.605271 0.899409 0.884969
Si Si3 0.432512 0.242998 0.008742
Si Si4 0.611444 0.083226 0.647336
Si Si5 0.785137 0.545201 0.957511
Si Si6 0.144545 0.234364 0.420343
Si Si7 0.000000 0.561202 0.750000
Si Si8 0.826602 0.728078 0.221599
O O1 0.291207 0.972968 0.832616
O O2 0.108871 0.842410 0.868908
O O3 0.219224 0.772560 0.768751
O O4 0.127416 0.075235 0.789004
O O5 0.488693 0.966456 0.868882
O O6 0.687419 0.826120 0.834907
O O7 0.664045 0.064961 0.905630
O O8 0.565315 0.770940 0.932095
O O9 0.542935 0.290500 0.968236
O O10 0.385836 0.062180 0.988264
O O11 0.329426 0.378529 0.008753
O O12 0.672951 0.161421 0.593541
O O13 0.548118 0.172283 0.699567
O O14 0.752181 0.361106 0.936379
O O15 0.091082 0.421646 0.764303
#
# Coordination Sequence:
#
# PCOD9275736 Si02
#       8
#     8   8   8   8   8   8   4   8
#     4  10  21  39  63  89 122 162 204 258 308 382
#     4  11  21  37  62  90 122 160 204 260 308 382
#     4  11  23  41  61  86 125 167 210 259 317 372
#     4   9  18  36  57  86 117 156 199 245 318 366
#     4  10  22  39  61  84 123 161 205 257 309 378
#     4  11  22  38  63  90 122 161 218 253 318 376
#     4   8  18  34  62  86 118 152 194 252 304 368
#     4  10  20  39  64  89 124 160 201 254 317 367
#
# _framework density 24.889185000000001
#
# number of rings (size 3 to 8) (size 9 to 14) (size 15 to 20)
#    0.000    1.867    1.333    3.200    0.000    0.533 
#    2.400    1.333   11.733    0.000    0.000    0.000 
#    0.000    0.000    0.000    0.000    0.000    0.000 
#
# Total GULP energy -167382.303755 kJ/mol
# GULP energy per Si atom -5579.410125 kJ/mol
# Density = 2.483254 g / cm^3
# Si number density = 24.889185 Si / 1000 Ang^3
#
#
#
# Elastic Constant Matrix: (Units=GPa)
#
#
# Indices 1 2 3 4 5 6 
#
# 1 65.1602 12.0305 31.9804 0.0000 1.2761 0.0000
# 2 12.0305 66.8108 28.1693 0.0000 -6.2667 0.0000
# 3 31.9804 28.1693 218.4680 0.0000 -32.1365 0.0000
# 4 0.0000 0.0000 0.0000 45.2961 0.0000 -0.0171
# 5 1.2761 -6.2667 -32.1365 0.0000 51.0922 0.0000
# 6 0.0000 0.0000 0.0000 -0.0171 0.0000 19.0116
#
#
#
# Elastic Compliance Matrix: (Units=1/GPa)
#
#
# Indices 1 2 3 4 5 6 
#
# 1 0.017051 -0.002211 -0.002549 0.000000 -0.002301 0.000000
# 2 -0.002211 0.016139 -0.001607 0.000000 0.001024 0.000000
# 3 -0.002549 -0.001607 0.005662 0.000000 0.003428 0.000000
# 4 0.000000 0.000000 0.000000 0.022077 0.000000 0.000020
# 5 -0.002301 0.001024 0.003428 0.000000 0.021912 0.000000
# 6 0.000000 0.000000 0.000000 0.000020 0.000000 0.052599
#
#
# Mechanical properties :
#
#
# Convention : Reuss Voigt Hill
#
# Bulk Modulus (GPa) = 38.28787 54.97771 46.63279
# Shear Modulus (GPa) = 31.87126 41.63058 36.75092
#
# Velocity S-wave (km/s) = 3.58233 4.09423 3.84680
# Velocity P-wave (km/s) = 5.70329 6.66987 6.20543
#
# Compressibility (1/GPa) = 0.02611793
#
# Stress axis : x y z
#
# Youngs Moduli (GPa) = 58.64646 61.96060 176.61853
#
# Poissons Ratio (x) = 0.13701 0.45026
# Poissons Ratio (y) = 0.12969 0.28376
# Poissons Ratio (z) = 0.14951 0.09955
#
# Static dielectric constant tensor:
#      x y z
#    x 2.023890 0.000000 -0.039930 
#    y 0.000000 2.064790 0.000000 
#    z -0.039930 0.000000 2.042590 
# 
# From -- ./inp_files/294808.got.cif
#   From: 2010.05.17/outbox.cif.g08.bks.cpg/sg15_148_cif.got.tgz:294808.got - 2010.06.03 18:47:42.
