data_PCOD9275312
_publ_section_title
;
Structure prediction by ZEFSAII (Michael W. Deem and Ramdas Pophale) SiO2 
 PCOD9275312
Probable space group: C 2/C
;
_chemical_formula_sum "Si O2"
_cell_formula_units_Z 52
_cell_length_a 11.343758
_cell_length_b 29.137547
_cell_length_c 12.205531
_cell_angle_alpha 90.000000
_cell_angle_beta 136.053034
_cell_angle_gamma 90.000000
_cell_volume 2799.762756
_symmetry_space_group_name_H-M "C 2/C"
_symmetry_group_IT_number 15
_symmetry_cell_setting 'monoclinic'
loop_
_space_group_symop_operation_xyz
x,y,z
-x,y,1/2-z
-x,-y,-z
x,-y,1/2+z
1/2+x,1/2+y,z
1/2-x,1/2+y,1/2-z
1/2-x,1/2-y,-z
1/2+x,1/2-y,1/2+z
loop_
_atom_site_type_symbol
_atom_site_label
_atom_site_fract_x
_atom_site_fract_y
_atom_site_fract_z
Si Si1 0.574899 0.386840 0.965273
Si Si2 0.000000 0.609099 0.250000
Si Si3 0.884139 0.434329 0.069344
Si Si4 0.049895 0.039452 0.620346
Si Si5 0.206924 0.535346 0.529145
Si Si6 0.182584 0.367282 0.658797
Si Si7 0.188757 0.799666 0.924399
O O1 0.380242 0.382522 0.797842
O O2 0.666677 0.337965 0.005753
O O3 0.690182 0.421945 0.972888
O O4 0.564754 0.410402 0.075999
O O5 0.889015 0.636667 0.266013
O O6 0.109337 0.576449 0.403487
O O7 0.000000 0.420347 0.250000
O O8 0.893350 0.488402 0.058687
O O9 0.914583 0.405500 0.979306
O O10 0.229216 0.033282 0.802176
O O11 0.887813 0.036820 0.589434
O O12 0.000000 0.000000 0.500000
O O13 0.191176 0.322044 0.588705
O O14 0.000000 0.795164 0.750000
O O15 0.250000 0.750000 0.000000
#
# Coordination Sequence:
#
# PCOD9275312 Si02
#       7
#     8   4   8   8   8   8   8
#     4  10  20  39  60  84 118 154 197 250 306 357
#     4  12  24  40  54  84 128 166 200 246 296 362
#     4  11  22  34  54  87 117 155 212 265 291 331
#     4  11  21  36  57  81 116 168 212 248 300 354
#     4  11  24  33  53  81 120 168 210 244 294 356
#     4  10  23  39  61  84 121 158 196 244 308 365
#     4   9  20  40  67  93 112 142 190 251 313 364
#
# _framework density 18.573001999999999
#
# number of rings (size 3 to 8) (size 9 to 14) (size 15 to 20)
#    0.000    1.538    3.846    2.308    4.308    3.077 
#    0.000    0.000    0.000    5.538    0.000    0.000 
#    0.000    0.000    0.000    0.000    0.000    0.000 
#
# Total GULP energy -144879.575476 kJ/mol
# GULP energy per Si atom -5572.291364 kJ/mol
# Density = 1.853073 g / cm^3
# Si number density = 18.573002 Si / 1000 Ang^3
#
#
#
# Elastic Constant Matrix: (Units=GPa)
#
#
# Indices 1 2 3 4 5 6 
#
# 1 97.9944 39.2356 36.7844 0.0000 -12.4347 0.0000
# 2 39.2356 112.0548 36.5826 0.0000 -15.3957 0.0000
# 3 36.7844 36.5826 96.9931 0.0000 -12.2141 0.0000
# 4 0.0000 0.0000 0.0000 30.1075 0.0000 0.1385
# 5 -12.4347 -15.3957 -12.2141 0.0000 23.2570 0.0000
# 6 0.0000 0.0000 0.0000 0.1385 0.0000 11.4766
#
#
#
# Elastic Compliance Matrix: (Units=1/GPa)
#
#
# Indices 1 2 3 4 5 6 
#
# 1 0.013111 -0.003032 -0.003425 0.000000 0.003204 0.000000
# 2 -0.003032 0.011466 -0.002594 0.000000 0.004606 0.000000
# 3 -0.003425 -0.002594 0.013000 0.000000 0.003279 0.000000
# 4 0.000000 0.000000 0.000000 0.033216 0.000000 -0.000401
# 5 0.003204 0.004606 0.003279 0.000000 0.049482 0.000000
# 6 0.000000 0.000000 0.000000 -0.000401 0.000000 0.087138
#
#
# Mechanical properties :
#
#
# Convention : Reuss Voigt Hill
#
# Bulk Modulus (GPa) = 51.35228 59.13862 55.24545
# Shear Modulus (GPa) = 21.55088 25.93088 23.74088
#
# Velocity S-wave (km/s) = 3.41006 3.74058 3.57914
# Velocity P-wave (km/s) = 6.57371 7.11099 6.84762
#
# Compressibility (1/GPa) = 0.01947333
#
# Stress axis : x y z
#
# Youngs Moduli (GPa) = 76.27156 87.21528 76.92055
#
# Poissons Ratio (x) = 0.26447 0.26347
# Poissons Ratio (y) = 0.23128 0.19957
# Poissons Ratio (z) = 0.26124 0.22628
#
# Static dielectric constant tensor:
#      x y z
#    x 1.685590 0.000000 -0.010940 
#    y 0.000000 1.630110 0.000000 
#    z -0.010940 0.000000 1.708520 
# 
# From -- ./inp_files/52527.got.cif
#   From: 2010.05.17/outbox.cif.g08.bks.cpg/sg15_27_cif.got.tgz:52527.got - 2010.06.03 18:47:42.
