data_PCOD9275454
_publ_section_title
;
Structure prediction by ZEFSAII (Michael W. Deem and Ramdas Pophale) SiO2 
 PCOD9275454
Probable space group: C 2/C
;
_chemical_formula_sum "Si O2"
_cell_formula_units_Z 44
_cell_length_a 12.950988
_cell_length_b 11.718675
_cell_length_c 10.888983
_cell_angle_alpha 90.000000
_cell_angle_beta 79.886257
_cell_angle_gamma 90.000000
_cell_volume 1626.924074
_symmetry_space_group_name_H-M "C 2/C"
_symmetry_group_IT_number 15
_symmetry_cell_setting 'monoclinic'
loop_
_space_group_symop_operation_xyz
x,y,z
-x,y,1/2-z
-x,-y,-z
x,-y,1/2+z
1/2+x,1/2+y,z
1/2-x,1/2+y,1/2-z
1/2-x,1/2-y,-z
1/2+x,1/2-y,1/2+z
loop_
_atom_site_type_symbol
_atom_site_label
_atom_site_fract_x
_atom_site_fract_y
_atom_site_fract_z
Si Si1 0.000000 0.927445 0.250000
Si Si2 0.694167 0.298374 0.332097
Si Si3 0.472148 0.363522 0.623479
Si Si4 0.594364 0.073701 0.308799
Si Si5 0.130329 0.346686 0.402456
Si Si6 0.235844 0.019738 0.428041
O O1 0.962811 0.016602 0.366529
O O2 0.098551 0.855671 0.274577
O O3 0.655650 0.171504 0.368003
O O4 0.797241 0.298227 0.224031
O O5 0.709475 0.384663 0.442958
O O6 0.500000 0.308563 0.750000
O O7 0.452682 0.252210 0.541800
O O8 0.362237 0.423195 0.618297
O O9 0.500000 0.123353 0.250000
O O10 0.674691 0.025353 0.192575
O O11 0.563723 0.958770 0.384475
O O12 0.217503 0.399089 0.476483
#
# Coordination Sequence:
#
# PCOD9275454 Si02
#       6
#     4   8   8   8   8   8
#     4   8  18  36  58  82 114 154 196 238 286 354
#     4  10  20  39  62  83 123 159 197 244 298 349
#     4   9  18  35  62  86 111 153 198 242 287 348
#     4  11  23  39  63  87 122 163 190 253 309 344
#     4  11  22  38  63  90 120 158 202 245 299 359
#     4  10  22  40  62  88 121 158 205 243 294 361
#
# _framework density 27.044899999999998
#
# number of rings (size 3 to 8) (size 9 to 14) (size 15 to 20)
#    0.545    1.455    2.727    1.091    0.000    1.455 
#    0.000    5.455    0.000    0.000    0.000    0.000 
#    0.000    0.000    0.000    0.000    0.000    0.000 
#
# Total GULP energy -122595.842634 kJ/mol
# GULP energy per Si atom -5572.538302 kJ/mol
# Density = 2.698335 g / cm^3
# Si number density = 27.044900 Si / 1000 Ang^3
#
#
#
# Elastic Constant Matrix: (Units=GPa)
#
#
# Indices 1 2 3 4 5 6 
#
# 1 55.9767 35.2822 56.4495 0.0000 24.1485 0.0000
# 2 35.2822 156.4394 -33.6832 0.0000 26.1073 0.0000
# 3 56.4495 -33.6832 -2.4313 0.0000 36.5476 0.0000
# 4 0.0000 0.0000 0.0000 12.8463 0.0000 29.2967
# 5 24.1485 26.1073 36.5476 0.0000 61.8405 0.0000
# 6 0.0000 0.0000 0.0000 29.2967 0.0000 30.2894
#
#
#
# Elastic Compliance Matrix: (Units=1/GPa)
#
#
# Indices 1 2 3 4 5 6 
#
# 1 0.009489 0.002359 0.011833 0.000000 -0.011695 0.000000
# 2 0.002359 0.004655 -0.005373 0.000000 0.000289 0.000000
# 3 0.011833 -0.005373 -0.009863 0.000000 0.003477 0.000000
# 4 0.000000 0.000000 0.000000 -0.064557 0.000000 0.062441
# 5 -0.011695 0.000289 0.003477 0.000000 0.018561 0.000000
# 6 0.000000 0.000000 0.000000 0.062441 0.000000 -0.027380
#
#
# Mechanical properties :
#
#
# Convention : Reuss Voigt Hill
#
# Bulk Modulus (GPa) = 45.61773 36.23129 40.92451
# Shear Modulus (GPa) = -62.95030 31.12434 -15.91298
#
# Velocity S-wave (km/s) = -4.82978 3.39608 -2.42831
# Velocity P-wave (km/s) = 3.76806 5.36690 2.70234
#
# Compressibility (1/GPa) = 0.02192130
#
# Stress axis : x y z
#
# Youngs Moduli (GPa) = 105.38025 214.81594 -101.38464
#
# Poissons Ratio (x) = -0.50684 1.19972
# Poissons Ratio (y) = -0.24864 -0.54471
# Poissons Ratio (z) = -1.24700 1.15414
#
# Static dielectric constant tensor:
#      x y z
#    x 2.088720 0.000000 -0.054280 
#    y 0.000000 2.231900 0.000000 
#    z -0.054280 0.000000 2.319870 
# 
# From -- ./inp_files/151422.got.cif
#   From: 2010.05.17/outbox.cif.g08.bks.cpg/sg15_76_cif.got.tgz:151422.got - 2010.06.03 18:47:42.
