data_PCOD9275649
_publ_section_title
;
Structure prediction by ZEFSAII (Michael W. Deem and Ramdas Pophale) SiO2 
 PCOD9275649
Probable space group: C 2/C
;
_chemical_formula_sum "Si O2"
_cell_formula_units_Z 44
_cell_length_a 28.254556
_cell_length_b 8.289059
_cell_length_c 14.690779
_cell_angle_alpha 90.000000
_cell_angle_beta 27.463417
_cell_angle_gamma 90.000000
_cell_volume 1586.759292
_symmetry_space_group_name_H-M "C 2/C"
_symmetry_group_IT_number 15
_symmetry_cell_setting 'monoclinic'
loop_
_space_group_symop_operation_xyz
x,y,z
-x,y,1/2-z
-x,-y,-z
x,-y,1/2+z
1/2+x,1/2+y,z
1/2-x,1/2+y,1/2-z
1/2-x,1/2-y,-z
1/2+x,1/2-y,1/2+z
loop_
_atom_site_type_symbol
_atom_site_label
_atom_site_fract_x
_atom_site_fract_y
_atom_site_fract_z
Si Si1 0.287636 0.157882 0.027726
Si Si2 0.281080 0.211167 0.549399
Si Si3 0.500000 0.859780 0.750000
Si Si4 0.515872 0.079619 0.570509
Si Si5 0.168856 0.024643 0.969309
Si Si6 0.016727 0.058038 0.073443
O O1 0.404387 0.113292 0.805408
O O2 0.280136 0.296884 0.117471
O O3 0.246304 0.976751 0.120922
O O4 0.250000 0.250000 0.000000
O O5 0.250000 0.250000 0.500000
O O6 0.405450 0.217103 0.355435
O O7 0.252826 0.380434 0.646908
O O8 0.561089 0.960404 0.568150
O O9 0.556587 0.259410 0.494686
O O10 0.500000 0.000000 0.500000
O O11 0.096873 0.981376 0.006897
O O12 0.090283 0.047750 0.188880
O O13 0.000000 0.000000 0.000000
#
# Coordination Sequence:
#
# PCOD9275649 Si02
#       6
#     8   8   4   8   8   8
#     4  10  20  39  63  91 132 175 218 273 346 407
#     4  11  21  36  70  95 124 170 229 272 336 410
#     4  10  22  40  66  94 130 178 218 272 352 416
#     4  10  22  38  65  96 131 176 228 280 343 416
#     4  10  21  39  60  90 127 171 216 270 337 408
#     4  10  21  36  61  92 128 165 217 278 334 400
#
# _framework density 27.729472999999999
#
# number of rings (size 3 to 8) (size 9 to 14) (size 15 to 20)
#    0.000    1.818    1.818    4.364    7.636    0.000 
#    0.000    0.000    4.000    0.000    0.000    0.000 
#    0.000    0.000    0.000    0.000    0.000    0.000 
#
# Total GULP energy -122982.294804 kJ/mol
# GULP energy per Si atom -5590.104309 kJ/mol
# Density = 2.766636 g / cm^3
# Si number density = 27.729473 Si / 1000 Ang^3
#
#
#
# Elastic Constant Matrix: (Units=GPa)
#
#
# Indices 1 2 3 4 5 6 
#
# 1 217.4267 61.8279 33.2013 0.0000 12.9280 0.0000
# 2 61.8279 234.8632 37.9012 0.0000 4.6210 0.0000
# 3 33.2013 37.9012 94.2923 0.0000 16.6429 0.0000
# 4 0.0000 0.0000 0.0000 33.4474 0.0000 -3.5014
# 5 12.9280 4.6210 16.6429 0.0000 36.3586 0.0000
# 6 0.0000 0.0000 0.0000 -3.5014 0.0000 68.3542
#
#
#
# Elastic Compliance Matrix: (Units=1/GPa)
#
#
# Indices 1 2 3 4 5 6 
#
# 1 0.005172 -0.001153 -0.001152 0.000000 -0.001165 0.000000
# 2 -0.001153 0.004813 -0.001624 0.000000 0.000542 0.000000
# 3 -0.001152 -0.001624 0.012571 0.000000 -0.005138 0.000000
# 4 0.000000 0.000000 0.000000 0.030059 0.000000 0.001540
# 5 -0.001165 0.000542 -0.005138 0.000000 0.030201 0.000000
# 6 0.000000 0.000000 0.000000 0.001540 0.000000 0.014709
#
#
# Mechanical properties :
#
#
# Convention : Reuss Voigt Hill
#
# Bulk Modulus (GPa) = 68.03900 90.27143 79.15522
# Shear Modulus (GPa) = 45.33838 55.20882 50.27360
#
# Velocity S-wave (km/s) = 4.04793 4.46688 4.26256
# Velocity P-wave (km/s) = 6.81452 7.69604 7.26865
#
# Compressibility (1/GPa) = 0.01469745
#
# Stress axis : x y z
#
# Youngs Moduli (GPa) = 193.33870 207.78334 79.54964
#
# Poissons Ratio (x) = 0.23952 0.09166
# Poissons Ratio (y) = 0.22287 0.12920
# Poissons Ratio (z) = 0.22277 0.33748
#
# Static dielectric constant tensor:
#      x y z
#    x 2.122300 0.000000 0.011430 
#    y 0.000000 2.695790 0.000000 
#    z 0.011430 0.000000 2.421930 
# 
# From -- ./inp_files/176449.got.cif
#   From: 2010.05.17/outbox.cif.g08.bks.cpg/sg15_89_cif.got.tgz:176449.got - 2010.06.03 18:47:42.
