data_PCOD9275499
_publ_section_title
;
Structure prediction by ZEFSAII (Michael W. Deem and Ramdas Pophale) SiO2 
 PCOD9275499
Probable space group: C 2/C
;
_chemical_formula_sum "Si O2"
_cell_formula_units_Z 36
_cell_length_a 20.243084
_cell_length_b 13.630223
_cell_length_c 14.261502
_cell_angle_alpha 90.000000
_cell_angle_beta 25.120746
_cell_angle_gamma 90.000000
_cell_volume 1670.515531
_symmetry_space_group_name_H-M "C 2/C"
_symmetry_group_IT_number 15
_symmetry_cell_setting 'monoclinic'
loop_
_space_group_symop_operation_xyz
x,y,z
-x,y,1/2-z
-x,-y,-z
x,-y,1/2+z
1/2+x,1/2+y,z
1/2-x,1/2+y,1/2-z
1/2-x,1/2-y,-z
1/2+x,1/2-y,1/2+z
loop_
_atom_site_type_symbol
_atom_site_label
_atom_site_fract_x
_atom_site_fract_y
_atom_site_fract_z
Si Si1 0.801802 0.413908 0.168893
Si Si2 0.500000 0.364932 0.750000
Si Si3 0.689984 0.778140 0.887880
Si Si4 0.928857 0.553033 0.708157
Si Si5 0.665937 0.556383 0.202592
O O1 0.753659 0.300481 0.232183
O O2 0.823086 0.448641 0.250323
O O3 0.680557 0.469159 0.257022
O O4 0.968777 0.453830 0.917717
O O5 0.633252 0.288888 0.547607
O O6 0.465807 0.432282 0.705003
O O7 0.830777 0.844998 0.741153
O O8 0.550203 0.854650 0.042804
O O9 0.821647 0.560711 0.937233
#
# Coordination Sequence:
#
# PCOD9275499 Si02
#       5
#     8   4   8   8   8
#     4  10  21  35  60  92 116 152 193 243 293 351
#     4  12  20  32  60  88 122 148 192 246 294 330
#     4  11  19  35  61  93 115 145 197 252 289 336
#     4  10  20  39  62  89 116 153 196 241 293 347
#     4  11  22  38  61  89 119 155 193 243 292 344
#
# _framework density 21.550234
#
# number of rings (size 3 to 8) (size 9 to 14) (size 15 to 20)
#    0.000    1.333    4.444    4.000    0.000    0.889 
#    0.000    0.000    0.000   21.333   23.111    0.000 
#    0.000    0.000    0.000    0.000    0.000    0.000 
#
# Total GULP energy -100384.502718 kJ/mol
# GULP energy per Si atom -5576.916818 kJ/mol
# Density = 2.150118 g / cm^3
# Si number density = 21.550234 Si / 1000 Ang^3
#
#
#
# Elastic Constant Matrix: (Units=GPa)
#
#
# Indices 1 2 3 4 5 6 
#
# 1 172.0638 66.6304 8.7183 0.0000 -5.9086 0.0000
# 2 66.6304 117.7904 50.5169 0.0000 11.8872 0.0000
# 3 8.7183 50.5169 53.6616 0.0000 -3.7727 0.0000
# 4 0.0000 0.0000 0.0000 36.1116 0.0000 9.8548
# 5 -5.9086 11.8872 -3.7727 0.0000 25.6443 0.0000
# 6 0.0000 0.0000 0.0000 9.8548 0.0000 34.9063
#
#
#
# Elastic Compliance Matrix: (Units=1/GPa)
#
#
# Indices 1 2 3 4 5 6 
#
# 1 0.009338 -0.009462 0.007932 0.000000 0.007704 0.000000
# 2 -0.009462 0.026022 -0.024212 0.000000 -0.017804 0.000000
# 3 0.007932 -0.024212 0.041486 0.000000 0.019154 0.000000
# 4 0.000000 0.000000 0.000000 0.030004 0.000000 -0.008471
# 5 0.007704 -0.017804 0.019154 0.000000 0.051841 0.000000
# 6 0.000000 0.000000 0.000000 -0.008471 0.000000 0.031040
#
#
# Mechanical properties :
#
#
# Convention : Reuss Voigt Hill
#
# Bulk Modulus (GPa) = 39.42711 66.13856 52.78283
# Shear Modulus (GPa) = 20.02646 33.84246 26.93446
#
# Velocity S-wave (km/s) = 3.05174 3.96712 3.53915
# Velocity P-wave (km/s) = 5.54550 7.19313 6.42237
#
# Compressibility (1/GPa) = 0.02536326
#
# Stress axis : x y z
#
# Youngs Moduli (GPa) = 107.08477 38.42846 24.10427
#
# Poissons Ratio (x) = 0.36359 -0.19118
# Poissons Ratio (y) = 1.01319 0.58361
# Poissons Ratio (z) = -0.84935 0.93043
#
# Static dielectric constant tensor:
#      x y z
#    x 1.849700 0.000000 -0.080180 
#    y 0.000000 1.775810 0.000000 
#    z -0.080180 0.000000 1.926840 
# 
# From -- ./inp_files/94351.got.cif
#   From: 2010.05.17/outbox.cif.g08.bks.cpg/sg15_48_cif.got.tgz:94351.got - 2010.06.03 18:47:42.
