data_PCOD9275248
_publ_section_title
;
Structure prediction by ZEFSAII (Michael W. Deem and Ramdas Pophale) SiO2 
 PCOD9275248
Probable space group: C 2/C
;
_chemical_formula_sum "Si O2"
_cell_formula_units_Z 64
_cell_length_a 26.370364
_cell_length_b 8.693205
_cell_length_c 13.943976
_cell_angle_alpha 90.000000
_cell_angle_beta 72.661066
_cell_angle_gamma 90.000000
_cell_volume 3051.302211
_symmetry_space_group_name_H-M "C 2/C"
_symmetry_group_IT_number 15
_symmetry_cell_setting 'monoclinic'
loop_
_space_group_symop_operation_xyz
x,y,z
-x,y,1/2-z
-x,-y,-z
x,-y,1/2+z
1/2+x,1/2+y,z
1/2-x,1/2+y,1/2-z
1/2-x,1/2-y,-z
1/2+x,1/2-y,1/2+z
loop_
_atom_site_type_symbol
_atom_site_label
_atom_site_fract_x
_atom_site_fract_y
_atom_site_fract_z
Si Si1 0.283286 0.592832 0.002651
Si Si2 0.297987 0.007920 0.303331
Si Si3 0.161699 0.409978 0.920854
Si Si4 0.974727 0.816799 0.369005
Si Si5 0.448642 0.653026 0.347742
Si Si6 0.135362 0.322181 0.578126
Si Si7 0.041398 0.360023 0.978606
Si Si8 0.173205 0.797918 0.601539
O O1 0.342379 0.656644 0.963887
O O2 0.250000 0.750000 0.000000
O O3 0.259106 0.541374 0.116993
O O4 0.287136 0.444508 0.930192
O O5 0.310644 0.833506 0.330982
O O6 0.301527 0.053941 0.190731
O O7 0.340896 0.116372 0.335251
O O8 0.101671 0.394127 0.914298
O O9 0.173321 0.275812 0.992680
O O10 0.158654 0.559464 0.988879
O O11 0.927281 0.693080 0.392446
O O12 0.000000 0.816313 0.250000
O O13 0.016978 0.768255 0.423589
O O14 0.954308 0.989255 0.397177
O O15 0.500000 0.663314 0.250000
O O16 0.453562 0.793672 0.417790
O O17 0.388433 0.659774 0.340565
O O18 0.000000 0.500000 0.000000
#
# Coordination Sequence:
#
# PCOD9275248 Si02
#       8
#     8   8   8   8   8   8   8   8
#     4  10  21  40  65  87 118 158 200 255 309 353
#     4  10  22  38  61  88 114 153 207 244 302 370
#     4  10  22  39  57  90 121 160 198 243 304 361
#     4  11  21  37  59  82 116 158 200 240 298 362
#     4  10  23  38  59  88 119 163 199 240 300 367
#     4  10  20  39  58  83 120 151 193 255 300 352
#     4  11  22  36  57  85 123 155 196 246 296 359
#     4  10  21  40  63  86 128 156 196 257 302 352
#
# _framework density 20.974651999999999
#
# number of rings (size 3 to 8) (size 9 to 14) (size 15 to 20)
#    0.000    1.750    2.500    1.500    1.750    1.500 
#    0.000    2.500    0.000    0.000    0.000    0.000 
#    0.000    0.000    0.000    0.000    0.000    0.000 
#
# Total GULP energy -178420.059321 kJ/mol
# GULP energy per Si atom -5575.626854 kJ/mol
# Density = 2.092691 g / cm^3
# Si number density = 20.974652 Si / 1000 Ang^3
#
#
#
# Elastic Constant Matrix: (Units=GPa)
#
#
# Indices 1 2 3 4 5 6 
#
# 1 57.7878 22.5023 16.4305 0.0000 -5.4740 0.0000
# 2 22.5023 93.2947 28.5313 0.0000 -11.6096 0.0000
# 3 16.4305 28.5313 99.7913 0.0000 -9.5065 0.0000
# 4 0.0000 0.0000 0.0000 23.0679 0.0000 -8.3998
# 5 -5.4740 -11.6096 -9.5065 0.0000 20.8310 0.0000
# 6 0.0000 0.0000 0.0000 -8.3998 0.0000 34.7074
#
#
#
# Elastic Compliance Matrix: (Units=1/GPa)
#
#
# Indices 1 2 3 4 5 6 
#
# 1 0.019555 -0.003869 -0.001912 0.000000 0.002109 0.000000
# 2 -0.003869 0.013085 -0.002620 0.000000 0.005080 0.000000
# 3 -0.001912 -0.002620 0.011393 0.000000 0.003237 0.000000
# 4 0.000000 0.000000 0.000000 0.047540 0.000000 0.011505
# 5 0.002109 0.005080 0.003237 0.000000 0.052868 0.000000
# 6 0.000000 0.000000 0.000000 0.011505 0.000000 0.031597
#
#
# Mechanical properties :
#
#
# Convention : Reuss Voigt Hill
#
# Bulk Modulus (GPa) = 36.72442 42.86688 39.79565
# Shear Modulus (GPa) = 24.76242 27.94857 26.35550
#
# Velocity S-wave (km/s) = 3.43970 3.65429 3.54862
# Velocity P-wave (km/s) = 5.77255 6.18765 5.98370
#
# Compressibility (1/GPa) = 0.02722984
#
# Stress axis : x y z
#
# Youngs Moduli (GPa) = 51.13800 76.42061 87.77100
#
# Poissons Ratio (x) = 0.29569 0.16786
# Poissons Ratio (y) = 0.19786 0.22998
# Poissons Ratio (z) = 0.09780 0.20024
#
# Static dielectric constant tensor:
#      x y z
#    x 1.817550 0.000000 -0.024230 
#    y 0.000000 1.808410 0.000000 
#    z -0.024230 0.000000 1.735400 
# 
# From -- ./inp_files/181137.got.cif
#   From: 2010.05.17/outbox.cif.g08.bks.cpg/sg15_91_cif.got.tgz:181137.got - 2010.06.03 18:47:42.
