data_PCOD9275585
_publ_section_title
;
Structure prediction by ZEFSAII (Michael W. Deem and Ramdas Pophale) SiO2 
 PCOD9275585
Probable space group: C 2/C
;
_chemical_formula_sum "Si O2"
_cell_formula_units_Z 36
_cell_length_a 5.212008
_cell_length_b 14.581625
_cell_length_c 18.469998
_cell_angle_alpha 90.000000
_cell_angle_beta 74.682509
_cell_angle_gamma 90.000000
_cell_volume 1353.847170
_symmetry_space_group_name_H-M "C 2/C"
_symmetry_group_IT_number 15
_symmetry_cell_setting 'monoclinic'
loop_
_space_group_symop_operation_xyz
x,y,z
-x,y,1/2-z
-x,-y,-z
x,-y,1/2+z
1/2+x,1/2+y,z
1/2-x,1/2+y,1/2-z
1/2-x,1/2-y,-z
1/2+x,1/2-y,1/2+z
loop_
_atom_site_type_symbol
_atom_site_label
_atom_site_fract_x
_atom_site_fract_y
_atom_site_fract_z
Si Si1 0.500000 0.505482 0.750000
Si Si2 0.062147 0.597884 0.370425
Si Si3 0.326879 0.435811 0.111244
Si Si4 0.598537 0.344866 0.534202
Si Si5 0.413626 0.758303 0.338156
O O1 0.751601 0.443283 0.707745
O O2 0.550695 0.563179 0.818223
O O3 0.205564 0.584680 0.438605
O O4 0.124501 0.707067 0.360241
O O5 0.800911 0.535416 0.391197
O O6 0.089657 0.362035 0.135469
O O7 0.493492 0.393326 0.032413
O O8 0.750000 0.250000 0.500000
O O9 0.431961 0.303859 0.614560
O O10 0.500000 0.754468 0.250000
#
# Coordination Sequence:
#
# PCOD9275585 Si02
#       5
#     4   8   8   8   8
#     4  12  24  38  58  96 126 162 214 256 306 384
#     4  10  20  39  63  86 124 165 204 261 318 367
#     4  11  22  40  63  93 125 167 212 258 318 377
#     4   8  18  37  66  89 122 162 208 263 314 375
#     4   9  18  38  64  91 125 161 209 265 316 376
#
# _framework density 26.590892
#
# number of rings (size 3 to 8) (size 9 to 14) (size 15 to 20)
#    1.333    0.889    1.111    2.667    0.000    0.889 
#    4.000    0.000    0.000    9.333    0.000    0.000 
#    0.000    0.000    0.000    0.000    0.000    0.000 
#
# Total GULP energy -100249.890325 kJ/mol
# GULP energy per Si atom -5569.438351 kJ/mol
# Density = 2.653037 g / cm^3
# Si number density = 26.590892 Si / 1000 Ang^3
#
#
#
# Elastic Constant Matrix: (Units=GPa)
#
#
# Indices 1 2 3 4 5 6 
#
# 1 59.0625 11.7364 16.2603 0.0000 1.6759 0.0000
# 2 11.7364 134.3981 35.5080 0.0000 6.9636 0.0000
# 3 16.2603 35.5080 218.5441 0.0000 18.0148 0.0000
# 4 0.0000 0.0000 0.0000 47.5183 0.0000 4.5407
# 5 1.6759 6.9636 18.0148 0.0000 32.5178 0.0000
# 6 0.0000 0.0000 0.0000 4.5407 0.0000 6.9127
#
#
#
# Elastic Compliance Matrix: (Units=1/GPa)
#
#
# Indices 1 2 3 4 5 6 
#
# 1 0.017480 -0.001235 -0.001098 0.000000 -0.000028 0.000000
# 2 -0.001235 0.007893 -0.001107 0.000000 -0.001013 0.000000
# 3 -0.001098 -0.001107 0.005043 0.000000 -0.002500 0.000000
# 4 0.000000 0.000000 0.000000 0.022454 0.000000 -0.014749
# 5 -0.000028 -0.001013 -0.002500 0.000000 0.032356 0.000000
# 6 0.000000 0.000000 0.000000 -0.014749 0.000000 0.154350
#
#
# Mechanical properties :
#
#
# Convention : Reuss Voigt Hill
#
# Bulk Modulus (GPa) = 42.48591 59.89045 51.18818
# Shear Modulus (GPa) = 19.66175 40.62309 30.14242
#
# Velocity S-wave (km/s) = 2.72217 3.91283 3.37049
# Velocity P-wave (km/s) = 5.08848 6.55633 5.86848
#
# Compressibility (1/GPa) = 0.02353722
#
# Stress axis : x y z
#
# Youngs Moduli (GPa) = 57.20960 126.68778 198.27992
#
# Poissons Ratio (x) = 0.15646 0.21762
# Poissons Ratio (y) = 0.07065 0.21951
# Poissons Ratio (z) = 0.06279 0.14025
#
# Static dielectric constant tensor:
#      x y z
#    x 2.564810 0.000000 -0.208600 
#    y 0.000000 2.060100 0.000000 
#    z -0.208600 0.000000 2.205500 
# 
# From -- ./inp_files/226648.got.cif
#   From: 2010.05.17/outbox.cif.g08.bks.cpg/sg15_114_cif.got.tgz:226648.got - 2010.06.03 18:47:42.
