data_PCOD9275718
_publ_section_title
;
Structure prediction by ZEFSAII (Michael W. Deem and Ramdas Pophale) SiO2 
 PCOD9275718
Probable space group: C 2/C
;
_chemical_formula_sum "Si O2"
_cell_formula_units_Z 60
_cell_length_a 11.383533
_cell_length_b 19.249639
_cell_length_c 15.417316
_cell_angle_alpha 90.000000
_cell_angle_beta 108.182043
_cell_angle_gamma 90.000000
_cell_volume 3209.696659
_symmetry_space_group_name_H-M "C 2/C"
_symmetry_group_IT_number 15
_symmetry_cell_setting 'monoclinic'
loop_
_space_group_symop_operation_xyz
x,y,z
-x,y,1/2-z
-x,-y,-z
x,-y,1/2+z
1/2+x,1/2+y,z
1/2-x,1/2+y,1/2-z
1/2-x,1/2-y,-z
1/2+x,1/2-y,1/2+z
loop_
_atom_site_type_symbol
_atom_site_label
_atom_site_fract_x
_atom_site_fract_y
_atom_site_fract_z
Si Si1 0.370555 0.714060 0.679923
Si Si2 0.634102 0.693497 0.142320
Si Si3 0.348963 0.509706 0.096669
Si Si4 0.000000 0.113269 0.250000
Si Si5 0.959839 0.871861 0.042826
Si Si6 0.722122 0.081143 0.709954
Si Si7 0.489267 0.826167 0.144685
Si Si8 0.760580 0.903776 0.415413
O O1 0.500000 0.735770 0.750000
O O2 0.268179 0.773102 0.663321
O O3 0.401397 0.686707 0.591131
O O4 0.315484 0.646449 0.717047
O O5 0.603437 0.660357 0.227880
O O6 0.538086 0.757744 0.107883
O O7 0.607560 0.636407 0.063940
O O8 0.436064 0.565892 0.162718
O O9 0.430627 0.446076 0.079065
O O10 0.263328 0.477986 0.152896
O O11 0.277282 0.543325 0.999056
O O12 0.106588 0.866678 0.064149
O O13 0.587853 0.111613 0.654486
O O14 0.729825 0.062903 0.813700
O O15 0.500000 0.811008 0.250000
O O16 0.351720 0.850961 0.092561
#
# Coordination Sequence:
#
# PCOD9275718 Si02
#       8
#     8   8   8   4   8   8   8   8
#     4  10  20  39  64  87 114 156 198 241 299 360
#     4  11  23  39  60  88 123 150 193 254 304 347
#     4  11  24  38  60  89 119 158 207 240 297 354
#     4  12  24  38  60  88 122 156 196 262 302 344
#     4  11  22  38  61  91 115 156 200 247 290 356
#     4   9  20  38  63  85 118 156 201 249 288 353
#     4   9  20  39  60  88 116 158 198 241 302 352
#     4  11  20  36  62  89 118 159 200 241 295 363
#
# _framework density 18.693355
#
# number of rings (size 3 to 8) (size 9 to 14) (size 15 to 20)
#    0.000    1.600    3.333    1.600    3.733    1.067 
#    2.400    0.000    2.933    0.000    0.000    0.000 
#    0.000    0.000    0.000    0.000    0.000    0.000 
#
# Total GULP energy -167446.787029 kJ/mol
# GULP energy per Si atom -5581.559568 kJ/mol
# Density = 1.865081 g / cm^3
# Si number density = 18.693355 Si / 1000 Ang^3
#
#
#
# Elastic Constant Matrix: (Units=GPa)
#
#
# Indices 1 2 3 4 5 6 
#
# 1 117.4671 53.8611 34.2201 0.0000 2.9903 0.0000
# 2 53.8611 71.1917 36.1019 0.0000 0.6638 0.0000
# 3 34.2201 36.1019 84.0842 0.0000 -6.5869 0.0000
# 4 0.0000 0.0000 0.0000 22.4939 0.0000 -12.9467
# 5 2.9903 0.6638 -6.5869 0.0000 22.8752 0.0000
# 6 0.0000 0.0000 0.0000 -12.9467 0.0000 16.5840
#
#
#
# Elastic Compliance Matrix: (Units=1/GPa)
#
#
# Indices 1 2 3 4 5 6 
#
# 1 0.013241 -0.009192 -0.001593 0.000000 -0.001923 0.000000
# 2 -0.009192 0.024515 -0.006902 0.000000 -0.001497 0.000000
# 3 -0.001593 -0.006902 0.015895 0.000000 0.004985 0.000000
# 4 0.000000 0.000000 0.000000 0.080731 0.000000 0.063025
# 5 -0.001923 -0.001497 0.004985 0.000000 0.045446 0.000000
# 6 0.000000 0.000000 0.000000 0.063025 0.000000 0.109501
#
#
# Mechanical properties :
#
#
# Convention : Reuss Voigt Hill
#
# Bulk Modulus (GPa) = 54.71224 57.90101 56.30662
# Shear Modulus (GPa) = 15.11516 22.29459 18.70488
#
# Velocity S-wave (km/s) = 2.84665 3.45722 3.16668
# Velocity P-wave (km/s) = 6.33533 6.85404 6.59978
#
# Compressibility (1/GPa) = 0.01827745
#
# Stress axis : x y z
#
# Youngs Moduli (GPa) = 75.52558 40.79180 62.91309
#
# Poissons Ratio (x) = 0.37495 0.10020
# Poissons Ratio (y) = 0.69421 0.43422
# Poissons Ratio (z) = 0.12029 0.28154
#
# Static dielectric constant tensor:
#      x y z
#    x 1.655520 0.000000 -0.031750 
#    y 0.000000 1.638520 0.000000 
#    z -0.031750 0.000000 1.651780 
# 
# From -- ./inp_files/146033.got.cif
#   From: 2010.05.17/outbox.cif.g08.bks.cpg/sg15_74_cif.got.tgz:146033.got - 2010.06.03 18:47:42.
