data_PCOD9275121
_publ_section_title
;
Structure prediction by ZEFSAII (Michael W. Deem and Ramdas Pophale) SiO2 
 PCOD9275121
Probable space group: C 2/C
;
_chemical_formula_sum "Si O2"
_cell_formula_units_Z 56
_cell_length_a 7.295541
_cell_length_b 26.560343
_cell_length_c 14.009106
_cell_angle_alpha 90.000000
_cell_angle_beta 113.343532
_cell_angle_gamma 90.000000
_cell_volume 2492.373676
_symmetry_space_group_name_H-M "C 2/C"
_symmetry_group_IT_number 15
_symmetry_cell_setting 'monoclinic'
loop_
_space_group_symop_operation_xyz
x,y,z
-x,y,1/2-z
-x,-y,-z
x,-y,1/2+z
1/2+x,1/2+y,z
1/2-x,1/2+y,1/2-z
1/2-x,1/2-y,-z
1/2+x,1/2-y,1/2+z
loop_
_atom_site_type_symbol
_atom_site_label
_atom_site_fract_x
_atom_site_fract_y
_atom_site_fract_z
Si Si1 0.500000 0.433404 0.750000
Si Si2 0.254097 0.373713 0.945501
Si Si3 0.000000 0.685100 0.250000
Si Si4 0.678986 0.091281 0.862263
Si Si5 0.778374 0.243713 0.176049
Si Si6 0.006174 0.165981 0.641126
Si Si7 0.790103 0.475680 0.651575
Si Si8 0.320439 0.642102 0.072020
O O1 0.615680 0.465188 0.693360
O O2 0.658271 0.396329 0.834692
O O3 0.229859 0.433582 0.934668
O O4 0.458941 0.361769 0.929938
O O5 0.075205 0.348860 0.851674
O O6 0.291836 0.345459 0.052135
O O7 0.181054 0.718539 0.249691
O O8 0.500000 0.097407 0.750000
O O9 0.870273 0.115052 0.849716
O O10 0.713258 0.032311 0.887341
O O11 0.669199 0.120790 0.960993
O O12 0.631865 0.289130 0.118070
O O13 0.786888 0.198492 0.101674
O O14 0.000000 0.261490 0.250000
O O15 0.000000 0.177737 0.750000
O O16 0.000000 0.468712 0.750000
#
# Coordination Sequence:
#
# PCOD9275121 Si02
#       8
#     4   8   4   8   8   8   8   8
#     4  10  20  38  69 106 125 172 232 282 326 394
#     4  10  22  41  71  99 135 177 224 284 330 396
#     4  12  22  42  71 106 131 170 232 292 320 404
#     4  10  24  45  64  97 143 182 220 277 341 408
#     4  12  23  44  73  98 132 178 228 280 336 401
#     4  11  26  45  63 102 140 178 226 274 350 406
#     4  10  21  42  70 100 134 178 228 272 333 401
#     4  10  21  41  67 101 131 174 236 275 334 393
#
# _framework density 22.468541999999999
#
# number of rings (size 3 to 8) (size 9 to 14) (size 15 to 20)
#    0.000    1.429    3.571    1.286    1.000    9.143 
#    2.571    1.429    0.000    0.000    0.000    0.000 
#    0.000    0.000    0.000    0.000    0.000    0.000 
#
# Total GULP energy -156534.557668 kJ/mol
# GULP energy per Si atom -5590.519917 kJ/mol
# Density = 2.241740 g / cm^3
# Si number density = 22.468542 Si / 1000 Ang^3
#
#
#
# Elastic Constant Matrix: (Units=GPa)
#
#
# Indices 1 2 3 4 5 6 
#
# 1 56.9195 15.5182 8.2980 0.0000 12.6180 0.0000
# 2 15.5182 136.5969 58.4229 0.0000 16.0114 0.0000
# 3 8.2980 58.4229 135.0770 0.0000 15.8492 0.0000
# 4 0.0000 0.0000 0.0000 29.8416 0.0000 8.0456
# 5 12.6180 16.0114 15.8492 0.0000 28.6579 0.0000
# 6 0.0000 0.0000 0.0000 8.0456 0.0000 17.3404
#
#
#
# Elastic Compliance Matrix: (Units=1/GPa)
#
#
# Indices 1 2 3 4 5 6 
#
# 1 0.019698 -0.001447 0.000362 0.000000 -0.008065 0.000000
# 2 -0.001447 0.009349 -0.003653 0.000000 -0.002565 0.000000
# 3 0.000362 -0.003653 0.009347 0.000000 -0.003288 0.000000
# 4 0.000000 0.000000 0.000000 0.038301 0.000000 -0.017771
# 5 -0.008065 -0.002565 -0.003288 0.000000 0.041697 0.000000
# 6 0.000000 0.000000 0.000000 -0.017771 0.000000 0.065914
#
#
# Mechanical properties :
#
#
# Convention : Reuss Voigt Hill
#
# Bulk Modulus (GPa) = 34.58256 54.78573 44.68414
# Shear Modulus (GPa) = 24.57942 31.59161 28.08552
#
# Velocity S-wave (km/s) = 3.31108 3.75378 3.53936
# Velocity P-wave (km/s) = 5.48111 6.57450 6.05255
#
# Compressibility (1/GPa) = 0.02891631
#
# Stress axis : x y z
#
# Youngs Moduli (GPa) = 50.76578 106.96863 106.98781
#
# Poissons Ratio (x) = 0.15483 -0.03875
# Poissons Ratio (y) = 0.07348 0.39088
# Poissons Ratio (z) = -0.01839 0.39081
#
# Static dielectric constant tensor:
#      x y z
#    x 1.860020 0.000000 -0.011250 
#    y 0.000000 1.821760 0.000000 
#    z -0.011250 0.000000 1.930200 
# 
# From -- ./inp_files/138721.got.cif
#   From: 2010.05.17/outbox.cif.g08.bks.cpg/sg15_70_cif.got.tgz:138721.got - 2010.06.03 18:47:42.
