data_PCOD9275878
_publ_section_title
;
Structure prediction by ZEFSAII (Michael W. Deem and Ramdas Pophale) SiO2 
 PCOD9275878
Probable space group: C 2/C
;
_chemical_formula_sum "Si O2"
_cell_formula_units_Z 56
_cell_length_a 15.717848
_cell_length_b 8.634491
_cell_length_c 24.517519
_cell_angle_alpha 90.000000
_cell_angle_beta 130.984710
_cell_angle_gamma 90.000000
_cell_volume 2511.810833
_symmetry_space_group_name_H-M "C 2/C"
_symmetry_group_IT_number 15
_symmetry_cell_setting 'monoclinic'
loop_
_space_group_symop_operation_xyz
x,y,z
-x,y,1/2-z
-x,-y,-z
x,-y,1/2+z
1/2+x,1/2+y,z
1/2-x,1/2+y,1/2-z
1/2-x,1/2-y,-z
1/2+x,1/2-y,1/2+z
loop_
_atom_site_type_symbol
_atom_site_label
_atom_site_fract_x
_atom_site_fract_y
_atom_site_fract_z
Si Si1 0.589028 0.934984 0.958589
Si Si2 0.655442 0.702827 0.262494
Si Si3 0.710788 0.016578 0.403780
Si Si4 0.356121 0.252108 0.909363
Si Si5 0.848300 0.493889 0.310622
Si Si6 0.097176 0.199837 0.476593
Si Si7 0.602241 0.289456 0.855230
O O1 0.681213 0.910748 0.950050
O O2 0.466953 0.926357 0.877300
O O3 0.599644 0.113570 0.983972
O O4 0.605099 0.823528 0.016708
O O5 0.747515 0.614789 0.266327
O O6 0.654295 0.881859 0.243080
O O7 0.525738 0.654183 0.200792
O O8 0.675430 0.661451 0.334439
O O9 0.818477 0.901835 0.452969
O O10 0.608176 0.897634 0.351101
O O11 0.747654 0.144194 0.376521
O O12 0.329753 0.122854 0.853642
O O13 0.466671 0.341216 0.932616
O O14 0.137102 0.173163 0.431001
#
# Coordination Sequence:
#
# PCOD9275878 Si02
#       7
#     8   8   8   8   8   8   8
#     4  10  21  42  61  94 130 165 204 269 328 366
#     4  11  24  43  66  86 124 174 215 259 316 381
#     4  11  22  38  68  95 128 165 207 263 315 389
#     4  11  23  39  63 103 131 158 210 271 327 367
#     4  11  24  44  64  92 126 169 216 264 318 383
#     4  10  20  39  65  93 125 166 213 251 313 389
#     4  10  22  41  65  88 125 168 215 255 311 382
#
# _framework density 22.294673
#
# number of rings (size 3 to 8) (size 9 to 14) (size 15 to 20)
#    0.000    1.429    4.286    4.286    8.000    0.000 
#    2.571    1.429    0.000    0.000    0.000    0.000 
#    0.000    0.000    0.000    0.000    0.000    0.000 
#
# Total GULP energy -156232.568032 kJ/mol
# GULP energy per Si atom -5579.734573 kJ/mol
# Density = 2.224393 g / cm^3
# Si number density = 22.294673 Si / 1000 Ang^3
#
#
#
# Elastic Constant Matrix: (Units=GPa)
#
#
# Indices 1 2 3 4 5 6 
#
# 1 101.6584 19.4547 16.3977 0.0000 -0.4849 0.0000
# 2 19.4547 17.3493 12.0233 0.0000 11.6027 0.0000
# 3 16.3977 12.0233 48.9505 0.0000 7.5694 0.0000
# 4 0.0000 0.0000 0.0000 27.3051 0.0000 2.5203
# 5 -0.4849 11.6027 7.5694 0.0000 33.5338 0.0000
# 6 0.0000 0.0000 0.0000 2.5203 0.0000 43.9186
#
#
#
# Elastic Compliance Matrix: (Units=1/GPa)
#
#
# Indices 1 2 3 4 5 6 
#
# 1 0.013774 -0.019630 -0.000905 0.000000 0.007196 0.000000
# 2 -0.019630 0.115217 -0.016077 0.000000 -0.036520 0.000000
# 3 -0.000905 -0.016077 0.024684 0.000000 -0.000022 0.000000
# 4 0.000000 0.000000 0.000000 0.036818 0.000000 -0.002113
# 5 0.007196 -0.036520 -0.000022 0.000000 0.042566 0.000000
# 6 0.000000 0.000000 0.000000 -0.002113 0.000000 0.022891
#
#
# Mechanical properties :
#
#
# Convention : Reuss Voigt Hill
#
# Bulk Modulus (GPa) = 12.43000 29.30106 20.86553
# Shear Modulus (GPa) = 14.04532 28.95702 21.50117
#
# Velocity S-wave (km/s) = 2.51267 3.60784 3.10886
# Velocity P-wave (km/s) = 3.74239 5.52508 4.71868
#
# Compressibility (1/GPa) = 0.08045051
#
# Stress axis : x y z
#
# Youngs Moduli (GPa) = 72.60108 8.67930 40.51168
#
# Poissons Ratio (x) = 0.17038 0.03667
# Poissons Ratio (y) = 1.42519 0.65130
# Poissons Ratio (z) = 0.06571 0.13953
#
# Static dielectric constant tensor:
#      x y z
#    x 1.849390 0.000000 -0.008570 
#    y 0.000000 1.823180 0.000000 
#    z -0.008570 0.000000 1.901360 
# 
# From -- ./inp_files/295246.got.cif
#   From: 2010.05.17/outbox.cif.g08.bks.cpg/sg15_148_cif.got.tgz:295246.got - 2010.06.03 18:47:42.
