data_PCOD9275886
_publ_section_title
;
Structure prediction by ZEFSAII (Michael W. Deem and Ramdas Pophale) SiO2 
 PCOD9275886
Probable space group: C 2/C
;
_chemical_formula_sum "Si O2"
_cell_formula_units_Z 60
_cell_length_a 11.680186
_cell_length_b 21.660126
_cell_length_c 18.918411
_cell_angle_alpha 90.000000
_cell_angle_beta 41.632924
_cell_angle_gamma 90.000000
_cell_volume 3179.773109
_symmetry_space_group_name_H-M "C 2/C"
_symmetry_group_IT_number 15
_symmetry_cell_setting 'monoclinic'
loop_
_space_group_symop_operation_xyz
x,y,z
-x,y,1/2-z
-x,-y,-z
x,-y,1/2+z
1/2+x,1/2+y,z
1/2-x,1/2+y,1/2-z
1/2-x,1/2-y,-z
1/2+x,1/2-y,1/2+z
loop_
_atom_site_type_symbol
_atom_site_label
_atom_site_fract_x
_atom_site_fract_y
_atom_site_fract_z
Si Si1 0.253485 0.216170 0.323186
Si Si2 0.500000 0.439189 0.250000
Si Si3 0.962186 0.513616 0.347638
Si Si4 0.154290 0.590031 0.493611
Si Si5 0.113831 0.656607 0.103891
Si Si6 0.798916 0.959897 0.780505
Si Si7 0.808612 0.652341 0.593446
Si Si8 0.490875 0.665270 0.335543
O O1 0.424660 0.184769 0.210355
O O2 0.252594 0.185788 0.401851
O O3 0.264882 0.289201 0.330333
O O4 0.087564 0.204798 0.350323
O O5 0.566193 0.484809 0.280053
O O6 0.339628 0.398114 0.344833
O O7 0.866581 0.459357 0.434113
O O8 0.880786 0.582375 0.388509
O O9 0.000000 0.496136 0.250000
O O10 0.144619 0.523995 0.301131
O O11 0.218824 0.551967 0.395086
O O12 0.296942 0.643067 0.441229
O O13 0.973758 0.621894 0.555517
O O14 0.143462 0.671249 0.008400
O O15 0.897186 0.897561 0.717013
O O16 0.500000 0.689926 0.250000
#
# Coordination Sequence:
#
# PCOD9275886 Si02
#       8
#     8   4   8   8   8   8   8   8
#     4  11  23  42  62  92 124 164 219 254 302 366
#     4  12  22  38  64 102 120 148 218 260 304 360
#     4  12  21  38  62  91 127 163 200 258 320 375
#     4  11  22  38  63  91 123 168 207 248 323 378
#     4  11  21  42  66  88 121 167 205 259 319 359
#     4  11  19  38  66  91 123 159 208 257 304 384
#     4  12  25  40  65  91 126 166 209 261 307 371
#     4  10  20  39  65  94 119 166 214 249 299 381
#
# _framework density 18.86927
#
# number of rings (size 3 to 8) (size 9 to 14) (size 15 to 20)
#    0.000    0.800    7.333    3.200    0.000    0.533 
#    2.400    3.333    0.000    0.000    0.000    0.000 
#    0.000    0.000    0.000    0.000    0.000    0.000 
#
# Total GULP energy -167492.665869 kJ/mol
# GULP energy per Si atom -5583.088862 kJ/mol
# Density = 1.882632 g / cm^3
# Si number density = 18.869270 Si / 1000 Ang^3
#
#
#
# Elastic Constant Matrix: (Units=GPa)
#
#
# Indices 1 2 3 4 5 6 
#
# 1 86.4607 15.3039 -2.9344 -0.0014 -0.9496 0.0014
# 2 15.3039 70.7864 2.9054 -0.0006 6.3908 0.0007
# 3 -2.9344 2.9054 39.3354 -0.0011 4.8020 0.0014
# 4 -0.0014 -0.0006 -0.0011 12.2645 0.0008 7.5754
# 5 -0.9496 6.3908 4.8020 0.0008 26.2441 -0.0005
# 6 0.0014 0.0007 0.0014 7.5754 -0.0005 10.6598
#
#
#
# Elastic Compliance Matrix: (Units=1/GPa)
#
#
# Indices 1 2 3 4 5 6 
#
# 1 0.012095 -0.002739 0.000992 0.000004 0.000923 -0.000004
# 2 -0.002739 0.015081 -0.000877 0.000002 -0.003611 -0.000002
# 3 0.000992 -0.000877 0.026114 0.000009 -0.004529 -0.000010
# 4 0.000004 0.000002 0.000009 0.145327 -0.000008 -0.103277
# 5 0.000923 -0.003611 -0.004529 -0.000008 0.039845 0.000008
# 6 -0.000004 -0.000002 -0.000010 -0.103277 0.000008 0.167204
#
#
# Mechanical properties :
#
#
# Convention : Reuss Voigt Hill
#
# Bulk Modulus (GPa) = 20.81558 25.23692 23.02625
# Shear Modulus (GPa) = 11.71158 21.92086 16.81622
#
# Velocity S-wave (km/s) = 2.49403 3.41210 2.98853
# Velocity P-wave (km/s) = 4.39875 5.37837 4.91304
#
# Compressibility (1/GPa) = 0.04804094
#
# Stress axis : x y z
#
# Youngs Moduli (GPa) = 82.68195 66.30777 38.29353
#
# Poissons Ratio (x) = 0.18161 -0.03798
# Poissons Ratio (y) = 0.22646 0.03360
# Poissons Ratio (z) = -0.08201 0.05818
#
# Static dielectric constant tensor:
#      x y z
#    x 1.657470 0.000000 0.007620 
#    y 0.000000 1.651540 0.000000 
#    z 0.007620 0.000000 1.614810 
# 
# From -- ./inp_files/200529.got.cif
#   From: 2010.05.17/outbox.cif.g08.bks.cpg/sg15_101_cif.got.tgz:200529.got - 2010.06.03 18:47:42.
