data_PCOD9275887
_publ_section_title
;
Structure prediction by ZEFSAII (Michael W. Deem and Ramdas Pophale) SiO2 
 PCOD9275887
Probable space group: C 2/C
;
_chemical_formula_sum "Si O2"
_cell_formula_units_Z 56
_cell_length_a 18.828266
_cell_length_b 17.017222
_cell_length_c 9.440647
_cell_angle_alpha 90.000000
_cell_angle_beta 59.541030
_cell_angle_gamma 90.000000
_cell_volume 2607.379109
_symmetry_space_group_name_H-M "C 2/C"
_symmetry_group_IT_number 15
_symmetry_cell_setting 'monoclinic'
loop_
_space_group_symop_operation_xyz
x,y,z
-x,y,1/2-z
-x,-y,-z
x,-y,1/2+z
1/2+x,1/2+y,z
1/2-x,1/2+y,1/2-z
1/2-x,1/2-y,-z
1/2+x,1/2-y,1/2+z
loop_
_atom_site_type_symbol
_atom_site_label
_atom_site_fract_x
_atom_site_fract_y
_atom_site_fract_z
Si Si1 0.500000 0.084833 0.250000
Si Si2 0.212346 0.409871 0.219370
Si Si3 0.356982 0.018162 0.990431
Si Si4 0.917079 0.671182 0.088369
Si Si5 0.623445 0.320823 0.482468
Si Si6 0.048226 0.103133 0.441196
Si Si7 0.594675 0.762325 0.316378
Si Si8 0.500000 0.499691 0.250000
O O1 0.440783 0.138691 0.216991
O O2 0.442912 0.029380 0.403213
O O3 0.207509 0.463213 0.363356
O O4 0.158934 0.330183 0.285012
O O5 0.170826 0.462441 0.139446
O O6 0.302046 0.380656 0.085857
O O7 0.373976 0.101237 0.047396
O O8 0.861660 0.748789 0.140601
O O9 0.004852 0.697709 0.929415
O O10 0.543487 0.365687 0.505423
O O11 0.607544 0.274963 0.646778
O O12 0.045894 0.052702 0.585734
O O13 0.099596 0.182937 0.404343
O O14 0.937446 0.050952 0.214976
#
# Coordination Sequence:
#
# PCOD9275887 Si02
#       8
#     4   8   8   8   8   8   8   4
#     4  12  22  39  67 104 132 168 222 300 346 383
#     4  12  26  44  65  98 142 179 227 266 359 417
#     4  12  24  41  69 103 135 178 221 294 342 410
#     4  11  22  39  70  97 130 171 239 282 341 396
#     4  11  24  41  64  94 132 183 222 270 337 423
#     4  10  21  40  67  93 124 165 231 275 337 378
#     4  11  21  40  66  95 125 174 223 282 325 412
#     4  10  20  39  65  94 120 160 218 290 314 387
#
# _framework density 21.477506000000002
#
# number of rings (size 3 to 8) (size 9 to 14) (size 15 to 20)
#    0.000    0.857    5.714    3.000    0.000    3.429 
#    0.000    0.714    3.143    0.000    0.000    0.000 
#    0.000    0.000    0.000    0.000    0.000    0.000 
#
# Total GULP energy -156424.633381 kJ/mol
# GULP energy per Si atom -5586.594049 kJ/mol
# Density = 2.142862 g / cm^3
# Si number density = 21.477506 Si / 1000 Ang^3
#
#
#
# Elastic Constant Matrix: (Units=GPa)
#
#
# Indices 1 2 3 4 5 6 
#
# 1 17.7898 13.7993 4.6763 0.0000 -3.5222 0.0000
# 2 13.7993 132.5903 46.5244 0.0000 3.7988 0.0000
# 3 4.6763 46.5244 58.5546 0.0000 4.3010 0.0000
# 4 0.0000 0.0000 0.0000 36.8486 0.0000 3.3981
# 5 -3.5222 3.7988 4.3010 0.0000 23.1708 0.0000
# 6 0.0000 0.0000 0.0000 3.3981 0.0000 19.2950
#
#
#
# Elastic Compliance Matrix: (Units=1/GPa)
#
#
# Indices 1 2 3 4 5 6 
#
# 1 0.063754 -0.006766 -0.000516 0.000000 0.010896 0.000000
# 2 -0.006766 0.011176 -0.008242 0.000000 -0.001331 0.000000
# 3 -0.000516 -0.008242 0.023900 0.000000 -0.003164 0.000000
# 4 0.000000 0.000000 0.000000 0.027586 0.000000 -0.004858
# 5 0.010896 -0.001331 -0.003164 0.000000 0.045620 0.000000
# 6 0.000000 0.000000 0.000000 -0.004858 0.000000 0.052683
#
#
# Mechanical properties :
#
#
# Convention : Reuss Voigt Hill
#
# Bulk Modulus (GPa) = 14.75313 37.65942 26.20627
# Shear Modulus (GPa) = 17.96229 25.45851 21.71040
#
# Velocity S-wave (km/s) = 2.89507 3.44664 3.18283
# Velocity P-wave (km/s) = 4.24962 5.78027 5.07301
#
# Compressibility (1/GPa) = 0.06778223
#
# Stress axis : x y z
#
# Youngs Moduli (GPa) = 15.68536 89.47410 41.84044
#
# Poissons Ratio (x) = 0.60542 0.02158
# Poissons Ratio (y) = 0.10613 0.34485
# Poissons Ratio (z) = 0.00809 0.73745
#
# Static dielectric constant tensor:
#      x y z
#    x 1.751970 0.000000 -0.008020 
#    y 0.000000 1.806110 0.000000 
#    z -0.008020 0.000000 1.812110 
# 
# From -- ./inp_files/49055.got.cif
#   From: 2010.05.17/outbox.cif.g08.bks.cpg/sg15_25_cif.got.tgz:49055.got - 2010.06.03 18:47:42.
