data_PCOD9275538
_publ_section_title
;
Structure prediction by ZEFSAII (Michael W. Deem and Ramdas Pophale) SiO2 
 PCOD9275538
Probable space group: C 2/C
;
_chemical_formula_sum "Si O2"
_cell_formula_units_Z 64
_cell_length_a 24.901478
_cell_length_b 9.471439
_cell_length_c 13.628273
_cell_angle_alpha 90.000000
_cell_angle_beta 69.603965
_cell_angle_gamma 90.000000
_cell_volume 3012.751865
_symmetry_space_group_name_H-M "C 2/C"
_symmetry_group_IT_number 15
_symmetry_cell_setting 'monoclinic'
loop_
_space_group_symop_operation_xyz
x,y,z
-x,y,1/2-z
-x,-y,-z
x,-y,1/2+z
1/2+x,1/2+y,z
1/2-x,1/2+y,1/2-z
1/2-x,1/2-y,-z
1/2+x,1/2-y,1/2+z
loop_
_atom_site_type_symbol
_atom_site_label
_atom_site_fract_x
_atom_site_fract_y
_atom_site_fract_z
Si Si1 0.337843 0.584321 0.624201
Si Si2 0.405391 0.875280 0.687229
Si Si3 0.305862 0.137142 0.084716
Si Si4 0.817267 0.196777 0.050196
Si Si5 0.464850 0.353683 0.027432
Si Si6 0.711865 0.403716 0.139803
Si Si7 0.998856 0.609253 0.636658
Si Si8 0.615402 0.055840 0.076383
O O1 0.296570 0.694575 0.594056
O O2 0.326007 0.420141 0.624941
O O3 0.400046 0.608496 0.538097
O O4 0.331853 0.616614 0.743670
O O5 0.352686 0.882095 0.643510
O O6 0.448217 0.742977 0.634312
O O7 0.384981 0.884637 0.812764
O O8 0.443547 0.015793 0.650188
O O9 0.249138 0.044881 0.132331
O O10 0.338682 0.069914 0.970371
O O11 0.758211 0.277136 0.109067
O O12 0.814863 0.108339 0.950425
O O13 0.864625 0.317004 0.006212
O O14 0.500000 0.500000 0.000000
O O15 0.494260 0.243195 0.936363
O O16 0.053980 0.507742 0.590064
O O17 0.000000 0.652588 0.750000
#
# Coordination Sequence:
#
# PCOD9275538 Si02
#       8
#     8   8   8   8   8   8   8   8
#     4  11  22  40  60  88 128 157 204 260 320 368
#     4  10  21  39  68  88 122 165 211 255 302 380
#     4  10  21  38  63  88 126 158 205 263 307 378
#     4  10  22  38  64  89 124 158 208 263 303 385
#     4  11  24  40  61  93 129 164 199 262 319 370
#     4  10  22  41  62  89 117 165 213 250 315 372
#     4  10  21  41  64  91 123 165 213 254 301 381
#     4  10  20  39  62  93 118 169 210 249 312 371
#
# _framework density 21.243037000000001
#
# number of rings (size 3 to 8) (size 9 to 14) (size 15 to 20)
#    0.000    1.750    2.500    2.625    1.750    3.500 
#    4.500    2.500    0.000    0.000    0.000    0.000 
#    0.000    0.000    0.000    0.000    0.000    0.000 
#
# Total GULP energy -178541.095665 kJ/mol
# GULP energy per Si atom -5579.409240 kJ/mol
# Density = 2.119469 g / cm^3
# Si number density = 21.243037 Si / 1000 Ang^3
#
#
#
# Elastic Constant Matrix: (Units=GPa)
#
#
# Indices 1 2 3 4 5 6 
#
# 1 28.3271 21.8171 4.0436 0.0000 -9.5486 0.0000
# 2 21.8171 90.3551 40.2701 0.0000 2.8361 0.0000
# 3 4.0436 40.2701 110.9737 0.0000 -3.6317 0.0000
# 4 0.0000 0.0000 0.0000 27.0990 0.0000 -4.5167
# 5 -9.5486 2.8361 -3.6317 0.0000 21.4263 0.0000
# 6 0.0000 0.0000 0.0000 -4.5167 0.0000 27.0783
#
#
#
# Elastic Compliance Matrix: (Units=1/GPa)
#
#
# Indices 1 2 3 4 5 6 
#
# 1 0.057307 -0.016967 0.005006 0.000000 0.028633 0.000000
# 2 -0.016967 0.018369 -0.006410 0.000000 -0.011079 0.000000
# 3 0.005006 -0.006410 0.011318 0.000000 0.004998 0.000000
# 4 0.000000 0.000000 0.000000 0.037957 0.000000 0.006331
# 5 0.028633 -0.011079 0.004998 0.000000 0.061746 0.000000
# 6 0.000000 0.000000 0.000000 0.006331 0.000000 0.037986
#
#
# Mechanical properties :
#
#
# Convention : Reuss Voigt Hill
#
# Bulk Modulus (GPa) = 19.89980 40.21307 30.05643
# Shear Modulus (GPa) = 17.97423 26.02239 21.99831
#
# Velocity S-wave (km/s) = 2.91198 3.50377 3.22149
# Velocity P-wave (km/s) = 4.54908 5.94472 5.29310
#
# Compressibility (1/GPa) = 0.05025176
#
# Stress axis : x y z
#
# Youngs Moduli (GPa) = 17.44989 54.43965 88.35191
#
# Poissons Ratio (x) = 0.92369 -0.44228
# Poissons Ratio (y) = 0.29607 0.56634
# Poissons Ratio (z) = -0.08735 0.34896
#
# Static dielectric constant tensor:
#      x y z
#    x 1.764100 0.000000 0.010890 
#    y 0.000000 1.829510 0.000000 
#    z 0.010890 0.000000 1.778510 
# 
# From -- ./inp_files/180798.got.cif
#   From: 2010.05.17/outbox.cif.g08.bks.cpg/sg15_91_cif.got.tgz:180798.got - 2010.06.03 18:47:42.
