data_PCOD9275479
_publ_section_title
;
Structure prediction by ZEFSAII (Michael W. Deem and Ramdas Pophale) SiO2 
 PCOD9275479
Probable space group: C 2/C
;
_chemical_formula_sum "Si O2"
_cell_formula_units_Z 44
_cell_length_a 23.623252
_cell_length_b 11.282104
_cell_length_c 13.698669
_cell_angle_alpha 90.000000
_cell_angle_beta 149.787934
_cell_angle_gamma 90.000000
_cell_volume 1837.174734
_symmetry_space_group_name_H-M "C 2/C"
_symmetry_group_IT_number 15
_symmetry_cell_setting 'monoclinic'
loop_
_space_group_symop_operation_xyz
x,y,z
-x,y,1/2-z
-x,-y,-z
x,-y,1/2+z
1/2+x,1/2+y,z
1/2-x,1/2+y,1/2-z
1/2-x,1/2-y,-z
1/2+x,1/2-y,1/2+z
loop_
_atom_site_type_symbol
_atom_site_label
_atom_site_fract_x
_atom_site_fract_y
_atom_site_fract_z
Si Si1 0.216388 0.450256 0.117300
Si Si2 0.588968 0.366973 0.796126
Si Si3 0.591450 0.105640 0.800057
Si Si4 0.114756 0.881854 0.273870
Si Si5 0.500000 0.211522 0.250000
Si Si6 0.287202 0.005568 0.166110
O O1 0.323937 0.374710 0.239586
O O2 0.212080 0.505668 0.217676
O O3 0.203085 0.563270 0.025079
O O4 0.107763 0.368235 0.936946
O O5 0.500000 0.366432 0.750000
O O6 0.586194 0.236681 0.748515
O O7 0.562823 0.485665 0.697507
O O8 0.709600 0.390789 0.025949
O O9 0.500000 0.098407 0.750000
O O10 0.596439 0.013964 0.717805
O O11 0.031252 0.790583 0.200993
O O12 0.217487 0.891248 0.507465
#
# Coordination Sequence:
#
# PCOD9275479 Si02
#       6
#     8   8   8   8   4   8
#     4  11  23  38  63  92 122 162 204 247 311 362
#     4   9  18  39  64  86 116 157 202 255 308 343
#     4  10  20  39  62  87 122 155 197 264 305 348
#     4   9  21  42  61  84 129 164 198 256 304 359
#     4  12  22  44  58  88 134 168 192 256 304 370
#     4   9  21  39  61  93 115 161 207 245 300 375
#
# _framework density 23.949818
#
# number of rings (size 3 to 8) (size 9 to 14) (size 15 to 20)
#    1.091    1.091    1.818    1.091    0.000    2.182 
#    6.545    1.818    0.000    0.000    0.000    0.000 
#    0.000    0.000    0.000    0.000    0.000    0.000 
#
# Total GULP energy -122511.946218 kJ/mol
# GULP energy per Si atom -5568.724828 kJ/mol
# Density = 2.389531 g / cm^3
# Si number density = 23.949818 Si / 1000 Ang^3
#
#
#
# Elastic Constant Matrix: (Units=GPa)
#
#
# Indices 1 2 3 4 5 6 
#
# 1 130.3386 13.5527 28.1690 0.0000 -11.8667 0.0000
# 2 13.5527 82.9590 2.9715 0.0000 9.4858 0.0000
# 3 28.1690 2.9715 35.1459 0.0000 -8.8419 0.0000
# 4 0.0000 0.0000 0.0000 7.8890 0.0000 17.1103
# 5 -11.8667 9.4858 -8.8419 0.0000 41.4441 0.0000
# 6 0.0000 0.0000 0.0000 17.1103 0.0000 30.1171
#
#
#
# Elastic Compliance Matrix: (Units=1/GPa)
#
#
# Indices 1 2 3 4 5 6 
#
# 1 0.009501 -0.001474 -0.007102 0.000000 0.001543 0.000000
# 2 -0.001474 0.012723 -0.000775 0.000000 -0.003499 0.000000
# 3 -0.007102 -0.000775 0.035658 0.000000 0.005751 0.000000
# 4 0.000000 0.000000 0.000000 -0.545896 0.000000 0.310137
# 5 0.001543 -0.003499 0.005751 0.000000 0.026599 0.000000
# 6 0.000000 0.000000 0.000000 0.310137 0.000000 -0.142993
#
#
# Mechanical properties :
#
#
# Convention : Reuss Voigt Hill
#
# Bulk Modulus (GPa) = 25.52351 37.53667 31.53009
# Shear Modulus (GPa) = -8.73138 29.47338 10.37100
#
# Velocity S-wave (km/s) = -1.91144 3.51184 2.08320
# Velocity P-wave (km/s) = 2.41013 5.67019 4.35659
#
# Compressibility (1/GPa) = 0.03917956
#
# Stress axis : x y z
#
# Youngs Moduli (GPa) = 105.25208 78.59883 28.04455
#
# Poissons Ratio (x) = 0.11587 0.19918
# Poissons Ratio (y) = 0.15516 0.02172
# Poissons Ratio (z) = 0.74752 0.06088
#
# Static dielectric constant tensor:
#      x y z
#    x 2.049730 0.000000 0.092330 
#    y 0.000000 1.932090 0.000000 
#    z 0.092330 0.000000 1.966110 
# 
# From -- ./inp_files/173023.got.cif
#   From: 2010.05.17/outbox.cif.g08.bks.cpg/sg15_87_cif.got.tgz:173023.got - 2010.06.03 18:47:42.
