data_PCOD9275231
_publ_section_title
;
Structure prediction by ZEFSAII (Michael W. Deem and Ramdas Pophale) SiO2 
 PCOD9275231
Probable space group: C 2/C
;
_chemical_formula_sum "Si O2"
_cell_formula_units_Z 56
_cell_length_a 24.487163
_cell_length_b 15.594553
_cell_length_c 7.336939
_cell_angle_alpha 90.000000
_cell_angle_beta 103.165070
_cell_angle_gamma 90.000000
_cell_volume 2728.094942
_symmetry_space_group_name_H-M "C 2/C"
_symmetry_group_IT_number 15
_symmetry_cell_setting 'monoclinic'
loop_
_space_group_symop_operation_xyz
x,y,z
-x,y,1/2-z
-x,-y,-z
x,-y,1/2+z
1/2+x,1/2+y,z
1/2-x,1/2+y,1/2-z
1/2-x,1/2-y,-z
1/2+x,1/2-y,1/2+z
loop_
_atom_site_type_symbol
_atom_site_label
_atom_site_fract_x
_atom_site_fract_y
_atom_site_fract_z
Si Si1 0.500000 0.275890 0.250000
Si Si2 0.217777 0.890942 0.709314
Si Si3 0.387054 0.295847 0.986285
Si Si4 0.804828 0.759518 0.243016
Si Si5 0.750199 0.082358 0.854567
Si Si6 0.000000 0.510995 0.750000
Si Si7 0.450766 0.879942 0.924212
Si Si8 0.859886 0.675942 0.632445
O O1 0.448678 0.320891 0.105807
O O2 0.530378 0.212195 0.130091
O O3 0.153951 0.873260 0.602781
O O4 0.255235 0.809327 0.676422
O O5 0.242315 0.981663 0.665495
O O6 0.223508 0.894957 0.930583
O O7 0.353019 0.251641 0.127994
O O8 0.388508 0.231455 0.814147
O O9 0.781583 0.856510 0.233890
O O10 0.828578 0.737088 0.462115
O O11 0.686102 0.113854 0.813443
O O12 0.051512 0.445040 0.748866
O O13 0.998899 0.575370 0.580174
O O14 0.400689 0.875238 0.028422
#
# Coordination Sequence:
#
# PCOD9275231 Si02
#       8
#     4   8   8   8   8   4   8   8
#     4  11  24  40  64  94 123 186 242 268 337 394
#     4  11  23  40  67  99 136 178 217 278 346 403
#     4  12  23  41  69  92 134 180 222 285 332 391
#     4  11  22  44  64  98 135 171 218 282 337 420
#     4  11  23  41  65 103 138 171 221 271 354 417
#     4   9  20  36  58  78 129 166 212 276 327 382
#     4  10  20  39  56  89 123 170 219 272 327 399
#     4  11  22  40  65  96 135 171 217 280 337 411
#
# _framework density 20.527144
#
# number of rings (size 3 to 8) (size 9 to 14) (size 15 to 20)
#    0.000    1.143    4.286    3.000    2.000    2.286 
#    2.571    0.000    0.000    3.429    0.000    0.000 
#    0.000    0.000    0.000    0.000    0.000    0.000 
#
# Total GULP energy -156192.448292 kJ/mol
# GULP energy per Si atom -5578.301725 kJ/mol
# Density = 2.048042 g / cm^3
# Si number density = 20.527144 Si / 1000 Ang^3
#
#
#
# Elastic Constant Matrix: (Units=GPa)
#
#
# Indices 1 2 3 4 5 6 
#
# 1 96.8251 17.8205 31.2016 0.0000 2.2160 0.0000
# 2 17.8205 74.2954 11.5943 0.0000 -2.0247 0.0000
# 3 31.2016 11.5943 90.9358 0.0000 0.1103 0.0000
# 4 0.0000 0.0000 0.0000 27.1371 0.0000 -9.3887
# 5 2.2160 -2.0247 0.1103 0.0000 38.9779 0.0000
# 6 0.0000 0.0000 0.0000 -9.3887 0.0000 16.4143
#
#
#
# Elastic Compliance Matrix: (Units=1/GPa)
#
#
# Indices 1 2 3 4 5 6 
#
# 1 0.012002 -0.002304 -0.003823 0.000000 -0.000791 0.000000
# 2 -0.002304 0.014195 -0.001021 0.000000 0.000871 0.000000
# 3 -0.003823 -0.001021 0.012439 0.000000 0.000129 0.000000
# 4 0.000000 0.000000 0.000000 0.045941 0.000000 0.026278
# 5 -0.000791 0.000871 0.000129 0.000000 0.025745 0.000000
# 6 0.000000 0.000000 0.000000 0.026278 0.000000 0.075953
#
#
# Mechanical properties :
#
#
# Convention : Reuss Voigt Hill
#
# Bulk Modulus (GPa) = 41.08341 42.58767 41.83554
# Shear Modulus (GPa) = 23.95963 29.93520 26.94742
#
# Velocity S-wave (km/s) = 3.42016 3.82294 3.62715
# Velocity P-wave (km/s) = 5.97112 6.34654 6.16169
#
# Compressibility (1/GPa) = 0.02434072
#
# Stress axis : x y z
#
# Youngs Moduli (GPa) = 83.31878 70.44562 80.39483
#
# Poissons Ratio (x) = 0.16229 0.30738
# Poissons Ratio (y) = 0.19194 0.08204
# Poissons Ratio (z) = 0.31856 0.07189
#
# Static dielectric constant tensor:
#      x y z
#    x 1.770920 0.000000 -0.015120 
#    y 0.000000 1.752060 0.000000 
#    z -0.015120 0.000000 1.889080 
# 
# From -- ./inp_files/61636.got.cif
#   From: 2010.05.17/outbox.cif.g08.bks.cpg/sg15_31_cif.got.tgz:61636.got - 2010.06.03 18:47:42.
