data_PCOD9275625
_publ_section_title
;
Structure prediction by ZEFSAII (Michael W. Deem and Ramdas Pophale) SiO2 
 PCOD9275625
Probable space group: C 2/C
;
_chemical_formula_sum "Si O2"
_cell_formula_units_Z 60
_cell_length_a 23.025729
_cell_length_b 6.091400
_cell_length_c 18.533728
_cell_angle_alpha 90.000000
_cell_angle_beta 105.727232
_cell_angle_gamma 90.000000
_cell_volume 2502.202582
_symmetry_space_group_name_H-M "C 2/C"
_symmetry_group_IT_number 15
_symmetry_cell_setting 'monoclinic'
loop_
_space_group_symop_operation_xyz
x,y,z
-x,y,1/2-z
-x,-y,-z
x,-y,1/2+z
1/2+x,1/2+y,z
1/2-x,1/2+y,1/2-z
1/2-x,1/2-y,-z
1/2+x,1/2-y,1/2+z
loop_
_atom_site_type_symbol
_atom_site_label
_atom_site_fract_x
_atom_site_fract_y
_atom_site_fract_z
Si Si1 0.616797 0.824219 0.519403
Si Si2 0.063947 0.723552 0.552297
Si Si3 0.657753 0.298614 0.179035
Si Si4 0.609687 0.884503 0.217734
Si Si5 0.000000 0.116123 0.250000
Si Si6 0.257797 0.996099 0.469423
Si Si7 0.547706 0.481140 0.913092
Si Si8 0.290879 0.368706 0.691502
O O1 0.561910 0.964442 0.532811
O O2 0.671962 0.988722 0.527913
O O3 0.635723 0.657808 0.589939
O O4 0.599551 0.701813 0.440959
O O5 0.111485 0.710730 0.635720
O O6 0.010142 0.861677 0.570375
O O7 0.068864 0.828469 0.473990
O O8 0.674574 0.488157 0.238475
O O9 0.608989 0.143372 0.201127
O O10 0.721981 0.175445 0.190338
O O11 0.552235 0.772846 0.235227
O O12 0.668032 0.847325 0.288564
O O13 0.029808 0.977780 0.325008
O O14 0.250000 0.750000 0.500000
O O15 0.214089 0.010524 0.385895
O O16 0.250000 0.250000 0.500000
#
# Coordination Sequence:
#
# PCOD9275625 Si02
#       8
#     8   8   8   8   4   8   8   8
#     4  10  22  38  66  91 129 172 225 283 339 407
#     4   9  20  38  64  95 121 176 222 290 321 414
#     4  10  21  38  63 100 119 168 222 284 338 392
#     4  10  21  40  61  93 135 161 225 272 349 400
#     4  10  24  38  60  92 126 180 202 284 346 426
#     4  11  29  45  63  98 139 187 228 270 349 424
#     4  10  20  39  63  89 133 165 231 273 351 400
#     4  11  22  38  69  92 132 170 225 289 334 400
#
# _framework density 23.978871999999999
#
# number of rings (size 3 to 8) (size 9 to 14) (size 15 to 20)
#    0.000    1.867    1.333    1.200    5.600    0.000 
#    0.000    1.333    0.000    0.000    0.000    0.000 
#    0.000    0.000    0.000    0.000    0.000    0.000 
#
# Total GULP energy -167114.338201 kJ/mol
# GULP energy per Si atom -5570.477940 kJ/mol
# Density = 2.392429 g / cm^3
# Si number density = 23.978872 Si / 1000 Ang^3
#
#
#
# Elastic Constant Matrix: (Units=GPa)
#
#
# Indices 1 2 3 4 5 6 
#
# 1 64.8482 0.1427 15.9353 0.0000 2.6024 0.0000
# 2 0.1427 56.0456 47.0796 0.0000 -2.4668 0.0000
# 3 15.9353 47.0796 197.5231 0.0000 10.9136 0.0000
# 4 0.0000 0.0000 0.0000 24.5264 0.0000 -4.1872
# 5 2.6024 -2.4668 10.9136 0.0000 32.1145 0.0000
# 6 0.0000 0.0000 0.0000 -4.1872 0.0000 16.2574
#
#
#
# Elastic Compliance Matrix: (Units=1/GPa)
#
#
# Indices 1 2 3 4 5 6 
#
# 1 0.015820 0.001215 -0.001529 0.000000 -0.000669 0.000000
# 2 0.001215 0.022816 -0.005735 0.000000 0.003603 0.000000
# 3 -0.001529 -0.005735 0.006696 0.000000 -0.002592 0.000000
# 4 0.000000 0.000000 0.000000 0.042648 0.000000 0.010984
# 5 -0.000669 0.003603 -0.002592 0.000000 0.032351 0.000000
# 6 0.000000 0.000000 0.000000 0.010984 0.000000 0.064340
#
#
# Mechanical properties :
#
#
# Convention : Reuss Voigt Hill
#
# Bulk Modulus (GPa) = 30.09012 49.41468 39.75240
# Shear Modulus (GPa) = 24.05615 31.59695 27.82655
#
# Velocity S-wave (km/s) = 3.17081 3.63395 3.41025
# Velocity P-wave (km/s) = 5.09717 6.18545 5.66749
#
# Compressibility (1/GPa) = 0.03323350
#
# Stress axis : x y z
#
# Youngs Moduli (GPa) = 63.20916 43.82927 149.33728
#
# Poissons Ratio (x) = -0.05323 0.22831
# Poissons Ratio (y) = -0.07677 0.85648
# Poissons Ratio (z) = 0.09664 0.25137
#
# Static dielectric constant tensor:
#      x y z
#    x 2.439060 0.000000 0.281440 
#    y 0.000000 2.050970 0.000000 
#    z 0.281440 0.000000 2.082120 
# 
# From -- ./inp_files/256778.got.cif
#   From: 2010.05.17/outbox.cif.g08.bks.cpg/sg15_129_cif.got.tgz:256778.got - 2010.06.03 18:47:42.
