data_PCOD9275390
_publ_section_title
;
Structure prediction by ZEFSAII (Michael W. Deem and Ramdas Pophale) SiO2 
 PCOD9275390
Probable space group: C 2/C
;
_chemical_formula_sum "Si O2"
_cell_formula_units_Z 56
_cell_length_a 9.760536
_cell_length_b 15.861521
_cell_length_c 18.333260
_cell_angle_alpha 90.000000
_cell_angle_beta 67.161000
_cell_angle_gamma 90.000000
_cell_volume 2615.774298
_symmetry_space_group_name_H-M "C 2/C"
_symmetry_group_IT_number 15
_symmetry_cell_setting 'monoclinic'
loop_
_space_group_symop_operation_xyz
x,y,z
-x,y,1/2-z
-x,-y,-z
x,-y,1/2+z
1/2+x,1/2+y,z
1/2-x,1/2+y,1/2-z
1/2-x,1/2-y,-z
1/2+x,1/2-y,1/2+z
loop_
_atom_site_type_symbol
_atom_site_label
_atom_site_fract_x
_atom_site_fract_y
_atom_site_fract_z
Si Si1 0.843415 0.001646 0.402837
Si Si2 0.840223 0.756452 0.592489
Si Si3 0.147447 0.928629 0.386200
Si Si4 0.471319 0.006645 0.335972
Si Si5 0.637518 0.873126 0.536038
Si Si6 0.746511 0.392891 0.208348
Si Si7 0.640545 0.327582 0.534760
O O1 0.737467 0.939421 0.470665
O O2 0.834678 0.964680 0.323137
O O3 0.009137 0.989892 0.400566
O O4 0.798219 0.097330 0.427470
O O5 0.735351 0.825502 0.576875
O O6 0.904722 0.697582 0.513796
O O7 0.750854 0.694215 0.663770
O O8 0.983762 0.796964 0.599442
O O9 0.177837 0.883807 0.302461
O O10 0.111428 0.868115 0.460890
O O11 0.301433 0.975315 0.373123
O O12 0.500000 0.044138 0.250000
O O13 0.488018 0.073942 0.396775
O O14 0.585107 0.929105 0.320188
O O15 0.750000 0.250000 0.500000
#
# Coordination Sequence:
#
# PCOD9275390 Si02
#       7
#     8   8   8   8   8   8   8
#     4  11  22  41  69  90 122 171 221 258 305 390
#     4  10  22  38  58  93 125 157 205 258 321 366
#     4  11  21  43  65  92 127 173 210 259 324 376
#     4  10  21  38  62  87 120 165 210 252 318 374
#     4  10  20  39  61  86 118 164 211 256 303 380
#     4  10  24  41  64  93 128 169 211 266 317 378
#     4  12  24  38  65  98 127 167 209 268 321 379
#
# _framework density 21.408577000000001
#
# number of rings (size 3 to 8) (size 9 to 14) (size 15 to 20)
#    0.000    1.429    2.857    2.571    2.000    1.143 
#    2.571    2.857    0.000    0.000    0.000    0.000 
#    0.000    0.000    0.000    0.000    0.000    0.000 
#
# Total GULP energy -156508.029624 kJ/mol
# GULP energy per Si atom -5589.572487 kJ/mol
# Density = 2.135985 g / cm^3
# Si number density = 21.408577 Si / 1000 Ang^3
#
#
#
# Elastic Constant Matrix: (Units=GPa)
#
#
# Indices 1 2 3 4 5 6 
#
# 1 65.1862 8.5662 -8.7877 0.0000 3.7786 0.0000
# 2 8.5662 85.2404 7.8636 0.0000 -0.5248 0.0000
# 3 -8.7877 7.8636 63.2002 0.0000 5.4104 0.0000
# 4 0.0000 0.0000 0.0000 14.5369 0.0000 -2.8417
# 5 3.7786 -0.5248 5.4104 0.0000 25.0153 0.0000
# 6 0.0000 0.0000 0.0000 -2.8417 0.0000 19.7217
#
#
#
# Elastic Compliance Matrix: (Units=1/GPa)
#
#
# Indices 1 2 3 4 5 6 
#
# 1 0.016137 -0.001894 0.002742 0.000000 -0.003070 0.000000
# 2 -0.001894 0.012098 -0.001849 0.000000 0.000940 0.000000
# 3 0.002742 -0.001849 0.016784 0.000000 -0.004083 0.000000
# 4 0.000000 0.000000 0.000000 0.070784 0.000000 0.010199
# 5 -0.003070 0.000940 -0.004083 0.000000 0.041342 0.000000
# 6 0.000000 0.000000 0.000000 0.010199 0.000000 0.052175
#
#
# Mechanical properties :
#
#
# Convention : Reuss Voigt Hill
#
# Bulk Modulus (GPa) = 23.24595 25.43456 24.34025
# Shear Modulus (GPa) = 22.15715 25.58709 23.87212
#
# Velocity S-wave (km/s) = 3.22058 3.46089 3.34289
# Velocity P-wave (km/s) = 4.97105 5.27984 5.12777
#
# Compressibility (1/GPa) = 0.04301825
#
# Stress axis : x y z
#
# Youngs Moduli (GPa) = 61.96875 82.65698 59.58186
#
# Poissons Ratio (x) = 0.15652 -0.16339
# Poissons Ratio (y) = 0.11734 0.11017
# Poissons Ratio (z) = -0.16993 0.15284
#
# Static dielectric constant tensor:
#      x y z
#    x 1.804320 0.000000 0.027430 
#    y 0.000000 1.784110 0.000000 
#    z 0.027430 0.000000 1.776160 
# 
# From -- ./inp_files/190939.got.cif
#   From: 2010.05.17/outbox.cif.g08.bks.cpg/sg15_96_cif.got.tgz:190939.got - 2010.06.03 18:47:42.
