data_PCOD9275006
_publ_section_title
;
Structure prediction by ZEFSAII (Michael W. Deem and Ramdas Pophale) SiO2 
 PCOD9275006
Probable space group: C 2/C
;
_chemical_formula_sum "Si O2"
_cell_formula_units_Z 24
_cell_length_a 8.280295
_cell_length_b 17.794919
_cell_length_c 7.716366
_cell_angle_alpha 90.000000
_cell_angle_beta 57.894192
_cell_angle_gamma 90.000000
_cell_volume 963.103464
_symmetry_space_group_name_H-M "C 2/C"
_symmetry_group_IT_number 15
_symmetry_cell_setting 'monoclinic'
loop_
_space_group_symop_operation_xyz
x,y,z
-x,y,1/2-z
-x,-y,-z
x,-y,1/2+z
1/2+x,1/2+y,z
1/2-x,1/2+y,1/2-z
1/2-x,1/2-y,-z
1/2+x,1/2-y,1/2+z
loop_
_atom_site_type_symbol
_atom_site_label
_atom_site_fract_x
_atom_site_fract_y
_atom_site_fract_z
Si Si1 0.954806 0.412040 0.011140
Si Si2 0.912158 0.081002 0.990078
Si Si3 0.731405 0.662653 0.970266
O O1 0.500000 0.409298 0.250000
O O2 0.838120 0.370942 0.236335
O O3 0.161976 0.377403 0.931967
O O4 0.811923 0.409522 0.927619
O O5 0.014035 0.141256 0.054249
O O6 0.500000 0.000000 0.000000
O O7 0.000000 0.000000 0.000000
O O8 0.750000 0.750000 0.000000
#
# Coordination Sequence:
#
# PCOD9275006 Si02
#       3
#     8   8   8
#     4  10  20  40  70  93 128 181 232 268 329 415
#     4  10  20  38  67  95 128 175 230 274 330 408
#     4  10  22  40  63  99 138 167 218 290 345 384
#
# _framework density 24.919440999999999
#
# number of rings (size 3 to 8) (size 9 to 14) (size 15 to 20)
#    0.000    2.000    3.333    0.000    0.000    1.333 
#    6.000    0.000   22.000    0.000    0.000    0.000 
#    0.000    0.000    0.000    0.000    0.000    0.000 
#
# Total GULP energy -66936.701738 kJ/mol
# GULP energy per Si atom -5578.058478 kJ/mol
# Density = 2.486272 g / cm^3
# Si number density = 24.919441 Si / 1000 Ang^3
#
#
#
# Elastic Constant Matrix: (Units=GPa)
#
#
# Indices 1 2 3 4 5 6 
#
# 1 386.5768 138.9671 72.5273 0.0000 -17.0790 0.0000
# 2 138.9671 251.2933 25.9098 0.0000 1.3088 0.0000
# 3 72.5273 25.9098 88.4460 0.0000 -5.9794 0.0000
# 4 0.0000 0.0000 0.0000 28.4258 0.0000 -0.8322
# 5 -17.0790 1.3088 -5.9794 0.0000 71.1409 0.0000
# 6 0.0000 0.0000 0.0000 -0.8322 0.0000 57.5908
#
#
#
# Elastic Compliance Matrix: (Units=1/GPa)
#
#
# Indices 1 2 3 4 5 6 
#
# 1 0.003737 -0.001814 -0.002484 0.000000 0.000722 0.000000
# 2 -0.001814 0.004986 -0.000009 0.000000 -0.000528 0.000000
# 3 -0.002484 -0.000009 0.013382 0.000000 0.000529 0.000000
# 4 0.000000 0.000000 0.000000 0.035194 0.000000 0.000509
# 5 0.000722 -0.000528 0.000529 0.000000 0.014284 0.000000
# 6 0.000000 0.000000 0.000000 0.000509 0.000000 0.017371
#
#
# Mechanical properties :
#
#
# Convention : Reuss Voigt Hill
#
# Bulk Modulus (GPa) = 74.12451 133.45827 103.79139
# Shear Modulus (GPa) = 48.98827 64.02563 56.50695
#
# Velocity S-wave (km/s) = 4.43862 5.07433 4.76708
# Velocity P-wave (km/s) = 7.48857 9.38104 8.48771
#
# Compressibility (1/GPa) = 0.01349081
#
# Stress axis : x y z
#
# Youngs Moduli (GPa) = 267.60124 200.54884 74.72936
#
# Poissons Ratio (x) = 0.36383 0.18563
# Poissons Ratio (y) = 0.48547 0.00065
# Poissons Ratio (z) = 0.66474 0.00176
#
# Static dielectric constant tensor:
#      x y z
#    x 1.899760 0.000000 0.096700 
#    y 0.000000 1.813390 0.000000 
#    z 0.096700 0.000000 1.658340 
# 
# From -- ./inp_files/71554.got.cif
#   From: 2010.05.17/outbox.cif.g08.bks.cpg/sg15_36_cif.got.tgz:71554.got - 2010.06.03 18:47:42.
