data_PCOD9275624
_publ_section_title
;
Structure prediction by ZEFSAII (Michael W. Deem and Ramdas Pophale) SiO2 
 PCOD9275624
Probable space group: C 2/C
;
_chemical_formula_sum "Si O2"
_cell_formula_units_Z 48
_cell_length_a 10.153906
_cell_length_b 12.491596
_cell_length_c 18.209498
_cell_angle_alpha 90.000000
_cell_angle_beta 83.957557
_cell_angle_gamma 90.000000
_cell_volume 2296.833199
_symmetry_space_group_name_H-M "C 2/C"
_symmetry_group_IT_number 15
_symmetry_cell_setting 'monoclinic'
loop_
_space_group_symop_operation_xyz
x,y,z
-x,y,1/2-z
-x,-y,-z
x,-y,1/2+z
1/2+x,1/2+y,z
1/2-x,1/2+y,1/2-z
1/2-x,1/2-y,-z
1/2+x,1/2-y,1/2+z
loop_
_atom_site_type_symbol
_atom_site_label
_atom_site_fract_x
_atom_site_fract_y
_atom_site_fract_z
Si Si1 0.576031 0.245549 0.941785
Si Si2 0.875019 0.135582 0.204945
Si Si3 0.314953 0.578558 0.961036
Si Si4 0.109449 0.679232 0.308925
Si Si5 0.393464 0.089044 0.029366
Si Si6 0.954765 0.916220 0.168525
O O1 0.587707 0.274920 0.856330
O O2 0.694853 0.160883 0.949762
O O3 0.605932 0.356908 0.981597
O O4 0.442195 0.192896 0.981317
O O5 0.747030 0.161332 0.259759
O O6 0.000000 0.126461 0.250000
O O7 0.859938 0.018663 0.168209
O O8 0.247774 0.464304 0.981357
O O9 0.415890 0.566030 0.888205
O O10 0.095741 0.607531 0.383164
O O11 0.103780 0.799435 0.341802
O O12 0.000000 0.664533 0.250000
O O13 0.500000 0.000000 0.000000
O O14 0.000000 0.908227 0.250000
#
# Coordination Sequence:
#
# PCOD9275624 Si02
#       6
#     8   8   8   8   8   8
#     4  10  21  40  66  96 131 179 226 285 344 411
#     4  11  25  43  64  97 138 175 224 286 352 411
#     4  10  20  39  68  92 133 177 229 274 348 424
#     4  11  23  43  71  96 130 184 237 276 338 424
#     4  10  21  38  65 104 131 172 232 293 334 415
#     4  10  20  39  63  89 129 180 219 270 348 413
#
# _framework density 20.898340000000001
#
# number of rings (size 3 to 8) (size 9 to 14) (size 15 to 20)
#    0.000    1.667    1.667    4.000    4.667    2.000 
#    3.000    5.833    0.000    0.000    0.000    0.000 
#    0.000    0.000    0.000    0.000    0.000    0.000 
#
# Total GULP energy -133918.201973 kJ/mol
# GULP energy per Si atom -5579.925082 kJ/mol
# Density = 2.085077 g / cm^3
# Si number density = 20.898340 Si / 1000 Ang^3
#
#
#
# Elastic Constant Matrix: (Units=GPa)
#
#
# Indices 1 2 3 4 5 6 
#
# 1 88.6905 50.4854 45.8340 0.0000 -37.8384 0.0000
# 2 50.4854 105.6550 56.7987 0.0000 -13.4428 0.0000
# 3 45.8340 56.7987 142.1426 0.0000 -39.6575 0.0000
# 4 0.0000 0.0000 0.0000 53.7349 0.0000 -13.5814
# 5 -37.8384 -13.4428 -39.6575 0.0000 38.3754 0.0000
# 6 0.0000 0.0000 0.0000 -13.5814 0.0000 21.5352
#
#
#
# Elastic Compliance Matrix: (Units=1/GPa)
#
#
# Indices 1 2 3 4 5 6 
#
# 1 0.027283 -0.011334 0.002992 0.000000 0.026022 0.000000
# 2 -0.011334 0.016793 -0.006369 0.000000 -0.011874 0.000000
# 3 0.002992 -0.006369 0.012387 0.000000 0.013520 0.000000
# 4 0.000000 0.000000 0.000000 0.022139 0.000000 0.013962
# 5 0.026022 -0.011874 0.013520 0.000000 0.061529 0.000000
# 6 0.000000 0.000000 0.000000 0.013962 0.000000 0.055241
#
#
# Mechanical properties :
#
#
# Convention : Reuss Voigt Hill
#
# Bulk Modulus (GPa) = 36.97965 71.41379 54.19672
# Shear Modulus (GPa) = 21.38505 34.95378 28.16942
#
# Velocity S-wave (km/s) = 3.20236 4.09413 3.67539
# Velocity P-wave (km/s) = 5.60419 7.52299 6.63334
#
# Compressibility (1/GPa) = 0.02704190
#
# Stress axis : x y z
#
# Youngs Moduli (GPa) = 36.65321 59.54692 80.72655
#
# Poissons Ratio (x) = 0.67491 -0.24152
# Poissons Ratio (y) = 0.41543 0.51412
# Poissons Ratio (z) = -0.10966 0.37924
#
# Static dielectric constant tensor:
#      x y z
#    x 1.730070 0.000000 0.039470 
#    y 0.000000 1.840990 0.000000 
#    z 0.039470 0.000000 1.842600 
# 
# From -- ./inp_files/196498.got.cif
#   From: 2010.05.17/outbox.cif.g08.bks.cpg/sg15_99_cif.got.tgz:196498.got - 2010.06.03 18:47:42.
