data_PCOD9275162
_publ_section_title
;
Structure prediction by ZEFSAII (Michael W. Deem and Ramdas Pophale) SiO2 
 PCOD9275162
Probable space group: C 2/C
;
_chemical_formula_sum "Si O2"
_cell_formula_units_Z 44
_cell_length_a 10.725158
_cell_length_b 14.504508
_cell_length_c 20.077439
_cell_angle_alpha 90.000000
_cell_angle_beta 138.376779
_cell_angle_gamma 90.000000
_cell_volume 2074.593427
_symmetry_space_group_name_H-M "C 2/C"
_symmetry_group_IT_number 15
_symmetry_cell_setting 'monoclinic'
loop_
_space_group_symop_operation_xyz
x,y,z
-x,y,1/2-z
-x,-y,-z
x,-y,1/2+z
1/2+x,1/2+y,z
1/2-x,1/2+y,1/2-z
1/2-x,1/2-y,-z
1/2+x,1/2-y,1/2+z
loop_
_atom_site_type_symbol
_atom_site_label
_atom_site_fract_x
_atom_site_fract_y
_atom_site_fract_z
Si Si1 0.557092 0.394269 0.510602
Si Si2 0.326856 0.735604 0.325557
Si Si3 0.500000 0.634722 0.750000
Si Si4 0.103469 0.366216 0.501410
Si Si5 0.795769 0.265655 0.165944
Si Si6 0.778383 0.429116 0.469490
O O1 0.500000 0.500000 0.500000
O O2 0.637445 0.348388 0.609929
O O3 0.373660 0.336133 0.414887
O O4 0.708958 0.388289 0.511556
O O5 0.504932 0.803286 0.407195
O O6 0.283109 0.714823 0.231984
O O7 0.154637 0.798585 0.280586
O O8 0.395852 0.576222 0.651590
O O9 0.276760 0.312530 0.602331
O O10 0.159019 0.465491 0.496840
O O11 0.950130 0.378678 0.500034
O O12 0.000000 0.311836 0.250000
#
# Coordination Sequence:
#
# PCOD9275162 Si02
#       6
#     8   8   4   8   8   8
#     4  11  26  43  66  94 134 172 218 279 323 384
#     4  10  23  42  64  97 127 173 216 268 330 387
#     4  10  20  38  70  92 124 164 218 270 318 396
#     4   9  23  40  68  93 131 172 204 277 322 390
#     4  11  25  43  66  94 132 176 221 260 334 398
#     4  10  21  42  64  98 129 162 220 264 329 383
#
# _framework density 21.208976
#
# number of rings (size 3 to 8) (size 9 to 14) (size 15 to 20)
#    0.000    1.818    1.818    0.000    8.909    3.636 
#    4.909    0.000    0.000    0.000    0.000    0.000 
#    0.000    0.000    0.000    0.000    0.000    0.000 
#
# Total GULP energy -122949.598435 kJ/mol
# GULP energy per Si atom -5588.618111 kJ/mol
# Density = 2.116070 g / cm^3
# Si number density = 21.208976 Si / 1000 Ang^3
#
#
#
# Elastic Constant Matrix: (Units=GPa)
#
#
# Indices 1 2 3 4 5 6 
#
# 1 74.0557 10.6670 21.8317 0.0000 -1.5870 0.0000
# 2 10.6670 68.5660 16.7420 0.0000 1.8179 0.0000
# 3 21.8317 16.7420 99.4302 0.0000 -5.4555 0.0000
# 4 0.0000 0.0000 0.0000 9.2515 0.0000 3.0028
# 5 -1.5870 1.8179 -5.4555 0.0000 25.2946 0.0000
# 6 0.0000 0.0000 0.0000 3.0028 0.0000 22.4493
#
#
#
# Elastic Compliance Matrix: (Units=1/GPa)
#
#
# Indices 1 2 3 4 5 6 
#
# 1 0.014598 -0.001569 -0.002919 0.000000 0.000399 0.000000
# 2 -0.001569 0.015448 -0.002351 0.000000 -0.001716 0.000000
# 3 -0.002919 -0.002351 0.011226 0.000000 0.002407 0.000000
# 4 0.000000 0.000000 0.000000 0.112997 0.000000 -0.015114
# 5 0.000399 -0.001716 0.002407 0.000000 0.040202 0.000000
# 6 0.000000 0.000000 0.000000 -0.015114 0.000000 0.046567
#
#
# Mechanical properties :
#
#
# Convention : Reuss Voigt Hill
#
# Bulk Modulus (GPa) = 36.23876 37.83704 37.03790
# Shear Modulus (GPa) = 18.94558 24.25315 21.59937
#
# Velocity S-wave (km/s) = 2.99202 3.38528 3.19471
# Velocity P-wave (km/s) = 5.39072 5.75839 5.57759
#
# Compressibility (1/GPa) = 0.02759476
#
# Stress axis : x y z
#
# Youngs Moduli (GPa) = 68.50023 64.73311 89.07743
#
# Poissons Ratio (x) = 0.10156 0.26004
# Poissons Ratio (y) = 0.10747 0.20940
# Poissons Ratio (z) = 0.19997 0.15217
#
# Static dielectric constant tensor:
#      x y z
#    x 1.858870 0.000000 0.000370 
#    y 0.000000 1.713880 0.000000 
#    z 0.000370 0.000000 1.734760 
# 
# From -- ./inp_files/86073.got.cif
#   From: 2010.05.17/outbox.cif.g08.bks.cpg/sg15_44_cif.got.tgz:86073.got - 2010.06.03 18:47:42.
