data_PCOD9275994
_publ_section_title
;
Structure prediction by ZEFSAII (Michael W. Deem and Ramdas Pophale) SiO2 
 PCOD9275994
Probable space group: C 2/C
;
_chemical_formula_sum "Si O2"
_cell_formula_units_Z 52
_cell_length_a 17.072778
_cell_length_b 9.773692
_cell_length_c 13.646815
_cell_angle_alpha 90.000000
_cell_angle_beta 79.748760
_cell_angle_gamma 90.000000
_cell_volume 2240.812440
_symmetry_space_group_name_H-M "C 2/C"
_symmetry_group_IT_number 15
_symmetry_cell_setting 'monoclinic'
loop_
_space_group_symop_operation_xyz
x,y,z
-x,y,1/2-z
-x,-y,-z
x,-y,1/2+z
1/2+x,1/2+y,z
1/2-x,1/2+y,1/2-z
1/2-x,1/2-y,-z
1/2+x,1/2-y,1/2+z
loop_
_atom_site_type_symbol
_atom_site_label
_atom_site_fract_x
_atom_site_fract_y
_atom_site_fract_z
Si Si1 0.500000 0.780185 0.750000
Si Si2 0.442967 0.132980 0.616881
Si Si3 0.374033 0.342893 0.139213
Si Si4 0.643381 0.636283 0.454670
Si Si5 0.664739 0.070530 0.463615
Si Si6 0.280401 0.347895 0.361032
Si Si7 0.895710 0.538938 0.827264
O O1 0.540835 0.694541 0.828294
O O2 0.429936 0.886769 0.799479
O O3 0.429973 0.275491 0.568464
O O4 0.386274 0.110539 0.724929
O O5 0.530629 0.115261 0.637480
O O6 0.413467 0.015971 0.550138
O O7 0.367714 0.485236 0.083807
O O8 0.347901 0.221568 0.072391
O O9 0.315303 0.345346 0.245598
O O10 0.652885 0.650708 0.568914
O O11 0.720476 0.720871 0.395557
O O12 0.673654 0.051658 0.578426
O O13 0.734431 0.989320 0.394158
#
# Coordination Sequence:
#
# PCOD9275994 Si02
#       7
#     4   8   8   8   8   8   8
#     4  10  24  38  66  98 132 164 200 284 312 380
#     4   9  20  38  61  91 128 172 199 267 317 380
#     4  12  24  42  65 100 128 165 221 265 319 372
#     4  10  24  41  62  92 128 173 207 264 333 364
#     4  11  22  38  72  92 121 176 216 264 304 393
#     4  10  25  43  64  87 131 176 214 262 316 386
#     4  10  20  39  66  97 125 163 231 249 318 389
#
# _framework density 23.205869
#
# number of rings (size 3 to 8) (size 9 to 14) (size 15 to 20)
#    0.000    1.846    3.077    1.385    6.462    5.538 
#    0.000    1.538    0.000    0.000    0.000    0.000 
#    0.000    0.000    0.000    0.000    0.000    0.000 
#
# Total GULP energy -145460.917407 kJ/mol
# GULP energy per Si atom -5594.650669 kJ/mol
# Density = 2.315305 g / cm^3
# Si number density = 23.205869 Si / 1000 Ang^3
#
#
#
# Elastic Constant Matrix: (Units=GPa)
#
#
# Indices 1 2 3 4 5 6 
#
# 1 50.7786 25.4872 0.2396 0.0000 16.0631 0.0000
# 2 25.4872 193.2726 41.5770 0.0000 20.3051 0.0000
# 3 0.2396 41.5770 123.8317 0.0000 2.2423 0.0000
# 4 0.0000 0.0000 0.0000 30.6689 0.0000 22.8068
# 5 16.0631 20.3051 2.2423 0.0000 34.1059 0.0000
# 6 0.0000 0.0000 0.0000 22.8068 0.0000 91.9438
#
#
#
# Elastic Compliance Matrix: (Units=1/GPa)
#
#
# Indices 1 2 3 4 5 6 
#
# 1 0.024010 -0.002313 0.000911 0.000000 -0.009991 0.000000
# 2 -0.002313 0.006172 -0.002023 0.000000 -0.002452 0.000000
# 3 0.000911 -0.002023 0.008749 0.000000 0.000200 0.000000
# 4 0.000000 0.000000 0.000000 0.039981 0.000000 -0.009917
# 5 -0.009991 -0.002452 0.000200 0.000000 0.035473 0.000000
# 6 0.000000 0.000000 0.000000 -0.009917 0.000000 0.013336
#
#
# Mechanical properties :
#
#
# Convention : Reuss Voigt Hill
#
# Bulk Modulus (GPa) = 31.17032 55.83225 43.50129
# Shear Modulus (GPa) = 34.41955 51.38233 42.90094
#
# Velocity S-wave (km/s) = 3.85545 4.71063 4.30433
# Velocity P-wave (km/s) = 5.76893 7.32792 6.59466
#
# Compressibility (1/GPa) = 0.03208180
#
# Stress axis : x y z
#
# Youngs Moduli (GPa) = 41.64854 162.02454 114.29302
#
# Poissons Ratio (x) = 0.37469 -0.10411
# Poissons Ratio (y) = 0.09631 0.23126
# Poissons Ratio (z) = -0.03794 0.32783
#
# Static dielectric constant tensor:
#      x y z
#    x 1.984930 0.000000 0.000480 
#    y 0.000000 1.818000 0.000000 
#    z 0.000480 0.000000 2.052040 
# 
# From -- ./inp_files/166218.got.cif
#   From: 2010.05.17/outbox.cif.g08.bks.cpg/sg15_84_cif.got.tgz:166218.got - 2010.06.03 18:47:42.
