data_PCOD9275329
_publ_section_title
;
Structure prediction by ZEFSAII (Michael W. Deem and Ramdas Pophale) SiO2 
 PCOD9275329
Probable space group: C 2/C
;
_chemical_formula_sum "Si O2"
_cell_formula_units_Z 48
_cell_length_a 7.449953
_cell_length_b 28.405072
_cell_length_c 16.624128
_cell_angle_alpha 90.000000
_cell_angle_beta 45.117851
_cell_angle_gamma 90.000000
_cell_volume 2492.669868
_symmetry_space_group_name_H-M "C 2/C"
_symmetry_group_IT_number 15
_symmetry_cell_setting 'monoclinic'
loop_
_space_group_symop_operation_xyz
x,y,z
-x,y,1/2-z
-x,-y,-z
x,-y,1/2+z
1/2+x,1/2+y,z
1/2-x,1/2+y,1/2-z
1/2-x,1/2-y,-z
1/2+x,1/2-y,1/2+z
loop_
_atom_site_type_symbol
_atom_site_label
_atom_site_fract_x
_atom_site_fract_y
_atom_site_fract_z
Si Si1 0.719695 0.369955 0.812220
Si Si2 0.500000 0.571331 0.250000
Si Si3 0.000000 0.784963 0.250000
Si Si4 0.441679 0.572118 0.539817
Si Si5 0.005559 0.778136 0.938577
Si Si6 0.741537 0.508892 0.034985
Si Si7 0.704670 0.329974 0.342850
O O1 0.703006 0.395276 0.731076
O O2 0.546332 0.323445 0.868224
O O3 0.000000 0.355981 0.750000
O O4 0.620498 0.404633 0.914419
O O5 0.590090 0.538329 0.149542
O O6 0.757665 0.753308 0.352019
O O7 0.909597 0.817736 0.206454
O O8 0.244283 0.540798 0.550345
O O9 0.598248 0.537843 0.549259
O O10 0.319495 0.615460 0.625350
O O11 0.750000 0.750000 0.000000
O O12 0.956345 0.800345 0.041577
O O13 0.000000 0.500000 0.000000
O O14 0.000000 0.316055 0.250000
#
# Coordination Sequence:
#
# PCOD9275329 Si02
#       7
#     8   4   4   8   8   8   8
#     4  10  20  39  60  86 121 157 202 255 311 362
#     4  10  22  35  60  92 112 154 208 249 302 372
#     4  12  24  43  68  94 126 178 214 257 328 380
#     4   9  22  38  57  89 124 160 202 261 311 368
#     4  11  23  44  66  94 128 166 216 266 317 379
#     4  10  20  39  61  86 121 159 207 252 312 379
#     4  11  24  42  63  94 134 167 214 267 319 384
#
# _framework density 19.256460000000001
#
# number of rings (size 3 to 8) (size 9 to 14) (size 15 to 20)
#    0.000    1.667    2.500    1.500    0.000    4.667 
#    9.000    1.667    0.000    0.000    0.000    0.000 
#    0.000    0.000    0.000    0.000    0.000    0.000 
#
# Total GULP energy -133862.139701 kJ/mol
# GULP energy per Si atom -5577.589154 kJ/mol
# Density = 1.921263 g / cm^3
# Si number density = 19.256460 Si / 1000 Ang^3
#
#
#
# Elastic Constant Matrix: (Units=GPa)
#
#
# Indices 1 2 3 4 5 6 
#
# 1 147.1481 64.7587 43.1458 0.0000 4.4064 0.0000
# 2 64.7587 95.2350 44.6629 0.0000 7.1453 0.0000
# 3 43.1458 44.6629 71.2844 0.0000 0.8097 0.0000
# 4 0.0000 0.0000 0.0000 9.7070 0.0000 2.1698
# 5 4.4064 7.1453 0.8097 0.0000 34.4042 0.0000
# 6 0.0000 0.0000 0.0000 2.1698 0.0000 21.6051
#
#
#
# Elastic Compliance Matrix: (Units=1/GPa)
#
#
# Indices 1 2 3 4 5 6 
#
# 1 0.010013 -0.005611 -0.002544 0.000000 -0.000057 0.000000
# 2 -0.005611 0.018303 -0.008038 0.000000 -0.002893 0.000000
# 3 -0.002544 -0.008038 0.020587 0.000000 0.001511 0.000000
# 4 0.000000 0.000000 0.000000 0.105385 0.000000 -0.010584
# 5 -0.000057 -0.002893 0.001511 0.000000 0.029639 0.000000
# 6 0.000000 0.000000 0.000000 -0.010584 0.000000 0.047348
#
#
# Mechanical properties :
#
#
# Convention : Reuss Voigt Hill
#
# Bulk Modulus (GPa) = 60.54855 68.75582 64.65219
# Shear Modulus (GPa) = 18.57575 23.88325 21.22950
#
# Velocity S-wave (km/s) = 3.10925 3.52557 3.32394
# Velocity P-wave (km/s) = 6.66344 7.23572 6.95547
#
# Compressibility (1/GPa) = 0.01651567
#
# Stress axis : x y z
#
# Youngs Moduli (GPa) = 99.86947 54.63621 48.57338
#
# Poissons Ratio (x) = 0.30658 0.12358
# Poissons Ratio (y) = 0.56040 0.39045
# Poissons Ratio (z) = 0.25408 0.43919
#
# Static dielectric constant tensor:
#      x y z
#    x 1.635580 0.000000 0.014910 
#    y 0.000000 1.709060 0.000000 
#    z 0.014910 0.000000 1.629830 
# 
# From -- ./inp_files/130631.got.cif
#   From: 2010.05.17/outbox.cif.g08.bks.cpg/sg15_66_cif.got.tgz:130631.got - 2010.06.03 18:47:42.
