data_PCOD9275651
_publ_section_title
;
Structure prediction by ZEFSAII (Michael W. Deem and Ramdas Pophale) SiO2 
 PCOD9275651
Probable space group: C 2/C
;
_chemical_formula_sum "Si O2"
_cell_formula_units_Z 48
_cell_length_a 17.189028
_cell_length_b 9.746421
_cell_length_c 29.153656
_cell_angle_alpha 90.000000
_cell_angle_beta 23.788854
_cell_angle_gamma 90.000000
_cell_volume 1970.108735
_symmetry_space_group_name_H-M "C 2/C"
_symmetry_group_IT_number 15
_symmetry_cell_setting 'monoclinic'
loop_
_space_group_symop_operation_xyz
x,y,z
-x,y,1/2-z
-x,-y,-z
x,-y,1/2+z
1/2+x,1/2+y,z
1/2-x,1/2+y,1/2-z
1/2-x,1/2-y,-z
1/2+x,1/2-y,1/2+z
loop_
_atom_site_type_symbol
_atom_site_label
_atom_site_fract_x
_atom_site_fract_y
_atom_site_fract_z
Si Si1 0.267939 0.714160 0.865186
Si Si2 0.723485 0.872000 0.549732
Si Si3 0.150981 0.377986 0.032462
Si Si4 0.284821 0.905070 0.776166
Si Si5 0.733172 0.701022 0.797402
Si Si6 0.270339 0.397052 0.864975
O O1 0.500000 0.707284 0.750000
O O2 0.192812 0.801037 0.949592
O O3 0.199267 0.798915 0.858554
O O4 0.216351 0.555649 0.883678
O O5 0.750000 0.750000 0.500000
O O6 0.502408 0.917543 0.679984
O O7 0.773566 0.999143 0.489698
O O8 0.933564 0.356540 0.167005
O O9 0.250000 0.250000 0.000000
O O10 0.171208 0.375069 0.967361
O O11 0.322451 0.820758 0.708787
O O12 0.155511 0.043145 0.843630
O O13 0.735225 0.783068 0.844472
O O14 0.500000 0.391680 0.750000
#
# Coordination Sequence:
#
# PCOD9275651 Si02
#       6
#     8   8   8   8   8   8
#     4   9  19  36  62  88 118 160 202 245 307 365
#     4  10  20  39  63  92 121 155 205 254 302 371
#     4  11  23  38  63  96 125 158 208 256 307 366
#     4  10  23  40  60  87 123 167 200 256 310 361
#     4  11  24  42  62  88 129 163 207 255 307 370
#     4  11  21  38  64  91 124 164 203 255 310 363
#
# _framework density 24.364139000000002
#
# number of rings (size 3 to 8) (size 9 to 14) (size 15 to 20)
#    0.000    1.667    3.333    1.000    2.333    2.000 
#    3.000    3.333    0.000    0.000    0.000    0.000 
#    0.000    0.000    0.000    0.000    0.000    0.000 
#
# Total GULP energy -133603.777450 kJ/mol
# GULP energy per Si atom -5566.824060 kJ/mol
# Density = 2.430868 g / cm^3
# Si number density = 24.364139 Si / 1000 Ang^3
#
#
#
# Elastic Constant Matrix: (Units=GPa)
#
#
# Indices 1 2 3 4 5 6 
#
# 1 125.7375 96.5946 26.7421 0.0010 41.3686 0.0007
# 2 96.5946 228.5253 26.4055 -0.0001 38.8627 -0.0001
# 3 26.7421 26.4055 65.0225 0.0007 16.3901 0.0034
# 4 0.0010 -0.0001 0.0007 25.5008 -0.0023 19.3808
# 5 41.3686 38.8627 16.3901 -0.0023 46.8296 -0.0017
# 6 0.0007 -0.0001 0.0034 19.3808 -0.0017 12.5190
#
#
#
# Elastic Compliance Matrix: (Units=1/GPa)
#
#
# Indices 1 2 3 4 5 6 
#
# 1 0.014643 -0.004511 -0.002055 0.000001 -0.008473 -0.000003
# 2 -0.004511 0.006558 -0.000483 0.000001 -0.001288 -0.000001
# 3 -0.002055 -0.000483 0.017397 -0.000018 -0.003873 0.000023
# 4 0.000001 0.000001 -0.000018 -0.222083 0.000007 0.343809
# 5 -0.008473 -0.001288 -0.003873 0.000007 0.031263 -0.000005
# 6 -0.000003 -0.000001 0.000023 0.343809 -0.000005 -0.452376
#
#
# Mechanical properties :
#
#
# Convention : Reuss Voigt Hill
#
# Bulk Modulus (GPa) = 40.81704 79.86330 60.34017
# Shear Modulus (GPa) = -8.58613 34.93942 13.17664
#
# Velocity S-wave (km/s) = -1.87929 3.79100 2.32808
# Velocity P-wave (km/s) = 3.47567 7.21196 5.66095
#
# Compressibility (1/GPa) = 0.02449957
#
# Stress axis : x y z
#
# Youngs Moduli (GPa) = 68.29038 152.49636 57.48217
#
# Poissons Ratio (x) = 0.68795 0.11811
# Poissons Ratio (y) = 0.30808 0.02777
# Poissons Ratio (z) = 0.14032 0.07366
#
# Static dielectric constant tensor:
#      x y z
#    x 1.962360 -0.000010 -0.063040 
#    y -0.000010 2.253320 0.000010 
#    z -0.063040 0.000010 2.124230 
# 
# From -- ./inp_files/208568.got.cif
#   From: 2010.05.17/outbox.cif.g08.bks.cpg/sg15_105_cif.got.tgz:208568.got - 2010.06.03 18:47:42.
