data_PCOD9275323
_publ_section_title
;
Structure prediction by ZEFSAII (Michael W. Deem and Ramdas Pophale) SiO2 
 PCOD9275323
Probable space group: C 2/C
;
_chemical_formula_sum "Si O2"
_cell_formula_units_Z 48
_cell_length_a 17.375426
_cell_length_b 27.576461
_cell_length_c 9.387757
_cell_angle_alpha 90.000000
_cell_angle_beta 151.700041
_cell_angle_gamma 90.000000
_cell_volume 2132.526361
_symmetry_space_group_name_H-M "C 2/C"
_symmetry_group_IT_number 15
_symmetry_cell_setting 'monoclinic'
loop_
_space_group_symop_operation_xyz
x,y,z
-x,y,1/2-z
-x,-y,-z
x,-y,1/2+z
1/2+x,1/2+y,z
1/2-x,1/2+y,1/2-z
1/2-x,1/2-y,-z
1/2+x,1/2-y,1/2+z
loop_
_atom_site_type_symbol
_atom_site_label
_atom_site_fract_x
_atom_site_fract_y
_atom_site_fract_z
Si Si1 0.545193 0.699398 0.667924
Si Si2 0.000000 0.490732 0.750000
Si Si3 0.925672 0.304190 0.834057
Si Si4 0.355288 0.906523 0.665160
Si Si5 0.253089 0.076354 0.317066
Si Si6 0.500000 0.842991 0.250000
Si Si7 0.033836 0.892221 0.972000
O O1 0.500000 0.679616 0.750000
O O2 0.483337 0.754888 0.558909
O O3 0.494720 0.662787 0.461999
O O4 0.740223 0.700623 0.981297
O O5 0.037274 0.453975 0.682003
O O6 0.847548 0.525986 0.483898
O O7 0.966758 0.358288 0.848902
O O8 0.936931 0.309533 0.021450
O O9 0.262115 0.909325 0.664902
O O10 0.218228 0.903192 0.320112
O O11 0.358340 0.119387 0.562915
O O12 0.082628 0.075281 0.118234
O O13 0.000000 0.898338 0.750000
#
# Coordination Sequence:
#
# PCOD9275323 Si02
#       7
#     8   4   8   8   8   4   8
#     4  10  20  39  60  85 125 172 210 258 321 382
#     4  11  24  40  72 102 122 162 220 270 321 390
#     4   9  20  36  59  89 125 161 216 258 318 382
#     4  10  22  42  67  92 132 172 209 267 328 384
#     4  10  22  43  64  93 129 168 213 266 326 380
#     4   9  18  36  60  88 120 164 206 266 315 374
#     4  11  24  41  64  93 129 174 221 267 312 384
#
# _framework density 22.508516
#
# number of rings (size 3 to 8) (size 9 to 14) (size 15 to 20)
#    0.000    2.000    0.000    4.000    2.333    6.000 
#    6.000    1.667    0.000    0.000    0.000    0.000 
#    0.000    0.000    0.000    0.000    0.000    0.000 
#
# Total GULP energy -133981.309860 kJ/mol
# GULP energy per Si atom -5582.554578 kJ/mol
# Density = 2.245729 g / cm^3
# Si number density = 22.508516 Si / 1000 Ang^3
#
#
#
# Elastic Constant Matrix: (Units=GPa)
#
#
# Indices 1 2 3 4 5 6 
#
# 1 106.7263 39.7754 18.4264 0.0000 -13.1058 0.0000
# 2 39.7754 137.6558 32.4733 0.0000 -7.5300 0.0000
# 3 18.4264 32.4733 64.6844 0.0000 -10.4093 0.0000
# 4 0.0000 0.0000 0.0000 25.8079 0.0000 -13.2634
# 5 -13.1058 -7.5300 -10.4093 0.0000 33.7915 0.0000
# 6 0.0000 0.0000 0.0000 -13.2634 0.0000 35.1626
#
#
#
# Elastic Compliance Matrix: (Units=1/GPa)
#
#
# Indices 1 2 3 4 5 6 
#
# 1 0.010995 -0.002703 -0.001247 0.000000 0.003278 0.000000
# 2 -0.002703 0.008916 -0.003741 0.000000 -0.000214 0.000000
# 3 -0.001247 -0.003741 0.018393 0.000000 0.004348 0.000000
# 4 0.000000 0.000000 0.000000 0.048066 0.000000 0.018130
# 5 0.003278 -0.000214 0.004348 0.000000 0.032156 0.000000
# 6 0.000000 0.000000 0.000000 0.018130 0.000000 0.035278
#
#
# Mechanical properties :
#
#
# Convention : Reuss Voigt Hill
#
# Bulk Modulus (GPa) = 43.62767 54.49074 49.05921
# Shear Modulus (GPa) = 28.27614 33.51183 30.89398
#
# Velocity S-wave (km/s) = 3.54820 3.86275 3.70881
# Velocity P-wave (km/s) = 6.01756 6.64499 6.33905
#
# Compressibility (1/GPa) = 0.02292123
#
# Stress axis : x y z
#
# Youngs Moduli (GPa) = 90.94903 112.15343 54.36950
#
# Poissons Ratio (x) = 0.30320 0.06783
# Poissons Ratio (y) = 0.24588 0.20337
# Poissons Ratio (z) = 0.11346 0.41951
#
# Static dielectric constant tensor:
#      x y z
#    x 1.880650 0.000000 0.016610 
#    y 0.000000 1.891560 0.000000 
#    z 0.016610 0.000000 1.822120 
# 
# From -- ./inp_files/52909.got.cif
#   From: 2010.05.17/outbox.cif.g08.bks.cpg/sg15_27_cif.got.tgz:52909.got - 2010.06.03 18:47:42.
