data_PCOD9275443
_publ_section_title
;
Structure prediction by ZEFSAII (Michael W. Deem and Ramdas Pophale) SiO2 
 PCOD9275443
Probable space group: C 2/C
;
_chemical_formula_sum "Si O2"
_cell_formula_units_Z 56
_cell_length_a 17.234993
_cell_length_b 27.714515
_cell_length_c 9.185877
_cell_angle_alpha 90.000000
_cell_angle_beta 139.182376
_cell_angle_gamma 90.000000
_cell_volume 2868.048951
_symmetry_space_group_name_H-M "C 2/C"
_symmetry_group_IT_number 15
_symmetry_cell_setting 'monoclinic'
loop_
_space_group_symop_operation_xyz
x,y,z
-x,y,1/2-z
-x,-y,-z
x,-y,1/2+z
1/2+x,1/2+y,z
1/2-x,1/2+y,1/2-z
1/2-x,1/2-y,-z
1/2+x,1/2-y,1/2+z
loop_
_atom_site_type_symbol
_atom_site_label
_atom_site_fract_x
_atom_site_fract_y
_atom_site_fract_z
Si Si1 0.392077 0.372688 0.482998
Si Si2 0.259021 0.427671 0.791805
Si Si3 0.486815 0.052807 0.405893
Si Si4 0.239245 0.806890 0.974036
Si Si5 0.116359 0.394873 0.326130
Si Si6 0.409349 0.479566 0.490967
Si Si7 0.061486 0.841516 0.475051
O O1 0.310055 0.334389 0.451125
O O2 0.351391 0.427013 0.389097
O O3 0.450846 0.354305 0.419828
O O4 0.500000 0.377458 0.750000
O O5 0.141494 0.425312 0.725591
O O6 0.222705 0.419140 0.569722
O O7 0.310674 0.480734 0.879631
O O8 0.362904 0.388666 0.969521
O O9 0.500000 0.049690 0.250000
O O10 0.587716 0.086177 0.625047
O O11 0.500000 0.000000 0.500000
O O12 0.153389 0.815442 0.713499
O O13 0.250000 0.750000 0.000000
O O14 0.358738 0.837971 0.122039
O O15 0.000000 0.408780 0.250000
O O16 0.500000 0.500000 0.500000
O O17 0.500000 0.475439 0.750000
O O18 0.000000 0.816373 0.250000
#
# Coordination Sequence:
#
# PCOD9275443 Si02
#       7
#     8   8   8   8   8   8   8
#     4   9  20  36  56  87 128 160 208 251 311 384
#     4  10  21  37  58  85 125 166 205 248 315 376
#     4  11  24  41  58  84 121 172 219 260 310 374
#     4  10  22  41  66  91 120 169 211 262 327 377
#     4   9  21  41  60  83 116 158 214 259 302 377
#     4  11  22  34  54  91 128 168 200 245 310 385
#     4  10  20  39  61  94 127 157 201 266 324 382
#
# _framework density 19.525468
#
# number of rings (size 3 to 8) (size 9 to 14) (size 15 to 20)
#    0.000    2.000    1.429    1.714    4.000    4.000 
#    0.000    1.429    0.000    0.000    0.000    0.000 
#    0.000    0.000    0.000    0.000    0.000    0.000 
#
# Total GULP energy -155985.772387 kJ/mol
# GULP energy per Si atom -5570.920442 kJ/mol
# Density = 1.948103 g / cm^3
# Si number density = 19.525468 Si / 1000 Ang^3
#
#
#
# Elastic Constant Matrix: (Units=GPa)
#
#
# Indices 1 2 3 4 5 6 
#
# 1 93.6662 12.1917 31.4665 0.0000 -16.6964 0.0000
# 2 12.1917 125.2659 32.8916 0.0000 -8.6458 0.0000
# 3 31.4665 32.8916 90.1720 0.0000 -20.9037 0.0000
# 4 0.0000 0.0000 0.0000 22.5798 0.0000 2.7338
# 5 -16.6964 -8.6458 -20.9037 0.0000 35.4255 0.0000
# 6 0.0000 0.0000 0.0000 2.7338 0.0000 12.6846
#
#
#
# Elastic Compliance Matrix: (Units=1/GPa)
#
#
# Indices 1 2 3 4 5 6 
#
# 1 0.012532 -0.000044 -0.003464 0.000000 0.003852 0.000000
# 2 -0.000044 0.008831 -0.003141 0.000000 0.000281 0.000000
# 3 -0.003464 -0.003141 0.014931 0.000000 0.006411 0.000000
# 4 0.000000 0.000000 0.000000 0.045474 0.000000 -0.009801
# 5 0.003852 0.000281 0.006411 0.000000 0.033895 0.000000
# 6 0.000000 0.000000 0.000000 -0.009801 0.000000 0.080948
#
#
# Mechanical properties :
#
#
# Convention : Reuss Voigt Hill
#
# Bulk Modulus (GPa) = 43.48616 51.35597 47.42107
# Shear Modulus (GPa) = 22.98058 29.64162 26.31110
#
# Velocity S-wave (km/s) = 3.43440 3.90051 3.67485
# Velocity P-wave (km/s) = 6.16820 6.82967 6.50734
#
# Compressibility (1/GPa) = 0.02299582
#
# Stress axis : x y z
#
# Youngs Moduli (GPa) = 79.79363 113.23205 66.97641
#
# Poissons Ratio (x) = 0.00501 0.23202
# Poissons Ratio (y) = 0.00353 0.21036
# Poissons Ratio (z) = 0.27643 0.35563
#
# Static dielectric constant tensor:
#      x y z
#    x 1.778080 0.000000 -0.026160 
#    y 0.000000 1.668990 0.000000 
#    z -0.026160 0.000000 1.727880 
# 
# From -- ./inp_files/52382.got.cif
#   From: 2010.05.17/outbox.cif.g08.bks.cpg/sg15_27_cif.got.tgz:52382.got - 2010.06.03 18:47:42.
