data_PCOD9275835
_publ_section_title
;
Structure prediction by ZEFSAII (Michael W. Deem and Ramdas Pophale) SiO2 
 PCOD9275835
Probable space group: C 2/C
;
_chemical_formula_sum "Si O2"
_cell_formula_units_Z 48
_cell_length_a 19.968357
_cell_length_b 13.458378
_cell_length_c 8.590669
_cell_angle_alpha 90.000000
_cell_angle_beta 67.681965
_cell_angle_gamma 90.000000
_cell_volume 2135.728953
_symmetry_space_group_name_H-M "C 2/C"
_symmetry_group_IT_number 15
_symmetry_cell_setting 'monoclinic'
loop_
_space_group_symop_operation_xyz
x,y,z
-x,y,1/2-z
-x,-y,-z
x,-y,1/2+z
1/2+x,1/2+y,z
1/2-x,1/2+y,1/2-z
1/2-x,1/2-y,-z
1/2+x,1/2-y,1/2+z
loop_
_atom_site_type_symbol
_atom_site_label
_atom_site_fract_x
_atom_site_fract_y
_atom_site_fract_z
Si Si1 0.416576 0.111570 0.026960
Si Si2 0.425598 0.372995 0.285257
Si Si3 0.500000 0.051293 0.250000
Si Si4 0.000000 0.771432 0.750000
Si Si5 0.760731 0.538089 0.235462
Si Si6 0.901652 0.926834 0.659585
Si Si7 0.767758 0.857072 0.413735
O O1 0.451282 0.204838 0.907809
O O2 0.448394 0.017883 0.901800
O O3 0.449282 0.107910 0.172238
O O4 0.330443 0.097048 0.111739
O O5 0.500000 0.315611 0.250000
O O6 0.403069 0.408800 0.475861
O O7 0.439953 0.470169 0.170043
O O8 0.350389 0.335088 0.285220
O O9 0.055384 0.839727 0.795577
O O10 0.683492 0.565080 0.223244
O O11 0.769475 0.419380 0.193709
O O12 0.749688 0.569100 0.424998
O O13 0.750000 0.750000 0.500000
#
# Coordination Sequence:
#
# PCOD9275835 Si02
#       7
#     8   8   4   4   8   8   8
#     4  10  21  42  66  92 130 171 214 275 335 396
#     4  10  20  39  65  88 126 173 210 276 336 385
#     4   9  20  42  66  91 122 172 215 264 334 395
#     4  11  24  40  60  97 134 170 229 270 324 415
#     4  10  22  45  67  95 135 177 217 287 339 394
#     4  10  22  40  61  94 128 167 223 276 328 399
#     4  10  23  45  66 101 133 174 228 275 333 409
#
# _framework density 22.474762999999999
#
# number of rings (size 3 to 8) (size 9 to 14) (size 15 to 20)
#    0.000    2.000    0.833    1.500    0.000    2.000 
#   40.500    0.000    1.833    0.000    0.000    0.000 
#    0.000    0.000    0.000    0.000    0.000    0.000 
#
# Total GULP energy -133845.291959 kJ/mol
# GULP energy per Si atom -5576.887165 kJ/mol
# Density = 2.242361 g / cm^3
# Si number density = 22.474763 Si / 1000 Ang^3
#
#
#
# Elastic Constant Matrix: (Units=GPa)
#
#
# Indices 1 2 3 4 5 6 
#
# 1 83.3400 0.1599 12.3048 0.0000 -37.0176 0.0000
# 2 0.1599 71.2960 9.5627 0.0000 -1.8345 0.0000
# 3 12.3048 9.5627 73.9376 0.0000 -10.1845 0.0000
# 4 0.0000 0.0000 0.0000 11.2669 0.0000 -0.6394
# 5 -37.0176 -1.8345 -10.1845 0.0000 50.1407 0.0000
# 6 0.0000 0.0000 0.0000 -0.6394 0.0000 31.0125
#
#
#
# Elastic Compliance Matrix: (Units=1/GPa)
#
#
# Indices 1 2 3 4 5 6 
#
# 1 0.017971 0.000463 -0.001256 0.000000 0.013029 0.000000
# 2 0.000463 0.014287 -0.001858 0.000000 0.000488 0.000000
# 3 -0.001256 -0.001858 0.014235 0.000000 0.001896 0.000000
# 4 0.000000 0.000000 0.000000 0.088859 0.000000 0.001832
# 5 0.013029 0.000488 0.001896 0.000000 0.029966 0.000000
# 6 0.000000 0.000000 0.000000 0.001832 0.000000 0.032283
#
#
# Mechanical properties :
#
#
# Convention : Reuss Voigt Hill
#
# Bulk Modulus (GPa) = 24.27632 30.29204 27.28418
# Shear Modulus (GPa) = 23.08058 32.25379 27.66719
#
# Velocity S-wave (km/s) = 3.20809 3.79240 3.51242
# Velocity P-wave (km/s) = 4.95454 5.71698 5.34936
#
# Compressibility (1/GPa) = 0.04119241
#
# Stress axis : x y z
#
# Youngs Moduli (GPa) = 55.64560 69.99514 70.24740
#
# Poissons Ratio (x) = -0.03244 0.08823
# Poissons Ratio (y) = -0.02579 0.13050
# Poissons Ratio (z) = 0.06989 0.13003
#
# Static dielectric constant tensor:
#      x y z
#    x 2.098080 0.000000 0.065280 
#    y 0.000000 1.590880 0.000000 
#    z 0.065280 0.000000 1.873300 
# 
# From -- ./inp_files/55268.got.cif
#   From: 2010.05.17/outbox.cif.g08.bks.cpg/sg15_28_cif.got.tgz:55268.got - 2010.06.03 18:47:42.
