data_PCOD9275897
_publ_section_title
;
Structure prediction by ZEFSAII (Michael W. Deem and Ramdas Pophale) SiO2 
 PCOD9275897
Probable space group: C 2/C
;
_chemical_formula_sum "Si O2"
_cell_formula_units_Z 64
_cell_length_a 14.407281
_cell_length_b 23.860236
_cell_length_c 9.697918
_cell_angle_alpha 90.000000
_cell_angle_beta 86.357325
_cell_angle_gamma 90.000000
_cell_volume 3327.031937
_symmetry_space_group_name_H-M "C 2/C"
_symmetry_group_IT_number 15
_symmetry_cell_setting 'monoclinic'
loop_
_space_group_symop_operation_xyz
x,y,z
-x,y,1/2-z
-x,-y,-z
x,-y,1/2+z
1/2+x,1/2+y,z
1/2-x,1/2+y,1/2-z
1/2-x,1/2-y,-z
1/2+x,1/2-y,1/2+z
loop_
_atom_site_type_symbol
_atom_site_label
_atom_site_fract_x
_atom_site_fract_y
_atom_site_fract_z
Si Si1 0.423615 0.256905 0.444668
Si Si2 0.360151 0.254720 0.156275
Si Si3 0.032914 0.551559 0.590035
Si Si4 0.600586 0.659004 0.300809
Si Si5 0.269642 0.671594 0.448580
Si Si6 0.753541 0.059399 0.160605
Si Si7 0.759181 0.543545 0.021936
Si Si8 0.066886 0.629330 0.106608
O O1 0.365096 0.272556 0.314296
O O2 0.534276 0.261067 0.405140
O O3 0.403918 0.296688 0.574706
O O4 0.403501 0.190622 0.447811
O O5 0.324752 0.191865 0.119245
O O6 0.288401 0.294236 0.084103
O O7 0.142810 0.551798 0.563226
O O8 0.000000 0.546536 0.750000
O O9 0.000000 0.500000 0.500000
O O10 0.990291 0.604033 0.514887
O O11 0.500000 0.642122 0.250000
O O12 0.652229 0.688310 0.168574
O O13 0.665260 0.606045 0.335193
O O14 0.282879 0.606058 0.478145
O O15 0.734769 0.033360 0.314318
O O16 0.657310 0.090686 0.127638
O O17 0.781840 0.010289 0.052026
O O18 0.000000 0.631902 0.250000
#
# Coordination Sequence:
#
# PCOD9275897 Si02
#       8
#     8   8   8   8   8   8   8   8
#     4  11  22  39  65  93 129 160 213 256 319 384
#     4  10  20  39  65  95 121 170 202 254 323 385
#     4  12  23  38  61  94 131 168 205 250 315 385
#     4  11  24  44  64  89 127 166 214 276 323 368
#     4  10  22  41  67  88 128 167 208 259 325 378
#     4  11  25  40  66  90 128 172 213 263 319 379
#     4  11  22  41  62  92 126 169 211 261 313 381
#     4  12  22  40  64  95 133 170 202 250 317 394
#
# _framework density 19.236364999999999
#
# number of rings (size 3 to 8) (size 9 to 14) (size 15 to 20)
#    0.000    1.000    5.000    3.375    0.000    3.500 
#    4.500    2.500    2.750    0.000    0.000    0.000 
#    0.000    0.000    0.000    0.000    0.000    0.000 
#
# Total GULP energy -178487.538904 kJ/mol
# GULP energy per Si atom -5577.735591 kJ/mol
# Density = 1.919258 g / cm^3
# Si number density = 19.236365 Si / 1000 Ang^3
#
#
#
# Elastic Constant Matrix: (Units=GPa)
#
#
# Indices 1 2 3 4 5 6 
#
# 1 70.2492 19.4055 36.5092 0.0000 7.6173 0.0000
# 2 19.4055 91.6246 59.2528 0.0000 4.0131 0.0000
# 3 36.5092 59.2528 127.1227 0.0000 0.7062 0.0000
# 4 0.0000 0.0000 0.0000 14.8335 0.0000 2.4701
# 5 7.6173 4.0131 0.7062 0.0000 30.1237 0.0000
# 6 0.0000 0.0000 0.0000 2.4701 0.0000 21.3092
#
#
#
# Elastic Compliance Matrix: (Units=1/GPa)
#
#
# Indices 1 2 3 4 5 6 
#
# 1 0.017270 -0.000403 -0.004749 0.000000 -0.004202 0.000000
# 2 -0.000403 0.015744 -0.007212 0.000000 -0.001826 0.000000
# 3 -0.004749 -0.007212 0.012582 0.000000 0.001867 0.000000
# 4 0.000000 0.000000 0.000000 0.068742 0.000000 -0.007968
# 5 -0.004202 -0.001826 0.001867 0.000000 0.034459 0.000000
# 6 0.000000 0.000000 0.000000 -0.007968 0.000000 0.047852
#
#
# Mechanical properties :
#
#
# Convention : Reuss Voigt Hill
#
# Bulk Modulus (GPa) = 47.92159 57.70350 52.81255
# Shear Modulus (GPa) = 21.89804 24.84188 23.36996
#
# Velocity S-wave (km/s) = 3.37763 3.59751 3.48930
# Velocity P-wave (km/s) = 6.33855 6.87883 6.61421
#
# Compressibility (1/GPa) = 0.02086742
#
# Stress axis : x y z
#
# Youngs Moduli (GPa) = 57.90415 63.51806 79.48077
#
# Poissons Ratio (x) = 0.02557 0.37744
# Poissons Ratio (y) = 0.02331 0.57325
# Poissons Ratio (z) = 0.27498 0.45812
#
# Static dielectric constant tensor:
#      x y z
#    x 1.706320 0.000000 0.039350 
#    y 0.000000 4.147440 0.000000 
#    z 0.039350 0.000000 1.692500 
# 
# From -- ./inp_files/42668.got.cif
#   From: 2010.05.17/outbox.cif.g08.bks.cpg/sg15_22_cif.got.tgz:42668.got - 2010.06.03 18:47:42.
