data_PCOD9275908
_publ_section_title
;
Structure prediction by ZEFSAII (Michael W. Deem and Ramdas Pophale) SiO2 
 PCOD9275908
Probable space group: C 2/C
;
_chemical_formula_sum "Si O2"
_cell_formula_units_Z 40
_cell_length_a 8.476982
_cell_length_b 27.802827
_cell_length_c 8.155582
_cell_angle_alpha 90.000000
_cell_angle_beta 105.941746
_cell_angle_gamma 90.000000
_cell_volume 1848.217958
_symmetry_space_group_name_H-M "C 2/C"
_symmetry_group_IT_number 15
_symmetry_cell_setting 'monoclinic'
loop_
_space_group_symop_operation_xyz
x,y,z
-x,y,1/2-z
-x,-y,-z
x,-y,1/2+z
1/2+x,1/2+y,z
1/2-x,1/2+y,1/2-z
1/2-x,1/2-y,-z
1/2+x,1/2-y,1/2+z
loop_
_atom_site_type_symbol
_atom_site_label
_atom_site_fract_x
_atom_site_fract_y
_atom_site_fract_z
Si Si1 0.804775 0.137352 0.212511
Si Si2 0.170595 0.155236 0.629583
Si Si3 0.798826 0.194818 0.524176
Si Si4 0.176023 0.048385 0.754249
Si Si5 0.312516 0.045840 0.151644
O O1 0.734755 0.166601 0.346691
O O2 0.781602 0.081786 0.252973
O O3 0.000000 0.145222 0.250000
O O4 0.738872 0.155805 0.018977
O O5 0.259203 0.174742 0.816696
O O6 0.139828 0.098643 0.654314
O O7 0.995930 0.183433 0.574175
O O8 0.750000 0.250000 0.500000
O O9 0.000000 0.026699 0.750000
O O10 0.268122 0.009589 0.671176
O O11 0.270708 0.057550 0.951475
O O12 0.500000 0.053149 0.250000
#
# Coordination Sequence:
#
# PCOD9275908 Si02
#       5
#     8   8   8   8   8
#     4  10  20  41  68  96 132 180 232 272 325 417
#     4  10  20  40  67  95 128 171 231 278 323 412
#     4  10  20  39  65  95 131 166 220 293 338 384
#     4  12  21  41  68  97 134 189 233 269 329 420
#     4  12  25  40  64 104 149 176 223 288 347 392
#
# _framework density 21.642471
#
# number of rings (size 3 to 8) (size 9 to 14) (size 15 to 20)
#    0.000    1.200    4.000    4.200    0.000    0.800 
#    3.600    0.000    0.000    0.000    0.000    0.000 
#    0.000    0.000    0.000    0.000    0.000    0.000 
#
# Total GULP energy -111694.732890 kJ/mol
# GULP energy per Si atom -5584.736644 kJ/mol
# Density = 2.159321 g / cm^3
# Si number density = 21.642471 Si / 1000 Ang^3
#
#
#
# Elastic Constant Matrix: (Units=GPa)
#
#
# Indices 1 2 3 4 5 6 
#
# 1 20.9825 14.9181 25.5600 0.0000 12.5481 0.0000
# 2 14.9181 131.5335 58.5671 0.0000 -14.8366 0.0000
# 3 25.5600 58.5671 139.9636 0.0000 -14.9707 0.0000
# 4 0.0000 0.0000 0.0000 30.8566 0.0000 6.4623
# 5 12.5481 -14.8366 -14.9707 0.0000 19.9242 0.0000
# 6 0.0000 0.0000 0.0000 6.4623 0.0000 20.9792
#
#
#
# Elastic Compliance Matrix: (Units=1/GPa)
#
#
# Indices 1 2 3 4 5 6 
#
# 1 0.432246 -0.047717 -0.099918 0.000000 -0.382835 0.000000
# 2 -0.047717 0.014975 0.007454 0.000000 0.046804 0.000000
# 3 -0.099918 0.007454 0.032184 0.000000 0.092660 0.000000
# 4 0.000000 0.000000 0.000000 0.034643 0.000000 -0.010671
# 5 -0.382835 0.046804 0.092660 0.000000 0.395773 0.000000
# 6 0.000000 0.000000 0.000000 -0.010671 0.000000 0.050953
#
#
# Mechanical properties :
#
#
# Convention : Reuss Voigt Hill
#
# Bulk Modulus (GPa) = 5.02404 54.50779 29.76592
# Shear Modulus (GPa) = 3.82414 27.24763 15.53589
#
# Velocity S-wave (km/s) = 1.33071 3.55207 2.68217
# Velocity P-wave (km/s) = 2.16506 6.48562 4.83481
#
# Compressibility (1/GPa) = 0.19904299
#
# Stress axis : x y z
#
# Youngs Moduli (GPa) = 2.31350 66.77863 31.07175
#
# Poissons Ratio (x) = 3.18647 3.10462
# Poissons Ratio (y) = 0.11039 -0.23161
# Poissons Ratio (z) = 0.23116 -0.49777
#
# Static dielectric constant tensor:
#      x y z
#    x 1.769100 0.000000 -0.012730 
#    y 0.000000 1.762860 0.000000 
#    z -0.012730 0.000000 1.886810 
# 
# From -- ./inp_files/23725.got.cif
#   From: 2010.05.17/outbox.cif.g08.bks.cpg/sg15_12_cif.got.tgz:23725.got - 2010.06.03 18:47:42.
