data_PCOD9275857
_publ_section_title
;
Structure prediction by ZEFSAII (Michael W. Deem and Ramdas Pophale) SiO2 
 PCOD9275857
Probable space group: C 2/C
;
_chemical_formula_sum "Si O2"
_cell_formula_units_Z 36
_cell_length_a 14.418144
_cell_length_b 11.707058
_cell_length_c 11.500261
_cell_angle_alpha 90.000000
_cell_angle_beta 126.092240
_cell_angle_gamma 90.000000
_cell_volume 1568.605144
_symmetry_space_group_name_H-M "C 2/C"
_symmetry_group_IT_number 15
_symmetry_cell_setting 'monoclinic'
loop_
_space_group_symop_operation_xyz
x,y,z
-x,y,1/2-z
-x,-y,-z
x,-y,1/2+z
1/2+x,1/2+y,z
1/2-x,1/2+y,1/2-z
1/2-x,1/2-y,-z
1/2+x,1/2-y,1/2+z
loop_
_atom_site_type_symbol
_atom_site_label
_atom_site_fract_x
_atom_site_fract_y
_atom_site_fract_z
Si Si1 0.247690 0.120685 0.451457
Si Si2 0.500000 0.308912 0.750000
Si Si3 0.652544 0.903686 0.957942
Si Si4 0.386523 0.319995 0.226516
Si Si5 0.955724 0.316969 0.978638
O O1 0.250000 0.250000 0.500000
O O2 0.334314 0.120041 0.406273
O O3 0.112968 0.111770 0.330595
O O4 0.314188 0.024723 0.575954
O O5 0.501283 0.226402 0.637061
O O6 0.768229 0.882905 0.117411
O O7 0.635363 0.804120 0.851056
O O8 0.545554 0.887269 0.966528
O O9 0.500000 0.368074 0.250000
O O10 0.421729 0.297293 0.383859
#
# Coordination Sequence:
#
# PCOD9275857 Si02
#       5
#     8   4   8   8   8
#     4  10  22  40  59  89 126 162 204 251 311 370
#     4  10  22  40  64  88 134 164 204 262 310 368
#     4  10  20  39  65  91 121 163 205 260 310 368
#     4   9  20  38  64  89 122 156 210 255 310 369
#     4  10  20  41  61  91 123 165 209 253 305 373
#
# _framework density 22.950326
#
# number of rings (size 3 to 8) (size 9 to 14) (size 15 to 20)
#    0.000    2.222    0.000    2.000    1.556    0.000 
#   40.000    1.111    0.000    0.000    0.000    0.000 
#    0.000    0.000    0.000    0.000    0.000    0.000 
#
# Total GULP energy -100281.137776 kJ/mol
# GULP energy per Si atom -5571.174321 kJ/mol
# Density = 2.289809 g / cm^3
# Si number density = 22.950326 Si / 1000 Ang^3
#
#
#
# Elastic Constant Matrix: (Units=GPa)
#
#
# Indices 1 2 3 4 5 6 
#
# 1 142.5151 38.9718 32.1749 0.0000 43.6211 0.0000
# 2 38.9718 100.1445 15.3426 0.0000 10.2365 0.0000
# 3 32.1749 15.3426 93.6307 0.0000 3.1651 0.0000
# 4 0.0000 0.0000 0.0000 13.5209 0.0000 22.2687
# 5 43.6211 10.2365 3.1651 0.0000 43.9807 0.0000
# 6 0.0000 0.0000 0.0000 22.2687 0.0000 28.1956
#
#
#
# Elastic Compliance Matrix: (Units=1/GPa)
#
#
# Indices 1 2 3 4 5 6 
#
# 1 0.011898 -0.003025 -0.003225 0.000000 -0.010864 0.000000
# 2 -0.003025 0.011243 -0.000818 0.000000 0.000443 0.000000
# 3 -0.003225 -0.000818 0.011837 0.000000 0.002538 0.000000
# 4 0.000000 0.000000 0.000000 -0.245897 0.000000 0.194208
# 5 -0.010864 0.000443 0.002538 0.000000 0.033227 0.000000
# 6 0.000000 0.000000 0.000000 0.194208 0.000000 -0.117918
#
#
# Mechanical properties :
#
#
# Convention : Reuss Voigt Hill
#
# Bulk Modulus (GPa) = 47.98366 56.58543 52.28454
# Shear Modulus (GPa) = -18.21312 33.79284 7.78986
#
# Velocity S-wave (km/s) = -2.82013 3.84139 1.84434
# Velocity P-wave (km/s) = 3.21696 6.66215 5.23130
#
# Compressibility (1/GPa) = 0.02084043
#
# Stress axis : x y z
#
# Youngs Moduli (GPa) = 84.05080 88.94482 84.48202
#
# Poissons Ratio (x) = 0.26909 0.27249
# Poissons Ratio (y) = 0.25428 0.06908
# Poissons Ratio (z) = 0.27110 0.07272
#
# Static dielectric constant tensor:
#      x y z
#    x 1.877010 0.000000 -0.000440 
#    y 0.000000 2.039920 0.000000 
#    z -0.000440 0.000000 1.903400 
# 
# From -- ./inp_files/94365.got.cif
#   From: 2010.05.17/outbox.cif.g08.bks.cpg/sg15_48_cif.got.tgz:94365.got - 2010.06.03 18:47:42.
