data_PCOD9275697
_publ_section_title
;
Structure prediction by ZEFSAII (Michael W. Deem and Ramdas Pophale) SiO2 
 PCOD9275697
Probable space group: C 2/C
;
_chemical_formula_sum "Si O2"
_cell_formula_units_Z 48
_cell_length_a 21.196228
_cell_length_b 11.743463
_cell_length_c 14.062085
_cell_angle_alpha 90.000000
_cell_angle_beta 145.695711
_cell_angle_gamma 90.000000
_cell_volume 1972.723123
_symmetry_space_group_name_H-M "C 2/C"
_symmetry_group_IT_number 15
_symmetry_cell_setting 'monoclinic'
loop_
_space_group_symop_operation_xyz
x,y,z
-x,y,1/2-z
-x,-y,-z
x,-y,1/2+z
1/2+x,1/2+y,z
1/2-x,1/2+y,1/2-z
1/2-x,1/2-y,-z
1/2+x,1/2-y,1/2+z
loop_
_atom_site_type_symbol
_atom_site_label
_atom_site_fract_x
_atom_site_fract_y
_atom_site_fract_z
Si Si1 0.256267 0.037630 0.399711
Si Si2 0.686167 0.254242 0.113925
Si Si3 0.409245 0.490069 0.469739
Si Si4 0.377508 0.177150 0.003901
Si Si5 0.680999 0.396140 0.475753
Si Si6 0.424254 0.103103 0.365534
O O1 0.283828 0.171743 0.437369
O O2 0.199071 0.026147 0.225801
O O3 0.359547 0.951163 0.519735
O O4 0.176295 0.974349 0.376364
O O5 0.615424 0.368629 0.013135
O O6 0.794776 0.291470 0.312016
O O7 0.608794 0.179895 0.086576
O O8 0.500000 0.500000 0.500000
O O9 0.412911 0.572487 0.563076
O O10 0.335391 0.260240 0.035560
O O11 0.500619 0.176467 0.113720
O O12 0.805449 0.428815 0.670145
O O13 0.500000 0.000000 0.500000
#
# Coordination Sequence:
#
# PCOD9275697 Si02
#       6
#     8   8   8   8   8   8
#     4  11  22  42  64  96 134 166 227 277 330 399
#     4  10  21  38  66  95 128 176 213 278 330 394
#     4  11  23  44  66  93 135 176 219 272 342 411
#     4  10  20  39  63  97 132 168 219 274 338 390
#     4  11  24  41  67  98 132 175 217 283 336 391
#     4  11  19  39  68  95 128 172 224 269 330 400
#
# _framework density 24.331849999999999
#
# number of rings (size 3 to 8) (size 9 to 14) (size 15 to 20)
#    0.000    1.333    5.000    2.500    0.000    2.000 
#    0.000    1.667    3.667    0.000    0.000    0.000 
#    0.000    0.000    0.000    0.000    0.000    0.000 
#
# Total GULP energy -133917.956318 kJ/mol
# GULP energy per Si atom -5579.914847 kJ/mol
# Density = 2.427647 g / cm^3
# Si number density = 24.331850 Si / 1000 Ang^3
#
#
#
# Elastic Constant Matrix: (Units=GPa)
#
#
# Indices 1 2 3 4 5 6 
#
# 1 149.2337 18.5634 19.8280 0.0000 13.4509 0.0000
# 2 18.5634 115.8534 21.0558 0.0000 3.3202 0.0000
# 3 19.8280 21.0558 70.6628 0.0000 6.9271 0.0000
# 4 0.0000 0.0000 0.0000 16.7685 0.0000 1.7834
# 5 13.4509 3.3202 6.9271 0.0000 34.6185 0.0000
# 6 0.0000 0.0000 0.0000 1.7834 0.0000 56.4090
#
#
#
# Elastic Compliance Matrix: (Units=1/GPa)
#
#
# Indices 1 2 3 4 5 6 
#
# 1 0.007225 -0.000807 -0.001550 0.000000 -0.002420 0.000000
# 2 -0.000807 0.009220 -0.002514 0.000000 -0.000068 0.000000
# 3 -0.001550 -0.002514 0.015558 0.000000 -0.002270 0.000000
# 4 0.000000 0.000000 0.000000 0.059837 0.000000 -0.001892
# 5 -0.002420 -0.000068 -0.002270 0.000000 0.030287 0.000000
# 6 0.000000 0.000000 0.000000 -0.001892 0.000000 0.017787
#
#
# Mechanical properties :
#
#
# Convention : Reuss Voigt Hill
#
# Bulk Modulus (GPa) = 44.92003 50.51602 47.71802
# Shear Modulus (GPa) = 31.83151 39.97936 35.90543
#
# Velocity S-wave (km/s) = 3.62086 4.05790 3.84559
# Velocity P-wave (km/s) = 5.99853 6.53925 6.27471
#
# Compressibility (1/GPa) = 0.02226178
#
# Stress axis : x y z
#
# Youngs Moduli (GPa) = 138.40304 108.46276 64.27432
#
# Poissons Ratio (x) = 0.08750 0.09961
# Poissons Ratio (y) = 0.11165 0.16160
# Poissons Ratio (z) = 0.21450 0.27270
#
# Static dielectric constant tensor:
#      x y z
#    x 1.955020 0.000000 0.007830 
#    y 0.000000 2.469620 0.000000 
#    z 0.007830 0.000000 1.992450 
# 
# From -- ./inp_files/167913.got.cif
#   From: 2010.05.17/outbox.cif.g08.bks.cpg/sg15_84_cif.got.tgz:167913.got - 2010.06.03 18:47:42.
