data_PCOD9275819
_publ_section_title
;
Structure prediction by ZEFSAII (Michael W. Deem and Ramdas Pophale) SiO2 
 PCOD9275819
Probable space group: C 2/C
;
_chemical_formula_sum "Si O2"
_cell_formula_units_Z 56
_cell_length_a 12.199970
_cell_length_b 14.488648
_cell_length_c 30.787596
_cell_angle_alpha 90.000000
_cell_angle_beta 30.053217
_cell_angle_gamma 90.000000
_cell_volume 2725.400492
_symmetry_space_group_name_H-M "C 2/C"
_symmetry_group_IT_number 15
_symmetry_cell_setting 'monoclinic'
loop_
_space_group_symop_operation_xyz
x,y,z
-x,y,1/2-z
-x,-y,-z
x,-y,1/2+z
1/2+x,1/2+y,z
1/2-x,1/2+y,1/2-z
1/2-x,1/2-y,-z
1/2+x,1/2-y,1/2+z
loop_
_atom_site_type_symbol
_atom_site_label
_atom_site_fract_x
_atom_site_fract_y
_atom_site_fract_z
Si Si1 0.433621 0.801676 0.408148
Si Si2 0.773035 0.876729 0.581554
Si Si3 0.731973 0.630725 0.179709
Si Si4 0.368832 0.992771 0.952619
Si Si5 0.879304 0.001956 0.125872
Si Si6 0.207692 0.182900 0.892678
Si Si7 0.694358 0.838480 0.743888
O O1 0.250000 0.750000 0.500000
O O2 0.456028 0.903430 0.420206
O O3 0.349482 0.818530 0.387798
O O4 0.647623 0.737134 0.331914
O O5 0.889944 0.932374 0.579786
O O6 0.564854 0.821464 0.670716
O O7 0.954465 0.817090 0.495031
O O8 0.681014 0.950593 0.578293
O O9 0.500000 0.583162 0.250000
O O10 0.736246 0.725950 0.152405
O O11 0.749895 0.653967 0.224439
O O12 0.941418 0.571381 0.093920
O O13 0.128388 0.989134 0.056767
O O14 0.739687 0.061038 0.207403
O O15 0.777240 0.906719 0.143640
#
# Coordination Sequence:
#
# PCOD9275819 Si02
#       7
#     8   8   8   8   8   8   8
#     4  12  21  41  69  98 127 179 221 267 332 401
#     4  10  20  39  65 103 131 158 224 290 319 385
#     4  11  25  43  61  95 139 176 221 270 318 407
#     4  10  21  39  65  93 131 169 214 272 328 388
#     4  11  20  40  69  99 125 169 223 282 334 381
#     4  11  22  42  72  92 131 180 218 265 341 397
#     4  11  24  37  63  99 135 164 224 279 326 381
#
# _framework density 20.547438
#
# number of rings (size 3 to 8) (size 9 to 14) (size 15 to 20)
#    0.000    1.143    5.714    1.286    0.000    8.571 
#    0.000    5.714    0.000    0.000    0.000    0.000 
#    0.000    0.000    0.000    0.000    0.000    0.000 
#
# Total GULP energy -156467.617556 kJ/mol
# GULP energy per Si atom -5588.129198 kJ/mol
# Density = 2.050067 g / cm^3
# Si number density = 20.547438 Si / 1000 Ang^3
#
#
#
# Elastic Constant Matrix: (Units=GPa)
#
#
# Indices 1 2 3 4 5 6 
#
# 1 40.6297 17.5590 1.7275 -0.0014 -14.8066 -0.0011
# 2 17.5590 87.2432 21.1582 0.0014 -7.4854 -0.0033
# 3 1.7275 21.1582 88.0286 0.0087 -25.1985 -0.0107
# 4 -0.0014 0.0014 0.0087 28.9266 -0.0021 -4.7242
# 5 -14.8066 -7.4854 -25.1985 -0.0021 34.9461 0.0023
# 6 -0.0011 -0.0033 -0.0107 -4.7242 0.0023 19.7922
#
#
#
# Elastic Compliance Matrix: (Units=1/GPa)
#
#
# Indices 1 2 3 4 5 6 
#
# 1 0.033411 -0.006678 0.005787 0.000002 0.016898 0.000002
# 2 -0.006678 0.013517 -0.003905 0.000000 -0.002750 0.000000
# 3 0.005787 -0.003905 0.015937 -0.000002 0.013107 0.000006
# 4 0.000002 0.000000 -0.000002 0.035972 0.000001 0.008586
# 5 0.016898 -0.002750 0.013107 0.000001 0.044637 0.000002
# 6 0.000002 0.000000 0.000006 0.008586 0.000002 0.052574
#
#
# Mechanical properties :
#
#
# Convention : Reuss Voigt Hill
#
# Bulk Modulus (GPa) = 18.77154 32.97676 25.87415
# Shear Modulus (GPa) = 22.38146 28.43011 25.40578
#
# Velocity S-wave (km/s) = 3.30397 3.72376 3.52013
# Velocity P-wave (km/s) = 4.86934 5.87983 5.39828
#
# Compressibility (1/GPa) = 0.05327214
#
# Stress axis : x y z
#
# Youngs Moduli (GPa) = 29.93051 73.97894 62.74748
#
# Poissons Ratio (x) = 0.49403 -0.36309
# Poissons Ratio (y) = 0.19987 0.24503
# Poissons Ratio (z) = -0.17320 0.28889
#
# Static dielectric constant tensor:
#      x y z
#    x 1.730830 0.000000 -0.017930 
#    y 0.000000 1.705360 0.000000 
#    z -0.017930 0.000000 1.783180 
# 
# From -- ./inp_files/311301.got.cif
#   From: 2010.05.17/outbox.cif.g08.bks.cpg/sg15_156_cif.got.tgz:311301.got - 2010.06.03 18:47:42.
