data_PCOD9275241
_publ_section_title
;
Structure prediction by ZEFSAII (Michael W. Deem and Ramdas Pophale) SiO2 
 PCOD9275241
Probable space group: C 2/C
;
_chemical_formula_sum "Si O2"
_cell_formula_units_Z 44
_cell_length_a 20.646289
_cell_length_b 15.560645
_cell_length_c 8.000073
_cell_angle_alpha 90.000000
_cell_angle_beta 53.789846
_cell_angle_gamma 90.000000
_cell_volume 2073.764242
_symmetry_space_group_name_H-M "C 2/C"
_symmetry_group_IT_number 15
_symmetry_cell_setting 'monoclinic'
loop_
_space_group_symop_operation_xyz
x,y,z
-x,y,1/2-z
-x,-y,-z
x,-y,1/2+z
1/2+x,1/2+y,z
1/2-x,1/2+y,1/2-z
1/2-x,1/2-y,-z
1/2+x,1/2-y,1/2+z
loop_
_atom_site_type_symbol
_atom_site_label
_atom_site_fract_x
_atom_site_fract_y
_atom_site_fract_z
Si Si1 0.342923 0.560749 0.325797
Si Si2 0.033107 0.633223 0.879467
Si Si3 0.267566 0.047500 0.724081
Si Si4 0.542938 0.686123 0.505979
Si Si5 0.121125 0.452345 0.728390
Si Si6 0.500000 0.408312 0.750000
O O1 0.275155 0.595291 0.557683
O O2 0.302235 0.482445 0.293749
O O3 0.421559 0.538506 0.317200
O O4 0.377577 0.628520 0.140623
O O5 0.091140 0.551798 0.758050
O O6 0.000000 0.660274 0.750000
O O7 0.064536 0.716456 0.925793
O O8 0.956902 0.598524 0.099262
O O9 0.338146 0.083796 0.500490
O O10 0.309812 0.962258 0.738162
O O11 0.500000 0.679629 0.750000
O O12 0.487772 0.649259 0.435683
#
# Coordination Sequence:
#
# PCOD9275241 Si02
#       6
#     8   8   8   8   8   4
#     4   9  21  40  63  91 126 166 211 270 315 382
#     4  11  20  38  64  91 130 167 220 269 306 387
#     4  10  20  39  57  92 132 158 207 261 323 387
#     4  10  22  40  65  91 127 165 221 265 315 370
#     4  10  22  34  62  96 123 169 212 259 331 375
#     4   8  20  42  60  94 118 164 230 250 308 380
#
# _framework density 21.217452999999999
#
# number of rings (size 3 to 8) (size 9 to 14) (size 15 to 20)
#    1.091    1.091    2.727    0.000    2.545    3.636 
#    1.636    3.636    0.000    3.273    0.000    0.000 
#    0.000    0.000    0.000    0.000    0.000    0.000 
#
# Total GULP energy -122498.284677 kJ/mol
# GULP energy per Si atom -5568.103849 kJ/mol
# Density = 2.116916 g / cm^3
# Si number density = 21.217453 Si / 1000 Ang^3
#
#
#
# Elastic Constant Matrix: (Units=GPa)
#
#
# Indices 1 2 3 4 5 6 
#
# 1 67.8596 11.7160 12.3675 0.0000 2.8918 0.0000
# 2 11.7160 58.9349 44.0818 0.0000 -3.6918 0.0000
# 3 12.3675 44.0818 202.4208 0.0000 3.7894 0.0000
# 4 0.0000 0.0000 0.0000 18.9188 0.0000 10.6863
# 5 2.8918 -3.6918 3.7894 0.0000 36.1012 0.0000
# 6 0.0000 0.0000 0.0000 10.6863 0.0000 12.5888
#
#
#
# Elastic Compliance Matrix: (Units=1/GPa)
#
#
# Indices 1 2 3 4 5 6 
#
# 1 0.015358 -0.002946 -0.000269 0.000000 -0.001503 0.000000
# 2 -0.002946 0.021070 -0.004462 0.000000 0.002859 0.000000
# 3 -0.000269 -0.004462 0.005948 0.000000 -0.001059 0.000000
# 4 0.000000 0.000000 0.000000 0.101549 0.000000 -0.086203
# 5 -0.001503 0.002859 -0.001059 0.000000 0.028224 0.000000
# 6 0.000000 0.000000 0.000000 -0.086203 0.000000 0.152610
#
#
# Mechanical properties :
#
#
# Convention : Reuss Voigt Hill
#
# Bulk Modulus (GPa) = 37.00636 51.72732 44.36684
# Shear Modulus (GPa) = 14.32167 30.92511 22.62339
#
# Velocity S-wave (km/s) = 2.60088 3.82190 3.26891
# Velocity P-wave (km/s) = 5.14770 6.62635 5.93327
#
# Compressibility (1/GPa) = 0.02702239
#
# Stress axis : x y z
#
# Youngs Moduli (GPa) = 65.11263 47.46046 168.11956
#
# Poissons Ratio (x) = 0.13984 0.04515
# Poissons Ratio (y) = 0.19185 0.75015
# Poissons Ratio (z) = 0.01749 0.21177
#
# Static dielectric constant tensor:
#      x y z
#    x 1.844330 0.000000 0.029150 
#    y 0.000000 1.742340 0.000000 
#    z 0.029150 0.000000 1.806510 
# 
# From -- ./inp_files/61406.got.cif
#   From: 2010.05.17/outbox.cif.g08.bks.cpg/sg15_31_cif.got.tgz:61406.got - 2010.06.03 18:47:42.
