data_PCOD9275304
_publ_section_title
;
Structure prediction by ZEFSAII (Michael W. Deem and Ramdas Pophale) SiO2 
 PCOD9275304
Probable space group: C 2/C
;
_chemical_formula_sum "Si O2"
_cell_formula_units_Z 44
_cell_length_a 5.298424
_cell_length_b 17.211197
_cell_length_c 19.419464
_cell_angle_alpha 90.000000
_cell_angle_beta 82.849428
_cell_angle_gamma 90.000000
_cell_volume 1757.130733
_symmetry_space_group_name_H-M "C 2/C"
_symmetry_group_IT_number 15
_symmetry_cell_setting 'monoclinic'
loop_
_space_group_symop_operation_xyz
x,y,z
-x,y,1/2-z
-x,-y,-z
x,-y,1/2+z
1/2+x,1/2+y,z
1/2-x,1/2+y,1/2-z
1/2-x,1/2-y,-z
1/2+x,1/2-y,1/2+z
loop_
_atom_site_type_symbol
_atom_site_label
_atom_site_fract_x
_atom_site_fract_y
_atom_site_fract_z
Si Si1 0.500000 0.867447 0.750000
Si Si2 0.280013 0.016206 0.140437
Si Si3 0.000000 0.668498 0.750000
Si Si4 0.000000 0.068040 0.750000
Si Si5 0.284164 0.648974 0.455542
Si Si6 0.315224 0.781245 0.887113
Si Si7 0.991292 0.647733 0.894110
O O1 0.340752 0.810336 0.806342
O O2 0.629770 0.925150 0.801558
O O3 0.018847 0.983024 0.180898
O O4 0.466056 0.943384 0.121553
O O5 0.235740 0.061446 0.071952
O O6 0.751111 0.618386 0.741954
O O7 0.919412 0.697794 0.827930
O O8 0.564860 0.678803 0.428466
O O9 0.199463 0.656435 0.536842
O O10 0.063692 0.691682 0.419117
O O11 0.260480 0.689977 0.900221
#
# Coordination Sequence:
#
# PCOD9275304 Si02
#       7
#     4   8   4   4   8   8   8
#     4  10  23  47  66  99 137 176 222 274 341 397
#     4  10  21  40  68  97 133 176 223 281 330 392
#     4  10  25  38  63  96 132 168 218 282 325 378
#     4  10  20  39  59  95 131 166 216 276 334 383
#     4  11  25  45  67  99 138 179 218 274 338 395
#     4  11  26  45  71  97 136 180 219 272 334 401
#     4  11  24  45  69 101 133 176 230 275 328 398
#
# _framework density 25.040824000000001
#
# number of rings (size 3 to 8) (size 9 to 14) (size 15 to 20)
#    0.000    1.455    0.000    4.909    0.000   16.727 
#    0.000    5.455    0.000    0.000    0.000    0.000 
#    0.000    0.000    0.000    0.000    0.000    0.000 
#
# Total GULP energy -122935.499540 kJ/mol
# GULP energy per Si atom -5587.977252 kJ/mol
# Density = 2.498383 g / cm^3
# Si number density = 25.040824 Si / 1000 Ang^3
#
#
#
# Elastic Constant Matrix: (Units=GPa)
#
#
# Indices 1 2 3 4 5 6 
#
# 1 106.1602 29.7492 50.3556 0.0000 -20.9240 0.0000
# 2 29.7492 94.8040 50.0213 0.0000 -16.9532 0.0000
# 3 50.3556 50.0213 241.1474 0.0000 -34.7614 0.0000
# 4 0.0000 0.0000 0.0000 42.3431 0.0000 -10.2117
# 5 -20.9240 -16.9532 -34.7614 0.0000 36.8170 0.0000
# 6 0.0000 0.0000 0.0000 -10.2117 0.0000 19.8839
#
#
#
# Elastic Compliance Matrix: (Units=1/GPa)
#
#
# Indices 1 2 3 4 5 6 
#
# 1 0.011499 -0.002134 -0.001340 0.000000 0.004286 0.000000
# 2 -0.002134 0.012675 -0.001756 0.000000 0.002965 0.000000
# 3 -0.001340 -0.001756 0.005284 0.000000 0.003418 0.000000
# 4 0.000000 0.000000 0.000000 0.026955 0.000000 0.013843
# 5 0.004286 0.002965 0.003418 0.000000 0.034190 0.000000
# 6 0.000000 0.000000 0.000000 0.013843 0.000000 0.057401
#
#
# Mechanical properties :
#
#
# Convention : Reuss Voigt Hill
#
# Bulk Modulus (GPa) = 52.64475 78.04044 65.34259
# Shear Modulus (GPa) = 30.34035 40.60785 35.47410
#
# Velocity S-wave (km/s) = 3.48463 4.03136 3.76793
# Velocity P-wave (km/s) = 6.10405 7.27338 6.71422
#
# Compressibility (1/GPa) = 0.01899525
#
# Stress axis : x y z
#
# Youngs Moduli (GPa) = 86.96767 78.89786 189.25990
#
# Poissons Ratio (x) = 0.16840 0.25369
# Poissons Ratio (y) = 0.18563 0.33233
# Poissons Ratio (z) = 0.11658 0.13854
#
# Static dielectric constant tensor:
#      x y z
#    x 1.968860 0.000000 0.078350 
#    y 0.000000 2.064110 0.000000 
#    z 0.078350 0.000000 2.036590 
# 
# From -- ./inp_files/226939.got.cif
#   From: 2010.05.17/outbox.cif.g08.bks.cpg/sg15_114_cif.got.tgz:226939.got - 2010.06.03 18:47:42.
