data_PCOD9275530
_publ_section_title
;
Structure prediction by ZEFSAII (Michael W. Deem and Ramdas Pophale) SiO2 
 PCOD9275530
Probable space group: C 2/C
;
_chemical_formula_sum "Si O2"
_cell_formula_units_Z 52
_cell_length_a 5.496858
_cell_length_b 15.763106
_cell_length_c 26.280306
_cell_angle_alpha 90.000000
_cell_angle_beta 57.130306
_cell_angle_gamma 90.000000
_cell_volume 1912.572734
_symmetry_space_group_name_H-M "C 2/C"
_symmetry_group_IT_number 15
_symmetry_cell_setting 'monoclinic'
loop_
_space_group_symop_operation_xyz
x,y,z
-x,y,1/2-z
-x,-y,-z
x,-y,1/2+z
1/2+x,1/2+y,z
1/2-x,1/2+y,1/2-z
1/2-x,1/2-y,-z
1/2+x,1/2-y,1/2+z
loop_
_atom_site_type_symbol
_atom_site_label
_atom_site_fract_x
_atom_site_fract_y
_atom_site_fract_z
Si Si1 0.657213 0.405186 0.545957
Si Si2 0.781792 0.959882 0.811775
Si Si3 0.420285 0.303320 0.666125
Si Si4 0.531320 0.746635 0.855264
Si Si5 0.500000 0.000721 0.250000
Si Si6 0.543530 0.439523 0.125994
Si Si7 0.714449 0.844042 0.525594
O O1 0.555370 0.328671 0.595561
O O2 0.528756 0.492424 0.582572
O O3 0.519781 0.384211 0.507228
O O4 0.001411 0.400058 0.515281
O O5 0.992181 0.887322 0.810714
O O6 0.551011 0.939620 0.794845
O O7 0.000000 0.011455 0.750000
O O8 0.703753 0.020266 0.866713
O O9 0.112243 0.265187 0.683233
O O10 0.624883 0.238987 0.673959
O O11 0.404209 0.658317 0.889871
O O12 0.446297 0.826436 0.901522
O O13 0.750716 0.945074 0.193858
O O14 0.750000 0.750000 0.500000
#
# Coordination Sequence:
#
# PCOD9275530 Si02
#       7
#     8   8   8   8   4   8   8
#     4   9  20  35  64  85 115 161 195 238 297 375
#     4   9  20  36  56  80 107 152 201 253 287 356
#     4   9  20  36  57  80 110 150 198 231 299 347
#     4  10  22  37  59  85 119 157 189 252 302 357
#     4  10  22  36  64  84 118 162 212 254 300 358
#     4  10  22  38  59  84 122 160 208 241 308 360
#     4  10  20  39  62  92 121 154 201 253 306 366
#
# _framework density 27.188510000000001
#
# number of rings (size 3 to 8) (size 9 to 14) (size 15 to 20)
#    0.000    2.462    0.000    0.462   15.077    0.000 
#    1.385    1.538    0.000    0.000    0.000    0.000 
#    0.000    0.000    0.000    0.000    0.000    0.000 
#
# Total GULP energy -144740.761808 kJ/mol
# GULP energy per Si atom -5566.952377 kJ/mol
# Density = 2.712663 g / cm^3
# Si number density = 27.188510 Si / 1000 Ang^3
#
#
#
# Elastic Constant Matrix: (Units=GPa)
#
#
# Indices 1 2 3 4 5 6 
#
# 1 215.2712 56.8902 37.1081 0.0002 50.1180 -0.0002
# 2 56.8902 137.3998 16.1707 0.0000 18.9667 0.0000
# 3 37.1081 16.1707 66.8692 0.0002 4.5092 -0.0001
# 4 0.0002 0.0000 0.0002 13.8765 -0.0001 -8.1673
# 5 50.1180 18.9667 4.5092 -0.0001 37.8923 0.0001
# 6 -0.0002 0.0000 -0.0001 -8.1673 0.0001 20.8456
#
#
#
# Elastic Compliance Matrix: (Units=1/GPa)
#
#
# Indices 1 2 3 4 5 6 
#
# 1 0.007737 -0.001564 -0.003304 0.000000 -0.009057 0.000000
# 2 -0.001564 0.008317 -0.001010 0.000000 -0.001974 0.000000
# 3 -0.003304 -0.001010 0.016839 0.000000 0.002872 0.000000
# 4 0.000000 0.000000 0.000000 0.093663 0.000000 0.036697
# 5 -0.009057 -0.001974 0.002872 0.000000 0.039016 0.000000
# 6 0.000000 0.000000 0.000000 0.036697 0.000000 0.062349
#
#
# Mechanical properties :
#
#
# Convention : Reuss Voigt Hill
#
# Bulk Modulus (GPa) = 47.31453 71.09758 59.20606
# Shear Modulus (GPa) = 20.26562 35.14764 27.70663
#
# Velocity S-wave (km/s) = 2.73312 3.59937 3.19573
# Velocity P-wave (km/s) = 5.23451 6.59398 5.95318
#
# Compressibility (1/GPa) = 0.02113515
#
# Stress axis : x y z
#
# Youngs Moduli (GPa) = 129.25096 120.23445 59.38627
#
# Poissons Ratio (x) = 0.18809 0.19624
# Poissons Ratio (y) = 0.20219 0.05999
# Poissons Ratio (z) = 0.42710 0.12145
#
# Static dielectric constant tensor:
#      x y z
#    x 3.441260 0.000000 -0.208770 
#    y 0.000000 2.109150 0.000000 
#    z -0.208770 0.000000 2.247010 
# 
# From -- ./inp_files/305361.got.cif
#   From: 2010.05.17/outbox.cif.g08.bks.cpg/sg15_153_cif.got.tgz:305361.got - 2010.06.03 18:47:42.
