data_PCOD9275526
_publ_section_title
;
Structure prediction by ZEFSAII (Michael W. Deem and Ramdas Pophale) SiO2 
 PCOD9275526
Probable space group: C 2/C
;
_chemical_formula_sum "Si O2"
_cell_formula_units_Z 48
_cell_length_a 11.470466
_cell_length_b 26.190106
_cell_length_c 14.738539
_cell_angle_alpha 90.000000
_cell_angle_beta 150.149688
_cell_angle_gamma 90.000000
_cell_volume 2203.797061
_symmetry_space_group_name_H-M "C 2/C"
_symmetry_group_IT_number 15
_symmetry_cell_setting 'monoclinic'
loop_
_space_group_symop_operation_xyz
x,y,z
-x,y,1/2-z
-x,-y,-z
x,-y,1/2+z
1/2+x,1/2+y,z
1/2-x,1/2+y,1/2-z
1/2-x,1/2-y,-z
1/2+x,1/2-y,1/2+z
loop_
_atom_site_type_symbol
_atom_site_label
_atom_site_fract_x
_atom_site_fract_y
_atom_site_fract_z
Si Si1 0.000000 0.318135 0.250000
Si Si2 0.287387 0.210651 0.791191
Si Si3 0.882822 0.098927 0.071385
Si Si4 0.561349 0.791845 0.913710
Si Si5 0.165233 0.950810 0.611521
Si Si6 0.500000 0.984106 0.250000
Si Si7 0.400748 0.369457 0.081521
O O1 0.089641 0.287414 0.222469
O O2 0.219490 0.352850 0.433047
O O3 0.184120 0.263844 0.759444
O O4 0.076875 0.169474 0.648609
O O5 0.439024 0.194826 0.979686
O O6 0.000000 0.102089 0.250000
O O7 0.094971 0.086611 0.145209
O O8 0.698975 0.052274 0.928237
O O9 0.750000 0.750000 0.000000
O O10 0.651257 0.842311 0.926400
O O11 0.117414 0.920066 0.487568
O O12 0.414706 0.977821 0.771892
O O13 0.000000 0.000000 0.500000
O O14 0.500000 0.375822 0.250000
#
# Coordination Sequence:
#
# PCOD9275526 Si02
#       7
#     4   8   8   8   8   4   8
#     4  11  22  42  64  92 140 176 226 262 330 413
#     4  10  20  39  62  91 128 175 211 278 333 393
#     4  10  22  43  64  90 134 181 218 270 329 402
#     4   9  19  38  62  91 123 162 218 275 335 387
#     4  10  20  39  62  94 132 166 217 276 333 397
#     4   9  22  40  64  96 128 168 220 284 336 391
#     4   9  18  37  63  92 126 171 220 278 337 385
#
# _framework density 21.78059
#
# number of rings (size 3 to 8) (size 9 to 14) (size 15 to 20)
#    0.000    2.333    1.667    1.500    0.000    4.000 
#   15.000    0.000    0.000    0.000    0.000    0.000 
#    0.000    0.000    0.000    0.000    0.000    0.000 
#
# Total GULP energy -133696.896471 kJ/mol
# GULP energy per Si atom -5570.704020 kJ/mol
# Density = 2.173102 g / cm^3
# Si number density = 21.780590 Si / 1000 Ang^3
#
#
#
# Elastic Constant Matrix: (Units=GPa)
#
#
# Indices 1 2 3 4 5 6 
#
# 1 162.6204 30.4196 39.4792 -0.0001 -23.6416 -0.0001
# 2 30.4196 75.2593 19.8134 0.0001 -8.6602 0.0002
# 3 39.4792 19.8134 82.2929 0.0004 -27.1650 0.0004
# 4 -0.0001 0.0001 0.0004 5.8329 0.0000 -6.2376
# 5 -23.6416 -8.6602 -27.1650 0.0000 31.0939 0.0000
# 6 -0.0001 0.0002 0.0004 -6.2376 0.0000 41.4386
#
#
#
# Elastic Compliance Matrix: (Units=1/GPa)
#
#
# Indices 1 2 3 4 5 6 
#
# 1 0.007521 -0.002129 -0.001972 0.000000 0.003402 0.000000
# 2 -0.002129 0.014830 -0.002417 0.000000 0.000400 0.000000
# 3 -0.001972 -0.002417 0.018216 -0.000001 0.013741 0.000000
# 4 0.000000 0.000000 -0.000001 0.204334 -0.000001 0.030758
# 5 0.003402 0.000400 0.013741 -0.000001 0.046864 0.000000
# 6 0.000000 0.000000 0.000000 0.030758 0.000000 0.028762
#
#
# Mechanical properties :
#
#
# Convention : Reuss Voigt Hill
#
# Bulk Modulus (GPa) = 36.32436 55.51078 45.91757
# Shear Modulus (GPa) = 14.58827 31.03710 22.81268
#
# Velocity S-wave (km/s) = 2.59082 3.77900 3.23985
# Velocity P-wave (km/s) = 5.06591 6.67703 5.92647
#
# Compressibility (1/GPa) = 0.02752974
#
# Stress axis : x y z
#
# Youngs Moduli (GPa) = 132.96039 67.42901 54.89684
#
# Poissons Ratio (x) = 0.14357 0.10828
# Poissons Ratio (y) = 0.28310 0.13270
# Poissons Ratio (z) = 0.26225 0.16299
#
# Static dielectric constant tensor:
#      x y z
#    x 1.471980 0.000010 0.413650 
#    y 0.000010 1.846190 -0.000010 
#    z 0.413650 -0.000010 1.456940 
# 
# From -- ./inp_files/31944.got.cif
#   From: 2010.05.17/outbox.cif.g08.bks.cpg/sg15_16_cif.got.tgz:31944.got - 2010.06.03 18:47:42.
