data_PCOD9275912
_publ_section_title
;
Structure prediction by ZEFSAII (Michael W. Deem and Ramdas Pophale) SiO2 
 PCOD9275912
Probable space group: C 2/C
;
_chemical_formula_sum "Si O2"
_cell_formula_units_Z 56
_cell_length_a 7.333822
_cell_length_b 29.994062
_cell_length_c 18.380443
_cell_angle_alpha 90.000000
_cell_angle_beta 143.082588
_cell_angle_gamma 90.000000
_cell_volume 2428.581394
_symmetry_space_group_name_H-M "C 2/C"
_symmetry_group_IT_number 15
_symmetry_cell_setting 'monoclinic'
loop_
_space_group_symop_operation_xyz
x,y,z
-x,y,1/2-z
-x,-y,-z
x,-y,1/2+z
1/2+x,1/2+y,z
1/2-x,1/2+y,1/2-z
1/2-x,1/2-y,-z
1/2+x,1/2-y,1/2+z
loop_
_atom_site_type_symbol
_atom_site_label
_atom_site_fract_x
_atom_site_fract_y
_atom_site_fract_z
Si Si1 0.117388 0.853057 0.707011
Si Si2 0.799427 0.621351 0.623931
Si Si3 0.258152 0.220655 0.616981
Si Si4 0.845005 0.411499 0.565673
Si Si5 0.656775 0.261485 0.627601
Si Si6 0.543293 0.902151 0.466814
Si Si7 0.134207 0.496889 0.124722
O O1 0.440749 0.876271 0.824496
O O2 0.120873 0.811201 0.652949
O O3 0.000000 0.839424 0.750000
O O4 0.880129 0.891141 0.604830
O O5 0.701695 0.670009 0.621687
O O6 0.493985 0.593768 0.514325
O O7 0.983992 0.631359 0.608997
O O8 0.000000 0.599573 0.750000
O O9 0.500000 0.240919 0.750000
O O10 0.446059 0.227191 0.602835
O O11 0.937719 0.239270 0.487168
O O12 0.849878 0.401762 0.479330
O O13 0.985461 0.461112 0.618226
O O14 0.000000 0.248804 0.750000
O O15 0.477563 0.946756 0.398536
O O16 0.500000 0.499570 0.250000
O O17 0.000000 0.500000 0.000000
#
# Coordination Sequence:
#
# PCOD9275912 Si02
#       7
#     8   8   8   8   8   8   8
#     4  10  20  39  65  96 123 164 223 266 326 387
#     4  11  24  41  60  91 130 167 214 263 319 395
#     4  10  23  44  60  92 134 160 211 276 315 390
#     4  10  22  40  66  95 124 170 215 269 327 376
#     4  11  22  40  68  93 123 173 215 265 331 382
#     4  10  22  39  65  92 127 169 206 267 319 389
#     4  10  21  39  65  95 129 167 216 267 319 386
#
# _framework density 23.058727999999999
#
# number of rings (size 3 to 8) (size 9 to 14) (size 15 to 20)
#    0.000    1.714    1.429    3.429    4.000    1.143 
#    5.143    0.000    0.000    0.000    0.000    0.000 
#    0.000    0.000    0.000    0.000    0.000    0.000 
#
# Total GULP energy -155937.863329 kJ/mol
# GULP energy per Si atom -5569.209405 kJ/mol
# Density = 2.300625 g / cm^3
# Si number density = 23.058728 Si / 1000 Ang^3
#
#
#
# Elastic Constant Matrix: (Units=GPa)
#
#
# Indices 1 2 3 4 5 6 
#
# 1 69.6312 14.0542 19.0350 0.0000 -10.7046 0.0000
# 2 14.0542 115.0453 27.5696 0.0000 10.9929 0.0000
# 3 19.0350 27.5696 134.4682 0.0005 -10.2959 -0.0001
# 4 0.0000 0.0000 0.0005 38.9914 0.0002 -6.8355
# 5 -10.7046 10.9929 -10.2959 0.0002 39.7880 0.0000
# 6 0.0000 0.0000 -0.0001 -6.8355 0.0000 24.1198
#
#
#
# Elastic Compliance Matrix: (Units=1/GPa)
#
#
# Indices 1 2 3 4 5 6 
#
# 1 0.015855 -0.002002 -0.001495 0.000000 0.004432 0.000000
# 2 -0.002002 0.009778 -0.002009 0.000000 -0.003760 0.000000
# 3 -0.001495 -0.002009 0.008235 0.000000 0.002284 0.000000
# 4 0.000000 0.000000 0.000000 0.026987 0.000000 0.007648
# 5 0.004432 -0.003760 0.002284 0.000000 0.027956 0.000000
# 6 0.000000 0.000000 0.000000 0.007648 0.000000 0.043627
#
#
# Mechanical properties :
#
#
# Convention : Reuss Voigt Hill
#
# Bulk Modulus (GPa) = 43.75191 48.94026 46.34608
# Shear Modulus (GPa) = 33.09745 37.81222 35.45484
#
# Velocity S-wave (km/s) = 3.79272 4.05387 3.92546
# Velocity P-wave (km/s) = 6.18020 6.57130 6.37875
#
# Compressibility (1/GPa) = 0.02285614
#
# Stress axis : x y z
#
# Youngs Moduli (GPa) = 63.06979 102.27481 121.43177
#
# Poissons Ratio (x) = 0.20478 0.18149
# Poissons Ratio (y) = 0.12628 0.24397
# Poissons Ratio (z) = 0.09426 0.20548
#
# Static dielectric constant tensor:
#      x y z
#    x 1.737050 0.000000 0.082210 
#    y 0.000000 1.980360 0.000000 
#    z 0.082210 0.000000 2.114300 
# 
# From -- ./inp_files/234983.got.cif
#   From: 2010.05.17/outbox.cif.g08.bks.cpg/sg15_118_cif.got.tgz:234983.got - 2010.06.03 18:47:42.
