data_PCOD9275635
_publ_section_title
;
Structure prediction by ZEFSAII (Michael W. Deem and Ramdas Pophale) SiO2 
 PCOD9275635
Probable space group: C 2/C
;
_chemical_formula_sum "Si O2"
_cell_formula_units_Z 48
_cell_length_a 27.306988
_cell_length_b 10.370923
_cell_length_c 14.743211
_cell_angle_alpha 90.000000
_cell_angle_beta 28.799421
_cell_angle_gamma 90.000000
_cell_volume 2011.408785
_symmetry_space_group_name_H-M "C 2/C"
_symmetry_group_IT_number 15
_symmetry_cell_setting 'monoclinic'
loop_
_space_group_symop_operation_xyz
x,y,z
-x,y,1/2-z
-x,-y,-z
x,-y,1/2+z
1/2+x,1/2+y,z
1/2-x,1/2+y,1/2-z
1/2-x,1/2-y,-z
1/2+x,1/2-y,1/2+z
loop_
_atom_site_type_symbol
_atom_site_label
_atom_site_fract_x
_atom_site_fract_y
_atom_site_fract_z
Si Si1 0.358911 0.768584 0.872715
Si Si2 0.604462 0.009654 0.548534
Si Si3 0.556274 0.151393 0.951587
Si Si4 0.312423 0.408674 0.746758
Si Si5 0.112759 0.997066 0.057862
Si Si6 0.267350 0.104070 0.942289
O O1 0.369585 0.888425 0.926522
O O2 0.442369 0.800081 0.658307
O O3 0.384944 0.642747 0.893144
O O4 0.250000 0.750000 0.000000
O O5 0.500000 0.071377 0.750000
O O6 0.585178 0.948666 0.482587
O O7 0.697211 0.107868 0.399051
O O8 0.622690 0.280077 0.855462
O O9 0.611550 0.089628 0.772363
O O10 0.365119 0.492386 0.584707
O O11 0.293337 0.466497 0.877576
O O12 0.000000 0.051519 0.250000
O O13 0.203985 0.073049 0.956417
O O14 0.250000 0.250000 0.000000
#
# Coordination Sequence:
#
# PCOD9275635 Si02
#       6
#     8   8   8   8   8   8
#     4  11  22  40  65  98 123 172 228 270 320 396
#     4  10  20  39  63  90 125 166 212 265 331 392
#     4  10  20  43  65  88 133 169 211 274 327 393
#     4  11  21  41  67  93 132 171 222 273 333 393
#     4  12  22  42  71  97 128 178 232 274 324 401
#     4  10  24  43  63  98 137 170 209 280 344 386
#
# _framework density 23.863871
#
# number of rings (size 3 to 8) (size 9 to 14) (size 15 to 20)
#    0.000    1.333    5.000    1.500    0.000    0.667 
#    9.000    5.833    0.000    0.000    0.000    0.000 
#    0.000    0.000    0.000    0.000    0.000    0.000 
#
# Total GULP energy -133915.335906 kJ/mol
# GULP energy per Si atom -5579.805663 kJ/mol
# Density = 2.380956 g / cm^3
# Si number density = 23.863871 Si / 1000 Ang^3
#
#
#
# Elastic Constant Matrix: (Units=GPa)
#
#
# Indices 1 2 3 4 5 6 
#
# 1 70.0325 7.0430 56.3613 0.0000 7.6836 0.0000
# 2 7.0430 64.2115 14.4185 0.0000 -7.9513 0.0000
# 3 56.3613 14.4185 232.6120 0.0000 4.6688 0.0000
# 4 0.0000 0.0000 0.0000 16.3831 0.0000 -17.9605
# 5 7.6836 -7.9513 4.6688 0.0000 58.3641 0.0000
# 6 0.0000 0.0000 0.0000 -17.9605 0.0000 25.2768
#
#
#
# Elastic Compliance Matrix: (Units=1/GPa)
#
#
# Indices 1 2 3 4 5 6 
#
# 1 0.018078 -0.001302 -0.004255 0.000000 -0.002217 0.000000
# 2 -0.001302 0.016183 -0.000737 0.000000 0.002435 0.000000
# 3 -0.004255 -0.000737 0.005375 0.000000 0.000030 0.000000
# 4 0.000000 0.000000 0.000000 0.276151 0.000000 0.196220
# 5 -0.002217 0.002435 0.000030 0.000000 0.017755 0.000000
# 6 0.000000 0.000000 0.000000 0.196220 0.000000 0.178987
#
#
# Mechanical properties :
#
#
# Convention : Reuss Voigt Hill
#
# Bulk Modulus (GPa) = 36.96991 58.05573 47.51282
# Shear Modulus (GPa) = 9.36098 39.27368 24.31733
#
# Velocity S-wave (km/s) = 1.98272 4.06117 3.19564
# Velocity P-wave (km/s) = 4.55710 6.80966 5.79391
#
# Compressibility (1/GPa) = 0.02704902
#
# Stress axis : x y z
#
# Youngs Moduli (GPa) = 55.31717 61.79229 186.04568
#
# Poissons Ratio (x) = 0.08045 0.79162
# Poissons Ratio (y) = 0.07202 0.13703
# Poissons Ratio (z) = 0.23537 0.04551
#
# Static dielectric constant tensor:
#      x y z
#    x 1.976510 0.000000 0.064740 
#    y 0.000000 1.956970 0.000000 
#    z 0.064740 0.000000 1.963860 
# 
# From -- ./inp_files/177735.got.cif
#   From: 2010.05.17/outbox.cif.g08.bks.cpg/sg15_89_cif.got.tgz:177735.got - 2010.06.03 18:47:42.
