data_PCOD9275547
_publ_section_title
;
Structure prediction by ZEFSAII (Michael W. Deem and Ramdas Pophale) SiO2 
 PCOD9275547
Probable space group: C 2/C
;
_chemical_formula_sum "Si O2"
_cell_formula_units_Z 60
_cell_length_a 7.633647
_cell_length_b 26.296418
_cell_length_c 13.746033
_cell_angle_alpha 90.000000
_cell_angle_beta 80.057858
_cell_angle_gamma 90.000000
_cell_volume 2717.907110
_symmetry_space_group_name_H-M "C 2/C"
_symmetry_group_IT_number 15
_symmetry_cell_setting 'monoclinic'
loop_
_space_group_symop_operation_xyz
x,y,z
-x,y,1/2-z
-x,-y,-z
x,-y,1/2+z
1/2+x,1/2+y,z
1/2-x,1/2+y,1/2-z
1/2-x,1/2-y,-z
1/2+x,1/2-y,1/2+z
loop_
_atom_site_type_symbol
_atom_site_label
_atom_site_fract_x
_atom_site_fract_y
_atom_site_fract_z
Si Si1 0.315163 0.663469 0.160485
Si Si2 0.849279 0.993046 0.593793
Si Si3 0.140307 0.767433 0.157309
Si Si4 0.645472 0.139438 0.818466
Si Si5 0.776903 0.405998 0.006050
Si Si6 0.392565 0.705708 0.504853
Si Si7 0.000000 0.920642 0.750000
Si Si8 0.371414 0.606270 0.626903
O O1 0.203898 0.713445 0.190994
O O2 0.344603 0.621631 0.242029
O O3 0.221384 0.636162 0.077879
O O4 0.504475 0.684158 0.099771
O O5 0.704096 0.958287 0.553940
O O6 0.948515 0.959892 0.668181
O O7 0.789419 0.049780 0.623574
O O8 0.000000 0.000000 0.500000
O O9 0.303886 0.806223 0.141803
O O10 0.000000 0.786199 0.250000
O O11 0.042347 0.770852 0.063219
O O12 0.500000 0.143770 0.750000
O O13 0.599334 0.103862 0.914014
O O14 0.813987 0.119083 0.741551
O O15 0.577584 0.400573 0.072886
O O16 0.250000 0.750000 0.500000
O O17 0.315224 0.655410 0.567130
#
# Coordination Sequence:
#
# PCOD9275547 Si02
#       8
#     8   8   8   8   8   8   4   8
#     4  10  23  39  60  89 133 164 207 266 318 383
#     4   9  20  36  66  94 119 163 209 270 316 369
#     4  12  24  41  60  89 130 170 213 262 314 384
#     4  12  24  36  61  92 126 167 207 260 320 379
#     4   9  19  41  60  88 122 157 210 262 316 371
#     4  11  24  39  64  95 127 167 214 261 327 391
#     4  10  22  36  64 100 122 168 220 262 324 388
#     4  10  20  39  62  94 121 155 214 261 310 379
#
# _framework density 22.075807999999999
#
# number of rings (size 3 to 8) (size 9 to 14) (size 15 to 20)
#    0.000    1.600    4.000    1.600    8.400    0.000 
#    0.000    0.667    0.000    3.200    0.000    0.000 
#    0.000    0.000    0.000    0.000    0.000    0.000 
#
# Total GULP energy -167072.836281 kJ/mol
# GULP energy per Si atom -5569.094543 kJ/mol
# Density = 2.202556 g / cm^3
# Si number density = 22.075808 Si / 1000 Ang^3
#
#
#
# Elastic Constant Matrix: (Units=GPa)
#
#
# Indices 1 2 3 4 5 6 
#
# 1 54.1187 36.4975 30.4784 0.0000 35.7373 0.0000
# 2 36.4975 189.5068 48.8900 0.0000 31.0289 0.0000
# 3 30.4784 48.8900 78.8004 0.0000 34.6858 0.0000
# 4 0.0000 0.0000 0.0000 14.8507 0.0000 -0.0026
# 5 35.7373 31.0289 34.6858 0.0000 39.9691 0.0000
# 6 0.0000 0.0000 0.0000 -0.0026 0.0000 17.6535
#
#
#
# Elastic Compliance Matrix: (Units=1/GPa)
#
#
# Indices 1 2 3 4 5 6 
#
# 1 0.046213 -0.002673 0.001713 0.000000 -0.040732 0.000000
# 2 -0.002673 0.006585 -0.002999 0.000000 -0.000119 0.000000
# 3 0.001713 -0.002999 0.021905 0.000000 -0.018213 0.000000
# 4 0.000000 0.000000 0.000000 0.067337 0.000000 0.000010
# 5 -0.040732 -0.000119 -0.018213 0.000000 0.077337 0.000000
# 6 0.000000 0.000000 0.000000 0.000010 0.000000 0.056646
#
#
# Mechanical properties :
#
#
# Convention : Reuss Voigt Hill
#
# Bulk Modulus (GPa) = 14.97329 61.57307 38.27318
# Shear Modulus (GPa) = 16.32905 28.26534 22.29720
#
# Velocity S-wave (km/s) = 2.72266 3.58212 3.18154
# Velocity P-wave (km/s) = 4.08426 6.71275 5.55618
#
# Compressibility (1/GPa) = 0.06678559
#
# Stress axis : x y z
#
# Youngs Moduli (GPa) = 21.63890 151.86219 45.65088
#
# Poissons Ratio (x) = 0.40593 -0.07821
# Poissons Ratio (y) = 0.05784 0.13691
# Poissons Ratio (z) = -0.03707 0.45544
#
# Static dielectric constant tensor:
#      x y z
#    x 1.871440 0.000000 0.031310 
#    y 0.000000 1.876080 0.000000 
#    z 0.031310 0.000000 1.827470 
# 
# From -- ./inp_files/138252.got.cif
#   From: 2010.05.17/outbox.cif.g08.bks.cpg/sg15_70_cif.got.tgz:138252.got - 2010.06.03 18:47:42.
