data_PCOD9275445
_publ_section_title
;
Structure prediction by ZEFSAII (Michael W. Deem and Ramdas Pophale) SiO2 
 PCOD9275445
Probable space group: C 2/C
;
_chemical_formula_sum "Si O2"
_cell_formula_units_Z 52
_cell_length_a 15.245594
_cell_length_b 23.097533
_cell_length_c 8.556191
_cell_angle_alpha 90.000000
_cell_angle_beta 117.638394
_cell_angle_gamma 90.000000
_cell_volume 2669.141823
_symmetry_space_group_name_H-M "C 2/C"
_symmetry_group_IT_number 15
_symmetry_cell_setting 'monoclinic'
loop_
_space_group_symop_operation_xyz
x,y,z
-x,y,1/2-z
-x,-y,-z
x,-y,1/2+z
1/2+x,1/2+y,z
1/2-x,1/2+y,1/2-z
1/2-x,1/2-y,-z
1/2+x,1/2-y,1/2+z
loop_
_atom_site_type_symbol
_atom_site_label
_atom_site_fract_x
_atom_site_fract_y
_atom_site_fract_z
Si Si1 0.456620 0.144626 0.043712
Si Si2 0.126127 0.578565 0.012750
Si Si3 0.786580 0.841987 0.563026
Si Si4 0.393190 0.230145 0.747523
Si Si5 0.000000 0.976976 0.250000
Si Si6 0.653548 0.957835 0.181409
Si Si7 0.877650 0.937103 0.433366
O O1 0.500000 0.152926 0.250000
O O2 0.545561 0.123664 0.005073
O O3 0.409523 0.201564 0.929595
O O4 0.380081 0.091235 0.968305
O O5 0.117502 0.561926 0.823158
O O6 0.234192 0.607599 0.119831
O O7 0.114580 0.520206 0.101097
O O8 0.692016 0.809297 0.405898
O O9 0.849660 0.794693 0.706612
O O10 0.854111 0.874898 0.491352
O O11 0.500000 0.229339 0.750000
O O12 0.050161 0.939291 0.155314
O O13 0.077783 0.019695 0.399915
O O14 0.771443 0.960127 0.289426
#
# Coordination Sequence:
#
# PCOD9275445 Si02
#       7
#     8   8   8   8   4   8   8
#     4  12  23  39  63  97 133 170 208 266 327 388
#     4  11  21  39  62 101 129 170 211 261 320 393
#     4  10  22  38  72  92 118 172 226 262 320 380
#     4  11  21  44  70  88 123 168 221 273 314 379
#     4  10  22  36  62  94 140 170 202 268 318 384
#     4  11  21  37  62  93 136 169 209 257 325 391
#     4  10  20  39  61  95 131 171 214 259 320 384
#
# _framework density 19.481915999999998
#
# number of rings (size 3 to 8) (size 9 to 14) (size 15 to 20)
#    0.000    1.231    4.615    3.692    1.077    0.000 
#    0.000    0.769    1.692    0.000    0.000    0.000 
#    0.000    0.000    0.000    0.000    0.000    0.000 
#
# Total GULP energy -145203.189755 kJ/mol
# GULP energy per Si atom -5584.738068 kJ/mol
# Density = 1.943757 g / cm^3
# Si number density = 19.481916 Si / 1000 Ang^3
#
#
#
# Elastic Constant Matrix: (Units=GPa)
#
#
# Indices 1 2 3 4 5 6 
#
# 1 90.5253 47.3808 39.9896 0.0000 8.0948 0.0000
# 2 47.3808 125.8103 59.3518 0.0000 1.0337 0.0000
# 3 39.9896 59.3518 109.2467 0.0000 12.3313 0.0000
# 4 0.0000 0.0000 0.0000 23.9321 0.0000 8.2126
# 5 8.0948 1.0337 12.3313 0.0000 22.6874 0.0000
# 6 0.0000 0.0000 0.0000 8.2126 0.0000 24.0418
#
#
#
# Elastic Compliance Matrix: (Units=1/GPa)
#
#
# Indices 1 2 3 4 5 6 
#
# 1 0.014794 -0.004276 -0.002683 0.000000 -0.003625 0.000000
# 2 -0.004276 0.012099 -0.005452 0.000000 0.003938 0.000000
# 3 -0.002683 -0.005452 0.013809 0.000000 -0.006300 0.000000
# 4 0.000000 0.000000 0.000000 0.047333 0.000000 -0.016169
# 5 -0.003625 0.003938 -0.006300 0.000000 0.048616 0.000000
# 6 0.000000 0.000000 0.000000 -0.016169 0.000000 0.047117
#
#
# Mechanical properties :
#
#
# Convention : Reuss Voigt Hill
#
# Bulk Modulus (GPa) = 62.97607 68.78074 65.87841
# Shear Modulus (GPa) = 23.37721 26.05628 24.71674
#
# Velocity S-wave (km/s) = 3.46778 3.66110 3.56575
# Velocity P-wave (km/s) = 6.95914 7.29747 7.13031
#
# Compressibility (1/GPa) = 0.01587905
#
# Stress axis : x y z
#
# Youngs Moduli (GPa) = 67.59450 82.65414 72.41688
#
# Poissons Ratio (x) = 0.35343 0.19430
# Poissons Ratio (y) = 0.28903 0.39483
# Poissons Ratio (z) = 0.18136 0.45065
#
# Static dielectric constant tensor:
#      x y z
#    x 1.704490 0.000000 0.018580 
#    y 0.000000 1.687830 0.000000 
#    z 0.018580 0.000000 1.678100 
# 
# From -- ./inp_files/42348.got.cif
#   From: 2010.05.17/outbox.cif.g08.bks.cpg/sg15_22_cif.got.tgz:42348.got - 2010.06.03 18:47:42.
