data_PCOD9275906
_publ_section_title
;
Structure prediction by ZEFSAII (Michael W. Deem and Ramdas Pophale) SiO2 
 PCOD9275906
Probable space group: C 2/C
;
_chemical_formula_sum "Si O2"
_cell_formula_units_Z 44
_cell_length_a 10.699195
_cell_length_b 22.410453
_cell_length_c 10.731411
_cell_angle_alpha 90.000000
_cell_angle_beta 50.279130
_cell_angle_gamma 90.000000
_cell_volume 1979.151843
_symmetry_space_group_name_H-M "C 2/C"
_symmetry_group_IT_number 15
_symmetry_cell_setting 'monoclinic'
loop_
_space_group_symop_operation_xyz
x,y,z
-x,y,1/2-z
-x,-y,-z
x,-y,1/2+z
1/2+x,1/2+y,z
1/2-x,1/2+y,1/2-z
1/2-x,1/2-y,-z
1/2+x,1/2-y,1/2+z
loop_
_atom_site_type_symbol
_atom_site_label
_atom_site_fract_x
_atom_site_fract_y
_atom_site_fract_z
Si Si1 0.712283 0.130419 0.926439
Si Si2 0.261299 0.537037 0.270583
Si Si3 0.500000 0.461628 0.250000
Si Si4 0.421992 0.277956 0.161335
Si Si5 0.735202 0.331033 0.840567
Si Si6 0.998993 0.440812 0.382281
O O1 0.783164 0.172846 0.773556
O O2 0.565045 0.096145 0.957635
O O3 0.851794 0.082794 0.873611
O O4 0.682034 0.164076 0.074681
O O5 0.429658 0.502442 0.184432
O O6 0.280658 0.602757 0.203529
O O7 0.127102 0.495794 0.286259
O O8 0.179724 0.540764 0.460578
O O9 0.500000 0.276685 0.250000
O O10 0.340422 0.214141 0.189991
O O11 0.560322 0.300654 0.980084
O O12 0.000000 0.408452 0.250000
#
# Coordination Sequence:
#
# PCOD9275906 Si02
#       6
#     8   8   4   8   8   8
#     4  10  20  39  65  95 130 164 214 268 324 381
#     4  10  25  38  65  93 131 172 212 264 324 384
#     4  10  20  42  60  94 128 170 216 250 326 386
#     4  10  21  37  61  99 124 165 211 272 323 364
#     4  11  23  38  65  99 128 163 218 270 326 375
#     4  10  24  40  59  95 131 171 208 260 328 394
#
# _framework density 22.231746000000001
#
# number of rings (size 3 to 8) (size 9 to 14) (size 15 to 20)
#    0.000    1.818    2.727    2.182   12.727    2.182 
#    0.000    0.000    2.000    2.182    0.000    0.000 
#    0.000    0.000    0.000    0.000    0.000    0.000 
#
# Total GULP energy -122872.402616 kJ/mol
# GULP energy per Si atom -5585.109210 kJ/mol
# Density = 2.218115 g / cm^3
# Si number density = 22.231746 Si / 1000 Ang^3
#
#
#
# Elastic Constant Matrix: (Units=GPa)
#
#
# Indices 1 2 3 4 5 6 
#
# 1 46.1172 26.2986 27.5923 0.0000 -6.1015 0.0000
# 2 26.2986 144.5997 41.3457 0.0000 -17.4928 0.0000
# 3 27.5923 41.3457 82.6321 0.0000 0.6550 0.0000
# 4 0.0000 0.0000 0.0000 29.1798 0.0000 0.8161
# 5 -6.1015 -17.4928 0.6550 0.0000 20.1834 0.0000
# 6 0.0000 0.0000 0.0000 0.8161 0.0000 23.2236
#
#
#
# Elastic Compliance Matrix: (Units=1/GPa)
#
#
# Indices 1 2 3 4 5 6 
#
# 1 0.029000 -0.001853 -0.008816 0.000000 0.007447 0.000000
# 2 -0.001853 0.009363 -0.004127 0.000000 0.007688 0.000000
# 3 -0.008816 -0.004127 0.017164 0.000000 -0.006799 0.000000
# 4 0.000000 0.000000 0.000000 0.034304 0.000000 -0.001205
# 5 0.007447 0.007688 -0.006799 0.000000 0.058681 0.000000
# 6 0.000000 0.000000 0.000000 -0.001205 0.000000 0.043102
#
#
# Mechanical properties :
#
#
# Convention : Reuss Voigt Hill
#
# Bulk Modulus (GPa) = 38.55564 51.53580 45.04572
# Shear Modulus (GPa) = 21.75324 26.39153 24.07238
#
# Velocity S-wave (km/s) = 3.13145 3.44918 3.29415
# Velocity P-wave (km/s) = 5.51860 6.25252 5.89699
#
# Compressibility (1/GPa) = 0.02593654
#
# Stress axis : x y z
#
# Youngs Moduli (GPa) = 34.48251 106.80608 58.26001
#
# Poissons Ratio (x) = 0.19788 0.51360
# Poissons Ratio (y) = 0.06389 0.24044
# Poissons Ratio (z) = 0.30399 0.44079
#
# Static dielectric constant tensor:
#      x y z
#    x 1.822990 0.000000 -0.026340 
#    y 0.000000 1.877990 0.000000 
#    z -0.026340 0.000000 1.856110 
# 
# From -- ./inp_files/88713.got.cif
#   From: 2010.05.17/outbox.cif.g08.bks.cpg/sg15_45_cif.got.tgz:88713.got - 2010.06.03 18:47:42.
