data_PCOD9275109
_publ_section_title
;
Structure prediction by ZEFSAII (Michael W. Deem and Ramdas Pophale) SiO2 
 PCOD9275109
Probable space group: C 2/C
;
_chemical_formula_sum "Si O2"
_cell_formula_units_Z 52
_cell_length_a 5.793815
_cell_length_b 29.015284
_cell_length_c 14.619498
_cell_angle_alpha 90.000000
_cell_angle_beta 86.906696
_cell_angle_gamma 90.000000
_cell_volume 2454.091064
_symmetry_space_group_name_H-M "C 2/C"
_symmetry_group_IT_number 15
_symmetry_cell_setting 'monoclinic'
loop_
_space_group_symop_operation_xyz
x,y,z
-x,y,1/2-z
-x,-y,-z
x,-y,1/2+z
1/2+x,1/2+y,z
1/2-x,1/2+y,1/2-z
1/2-x,1/2-y,-z
1/2+x,1/2-y,1/2+z
loop_
_atom_site_type_symbol
_atom_site_label
_atom_site_fract_x
_atom_site_fract_y
_atom_site_fract_z
Si Si1 0.384097 0.581111 0.494155
Si Si2 0.000000 0.608583 0.250000
Si Si3 0.495136 0.751767 0.054260
Si Si4 0.313641 0.427877 0.332890
Si Si5 0.170347 0.155878 0.393942
Si Si6 0.972519 0.645957 0.573925
Si Si7 0.288178 0.529070 0.328970
O O1 0.554410 0.569857 0.573105
O O2 0.493802 0.615074 0.416748
O O3 0.338632 0.536017 0.435304
O O4 0.181484 0.612246 0.541723
O O5 0.178104 0.641290 0.194771
O O6 0.119824 0.571819 0.314308
O O7 0.459956 0.704526 0.110874
O O8 0.510952 0.801315 0.103056
O O9 0.250000 0.750000 0.000000
O O10 0.750000 0.750000 0.000000
O O11 0.500000 0.422131 0.250000
O O12 0.159296 0.382919 0.346577
O O13 0.192492 0.477222 0.320623
O O14 0.328959 0.153380 0.482358
O O15 0.500000 0.532200 0.250000
#
# Coordination Sequence:
#
# PCOD9275109 Si02
#       7
#     8   4   8   8   8   8   8
#     4  11  20  39  66  88 125 167 220 268 331 400
#     4  12  22  38  64  94 138 166 218 280 338 404
#     4  10  20  38  68  98 133 175 223 273 339 405
#     4  10  25  42  59  89 127 169 224 278 335 396
#     4  10  21  37  61  99 129 168 216 270 333 401
#     4  10  21  39  65  89 127 171 216 271 327 404
#     4  11  23  39  62  93 129 169 213 273 339 402
#
# _framework density 21.189108000000001
#
# number of rings (size 3 to 8) (size 9 to 14) (size 15 to 20)
#    0.000    1.538    4.615    0.462    0.000    3.692 
#    1.385    0.000    0.000    1.846    0.000    0.000 
#    0.000    0.000    0.000    0.000    0.000    0.000 
#
# Total GULP energy -144838.697864 kJ/mol
# GULP energy per Si atom -5570.719149 kJ/mol
# Density = 2.114088 g / cm^3
# Si number density = 21.189108 Si / 1000 Ang^3
#
#
#
# Elastic Constant Matrix: (Units=GPa)
#
#
# Indices 1 2 3 4 5 6 
#
# 1 65.7167 46.1746 20.0283 0.0000 -10.2616 0.0000
# 2 46.1746 197.1949 60.6697 0.0000 -36.0506 0.0000
# 3 20.0283 60.6697 87.6200 0.0000 -22.2211 0.0000
# 4 0.0000 0.0000 0.0000 19.0752 0.0000 38.6277
# 5 -10.2616 -36.0506 -22.2211 0.0000 38.6252 0.0000
# 6 0.0000 0.0000 0.0000 38.6277 0.0000 -155.0766
#
#
#
# Elastic Compliance Matrix: (Units=1/GPa)
#
#
# Indices 1 2 3 4 5 6 
#
# 1 0.018387 -0.003756 -0.001466 0.000000 0.000535 0.000000
# 2 -0.003756 0.007798 -0.003452 0.000000 0.004294 0.000000
# 3 -0.001466 -0.003452 0.015481 0.000000 0.005295 0.000000
# 4 0.000000 0.000000 0.000000 0.034847 0.000000 0.008680
# 5 0.000535 0.004294 0.005295 0.000000 0.033086 0.000000
# 6 0.000000 0.000000 0.000000 0.008680 0.000000 -0.004286
#
#
# Mechanical properties :
#
#
# Convention : Reuss Voigt Hill
#
# Bulk Modulus (GPa) = 41.12338 67.14187 54.13263
# Shear Modulus (GPa) = 38.23624 -4.56463 16.83580
#
# Velocity S-wave (km/s) = 4.25258 -1.46932 2.82183
# Velocity P-wave (km/s) = 6.60019 5.37375 6.01829
#
# Compressibility (1/GPa) = 0.02431707
#
# Stress axis : x y z
#
# Youngs Moduli (GPa) = 54.38742 128.24270 64.59598
#
# Poissons Ratio (x) = 0.48174 0.09470
# Poissons Ratio (y) = 0.20430 0.22296
# Poissons Ratio (z) = 0.07973 0.44264
#
# Static dielectric constant tensor:
#      x y z
#    x 1.896210 0.000000 0.125690 
#    y 0.000000 1.776460 0.000000 
#    z 0.125690 0.000000 1.647690 
# 
# From -- ./inp_files/130703.got.cif
#   From: 2010.05.17/outbox.cif.g08.bks.cpg/sg15_66_cif.got.tgz:130703.got - 2010.06.03 18:47:42.
