data_PCOD9275169
_publ_section_title
;
Structure prediction by ZEFSAII (Michael W. Deem and Ramdas Pophale) SiO2 
 PCOD9275169
Probable space group: C 2/C
;
_chemical_formula_sum "Si O2"
_cell_formula_units_Z 32
_cell_length_a 10.405998
_cell_length_b 8.191094
_cell_length_c 30.328660
_cell_angle_alpha 90.000000
_cell_angle_beta 149.366619
_cell_angle_gamma 90.000000
_cell_volume 1317.223723
_symmetry_space_group_name_H-M "C 2/C"
_symmetry_group_IT_number 15
_symmetry_cell_setting 'monoclinic'
loop_
_space_group_symop_operation_xyz
x,y,z
-x,y,1/2-z
-x,-y,-z
x,-y,1/2+z
1/2+x,1/2+y,z
1/2-x,1/2+y,1/2-z
1/2-x,1/2-y,-z
1/2+x,1/2-y,1/2+z
loop_
_atom_site_type_symbol
_atom_site_label
_atom_site_fract_x
_atom_site_fract_y
_atom_site_fract_z
Si Si1 0.250000 0.250000 0.500000
Si Si2 0.283656 0.336408 0.109336
Si Si3 0.000000 0.383781 0.750000
Si Si4 0.741751 0.288184 0.913477
Si Si5 0.537414 0.412704 0.100868
O O1 0.436008 0.216222 0.601879
O O2 0.352518 0.445610 0.530455
O O3 0.415418 0.227478 0.184185
O O4 0.312042 0.532297 0.120640
O O5 0.386232 0.300098 0.090612
O O6 0.979001 0.304356 0.020050
O O7 0.228682 0.503986 0.804873
O O8 0.836840 0.176904 0.903020
#
# Coordination Sequence:
#
# PCOD9275169 Si02
#       5
#     4   8   4   8   8
#     4  10  20  38  70  96 124 168 220 266 316 400
#     4  10  24  43  64  97 130 171 219 274 324 397
#     4  12  26  42  60 102 136 162 214 282 338 382
#     4  10  21  44  69  94 127 176 225 263 324 401
#     4  11  24  42  68  96 128 176 217 273 333 395
#
# _framework density 24.293517999999999
#
# number of rings (size 3 to 8) (size 9 to 14) (size 15 to 20)
#    0.000    1.500    2.500    1.500    0.000    7.000 
#    0.000    0.000    0.000    0.000    0.000    0.000 
#    0.000    0.000    0.000    0.000    0.000    0.000 
#
# Total GULP energy -89120.250406 kJ/mol
# GULP energy per Si atom -5570.015650 kJ/mol
# Density = 2.423822 g / cm^3
# Si number density = 24.293518 Si / 1000 Ang^3
#
#
#
# Elastic Constant Matrix: (Units=GPa)
#
#
# Indices 1 2 3 4 5 6 
#
# 1 158.1304 45.2538 19.1448 0.0000 -26.3264 0.0000
# 2 45.2538 63.5293 27.6552 0.0000 -15.6216 0.0000
# 3 19.1448 27.6552 60.1700 0.0001 7.7747 0.0000
# 4 0.0000 0.0000 0.0001 37.4352 0.0000 -11.2670
# 5 -26.3264 -15.6216 7.7747 0.0000 37.8054 0.0000
# 6 0.0000 0.0000 0.0000 -11.2670 0.0000 53.7770
#
#
#
# Elastic Compliance Matrix: (Units=1/GPa)
#
#
# Indices 1 2 3 4 5 6 
#
# 1 0.008457 -0.004442 -0.001205 0.000000 0.004302 0.000000
# 2 -0.004442 0.026839 -0.012282 0.000000 0.010523 0.000000
# 3 -0.001205 -0.012282 0.024051 0.000000 -0.010860 0.000000
# 4 0.000000 0.000000 0.000000 0.028511 0.000000 0.005973
# 5 0.004302 0.010523 -0.010860 0.000000 0.036028 0.000000
# 6 0.000000 0.000000 0.000000 0.005973 0.000000 0.019847
#
#
# Mechanical properties :
#
#
# Convention : Reuss Voigt Hill
#
# Bulk Modulus (GPa) = 42.57250 51.77083 47.17167
# Shear Modulus (GPa) = 26.67793 38.45524 32.56659
#
# Velocity S-wave (km/s) = 3.31743 3.98294 3.66532
# Velocity P-wave (km/s) = 5.67768 6.51986 6.11329
#
# Compressibility (1/GPa) = 0.02348934
#
# Stress axis : x y z
#
# Youngs Moduli (GPa) = 118.24324 37.25942 41.57779
#
# Poissons Ratio (x) = 0.16550 0.05011
# Poissons Ratio (y) = 0.52522 0.51066
# Poissons Ratio (z) = 0.14250 0.45762
#
# Static dielectric constant tensor:
#      x y z
#    x 2.312490 0.000000 0.045980 
#    y 0.000000 1.907040 0.000000 
#    z 0.045980 0.000000 2.045950 
# 
# From -- ./inp_files/140594.got.cif
#   From: 2010.05.17/outbox.cif.g08.bks.cpg/sg15_71_cif.got.tgz:140594.got - 2010.06.03 18:47:42.
