data_PCOD9275361
_publ_section_title
;
Structure prediction by ZEFSAII (Michael W. Deem and Ramdas Pophale) SiO2 
 PCOD9275361
Probable space group: C 2/C
;
_chemical_formula_sum "Si O2"
_cell_formula_units_Z 64
_cell_length_a 16.839554
_cell_length_b 22.561517
_cell_length_c 14.454463
_cell_angle_alpha 90.000000
_cell_angle_beta 144.407706
_cell_angle_gamma 90.000000
_cell_volume 3196.200259
_symmetry_space_group_name_H-M "C 2/C"
_symmetry_group_IT_number 15
_symmetry_cell_setting 'monoclinic'
loop_
_space_group_symop_operation_xyz
x,y,z
-x,y,1/2-z
-x,-y,-z
x,-y,1/2+z
1/2+x,1/2+y,z
1/2-x,1/2+y,1/2-z
1/2-x,1/2-y,-z
1/2+x,1/2-y,1/2+z
loop_
_atom_site_type_symbol
_atom_site_label
_atom_site_fract_x
_atom_site_fract_y
_atom_site_fract_z
Si Si1 0.630631 0.581535 0.095858
Si Si2 0.637771 0.609335 0.426903
Si Si3 0.408271 0.146554 0.885036
Si Si4 0.395679 0.794228 0.565065
Si Si5 0.693519 0.144647 0.089515
Si Si6 0.855501 0.159687 0.564575
Si Si7 0.180826 0.946955 0.155729
Si Si8 0.282369 0.275341 0.428343
O O1 0.691714 0.624975 0.230157
O O2 0.690352 0.516991 0.177525
O O3 0.670753 0.608478 0.034725
O O4 0.466818 0.574669 0.947364
O O5 0.500000 0.587926 0.250000
O O6 0.751680 0.624121 0.458628
O O7 0.683090 0.564317 0.547642
O O8 0.609288 0.672347 0.451433
O O9 0.299858 0.095014 0.805317
O O10 0.336127 0.191248 0.742222
O O11 0.444596 0.179802 0.014464
O O12 0.544851 0.119597 0.970919
O O13 0.500000 0.798847 0.750000
O O14 0.261252 0.829593 0.470181
O O15 0.364334 0.724336 0.523708
O O16 0.674041 0.215564 0.080153
O O17 0.000000 0.148554 0.750000
O O18 0.250000 0.250000 0.500000
#
# Coordination Sequence:
#
# PCOD9275361 Si02
#       8
#     8   8   8   8   8   8   8   8
#     4  11  22  42  63  90 116 166 216 264 315 376
#     4  10  20  39  60  90 128 159 201 254 313 380
#     4  11  23  40  62  93 131 165 209 266 317 375
#     4  10  21  38  60  92 130 159 200 262 316 379
#     4  11  23  37  65  89 125 164 207 250 320 382
#     4  10  21  37  62  90 120 158 208 254 313 376
#     4  10  24  41  62  87 125 159 217 266 310 377
#     4   9  22  34  60  94 129 162 199 249 313 392
#
# _framework density 20.023776999999999
#
# number of rings (size 3 to 8) (size 9 to 14) (size 15 to 20)
#    0.000    1.750    1.250    2.250    3.500    9.000 
#    2.250    0.000    2.750    0.000    0.000    0.000 
#    0.000    0.000    0.000    0.000    0.000    0.000 
#
# Total GULP energy -178556.632033 kJ/mol
# GULP energy per Si atom -5579.894751 kJ/mol
# Density = 1.997820 g / cm^3
# Si number density = 20.023777 Si / 1000 Ang^3
#
#
#
# Elastic Constant Matrix: (Units=GPa)
#
#
# Indices 1 2 3 4 5 6 
#
# 1 73.9019 22.4983 12.1109 0.0000 0.3421 0.0000
# 2 22.4983 52.7258 9.2387 0.0000 -0.3791 0.0000
# 3 12.1109 9.2387 44.9662 0.0000 -2.8773 0.0000
# 4 0.0000 0.0000 0.0000 11.9981 0.0000 3.6018
# 5 0.3421 -0.3791 -2.8773 0.0000 32.5690 0.0000
# 6 0.0000 0.0000 0.0000 3.6018 0.0000 18.5925
#
#
#
# Elastic Compliance Matrix: (Units=1/GPa)
#
#
# Indices 1 2 3 4 5 6 
#
# 1 0.015941 -0.006274 -0.003037 0.000000 -0.000509 0.000000
# 2 -0.006274 0.022144 -0.002855 0.000000 0.000071 0.000000
# 3 -0.003037 -0.002855 0.023778 0.000000 0.002099 0.000000
# 4 0.000000 0.000000 0.000000 0.088492 0.000000 -0.017143
# 5 -0.000509 0.000071 0.002099 0.000000 0.030896 0.000000
# 6 0.000000 0.000000 0.000000 -0.017143 0.000000 0.057106
#
#
# Mechanical properties :
#
#
# Convention : Reuss Voigt Hill
#
# Bulk Modulus (GPa) = 26.64476 28.80994 27.72735
# Shear Modulus (GPa) = 18.16860 21.14834 19.65847
#
# Velocity S-wave (km/s) = 3.01550 3.25339 3.13670
# Velocity P-wave (km/s) = 5.04576 5.34152 5.19575
#
# Compressibility (1/GPa) = 0.03753083
#
# Stress axis : x y z
#
# Youngs Moduli (GPa) = 62.72943 45.15913 42.05585
#
# Poissons Ratio (x) = 0.28332 0.12773
# Poissons Ratio (y) = 0.39355 0.12008
# Poissons Ratio (z) = 0.19052 0.12894
#
# Static dielectric constant tensor:
#      x y z
#    x 1.776670 0.000000 -0.002560 
#    y 0.000000 1.721390 0.000000 
#    z -0.002560 0.000000 1.705490 
# 
# From -- ./inp_files/164277.got.cif
#   From: 2010.05.17/outbox.cif.g08.bks.cpg/sg15_83_cif.got.tgz:164277.got - 2010.06.03 18:47:42.
