data_PCOD9275554
_publ_section_title
;
Structure prediction by ZEFSAII (Michael W. Deem and Ramdas Pophale) SiO2 
 PCOD9275554
Probable space group: C 2/C
;
_chemical_formula_sum "Si O2"
_cell_formula_units_Z 52
_cell_length_a 22.522707
_cell_length_b 8.508091
_cell_length_c 12.109879
_cell_angle_alpha 90.000000
_cell_angle_beta 73.909392
_cell_angle_gamma 90.000000
_cell_volume 2229.649670
_symmetry_space_group_name_H-M "C 2/C"
_symmetry_group_IT_number 15
_symmetry_cell_setting 'monoclinic'
loop_
_space_group_symop_operation_xyz
x,y,z
-x,y,1/2-z
-x,-y,-z
x,-y,1/2+z
1/2+x,1/2+y,z
1/2-x,1/2+y,1/2-z
1/2-x,1/2-y,-z
1/2+x,1/2-y,1/2+z
loop_
_atom_site_type_symbol
_atom_site_label
_atom_site_fract_x
_atom_site_fract_y
_atom_site_fract_z
Si Si1 0.185714 0.804579 0.588668
Si Si2 0.356255 0.731750 0.732371
Si Si3 0.752696 0.124664 0.903918
Si Si4 0.572165 0.242067 0.074107
Si Si5 0.000000 0.980215 0.250000
Si Si6 0.122308 0.441083 0.972209
Si Si7 0.611783 0.616845 0.321261
O O1 0.250000 0.750000 0.500000
O O2 0.135938 0.708871 0.542945
O O3 0.162532 0.783630 0.726871
O O4 0.197131 0.991837 0.586133
O O5 0.282241 0.720602 0.786230
O O6 0.384431 0.748718 0.839950
O O7 0.384989 0.868687 0.644772
O O8 0.368907 0.563795 0.670507
O O9 0.686715 0.040123 0.930640
O O10 0.750000 0.250000 0.000000
O O11 0.517821 0.358956 0.141932
O O12 0.596434 0.311140 0.946499
O O13 0.569774 0.056113 0.046733
O O14 0.945726 0.090540 0.232561
#
# Coordination Sequence:
#
# PCOD9275554 Si02
#       7
#     8   8   8   8   4   8   8
#     4   9  22  42  66 107 143 186 235 288 359 437
#     4  10  24  40  63  99 138 182 235 290 354 433
#     4  10  20  39  62  95 138 188 235 281 346 425
#     4  11  24  45  70 101 135 178 241 300 367 427
#     4  10  24  48  74 106 132 182 256 310 364 430
#     4  11  24  38  66  95 147 181 229 294 365 430
#     4  10  23  44  78  97 138 187 239 302 360 439
#
# _framework density 23.322047999999999
#
# number of rings (size 3 to 8) (size 9 to 14) (size 15 to 20)
#    0.000    1.846    1.538    0.462    8.615    4.923 
#    0.000    3.846    0.000    0.000    0.000    0.000 
#    0.000    0.000    0.000    0.000    0.000    0.000 
#
# Total GULP energy -144900.281961 kJ/mol
# GULP energy per Si atom -5573.087768 kJ/mol
# Density = 2.326897 g / cm^3
# Si number density = 23.322048 Si / 1000 Ang^3
#
#
#
# Elastic Constant Matrix: (Units=GPa)
#
#
# Indices 1 2 3 4 5 6 
#
# 1 54.3167 12.2892 18.6216 0.0000 2.3462 0.0000
# 2 12.2892 68.4707 57.9464 0.0000 5.0545 0.0000
# 3 18.6216 57.9464 152.1404 0.0000 -11.3265 0.0000
# 4 0.0000 0.0000 0.0000 61.2277 0.0000 -2.9380
# 5 2.3462 5.0545 -11.3265 0.0000 16.9695 0.0000
# 6 0.0000 0.0000 0.0000 -2.9380 0.0000 34.5183
#
#
#
# Elastic Compliance Matrix: (Units=1/GPa)
#
#
# Indices 1 2 3 4 5 6 
#
# 1 0.019627 -0.001451 -0.002125 0.000000 -0.003700 0.000000
# 2 -0.001451 0.024523 -0.010198 0.000000 -0.013910 0.000000
# 3 -0.002125 -0.010198 0.011539 0.000000 0.011033 0.000000
# 4 0.000000 0.000000 0.000000 0.016399 0.000000 0.001396
# 5 -0.003700 -0.013910 0.011033 0.000000 0.070948 0.000000
# 6 0.000000 0.000000 0.000000 0.001396 0.000000 0.029089
#
#
# Mechanical properties :
#
#
# Convention : Reuss Voigt Hill
#
# Bulk Modulus (GPa) = 35.53671 50.29356 42.91514
# Shear Modulus (GPa) = 23.91734 34.94781 29.43257
#
# Velocity S-wave (km/s) = 3.20586 3.87523 3.55633
# Velocity P-wave (km/s) = 5.38273 6.45251 5.94174
#
# Compressibility (1/GPa) = 0.02813991
#
# Stress axis : x y z
#
# Youngs Moduli (GPa) = 50.94963 40.77858 86.66617
#
# Poissons Ratio (x) = 0.05918 0.18417
# Poissons Ratio (y) = 0.07394 0.88383
# Poissons Ratio (z) = 0.10827 0.41586
#
# Static dielectric constant tensor:
#      x y z
#    x 1.977220 0.000000 -0.042680 
#    y 0.000000 1.883360 0.000000 
#    z -0.042680 0.000000 1.952740 
# 
# From -- ./inp_files/121421.got.cif
#   From: 2010.05.17/outbox.cif.g08.bks.cpg/sg15_61_cif.got.tgz:121421.got - 2010.06.03 18:47:42.
