data_PCOD9275290
_publ_section_title
;
Structure prediction by ZEFSAII (Michael W. Deem and Ramdas Pophale) SiO2 
 PCOD9275290
Probable space group: C 2/C
;
_chemical_formula_sum "Si O2"
_cell_formula_units_Z 64
_cell_length_a 16.671610
_cell_length_b 17.838087
_cell_length_c 15.775627
_cell_angle_alpha 90.000000
_cell_angle_beta 140.677885
_cell_angle_gamma 90.000000
_cell_volume 2972.912418
_symmetry_space_group_name_H-M "C 2/C"
_symmetry_group_IT_number 15
_symmetry_cell_setting 'monoclinic'
loop_
_space_group_symop_operation_xyz
x,y,z
-x,y,1/2-z
-x,-y,-z
x,-y,1/2+z
1/2+x,1/2+y,z
1/2-x,1/2+y,1/2-z
1/2-x,1/2-y,-z
1/2+x,1/2-y,1/2+z
loop_
_atom_site_type_symbol
_atom_site_label
_atom_site_fract_x
_atom_site_fract_y
_atom_site_fract_z
Si Si1 0.655853 0.037188 0.559725
Si Si2 0.763276 0.100949 0.474741
Si Si3 0.448308 0.715225 0.561384
Si Si4 0.677122 0.409003 0.840923
Si Si5 0.204305 0.215880 0.236863
Si Si6 0.080675 0.043526 0.438585
Si Si7 0.429266 0.129870 0.325355
Si Si8 0.825366 0.126997 0.821517
O O1 0.725911 0.077670 0.537759
O O2 0.511383 0.063937 0.434330
O O3 0.723954 0.071384 0.697160
O O4 0.691923 0.950754 0.573748
O O5 0.839595 0.177831 0.528373
O O6 0.639444 0.102912 0.315316
O O7 0.855941 0.037689 0.511675
O O8 0.397482 0.719259 0.422570
O O9 0.481153 0.798479 0.617367
O O10 0.572353 0.662481 0.660059
O O11 0.662120 0.328554 0.785505
O O12 0.566468 0.458896 0.706595
O O13 0.648466 0.411279 0.917150
O O14 0.318872 0.165598 0.292877
O O15 0.252569 0.299085 0.294704
O O16 0.102463 0.083951 0.544986
#
# Coordination Sequence:
#
# PCOD9275290 Si02
#       8
#     8   8   8   8   8   8   8   8
#     4  11  23  39  59  92 121 162 200 249 301 359
#     4  10  23  41  59  88 126 160 210 245 299 368
#     4  10  20  39  59  89 120 161 201 247 303 355
#     4  10  22  41  67  87 120 154 206 256 302 358
#     4  10  21  40  61  91 121 157 202 250 298 370
#     4  10  22  41  65  93 112 158 207 258 305 354
#     4  10  22  40  59  86 126 167 197 241 298 366
#     4  11  22  37  64  88 124 152 199 257 306 356
#
# _framework density 21.527709999999999
#
# number of rings (size 3 to 8) (size 9 to 14) (size 15 to 20)
#    0.000    1.750    2.500    1.125    3.500    4.000 
#    4.500    0.000    0.000    0.000    0.000    0.000 
#    0.000    0.000    0.000    0.000    0.000    0.000 
#
# Total GULP energy -178972.069475 kJ/mol
# GULP energy per Si atom -5592.877171 kJ/mol
# Density = 2.147871 g / cm^3
# Si number density = 21.527710 Si / 1000 Ang^3
#
#
#
# Elastic Constant Matrix: (Units=GPa)
#
#
# Indices 1 2 3 4 5 6 
#
# 1 25.3196 10.5740 3.8440 -0.0001 0.5788 -0.0001
# 2 10.5740 29.3656 0.6868 -0.0001 -8.4296 -0.0001
# 3 3.8440 0.6868 72.8162 -0.0001 -1.4188 -0.0001
# 4 -0.0001 -0.0001 -0.0001 31.1667 -0.0001 6.0878
# 5 0.5788 -8.4296 -1.4188 -0.0001 30.4261 -0.0001
# 6 -0.0001 -0.0001 -0.0001 6.0878 -0.0001 34.4809
#
#
#
# Elastic Compliance Matrix: (Units=1/GPa)
#
#
# Indices 1 2 3 4 5 6 
#
# 1 0.047957 -0.019018 -0.002475 0.000000 -0.006297 0.000000
# 2 -0.019018 0.044539 0.000832 0.000000 0.012740 0.000000
# 3 -0.002475 0.000832 0.013874 0.000000 0.000925 0.000000
# 4 0.000000 0.000000 0.000000 0.033232 0.000000 -0.005867
# 5 -0.006297 0.012740 0.000925 0.000000 0.036559 0.000000
# 6 0.000000 0.000000 0.000000 -0.005867 0.000000 0.030037
#
#
# Mechanical properties :
#
#
# Convention : Reuss Voigt Hill
#
# Bulk Modulus (GPa) = 15.37317 17.52346 16.44832
# Shear Modulus (GPa) = 18.57333 26.70785 22.64059
#
# Velocity S-wave (km/s) = 2.94047 3.52607 3.24650
# Velocity P-wave (km/s) = 4.32263 4.97345 4.65942
#
# Compressibility (1/GPa) = 0.06504840
#
# Stress axis : x y z
#
# Youngs Moduli (GPa) = 20.85196 22.45214 72.07715
#
# Poissons Ratio (x) = 0.42700 0.17839
# Poissons Ratio (y) = 0.39656 -0.05998
# Poissons Ratio (z) = 0.05161 -0.01868
#
# Static dielectric constant tensor:
#      x y z
#    x 1.816320 0.000000 0.028420 
#    y 0.000000 1.779750 0.000000 
#    z 0.028420 0.000000 1.759770 
# 
# From -- ./inp_files/163305.got.cif
#   From: 2010.05.17/outbox.cif.g08.bks.cpg/sg15_82_cif.got.tgz:163305.got - 2010.06.03 18:47:42.
