data_PCOD9275004
_publ_section_title
;
Structure prediction by ZEFSAII (Michael W. Deem and Ramdas Pophale) SiO2 
 PCOD9275004
Probable space group: C 2/C
;
_chemical_formula_sum "Si O2"
_cell_formula_units_Z 40
_cell_length_a 7.548419
_cell_length_b 13.686241
_cell_length_c 18.735024
_cell_angle_alpha 90.000000
_cell_angle_beta 123.771760
_cell_angle_gamma 90.000000
_cell_volume 1608.905604
_symmetry_space_group_name_H-M "C 2/C"
_symmetry_group_IT_number 15
_symmetry_cell_setting 'monoclinic'
loop_
_space_group_symop_operation_xyz
x,y,z
-x,y,1/2-z
-x,-y,-z
x,-y,1/2+z
1/2+x,1/2+y,z
1/2-x,1/2+y,1/2-z
1/2-x,1/2-y,-z
1/2+x,1/2-y,1/2+z
loop_
_atom_site_type_symbol
_atom_site_label
_atom_site_fract_x
_atom_site_fract_y
_atom_site_fract_z
Si Si1 0.239598 0.215398 0.272754
Si Si2 0.381843 0.116139 0.538854
Si Si3 0.405896 0.620234 0.400664
Si Si4 0.097443 0.618426 0.451311
Si Si5 0.281175 0.085912 0.670780
O O1 0.224998 0.177339 0.188771
O O2 0.408419 0.157302 0.358653
O O3 0.296005 0.330093 0.293328
O O4 0.000000 0.200507 0.250000
O O5 0.561618 0.152060 0.524701
O O6 0.353251 0.142501 0.614891
O O7 0.155102 0.141071 0.453113
O O8 0.411804 0.999207 0.549984
O O9 0.315136 0.641209 0.459136
O O10 0.373509 0.503843 0.379413
O O11 0.500000 0.041272 0.750000
#
# Coordination Sequence:
#
# PCOD9275004 Si02
#       5
#     8   8   8   8   8
#     4  11  22  40  64  94 130 173 208 258 322 382
#     4  10  21  40  70  96 122 170 215 262 323 381
#     4  11  21  43  71  91 130 170 213 266 317 381
#     4  10  20  38  67  95 126 163 211 260 323 368
#     4  10  22  40  66  95 127 172 212 259 327 381
#
# _framework density 24.861619999999998
#
# number of rings (size 3 to 8) (size 9 to 14) (size 15 to 20)
#    0.000    1.600    2.000    5.400    0.000    0.800 
#    0.000    6.000   30.800    0.000    0.000    0.000 
#    0.000    0.000    0.000    0.000    0.000    0.000 
#
# Total GULP energy -111946.945102 kJ/mol
# GULP energy per Si atom -5597.347255 kJ/mol
# Density = 2.480503 g / cm^3
# Si number density = 24.861620 Si / 1000 Ang^3
#
#
#
# Elastic Constant Matrix: (Units=GPa)
#
#
# Indices 1 2 3 4 5 6 
#
# 1 73.0856 42.5503 6.5424 0.0000 -19.1924 0.0000
# 2 42.5503 115.8939 21.3276 0.0000 -10.7504 0.0000
# 3 6.5424 21.3276 83.5248 0.0000 -18.5289 0.0000
# 4 0.0000 0.0000 0.0000 28.0440 0.0000 2.8169
# 5 -19.1924 -10.7504 -18.5289 0.0000 46.5524 0.0000
# 6 0.0000 0.0000 0.0000 2.8169 0.0000 20.2588
#
#
#
# Elastic Compliance Matrix: (Units=1/GPa)
#
#
# Indices 1 2 3 4 5 6 
#
# 1 0.019332 -0.006767 0.001793 0.000000 0.007121 0.000000
# 2 -0.006767 0.011493 -0.002671 0.000000 -0.001199 0.000000
# 3 0.001793 -0.002671 0.013756 0.000000 0.005598 0.000000
# 4 0.000000 0.000000 0.000000 0.036163 0.000000 -0.005028
# 5 0.007121 -0.001199 0.005598 0.000000 0.026368 0.000000
# 6 0.000000 0.000000 0.000000 -0.005028 0.000000 0.050061
#
#
# Mechanical properties :
#
#
# Convention : Reuss Voigt Hill
#
# Bulk Modulus (GPa) = 34.13866 45.92723 40.03295
# Shear Modulus (GPa) = 27.43846 32.44330 29.94088
#
# Velocity S-wave (km/s) = 3.32572 3.61634 3.47407
# Velocity P-wave (km/s) = 5.33934 5.99587 5.67710
#
# Compressibility (1/GPa) = 0.02929230
#
# Stress axis : x y z
#
# Youngs Moduli (GPa) = 51.72798 87.00633 72.69698
#
# Poissons Ratio (x) = 0.58879 -0.13038
# Poissons Ratio (y) = 0.35005 0.19415
# Poissons Ratio (z) = -0.09277 0.23236
#
# Static dielectric constant tensor:
#      x y z
#    x 1.977380 0.000000 -0.036980 
#    y 0.000000 1.981030 0.000000 
#    z -0.036980 0.000000 1.956910 
# 
# From -- ./inp_files/189060.got.cif
#   From: 2010.05.17/outbox.cif.g08.bks.cpg/sg15_95_cif.got.tgz:189060.got - 2010.06.03 18:47:42.
