data_PCOD9275016
_publ_section_title
;
Structure prediction by ZEFSAII (Michael W. Deem and Ramdas Pophale) SiO2 
 PCOD9275016
Probable space group: C 2/C
;
_chemical_formula_sum "Si O2"
_cell_formula_units_Z 64
_cell_length_a 11.748113
_cell_length_b 20.459671
_cell_length_c 26.063884
_cell_angle_alpha 90.000000
_cell_angle_beta 151.493634
_cell_angle_gamma 90.000000
_cell_volume 2989.906839
_symmetry_space_group_name_H-M "C 2/C"
_symmetry_group_IT_number 15
_symmetry_cell_setting 'monoclinic'
loop_
_space_group_symop_operation_xyz
x,y,z
-x,y,1/2-z
-x,-y,-z
x,-y,1/2+z
1/2+x,1/2+y,z
1/2-x,1/2+y,1/2-z
1/2-x,1/2-y,-z
1/2+x,1/2-y,1/2+z
loop_
_atom_site_type_symbol
_atom_site_label
_atom_site_fract_x
_atom_site_fract_y
_atom_site_fract_z
Si Si1 0.580504 0.777191 0.389236
Si Si2 0.144405 0.249680 0.606378
Si Si3 0.953138 0.071099 0.145541
Si Si4 0.885913 0.056426 0.557305
Si Si5 0.632923 0.902601 0.614326
Si Si6 0.785772 0.175812 0.310652
Si Si7 0.736894 0.347575 0.578774
Si Si8 0.130213 0.624469 0.750717
O O1 0.750000 0.750000 0.500000
O O2 0.707434 0.751400 0.387746
O O3 0.328458 0.750365 0.311560
O O4 0.550791 0.854422 0.365559
O O5 0.153161 0.323779 0.628742
O O6 0.270674 0.195241 0.691434
O O7 0.885567 0.216733 0.494658
O O8 0.192103 0.061371 0.275559
O O9 0.016100 0.138151 0.142906
O O10 0.737152 0.078356 0.099964
O O11 0.907521 0.018507 0.082989
O O12 0.643606 0.080827 0.488212
O O13 0.857594 0.087933 0.488624
O O14 0.140847 0.084980 0.675865
O O15 0.821357 0.158476 0.384186
O O16 0.522036 0.154002 0.190039
O O17 0.000000 0.596024 0.750000
#
# Coordination Sequence:
#
# PCOD9275016 Si02
#       8
#     8   8   8   8   8   8   8   8
#     4  11  20  37  60  97 133 171 206 265 337 400
#     4  10  20  38  67  97 128 164 216 267 343 399
#     4  11  24  43  66  94 128 177 228 270 322 401
#     4  11  24  45  64  93 129 176 231 274 324 381
#     4  11  23  42  69  96 125 177 221 280 336 392
#     4  11  21  40  64  97 136 170 215 264 336 403
#     4  10  23  39  65 100 132 169 214 276 332 403
#     4   9  22  39  64  97 136 172 218 274 332 409
#
# _framework density 21.405349999999999
#
# number of rings (size 3 to 8) (size 9 to 14) (size 15 to 20)
#    0.000    1.500    3.750    1.125    5.250    1.500 
#    4.500    1.250    0.000    0.000    0.000    0.000 
#    0.000    0.000    0.000    0.000    0.000    0.000 
#
# Total GULP energy -178348.839639 kJ/mol
# GULP energy per Si atom -5573.401239 kJ/mol
# Density = 2.135663 g / cm^3
# Si number density = 21.405350 Si / 1000 Ang^3
#
#
#
# Elastic Constant Matrix: (Units=GPa)
#
#
# Indices 1 2 3 4 5 6 
#
# 1 112.8357 16.3060 26.7626 -0.0002 0.8709 0.0011
# 2 16.3060 59.8979 19.1203 0.0005 0.4516 0.0004
# 3 26.7626 19.1203 80.1976 -0.0039 9.5167 0.0039
# 4 -0.0002 0.0005 -0.0039 22.3123 -0.0007 3.5668
# 5 0.8709 0.4516 9.5167 -0.0007 38.6037 0.0019
# 6 0.0011 0.0004 0.0039 3.5668 0.0019 21.3629
#
#
#
# Elastic Compliance Matrix: (Units=1/GPa)
#
#
# Indices 1 2 3 4 5 6 
#
# 1 0.009802 -0.001741 -0.002917 0.000000 0.000518 0.000000
# 2 -0.001741 0.018408 -0.003901 -0.000001 0.000786 0.000001
# 3 -0.002917 -0.003901 0.014792 0.000003 -0.003535 -0.000003
# 4 0.000000 -0.000001 0.000003 0.046047 0.000000 -0.007688
# 5 0.000518 0.000786 -0.003535 0.000000 0.026755 -0.000002
# 6 0.000000 0.000001 -0.000003 -0.007688 -0.000002 0.048094
#
#
# Mechanical properties :
#
#
# Convention : Reuss Voigt Hill
#
# Bulk Modulus (GPa) = 38.63439 41.92324 40.27881
# Shear Modulus (GPa) = 26.36494 29.17193 27.76844
#
# Velocity S-wave (km/s) = 3.51336 3.69566 3.60567
# Velocity P-wave (km/s) = 5.87762 6.15130 6.01602
#
# Compressibility (1/GPa) = 0.02588368
#
# Stress axis : x y z
#
# Youngs Moduli (GPa) = 102.01997 54.32312 67.60253
#
# Poissons Ratio (x) = 0.09458 0.19723
# Poissons Ratio (y) = 0.17762 0.26372
# Poissons Ratio (z) = 0.29764 0.21192
#
# Static dielectric constant tensor:
#      x y z
#    x 1.798180 0.000000 -0.043270 
#    y 0.000000 1.762700 0.000000 
#    z -0.043270 0.000000 1.952560 
# 
# From -- ./inp_files/293776.got.cif
#   From: 2010.05.17/outbox.cif.g08.bks.cpg/sg15_147_cif.got.tgz:293776.got - 2010.06.03 18:47:42.
