data_PCOD9275955
_publ_section_title
;
Structure prediction by ZEFSAII (Michael W. Deem and Ramdas Pophale) SiO2 
 PCOD9275955
Probable space group: C 2/C
;
_chemical_formula_sum "Si O2"
_cell_formula_units_Z 64
_cell_length_a 11.892103
_cell_length_b 20.573568
_cell_length_c 11.588304
_cell_angle_alpha 90.000000
_cell_angle_beta 101.324299
_cell_angle_gamma 90.000000
_cell_volume 2780.031360
_symmetry_space_group_name_H-M "C 2/C"
_symmetry_group_IT_number 15
_symmetry_cell_setting 'monoclinic'
loop_
_space_group_symop_operation_xyz
x,y,z
-x,y,1/2-z
-x,-y,-z
x,-y,1/2+z
1/2+x,1/2+y,z
1/2-x,1/2+y,1/2-z
1/2-x,1/2-y,-z
1/2+x,1/2-y,1/2+z
loop_
_atom_site_type_symbol
_atom_site_label
_atom_site_fract_x
_atom_site_fract_y
_atom_site_fract_z
Si Si1 0.589349 0.945294 0.434978
Si Si2 0.151283 0.426844 0.073944
Si Si3 0.777749 0.009073 0.800885
Si Si4 0.529154 0.599062 0.623847
Si Si5 0.110420 0.684863 0.030911
Si Si6 0.413716 0.756663 0.343904
Si Si7 0.810575 0.875884 0.923370
Si Si8 0.725094 0.296801 0.154672
O O1 0.463851 0.919375 0.371464
O O2 0.689555 0.948372 0.360792
O O3 0.613208 0.892757 0.541003
O O4 0.597233 0.019411 0.476549
O O5 0.246772 0.465474 0.167122
O O6 0.210675 0.374885 0.001300
O O7 0.904852 0.031043 0.860735
O O8 0.772552 0.932658 0.826684
O O9 0.500000 0.614329 0.750000
O O10 0.422394 0.601792 0.518265
O O11 0.624364 0.652752 0.613718
O O12 0.191880 0.698155 0.937768
O O13 0.989493 0.714374 0.963385
O O14 0.163877 0.726355 0.144242
O O15 0.500000 0.746536 0.250000
O O16 0.351746 0.690295 0.371249
O O17 0.310208 0.803425 0.279910
#
# Coordination Sequence:
#
# PCOD9275955 Si02
#       8
#     8   8   8   8   8   8   8   8
#     4  10  22  40  67  91 123 164 219 267 309 377
#     4  10  23  42  63  96 124 167 211 267 324 372
#     4  11  23  39  67  92 124 172 212 259 322 383
#     4  12  23  42  62  91 131 168 210 259 325 397
#     4  10  20  39  66  91 122 164 219 266 312 381
#     4  10  23  40  66  98 128 172 217 266 325 388
#     4  11  24  44  61  95 136 159 213 269 322 393
#     4  10  22  39  61  93 125 166 212 262 317 382
#
# _framework density 23.021322000000001
#
# number of rings (size 3 to 8) (size 9 to 14) (size 15 to 20)
#    0.000    1.500    3.750    0.750    3.500    1.500 
#    4.500    1.250    0.000    0.000    0.000    0.000 
#    0.000    0.000    0.000    0.000    0.000    0.000 
#
# Total GULP energy -178378.670150 kJ/mol
# GULP energy per Si atom -5574.333442 kJ/mol
# Density = 2.296892 g / cm^3
# Si number density = 23.021322 Si / 1000 Ang^3
#
#
#
# Elastic Constant Matrix: (Units=GPa)
#
#
# Indices 1 2 3 4 5 6 
#
# 1 109.3949 20.8695 19.4255 0.0000 10.3799 0.0000
# 2 20.8695 70.0516 -12.8415 0.0000 -5.8179 0.0000
# 3 19.4255 -12.8415 43.0309 0.0000 11.5905 0.0000
# 4 0.0000 0.0000 0.0000 24.7668 0.0000 5.1326
# 5 10.3799 -5.8179 11.5905 0.0000 23.6494 0.0000
# 6 0.0000 0.0000 0.0000 5.1326 0.0000 41.6884
#
#
#
# Elastic Compliance Matrix: (Units=1/GPa)
#
#
# Indices 1 2 3 4 5 6 
#
# 1 0.011355 -0.004693 -0.005614 0.000000 -0.003387 0.000000
# 2 -0.004693 0.017103 0.006376 0.000000 0.003142 0.000000
# 3 -0.005614 0.006376 0.030634 0.000000 -0.010981 0.000000
# 4 0.000000 0.000000 0.000000 0.041434 0.000000 -0.005101
# 5 -0.003387 0.003142 -0.010981 0.000000 0.049925 0.000000
# 6 0.000000 0.000000 0.000000 -0.005101 0.000000 0.024616
#
#
# Mechanical properties :
#
#
# Convention : Reuss Voigt Hill
#
# Bulk Modulus (GPa) = 19.51990 30.82050 25.17020
# Shear Modulus (GPa) = 24.99924 31.02252 28.01088
#
# Velocity S-wave (km/s) = 3.29890 3.67489 3.49196
# Velocity P-wave (km/s) = 4.79664 5.60565 5.21685
#
# Compressibility (1/GPa) = 0.05122978
#
# Stress axis : x y z
#
# Youngs Moduli (GPa) = 88.06832 58.46844 32.64328
#
# Poissons Ratio (x) = 0.27441 0.18327
# Poissons Ratio (y) = 0.41333 -0.20814
# Poissons Ratio (z) = 0.49444 -0.37281
#
# Static dielectric constant tensor:
#      x y z
#    x 1.985450 0.000000 -0.017060 
#    y 0.000000 1.976780 0.000000 
#    z -0.017060 0.000000 1.862940 
# 
# From -- ./inp_files/90857.got.cif
#   From: 2010.05.17/outbox.cif.g08.bks.cpg/sg15_46_cif.got.tgz:90857.got - 2010.06.03 18:47:42.
