data_PCOD9275721
_publ_section_title
;
Structure prediction by ZEFSAII (Michael W. Deem and Ramdas Pophale) SiO2 
 PCOD9275721
Probable space group: C 2/C
;
_chemical_formula_sum "Si O2"
_cell_formula_units_Z 56
_cell_length_a 24.903015
_cell_length_b 11.130796
_cell_length_c 12.392488
_cell_angle_alpha 90.000000
_cell_angle_beta 127.287620
_cell_angle_gamma 90.000000
_cell_volume 2732.963530
_symmetry_space_group_name_H-M "C 2/C"
_symmetry_group_IT_number 15
_symmetry_cell_setting 'monoclinic'
loop_
_space_group_symop_operation_xyz
x,y,z
-x,y,1/2-z
-x,-y,-z
x,-y,1/2+z
1/2+x,1/2+y,z
1/2-x,1/2+y,1/2-z
1/2-x,1/2-y,-z
1/2+x,1/2-y,1/2+z
loop_
_atom_site_type_symbol
_atom_site_label
_atom_site_fract_x
_atom_site_fract_y
_atom_site_fract_z
Si Si1 0.500000 0.812987 0.250000
Si Si2 0.803415 0.574087 0.529768
Si Si3 0.428548 0.274445 0.352169
Si Si4 0.736331 0.694826 0.647359
Si Si5 0.000000 0.909434 0.250000
Si Si6 0.089441 0.119785 0.442314
Si Si7 0.773245 0.161749 0.621972
Si Si8 0.446714 0.032630 0.268631
O O1 0.564507 0.726768 0.333859
O O2 0.485880 0.905505 0.331686
O O3 0.789128 0.643455 0.625143
O O4 0.790658 0.673984 0.421936
O O5 0.748733 0.470761 0.440161
O O6 0.876115 0.508640 0.627363
O O7 0.476284 0.332620 0.321829
O O8 0.442767 0.333285 0.485050
O O9 0.352511 0.315965 0.232863
O O10 0.432126 0.129771 0.342885
O O11 0.669100 0.614068 0.553744
O O12 0.758426 0.690471 0.798485
O O13 0.059221 0.997464 0.362328
O O14 0.750000 0.250000 0.500000
O O15 0.500000 0.091824 0.250000
#
# Coordination Sequence:
#
# PCOD9275721 Si02
#       8
#     4   8   8   8   4   8   8   8
#     4   9  19  38  58  88 119 157 194 248 304 359
#     4  11  22  42  65  92 125 161 211 255 316 370
#     4  11  22  39  59  90 117 163 204 247 308 352
#     4  10  23  41  65  92 123 166 206 259 311 370
#     4  11  21  40  60  84 129 155 200 250 302 365
#     4  10  21  38  63  86 122 158 201 250 304 367
#     4  11  24  39  63  91 125 166 209 257 312 366
#     4  10  20  39  64  87 124 158 196 259 297 371
#
# _framework density 20.490577999999999
#
# number of rings (size 3 to 8) (size 9 to 14) (size 15 to 20)
#    0.429    1.143    3.571    1.286    2.000    0.571 
#    0.000    1.429    0.000    0.000    0.000    0.000 
#    0.000    0.000    0.000    0.000    0.000    0.000 
#
# Total GULP energy -156043.069139 kJ/mol
# GULP energy per Si atom -5572.966755 kJ/mol
# Density = 2.044394 g / cm^3
# Si number density = 20.490578 Si / 1000 Ang^3
#
#
#
# Elastic Constant Matrix: (Units=GPa)
#
#
# Indices 1 2 3 4 5 6 
#
# 1 56.5779 11.1123 5.9677 0.0000 -3.6302 0.0000
# 2 11.1123 88.8851 25.8901 0.0000 -9.2248 0.0000
# 3 5.9677 25.8901 69.8108 0.0000 -12.5303 0.0000
# 4 0.0000 0.0000 0.0000 -4.8280 0.0000 -6.8878
# 5 -3.6302 -9.2248 -12.5303 0.0000 30.2433 0.0000
# 6 0.0000 0.0000 0.0000 -6.8878 0.0000 19.6428
#
#
#
# Elastic Compliance Matrix: (Units=1/GPa)
#
#
# Indices 1 2 3 4 5 6 
#
# 1 0.018209 -0.001966 -0.000586 0.000000 0.001343 0.000000
# 2 -0.001966 0.012946 -0.004285 0.000000 0.001937 0.000000
# 3 -0.000586 -0.004285 0.016979 0.000000 0.005657 0.000000
# 4 0.000000 0.000000 0.000000 -0.138059 0.000000 -0.048411
# 5 0.001343 0.001937 0.005657 0.000000 0.036161 0.000000
# 6 0.000000 0.000000 0.000000 -0.048411 0.000000 0.033934
#
#
# Mechanical properties :
#
#
# Convention : Reuss Voigt Hill
#
# Bulk Modulus (GPa) = 29.02073 33.46819 31.24446
# Shear Modulus (GPa) = 937.79482 20.49851 479.14667
#
# Velocity S-wave (km/s) = 21.41646 3.16632 15.30834
# Velocity P-wave (km/s) = 25.01493 5.45311 18.10363
#
# Compressibility (1/GPa) = 0.03445813
#
# Stress axis : x y z
#
# Youngs Moduli (GPa) = 54.91802 77.24671 58.89563
#
# Poissons Ratio (x) = 0.15189 0.03453
# Poissons Ratio (y) = 0.10799 0.25238
# Poissons Ratio (z) = 0.03220 0.33102
#
# Static dielectric constant tensor:
#      x y z
#    x 1.814400 0.000000 0.010130 
#    y 0.000000 1.730020 0.000000 
#    z 0.010130 0.000000 1.747100 
# 
# From -- ./inp_files/122719.got.cif
#   From: 2010.05.17/outbox.cif.g08.bks.cpg/sg15_62_cif.got.tgz:122719.got - 2010.06.03 18:47:42.
