data_PCOD9275589
_publ_section_title
;
Structure prediction by ZEFSAII (Michael W. Deem and Ramdas Pophale) SiO2 
 PCOD9275589
Probable space group: C 2/C
;
_chemical_formula_sum "Si O2"
_cell_formula_units_Z 56
_cell_length_a 7.085857
_cell_length_b 24.592748
_cell_length_c 17.619257
_cell_angle_alpha 90.000000
_cell_angle_beta 56.112236
_cell_angle_gamma 90.000000
_cell_volume 2548.788877
_symmetry_space_group_name_H-M "C 2/C"
_symmetry_group_IT_number 15
_symmetry_cell_setting 'monoclinic'
loop_
_space_group_symop_operation_xyz
x,y,z
-x,y,1/2-z
-x,-y,-z
x,-y,1/2+z
1/2+x,1/2+y,z
1/2-x,1/2+y,1/2-z
1/2-x,1/2-y,-z
1/2+x,1/2-y,1/2+z
loop_
_atom_site_type_symbol
_atom_site_label
_atom_site_fract_x
_atom_site_fract_y
_atom_site_fract_z
Si Si1 0.086706 0.601247 0.463914
Si Si2 0.914037 0.070765 0.939639
Si Si3 0.989504 0.715714 0.528081
Si Si4 0.303630 0.746396 0.230547
Si Si5 0.940823 0.042676 0.108323
Si Si6 0.251762 0.623875 0.266392
Si Si7 0.492388 0.692337 0.588359
O O1 0.298741 0.563356 0.437573
O O2 0.087464 0.610759 0.372851
O O3 0.836675 0.578969 0.540831
O O4 0.133312 0.660606 0.490173
O O5 0.045547 0.128210 0.910170
O O6 0.881425 0.052631 0.034145
O O7 0.053465 0.020984 0.872480
O O8 0.903117 0.731845 0.630002
O O9 0.764228 0.698493 0.531420
O O10 0.087687 0.767880 0.461655
O O11 0.500000 0.746445 0.250000
O O12 0.220057 0.684422 0.241977
O O13 0.111278 0.783887 0.311077
O O14 0.774952 0.078715 0.196964
O O15 0.500000 0.624207 0.250000
#
# Coordination Sequence:
#
# PCOD9275589 Si02
#       7
#     8   8   8   8   8   8   8
#     4  10  20  39  63  87 117 160 205 243 305 369
#     4  10  22  38  60  89 118 161 201 248 313 357
#     4  10  21  37  59  87 120 162 192 251 312 362
#     4  11  22  35  58  91 120 155 200 249 312 371
#     4  10  21  39  61  86 121 158 202 259 294 366
#     4   9  19  37  57  88 117 153 203 250 297 364
#     4  10  21  39  57  86 124 155 201 251 304 381
#
# _framework density 21.971216999999999
#
# number of rings (size 3 to 8) (size 9 to 14) (size 15 to 20)
#    0.000    2.000    1.429    1.714    2.000    1.143 
#    2.571   10.000    0.000    0.000    0.000    0.000 
#    0.000    0.000    0.000    0.000    0.000    0.000 
#
# Total GULP energy -156477.661906 kJ/mol
# GULP energy per Si atom -5588.487925 kJ/mol
# Density = 2.192121 g / cm^3
# Si number density = 21.971217 Si / 1000 Ang^3
#
#
#
# Elastic Constant Matrix: (Units=GPa)
#
#
# Indices 1 2 3 4 5 6 
#
# 1 53.5429 17.8064 -2.5872 0.0000 -2.0679 0.0000
# 2 17.8064 177.9779 28.7115 0.0000 -2.1978 0.0000
# 3 -2.5872 28.7115 73.8475 0.0000 5.8840 0.0000
# 4 0.0000 0.0000 0.0000 32.5665 0.0000 8.1021
# 5 -2.0679 -2.1978 5.8840 0.0000 28.3529 0.0000
# 6 0.0000 0.0000 0.0000 8.1021 0.0000 6.4424
#
#
#
# Elastic Compliance Matrix: (Units=1/GPa)
#
#
# Indices 1 2 3 4 5 6 
#
# 1 0.019507 -0.002174 0.001453 0.000000 0.000953 0.000000
# 2 -0.002174 0.006263 -0.002580 0.000000 0.000862 0.000000
# 3 0.001453 -0.002580 0.014848 0.000000 -0.003175 0.000000
# 4 0.000000 0.000000 0.000000 0.044689 0.000000 -0.056202
# 5 0.000953 0.000862 -0.003175 0.000000 0.036065 0.000000
# 6 0.000000 0.000000 0.000000 -0.056202 0.000000 0.225903
#
#
# Mechanical properties :
#
#
# Convention : Reuss Voigt Hill
#
# Bulk Modulus (GPa) = 29.39840 43.69219 36.54530
# Shear Modulus (GPa) = 13.69053 30.90152 22.29603
#
# Velocity S-wave (km/s) = 2.49893 3.75434 3.18902
# Velocity P-wave (km/s) = 4.66215 6.22276 5.49811
#
# Compressibility (1/GPa) = 0.03401546
#
# Stress axis : x y z
#
# Youngs Moduli (GPa) = 51.26454 159.66677 67.34737
#
# Poissons Ratio (x) = 0.34715 -0.09784
# Poissons Ratio (y) = 0.11146 0.17375
# Poissons Ratio (z) = -0.07448 0.41193
#
# Static dielectric constant tensor:
#      x y z
#    x 1.868870 0.000000 -0.012590 
#    y 0.000000 1.823780 0.000000 
#    z -0.012590 0.000000 1.770580 
# 
# From -- ./inp_files/193201.got.cif
#   From: 2010.05.17/outbox.cif.g08.bks.cpg/sg15_97_cif.got.tgz:193201.got - 2010.06.03 18:47:42.
