data_PCOD9275523
_publ_section_title
;
Structure prediction by ZEFSAII (Michael W. Deem and Ramdas Pophale) SiO2 
 PCOD9275523
Probable space group: C 2/C
;
_chemical_formula_sum "Si O2"
_cell_formula_units_Z 48
_cell_length_a 17.994439
_cell_length_b 14.948247
_cell_length_c 8.093807
_cell_angle_alpha 90.000000
_cell_angle_beta 93.362347
_cell_angle_gamma 90.000000
_cell_volume 2173.367541
_symmetry_space_group_name_H-M "C 2/C"
_symmetry_group_IT_number 15
_symmetry_cell_setting 'monoclinic'
loop_
_space_group_symop_operation_xyz
x,y,z
-x,y,1/2-z
-x,-y,-z
x,-y,1/2+z
1/2+x,1/2+y,z
1/2-x,1/2+y,1/2-z
1/2-x,1/2-y,-z
1/2+x,1/2-y,1/2+z
loop_
_atom_site_type_symbol
_atom_site_label
_atom_site_fract_x
_atom_site_fract_y
_atom_site_fract_z
Si Si1 0.744134 0.955549 0.356125
Si Si2 0.293619 0.629782 0.207637
Si Si3 0.079079 0.416243 0.316941
Si Si4 0.404660 0.263144 0.885568
Si Si5 0.954901 0.276929 0.909522
Si Si6 0.684883 0.709450 0.791636
O O1 0.767894 0.909457 0.529833
O O2 0.655092 0.971419 0.335225
O O3 0.772109 0.883649 0.224286
O O4 0.784049 0.048652 0.332535
O O5 0.375444 0.670959 0.240267
O O6 0.239597 0.711634 0.244309
O O7 0.094209 0.336719 0.187260
O O8 0.069304 0.363889 0.489279
O O9 0.000000 0.457993 0.250000
O O10 0.486627 0.276452 0.969095
O O11 0.348016 0.273861 0.031131
O O12 0.885312 0.218787 0.840931
O O13 0.000000 0.303515 0.750000
#
# Coordination Sequence:
#
# PCOD9275523 Si02
#       6
#     8   8   8   8   8   8
#     4  12  25  40  63  96 131 171 218 265 323 384
#     4  12  24  39  62  94 130 167 217 264 317 383
#     4  10  20  39  62  91 126 168 214 259 320 379
#     4  10  21  37  66  93 126 167 214 261 321 382
#     4   9  19  37  64  94 120 170 216 262 320 380
#     4  11  21  41  66  93 128 168 216 268 325 376
#
# _framework density 22.085542
#
# number of rings (size 3 to 8) (size 9 to 14) (size 15 to 20)
#    0.000    1.333    3.333    3.000    2.333    0.000 
#    0.000    4.167    0.000    7.000    0.000    0.000 
#    0.000    0.000    0.000    0.000    0.000    0.000 
#
# Total GULP energy -134246.396192 kJ/mol
# GULP energy per Si atom -5593.599841 kJ/mol
# Density = 2.203527 g / cm^3
# Si number density = 22.085542 Si / 1000 Ang^3
#
#
#
# Elastic Constant Matrix: (Units=GPa)
#
#
# Indices 1 2 3 4 5 6 
#
# 1 91.2167 7.2588 28.6792 0.0000 7.4287 0.0000
# 2 7.2588 60.6988 -4.2985 0.0000 -4.5751 0.0000
# 3 28.6792 -4.2985 90.2165 0.0000 7.4719 0.0000
# 4 0.0000 0.0000 0.0000 10.5350 0.0000 -1.0592
# 5 7.4287 -4.5751 7.4719 0.0000 38.8677 0.0000
# 6 0.0000 0.0000 0.0000 -1.0592 0.0000 1.9682
#
#
#
# Elastic Compliance Matrix: (Units=1/GPa)
#
#
# Indices 1 2 3 4 5 6 
#
# 1 0.012496 -0.001911 -0.003909 0.000000 -0.001862 0.000000
# 2 -0.001911 0.016951 0.001240 0.000000 0.002122 0.000000
# 3 -0.003909 0.001240 0.012511 0.000000 -0.001512 0.000000
# 4 0.000000 0.000000 0.000000 0.100352 0.000000 0.054007
# 5 -0.001862 0.002122 -0.001512 0.000000 0.026625 0.000000
# 6 0.000000 0.000000 0.000000 0.054007 0.000000 0.537150
#
#
# Mechanical properties :
#
#
# Convention : Reuss Voigt Hill
#
# Bulk Modulus (GPa) = 30.49150 33.93453 32.21301
# Shear Modulus (GPa) = 6.88536 24.30702 15.59619
#
# Velocity S-wave (km/s) = 1.76758 3.32111 2.66027
# Velocity P-wave (km/s) = 4.24286 5.48678 4.90442
#
# Compressibility (1/GPa) = 0.03279603
#
# Stress axis : x y z
#
# Youngs Moduli (GPa) = 80.02742 58.99312 79.92679
#
# Poissons Ratio (x) = 0.11276 0.31245
# Poissons Ratio (y) = 0.15297 -0.09907
# Poissons Ratio (z) = 0.31284 -0.07312
#
# Static dielectric constant tensor:
#      x y z
#    x 1.840320 0.000000 0.024000 
#    y 0.000000 1.731280 0.000000 
#    z 0.024000 0.000000 1.901480 
# 
# From -- ./inp_files/47481.got.cif
#   From: 2010.05.17/outbox.cif.g08.bks.cpg/sg15_24_cif.got.tgz:47481.got - 2010.06.03 18:47:42.
