data_PCOD9275086
_publ_section_title
;
Structure prediction by ZEFSAII (Michael W. Deem and Ramdas Pophale) SiO2 
 PCOD9275086
Probable space group: C 2/C
;
_chemical_formula_sum "Si O2"
_cell_formula_units_Z 44
_cell_length_a 8.678422
_cell_length_b 13.870719
_cell_length_c 17.554105
_cell_angle_alpha 90.000000
_cell_angle_beta 67.444072
_cell_angle_gamma 90.000000
_cell_volume 1951.452286
_symmetry_space_group_name_H-M "C 2/C"
_symmetry_group_IT_number 15
_symmetry_cell_setting 'monoclinic'
loop_
_space_group_symop_operation_xyz
x,y,z
-x,y,1/2-z
-x,-y,-z
x,-y,1/2+z
1/2+x,1/2+y,z
1/2-x,1/2+y,1/2-z
1/2-x,1/2-y,-z
1/2+x,1/2-y,1/2+z
loop_
_atom_site_type_symbol
_atom_site_label
_atom_site_fract_x
_atom_site_fract_y
_atom_site_fract_z
Si Si1 0.147208 0.323166 0.952467
Si Si2 0.401579 0.511743 0.439142
Si Si3 0.806441 0.353826 0.963937
Si Si4 0.000000 0.526188 0.750000
Si Si5 0.544816 0.787518 0.138592
Si Si6 0.687262 0.606908 0.315094
O O1 0.278075 0.398289 0.961824
O O2 0.264578 0.249589 0.884095
O O3 0.004328 0.366549 0.927730
O O4 0.047748 0.285929 0.045627
O O5 0.500000 0.500000 0.500000
O O6 0.281371 0.421913 0.457929
O O7 0.533671 0.531719 0.348306
O O8 0.742327 0.373595 0.891688
O O9 0.750000 0.250000 0.000000
O O10 0.971631 0.605184 0.823731
O O11 0.846262 0.454940 0.756429
O O12 0.403089 0.709052 0.192173
#
# Coordination Sequence:
#
# PCOD9275086 Si02
#       6
#     8   8   8   4   8   8
#     4  10  20  38  68  95 127 164 223 287 331 393
#     4   9  19  35  58  90 128 161 207 267 335 392
#     4  11  20  34  66 101 127 154 214 288 343 387
#     4  12  26  42  68  88 140 188 216 268 350 402
#     4  10  22  42  65  94 128 176 221 268 339 402
#     4  10  23  43  61  92 132 172 221 269 333 418
#
# _framework density 22.54731
#
# number of rings (size 3 to 8) (size 9 to 14) (size 15 to 20)
#    0.000    1.818    1.818    2.727    5.091    1.455 
#    0.000    1.818    0.000    4.364    0.000    0.000 
#    0.000    0.000    0.000    0.000    0.000    0.000 
#
# Total GULP energy -122541.252826 kJ/mol
# GULP energy per Si atom -5570.056947 kJ/mol
# Density = 2.249599 g / cm^3
# Si number density = 22.547310 Si / 1000 Ang^3
#
#
#
# Elastic Constant Matrix: (Units=GPa)
#
#
# Indices 1 2 3 4 5 6 
#
# 1 120.2076 27.3746 27.7973 0.0000 -30.1786 0.0000
# 2 27.3746 120.6733 50.4006 0.0000 -29.3114 0.0000
# 3 27.7973 50.4006 93.8805 0.0000 -17.6734 0.0000
# 4 0.0000 0.0000 0.0000 44.3359 0.0000 -12.5238
# 5 -30.1786 -29.3114 -17.6734 0.0000 33.2643 0.0000
# 6 0.0000 0.0000 0.0000 -12.5238 0.0000 36.4725
#
#
#
# Elastic Compliance Matrix: (Units=1/GPa)
#
#
# Indices 1 2 3 4 5 6 
#
# 1 0.010991 0.000555 -0.001759 0.000000 0.009526 0.000000
# 2 0.000555 0.012452 -0.005210 0.000000 0.008708 0.000000
# 3 -0.001759 -0.005210 0.014228 0.000000 0.001373 0.000000
# 4 0.000000 0.000000 0.000000 0.024978 0.000000 0.008577
# 5 0.009526 0.008708 0.001373 0.000000 0.047107 0.000000
# 6 0.000000 0.000000 0.000000 0.008577 0.000000 0.030363
#
#
# Mechanical properties :
#
#
# Convention : Reuss Voigt Hill
#
# Bulk Modulus (GPa) = 40.25237 60.65627 50.45432
# Shear Modulus (GPa) = 31.01199 38.09379 34.55289
#
# Velocity S-wave (km/s) = 3.71269 4.11482 3.91891
# Velocity P-wave (km/s) = 6.02245 7.03817 6.55003
#
# Compressibility (1/GPa) = 0.02484326
#
# Stress axis : x y z
#
# Youngs Moduli (GPa) = 90.98510 80.30769 70.28303
#
# Poissons Ratio (x) = -0.04460 0.12364
# Poissons Ratio (y) = -0.05053 0.36618
# Poissons Ratio (z) = 0.16005 0.41841
#
# Static dielectric constant tensor:
#      x y z
#    x 1.463680 0.000000 0.168780 
#    y 0.000000 2.187510 0.000000 
#    z 0.168780 0.000000 1.820620 
# 
# From -- ./inp_files/189148.got.cif
#   From: 2010.05.17/outbox.cif.g08.bks.cpg/sg15_95_cif.got.tgz:189148.got - 2010.06.03 18:47:42.
