data_PCOD9275256
_publ_section_title
;
Structure prediction by ZEFSAII (Michael W. Deem and Ramdas Pophale) SiO2 
 PCOD9275256
Probable space group: C 2/C
;
_chemical_formula_sum "Si O2"
_cell_formula_units_Z 64
_cell_length_a 16.851084
_cell_length_b 24.111609
_cell_length_c 14.281913
_cell_angle_alpha 90.000000
_cell_angle_beta 148.269039
_cell_angle_gamma 90.000000
_cell_volume 3051.894106
_symmetry_space_group_name_H-M "C 2/C"
_symmetry_group_IT_number 15
_symmetry_cell_setting 'monoclinic'
loop_
_space_group_symop_operation_xyz
x,y,z
-x,y,1/2-z
-x,-y,-z
x,-y,1/2+z
1/2+x,1/2+y,z
1/2-x,1/2+y,1/2-z
1/2-x,1/2-y,-z
1/2+x,1/2-y,1/2+z
loop_
_atom_site_type_symbol
_atom_site_label
_atom_site_fract_x
_atom_site_fract_y
_atom_site_fract_z
Si Si1 0.519248 0.097379 0.044126
Si Si2 0.200095 0.934102 0.308185
Si Si3 0.228407 0.942952 0.825962
Si Si4 0.431107 0.826046 0.304121
Si Si5 0.745124 0.929214 0.426766
Si Si6 0.898153 0.776270 0.559059
Si Si7 0.974678 0.870218 0.512097
Si Si8 0.841315 0.449046 0.643417
O O1 0.606851 0.060610 0.054775
O O2 0.623284 0.095107 0.240817
O O3 0.361556 0.071992 0.919485
O O4 0.472058 0.156046 0.951228
O O5 0.228238 0.930657 0.447619
O O6 0.152058 0.997046 0.237297
O O7 0.094957 0.888215 0.156260
O O8 0.139484 0.894372 0.686033
O O9 0.222926 0.931410 0.930937
O O10 0.390964 0.885787 0.221419
O O11 0.571007 0.789207 0.412203
O O12 0.279150 0.790902 0.127093
O O13 0.874948 0.902994 0.491571
O O14 0.712623 0.992682 0.367217
O O15 0.964988 0.806939 0.534681
O O16 0.000000 0.797300 0.750000
O O17 0.000000 0.461505 0.750000
#
# Coordination Sequence:
#
# PCOD9275256 Si02
#       8
#     8   8   8   8   8   8   8   8
#     4  11  22  38  56  87 115 150 200 245 291 345
#     4  10  20  39  58  87 116 155 196 240 299 347
#     4  11  23  32  60  89 122 161 190 232 289 362
#     4  11  25  38  61  82 119 157 194 244 288 345
#     4  10  21  36  56  87 124 157 192 232 292 350
#     4  11  24  41  58  84 118 155 200 241 287 346
#     4  11  21  40  57  84 124 163 193 236 291 352
#     4   9  21  35  61  89 117 151 196 246 292 354
#
# _framework density 20.970583000000001
#
# number of rings (size 3 to 8) (size 9 to 14) (size 15 to 20)
#    0.000    1.500    2.500    3.750    8.750    0.000 
#    0.000    1.875    0.000    0.750    0.000    0.000 
#    0.000    0.000    0.000    0.000    0.000    0.000 
#
# Total GULP energy -178580.380722 kJ/mol
# GULP energy per Si atom -5580.636898 kJ/mol
# Density = 2.092285 g / cm^3
# Si number density = 20.970583 Si / 1000 Ang^3
#
#
#
# Elastic Constant Matrix: (Units=GPa)
#
#
# Indices 1 2 3 4 5 6 
#
# 1 44.7138 23.0200 17.5426 0.0000 -11.7969 0.0000
# 2 23.0200 68.2008 39.0541 0.0000 -12.1646 0.0000
# 3 17.5426 39.0541 93.2700 0.0000 -22.9789 0.0000
# 4 0.0000 0.0000 0.0000 26.8934 0.0000 -2.3486
# 5 -11.7969 -12.1646 -22.9789 0.0000 23.4605 0.0000
# 6 0.0000 0.0000 0.0000 -2.3486 0.0000 26.7879
#
#
#
# Elastic Compliance Matrix: (Units=1/GPa)
#
#
# Indices 1 2 3 4 5 6 
#
# 1 0.029299 -0.008312 0.000709 0.000000 0.011117 0.000000
# 2 -0.008312 0.021782 -0.007650 0.000000 -0.000379 0.000000
# 3 0.000709 -0.007650 0.017006 0.000000 0.013046 0.000000
# 4 0.000000 0.000000 0.000000 0.037471 0.000000 0.003285
# 5 0.011117 -0.000379 0.013046 0.000000 0.060797 0.000000
# 6 0.000000 0.000000 0.000000 0.003285 0.000000 0.037618
#
#
# Mechanical properties :
#
#
# Convention : Reuss Voigt Hill
#
# Bulk Modulus (GPa) = 26.61109 40.60200 33.60655
# Shear Modulus (GPa) = 20.24243 23.86621 22.05432
#
# Velocity S-wave (km/s) = 3.11026 3.37720 3.24648
# Velocity P-wave (km/s) = 5.06118 5.88309 5.48755
#
# Compressibility (1/GPa) = 0.03757831
#
# Stress axis : x y z
#
# Youngs Moduli (GPa) = 34.13116 45.91049 58.80331
#
# Poissons Ratio (x) = 0.38162 -0.04168
# Poissons Ratio (y) = 0.28371 0.44987
# Poissons Ratio (z) = -0.02419 0.35123
#
# Static dielectric constant tensor:
#      x y z
#    x 1.822850 0.000000 -0.005400 
#    y 0.000000 1.734950 0.000000 
#    z -0.005400 0.000000 1.818780 
# 
# From -- ./inp_files/164264.got.cif
#   From: 2010.05.17/outbox.cif.g08.bks.cpg/sg15_83_cif.got.tgz:164264.got - 2010.06.03 18:47:42.
