data_PCOD9275370
_publ_section_title
;
Structure prediction by ZEFSAII (Michael W. Deem and Ramdas Pophale) SiO2 
 PCOD9275370
Probable space group: C 2/C
;
_chemical_formula_sum "Si O2"
_cell_formula_units_Z 56
_cell_length_a 13.362613
_cell_length_b 5.077605
_cell_length_c 32.443603
_cell_angle_alpha 90.000000
_cell_angle_beta 87.270450
_cell_angle_gamma 90.000000
_cell_volume 2198.803262
_symmetry_space_group_name_H-M "C 2/C"
_symmetry_group_IT_number 15
_symmetry_cell_setting 'monoclinic'
loop_
_space_group_symop_operation_xyz
x,y,z
-x,y,1/2-z
-x,-y,-z
x,-y,1/2+z
1/2+x,1/2+y,z
1/2-x,1/2+y,1/2-z
1/2-x,1/2-y,-z
1/2+x,1/2-y,1/2+z
loop_
_atom_site_type_symbol
_atom_site_label
_atom_site_fract_x
_atom_site_fract_y
_atom_site_fract_z
Si Si1 0.654823 0.244903 0.173159
Si Si2 0.105697 0.761087 0.082310
Si Si3 0.079175 0.893877 0.930221
Si Si4 0.850454 0.579966 0.502070
Si Si5 0.231294 0.728214 0.420838
Si Si6 0.372394 0.922194 0.147564
Si Si7 0.454962 0.778469 0.294828
O O1 0.619732 0.155825 0.127923
O O2 0.773783 0.284273 0.168202
O O3 0.595602 0.517464 0.184166
O O4 0.626765 0.011497 0.204733
O O5 0.996056 0.870208 0.074664
O O6 0.174864 0.027952 0.079457
O O7 0.121241 0.543348 0.045971
O O8 0.197651 0.966613 0.922784
O O9 0.069608 0.755491 0.974517
O O10 0.066605 0.711491 0.891124
O O11 0.750000 0.750000 0.500000
O O12 0.824362 0.351555 0.534633
O O13 0.179523 0.657209 0.377604
O O14 0.454182 0.918096 0.181748
O O15 0.500000 0.703107 0.250000
#
# Coordination Sequence:
#
# PCOD9275370 Si02
#       7
#     8   8   8   8   8   8   8
#     4  11  26  46  72 105 138 180 223 280 346 412
#     4  10  20  39  60  93 131 173 233 275 336 401
#     4  11  20  37  62  87 129 182 223 282 332 396
#     4   9  20  37  51  90 130 172 233 280 334 389
#     4   9  21  38  59  90 131 177 226 280 337 391
#     4  10  24  41  68  99 140 175 229 278 343 409
#     4  12  27  49  75 105 137 174 224 281 347 423
#
# _framework density 25.468399000000002
#
# number of rings (size 3 to 8) (size 9 to 14) (size 15 to 20)
#    0.000    1.714    1.429    2.571    4.000    4.000 
#    2.571    0.000    0.000    0.000    0.000    0.000 
#    0.000    0.000    0.000    0.000    0.000    0.000 
#
# Total GULP energy -156266.544317 kJ/mol
# GULP energy per Si atom -5580.948011 kJ/mol
# Density = 2.541043 g / cm^3
# Si number density = 25.468399 Si / 1000 Ang^3
#
#
#
# Elastic Constant Matrix: (Units=GPa)
#
#
# Indices 1 2 3 4 5 6 
#
# 1 86.9070 4.0652 9.9589 0.0000 -1.4937 0.0000
# 2 4.0652 60.0945 -4.2092 0.0000 -10.9347 0.0000
# 3 9.9589 -4.2092 80.1216 0.0000 -21.0312 0.0000
# 4 0.0000 0.0000 0.0000 30.9365 0.0000 -7.5526
# 5 -1.4937 -10.9347 -21.0312 0.0000 37.7416 0.0000
# 6 0.0000 0.0000 0.0000 -7.5526 0.0000 23.7178
#
#
#
# Elastic Compliance Matrix: (Units=1/GPa)
#
#
# Indices 1 2 3 4 5 6 
#
# 1 0.011740 -0.001062 -0.001726 0.000000 -0.000805 0.000000
# 2 -0.001062 0.018155 0.002876 0.000000 0.006821 0.000000
# 3 -0.001726 0.002876 0.015283 0.000000 0.009281 0.000000
# 4 0.000000 0.000000 0.000000 0.035049 0.000000 0.011161
# 5 -0.000805 0.006821 0.009281 0.000000 0.033612 0.000000
# 6 0.000000 0.000000 0.000000 0.011161 0.000000 0.045716
#
#
# Mechanical properties :
#
#
# Convention : Reuss Voigt Hill
#
# Bulk Modulus (GPa) = 22.04868 27.41701 24.73284
# Shear Modulus (GPa) = 28.65375 32.96640 30.81008
#
# Velocity S-wave (km/s) = 3.35785 3.60169 3.48190
# Velocity P-wave (km/s) = 4.86925 5.29950 5.08892
#
# Compressibility (1/GPa) = 0.04535420
#
# Stress axis : x y z
#
# Youngs Moduli (GPa) = 85.17744 55.08190 65.43242
#
# Poissons Ratio (x) = 0.05847 0.11296
# Poissons Ratio (y) = 0.09042 -0.18819
# Poissons Ratio (z) = 0.14704 -0.15842
#
# Static dielectric constant tensor:
#      x y z
#    x 2.218980 0.000000 0.054890 
#    y 0.000000 2.167290 0.000000 
#    z 0.054890 0.000000 2.004290 
# 
# From -- ./inp_files/312331.got.cif
#   From: 2010.05.17/outbox.cif.g08.bks.cpg/sg15_157_cif.got.tgz:312331.got - 2010.06.03 18:47:42.
