data_PCOD9275247
_publ_section_title
;
Structure prediction by ZEFSAII (Michael W. Deem and Ramdas Pophale) SiO2 
 PCOD9275247
Probable space group: C 2/C
;
_chemical_formula_sum "Si O2"
_cell_formula_units_Z 56
_cell_length_a 9.194684
_cell_length_b 22.237044
_cell_length_c 18.263319
_cell_angle_alpha 90.000000
_cell_angle_beta 129.622084
_cell_angle_gamma 90.000000
_cell_volume 2876.306357
_symmetry_space_group_name_H-M "C 2/C"
_symmetry_group_IT_number 15
_symmetry_cell_setting 'monoclinic'
loop_
_space_group_symop_operation_xyz
x,y,z
-x,y,1/2-z
-x,-y,-z
x,-y,1/2+z
1/2+x,1/2+y,z
1/2-x,1/2+y,1/2-z
1/2-x,1/2-y,-z
1/2+x,1/2-y,1/2+z
loop_
_atom_site_type_symbol
_atom_site_label
_atom_site_fract_x
_atom_site_fract_y
_atom_site_fract_z
Si Si1 0.678470 0.968991 0.855958
Si Si2 0.101686 0.228608 0.714402
Si Si3 0.899043 0.943069 0.526912
Si Si4 0.507345 0.253046 0.900888
Si Si5 0.993108 0.835434 0.453974
Si Si6 0.801140 0.657180 0.450090
Si Si7 0.083970 0.653356 0.407564
O O1 0.500000 0.992462 0.750000
O O2 0.606850 0.904045 0.862128
O O3 0.750503 0.007646 0.949537
O O4 0.885687 0.962544 0.882997
O O5 0.301679 0.252603 0.803426
O O6 0.000000 0.196755 0.750000
O O7 0.127451 0.187685 0.651831
O O8 0.973743 0.285956 0.652500
O O9 0.805237 0.902500 0.558895
O O10 0.933064 0.898669 0.468498
O O11 0.645993 0.289808 0.892056
O O12 0.508659 0.289519 0.978206
O O13 0.576413 0.186248 0.944026
O O14 0.207016 0.837622 0.493381
O O15 0.930680 0.646136 0.421993
#
# Coordination Sequence:
#
# PCOD9275247 Si02
#       7
#     8   8   8   8   8   8   8
#     4  10  22  41  63  84 108 154 206 246 293 352
#     4  12  21  32  59  88 119 159 196 235 287 362
#     4   9  22  42  62  81 115 156 197 249 297 343
#     4  10  21  37  53  84 124 155 191 227 297 354
#     4  10  20  39  58  82 119 157 192 236 291 353
#     4  10  21  38  55  83 124 152 186 246 290 349
#     4  11  21  35  59  86 117 152 192 244 289 344
#
# _framework density 19.469414
#
# number of rings (size 3 to 8) (size 9 to 14) (size 15 to 20)
#    0.000    1.714    2.857    1.714    4.000    2.286 
#    0.000    0.000    0.000    0.000    0.000    0.000 
#    0.000    0.000    0.000    0.000    0.000    0.000 
#
# Total GULP energy -156136.807616 kJ/mol
# GULP energy per Si atom -5576.314558 kJ/mol
# Density = 1.942510 g / cm^3
# Si number density = 19.469414 Si / 1000 Ang^3
#
#
#
# Elastic Constant Matrix: (Units=GPa)
#
#
# Indices 1 2 3 4 5 6 
#
# 1 99.0108 3.2446 7.7902 0.0000 0.8033 0.0000
# 2 3.2446 23.8622 20.8251 0.0000 10.6779 0.0000
# 3 7.7902 20.8251 39.7067 0.0000 -6.5774 0.0000
# 4 0.0000 0.0000 0.0000 6.8523 0.0000 -0.0937
# 5 0.8033 10.6779 -6.5774 0.0000 12.9486 0.0000
# 6 0.0000 0.0000 0.0000 -0.0937 0.0000 27.3360
#
#
#
# Elastic Compliance Matrix: (Units=1/GPa)
#
#
# Indices 1 2 3 4 5 6 
#
# 1 0.010003 -0.008577 0.003936 0.000000 0.008451 0.000000
# 2 -0.008577 -0.249724 0.182186 0.000000 0.299007 0.000000
# 3 0.003936 0.182186 -0.104892 0.000000 -0.203762 0.000000
# 4 0.000000 0.000000 0.000000 0.145943 0.000000 0.000500
# 5 0.008451 0.299007 -0.203762 0.000000 -0.273371 0.000000
# 6 0.000000 0.000000 0.000000 0.000500 0.000000 0.036584
#
#
# Mechanical properties :
#
#
# Convention : Reuss Voigt Hill
#
# Bulk Modulus (GPa) = 95.44913 25.14440 60.29676
# Shear Modulus (GPa) = -6.35278 18.14204 5.89463
#
# Velocity S-wave (km/s) = -1.80832 3.05589 1.74190
# Velocity P-wave (km/s) = 6.69115 5.03926 5.92308
#
# Compressibility (1/GPa) = 0.01047679
#
# Stress axis : x y z
#
# Youngs Moduli (GPa) = 99.97265 -4.00441 -9.53359
#
# Poissons Ratio (x) = -0.03435 0.03752
# Poissons Ratio (y) = 0.85745 1.73689
# Poissons Ratio (z) = -0.39347 0.72955
#
# Static dielectric constant tensor:
#      x y z
#    x 1.707790 0.000000 0.011560 
#    y 0.000000 1.717830 0.000000 
#    z 0.011560 0.000000 1.700210 
# 
# From -- ./inp_files/193312.got.cif
#   From: 2010.05.17/outbox.cif.g08.bks.cpg/sg15_97_cif.got.tgz:193312.got - 2010.06.03 18:47:42.
