data_PCOD9275264
_publ_section_title
;
Structure prediction by ZEFSAII (Michael W. Deem and Ramdas Pophale) SiO2 
 PCOD9275264
Probable space group: C 2/C
;
_chemical_formula_sum "Si O2"
_cell_formula_units_Z 64
_cell_length_a 9.456187
_cell_length_b 20.924702
_cell_length_c 20.056734
_cell_angle_alpha 90.000000
_cell_angle_beta 44.129138
_cell_angle_gamma 90.000000
_cell_volume 2763.237201
_symmetry_space_group_name_H-M "C 2/C"
_symmetry_group_IT_number 15
_symmetry_cell_setting 'monoclinic'
loop_
_space_group_symop_operation_xyz
x,y,z
-x,y,1/2-z
-x,-y,-z
x,-y,1/2+z
1/2+x,1/2+y,z
1/2-x,1/2+y,1/2-z
1/2-x,1/2-y,-z
1/2+x,1/2-y,1/2+z
loop_
_atom_site_type_symbol
_atom_site_label
_atom_site_fract_x
_atom_site_fract_y
_atom_site_fract_z
Si Si1 0.756286 0.959776 0.848201
Si Si2 0.375889 0.766829 0.562795
Si Si3 0.383989 0.128507 0.446554
Si Si4 0.281594 0.400787 0.356996
Si Si5 0.328784 0.615317 0.446347
Si Si6 0.634639 0.234725 0.851977
Si Si7 0.369161 0.156019 0.849545
Si Si8 0.721466 0.135780 0.165879
O O1 0.590711 0.914042 0.869471
O O2 0.745793 0.942430 0.930119
O O3 0.000000 0.950488 0.750000
O O4 0.691315 0.032939 0.860438
O O5 0.532763 0.803376 0.556319
O O6 0.229578 0.823700 0.582256
O O7 0.475408 0.740786 0.461067
O O8 0.302624 0.702035 0.622632
O O9 0.249867 0.100571 0.552742
O O10 0.263624 0.136594 0.419184
O O11 0.500000 0.403082 0.250000
O O12 0.202290 0.332660 0.359252
O O13 0.217328 0.621378 0.555626
O O14 0.570182 0.607934 0.375092
O O15 0.517324 0.212245 0.826891
O O16 0.787815 0.293405 0.796570
O O17 0.500000 0.119180 0.750000
O O18 0.500000 0.104646 0.250000
#
# Coordination Sequence:
#
# PCOD9275264 Si02
#       8
#     8   8   8   8   8   8   8   8
#     4  10  21  42  71  88 110 163 221 259 295 359
#     4   9  18  37  57  80 119 165 204 236 289 370
#     4  10  23  36  61  95 122 159 201 255 312 363
#     4  10  22  41  64  90 120 161 209 258 306 364
#     4  10  20  40  58  89 127 155 207 260 298 363
#     4  10  20  39  58  89 128 155 198 258 304 360
#     4  11  21  34  61  88 125 171 207 240 298 375
#     4  12  23  35  57  92 133 161 189 251 325 366
#
# _framework density 23.161239999999999
#
# number of rings (size 3 to 8) (size 9 to 14) (size 15 to 20)
#    0.000    1.750    2.500    3.000    1.750    5.000 
#    0.000    0.625    0.000    6.000    0.000    0.000 
#    0.000    0.000    0.000    0.000    0.000    0.000 
#
# Total GULP energy -178323.454367 kJ/mol
# GULP energy per Si atom -5572.607949 kJ/mol
# Density = 2.310852 g / cm^3
# Si number density = 23.161240 Si / 1000 Ang^3
#
#
#
# Elastic Constant Matrix: (Units=GPa)
#
#
# Indices 1 2 3 4 5 6 
#
# 1 89.0022 3.3034 -2.9891 0.0000 -13.2313 -0.0004
# 2 3.3034 55.5969 5.9681 0.0000 2.7626 -0.0001
# 3 -2.9891 5.9681 111.1574 0.0002 -13.1522 0.0000
# 4 0.0000 0.0000 0.0002 19.9086 -0.0001 -2.3177
# 5 -13.2313 2.7626 -13.1522 -0.0001 26.8617 0.0001
# 6 -0.0004 -0.0001 0.0000 -2.3177 0.0001 14.3976
#
#
#
# Elastic Compliance Matrix: (Units=1/GPa)
#
#
# Indices 1 2 3 4 5 6 
#
# 1 0.012329 -0.001198 0.001198 0.000000 0.006783 0.000000
# 2 -0.001198 0.018364 -0.001392 0.000000 -0.003161 0.000000
# 3 0.001198 -0.001392 0.009755 0.000000 0.005510 0.000000
# 4 0.000000 0.000000 0.000000 0.051189 0.000000 0.008240
# 5 0.006783 -0.003161 0.005510 0.000000 0.043592 0.000000
# 6 0.000000 0.000000 0.000000 0.008240 0.000000 0.070783
#
#
# Mechanical properties :
#
#
# Convention : Reuss Voigt Hill
#
# Bulk Modulus (GPa) = 26.55041 29.81350 28.18195
# Shear Modulus (GPa) = 22.58868 28.86519 25.72694
#
# Velocity S-wave (km/s) = 3.12633 3.53409 3.33645
# Velocity P-wave (km/s) = 4.95178 5.43628 5.19968
#
# Compressibility (1/GPa) = 0.03766421
#
# Stress axis : x y z
#
# Youngs Moduli (GPa) = 81.11130 54.45350 102.50993
#
# Poissons Ratio (x) = 0.06525 -0.12285
# Poissons Ratio (y) = 0.09719 0.14271
# Poissons Ratio (z) = -0.09720 0.07581
#
# Static dielectric constant tensor:
#      x y z
#    x 2.084590 0.000000 -0.234380 
#    y 0.000000 1.935420 0.000000 
#    z -0.234380 0.000000 2.148320 
# 
# From -- ./inp_files/234440.got.cif
#   From: 2010.05.17/outbox.cif.g08.bks.cpg/sg15_118_cif.got.tgz:234440.got - 2010.06.03 18:47:42.
