data_PCOD9275714
_publ_section_title
;
Structure prediction by ZEFSAII (Michael W. Deem and Ramdas Pophale) SiO2 
 PCOD9275714
Probable space group: C 2/C
;
_chemical_formula_sum "Si O2"
_cell_formula_units_Z 48
_cell_length_a 13.603867
_cell_length_b 12.514748
_cell_length_c 25.035055
_cell_angle_alpha 90.000000
_cell_angle_beta 152.292478
_cell_angle_gamma 90.000000
_cell_volume 1981.741580
_symmetry_space_group_name_H-M "C 2/C"
_symmetry_group_IT_number 15
_symmetry_cell_setting 'monoclinic'
loop_
_space_group_symop_operation_xyz
x,y,z
-x,y,1/2-z
-x,-y,-z
x,-y,1/2+z
1/2+x,1/2+y,z
1/2-x,1/2+y,1/2-z
1/2-x,1/2-y,-z
1/2+x,1/2-y,1/2+z
loop_
_atom_site_type_symbol
_atom_site_label
_atom_site_fract_x
_atom_site_fract_y
_atom_site_fract_z
Si Si1 0.293276 0.129898 0.241290
Si Si2 0.465655 0.641263 0.819623
Si Si3 0.504803 0.686575 0.314668
Si Si4 0.590301 0.286860 0.014168
Si Si5 0.722688 0.092097 0.802536
Si Si6 0.845801 0.599353 0.929543
O O1 0.454874 0.229004 0.318724
O O2 0.165723 0.116889 0.235717
O O3 0.383336 0.020994 0.260533
O O4 0.094555 0.163243 0.108933
O O5 0.417413 0.596386 0.854832
O O6 0.676504 0.594150 0.895382
O O7 0.282229 0.614458 0.687738
O O8 0.500000 0.656666 0.250000
O O9 0.753493 0.707927 0.443899
O O10 0.415903 0.806224 0.280277
O O11 0.709159 0.378854 0.104654
O O12 0.481815 0.206444 0.003691
O O13 0.000000 0.500000 0.000000
#
# Coordination Sequence:
#
# PCOD9275714 Si02
#       6
#     8   8   8   8   8   8
#     4  10  20  39  64  85 127 165 208 270 321 377
#     4   9  22  42  58  94 128 163 216 262 321 390
#     4   9  20  38  60  89 123 160 216 262 310 391
#     4  10  21  39  59  93 122 158 221 258 312 395
#     4  10  21  39  60  92 125 169 206 259 331 374
#     4  10  22  41  65  91 126 169 212 269 327 377
#
# _framework density 24.221119999999999
#
# number of rings (size 3 to 8) (size 9 to 14) (size 15 to 20)
#    0.000    2.333    0.000    1.000    2.333    4.667 
#   24.000    0.000    0.000    0.000    0.000    0.000 
#    0.000    0.000    0.000    0.000    0.000    0.000 
#
# Total GULP energy -134085.138305 kJ/mol
# GULP energy per Si atom -5586.880763 kJ/mol
# Density = 2.416599 g / cm^3
# Si number density = 24.221120 Si / 1000 Ang^3
#
#
#
# Elastic Constant Matrix: (Units=GPa)
#
#
# Indices 1 2 3 4 5 6 
#
# 1 122.0443 18.0205 12.3069 0.0000 7.2933 0.0000
# 2 18.0205 97.1520 8.4829 -0.0001 -2.5463 -0.0001
# 3 12.3069 8.4829 18.3257 -0.0010 12.4804 -0.0004
# 4 0.0000 -0.0001 -0.0010 23.8202 -0.0003 -2.6310
# 5 7.2933 -2.5463 12.4804 -0.0003 29.5127 -0.0001
# 6 0.0000 -0.0001 -0.0004 -2.6310 -0.0001 26.0254
#
#
#
# Elastic Compliance Matrix: (Units=1/GPa)
#
#
# Indices 1 2 3 4 5 6 
#
# 1 0.008917 -0.001179 -0.005439 0.000000 -0.000005 0.000000
# 2 -0.001179 0.011276 -0.007428 0.000000 0.004405 0.000000
# 3 -0.005439 -0.007428 0.085927 0.000003 -0.035634 0.000002
# 4 0.000000 0.000000 0.000003 0.042455 -0.000001 0.004292
# 5 -0.000005 0.004405 -0.035634 -0.000001 0.049334 0.000000
# 6 0.000000 0.000000 0.000002 0.004292 0.000000 0.038858
#
#
# Mechanical properties :
#
#
# Convention : Reuss Voigt Hill
#
# Bulk Modulus (GPa) = 12.81596 35.01585 23.91591
# Shear Modulus (GPa) = 17.19000 29.11910 23.15455
#
# Velocity S-wave (km/s) = 2.66693 3.47107 3.09522
# Velocity P-wave (km/s) = 3.84527 5.52743 4.76123
#
# Compressibility (1/GPa) = 0.07802772
#
# Stress axis : x y z
#
# Youngs Moduli (GPa) = 112.15026 88.68469 11.63785
#
# Poissons Ratio (x) = 0.10458 0.06329
# Poissons Ratio (y) = 0.13225 0.08644
# Poissons Ratio (z) = 0.60994 0.65874
#
# Static dielectric constant tensor:
#      x y z
#    x 1.969100 0.000000 -0.015110 
#    y 0.000000 1.946620 0.000000 
#    z -0.015110 0.000000 1.969610 
# 
# From -- ./inp_files/151858.got.cif
#   From: 2010.05.17/outbox.cif.g08.bks.cpg/sg15_76_cif.got.tgz:151858.got - 2010.06.03 18:47:42.
