data_PCOD9275709
_publ_section_title
;
Structure prediction by ZEFSAII (Michael W. Deem and Ramdas Pophale) SiO2 
 PCOD9275709
Probable space group: C 2/C
;
_chemical_formula_sum "Si O2"
_cell_formula_units_Z 60
_cell_length_a 26.614263
_cell_length_b 7.107949
_cell_length_c 26.719541
_cell_angle_alpha 90.000000
_cell_angle_beta 30.337736
_cell_angle_gamma 90.000000
_cell_volume 2553.064630
_symmetry_space_group_name_H-M "C 2/C"
_symmetry_group_IT_number 15
_symmetry_cell_setting 'monoclinic'
loop_
_space_group_symop_operation_xyz
x,y,z
-x,y,1/2-z
-x,-y,-z
x,-y,1/2+z
1/2+x,1/2+y,z
1/2-x,1/2+y,1/2-z
1/2-x,1/2-y,-z
1/2+x,1/2-y,1/2+z
loop_
_atom_site_type_symbol
_atom_site_label
_atom_site_fract_x
_atom_site_fract_y
_atom_site_fract_z
Si Si1 0.186002 0.755498 0.449933
Si Si2 0.285559 0.233119 0.667190
Si Si3 0.000000 0.137340 0.250000
Si Si4 0.355043 0.702006 0.999773
Si Si5 0.971600 0.700307 0.666970
Si Si6 0.417352 0.624748 0.699913
Si Si7 0.190571 0.054139 0.604829
Si Si8 0.290141 0.121728 0.770276
O O1 0.078845 0.666033 0.551897
O O2 0.260811 0.646580 0.422074
O O3 0.229102 0.729696 0.356666
O O4 0.176832 0.980230 0.468949
O O5 0.331970 0.198214 0.573099
O O6 0.167808 0.184501 0.765556
O O7 0.329210 0.160027 0.681303
O O8 0.287898 0.456749 0.669601
O O9 0.021577 0.265051 0.279679
O O10 0.904383 0.007235 0.346998
O O11 0.285610 0.807106 0.018547
O O12 0.473341 0.713257 0.891904
O O13 0.882762 0.566375 0.726270
O O14 0.937861 0.902889 0.674081
O O15 0.367082 0.639461 0.797600
#
# Coordination Sequence:
#
# PCOD9275709 Si02
#       8
#     8   8   4   8   8   8   8   8
#     4  10  21  39  62  86 119 165 195 251 303 357
#     4  10  22  34  61  84 122 161 203 244 305 354
#     4  10  20  40  66  90 118 164 194 256 310 354
#     4   9  21  38  60  91 123 156 206 246 297 366
#     4  10  21  38  62  85 121 153 206 246 306 359
#     4   9  18  39  59  83 121 156 192 254 292 356
#     4  10  20  39  64  84 125 158 201 247 309 351
#     4  11  21  38  55  89 121 159 203 252 296 362
#
# _framework density 23.501169000000001
#
# number of rings (size 3 to 8) (size 9 to 14) (size 15 to 20)
#    0.000    2.133    2.667    0.800    3.733    1.600 
#    0.000   12.000    2.933    0.000    0.000    0.000 
#    0.000    0.000    0.000    0.000    0.000    0.000 
#
# Total GULP energy -167316.869496 kJ/mol
# GULP energy per Si atom -5577.228983 kJ/mol
# Density = 2.344768 g / cm^3
# Si number density = 23.501169 Si / 1000 Ang^3
#
#
#
# Elastic Constant Matrix: (Units=GPa)
#
#
# Indices 1 2 3 4 5 6 
#
# 1 113.0429 10.6274 27.3559 -0.0047 -2.8716 0.0014
# 2 10.6274 55.8866 3.8119 0.0007 -1.6580 -0.0025
# 3 27.3559 3.8119 140.6597 -0.0157 -18.2539 -0.0053
# 4 -0.0047 0.0007 -0.0157 36.1270 0.0081 -10.3738
# 5 -2.8716 -1.6580 -18.2539 0.0081 24.7422 0.0098
# 6 0.0014 -0.0025 -0.0053 -10.3738 0.0098 1.1332
#
#
#
# Elastic Compliance Matrix: (Units=1/GPa)
#
#
# Indices 1 2 3 4 5 6 
#
# 1 0.009440 -0.001681 -0.001839 0.000003 -0.000374 0.000009
# 2 -0.001681 0.018245 -0.000038 -0.000005 0.001000 -0.000016
# 3 -0.001839 -0.000038 0.008228 0.000001 0.005854 -0.000005
# 4 0.000003 -0.000005 0.000001 -0.016996 0.000068 -0.155584
# 5 -0.000374 0.001000 0.005854 0.000068 0.044759 0.000262
# 6 0.000009 -0.000016 -0.000005 -0.155584 0.000262 -0.541822
#
#
# Mechanical properties :
#
#
# Convention : Reuss Voigt Hill
#
# Bulk Modulus (GPa) = 34.72478 43.68663 39.20570
# Shear Modulus (GPa) = -10.83585 30.25342 9.70879
#
# Velocity S-wave (km/s) = -2.14960 3.59181 2.03474
# Velocity P-wave (km/s) = 2.94055 5.98590 4.71581
#
# Compressibility (1/GPa) = 0.02879788
#
# Stress axis : x y z
#
# Youngs Moduli (GPa) = 105.93560 54.80890 121.54051
#
# Poissons Ratio (x) = 0.09212 0.22349
# Poissons Ratio (y) = 0.17805 0.00460
# Poissons Ratio (z) = 0.19479 0.00207
#
# Static dielectric constant tensor:
#      x y z
#    x 1.937270 0.000000 0.011520 
#    y 0.000000 2.020800 0.000010 
#    z 0.011520 0.000010 1.908760 
# 
# From -- ./inp_files/302052.got.cif
#   From: 2010.05.17/outbox.cif.g08.bks.cpg/sg15_152_cif.got.tgz:302052.got - 2010.06.03 18:47:42.
