data_PCOD9275176
_publ_section_title
;
Structure prediction by ZEFSAII (Michael W. Deem and Ramdas Pophale) SiO2 
 PCOD9275176
Probable space group: C 2/C
;
_chemical_formula_sum "Si O2"
_cell_formula_units_Z 36
_cell_length_a 18.367783
_cell_length_b 11.651199
_cell_length_c 19.023450
_cell_angle_alpha 90.000000
_cell_angle_beta 158.372859
_cell_angle_gamma 90.000000
_cell_volume 1500.481582
_symmetry_space_group_name_H-M "C 2/C"
_symmetry_group_IT_number 15
_symmetry_cell_setting 'monoclinic'
loop_
_space_group_symop_operation_xyz
x,y,z
-x,y,1/2-z
-x,-y,-z
x,-y,1/2+z
1/2+x,1/2+y,z
1/2-x,1/2+y,1/2-z
1/2-x,1/2-y,-z
1/2+x,1/2-y,1/2+z
loop_
_atom_site_type_symbol
_atom_site_label
_atom_site_fract_x
_atom_site_fract_y
_atom_site_fract_z
Si Si1 0.420608 0.914558 0.600581
Si Si2 0.116527 0.585555 0.052983
Si Si3 0.472716 0.652017 0.010519
Si Si4 0.841140 0.934651 0.954762
Si Si5 0.000000 0.113297 0.750000
O O1 0.500000 0.939982 0.750000
O O2 0.366305 0.026658 0.507526
O O3 0.628285 0.872132 0.754554
O O4 0.218829 0.840060 0.421587
O O5 0.331810 0.601602 0.278670
O O6 0.000000 0.500000 0.000000
O O7 0.037094 0.715055 0.980812
O O8 0.502909 0.630472 0.954883
O O9 0.312183 0.564143 0.898239
O O10 0.921691 0.941598 0.106640
#
# Coordination Sequence:
#
# PCOD9275176 Si02
#       5
#     8   8   8   8   4
#     4  10  21  40  65  97 138 175 219 276 336 407
#     4  12  24  43  69 100 137 180 227 285 339 399
#     4  11  24  40  68  99 137 178 230 282 339 401
#     4  10  21  42  66 101 135 177 227 279 339 406
#     4  10  20  38  70  98 140 180 218 280 340 406
#
# _framework density 23.992297000000001
#
# number of rings (size 3 to 8) (size 9 to 14) (size 15 to 20)
#    0.000    1.333    4.444    1.333    3.111    0.000 
#    2.000    3.333    2.444    4.000    0.000    0.000 
#    0.000    0.000    0.000    0.000    0.000    0.000 
#
# Total GULP energy -100355.582416 kJ/mol
# GULP energy per Si atom -5575.310134 kJ/mol
# Density = 2.393769 g / cm^3
# Si number density = 23.992297 Si / 1000 Ang^3
#
#
#
# Elastic Constant Matrix: (Units=GPa)
#
#
# Indices 1 2 3 4 5 6 
#
# 1 82.9022 35.5785 35.9056 -0.0025 -9.8211 -0.0014
# 2 35.5785 160.4840 36.1805 -0.0085 -0.0482 -0.0043
# 3 35.9056 36.1805 153.4540 -0.0086 18.2432 -0.0035
# 4 -0.0025 -0.0085 -0.0086 -8.9041 -0.0046 -50.5420
# 5 -9.8211 -0.0482 18.2432 -0.0046 53.5974 -0.0018
# 6 -0.0014 -0.0043 -0.0035 -50.5420 -0.0018 -5.3947
#
#
#
# Elastic Compliance Matrix: (Units=1/GPa)
#
#
# Indices 1 2 3 4 5 6 
#
# 1 0.015104 -0.002583 -0.003391 0.000000 0.003920 0.000000
# 2 -0.002583 0.007039 -0.001042 0.000000 -0.000112 -0.000001
# 3 -0.003391 -0.001042 0.007951 0.000000 -0.003329 -0.000001
# 4 0.000000 0.000000 0.000000 0.002152 0.000000 -0.020165
# 5 0.003920 -0.000112 -0.003329 0.000000 0.020509 -0.000001
# 6 0.000000 -0.000001 -0.000001 -0.020165 -0.000001 0.003552
#
#
# Mechanical properties :
#
#
# Convention : Reuss Voigt Hill
#
# Bulk Modulus (GPa) = 62.25667 68.01882 65.13775
# Shear Modulus (GPa) = 66.05633 27.13808 46.59721
#
# Velocity S-wave (km/s) = 5.25282 3.36686 4.41179
# Velocity P-wave (km/s) = 7.92429 6.59743 7.29111
#
# Compressibility (1/GPa) = 0.01606254
#
# Stress axis : x y z
#
# Youngs Moduli (GPa) = 66.20826 142.07404 125.76340
#
# Poissons Ratio (x) = 0.36695 0.42647
# Poissons Ratio (y) = 0.17100 0.13103
# Poissons Ratio (z) = 0.22452 0.14802
#
# Static dielectric constant tensor:
#      x y z
#    x 2.060940 0.000000 0.134740 
#    y 0.000000 1.953570 0.000000 
#    z 0.134740 0.000000 2.011090 
# 
# From -- ./inp_files/252782.got.cif
#   From: 2010.05.17/outbox.cif.g08.bks.cpg/sg15_127_cif.got.tgz:252782.got - 2010.06.03 18:47:42.
