data_PCOD9275900
_publ_section_title
;
Structure prediction by ZEFSAII (Michael W. Deem and Ramdas Pophale) SiO2 
 PCOD9275900
Probable space group: C 2/C
;
_chemical_formula_sum "Si O2"
_cell_formula_units_Z 48
_cell_length_a 23.042052
_cell_length_b 11.654950
_cell_length_c 16.749646
_cell_angle_alpha 90.000000
_cell_angle_beta 153.755951
_cell_angle_gamma 90.000000
_cell_volume 1989.076802
_symmetry_space_group_name_H-M "C 2/C"
_symmetry_group_IT_number 15
_symmetry_cell_setting 'monoclinic'
loop_
_space_group_symop_operation_xyz
x,y,z
-x,y,1/2-z
-x,-y,-z
x,-y,1/2+z
1/2+x,1/2+y,z
1/2-x,1/2+y,1/2-z
1/2-x,1/2-y,-z
1/2+x,1/2-y,1/2+z
loop_
_atom_site_type_symbol
_atom_site_label
_atom_site_fract_x
_atom_site_fract_y
_atom_site_fract_z
Si Si1 0.019976 0.167297 0.112634
Si Si2 0.602425 0.120814 0.303352
Si Si3 0.728302 0.590669 0.765920
Si Si4 0.614762 0.546121 0.797741
Si Si5 0.564028 0.706837 0.985289
Si Si6 0.532130 0.936144 0.456217
O O1 0.994721 0.302734 0.087221
O O2 0.098316 0.092331 0.275228
O O3 0.875894 0.109731 0.931888
O O4 0.076843 0.162138 0.091760
O O5 0.500000 0.150810 0.250000
O O6 0.758720 0.106743 0.506529
O O7 0.561195 0.207505 0.182174
O O8 0.555002 0.996545 0.218146
O O9 0.648276 0.570857 0.746852
O O10 0.820780 0.480840 0.873083
O O11 0.815946 0.706009 0.881375
O O12 0.472902 0.609973 0.626250
O O13 0.500000 0.000000 0.500000
#
# Coordination Sequence:
#
# PCOD9275900 Si02
#       6
#     8   8   8   8   8   8
#     4  11  24  38  66  98 128 171 217 283 322 398
#     4  11  21  41  66  94 130 181 214 271 338 395
#     4  10  21  37  65  90 128 164 215 264 328 388
#     4  11  23  40  63  99 132 161 221 274 339 387
#     4  10  20  39  65  95 123 171 214 268 325 391
#     4  11  22  41  65  93 126 177 223 263 333 402
#
# _framework density 24.131799999999998
#
# number of rings (size 3 to 8) (size 9 to 14) (size 15 to 20)
#    0.000    1.333    6.667    2.500    4.667    0.667 
#    0.000    0.000    0.000    0.000    0.000    0.000 
#    0.000    0.000    0.000    0.000    0.000    0.000 
#
# Total GULP energy -133709.143423 kJ/mol
# GULP energy per Si atom -5571.214309 kJ/mol
# Density = 2.407687 g / cm^3
# Si number density = 24.131800 Si / 1000 Ang^3
#
#
#
# Elastic Constant Matrix: (Units=GPa)
#
#
# Indices 1 2 3 4 5 6 
#
# 1 24.6558 -5.0382 3.0366 0.0000 11.0309 0.0000
# 2 -5.0382 142.8317 31.7866 0.0000 3.3402 0.0000
# 3 3.0366 31.7866 70.8069 0.0000 11.7690 0.0000
# 4 0.0000 0.0000 0.0000 29.2612 0.0000 3.7644
# 5 11.0309 3.3402 11.7690 0.0000 22.8110 0.0000
# 6 0.0000 0.0000 0.0000 3.7644 0.0000 30.2349
#
#
#
# Elastic Compliance Matrix: (Units=1/GPa)
#
#
# Indices 1 2 3 4 5 6 
#
# 1 0.052677 0.002224 0.001127 0.000000 -0.026380 0.000000
# 2 0.002224 0.007883 -0.003570 0.000000 -0.000388 0.000000
# 3 0.001127 -0.003570 0.017152 0.000000 -0.008872 0.000000
# 4 0.000000 0.000000 0.000000 0.034731 0.000000 -0.004324
# 5 -0.026380 -0.000388 -0.008872 0.000000 0.061229 0.000000
# 6 0.000000 0.000000 0.000000 -0.004324 0.000000 0.033613
#
#
# Mechanical properties :
#
#
# Convention : Reuss Voigt Hill
#
# Bulk Modulus (GPa) = 12.94086 33.09603 23.01844
# Shear Modulus (GPa) = 21.41512 30.36204 25.88858
#
# Velocity S-wave (km/s) = 2.98220 3.55093 3.27891
# Velocity P-wave (km/s) = 4.15117 5.52780 4.88819
#
# Compressibility (1/GPa) = 0.07727460
#
# Stress axis : x y z
#
# Youngs Moduli (GPa) = 18.98380 126.85168 58.30330
#
# Poissons Ratio (x) = -0.28214 -0.06572
# Poissons Ratio (y) = -0.04222 0.20813
# Poissons Ratio (z) = -0.02140 0.45284
#
# Static dielectric constant tensor:
#      x y z
#    x 2.033330 0.000000 0.100530 
#    y 0.000000 1.644240 0.000000 
#    z 0.100530 0.000000 2.061730 
# 
# From -- ./inp_files/259239.got.cif
#   From: 2010.05.17/outbox.cif.g08.bks.cpg/sg15_130_cif.got.tgz:259239.got - 2010.06.03 18:47:42.
