data_PCOD9275437
_publ_section_title
;
Structure prediction by ZEFSAII (Michael W. Deem and Ramdas Pophale) SiO2 
 PCOD9275437
Probable space group: C 2/C
;
_chemical_formula_sum "Si O2"
_cell_formula_units_Z 48
_cell_length_a 20.599353
_cell_length_b 9.677380
_cell_length_c 13.577601
_cell_angle_alpha 90.000000
_cell_angle_beta 69.376397
_cell_angle_gamma 90.000000
_cell_volume 2533.206534
_symmetry_space_group_name_H-M "C 2/C"
_symmetry_group_IT_number 15
_symmetry_cell_setting 'monoclinic'
loop_
_space_group_symop_operation_xyz
x,y,z
-x,y,1/2-z
-x,-y,-z
x,-y,1/2+z
1/2+x,1/2+y,z
1/2-x,1/2+y,1/2-z
1/2-x,1/2-y,-z
1/2+x,1/2-y,1/2+z
loop_
_atom_site_type_symbol
_atom_site_label
_atom_site_fract_x
_atom_site_fract_y
_atom_site_fract_z
Si Si1 0.932559 0.384971 0.119090
Si Si2 0.672673 0.614203 0.884694
Si Si3 0.828074 0.558815 0.843131
Si Si4 0.410831 0.867093 0.486984
Si Si5 0.348110 0.694167 0.032462
Si Si6 0.193837 0.234259 0.661990
O O1 0.881459 0.371518 0.238748
O O2 0.910718 0.279322 0.044874
O O3 0.012686 0.361321 0.100930
O O4 0.920759 0.535740 0.077083
O O5 0.752675 0.628690 0.877143
O O6 0.653055 0.457625 0.920378
O O7 0.672913 0.649051 0.768800
O O8 0.621926 0.721734 0.964713
O O9 0.858912 0.565641 0.935900
O O10 0.820008 0.397874 0.818232
O O11 0.276771 0.773792 0.100033
O O12 0.344833 0.686052 0.916222
#
# Coordination Sequence:
#
# PCOD9275437 Si02
#       6
#     8   8   8   8   8   8
#     4  11  22  40  63  87 128 162 204 248 306 373
#     4  11  23  38  65  94 124 158 208 262 302 363
#     4  11  21  39  66  88 124 165 208 255 301 365
#     4  11  24  39  60  94 123 161 205 253 304 368
#     4  10  22  39  63  89 124 165 197 262 309 358
#     4  10  20  39  61  92 123 159 211 249 310 365
#
# _framework density 18.948318
#
# number of rings (size 3 to 8) (size 9 to 14) (size 15 to 20)
#    0.000    1.333    5.000    1.000    0.000    2.000 
#    0.000    0.833    0.000    0.000    0.000    0.000 
#    0.000    0.000    0.000    0.000    0.000    0.000 
#
# Total GULP energy -134050.488307 kJ/mol
# GULP energy per Si atom -5585.437013 kJ/mol
# Density = 1.890519 g / cm^3
# Si number density = 18.948318 Si / 1000 Ang^3
#
#
#
# Elastic Constant Matrix: (Units=GPa)
#
#
# Indices 1 2 3 4 5 6 
#
# 1 52.3834 29.2908 6.9406 0.0000 4.8163 0.0000
# 2 29.2908 75.6748 14.2254 0.0000 -2.8531 0.0000
# 3 6.9406 14.2254 39.7527 0.0000 7.8793 0.0000
# 4 0.0000 0.0000 0.0000 25.4297 0.0000 0.5075
# 5 4.8163 -2.8531 7.8793 0.0000 26.5095 0.0000
# 6 0.0000 0.0000 0.0000 0.5075 0.0000 22.8085
#
#
#
# Elastic Compliance Matrix: (Units=1/GPa)
#
#
# Indices 1 2 3 4 5 6 
#
# 1 0.025181 -0.010026 0.000331 0.000000 -0.005753 0.000000
# 2 -0.010026 0.018423 -0.005947 0.000000 0.005572 0.000000
# 3 0.000331 -0.005947 0.029077 0.000000 -0.009343 0.000000
# 4 0.000000 0.000000 0.000000 0.039342 0.000000 -0.000875
# 5 -0.005753 0.005572 -0.009343 0.000000 0.042144 0.000000
# 6 0.000000 0.000000 0.000000 -0.000875 0.000000 0.043863
#
#
# Mechanical properties :
#
#
# Convention : Reuss Voigt Hill
#
# Bulk Modulus (GPa) = 24.15478 29.85826 27.00652
# Shear Modulus (GPa) = 20.56670 22.77315 21.66992
#
# Velocity S-wave (km/s) = 3.29813 3.47054 3.38543
# Velocity P-wave (km/s) = 5.22293 5.64371 5.43739
#
# Compressibility (1/GPa) = 0.04139967
#
# Stress axis : x y z
#
# Youngs Moduli (GPa) = 39.71242 54.28019 34.39092
#
# Poissons Ratio (x) = 0.54420 -0.01140
# Poissons Ratio (y) = 0.39815 0.20451
# Poissons Ratio (z) = -0.01316 0.32278
#
# Static dielectric constant tensor:
#      x y z
#    x 1.650210 0.000000 -0.006660 
#    y 0.000000 1.636100 0.000000 
#    z -0.006660 0.000000 1.651000 
# 
# From -- ./inp_files/116733.got.cif
#   From: 2010.05.17/outbox.cif.g08.bks.cpg/sg15_59_cif.got.tgz:116733.got - 2010.06.03 18:47:42.
