data_PCOD9275429
_publ_section_title
;
Structure prediction by ZEFSAII (Michael W. Deem and Ramdas Pophale) SiO2 
 PCOD9275429
Probable space group: C 2/C
;
_chemical_formula_sum "Si O2"
_cell_formula_units_Z 40
_cell_length_a 21.324099
_cell_length_b 12.932707
_cell_length_c 12.727358
_cell_angle_alpha 90.000000
_cell_angle_beta 34.825932
_cell_angle_gamma 90.000000
_cell_volume 2004.468630
_symmetry_space_group_name_H-M "C 2/C"
_symmetry_group_IT_number 15
_symmetry_cell_setting 'monoclinic'
loop_
_space_group_symop_operation_xyz
x,y,z
-x,y,1/2-z
-x,-y,-z
x,-y,1/2+z
1/2+x,1/2+y,z
1/2-x,1/2+y,1/2-z
1/2-x,1/2-y,-z
1/2+x,1/2-y,1/2+z
loop_
_atom_site_type_symbol
_atom_site_label
_atom_site_fract_x
_atom_site_fract_y
_atom_site_fract_z
Si Si1 0.591984 0.905202 0.957675
Si Si2 0.428656 0.932446 0.753723
Si Si3 0.153586 0.835414 0.640134
Si Si4 0.598756 0.319754 0.486234
Si Si5 0.768451 0.027390 0.834592
O O1 0.568623 0.888809 0.866895
O O2 0.639901 0.798085 0.933603
O O3 0.683012 0.991925 0.860585
O O4 0.481722 0.952511 0.162457
O O5 0.500000 0.883638 0.750000
O O6 0.307410 0.931569 0.966477
O O7 0.250000 0.750000 0.500000
O O8 0.133818 0.872793 0.547329
O O9 0.179097 0.926044 0.686500
O O10 0.031687 0.799167 0.840022
O O11 0.647669 0.389102 0.326382
#
# Coordination Sequence:
#
# PCOD9275429 Si02
#       5
#     8   8   8   8   8
#     4  10  20  39  61  91 120 164 214 255 307 377
#     4   9  20  36  62  86 125 160 209 257 306 364
#     4  11  22  40  63  89 122 166 210 259 309 375
#     4  11  24  37  64  93 121 163 213 256 317 378
#     4  11  21  38  60  90 126 160 203 266 316 367
#
# _framework density 19.955414000000001
#
# number of rings (size 3 to 8) (size 9 to 14) (size 15 to 20)
#    0.000    1.600    2.000    3.000    5.600    4.000 
#    0.000    0.000    4.400    0.000    0.000    0.000 
#    0.000    0.000    0.000    0.000    0.000    0.000 
#
# Total GULP energy -111388.662015 kJ/mol
# GULP energy per Si atom -5569.433101 kJ/mol
# Density = 1.990999 g / cm^3
# Si number density = 19.955414 Si / 1000 Ang^3
#
#
#
# Elastic Constant Matrix: (Units=GPa)
#
#
# Indices 1 2 3 4 5 6 
#
# 1 75.8156 -1.0184 32.3985 0.0000 13.0467 0.0000
# 2 -1.0184 61.4882 40.8431 0.0000 -8.0720 0.0000
# 3 32.3985 40.8431 132.6353 0.0000 -0.4898 0.0000
# 4 0.0000 0.0000 0.0000 23.8326 0.0000 -0.0638
# 5 13.0467 -8.0720 -0.4898 0.0000 34.4842 0.0000
# 6 0.0000 0.0000 0.0000 -0.0638 0.0000 26.2827
#
#
#
# Elastic Compliance Matrix: (Units=1/GPa)
#
#
# Indices 1 2 3 4 5 6 
#
# 1 0.016253 0.002751 -0.004838 0.000000 -0.005574 0.000000
# 2 0.002751 0.021701 -0.007340 0.000000 0.003935 0.000000
# 3 -0.004838 -0.007340 0.010982 0.000000 0.000268 0.000000
# 4 0.000000 0.000000 0.000000 0.041960 0.000000 0.000102
# 5 -0.005574 0.003935 0.000268 0.000000 0.032033 0.000000
# 6 0.000000 0.000000 0.000000 0.000102 0.000000 0.038048
#
#
# Mechanical properties :
#
#
# Convention : Reuss Voigt Hill
#
# Bulk Modulus (GPa) = 33.24124 46.04281 39.64203
# Shear Modulus (GPa) = 26.33541 30.10094 28.21818
#
# Velocity S-wave (km/s) = 3.63673 3.88804 3.76448
# Velocity P-wave (km/s) = 5.85903 6.57866 6.22925
#
# Compressibility (1/GPa) = 0.03008311
#
# Stress axis : x y z
#
# Youngs Moduli (GPa) = 61.52534 46.08109 91.05459
#
# Poissons Ratio (x) = -0.12677 0.44051
# Poissons Ratio (y) = -0.16926 0.66833
# Poissons Ratio (z) = 0.29765 0.33823
#
# Static dielectric constant tensor:
#      x y z
#    x 1.737150 0.000000 -0.035790 
#    y 0.000000 1.734730 0.000000 
#    z -0.035790 0.000000 1.729840 
# 
# From -- ./inp_files/111382.got.cif
#   From: 2010.05.17/outbox.cif.g08.bks.cpg/sg15_56_cif.got.tgz:111382.got - 2010.06.03 18:47:42.
