data_PCOD9275815
_publ_section_title
;
Structure prediction by ZEFSAII (Michael W. Deem and Ramdas Pophale) SiO2 
 PCOD9275815
Probable space group: C 2/C
;
_chemical_formula_sum "Si O2"
_cell_formula_units_Z 40
_cell_length_a 23.098952
_cell_length_b 16.412956
_cell_length_c 14.161686
_cell_angle_alpha 90.000000
_cell_angle_beta 159.763492
_cell_angle_gamma 90.000000
_cell_volume 1857.119011
_symmetry_space_group_name_H-M "C 2/C"
_symmetry_group_IT_number 15
_symmetry_cell_setting 'monoclinic'
loop_
_space_group_symop_operation_xyz
x,y,z
-x,y,1/2-z
-x,-y,-z
x,-y,1/2+z
1/2+x,1/2+y,z
1/2-x,1/2+y,1/2-z
1/2-x,1/2-y,-z
1/2+x,1/2-y,1/2+z
loop_
_atom_site_type_symbol
_atom_site_label
_atom_site_fract_x
_atom_site_fract_y
_atom_site_fract_z
Si Si1 0.672331 0.108771 0.477078
Si Si2 0.016161 0.165090 0.435477
Si Si3 0.000000 0.762277 0.250000
Si Si4 0.662808 0.641699 0.162222
Si Si5 0.000000 0.298810 0.250000
Si Si6 0.934075 0.009754 0.756335
O O1 0.603766 0.198727 0.343809
O O2 0.775341 0.061191 0.553586
O O3 0.500000 0.067108 0.250000
O O4 0.797424 0.131596 0.755756
O O5 0.946389 0.191620 0.429558
O O6 0.987158 0.236628 0.318053
O O7 0.915411 0.085475 0.246782
O O8 0.123548 0.817307 0.501591
O O9 0.846422 0.646285 0.483187
O O10 0.587386 0.551262 0.047720
O O11 0.000000 0.018051 0.750000
#
# Coordination Sequence:
#
# PCOD9275815 Si02
#       6
#     8   8   4   8   4   8
#     4   9  20  40  64  95 129 169 224 283 325 398
#     4  11  23  43  65  91 143 179 220 280 356 395
#     4  10  20  39  65 100 128 170 226 288 334 391
#     4  11  23  40  67  98 129 181 224 280 336 407
#     4  12  22  43  67  98 134 176 234 278 336 407
#     4  11  23  43  68  94 137 184 222 275 351 408
#
# _framework density 21.538737999999999
#
# number of rings (size 3 to 8) (size 9 to 14) (size 15 to 20)
#    0.600    0.800    4.000    3.000    0.000    4.800 
#    7.200    1.000    0.000    0.000    0.000    0.000 
#    0.000    0.000    0.000    0.000    0.000    0.000 
#
# Total GULP energy -111377.200105 kJ/mol
# GULP energy per Si atom -5568.860005 kJ/mol
# Density = 2.148972 g / cm^3
# Si number density = 21.538738 Si / 1000 Ang^3
#
#
#
# Elastic Constant Matrix: (Units=GPa)
#
#
# Indices 1 2 3 4 5 6 
#
# 1 97.4427 6.3128 30.7983 0.0000 2.5413 0.0000
# 2 6.3128 58.6087 19.4608 0.0000 14.8324 0.0000
# 3 30.7983 19.4608 140.3325 0.0000 10.4594 0.0000
# 4 0.0000 0.0000 0.0000 -209.8892 0.0000 115.4521
# 5 2.5413 14.8324 10.4594 0.0000 27.0016 0.0000
# 6 0.0000 0.0000 0.0000 115.4521 0.0000 -37.3552
#
#
#
# Elastic Compliance Matrix: (Units=1/GPa)
#
#
# Indices 1 2 3 4 5 6 
#
# 1 0.011037 -0.000431 -0.002371 0.000000 0.000116 0.000000
# 2 -0.000431 0.020391 -0.001958 0.000000 -0.010402 0.000000
# 3 -0.002371 -0.001958 0.008054 0.000000 -0.001821 0.000000
# 4 0.000000 0.000000 0.000000 0.006806 0.000000 0.021034
# 5 0.000116 -0.010402 -0.001821 0.000000 0.043443 0.000000
# 6 0.000000 0.000000 0.000000 0.021034 0.000000 0.038240
#
#
# Mechanical properties :
#
#
# Convention : Reuss Voigt Hill
#
# Bulk Modulus (GPa) = 33.37585 45.50308 39.43946
# Shear Modulus (GPa) = 33.90332 -28.06109 2.92112
#
# Velocity S-wave (km/s) = 3.97175 -3.61337 1.16583
# Velocity P-wave (km/s) = 6.04669 1.93994 4.49031
#
# Compressibility (1/GPa) = 0.02996179
#
# Stress axis : x y z
#
# Youngs Moduli (GPa) = 90.60642 49.04021 124.16878
#
# Poissons Ratio (x) = 0.02113 0.29442
# Poissons Ratio (y) = 0.03905 0.24311
# Poissons Ratio (z) = 0.21484 0.09602
#
# Static dielectric constant tensor:
#      x y z
#    x 1.861960 0.000000 0.011930 
#    y 0.000000 1.798410 0.000000 
#    z 0.011930 0.000000 1.868670 
# 
# From -- ./inp_files/174152.got.cif
#   From: 2010.05.17/outbox.cif.g08.bks.cpg/sg15_88_cif.got.tgz:174152.got - 2010.06.03 18:47:42.
