data_PCOD9275534
_publ_section_title
;
Structure prediction by ZEFSAII (Michael W. Deem and Ramdas Pophale) SiO2 
 PCOD9275534
Probable space group: C 2/C
;
_chemical_formula_sum "Si O2"
_cell_formula_units_Z 48
_cell_length_a 20.293783
_cell_length_b 7.811112
_cell_length_c 18.413508
_cell_angle_alpha 90.000000
_cell_angle_beta 57.796185
_cell_angle_gamma 90.000000
_cell_volume 2469.810964
_symmetry_space_group_name_H-M "C 2/C"
_symmetry_group_IT_number 15
_symmetry_cell_setting 'monoclinic'
loop_
_space_group_symop_operation_xyz
x,y,z
-x,y,1/2-z
-x,-y,-z
x,-y,1/2+z
1/2+x,1/2+y,z
1/2-x,1/2+y,1/2-z
1/2-x,1/2-y,-z
1/2+x,1/2-y,1/2+z
loop_
_atom_site_type_symbol
_atom_site_label
_atom_site_fract_x
_atom_site_fract_y
_atom_site_fract_z
Si Si1 0.421582 0.371303 0.248888
Si Si2 0.381600 0.956727 0.015341
Si Si3 0.070726 0.736995 0.764326
Si Si4 0.804635 0.374202 0.420783
Si Si5 0.237845 0.734883 0.092678
Si Si6 0.558125 0.915333 0.879244
O O1 0.500000 0.337963 0.250000
O O2 0.431070 0.563694 0.213069
O O3 0.341615 0.334140 0.339965
O O4 0.417084 0.232735 0.188752
O O5 0.314750 0.824123 0.078459
O O6 0.392403 0.084486 0.076198
O O7 0.467940 0.883946 0.952754
O O8 0.357957 0.040766 0.952555
O O9 0.145675 0.722692 0.668501
O O10 0.066887 0.597142 0.830925
O O11 0.000000 0.701104 0.750000
O O12 0.750000 0.250000 0.500000
O O13 0.767518 0.530631 0.396526
O O14 0.250000 0.750000 0.000000
#
# Coordination Sequence:
#
# PCOD9275534 Si02
#       6
#     8   8   8   8   8   8
#     4  11  22  39  69  95 124 167 218 262 316 381
#     4  10  23  42  64  91 131 169 210 262 330 372
#     4  11  21  38  66  95 121 167 220 257 311 386
#     4  11  21  39  65  94 126 163 215 266 312 377
#     4  10  20  39  62  92 124 163 209 260 313 372
#     4  11  22  44  64  92 132 171 207 265 325 378
#
# _framework density 19.434685999999999
#
# number of rings (size 3 to 8) (size 9 to 14) (size 15 to 20)
#    0.000    1.333    3.333    4.500    0.000    1.333 
#    9.000    1.667    0.000    0.000    0.000    0.000 
#    0.000    0.000    0.000    0.000    0.000    0.000 
#
# Total GULP energy -133778.748573 kJ/mol
# GULP energy per Si atom -5574.114524 kJ/mol
# Density = 1.939045 g / cm^3
# Si number density = 19.434686 Si / 1000 Ang^3
#
#
#
# Elastic Constant Matrix: (Units=GPa)
#
#
# Indices 1 2 3 4 5 6 
#
# 1 78.9296 23.5435 24.5435 0.0000 -10.4547 0.0002
# 2 23.5435 69.5236 16.8831 -0.0003 2.0177 0.0002
# 3 24.5435 16.8831 77.7497 0.0000 -15.4211 0.0000
# 4 0.0000 -0.0003 0.0000 18.2384 0.0000 -0.4581
# 5 -10.4547 2.0177 -15.4211 0.0000 34.3935 0.0000
# 6 0.0002 0.0002 0.0000 -0.4581 0.0000 8.8617
#
#
#
# Elastic Compliance Matrix: (Units=1/GPa)
#
#
# Indices 1 2 3 4 5 6 
#
# 1 0.015498 -0.004575 -0.003195 0.000000 0.003547 0.000000
# 2 -0.004575 0.016750 -0.002924 0.000000 -0.003684 0.000000
# 3 -0.003195 -0.002924 0.015747 0.000000 0.006261 0.000000
# 4 0.000000 0.000000 0.000000 0.054901 0.000000 0.002838
# 5 0.003547 -0.003684 0.006261 0.000000 0.033177 0.000000
# 6 0.000000 0.000000 0.000000 0.002838 0.000000 0.112992
#
#
# Mechanical properties :
#
#
# Convention : Reuss Voigt Hill
#
# Bulk Modulus (GPa) = 37.58493 39.57147 38.57820
# Shear Modulus (GPa) = 17.90057 23.04756 20.47406
#
# Velocity S-wave (km/s) = 3.03819 3.44742 3.24926
# Velocity P-wave (km/s) = 5.62926 6.02094 5.82839
#
# Compressibility (1/GPa) = 0.02660641
#
# Stress axis : x y z
#
# Youngs Moduli (GPa) = 64.52633 59.70210 63.50374
#
# Poissons Ratio (x) = 0.27314 0.20291
# Poissons Ratio (y) = 0.29521 0.18566
# Poissons Ratio (z) = 0.20618 0.17455
#
# Static dielectric constant tensor:
#      x y z
#    x 1.732490 0.000000 -0.030760 
#    y 0.000000 1.723500 0.000000 
#    z -0.030760 0.000000 1.699130 
# 
# From -- ./inp_files/213282.got.cif
#   From: 2010.05.17/outbox.cif.g08.bks.cpg/sg15_107_cif.got.tgz:213282.got - 2010.06.03 18:47:42.
