data_PCOD9275667
_publ_section_title
;
Structure prediction by ZEFSAII (Michael W. Deem and Ramdas Pophale) SiO2 
 PCOD9275667
Probable space group: C 2/C
;
_chemical_formula_sum "Si O2"
_cell_formula_units_Z 48
_cell_length_a 24.953354
_cell_length_b 5.354584
_cell_length_c 22.163462
_cell_angle_alpha 90.000000
_cell_angle_beta 140.651524
_cell_angle_gamma 90.000000
_cell_volume 1877.611541
_symmetry_space_group_name_H-M "C 2/C"
_symmetry_group_IT_number 15
_symmetry_cell_setting 'monoclinic'
loop_
_space_group_symop_operation_xyz
x,y,z
-x,y,1/2-z
-x,-y,-z
x,-y,1/2+z
1/2+x,1/2+y,z
1/2-x,1/2+y,1/2-z
1/2-x,1/2-y,-z
1/2+x,1/2-y,1/2+z
loop_
_atom_site_type_symbol
_atom_site_label
_atom_site_fract_x
_atom_site_fract_y
_atom_site_fract_z
Si Si1 0.427992 0.154102 0.813473
Si Si2 0.655386 0.314675 0.649430
Si Si3 0.799573 0.210339 0.693258
Si Si4 0.598627 0.178983 0.037016
Si Si5 0.133697 0.848008 0.851962
Si Si6 0.798445 0.082095 0.968587
O O1 0.359630 0.328943 0.790797
O O2 0.513527 0.177806 0.924197
O O3 0.439132 0.233077 0.753457
O O4 0.380973 0.890272 0.774026
O O5 0.750900 0.223099 0.716734
O O6 0.611965 0.564686 0.585585
O O7 0.604266 0.071729 0.580602
O O8 0.719104 0.354661 0.590692
O O9 0.829719 0.052346 0.661558
O O10 0.672914 0.197452 0.051504
O O11 0.206732 0.635588 0.917289
O O12 0.132824 0.949038 0.918953
#
# Coordination Sequence:
#
# PCOD9275667 Si02
#       6
#     8   8   8   8   8   8
#     4  11  26  37  65  98 133 168 221 274 329 386
#     4  11  25  43  67  93 136 178 219 262 332 398
#     4  10  22  38  65  96 126 173 219 277 322 388
#     4  11  24  45  65  95 131 182 215 270 330 394
#     4  10  20  39  63  93 125 166 220 271 320 383
#     4   9  20  40  64  88 126 170 218 263 329 389
#
# _framework density 25.564392999999999
#
# number of rings (size 3 to 8) (size 9 to 14) (size 15 to 20)
#    0.000    1.667    1.667    1.500    7.000    0.667 
#    0.000    0.000    0.000    0.000    0.000    0.000 
#    0.000    0.000    0.000    0.000    0.000    0.000 
#
# Total GULP energy -133789.792033 kJ/mol
# GULP energy per Si atom -5574.574668 kJ/mol
# Density = 2.550621 g / cm^3
# Si number density = 25.564393 Si / 1000 Ang^3
#
#
#
# Elastic Constant Matrix: (Units=GPa)
#
#
# Indices 1 2 3 4 5 6 
#
# 1 30.8723 -24.0616 -8.0720 -0.0010 -7.5497 0.0017
# 2 -24.0616 39.4257 -19.4516 0.0010 2.7507 0.0086
# 3 -8.0720 -19.4516 100.6468 -0.0010 -18.8401 -0.0032
# 4 -0.0010 0.0010 -0.0010 9.0281 -0.0015 -0.0162
# 5 -7.5497 2.7507 -18.8401 -0.0015 34.3531 -0.0018
# 6 0.0017 0.0086 -0.0032 -0.0162 -0.0018 20.8501
#
#
#
# Elastic Compliance Matrix: (Units=1/GPa)
#
#
# Indices 1 2 3 4 5 6 
#
# 1 0.114098 0.082862 0.031891 0.000014 0.035930 -0.000035
# 2 0.082862 0.088235 0.028735 0.000008 0.026904 -0.000036
# 3 0.031891 0.028735 0.021094 0.000006 0.016276 -0.000010
# 4 0.000014 0.000008 0.000006 0.110766 0.000010 0.000086
# 5 0.035930 0.026904 0.016276 0.000010 0.043778 -0.000008
# 6 -0.000035 -0.000036 -0.000010 0.000086 -0.000008 0.047962
#
#
# Mechanical properties :
#
#
# Convention : Reuss Voigt Hill
#
# Bulk Modulus (GPa) = 1.95924 7.53048 4.74486
# Shear Modulus (GPa) = 16.17649 27.68159 21.92904
#
# Velocity S-wave (km/s) = 2.51823 3.29419 2.93199
# Velocity P-wave (km/s) = 3.03700 4.17385 3.64996
#
# Compressibility (1/GPa) = 0.51040195
#
# Stress axis : x y z
#
# Youngs Moduli (GPa) = 8.76436 11.33340 47.40777
#
# Poissons Ratio (x) = -0.93911 -1.51188
# Poissons Ratio (y) = -0.72623 -1.36224
# Poissons Ratio (z) = -0.27950 -0.32566
#
# Static dielectric constant tensor:
#      x y z
#    x 2.082330 0.000000 -0.054100 
#    y 0.000000 2.387290 0.000000 
#    z -0.054100 0.000000 2.083980 
# 
# From -- ./inp_files/221023.got.cif
#   From: 2010.05.17/outbox.cif.g08.bks.cpg/sg15_111_cif.got.tgz:221023.got - 2010.06.03 18:47:42.
