data_PCOD9275373
_publ_section_title
;
Structure prediction by ZEFSAII (Michael W. Deem and Ramdas Pophale) SiO2 
 PCOD9275373
Probable space group: C 2/C
;
_chemical_formula_sum "Si O2"
_cell_formula_units_Z 44
_cell_length_a 7.726697
_cell_length_b 13.796068
_cell_length_c 22.740723
_cell_angle_alpha 90.000000
_cell_angle_beta 63.959171
_cell_angle_gamma 90.000000
_cell_volume 2178.023614
_symmetry_space_group_name_H-M "C 2/C"
_symmetry_group_IT_number 15
_symmetry_cell_setting 'monoclinic'
loop_
_space_group_symop_operation_xyz
x,y,z
-x,y,1/2-z
-x,-y,-z
x,-y,1/2+z
1/2+x,1/2+y,z
1/2-x,1/2+y,1/2-z
1/2-x,1/2-y,-z
1/2+x,1/2-y,1/2+z
loop_
_atom_site_type_symbol
_atom_site_label
_atom_site_fract_x
_atom_site_fract_y
_atom_site_fract_z
Si Si1 0.672490 0.770397 0.684705
Si Si2 0.426857 0.445755 0.650467
Si Si3 0.941894 0.253901 0.933008
Si Si4 0.838683 0.582329 0.029264
Si Si5 0.000000 0.920179 0.250000
Si Si6 0.650005 0.563619 0.939503
O O1 0.500000 0.813723 0.750000
O O2 0.859896 0.834882 0.668815
O O3 0.614343 0.775637 0.625310
O O4 0.665249 0.656393 0.703906
O O5 0.641466 0.448932 0.590934
O O6 0.429419 0.511165 0.708033
O O7 0.284645 0.492050 0.622166
O O8 0.075801 0.332229 0.944432
O O9 0.044793 0.150811 0.922555
O O10 0.750000 0.250000 0.000000
O O11 0.790345 0.606207 0.968294
O O12 0.000000 0.500000 0.000000
O O13 0.500000 0.500000 0.000000
#
# Coordination Sequence:
#
# PCOD9275373 Si02
#       6
#     8   8   8   8   4   8
#     4  10  24  44  68  98 134 185 227 280 357 407
#     4  11  22  45  69  97 139 175 230 284 340 421
#     4  12  22  41  66  94 137 178 224 289 339 405
#     4  11  24  38  66 102 132 178 227 282 344 411
#     4  10  24  44  74  90 138 184 228 282 346 408
#     4  10  20  39  60  97 128 171 220 276 345 401
#
# _framework density 20.201801
#
# number of rings (size 3 to 8) (size 9 to 14) (size 15 to 20)
#    0.545    0.727    1.818    6.000    2.545    0.000 
#    0.000    0.000    0.000    0.000    0.000    0.000 
#    0.000    0.000    0.000    0.000    0.000    0.000 
#
# Total GULP energy -122702.586504 kJ/mol
# GULP energy per Si atom -5577.390296 kJ/mol
# Density = 2.015582 g / cm^3
# Si number density = 20.201801 Si / 1000 Ang^3
#
#
#
# Elastic Constant Matrix: (Units=GPa)
#
#
# Indices 1 2 3 4 5 6 
#
# 1 78.6472 49.7609 56.4038 0.0000 14.4522 0.0000
# 2 49.7609 126.1321 37.3487 0.0000 20.1319 0.0000
# 3 56.4038 37.3487 124.6395 0.0000 32.2749 0.0000
# 4 0.0000 0.0000 0.0000 31.0780 0.0000 6.1895
# 5 14.4522 20.1319 32.2749 0.0000 35.2676 0.0000
# 6 0.0000 0.0000 0.0000 6.1895 0.0000 51.3482
#
#
#
# Elastic Compliance Matrix: (Units=1/GPa)
#
#
# Indices 1 2 3 4 5 6 
#
# 1 0.023069 -0.006849 -0.009111 0.000000 0.002794 0.000000
# 2 -0.006849 0.011053 0.000910 0.000000 -0.004336 0.000000
# 3 -0.009111 0.000910 0.014470 0.000000 -0.010028 0.000000
# 4 0.000000 0.000000 0.000000 0.032969 0.000000 -0.003974
# 5 0.002794 -0.004336 -0.010028 0.000000 0.038862 0.000000
# 6 0.000000 0.000000 0.000000 -0.003974 0.000000 0.019954
#
#
# Mechanical properties :
#
#
# Convention : Reuss Voigt Hill
#
# Bulk Modulus (GPa) = 54.07593 68.49397 61.28495
# Shear Modulus (GPa) = 28.30612 35.93246 32.11929
#
# Velocity S-wave (km/s) = 3.74728 4.22201 3.99171
# Velocity P-wave (km/s) = 6.74898 7.59906 7.18660
#
# Compressibility (1/GPa) = 0.01849252
#
# Stress axis : x y z
#
# Youngs Moduli (GPa) = 43.34784 90.47458 69.10808
#
# Poissons Ratio (x) = 0.61969 0.62962
# Poissons Ratio (y) = 0.29690 -0.06290
# Poissons Ratio (z) = 0.39493 -0.08235
#
# Static dielectric constant tensor:
#      x y z
#    x 1.743840 0.000000 0.005360 
#    y 0.000000 1.680410 0.000000 
#    z 0.005360 0.000000 1.719520 
# 
# From -- ./inp_files/263428.got.cif
#   From: 2010.05.17/outbox.cif.g08.bks.cpg/sg15_132_cif.got.tgz:263428.got - 2010.06.03 18:47:42.
