data_PCOD9275310
_publ_section_title
;
Structure prediction by ZEFSAII (Michael W. Deem and Ramdas Pophale) SiO2 
 PCOD9275310
Probable space group: C 2/C
;
_chemical_formula_sum "Si O2"
_cell_formula_units_Z 60
_cell_length_a 29.096371
_cell_length_b 18.386040
_cell_length_c 12.144424
_cell_angle_alpha 90.000000
_cell_angle_beta 21.119716
_cell_angle_gamma 90.000000
_cell_volume 2340.936830
_symmetry_space_group_name_H-M "C 2/C"
_symmetry_group_IT_number 15
_symmetry_cell_setting 'monoclinic'
loop_
_space_group_symop_operation_xyz
x,y,z
-x,y,1/2-z
-x,-y,-z
x,-y,1/2+z
1/2+x,1/2+y,z
1/2-x,1/2+y,1/2-z
1/2-x,1/2-y,-z
1/2+x,1/2-y,1/2+z
loop_
_atom_site_type_symbol
_atom_site_label
_atom_site_fract_x
_atom_site_fract_y
_atom_site_fract_z
Si Si1 0.211630 0.991603 0.406697
Si Si2 0.500000 0.013354 0.750000
Si Si3 0.185147 0.884779 0.290706
Si Si4 0.735896 0.648169 0.282358
Si Si5 0.297791 0.104534 0.896937
Si Si6 0.356657 0.203946 0.578605
Si Si7 0.945396 0.397200 0.590766
Si Si8 0.378976 0.758420 0.641342
O O1 0.189117 0.077957 0.455166
O O2 0.139350 0.950587 0.469507
O O3 0.205021 0.950277 0.538426
O O4 0.361745 0.978280 0.040477
O O5 0.527232 0.064076 0.584373
O O6 0.264787 0.833592 0.196066
O O7 0.087124 0.825731 0.457780
O O8 0.298898 0.909259 0.953787
O O9 0.640994 0.712301 0.461380
O O10 0.842785 0.692241 0.115104
O O11 0.771185 0.615499 0.084426
O O12 0.300674 0.179006 0.820698
O O13 0.445863 0.077721 0.567792
O O14 0.500000 0.175949 0.250000
O O15 0.964340 0.310356 0.526608
O O16 0.250000 0.750000 0.000000
#
# Coordination Sequence:
#
# PCOD9275310 Si02
#       8
#     8   4   8   8   8   8   8   8
#     4  11  23  34  51  86 115 156 181 221 289 347
#     4  12  22  30  48  84 124 150 182 216 288 366
#     4   9  20  34  55  77 113 147 193 231 272 343
#     4  11  22  38  56  85 118 150 188 235 288 340
#     4  11  22  35  57  86 120 146 188 238 284 343
#     4  10  20  39  60  83 103 148 200 241 284 333
#     4  11  18  33  52  80 118 149 181 228 280 339
#     4   9  19  35  54  80 110 151 192 226 271 333
#
# _framework density 25.630763999999999
#
# number of rings (size 3 to 8) (size 9 to 14) (size 15 to 20)
#    0.000    1.600    4.000    1.200    3.733    1.067 
#    0.000    0.000    0.000    0.800   12.133    0.000 
#    0.000    0.000    0.000    0.000    0.000    0.000 
#
# Total GULP energy -167574.986261 kJ/mol
# GULP energy per Si atom -5585.832875 kJ/mol
# Density = 2.557243 g / cm^3
# Si number density = 25.630764 Si / 1000 Ang^3
#
#
#
# Elastic Constant Matrix: (Units=GPa)
#
#
# Indices 1 2 3 4 5 6 
#
# 1 104.0861 43.4511 22.5791 0.0000 24.9063 0.0000
# 2 43.4511 135.3570 -3.8102 0.0000 1.6496 0.0000
# 3 22.5791 -3.8102 34.5589 -0.0001 15.7667 0.0000
# 4 0.0000 0.0000 -0.0001 26.1970 -0.0001 0.4186
# 5 24.9063 1.6496 15.7667 -0.0001 38.2194 0.0000
# 6 0.0000 0.0000 0.0000 0.4186 0.0000 43.6802
#
#
#
# Elastic Compliance Matrix: (Units=1/GPa)
#
#
# Indices 1 2 3 4 5 6 
#
# 1 0.014739 -0.004857 -0.007242 0.000000 -0.006408 0.000000
# 2 -0.004857 0.009032 0.003576 0.000000 0.001300 0.000000
# 3 -0.007242 0.003576 0.039393 0.000000 -0.011686 0.000000
# 4 0.000000 0.000000 0.000000 0.038178 0.000000 -0.000366
# 5 -0.006408 0.001300 -0.011686 0.000000 0.035105 0.000000
# 6 0.000000 0.000000 0.000000 -0.000366 0.000000 0.022897
#
#
# Mechanical properties :
#
#
# Convention : Reuss Voigt Hill
#
# Bulk Modulus (GPa) = 21.68336 44.27135 32.97736
# Shear Modulus (GPa) = 26.07359 35.73811 30.90585
#
# Velocity S-wave (km/s) = 3.19294 3.73814 3.47625
# Velocity P-wave (km/s) = 4.69802 5.99515 5.38578
#
# Compressibility (1/GPa) = 0.04611831
#
# Stress axis : x y z
#
# Youngs Moduli (GPa) = 67.84504 110.71828 25.38491
#
# Poissons Ratio (x) = 0.53779 0.18384
# Poissons Ratio (y) = 0.32954 -0.09078
# Poissons Ratio (z) = 0.49134 -0.39594
#
# Static dielectric constant tensor:
#      x y z
#    x 2.061550 0.000000 0.017070 
#    y 0.000000 2.137250 0.000000 
#    z 0.017070 0.000000 2.050220 
# 
# From -- ./inp_files/127230.got.cif
#   From: 2010.05.17/outbox.cif.g08.bks.cpg/sg15_64_cif.got.tgz:127230.got - 2010.06.03 18:47:42.
