data_PCOD9275134
_publ_section_title
;
Structure prediction by ZEFSAII (Michael W. Deem and Ramdas Pophale) SiO2 
 PCOD9275134
Probable space group: C 2/C
;
_chemical_formula_sum "Si O2"
_cell_formula_units_Z 44
_cell_length_a 10.647416
_cell_length_b 10.475033
_cell_length_c 18.555251
_cell_angle_alpha 90.000000
_cell_angle_beta 98.429379
_cell_angle_gamma 90.000000
_cell_volume 2047.148639
_symmetry_space_group_name_H-M "C 2/C"
_symmetry_group_IT_number 15
_symmetry_cell_setting 'monoclinic'
loop_
_space_group_symop_operation_xyz
x,y,z
-x,y,1/2-z
-x,-y,-z
x,-y,1/2+z
1/2+x,1/2+y,z
1/2-x,1/2+y,1/2-z
1/2-x,1/2-y,-z
1/2+x,1/2-y,1/2+z
loop_
_atom_site_type_symbol
_atom_site_label
_atom_site_fract_x
_atom_site_fract_y
_atom_site_fract_z
Si Si1 0.500000 0.378703 0.250000
Si Si2 0.470498 0.373428 0.826379
Si Si3 0.705946 0.759558 0.828916
Si Si4 0.813055 0.458462 0.438689
Si Si5 0.995047 0.676756 0.068860
Si Si6 0.367742 0.653397 0.019557
O O1 0.493630 0.478509 0.183522
O O2 0.373514 0.294872 0.244852
O O3 0.500000 0.312184 0.750000
O O4 0.320769 0.355249 0.825229
O O5 0.551838 0.322917 0.900408
O O6 0.767168 0.638918 0.874778
O O7 0.595063 0.812432 0.870543
O O8 0.888548 0.578532 0.411194
O O9 0.697712 0.516168 0.476310
O O10 0.908467 0.384074 0.498798
O O11 0.045410 0.810903 0.041214
O O12 0.250000 0.750000 0.000000
#
# Coordination Sequence:
#
# PCOD9275134 Si02
#       6
#     4   8   8   8   8   8
#     4  10  26  44  60  88 128 172 220 264 310 386
#     4  10  23  45  63  90 133 170 216 262 316 387
#     4  12  23  42  66  89 127 166 217 261 316 382
#     4  10  20  39  61  96 132 153 198 262 320 382
#     4  10  23  37  64 100 124 158 208 258 325 379
#     4  10  20  38  69  96 128 165 205 267 324 377
#
# _framework density 21.493307999999999
#
# number of rings (size 3 to 8) (size 9 to 14) (size 15 to 20)
#    0.545    1.091    3.636    0.545    0.000    6.545 
#    3.273    0.000    0.000    0.000    0.000    0.000 
#    0.000    0.000    0.000    0.000    0.000    0.000 
#
# Total GULP energy -122730.750749 kJ/mol
# GULP energy per Si atom -5578.670489 kJ/mol
# Density = 2.144439 g / cm^3
# Si number density = 21.493308 Si / 1000 Ang^3
#
#
#
# Elastic Constant Matrix: (Units=GPa)
#
#
# Indices 1 2 3 4 5 6 
#
# 1 141.1563 -3.7693 37.4568 0.0000 4.8247 0.0000
# 2 -3.7693 48.3184 -29.4300 0.0000 -14.9050 0.0000
# 3 37.4568 -29.4300 75.1902 0.0000 18.8629 0.0000
# 4 0.0000 0.0000 0.0000 31.9434 0.0000 -4.7152
# 5 4.8247 -14.9050 18.8629 0.0000 52.4403 0.0000
# 6 0.0000 0.0000 0.0000 -4.7152 0.0000 31.7875
#
#
#
# Elastic Compliance Matrix: (Units=1/GPa)
#
#
# Indices 1 2 3 4 5 6 
#
# 1 0.008393 -0.002397 -0.005226 0.000000 0.000426 0.000000
# 2 -0.002397 0.028764 0.011372 0.000000 0.004305 0.000000
# 3 -0.005226 0.011372 0.021349 0.000000 -0.003966 0.000000
# 4 0.000000 0.000000 0.000000 0.032006 0.000000 0.004748
# 5 0.000426 0.004305 -0.003966 0.000000 0.021680 0.000000
# 6 0.000000 0.000000 0.000000 0.004748 0.000000 0.032163
#
#
# Mechanical properties :
#
#
# Convention : Reuss Voigt Hill
#
# Bulk Modulus (GPa) = 15.15045 30.35334 22.75189
# Shear Modulus (GPa) = 31.47472 40.59474 36.03473
#
# Velocity S-wave (km/s) = 3.83089 4.35065 4.09902
# Velocity P-wave (km/s) = 5.16061 6.27618 5.74553
#
# Compressibility (1/GPa) = 0.06600466
#
# Stress axis : x y z
#
# Youngs Moduli (GPa) = 119.15400 34.76585 46.84028
#
# Poissons Ratio (x) = 0.08333 0.24478
# Poissons Ratio (y) = 0.28559 -0.53268
# Poissons Ratio (z) = 0.62269 -0.39537
#
# Static dielectric constant tensor:
#      x y z
#    x 1.784790 0.000000 0.003780 
#    y 0.000000 1.799970 0.000000 
#    z 0.003780 0.000000 1.820380 
# 
# From -- ./inp_files/196297.got.cif
#   From: 2010.05.17/outbox.cif.g08.bks.cpg/sg15_99_cif.got.tgz:196297.got - 2010.06.03 18:47:42.
