data_PCOD9275037
_publ_section_title
;
Structure prediction by ZEFSAII (Michael W. Deem and Ramdas Pophale) SiO2 
 PCOD9275037
Probable space group: C 2/C
;
_chemical_formula_sum "Si O2"
_cell_formula_units_Z 52
_cell_length_a 13.664112
_cell_length_b 19.542162
_cell_length_c 9.441929
_cell_angle_alpha 90.000000
_cell_angle_beta 68.652659
_cell_angle_gamma 90.000000
_cell_volume 2348.262717
_symmetry_space_group_name_H-M "C 2/C"
_symmetry_group_IT_number 15
_symmetry_cell_setting 'monoclinic'
loop_
_space_group_symop_operation_xyz
x,y,z
-x,y,1/2-z
-x,-y,-z
x,-y,1/2+z
1/2+x,1/2+y,z
1/2-x,1/2+y,1/2-z
1/2-x,1/2-y,-z
1/2+x,1/2-y,1/2+z
loop_
_atom_site_type_symbol
_atom_site_label
_atom_site_fract_x
_atom_site_fract_y
_atom_site_fract_z
Si Si1 0.449169 0.857727 0.018430
Si Si2 0.500000 0.761433 0.250000
Si Si3 0.897103 0.216517 0.951957
Si Si4 0.343243 0.072203 0.079409
Si Si5 0.373413 0.667064 0.648692
Si Si6 0.286813 0.056079 0.787510
Si Si7 0.279072 0.290165 0.796562
O O1 0.499359 0.811691 0.116554
O O2 0.352908 0.895026 0.146048
O O3 0.417390 0.798531 0.924455
O O4 0.537875 0.912193 0.931319
O O5 0.606132 0.718669 0.197705
O O6 0.872947 0.179982 0.818296
O O7 0.005911 0.183086 0.952772
O O8 0.806274 0.208369 0.114815
O O9 0.280221 0.142589 0.126615
O O10 0.289469 0.016219 0.207766
O O11 0.339302 0.051810 0.915417
O O12 0.325838 0.593272 0.637622
O O13 0.291749 0.723927 0.635615
#
# Coordination Sequence:
#
# PCOD9275037 Si02
#       7
#     8   4   8   8   8   8   8
#     4  11  20  42  68 103 135 168 227 289 345 400
#     4  10  20  38  68 102 126 162 224 292 322 394
#     4  10  23  39  69 110 130 170 225 290 336 398
#     4  12  27  44  67  99 138 191 222 282 345 413
#     4  11  22  43  70  99 141 177 225 283 340 407
#     4  12  27  44  68  97 143 181 233 276 345 410
#     4  11  23  40  71  97 136 172 230 274 346 399
#
# _framework density 22.144030000000001
#
# number of rings (size 3 to 8) (size 9 to 14) (size 15 to 20)
#    0.000    0.923    6.154    0.923    6.462    1.231 
#    0.000    2.308    0.000    0.000    0.000    0.000 
#    0.000    0.000    0.000    0.000    0.000    0.000 
#
# Total GULP energy -145491.583779 kJ/mol
# GULP energy per Si atom -5595.830145 kJ/mol
# Density = 2.209363 g / cm^3
# Si number density = 22.144030 Si / 1000 Ang^3
#
#
#
# Elastic Constant Matrix: (Units=GPa)
#
#
# Indices 1 2 3 4 5 6 
#
# 1 101.1114 21.1600 4.2586 0.0000 -14.7230 0.0000
# 2 21.1600 98.4379 14.6071 0.0000 -10.6188 0.0000
# 3 4.2586 14.6071 78.3568 0.0000 -9.4566 0.0000
# 4 0.0000 0.0000 0.0000 37.2274 0.0000 -3.9072
# 5 -14.7230 -10.6188 -9.4566 0.0000 38.0019 0.0000
# 6 0.0000 0.0000 0.0000 -3.9072 0.0000 19.0026
#
#
#
# Elastic Compliance Matrix: (Units=1/GPa)
#
#
# Indices 1 2 3 4 5 6 
#
# 1 0.010830 -0.001962 0.000224 0.000000 0.003704 0.000000
# 2 -0.001962 0.011041 -0.001723 0.000000 0.001896 0.000000
# 3 0.000224 -0.001723 0.013427 0.000000 0.002947 0.000000
# 4 0.000000 0.000000 0.000000 0.027454 0.000000 0.005645
# 5 0.003704 0.001896 0.002947 0.000000 0.029013 0.000000
# 6 0.000000 0.000000 0.000000 0.005645 0.000000 0.053785
#
#
# Mechanical properties :
#
#
# Convention : Reuss Voigt Hill
#
# Bulk Modulus (GPa) = 35.23995 39.77308 37.50652
# Shear Modulus (GPa) = 30.87761 34.70506 32.79134
#
# Velocity S-wave (km/s) = 3.73822 3.96314 3.85232
# Velocity P-wave (km/s) = 5.88055 6.24035 6.06312
#
# Compressibility (1/GPa) = 0.02837688
#
# Stress axis : x y z
#
# Youngs Moduli (GPa) = 92.33191 90.57490 74.47843
#
# Poissons Ratio (x) = 0.17769 -0.01669
# Poissons Ratio (y) = 0.18114 0.12830
# Poissons Ratio (z) = -0.02069 0.15603
#
# Static dielectric constant tensor:
#      x y z
#    x 1.862580 0.000000 0.025780 
#    y 0.000000 1.788340 0.000000 
#    z 0.025780 0.000000 1.899060 
# 
# From -- ./inp_files/98195.got.cif
#   From: 2010.05.17/outbox.cif.g08.bks.cpg/sg15_50_cif.got.tgz:98195.got - 2010.06.03 18:47:42.
