data_PCOD9275858
_publ_section_title
;
Structure prediction by ZEFSAII (Michael W. Deem and Ramdas Pophale) SiO2 
 PCOD9275858
Probable space group: C 2/C
;
_chemical_formula_sum "Si O2"
_cell_formula_units_Z 56
_cell_length_a 8.425369
_cell_length_b 23.680912
_cell_length_c 14.805322
_cell_angle_alpha 90.000000
_cell_angle_beta 133.087034
_cell_angle_gamma 90.000000
_cell_volume 2157.329846
_symmetry_space_group_name_H-M "C 2/C"
_symmetry_group_IT_number 15
_symmetry_cell_setting 'monoclinic'
loop_
_space_group_symop_operation_xyz
x,y,z
-x,y,1/2-z
-x,-y,-z
x,-y,1/2+z
1/2+x,1/2+y,z
1/2-x,1/2+y,1/2-z
1/2-x,1/2-y,-z
1/2+x,1/2-y,1/2+z
loop_
_atom_site_type_symbol
_atom_site_label
_atom_site_fract_x
_atom_site_fract_y
_atom_site_fract_z
Si Si1 0.737208 0.243200 0.801549
Si Si2 0.763032 0.861017 0.778796
Si Si3 0.858028 0.329569 0.388869
Si Si4 0.758218 0.468117 0.829093
Si Si5 0.792672 0.076402 0.813014
Si Si6 0.865627 0.841456 0.010758
Si Si7 0.737927 0.902184 0.499104
O O1 0.500000 0.228283 0.750000
O O2 0.755899 0.310068 0.799026
O O3 0.715576 0.226232 0.688830
O O4 0.932394 0.204292 0.918051
O O5 0.650354 0.915083 0.691419
O O6 0.013611 0.883997 0.887333
O O7 0.722747 0.843014 0.865826
O O8 0.756893 0.377567 0.283982
O O9 0.770531 0.327230 0.454506
O O10 0.106267 0.345922 0.472555
O O11 0.500000 0.467525 0.750000
O O12 0.765555 0.519458 0.761031
O O13 0.838231 0.452985 0.963171
O O14 0.039962 0.095320 0.932805
O O15 0.698383 0.082487 0.878420
#
# Coordination Sequence:
#
# PCOD9275858 Si02
#       7
#     8   8   8   8   8   8   8
#     4  11  21  38  65  91 122 162 212 261 307 371
#     4  10  23  41  63  92 124 165 213 257 314 371
#     4  11  22  40  63  90 125 164 211 259 310 375
#     4  10  21  38  62  93 127 164 211 264 310 363
#     4  10  20  39  65  91 123 165 214 257 307 370
#     4  10  23  41  64  92 123 166 209 258 317 370
#     4  10  22  39  62  93 125 163 210 258 312 370
#
# _framework density 25.958015
#
# number of rings (size 3 to 8) (size 9 to 14) (size 15 to 20)
#    0.000    1.714    0.000    6.857    0.000   10.857 
#    0.000    5.000    0.000    0.000    0.000    0.000 
#    0.000    0.000    0.000    0.000    0.000    0.000 
#
# Total GULP energy -156299.924216 kJ/mol
# GULP energy per Si atom -5582.140151 kJ/mol
# Density = 2.589893 g / cm^3
# Si number density = 25.958015 Si / 1000 Ang^3
#
#
#
# Elastic Constant Matrix: (Units=GPa)
#
#
# Indices 1 2 3 4 5 6 
#
# 1 104.1209 20.8845 67.7712 0.0000 -35.0094 0.0000
# 2 20.8845 150.8994 51.7700 0.0000 -22.7455 0.0000
# 3 67.7712 51.7700 178.8917 0.0000 -39.3445 0.0000
# 4 0.0000 0.0000 0.0000 16.7833 0.0000 -17.7773
# 5 -35.0094 -22.7455 -39.3445 0.0000 45.3251 0.0000
# 6 0.0000 0.0000 0.0000 -17.7773 0.0000 24.7179
#
#
#
# Elastic Compliance Matrix: (Units=1/GPa)
#
#
# Indices 1 2 3 4 5 6 
#
# 1 0.014872 0.000557 -0.003964 0.000000 0.008326 0.000000
# 2 0.000557 0.007574 -0.001820 0.000000 0.002651 0.000000
# 3 -0.003964 -0.001820 0.008335 0.000000 0.003261 0.000000
# 4 0.000000 0.000000 0.000000 0.250144 0.000000 0.179906
# 5 0.008326 0.002651 0.003261 0.000000 0.032654 0.000000
# 6 0.000000 0.000000 0.000000 0.179906 0.000000 0.169846
#
#
# Mechanical properties :
#
#
# Convention : Reuss Voigt Hill
#
# Bulk Modulus (GPa) = 49.19519 79.41817 64.30668
# Shear Modulus (GPa) = 9.98690 36.93102 23.45896
#
# Velocity S-wave (km/s) = 1.96359 3.77599 3.00947
# Velocity P-wave (km/s) = 4.91262 7.04784 6.07478
#
# Compressibility (1/GPa) = 0.02032719
#
# Stress axis : x y z
#
# Youngs Moduli (GPa) = 67.23955 132.03460 119.96985
#
# Poissons Ratio (x) = -0.07350 0.47558
# Poissons Ratio (y) = -0.03743 0.21830
# Poissons Ratio (z) = 0.26655 0.24025
#
# Static dielectric constant tensor:
#      x y z
#    x 2.116530 0.000000 0.075440 
#    y 0.000000 2.089620 0.000000 
#    z 0.075440 0.000000 2.187050 
# 
# From -- ./inp_files/137946.got.cif
#   From: 2010.05.17/outbox.cif.g08.bks.cpg/sg15_69_cif.got.tgz:137946.got - 2010.06.03 18:47:42.
