data_PCOD9275356
_publ_section_title
;
Structure prediction by ZEFSAII (Michael W. Deem and Ramdas Pophale) SiO2 
 PCOD9275356
Probable space group: C 2/C
;
_chemical_formula_sum "Si O2"
_cell_formula_units_Z 48
_cell_length_a 21.283928
_cell_length_b 16.017436
_cell_length_c 11.369063
_cell_angle_alpha 90.000000
_cell_angle_beta 148.771721
_cell_angle_gamma 90.000000
_cell_volume 2009.442550
_symmetry_space_group_name_H-M "C 2/C"
_symmetry_group_IT_number 15
_symmetry_cell_setting 'monoclinic'
loop_
_space_group_symop_operation_xyz
x,y,z
-x,y,1/2-z
-x,-y,-z
x,-y,1/2+z
1/2+x,1/2+y,z
1/2-x,1/2+y,1/2-z
1/2-x,1/2-y,-z
1/2+x,1/2-y,1/2+z
loop_
_atom_site_type_symbol
_atom_site_label
_atom_site_fract_x
_atom_site_fract_y
_atom_site_fract_z
Si Si1 0.331555 0.792135 0.026118
Si Si2 0.532129 0.812296 0.035911
Si Si3 0.599779 0.622531 0.114088
Si Si4 0.585382 0.500257 0.802586
Si Si5 0.260012 0.802048 0.319537
Si Si6 0.257994 0.862903 0.563657
O O1 0.402133 0.851171 0.802477
O O2 0.433249 0.831355 0.271977
O O3 0.250000 0.750000 0.000000
O O4 0.344150 0.724794 0.941186
O O5 0.534575 0.711266 0.031127
O O6 0.631504 0.833438 0.092691
O O7 0.614162 0.562365 0.246590
O O8 0.740388 0.644341 0.316239
O O9 0.512259 0.571383 0.889910
O O10 0.500000 0.446981 0.750000
O O11 0.704676 0.551108 0.027952
O O12 0.226517 0.862778 0.372882
O O13 0.296051 0.718762 0.454858
#
# Coordination Sequence:
#
# PCOD9275356 Si02
#       6
#     8   8   8   8   8   8
#     4   8  17  36  58  82 112 149 192 255 298 344
#     4  10  20  39  60  90 119 145 204 266 299 350
#     4   9  19  38  55  83 113 158 198 240 305 361
#     4  11  22  38  56  83 128 161 195 248 299 370
#     4   9  18  33  56  83 120 149 193 255 295 351
#     4  11  21  33  58  93 117 159 200 244 317 361
#
# _framework density 23.887222000000001
#
# number of rings (size 3 to 8) (size 9 to 14) (size 15 to 20)
#    0.000    2.667    0.000    4.500    0.000    2.000 
#   27.000    0.833    0.000    0.000    8.667    0.000 
#    0.000    0.000    0.000    0.000    0.000    0.000 
#
# Total GULP energy -133663.558449 kJ/mol
# GULP energy per Si atom -5569.314935 kJ/mol
# Density = 2.383285 g / cm^3
# Si number density = 23.887222 Si / 1000 Ang^3
#
#
#
# Elastic Constant Matrix: (Units=GPa)
#
#
# Indices 1 2 3 4 5 6 
#
# 1 103.4267 15.7479 53.9302 0.0000 -5.3229 0.0000
# 2 15.7479 37.1051 -0.4187 0.0000 -0.2136 0.0000
# 3 53.9302 -0.4187 109.8508 0.0000 -1.6438 0.0000
# 4 0.0000 0.0000 0.0000 22.0111 0.0000 -4.2258
# 5 -5.3229 -0.2136 -1.6438 0.0000 44.3694 0.0000
# 6 0.0000 0.0000 0.0000 -4.2258 0.0000 55.4620
#
#
#
# Elastic Compliance Matrix: (Units=1/GPa)
#
#
# Indices 1 2 3 4 5 6 
#
# 1 0.014358 -0.006165 -0.007051 0.000000 0.001432 0.000000
# 2 -0.006165 0.029600 0.003132 0.000000 -0.000481 0.000000
# 3 -0.007051 0.003132 0.012571 0.000000 -0.000365 0.000000
# 4 0.000000 0.000000 0.000000 0.046106 0.000000 0.003513
# 5 0.001432 -0.000481 -0.000365 0.000000 0.022694 0.000000
# 6 0.000000 0.000000 0.000000 0.003513 0.000000 0.018298
#
#
# Mechanical properties :
#
#
# Convention : Reuss Voigt Hill
#
# Bulk Modulus (GPa) = 27.50164 43.21125 35.35644
# Shear Modulus (GPa) = 28.42305 36.44340 32.43322
#
# Velocity S-wave (km/s) = 3.45321 3.91019 3.68878
# Velocity P-wave (km/s) = 5.23810 6.20605 5.74251
#
# Compressibility (1/GPa) = 0.03636147
#
# Stress axis : x y z
#
# Youngs Moduli (GPa) = 69.64979 33.78432 79.54659
#
# Poissons Ratio (x) = 0.20828 0.56087
# Poissons Ratio (y) = 0.42938 -0.24916
# Poissons Ratio (z) = 0.49109 -0.10582
#
# Static dielectric constant tensor:
#      x y z
#    x 2.191130 0.000000 -0.035300 
#    y 0.000000 1.895710 0.000000 
#    z -0.035300 0.000000 2.036380 
# 
# From -- ./inp_files/106521.got.cif
#   From: 2010.05.17/outbox.cif.g08.bks.cpg/sg15_54_cif.got.tgz:106521.got - 2010.06.03 18:47:42.
