data_PCOD9275197
_publ_section_title
;
Structure prediction by ZEFSAII (Michael W. Deem and Ramdas Pophale) SiO2 
 PCOD9275197
Probable space group: C 2/C
;
_chemical_formula_sum "Si O2"
_cell_formula_units_Z 60
_cell_length_a 16.211403
_cell_length_b 16.537266
_cell_length_c 9.569520
_cell_angle_alpha 90.000000
_cell_angle_beta 91.650493
_cell_angle_gamma 90.000000
_cell_volume 2564.450091
_symmetry_space_group_name_H-M "C 2/C"
_symmetry_group_IT_number 15
_symmetry_cell_setting 'monoclinic'
loop_
_space_group_symop_operation_xyz
x,y,z
-x,y,1/2-z
-x,-y,-z
x,-y,1/2+z
1/2+x,1/2+y,z
1/2-x,1/2+y,1/2-z
1/2-x,1/2-y,-z
1/2+x,1/2-y,1/2+z
loop_
_atom_site_type_symbol
_atom_site_label
_atom_site_fract_x
_atom_site_fract_y
_atom_site_fract_z
Si Si1 0.656460 0.592511 0.811162
Si Si2 0.583087 0.093292 0.190157
Si Si3 0.323507 0.313896 0.471790
Si Si4 0.758378 0.065808 0.184815
Si Si5 0.907231 0.274211 0.191697
Si Si6 0.075556 0.444331 0.365621
Si Si7 0.625172 0.635957 0.105040
Si Si8 0.500000 0.525573 0.250000
O O1 0.667949 0.651521 0.681308
O O2 0.734068 0.530746 0.836862
O O3 0.576402 0.532796 0.793497
O O4 0.637662 0.646787 0.944023
O O5 0.500000 0.132568 0.250000
O O6 0.675871 0.120552 0.168189
O O7 0.609919 0.028591 0.313478
O O8 0.559749 0.061497 0.031578
O O9 0.250000 0.250000 0.500000
O O10 0.314000 0.393324 0.567776
O O11 0.402505 0.267514 0.540087
O O12 0.801382 0.079933 0.334542
O O13 0.873515 0.364428 0.170860
O O14 0.865742 0.217039 0.303395
O O15 0.000000 0.279427 0.250000
O O16 0.000000 0.441588 0.250000
O O17 0.540986 0.587329 0.139255
#
# Coordination Sequence:
#
# PCOD9275197 Si02
#       8
#     8   8   8   8   8   8   8   4
#     4  11  24  39  70 107 135 182 237 280 335 427
#     4  11  23  41  69  99 126 169 234 291 343 400
#     4  11  25  46  67  97 143 191 228 288 362 408
#     4  10  23  41  67  98 138 178 227 286 348 415
#     4  10  22  42  68  92 138 180 216 271 360 414
#     4  10  22  42  65  98 124 169 219 290 345 402
#     4  10  21  40  66 103 138 180 219 276 343 424
#     4  10  20  38  72 106 144 172 220 280 350 408
#
# _framework density 23.396829
#
# number of rings (size 3 to 8) (size 9 to 14) (size 15 to 20)
#    0.000    1.600    0.667    4.400    7.467    0.000 
#    0.000   10.667    1.467    0.000    0.000    0.000 
#    0.000    0.000    0.000    0.000    0.000    0.000 
#
# Total GULP energy -167011.200306 kJ/mol
# GULP energy per Si atom -5567.040010 kJ/mol
# Density = 2.334358 g / cm^3
# Si number density = 23.396829 Si / 1000 Ang^3
#
#
#
# Elastic Constant Matrix: (Units=GPa)
#
#
# Indices 1 2 3 4 5 6 
#
# 1 95.5424 1.3134 19.0273 0.0000 1.6246 0.0000
# 2 1.3134 58.5729 27.0465 0.0000 -12.8918 0.0000
# 3 19.0273 27.0465 173.4409 0.0000 -13.3011 0.0000
# 4 0.0000 0.0000 0.0000 6.2900 0.0000 11.6241
# 5 1.6246 -12.8918 -13.3011 0.0000 20.0449 0.0000
# 6 0.0000 0.0000 0.0000 11.6241 0.0000 14.2701
#
#
#
# Elastic Compliance Matrix: (Units=1/GPa)
#
#
# Indices 1 2 3 4 5 6 
#
# 1 0.010758 -0.000022 -0.001311 0.000000 -0.001756 0.000000
# 2 -0.000022 0.020745 -0.002328 0.000000 0.011799 0.000000
# 3 -0.001311 -0.002328 0.006496 0.000000 0.002920 0.000000
# 4 0.000000 0.000000 0.000000 -0.314584 0.000000 0.256254
# 5 -0.001756 0.011799 0.002920 0.000000 0.059557 0.000000
# 6 0.000000 0.000000 0.000000 0.256254 0.000000 -0.138663
#
#
# Mechanical properties :
#
#
# Convention : Reuss Voigt Hill
#
# Bulk Modulus (GPa) = 32.59803 46.92563 39.76183
# Shear Modulus (GPa) = -14.78663 26.79894 6.00616
#
# Velocity S-wave (km/s) = -2.51667 3.38806 1.60395
# Velocity P-wave (km/s) = 2.34905 5.95023 4.52345
#
# Compressibility (1/GPa) = 0.03067670
#
# Stress axis : x y z
#
# Youngs Moduli (GPa) = 92.95495 48.20423 153.93047
#
# Poissons Ratio (x) = 0.00107 0.20187
# Poissons Ratio (y) = 0.00207 0.35830
# Poissons Ratio (z) = 0.12190 0.11220
#
# Static dielectric constant tensor:
#      x y z
#    x 2.012480 0.000000 -0.055050 
#    y 0.000000 2.038820 0.000000 
#    z -0.055050 0.000000 1.836960 
# 
# From -- ./inp_files/49103.got.cif
#   From: 2010.05.17/outbox.cif.g08.bks.cpg/sg15_25_cif.got.tgz:49103.got - 2010.06.03 18:47:42.
