data_PCOD9275446
_publ_section_title
;
Structure prediction by ZEFSAII (Michael W. Deem and Ramdas Pophale) SiO2 
 PCOD9275446
Probable space group: C 2/C
;
_chemical_formula_sum "Si O2"
_cell_formula_units_Z 40
_cell_length_a 5.426291
_cell_length_b 13.471098
_cell_length_c 26.078583
_cell_angle_alpha 90.000000
_cell_angle_beta 110.862699
_cell_angle_gamma 90.000000
_cell_volume 1781.311493
_symmetry_space_group_name_H-M "C 2/C"
_symmetry_group_IT_number 15
_symmetry_cell_setting 'monoclinic'
loop_
_space_group_symop_operation_xyz
x,y,z
-x,y,1/2-z
-x,-y,-z
x,-y,1/2+z
1/2+x,1/2+y,z
1/2-x,1/2+y,1/2-z
1/2-x,1/2-y,-z
1/2+x,1/2-y,1/2+z
loop_
_atom_site_type_symbol
_atom_site_label
_atom_site_fract_x
_atom_site_fract_y
_atom_site_fract_z
Si Si1 0.365229 0.521347 0.043535
Si Si2 0.560848 0.846822 0.647679
Si Si3 0.889827 0.045993 0.330552
Si Si4 0.934918 0.654820 0.020679
Si Si5 0.194918 0.167091 0.717684
O O1 0.530257 0.509266 0.106699
O O2 0.248239 0.634219 0.034897
O O3 0.500000 0.500000 0.000000
O O4 0.163480 0.428437 0.027029
O O5 0.366667 0.888171 0.676990
O O6 0.433921 0.866317 0.582114
O O7 0.601294 0.730798 0.661810
O O8 0.849169 0.897983 0.670388
O O9 0.824733 0.949987 0.292978
O O10 0.750000 0.750000 0.000000
O O11 0.500000 0.193063 0.750000
O O12 0.000000 0.191516 0.750000
#
# Coordination Sequence:
#
# PCOD9275446 Si02
#       5
#     8   8   8   8   8
#     4  10  20  39  61  95 132 170 217 262 318 410
#     4  11  24  44  67  98 132 172 217 272 328 398
#     4  11  24  44  69  96 136 174 217 271 337 388
#     4  10  21  38  61  94 133 175 213 263 327 391
#     4  12  27  46  68  98 126 170 228 280 333 392
#
# _framework density 22.455363999999999
#
# number of rings (size 3 to 8) (size 9 to 14) (size 15 to 20)
#    0.000    1.200    2.000    3.600    0.000    5.600 
#    7.200    0.000    0.000    0.000    0.000    0.000 
#    0.000    0.000    0.000    0.000    0.000    0.000 
#
# Total GULP energy -111456.867636 kJ/mol
# GULP energy per Si atom -5572.843382 kJ/mol
# Density = 2.240425 g / cm^3
# Si number density = 22.455364 Si / 1000 Ang^3
#
#
#
# Elastic Constant Matrix: (Units=GPa)
#
#
# Indices 1 2 3 4 5 6 
#
# 1 132.4835 34.9833 30.0031 0.0000 1.6307 0.0000
# 2 34.9833 105.7665 19.4774 0.0000 3.7777 0.0000
# 3 30.0031 19.4774 56.3360 0.0000 -1.3889 0.0000
# 4 0.0000 0.0000 0.0000 49.9358 0.0000 2.7848
# 5 1.6307 3.7777 -1.3889 0.0000 9.4901 0.0000
# 6 0.0000 0.0000 0.0000 2.7848 0.0000 95.8612
#
#
#
# Elastic Compliance Matrix: (Units=1/GPa)
#
#
# Indices 1 2 3 4 5 6 
#
# 1 0.009074 -0.002200 -0.004104 0.000000 -0.001284 0.000000
# 2 -0.002200 0.010830 -0.002680 0.000000 -0.004325 0.000000
# 3 -0.004104 -0.002680 0.020982 0.000000 0.004843 0.000000
# 4 0.000000 0.000000 0.000000 0.020058 0.000000 -0.000583
# 5 -0.001284 -0.004325 0.004843 0.000000 0.108025 0.000000
# 6 0.000000 0.000000 0.000000 -0.000583 0.000000 0.010449
#
#
# Mechanical properties :
#
#
# Convention : Reuss Voigt Hill
#
# Bulk Modulus (GPa) = 43.62939 51.50149 47.56544
# Shear Modulus (GPa) = 24.38737 45.06557 34.72647
#
# Velocity S-wave (km/s) = 3.29908 4.48470 3.93678
# Velocity P-wave (km/s) = 5.82954 7.05702 6.47244
#
# Compressibility (1/GPa) = 0.02292033
#
# Stress axis : x y z
#
# Youngs Moduli (GPa) = 110.20323 92.33333 47.65987
#
# Poissons Ratio (x) = 0.20311 0.19559
# Poissons Ratio (y) = 0.24242 0.12771
# Poissons Ratio (z) = 0.45225 0.24741
#
# Static dielectric constant tensor:
#      x y z
#    x 2.057040 0.000000 0.115590 
#    y 0.000000 1.899150 0.000000 
#    z 0.115590 0.000000 1.850460 
# 
# From -- ./inp_files/285154.got.cif
#   From: 2010.05.17/outbox.cif.g08.bks.cpg/sg15_143_cif.got.tgz:285154.got - 2010.06.03 18:47:42.
