data_PCOD9275744
_publ_section_title
;
Structure prediction by ZEFSAII (Michael W. Deem and Ramdas Pophale) SiO2 
 PCOD9275744
Probable space group: C 2/C
;
_chemical_formula_sum "Si O2"
_cell_formula_units_Z 64
_cell_length_a 18.383516
_cell_length_b 9.215730
_cell_length_c 17.051434
_cell_angle_alpha 90.000000
_cell_angle_beta 65.528693
_cell_angle_gamma 90.000000
_cell_volume 2629.306328
_symmetry_space_group_name_H-M "C 2/C"
_symmetry_group_IT_number 15
_symmetry_cell_setting 'monoclinic'
loop_
_space_group_symop_operation_xyz
x,y,z
-x,y,1/2-z
-x,-y,-z
x,-y,1/2+z
1/2+x,1/2+y,z
1/2-x,1/2+y,1/2-z
1/2-x,1/2-y,-z
1/2+x,1/2-y,1/2+z
loop_
_atom_site_type_symbol
_atom_site_label
_atom_site_fract_x
_atom_site_fract_y
_atom_site_fract_z
Si Si1 0.901812 0.829102 0.009312
Si Si2 0.490002 0.547293 0.627429
Si Si3 0.594276 0.988504 0.530809
Si Si4 0.250874 0.813871 0.325886
Si Si5 0.521332 0.854604 0.823357
Si Si6 0.664368 0.071378 0.174527
Si Si7 0.234488 0.694791 0.920188
Si Si8 0.673800 0.502150 0.222761
O O1 0.949729 0.883103 0.066103
O O2 0.808643 0.841080 0.074169
O O3 0.907527 0.658960 0.984583
O O4 0.941456 0.933440 0.926221
O O5 0.517611 0.695424 0.656988
O O6 0.418501 0.479446 0.711412
O O7 0.503904 0.935511 0.586922
O O8 0.630457 0.941967 0.600752
O O9 0.650500 0.890226 0.449666
O O10 0.276435 0.649763 0.304100
O O11 0.330197 0.905937 0.303722
O O12 0.211765 0.896691 0.270784
O O13 0.500000 0.930685 0.750000
O O14 0.614735 0.845718 0.764247
O O15 0.749028 0.156762 0.134430
O O16 0.305037 0.583770 0.866040
O O17 0.250000 0.750000 0.000000
#
# Coordination Sequence:
#
# PCOD9275744 Si02
#       8
#     8   8   8   8   8   8   8   8
#     4  10  23  43  59  93 129 164 212 265 317 377
#     4  10  23  43  63  88 131 166 212 262 312 380
#     4  10  22  40  62  91 129 163 209 260 316 380
#     4  11  24  40  66  92 125 167 213 265 318 374
#     4  10  22  41  62  89 120 168 211 250 312 383
#     4  10  22  40  61  93 128 163 215 263 309 378
#     4  10  20  39  64  90 125 163 206 262 314 375
#     4  11  22  42  65  92 126 166 214 259 318 379
#
# _framework density 24.341021000000001
#
# number of rings (size 3 to 8) (size 9 to 14) (size 15 to 20)
#    0.000    1.750    2.500    0.750    5.250    1.000 
#    4.500    0.000    0.000    0.000    0.000    0.000 
#    0.000    0.000    0.000    0.000    0.000    0.000 
#
# Total GULP energy -178465.522331 kJ/mol
# GULP energy per Si atom -5577.047573 kJ/mol
# Density = 2.428562 g / cm^3
# Si number density = 24.341021 Si / 1000 Ang^3
#
#
#
# Elastic Constant Matrix: (Units=GPa)
#
#
# Indices 1 2 3 4 5 6 
#
# 1 31.3538 26.7366 23.6568 0.0000 -10.0111 0.0000
# 2 26.7366 185.5157 83.6077 0.0000 -28.2430 -0.0001
# 3 23.6568 83.6077 154.6731 0.0000 -31.9083 0.0000
# 4 0.0000 0.0000 0.0000 48.1710 0.0000 -9.9673
# 5 -10.0111 -28.2430 -31.9083 0.0000 23.2862 0.0000
# 6 0.0000 -0.0001 0.0000 -9.9673 0.0000 35.8164
#
#
#
# Elastic Compliance Matrix: (Units=1/GPa)
#
#
# Indices 1 2 3 4 5 6 
#
# 1 0.039495 -0.003137 -0.002268 0.000000 0.010066 0.000000
# 2 -0.003137 0.007763 -0.002861 0.000000 0.004146 0.000000
# 3 -0.002268 -0.002861 0.010374 0.000000 0.009770 0.000000
# 4 0.000000 0.000000 0.000000 0.022028 0.000000 0.006130
# 5 0.010066 0.004146 0.009770 0.000000 0.065689 0.000000
# 6 0.000000 0.000000 0.000000 0.006130 0.000000 0.029626
#
#
# Mechanical properties :
#
#
# Convention : Reuss Voigt Hill
#
# Bulk Modulus (GPa) = 24.33137 71.06053 47.69595
# Shear Modulus (GPa) = 24.36556 37.29083 30.82819
#
# Velocity S-wave (km/s) = 3.16730 3.91834 3.56267
# Velocity P-wave (km/s) = 4.83668 7.05183 6.04656
#
# Compressibility (1/GPa) = 0.04109921
#
# Stress axis : x y z
#
# Youngs Moduli (GPa) = 25.31977 128.81215 96.39220
#
# Poissons Ratio (x) = 0.40412 0.21863
# Poissons Ratio (y) = 0.07944 0.27579
# Poissons Ratio (z) = 0.05743 0.36855
#
# Static dielectric constant tensor:
#      x y z
#    x 2.230190 0.000000 -0.089270 
#    y 0.000000 1.875760 0.000000 
#    z -0.089270 0.000000 2.081490 
# 
# From -- ./inp_files/255012.got.cif
#   From: 2010.05.17/outbox.cif.g08.bks.cpg/sg15_128_cif.got.tgz:255012.got - 2010.06.03 18:47:42.
