data_PCOD9275962
_publ_section_title
;
Structure prediction by ZEFSAII (Michael W. Deem and Ramdas Pophale) SiO2 
 PCOD9275962
Probable space group: C 2/C
;
_chemical_formula_sum "Si O2"
_cell_formula_units_Z 48
_cell_length_a 19.674767
_cell_length_b 7.879306
_cell_length_c 28.465826
_cell_angle_alpha 90.000000
_cell_angle_beta 144.404554
_cell_angle_gamma 90.000000
_cell_volume 2568.549103
_symmetry_space_group_name_H-M "C 2/C"
_symmetry_group_IT_number 15
_symmetry_cell_setting 'monoclinic'
loop_
_space_group_symop_operation_xyz
x,y,z
-x,y,1/2-z
-x,-y,-z
x,-y,1/2+z
1/2+x,1/2+y,z
1/2-x,1/2+y,1/2-z
1/2-x,1/2-y,-z
1/2+x,1/2-y,1/2+z
loop_
_atom_site_type_symbol
_atom_site_label
_atom_site_fract_x
_atom_site_fract_y
_atom_site_fract_z
Si Si1 0.708017 0.876063 0.284514
Si Si2 0.887055 0.708346 0.321511
Si Si3 0.669946 0.554130 0.384184
Si Si4 0.367678 0.061437 0.658193
Si Si5 0.351065 0.884193 0.549775
Si Si6 0.907163 0.984739 0.763784
O O1 0.826686 0.784346 0.334216
O O2 0.707671 0.958723 0.336497
O O3 0.621226 0.710396 0.236721
O O4 0.668354 0.029835 0.227888
O O5 0.025570 0.676932 0.401095
O O6 0.865436 0.861794 0.272686
O O7 0.665234 0.755235 0.379074
O O8 0.787486 0.507881 0.477179
O O9 0.653711 0.493538 0.321276
O O10 0.547695 0.497931 0.339228
O O11 0.500000 0.062379 0.750000
O O12 0.367372 0.945842 0.612375
O O13 0.250000 0.750000 0.500000
#
# Coordination Sequence:
#
# PCOD9275962 Si02
#       6
#     8   8   8   8   8   8
#     4  11  23  40  66  97 125 174 226 267 323 403
#     4  12  23  40  66  94 134 170 220 269 335 394
#     4  10  20  40  65  94 126 162 220 275 325 381
#     4  11  21  41  67  94 126 173 227 268 322 396
#     4  12  25  37  63 100 133 165 221 279 334 386
#     4  10  20  39  66  92 122 172 218 263 326 393
#
# _framework density 18.687593
#
# number of rings (size 3 to 8) (size 9 to 14) (size 15 to 20)
#    0.000    1.000    8.333    0.500    2.333    0.000 
#    0.000    4.167    3.667    0.000    0.000    0.000 
#    0.000    0.000    0.000    0.000    0.000    0.000 
#
# Total GULP energy -133662.589910 kJ/mol
# GULP energy per Si atom -5569.274580 kJ/mol
# Density = 1.864506 g / cm^3
# Si number density = 18.687593 Si / 1000 Ang^3
#
#
#
# Elastic Constant Matrix: (Units=GPa)
#
#
# Indices 1 2 3 4 5 6 
#
# 1 135.9672 29.2300 78.9354 0.0000 6.2324 0.0000
# 2 29.2300 54.4744 56.6016 -0.0001 -9.1249 0.0001
# 3 78.9354 56.6016 179.2681 0.0000 -16.4729 0.0000
# 4 0.0000 -0.0001 0.0000 24.7247 0.0000 -6.4249
# 5 6.2324 -9.1249 -16.4729 0.0000 28.1209 0.0000
# 6 0.0000 0.0001 0.0000 -6.4249 0.0000 35.9263
#
#
#
# Elastic Compliance Matrix: (Units=1/GPa)
#
#
# Indices 1 2 3 4 5 6 
#
# 1 0.010721 -0.001874 -0.004654 0.000000 -0.005710 0.000000
# 2 -0.001874 0.028086 -0.007575 0.000000 0.005092 0.000000
# 3 -0.004654 -0.007575 0.010451 0.000000 0.004695 0.000000
# 4 0.000000 0.000000 0.000000 0.042416 0.000000 0.007586
# 5 -0.005710 0.005092 0.004695 0.000000 0.041229 0.000000
# 6 0.000000 0.000000 0.000000 0.007586 0.000000 0.029191
#
#
# Mechanical properties :
#
#
# Convention : Reuss Voigt Hill
#
# Bulk Modulus (GPa) = 47.49935 77.69375 62.59655
# Shear Modulus (GPa) = 25.33992 31.41724 28.37858
#
# Velocity S-wave (km/s) = 3.68635 4.10467 3.90112
# Velocity P-wave (km/s) = 6.60240 8.00810 7.33899
#
# Compressibility (1/GPa) = 0.02105292
#
# Stress axis : x y z
#
# Youngs Moduli (GPa) = 93.27484 35.60449 95.68875
#
# Poissons Ratio (x) = 0.06671 0.44532
# Poissons Ratio (y) = 0.17477 0.72484
# Poissons Ratio (z) = 0.43408 0.26970
#
# Static dielectric constant tensor:
#      x y z
#    x 1.764370 0.000000 -0.038310 
#    y 0.000000 1.715610 0.000000 
#    z -0.038310 0.000000 1.614850 
# 
# From -- ./inp_files/279313.got.cif
#   From: 2010.05.17/outbox.cif.g08.bks.cpg/sg15_140_cif.got.tgz:279313.got - 2010.06.03 18:47:42.
