data_PCOD9275209
_publ_section_title
;
Structure prediction by ZEFSAII (Michael W. Deem and Ramdas Pophale) SiO2 
 PCOD9275209
Probable space group: C 2/C
;
_chemical_formula_sum "Si O2"
_cell_formula_units_Z 44
_cell_length_a 29.698505
_cell_length_b 11.565153
_cell_length_c 17.470487
_cell_angle_alpha 90.000000
_cell_angle_beta 21.363391
_cell_angle_gamma 90.000000
_cell_volume 2185.890851
_symmetry_space_group_name_H-M "C 2/C"
_symmetry_group_IT_number 15
_symmetry_cell_setting 'monoclinic'
loop_
_space_group_symop_operation_xyz
x,y,z
-x,y,1/2-z
-x,-y,-z
x,-y,1/2+z
1/2+x,1/2+y,z
1/2-x,1/2+y,1/2-z
1/2-x,1/2-y,-z
1/2+x,1/2-y,1/2+z
loop_
_atom_site_type_symbol
_atom_site_label
_atom_site_fract_x
_atom_site_fract_y
_atom_site_fract_z
Si Si1 0.128436 0.257281 0.901176
Si Si2 0.075280 0.226164 0.552064
Si Si3 0.791263 0.152401 0.493861
Si Si4 0.499408 0.486343 0.592470
Si Si5 0.500000 0.213846 0.750000
Si Si6 0.028015 0.371892 0.482617
O O1 0.276379 0.266547 0.669468
O O2 0.085107 0.123614 0.979050
O O3 0.063284 0.335370 0.072016
O O4 0.063396 0.294532 0.924852
O O5 0.026518 0.326085 0.571640
O O6 0.000000 0.231968 0.750000
O O7 0.046093 0.103282 0.557780
O O8 0.750000 0.250000 0.500000
O O9 0.890726 0.208964 0.391117
O O10 0.670716 0.133559 0.733293
O O11 0.861431 0.048035 0.340252
O O12 0.500000 0.500000 0.500000
O O13 0.000000 0.500000 0.500000
#
# Coordination Sequence:
#
# PCOD9275209 Si02
#       6
#     8   8   8   8   4   8
#     4  11  25  44  72 104 138 189 244 293 363 429
#     4  12  29  47  70 107 151 191 240 298 373 440
#     4  11  21  42  69 101 130 182 245 292 344 420
#     4  11  24  45  75 102 142 188 240 304 363 433
#     4  10  20  38  74  96 126 168 246 292 330 414
#     4  12  27  47  68 103 147 189 239 304 360 431
#
# _framework density 20.129092
#
# number of rings (size 3 to 8) (size 9 to 14) (size 15 to 20)
#    0.000    0.727    7.273    0.000   10.182    2.182 
#    1.636    0.000    0.000    0.000    0.000    0.000 
#    0.000    0.000    0.000    0.000    0.000    0.000 
#
# Total GULP energy -122679.826917 kJ/mol
# GULP energy per Si atom -5576.355769 kJ/mol
# Density = 2.008328 g / cm^3
# Si number density = 20.129092 Si / 1000 Ang^3
#
#
#
# Elastic Constant Matrix: (Units=GPa)
#
#
# Indices 1 2 3 4 5 6 
#
# 1 152.8638 37.3932 86.3343 0.0000 -2.5119 0.0000
# 2 37.3932 101.5151 32.0271 0.0000 -6.7938 0.0000
# 3 86.3343 32.0271 119.7380 0.0000 -1.0517 0.0000
# 4 0.0000 0.0000 0.0000 26.1672 0.0000 -4.4168
# 5 -2.5119 -6.7938 -1.0517 0.0000 44.1964 0.0000
# 6 0.0000 0.0000 0.0000 -4.4168 0.0000 24.6672
#
#
#
# Elastic Compliance Matrix: (Units=1/GPa)
#
#
# Indices 1 2 3 4 5 6 
#
# 1 0.011312 -0.001727 -0.007693 0.000000 0.000194 0.000000
# 2 -0.001727 0.011135 -0.001719 0.000000 0.001573 0.000000
# 3 -0.007693 -0.001719 0.014355 0.000000 -0.000360 0.000000
# 4 0.000000 0.000000 0.000000 0.039407 0.000000 0.007056
# 5 0.000194 0.001573 -0.000360 0.000000 0.022870 0.000000
# 6 0.000000 0.000000 0.000000 0.007056 0.000000 0.041803
#
#
# Mechanical properties :
#
#
# Convention : Reuss Voigt Hill
#
# Bulk Modulus (GPa) = 68.85252 76.18068 72.51660
# Shear Modulus (GPa) = 29.76178 33.56366 31.66272
#
# Velocity S-wave (km/s) = 3.84936 4.08784 3.97039
# Velocity P-wave (km/s) = 7.35095 7.75943 7.55795
#
# Compressibility (1/GPa) = 0.01452380
#
# Stress axis : x y z
#
# Youngs Moduli (GPa) = 88.40131 89.81092 69.66250
#
# Poissons Ratio (x) = 0.15509 0.53589
# Poissons Ratio (y) = 0.15265 0.11977
# Poissons Ratio (z) = 0.68004 0.15441
#
# Static dielectric constant tensor:
#      x y z
#    x 1.740390 0.000000 0.057190 
#    y 0.000000 1.742740 0.000000 
#    z 0.057190 0.000000 1.735310 
# 
# From -- ./inp_files/142298.got.cif
#   From: 2010.05.17/outbox.cif.g08.bks.cpg/sg15_72_cif.got.tgz:142298.got - 2010.06.03 18:47:42.
