data_PCOD9275276
_publ_section_title
;
Structure prediction by ZEFSAII (Michael W. Deem and Ramdas Pophale) SiO2 
 PCOD9275276
Probable space group: C 2/C
;
_chemical_formula_sum "Si O2"
_cell_formula_units_Z 40
_cell_length_a 11.149889
_cell_length_b 13.123463
_cell_length_c 22.690890
_cell_angle_alpha 90.000000
_cell_angle_beta 31.645137
_cell_angle_gamma 90.000000
_cell_volume 1741.990448
_symmetry_space_group_name_H-M "C 2/C"
_symmetry_group_IT_number 15
_symmetry_cell_setting 'monoclinic'
loop_
_space_group_symop_operation_xyz
x,y,z
-x,y,1/2-z
-x,-y,-z
x,-y,1/2+z
1/2+x,1/2+y,z
1/2-x,1/2+y,1/2-z
1/2-x,1/2-y,-z
1/2+x,1/2-y,1/2+z
loop_
_atom_site_type_symbol
_atom_site_label
_atom_site_fract_x
_atom_site_fract_y
_atom_site_fract_z
Si Si1 0.029897 0.591168 0.570342
Si Si2 0.733570 0.896203 0.852962
Si Si3 0.528966 0.295138 0.060795
Si Si4 0.493878 0.477279 0.933049
Si Si5 0.736365 0.714164 0.343587
O O1 0.124225 0.600225 0.464063
O O2 0.251703 0.573899 0.517826
O O3 0.878477 0.489593 0.635043
O O4 0.879017 0.692283 0.642699
O O5 0.671475 0.787351 0.850649
O O6 0.000000 0.910635 0.750000
O O7 0.484213 0.409167 0.102603
O O8 0.750000 0.250000 0.000000
O O9 0.601093 0.295879 0.962024
O O10 0.688312 0.395916 0.834873
O O11 0.500000 0.500000 0.000000
O O12 0.000000 0.731804 0.250000
#
# Coordination Sequence:
#
# PCOD9275276 Si02
#       5
#     8   8   8   8   8
#     4  10  20  39  61  85 122 151 191 251 291 340
#     4  10  21  36  63  91 111 152 203 239 291 352
#     4  10  20  39  59  83 121 156 187 246 293 342
#     4  10  21  39  61  80 119 159 190 239 300 341
#     4  10  22  38  59  89 118 155 199 236 293 354
#
# _framework density 22.962239
#
# number of rings (size 3 to 8) (size 9 to 14) (size 15 to 20)
#    0.000    2.000    2.000    1.200    0.000    2.400 
#    0.000    0.000    0.000    0.000    0.000    0.000 
#    0.000    0.000    0.000    0.000    0.000    0.000 
#
# Total GULP energy -111823.612150 kJ/mol
# GULP energy per Si atom -5591.180608 kJ/mol
# Density = 2.290998 g / cm^3
# Si number density = 22.962239 Si / 1000 Ang^3
#
#
#
# Elastic Constant Matrix: (Units=GPa)
#
#
# Indices 1 2 3 4 5 6 
#
# 1 102.7265 58.8132 19.5215 -0.0006 -28.4831 -0.0002
# 2 58.8132 192.5067 49.9338 -0.0009 -17.5723 -0.0002
# 3 19.5215 49.9338 69.7924 -0.0038 -10.1567 -0.0007
# 4 -0.0006 -0.0009 -0.0038 30.6456 0.0009 -14.8564
# 5 -28.4831 -17.5723 -10.1567 0.0009 42.7864 0.0003
# 6 -0.0002 -0.0002 -0.0007 -14.8564 0.0003 38.7619
#
#
#
# Elastic Compliance Matrix: (Units=1/GPa)
#
#
# Indices 1 2 3 4 5 6 
#
# 1 0.013935 -0.003474 -0.000279 0.000000 0.007783 0.000000
# 2 -0.003474 0.007351 -0.004334 0.000000 -0.000323 0.000000
# 3 -0.000279 -0.004334 0.017838 0.000003 0.002268 0.000001
# 4 0.000000 0.000000 0.000003 0.040078 -0.000001 0.015361
# 5 0.007783 -0.000323 0.002268 -0.000001 0.028959 0.000000
# 6 0.000000 0.000000 0.000001 0.015361 0.000000 0.031686
#
#
# Mechanical properties :
#
#
# Convention : Reuss Voigt Hill
#
# Bulk Modulus (GPa) = 43.57834 69.06253 56.32043
# Shear Modulus (GPa) = 30.54904 38.22258 34.38581
#
# Velocity S-wave (km/s) = 3.65143 4.08436 3.87394
# Velocity P-wave (km/s) = 6.06603 7.23771 6.67762
#
# Compressibility (1/GPa) = 0.02294718
#
# Stress axis : x y z
#
# Youngs Moduli (GPa) = 71.76228 136.03712 56.06153
#
# Poissons Ratio (x) = 0.47265 0.01565
# Poissons Ratio (y) = 0.24933 0.24300
# Poissons Ratio (z) = 0.02004 0.58965
#
# Static dielectric constant tensor:
#      x y z
#    x 1.878220 -0.000020 0.052760 
#    y -0.000020 2.061340 0.000000 
#    z 0.052760 0.000000 1.811680 
# 
# From -- ./inp_files/141753.got.cif
#   From: 2010.05.17/outbox.cif.g08.bks.cpg/sg15_71_cif.got.tgz:141753.got - 2010.06.03 18:47:42.
