data_PCOD9275542
_publ_section_title
;
Structure prediction by ZEFSAII (Michael W. Deem and Ramdas Pophale) SiO2 
 PCOD9275542
Probable space group: C 2/C
;
_chemical_formula_sum "Si O2"
_cell_formula_units_Z 48
_cell_length_a 28.344456
_cell_length_b 9.533873
_cell_length_c 18.159246
_cell_angle_alpha 90.000000
_cell_angle_beta 149.861386
_cell_angle_gamma 90.000000
_cell_volume 2463.882877
_symmetry_space_group_name_H-M "C 2/C"
_symmetry_group_IT_number 15
_symmetry_cell_setting 'monoclinic'
loop_
_space_group_symop_operation_xyz
x,y,z
-x,y,1/2-z
-x,-y,-z
x,-y,1/2+z
1/2+x,1/2+y,z
1/2-x,1/2+y,1/2-z
1/2-x,1/2-y,-z
1/2+x,1/2-y,1/2+z
loop_
_atom_site_type_symbol
_atom_site_label
_atom_site_fract_x
_atom_site_fract_y
_atom_site_fract_z
Si Si1 0.152641 0.059505 0.355633
Si Si2 0.500000 0.885075 0.750000
Si Si3 0.385478 0.131283 0.516088
Si Si4 0.608904 0.044243 0.141824
Si Si5 0.000000 0.147016 0.250000
Si Si6 0.712707 0.199596 0.853334
Si Si7 0.143321 0.249463 0.824755
O O1 0.082656 0.055871 0.329729
O O2 0.250102 0.102422 0.528408
O O3 0.136489 0.192876 0.282056
O O4 0.137113 0.914109 0.294546
O O5 0.565242 0.797494 0.780407
O O6 0.427409 0.989073 0.608865
O O7 0.370598 0.107778 0.410183
O O8 0.462429 0.250265 0.636303
O O9 0.294079 0.197771 0.432337
O O10 0.631269 0.150743 0.238343
O O11 0.671531 0.905720 0.238601
O O12 0.500000 0.000000 0.000000
O O13 0.250000 0.250000 0.000000
#
# Coordination Sequence:
#
# PCOD9275542 Si02
#       7
#     8   4   8   8   4   8   8
#     4  10  20  39  62  93 123 168 227 266 326 402
#     4  11  23  42  68 100 132 178 230 274 350 406
#     4  10  22  40  65  92 131 176 220 272 337 409
#     4  12  24  44  64  99 138 176 221 284 355 400
#     4   9  19  38  66  88 124 178 218 266 326 408
#     4  10  22  39  65  91 128 177 225 271 335 413
#     4  12  24  41  70  99 134 177 226 286 338 411
#
# _framework density 19.481445999999998
#
# number of rings (size 3 to 8) (size 9 to 14) (size 15 to 20)
#    0.000    1.333    3.333    2.500    4.667    2.667 
#    0.000    3.333    0.000    0.000    0.000    0.000 
#    0.000    0.000    0.000    0.000    0.000    0.000 
#
# Total GULP energy -133779.360649 kJ/mol
# GULP energy per Si atom -5574.140027 kJ/mol
# Density = 1.943711 g / cm^3
# Si number density = 19.481446 Si / 1000 Ang^3
#
#
#
# Elastic Constant Matrix: (Units=GPa)
#
#
# Indices 1 2 3 4 5 6 
#
# 1 116.3746 44.5143 48.9285 0.0000 -5.3194 0.0000
# 2 44.5143 118.0527 47.2098 0.0000 -4.1129 0.0000
# 3 48.9285 47.2098 84.2953 0.0000 -9.8084 0.0000
# 4 0.0000 0.0000 0.0000 19.4857 0.0000 0.6160
# 5 -5.3194 -4.1129 -9.8084 0.0000 36.3748 0.0000
# 6 0.0000 0.0000 0.0000 0.6160 0.0000 25.5655
#
#
#
# Elastic Compliance Matrix: (Units=1/GPa)
#
#
# Indices 1 2 3 4 5 6 
#
# 1 0.011796 -0.002203 -0.005618 0.000000 -0.000039 0.000000
# 2 -0.002203 0.011333 -0.005118 0.000000 -0.000421 0.000000
# 3 -0.005618 -0.005118 0.018404 0.000000 0.003563 0.000000
# 4 0.000000 0.000000 0.000000 0.051359 0.000000 -0.001238
# 5 -0.000039 -0.000421 0.003563 0.000000 0.028399 0.000000
# 6 0.000000 0.000000 0.000000 -0.001238 0.000000 0.039145
#
#
# Mechanical properties :
#
#
# Convention : Reuss Voigt Hill
#
# Bulk Modulus (GPa) = 63.86711 66.66975 65.26843
# Shear Modulus (GPa) = 26.10544 28.15654 27.13099
#
# Velocity S-wave (km/s) = 3.66459 3.80583 3.73588
# Velocity P-wave (km/s) = 7.12463 7.32181 7.22390
#
# Compressibility (1/GPa) = 0.01565751
#
# Stress axis : x y z
#
# Youngs Moduli (GPa) = 84.77788 88.23586 54.33478
#
# Poissons Ratio (x) = 0.19435 0.30523
# Poissons Ratio (y) = 0.18673 0.27807
# Poissons Ratio (z) = 0.47624 0.45156
#
# Static dielectric constant tensor:
#      x y z
#    x 1.731550 0.000000 0.035810 
#    y 0.000000 1.722370 0.000000 
#    z 0.035810 0.000000 1.699080 
# 
# From -- ./inp_files/208975.got.cif
#   From: 2010.05.17/outbox.cif.g08.bks.cpg/sg15_105_cif.got.tgz:208975.got - 2010.06.03 18:47:42.
