data_PCOD9275891
_publ_section_title
;
Structure prediction by ZEFSAII (Michael W. Deem and Ramdas Pophale) SiO2 
 PCOD9275891
Probable space group: C 2/C
;
_chemical_formula_sum "Si O2"
_cell_formula_units_Z 56
_cell_length_a 8.611889
_cell_length_b 15.751545
_cell_length_c 22.016928
_cell_angle_alpha 90.000000
_cell_angle_beta 129.978471
_cell_angle_gamma 90.000000
_cell_volume 2288.596073
_symmetry_space_group_name_H-M "C 2/C"
_symmetry_group_IT_number 15
_symmetry_cell_setting 'monoclinic'
loop_
_space_group_symop_operation_xyz
x,y,z
-x,y,1/2-z
-x,-y,-z
x,-y,1/2+z
1/2+x,1/2+y,z
1/2-x,1/2+y,1/2-z
1/2-x,1/2-y,-z
1/2+x,1/2-y,1/2+z
loop_
_atom_site_type_symbol
_atom_site_label
_atom_site_fract_x
_atom_site_fract_y
_atom_site_fract_z
Si Si1 0.509754 0.832138 0.961268
Si Si2 0.274282 0.851014 0.016849
Si Si3 0.123099 0.937258 0.171912
Si Si4 0.000000 0.562330 0.250000
Si Si5 0.422008 0.182484 0.799463
Si Si6 0.500000 0.484940 0.750000
Si Si7 0.910645 0.140752 0.502253
Si Si8 0.298014 0.839474 0.791479
O O1 0.601040 0.743441 0.009703
O O2 0.355860 0.799688 0.870302
O O3 0.388656 0.879491 0.984294
O O4 0.684962 0.882705 0.969156
O O5 0.424485 0.852560 0.112404
O O6 0.054371 0.888526 0.981623
O O7 0.250000 0.750000 0.000000
O O8 0.225183 0.875658 0.247620
O O9 0.040642 0.888662 0.093341
O O10 0.300166 0.003663 0.197422
O O11 0.950299 0.974462 0.172096
O O12 0.989897 0.627828 0.302966
O O13 0.500000 0.174954 0.750000
O O14 0.345348 0.279281 0.784768
O O15 0.684482 0.424508 0.780200
#
# Coordination Sequence:
#
# PCOD9275891 Si02
#       8
#     8   8   8   4   8   4   8   8
#     4  10  22  40  64  99 136 163 215 284 327 383
#     4  10  21  36  60 102 132 161 205 283 335 373
#     4  11  21  43  64  95 125 173 220 273 321 391
#     4  10  24  40  64  90 140 162 216 276 334 382
#     4  12  20  38  74  94 120 171 231 268 318 385
#     4  10  26  38  66  90 140 166 214 270 338 380
#     4  10  20  39  65  94 128 164 217 274 324 376
#     4  11  23  44  64  99 127 173 219 274 324 394
#
# _framework density 24.469149000000002
#
# number of rings (size 3 to 8) (size 9 to 14) (size 15 to 20)
#    0.000    1.429    4.286    0.857    2.000    4.000 
#    2.571    1.429    0.000    0.000    0.000    0.000 
#    0.000    0.000    0.000    0.000    0.000    0.000 
#
# Total GULP energy -156074.117557 kJ/mol
# GULP energy per Si atom -5574.075627 kJ/mol
# Density = 2.441346 g / cm^3
# Si number density = 24.469149 Si / 1000 Ang^3
#
#
#
# Elastic Constant Matrix: (Units=GPa)
#
#
# Indices 1 2 3 4 5 6 
#
# 1 200.6499 16.6492 34.0211 0.0000 -18.9040 0.0000
# 2 16.6492 20.0202 -3.9987 0.0000 -14.1297 0.0000
# 3 34.0211 -3.9987 63.7487 0.0000 -6.5997 0.0000
# 4 0.0000 0.0000 0.0000 13.2335 0.0000 -4.7014
# 5 -18.9040 -14.1297 -6.5997 0.0000 24.8323 0.0000
# 6 0.0000 0.0000 0.0000 -4.7014 0.0000 41.1728
#
#
#
# Elastic Compliance Matrix: (Units=1/GPa)
#
#
# Indices 1 2 3 4 5 6 
#
# 1 0.006080 -0.005257 -0.003501 0.000000 0.000707 0.000000
# 2 -0.005257 0.095368 0.014387 0.000000 0.054086 0.000000
# 3 -0.003501 0.014387 0.019568 0.000000 0.010721 0.000000
# 4 0.000000 0.000000 0.000000 0.078761 0.000000 0.008994
# 5 0.000707 0.054086 0.010721 0.000000 0.074433 0.000000
# 6 0.000000 0.000000 0.000000 0.008994 0.000000 0.025315
#
#
# Mechanical properties :
#
#
# Convention : Reuss Voigt Hill
#
# Bulk Modulus (GPa) = 7.56015 41.97355 24.76685
# Shear Modulus (GPa) = 15.04401 31.69752 23.37076
#
# Velocity S-wave (km/s) = 2.48224 3.60308 3.09384
# Velocity P-wave (km/s) = 3.36329 5.87371 4.78603
#
# Compressibility (1/GPa) = 0.13227258
#
# Stress axis : x y z
#
# Youngs Moduli (GPa) = 164.46563 10.48574 51.10483
#
# Poissons Ratio (x) = 0.05512 0.17894
# Poissons Ratio (y) = 0.86459 -0.73524
# Poissons Ratio (z) = 0.57587 -0.15086
#
# Static dielectric constant tensor:
#      x y z
#    x 2.077470 0.000000 -0.002860 
#    y 0.000000 2.039290 0.000000 
#    z -0.002860 0.000000 1.961360 
# 
# From -- ./inp_files/265626.got.cif
#   From: 2010.05.17/outbox.cif.g08.bks.cpg/sg15_133_cif.got.tgz:265626.got - 2010.06.03 18:47:42.
