data_PCOD9275436
_publ_section_title
;
Structure prediction by ZEFSAII (Michael W. Deem and Ramdas Pophale) SiO2 
 PCOD9275436
Probable space group: C 2/C
;
_chemical_formula_sum "Si O2"
_cell_formula_units_Z 56
_cell_length_a 16.749446
_cell_length_b 13.469796
_cell_length_c 13.066407
_cell_angle_alpha 90.000000
_cell_angle_beta 106.243220
_cell_angle_gamma 90.000000
_cell_volume 2830.260493
_symmetry_space_group_name_H-M "C 2/C"
_symmetry_group_IT_number 15
_symmetry_cell_setting 'monoclinic'
loop_
_space_group_symop_operation_xyz
x,y,z
-x,y,1/2-z
-x,-y,-z
x,-y,1/2+z
1/2+x,1/2+y,z
1/2-x,1/2+y,1/2-z
1/2-x,1/2-y,-z
1/2+x,1/2-y,1/2+z
loop_
_atom_site_type_symbol
_atom_site_label
_atom_site_fract_x
_atom_site_fract_y
_atom_site_fract_z
Si Si1 0.826835 0.760400 0.890976
Si Si2 0.719204 0.091319 0.482115
Si Si3 0.566362 0.140153 0.034097
Si Si4 0.053172 0.534146 0.365517
Si Si5 0.673177 0.603676 0.469187
Si Si6 0.267522 0.243135 0.352102
Si Si7 0.995533 0.820478 0.625844
O O1 0.829500 0.651850 0.945920
O O2 0.768421 0.745185 0.772440
O O3 0.910712 0.815139 0.883540
O O4 0.784217 0.833755 0.955771
O O5 0.646808 0.066389 0.374191
O O6 0.772176 0.994222 0.531407
O O7 0.501696 0.120543 0.102111
O O8 0.653801 0.170290 0.113439
O O9 0.542338 0.226962 0.947841
O O10 0.567981 0.045175 0.961029
O O11 0.000000 0.495891 0.250000
O O12 0.703872 0.653068 0.586662
O O13 0.698049 0.689119 0.396535
O O14 0.572896 0.594124 0.425775
O O15 0.000000 0.810940 0.750000
#
# Coordination Sequence:
#
# PCOD9275436 Si02
#       7
#     8   8   8   8   8   8   8
#     4  11  24  41  67  89 124 173 215 255 315 380
#     4  11  24  43  60  93 131 165 208 263 317 383
#     4  10  21  36  58  92 124 155 211 264 311 380
#     4  11  21  35  59  92 127 163 199 263 328 377
#     4  10  22  38  63  91 131 156 210 267 316 374
#     4  10  20  39  61  92 119 168 210 256 318 376
#     4  11  21  39  65  91 121 164 212 261 311 374
#
# _framework density 19.786163999999999
#
# number of rings (size 3 to 8) (size 9 to 14) (size 15 to 20)
#    0.000    1.429    4.286    1.286    0.000    2.857 
#    0.000    0.000    0.000    0.000    0.000    0.000 
#    0.000    0.000    0.000    0.000    0.000    0.000 
#
# Total GULP energy -156063.189021 kJ/mol
# GULP energy per Si atom -5573.685322 kJ/mol
# Density = 1.974113 g / cm^3
# Si number density = 19.786164 Si / 1000 Ang^3
#
#
#
# Elastic Constant Matrix: (Units=GPa)
#
#
# Indices 1 2 3 4 5 6 
#
# 1 113.3768 5.4436 19.2503 0.0000 15.5976 0.0000
# 2 5.4436 24.3954 2.6977 0.0000 5.5425 0.0000
# 3 19.2503 2.6977 83.2924 0.0000 20.3848 0.0000
# 4 0.0000 0.0000 0.0000 11.2557 0.0000 0.6928
# 5 15.5976 5.5425 20.3848 0.0000 32.4212 0.0000
# 6 0.0000 0.0000 0.0000 0.6928 0.0000 12.7762
#
#
#
# Elastic Compliance Matrix: (Units=1/GPa)
#
#
# Indices 1 2 3 4 5 6 
#
# 1 0.009592 -0.001180 -0.001298 0.000000 -0.003597 0.000000
# 2 -0.001180 0.042809 0.000636 0.000000 -0.007151 0.000000
# 3 -0.001298 0.000636 0.014370 0.000000 -0.008519 0.000000
# 4 0.000000 0.000000 0.000000 0.089141 0.000000 -0.004834
# 5 -0.003597 -0.007151 -0.008519 0.000000 0.039153 0.000000
# 6 0.000000 0.000000 0.000000 -0.004834 0.000000 0.078533
#
#
# Mechanical properties :
#
#
# Convention : Reuss Voigt Hill
#
# Bulk Modulus (GPa) = 15.85098 30.64975 23.25037
# Shear Modulus (GPa) = 16.76098 24.20215 20.48157
#
# Velocity S-wave (km/s) = 2.91367 3.50120 3.22086
# Velocity P-wave (km/s) = 4.39861 5.64523 5.06046
#
# Compressibility (1/GPa) = 0.06308757
#
# Stress axis : x y z
#
# Youngs Moduli (GPa) = 104.25310 23.35964 69.58733
#
# Poissons Ratio (x) = 0.02756 0.09036
# Poissons Ratio (y) = 0.12298 -0.04427
# Poissons Ratio (z) = 0.13537 -0.01486
#
# Static dielectric constant tensor:
#      x y z
#    x 1.783050 0.000000 0.011100 
#    y 0.000000 1.710910 0.000000 
#    z 0.011100 0.000000 1.673440 
# 
# From -- ./inp_files/105815.got.cif
#   From: 2010.05.17/outbox.cif.g08.bks.cpg/sg15_53_cif.got.tgz:105815.got - 2010.06.03 18:47:42.
