data_PCOD9275535
_publ_section_title
;
Structure prediction by ZEFSAII (Michael W. Deem and Ramdas Pophale) SiO2 
 PCOD9275535
Probable space group: C 2/C
;
_chemical_formula_sum "Si O2"
_cell_formula_units_Z 40
_cell_length_a 23.936805
_cell_length_b 8.595173
_cell_length_c 17.599417
_cell_angle_alpha 90.000000
_cell_angle_beta 29.967369
_cell_angle_gamma 90.000000
_cell_volume 1808.674456
_symmetry_space_group_name_H-M "C 2/C"
_symmetry_group_IT_number 15
_symmetry_cell_setting 'monoclinic'
loop_
_space_group_symop_operation_xyz
x,y,z
-x,y,1/2-z
-x,-y,-z
x,-y,1/2+z
1/2+x,1/2+y,z
1/2-x,1/2+y,1/2-z
1/2-x,1/2-y,-z
1/2+x,1/2-y,1/2+z
loop_
_atom_site_type_symbol
_atom_site_label
_atom_site_fract_x
_atom_site_fract_y
_atom_site_fract_z
Si Si1 0.134129 0.198825 0.590243
Si Si2 0.539985 0.647259 0.999482
Si Si3 0.684935 0.799507 0.230198
Si Si4 0.265107 0.155476 0.287381
Si Si5 0.889840 0.147624 0.411541
O O1 0.250000 0.250000 0.500000
O O2 0.177079 0.214418 0.453188
O O3 0.000000 0.255156 0.750000
O O4 0.123239 0.013335 0.618613
O O5 0.441740 0.764150 0.137408
O O6 0.588080 0.604584 0.025491
O O7 0.500000 0.500000 0.000000
O O8 0.626948 0.734995 0.843093
O O9 0.715870 0.682349 0.261848
O O10 0.696700 0.979786 0.240794
O O11 0.771312 0.768595 0.060093
O O12 0.000000 0.230830 0.250000
#
# Coordination Sequence:
#
# PCOD9275535 Si02
#       5
#     8   8   8   8   8
#     4  10  22  39  64  95 130 173 219 278 331 392
#     4  11  22  37  67  90 124 178 218 272 336 396
#     4  10  20  39  62  92 124 167 221 271 334 395
#     4  10  22  38  62  93 130 163 224 278 328 405
#     4   9  21  39  59  90 131 166 216 273 332 391
#
# _framework density 22.115644
#
# number of rings (size 3 to 8) (size 9 to 14) (size 15 to 20)
#    0.000    2.000    0.000    4.200    8.400    0.800 
#    0.000    0.000    4.400    0.000    0.000    0.000 
#    0.000    0.000    0.000    0.000    0.000    0.000 
#
# Total GULP energy -111336.565151 kJ/mol
# GULP energy per Si atom -5566.828258 kJ/mol
# Density = 2.206531 g / cm^3
# Si number density = 22.115644 Si / 1000 Ang^3
#
#
#
# Elastic Constant Matrix: (Units=GPa)
#
#
# Indices 1 2 3 4 5 6 
#
# 1 72.6303 35.5781 31.0580 -0.0003 -6.4821 0.0000
# 2 35.5781 66.7118 44.8234 0.0003 -17.3515 -0.0001
# 3 31.0580 44.8234 221.4485 0.0001 -15.8411 0.0002
# 4 -0.0003 0.0003 0.0001 15.7044 0.0004 -6.2541
# 5 -6.4821 -17.3515 -15.8411 0.0004 38.3443 -0.0001
# 6 0.0000 -0.0001 0.0002 -6.2541 -0.0001 28.9833
#
#
#
# Elastic Compliance Matrix: (Units=1/GPa)
#
#
# Indices 1 2 3 4 5 6 
#
# 1 0.018820 -0.009965 -0.000739 0.000001 -0.001633 0.000000
# 2 -0.009965 0.024411 -0.002961 -0.000001 0.008138 0.000000
# 3 -0.000739 -0.002961 0.005270 0.000000 0.000712 0.000000
# 4 0.000001 -0.000001 0.000000 0.069663 -0.000001 0.015032
# 5 -0.001633 0.008138 0.000712 -0.000001 0.029780 0.000000
# 6 0.000000 0.000000 0.000000 0.015032 0.000000 0.037746
#
#
# Mechanical properties :
#
#
# Convention : Reuss Voigt Hill
#
# Bulk Modulus (GPa) = 47.23794 64.85661 56.04727
# Shear Modulus (GPa) = 22.71926 33.22847 27.97387
#
# Velocity S-wave (km/s) = 3.20862 3.88040 3.56039
# Velocity P-wave (km/s) = 5.92730 7.03324 6.50382
#
# Compressibility (1/GPa) = 0.02116943
#
# Stress axis : x y z
#
# Youngs Moduli (GPa) = 53.13455 40.96564 189.76310
#
# Poissons Ratio (x) = 0.40822 0.14030
# Poissons Ratio (y) = 0.52949 0.56193
# Poissons Ratio (z) = 0.03928 0.12131
#
# Static dielectric constant tensor:
#      x y z
#    x 1.904460 0.000000 -0.101760 
#    y 0.000000 1.807430 0.000000 
#    z -0.101760 0.000000 1.934040 
# 
# From -- ./inp_files/218788.got.cif
#   From: 2010.05.17/outbox.cif.g08.bks.cpg/sg15_110_cif.got.tgz:218788.got - 2010.06.03 18:47:42.
