data_PCOD9275331
_publ_section_title
;
Structure prediction by ZEFSAII (Michael W. Deem and Ramdas Pophale) SiO2 
 PCOD9275331
Probable space group: C 2/C
;
_chemical_formula_sum "Si O2"
_cell_formula_units_Z 56
_cell_length_a 11.359449
_cell_length_b 22.289041
_cell_length_c 13.137177
_cell_angle_alpha 90.000000
_cell_angle_beta 116.478812
_cell_angle_gamma 90.000000
_cell_volume 2977.295357
_symmetry_space_group_name_H-M "C 2/C"
_symmetry_group_IT_number 15
_symmetry_cell_setting 'monoclinic'
loop_
_space_group_symop_operation_xyz
x,y,z
-x,y,1/2-z
-x,-y,-z
x,-y,1/2+z
1/2+x,1/2+y,z
1/2-x,1/2+y,1/2-z
1/2-x,1/2-y,-z
1/2+x,1/2-y,1/2+z
loop_
_atom_site_type_symbol
_atom_site_label
_atom_site_fract_x
_atom_site_fract_y
_atom_site_fract_z
Si Si1 0.327706 0.283574 0.117658
Si Si2 0.712354 0.349133 0.075954
Si Si3 0.397680 0.244144 0.353195
Si Si4 0.701267 0.896562 0.172649
Si Si5 0.290884 0.467480 0.688052
Si Si6 0.914290 0.622635 0.473412
Si Si7 0.485776 0.446244 0.574733
O O1 0.315348 0.244579 0.216929
O O2 0.476016 0.282460 0.133321
O O3 0.277894 0.349499 0.129225
O O4 0.250000 0.250000 0.000000
O O5 0.674181 0.281027 0.086395
O O6 0.780018 0.373262 0.205161
O O7 0.811905 0.357054 0.021332
O O8 0.580881 0.388095 0.002262
O O9 0.436169 0.179017 0.407305
O O10 0.759407 0.963105 0.193110
O O11 0.550727 0.896269 0.077483
O O12 0.158733 0.430464 0.614996
O O13 0.382780 0.463668 0.623726
O O14 0.375140 0.439521 0.813542
O O15 0.500000 0.500000 0.500000
#
# Coordination Sequence:
#
# PCOD9275331 Si02
#       7
#     8   8   8   8   8   8   8
#     4  10  21  39  60  88 116 162 206 255 302 353
#     4  10  22  38  64  89 114 164 203 251 311 359
#     4  10  22  38  62  88 121 156 211 254 303 364
#     4  11  21  39  64  87 124 161 203 250 307 376
#     4  10  23  37  62  91 118 163 201 248 313 356
#     4  11  22  41  57  90 131 157 197 252 305 383
#     4  10  20  39  60  86 122 150 207 259 288 362
#
# _framework density 18.809017000000001
#
# number of rings (size 3 to 8) (size 9 to 14) (size 15 to 20)
#    0.000    1.714    2.857    1.286    2.000    2.286 
#    0.000    0.000    3.143    0.000    0.000    0.000 
#    0.000    0.000    0.000    0.000    0.000    0.000 
#
# Total GULP energy -156231.807226 kJ/mol
# GULP energy per Si atom -5579.707401 kJ/mol
# Density = 1.876621 g / cm^3
# Si number density = 18.809017 Si / 1000 Ang^3
#
#
#
# Elastic Constant Matrix: (Units=GPa)
#
#
# Indices 1 2 3 4 5 6 
#
# 1 51.0828 18.9300 24.9828 0.0000 8.5374 0.0000
# 2 18.9300 58.4925 30.9641 0.0000 11.2623 0.0000
# 3 24.9828 30.9641 118.9014 0.0000 21.4593 0.0000
# 4 0.0000 0.0000 0.0000 28.3583 0.0000 0.4611
# 5 8.5374 11.2623 21.4593 0.0000 31.6508 0.0000
# 6 0.0000 0.0000 0.0000 0.4611 0.0000 24.0518
#
#
#
# Elastic Compliance Matrix: (Units=1/GPa)
#
#
# Indices 1 2 3 4 5 6 
#
# 1 0.023520 -0.005538 -0.003088 0.000000 -0.002280 0.000000
# 2 -0.005538 0.021600 -0.003810 0.000000 -0.003609 0.000000
# 3 -0.003088 -0.003810 0.011003 0.000000 -0.005271 0.000000
# 4 0.000000 0.000000 0.000000 0.035274 0.000000 -0.000676
# 5 -0.002280 -0.003609 -0.005271 0.000000 0.037068 0.000000
# 6 0.000000 0.000000 0.000000 -0.000676 0.000000 0.041590
#
#
# Mechanical properties :
#
#
# Convention : Reuss Voigt Hill
#
# Bulk Modulus (GPa) = 31.99990 42.02563 37.01277
# Shear Modulus (GPa) = 24.34944 27.05218 25.70081
#
# Velocity S-wave (km/s) = 3.60191 3.79655 3.70051
# Velocity P-wave (km/s) = 5.86074 6.45060 6.16273
#
# Compressibility (1/GPa) = 0.03125010
#
# Stress axis : x y z
#
# Youngs Moduli (GPa) = 42.51776 46.29555 90.88626
#
# Poissons Ratio (x) = 0.25638 0.28067
# Poissons Ratio (y) = 0.23546 0.34629
# Poissons Ratio (z) = 0.13130 0.17639
#
# Static dielectric constant tensor:
#      x y z
#    x 1.680640 0.000000 0.045510 
#    y 0.000000 1.622530 0.000000 
#    z 0.045510 0.000000 1.684370 
# 
# From -- ./inp_files/90911.got.cif
#   From: 2010.05.17/outbox.cif.g08.bks.cpg/sg15_46_cif.got.tgz:90911.got - 2010.06.03 18:47:42.
