data_PCOD9275712
_publ_section_title
;
Structure prediction by ZEFSAII (Michael W. Deem and Ramdas Pophale) SiO2 
 PCOD9275712
Probable space group: C 2/C
;
_chemical_formula_sum "Si O2"
_cell_formula_units_Z 40
_cell_length_a 6.938362
_cell_length_b 31.730176
_cell_length_c 10.492005
_cell_angle_alpha 90.000000
_cell_angle_beta 68.201758
_cell_angle_gamma 90.000000
_cell_volume 2144.709784
_symmetry_space_group_name_H-M "C 2/C"
_symmetry_group_IT_number 15
_symmetry_cell_setting 'monoclinic'
loop_
_space_group_symop_operation_xyz
x,y,z
-x,y,1/2-z
-x,-y,-z
x,-y,1/2+z
1/2+x,1/2+y,z
1/2-x,1/2+y,1/2-z
1/2-x,1/2-y,-z
1/2+x,1/2-y,1/2+z
loop_
_atom_site_type_symbol
_atom_site_label
_atom_site_fract_x
_atom_site_fract_y
_atom_site_fract_z
Si Si1 0.492009 0.302574 0.901405
Si Si2 0.858312 0.000618 0.407628
Si Si3 0.484269 0.206769 0.902122
Si Si4 0.004851 0.444333 0.897239
Si Si5 0.631238 0.152211 0.095034
O O1 0.500000 0.311164 0.750000
O O2 0.570360 0.254385 0.899944
O O3 0.629717 0.338687 0.930941
O O4 0.257524 0.298661 0.004996
O O5 0.726401 0.043065 0.404963
O O6 0.000000 0.991180 0.250000
O O7 0.675974 0.967093 0.478893
O O8 0.000000 0.000000 0.500000
O O9 0.500000 0.196322 0.750000
O O10 0.595110 0.176936 0.974256
O O11 0.948355 0.395190 0.904912
O O12 0.000000 0.459580 0.750000
O O13 0.500000 0.169173 0.250000
#
# Coordination Sequence:
#
# PCOD9275712 Si02
#       5
#     8   8   8   8   8
#     4  10  20  39  64  85 122 169 211 249 313 369
#     4  11  22  43  69  92 122 166 200 249 319 379
#     4  10  22  39  59  91 123 162 211 262 303 364
#     4  10  23  41  63  97 124 155 214 255 303 384
#     4  11  22  40  62  91 123 165 205 258 311 367
#
# _framework density 18.650541
#
# number of rings (size 3 to 8) (size 9 to 14) (size 15 to 20)
#    0.000    1.600    4.000    0.600    0.000    2.400 
#    7.200    0.000    0.000    0.000    0.000    0.000 
#    0.000    0.000    0.000    0.000    0.000    0.000 
#
# Total GULP energy -111468.143648 kJ/mol
# GULP energy per Si atom -5573.407182 kJ/mol
# Density = 1.860809 g / cm^3
# Si number density = 18.650541 Si / 1000 Ang^3
#
#
#
# Elastic Constant Matrix: (Units=GPa)
#
#
# Indices 1 2 3 4 5 6 
#
# 1 99.7547 39.8771 37.8771 0.0000 10.6368 0.0000
# 2 39.8771 64.0048 26.3964 0.0000 19.1006 0.0000
# 3 37.8771 26.3964 130.0914 0.0000 4.4082 0.0000
# 4 0.0000 0.0000 0.0000 19.4677 0.0000 5.5003
# 5 10.6368 19.1006 4.4082 0.0000 26.2150 0.0000
# 6 0.0000 0.0000 0.0000 5.5003 0.0000 29.3400
#
#
#
# Elastic Compliance Matrix: (Units=1/GPa)
#
#
# Indices 1 2 3 4 5 6 
#
# 1 0.014077 -0.007864 -0.002518 0.000000 0.000441 0.000000
# 2 -0.007864 0.026164 -0.002496 0.000000 -0.015453 0.000000
# 3 -0.002518 -0.002496 0.008881 0.000000 0.001347 0.000000
# 4 0.000000 0.000000 0.000000 0.054240 0.000000 -0.010168
# 5 0.000441 -0.015453 0.001347 0.000000 0.049000 0.000000
# 6 0.000000 0.000000 0.000000 -0.010168 0.000000 0.035989
#
#
# Mechanical properties :
#
#
# Convention : Reuss Voigt Hill
#
# Bulk Modulus (GPa) = 42.79503 55.79468 49.29485
# Shear Modulus (GPa) = 22.53313 27.65121 25.09217
#
# Velocity S-wave (km/s) = 3.47965 3.85463 3.67193
# Velocity P-wave (km/s) = 6.25616 7.05632 6.66825
#
# Compressibility (1/GPa) = 0.02336720
#
# Stress axis : x y z
#
# Youngs Moduli (GPa) = 71.03689 38.22038 112.60262
#
# Poissons Ratio (x) = 0.30056 0.28354
# Poissons Ratio (y) = 0.55862 0.28101
# Poissons Ratio (z) = 0.17887 0.09538
#
# Static dielectric constant tensor:
#      x y z
#    x 1.663040 0.000000 -0.003420 
#    y 0.000000 1.664590 0.000000 
#    z -0.003420 0.000000 1.622410 
# 
# From -- ./inp_files/73792.got.cif
#   From: 2010.05.17/outbox.cif.g08.bks.cpg/sg15_37_cif.got.tgz:73792.got - 2010.06.03 18:47:42.
