data_PCOD9275519
_publ_section_title
;
Structure prediction by ZEFSAII (Michael W. Deem and Ramdas Pophale) SiO2 
 PCOD9275519
Probable space group: C 2/C
;
_chemical_formula_sum "Si O2"
_cell_formula_units_Z 40
_cell_length_a 15.723729
_cell_length_b 9.077865
_cell_length_c 25.682110
_cell_angle_alpha 90.000000
_cell_angle_beta 30.210363
_cell_angle_gamma 90.000000
_cell_volume 1844.548646
_symmetry_space_group_name_H-M "C 2/C"
_symmetry_group_IT_number 15
_symmetry_cell_setting 'monoclinic'
loop_
_space_group_symop_operation_xyz
x,y,z
-x,y,1/2-z
-x,-y,-z
x,-y,1/2+z
1/2+x,1/2+y,z
1/2-x,1/2+y,1/2-z
1/2-x,1/2-y,-z
1/2+x,1/2-y,1/2+z
loop_
_atom_site_type_symbol
_atom_site_label
_atom_site_fract_x
_atom_site_fract_y
_atom_site_fract_z
Si Si1 0.183298 0.082720 0.909466
Si Si2 0.525214 0.706620 0.847403
Si Si3 0.475604 0.146767 0.546436
Si Si4 0.246220 0.293985 0.585803
Si Si5 0.306937 0.979838 0.231938
O O1 0.276941 0.087885 0.804759
O O2 0.285713 0.968336 0.890663
O O3 0.131819 0.241293 0.958015
O O4 0.000000 0.000000 0.000000
O O5 0.415409 0.718049 0.853558
O O6 0.629481 0.556689 0.797651
O O7 0.645180 0.849690 0.788877
O O8 0.396815 0.720013 0.964020
O O9 0.315532 0.226111 0.602814
O O10 0.440920 0.101059 0.623930
O O11 0.500000 0.000000 0.500000
#
# Coordination Sequence:
#
# PCOD9275519 Si02
#       5
#     8   8   8   8   8
#     4  10  20  39  62  90 130 172 206 265 317 388
#     4  11  23  40  67  96 122 170 216 268 313 399
#     4  11  21  38  63  98 130 164 209 275 318 371
#     4  10  22  43  64  91 133 166 212 262 328 373
#     4  12  22  38  66  94 122 171 220 250 331 383
#
# _framework density 21.685521999999999
#
# number of rings (size 3 to 8) (size 9 to 14) (size 15 to 20)
#    0.000    1.200    6.000    2.400    0.000    3.200 
#    0.000    3.000    0.000    4.800    0.000    0.000 
#    0.000    0.000    0.000    0.000    0.000    0.000 
#
# Total GULP energy -111746.005632 kJ/mol
# GULP energy per Si atom -5587.300282 kJ/mol
# Density = 2.163616 g / cm^3
# Si number density = 21.685522 Si / 1000 Ang^3
#
#
#
# Elastic Constant Matrix: (Units=GPa)
#
#
# Indices 1 2 3 4 5 6 
#
# 1 64.2218 26.9524 30.1425 0.0000 7.6118 0.0000
# 2 26.9524 105.9248 49.5753 0.0000 7.5204 0.0000
# 3 30.1425 49.5753 126.1450 -0.0003 36.5507 0.0001
# 4 0.0000 0.0000 -0.0003 43.1951 0.0000 1.4766
# 5 7.6118 7.5204 36.5507 0.0000 42.5306 0.0000
# 6 0.0000 0.0000 0.0001 1.4766 0.0000 35.2598
#
#
#
# Elastic Compliance Matrix: (Units=1/GPa)
#
#
# Indices 1 2 3 4 5 6 
#
# 1 0.018389 -0.003217 -0.003117 0.000000 -0.000043 0.000000
# 2 -0.003217 0.012331 -0.004810 0.000000 0.002529 0.000000
# 3 -0.003117 -0.004810 0.013522 0.000000 -0.010212 0.000000
# 4 0.000000 0.000000 0.000000 0.023184 0.000000 -0.000971
# 5 -0.000043 0.002529 -0.010212 0.000000 0.031849 0.000000
# 6 0.000000 0.000000 0.000000 -0.000971 0.000000 0.028402
#
#
# Mechanical properties :
#
#
# Convention : Reuss Voigt Hill
#
# Bulk Modulus (GPa) = 45.55233 56.62576 51.08905
# Shear Modulus (GPa) = 31.78972 36.83852 34.31412
#
# Velocity S-wave (km/s) = 3.83292 4.12607 3.98219
# Velocity P-wave (km/s) = 6.37494 6.99058 6.68985
#
# Compressibility (1/GPa) = 0.02195277
#
# Stress axis : x y z
#
# Youngs Moduli (GPa) = 54.37915 81.09664 73.95556
#
# Poissons Ratio (x) = 0.26090 0.23054
# Poissons Ratio (y) = 0.17494 0.35574
# Poissons Ratio (z) = 0.16952 0.39009
#
# Static dielectric constant tensor:
#      x y z
#    x 1.808630 0.000000 -0.001720 
#    y 0.000000 1.801800 0.000000 
#    z -0.001720 0.000000 1.866010 
# 
# From -- ./inp_files/159115.got.cif
#   From: 2010.05.17/outbox.cif.g08.bks.cpg/sg15_80_cif.got.tgz:159115.got - 2010.06.03 18:47:42.
