data_PCOD9275221
_publ_section_title
;
Structure prediction by ZEFSAII (Michael W. Deem and Ramdas Pophale) SiO2 
 PCOD9275221
Probable space group: C 2/C
;
_chemical_formula_sum "Si O2"
_cell_formula_units_Z 44
_cell_length_a 14.423682
_cell_length_b 26.686571
_cell_length_c 5.652642
_cell_angle_alpha 90.000000
_cell_angle_beta 97.572877
_cell_angle_gamma 90.000000
_cell_volume 2156.829815
_symmetry_space_group_name_H-M "C 2/C"
_symmetry_group_IT_number 15
_symmetry_cell_setting 'monoclinic'
loop_
_space_group_symop_operation_xyz
x,y,z
-x,y,1/2-z
-x,-y,-z
x,-y,1/2+z
1/2+x,1/2+y,z
1/2-x,1/2+y,1/2-z
1/2-x,1/2-y,-z
1/2+x,1/2-y,1/2+z
loop_
_atom_site_type_symbol
_atom_site_label
_atom_site_fract_x
_atom_site_fract_y
_atom_site_fract_z
Si Si1 0.500000 0.043921 0.750000
Si Si2 0.708506 0.977795 0.415932
Si Si3 0.675850 0.707315 0.062571
Si Si4 0.301775 0.867932 0.869781
Si Si5 0.000000 0.224317 0.750000
Si Si6 0.092760 0.712518 0.880523
Si Si7 0.000000 0.398302 0.750000
O O1 0.403520 0.014978 0.664161
O O2 0.513418 0.074501 0.510033
O O3 0.720083 0.920658 0.513303
O O4 0.743189 0.009956 0.658202
O O5 0.727277 0.658310 0.175551
O O6 0.622598 0.739459 0.243501
O O7 0.750000 0.750000 0.000000
O O8 0.587135 0.692451 0.873176
O O9 0.400235 0.872009 0.762169
O O10 0.323571 0.826051 0.074296
O O11 0.057040 0.263151 0.607456
O O12 0.000000 0.686251 0.750000
#
# Coordination Sequence:
#
# PCOD9275221 Si02
#       7
#     4   8   8   8   4   8   4
#     4  10  20  39  55  78 118 164 204 255 298 347
#     4  11  23  39  55  83 120 161 209 259 297 354
#     4  11  23  37  61  89 120 159 201 245 306 368
#     4  11  23  37  58  86 117 169 202 244 308 359
#     4  10  21  42  57  84 126 152 200 251 292 365
#     4  10  22  38  56  85 123 155 198 246 293 367
#     4  10  23  35  56  88 118 162 212 242 288 368
#
# _framework density 20.400310999999999
#
# number of rings (size 3 to 8) (size 9 to 14) (size 15 to 20)
#    0.000    1.455    1.818    3.818    7.636    2.182 
#    0.000    0.000    0.000    0.000    0.000    1.273 
#    0.000    0.000    0.000    0.000    0.000    0.000 
#
# Total GULP energy -122487.497633 kJ/mol
# GULP energy per Si atom -5567.613529 kJ/mol
# Density = 2.035388 g / cm^3
# Si number density = 20.400311 Si / 1000 Ang^3
#
#
#
# Elastic Constant Matrix: (Units=GPa)
#
#
# Indices 1 2 3 4 5 6 
#
# 1 65.4486 28.2465 34.0386 0.0000 33.4266 0.0000
# 2 28.2465 70.4151 42.7464 0.0000 28.6657 0.0000
# 3 34.0386 42.7464 108.9953 0.0000 24.0439 0.0000
# 4 0.0000 0.0000 0.0000 15.5377 0.0000 15.7578
# 5 33.4266 28.6657 24.0439 0.0000 44.6646 0.0000
# 6 0.0000 0.0000 0.0000 15.7578 0.0000 24.5972
#
#
#
# Elastic Compliance Matrix: (Units=1/GPa)
#
#
# Indices 1 2 3 4 5 6 
#
# 1 0.026568 -0.001339 -0.004057 0.000000 -0.016839 0.000000
# 2 -0.001339 0.022667 -0.006222 0.000000 -0.010196 0.000000
# 3 -0.004057 -0.006222 0.012858 0.000000 0.000108 0.000000
# 4 0.000000 0.000000 0.000000 0.183733 0.000000 -0.117706
# 5 -0.016839 -0.010196 0.000108 0.000000 0.041477 0.000000
# 6 0.000000 0.000000 0.000000 -0.117706 0.000000 0.116061
#
#
# Mechanical properties :
#
#
# Convention : Reuss Voigt Hill
#
# Bulk Modulus (GPa) = 25.73642 50.54689 38.14165
# Shear Modulus (GPa) = 11.37522 26.28174 18.82848
#
# Velocity S-wave (km/s) = 2.36392 3.59318 3.04131
# Velocity P-wave (km/s) = 4.48262 6.48428 5.57404
#
# Compressibility (1/GPa) = 0.03885544
#
# Stress axis : x y z
#
# Youngs Moduli (GPa) = 37.63996 44.11792 77.77182
#
# Poissons Ratio (x) = 0.05909 0.31551
# Poissons Ratio (y) = 0.05041 0.48391
# Poissons Ratio (z) = 0.15270 0.27451
#
# Static dielectric constant tensor:
#      x y z
#    x 1.413790 0.000000 0.193310 
#    y 0.000000 1.769690 0.000000 
#    z 0.193310 0.000000 1.820960 
# 
# From -- ./inp_files/8091.got.cif
#   From: 2010.05.17/outbox.cif.g08.bks.cpg/sg15_5_cif.got.tgz:8091.got - 2010.06.03 18:47:42.
