data_PCOD9275093
_publ_section_title
;
Structure prediction by ZEFSAII (Michael W. Deem and Ramdas Pophale) SiO2 
 PCOD9275093
Probable space group: C 2/C
;
_chemical_formula_sum "Si O2"
_cell_formula_units_Z 36
_cell_length_a 15.292905
_cell_length_b 16.409337
_cell_length_c 11.124607
_cell_angle_alpha 90.000000
_cell_angle_beta 26.784957
_cell_angle_gamma 90.000000
_cell_volume 1258.051739
_symmetry_space_group_name_H-M "C 2/C"
_symmetry_group_IT_number 15
_symmetry_cell_setting 'monoclinic'
loop_
_space_group_symop_operation_xyz
x,y,z
-x,y,1/2-z
-x,-y,-z
x,-y,1/2+z
1/2+x,1/2+y,z
1/2-x,1/2+y,1/2-z
1/2-x,1/2-y,-z
1/2+x,1/2-y,1/2+z
loop_
_atom_site_type_symbol
_atom_site_label
_atom_site_fract_x
_atom_site_fract_y
_atom_site_fract_z
Si Si1 0.363392 0.642362 0.048144
Si Si2 0.000000 0.540661 0.750000
Si Si3 0.814962 0.158983 0.397762
Si Si4 0.790661 0.324571 0.072921
Si Si5 0.211613 0.024974 0.796504
O O1 0.340819 0.650243 0.222386
O O2 0.274852 0.552191 0.127604
O O3 0.596748 0.647389 0.738122
O O4 0.267232 0.727813 0.125586
O O5 0.144754 0.598653 0.643151
O O6 0.130114 0.493477 0.498893
O O7 0.750000 0.250000 0.500000
O O8 0.000000 0.135591 0.250000
O O9 0.000000 0.334664 0.750000
O O10 0.755515 0.377435 0.237838
O O11 0.000000 0.000000 0.000000
#
# Coordination Sequence:
#
# PCOD9275093 Si02
#       5
#     8   4   8   8   8
#     4  10  23  39  65 101 135 172 235 285 340 421
#     4  10  20  38  68  96 134 180 228 290 358 408
#     4  11  21  37  65 101 141 179 228 291 357 419
#     4  11  21  41  70  93 135 187 224 281 351 412
#     4   9  20  40  67  96 137 178 227 296 345 410
#
# _framework density 28.615676000000001
#
# number of rings (size 3 to 8) (size 9 to 14) (size 15 to 20)
#    0.000    1.778    2.222    2.000    3.111    0.000 
#    0.000    1.111   19.556    0.000    0.000    0.000 
#    0.000    0.000    0.000    0.000    0.000    0.000 
#
# Total GULP energy -100613.714913 kJ/mol
# GULP energy per Si atom -5589.650829 kJ/mol
# Density = 2.855055 g / cm^3
# Si number density = 28.615676 Si / 1000 Ang^3
#
#
#
# Elastic Constant Matrix: (Units=GPa)
#
#
# Indices 1 2 3 4 5 6 
#
# 1 87.2658 15.6913 24.8130 0.0044 -24.6540 -0.0012
# 2 15.6913 214.7832 36.1248 0.0041 18.7689 -0.0063
# 3 24.8130 36.1248 164.7598 0.0064 -9.1482 -0.0147
# 4 0.0044 0.0041 0.0064 68.6203 -0.0045 -2.5211
# 5 -24.6540 18.7689 -9.1482 -0.0045 45.5799 0.0045
# 6 -0.0012 -0.0063 -0.0147 -2.5211 0.0045 18.9170
#
#
#
# Elastic Compliance Matrix: (Units=1/GPa)
#
#
# Indices 1 2 3 4 5 6 
#
# 1 0.014435 -0.001535 -0.001384 0.000000 0.008162 -0.000003
# 2 -0.001535 0.005232 -0.001094 0.000000 -0.003204 0.000002
# 3 -0.001384 -0.001094 0.006574 0.000000 0.001021 0.000004
# 4 0.000000 0.000000 0.000000 0.014645 0.000001 0.001952
# 5 0.008162 -0.003204 0.001021 0.000001 0.027879 -0.000006
# 6 -0.000003 0.000002 0.000004 0.001952 -0.000006 0.053123
#
#
# Mechanical properties :
#
#
# Convention : Reuss Voigt Hill
#
# Bulk Modulus (GPa) = 54.89949 68.89633 61.89791
# Shear Modulus (GPa) = 36.76879 52.63542 44.70211
#
# Velocity S-wave (km/s) = 3.58846 4.29347 3.95670
# Velocity P-wave (km/s) = 6.03293 6.97905 6.52316
#
# Compressibility (1/GPa) = 0.01821511
#
# Stress axis : x y z
#
# Youngs Moduli (GPa) = 69.27748 191.13200 152.10410
#
# Poissons Ratio (x) = 0.29338 0.21053
# Poissons Ratio (y) = 0.10634 0.16639
# Poissons Ratio (z) = 0.09589 0.20908
#
# Static dielectric constant tensor:
#      x y z
#    x 2.412010 -0.000010 0.076940 
#    y -0.000010 2.294420 0.000010 
#    z 0.076940 0.000010 2.160370 
# 
# From -- ./inp_files/168953.got.cif
#   From: 2010.05.17/outbox.cif.g08.bks.cpg/sg15_85_cif.got.tgz:168953.got - 2010.06.03 18:47:42.
