data_PCOD9275522
_publ_section_title
;
Structure prediction by ZEFSAII (Michael W. Deem and Ramdas Pophale) SiO2 
 PCOD9275522
Probable space group: C 2/C
;
_chemical_formula_sum "Si O2"
_cell_formula_units_Z 56
_cell_length_a 10.994227
_cell_length_b 7.662590
_cell_length_c 27.082240
_cell_angle_alpha 90.000000
_cell_angle_beta 91.262705
_cell_angle_gamma 90.000000
_cell_volume 2280.969069
_symmetry_space_group_name_H-M "C 2/C"
_symmetry_group_IT_number 15
_symmetry_cell_setting 'monoclinic'
loop_
_space_group_symop_operation_xyz
x,y,z
-x,y,1/2-z
-x,-y,-z
x,-y,1/2+z
1/2+x,1/2+y,z
1/2-x,1/2+y,1/2-z
1/2-x,1/2-y,-z
1/2+x,1/2-y,1/2+z
loop_
_atom_site_type_symbol
_atom_site_label
_atom_site_fract_x
_atom_site_fract_y
_atom_site_fract_z
Si Si1 0.951312 0.572150 0.303196
Si Si2 0.195363 0.880303 0.175814
Si Si3 0.626741 0.920185 0.050067
Si Si4 0.641034 0.733299 0.234325
Si Si5 0.038510 0.220511 0.516240
Si Si6 0.888622 0.995331 0.076228
Si Si7 0.093696 0.350185 0.378370
O O1 0.917181 0.749014 0.329762
O O2 0.000000 0.622167 0.250000
O O3 0.055399 0.464843 0.331398
O O4 0.852606 0.416649 0.295601
O O5 0.273361 0.765942 0.217434
O O6 0.172400 0.067468 0.200589
O O7 0.263098 0.889327 0.123439
O O8 0.507167 0.909203 0.083580
O O9 0.617190 0.108574 0.025127
O O10 0.755719 0.908683 0.078332
O O11 0.592259 0.777173 0.008922
O O12 0.500000 0.712904 0.250000
O O13 0.103981 0.102329 0.475993
O O14 0.999704 0.133539 0.567072
O O15 0.911725 0.139667 0.118480
#
# Coordination Sequence:
#
# PCOD9275522 Si02
#       7
#     8   8   8   8   8   8   8
#     4  11  22  44  64  87 126 161 214 264 306 376
#     4  12  22  41  64  88 120 164 203 264 316 363
#     4  10  20  39  62  91 126 161 201 258 306 368
#     4  11  22  40  67  90 113 161 218 255 312 375
#     4   9  20  38  65  93 116 161 213 244 304 385
#     4  10  20  39  63  88 126 162 202 255 312 362
#     4  11  23  41  56  91 131 158 206 260 308 372
#
# _framework density 24.550968999999998
#
# number of rings (size 3 to 8) (size 9 to 14) (size 15 to 20)
#    0.000    1.429    4.286    2.143    0.000    0.000 
#   10.286    0.000    0.000    0.000    0.000    0.000 
#    0.000    0.000    0.000    0.000    0.000    0.000 
#
# Total GULP energy -156187.554856 kJ/mol
# GULP energy per Si atom -5578.126959 kJ/mol
# Density = 2.449509 g / cm^3
# Si number density = 24.550969 Si / 1000 Ang^3
#
#
#
# Elastic Constant Matrix: (Units=GPa)
#
#
# Indices 1 2 3 4 5 6 
#
# 1 69.5801 19.7336 23.2421 0.0000 -8.2338 0.0000
# 2 19.7336 112.6517 22.9117 0.0000 -19.6777 0.0000
# 3 23.2421 22.9117 72.5724 0.0000 -25.9941 0.0000
# 4 0.0000 0.0000 0.0000 11.2295 0.0000 3.5512
# 5 -8.2338 -19.6777 -25.9941 0.0000 27.8868 0.0000
# 6 0.0000 0.0000 0.0000 3.5512 0.0000 18.4369
#
#
#
# Elastic Compliance Matrix: (Units=1/GPa)
#
#
# Indices 1 2 3 4 5 6 
#
# 1 0.016513 -0.002091 -0.005120 0.000000 -0.001372 0.000000
# 2 -0.002091 0.010434 -0.000313 0.000000 0.006453 0.000000
# 3 -0.005120 -0.000313 0.022364 0.000000 0.019114 0.000000
# 4 0.000000 0.000000 0.000000 0.094827 0.000000 -0.018265
# 5 -0.001372 0.006453 0.019114 0.000000 0.057824 0.000000
# 6 0.000000 0.000000 0.000000 -0.018265 0.000000 0.057757
#
#
# Mechanical properties :
#
#
# Convention : Reuss Voigt Hill
#
# Bulk Modulus (GPa) = 29.18565 42.95323 36.06944
# Shear Modulus (GPa) = 17.47106 24.10511 20.78808
#
# Velocity S-wave (km/s) = 2.67052 3.13683 2.91302
# Velocity P-wave (km/s) = 4.62845 5.53653 5.10273
#
# Compressibility (1/GPa) = 0.03426341
#
# Stress axis : x y z
#
# Youngs Moduli (GPa) = 60.55936 95.83928 44.71487
#
# Poissons Ratio (x) = 0.20040 0.22893
# Poissons Ratio (y) = 0.12663 0.01399
# Poissons Ratio (z) = 0.31005 0.02999
#
# Static dielectric constant tensor:
#      x y z
#    x 2.259980 0.000000 -0.033130 
#    y 0.000000 1.933070 0.000000 
#    z -0.033130 0.000000 2.054250 
# 
# From -- ./inp_files/309902.got.cif
#   From: 2010.05.17/outbox.cif.g08.bks.cpg/sg15_155_cif.got.tgz:309902.got - 2010.06.03 18:47:42.
