data_PCOD9275903
_publ_section_title
;
Structure prediction by ZEFSAII (Michael W. Deem and Ramdas Pophale) SiO2 
 PCOD9275903
Probable space group: C 2/C
;
_chemical_formula_sum "Si O2"
_cell_formula_units_Z 56
_cell_length_a 7.816469
_cell_length_b 26.267941
_cell_length_c 12.745118
_cell_angle_alpha 90.000000
_cell_angle_beta 102.124342
_cell_angle_gamma 90.000000
_cell_volume 2558.488644
_symmetry_space_group_name_H-M "C 2/C"
_symmetry_group_IT_number 15
_symmetry_cell_setting 'monoclinic'
loop_
_space_group_symop_operation_xyz
x,y,z
-x,y,1/2-z
-x,-y,-z
x,-y,1/2+z
1/2+x,1/2+y,z
1/2-x,1/2+y,1/2-z
1/2-x,1/2-y,-z
1/2+x,1/2-y,1/2+z
loop_
_atom_site_type_symbol
_atom_site_label
_atom_site_fract_x
_atom_site_fract_y
_atom_site_fract_z
Si Si1 0.500000 0.603605 0.750000
Si Si2 0.329575 0.941323 0.023912
Si Si3 0.903867 0.540402 0.132193
Si Si4 0.851579 0.387119 0.352759
Si Si5 0.185537 0.712756 0.795827
Si Si6 0.226417 0.646892 0.421040
Si Si7 0.598190 0.349033 0.038305
Si Si8 0.500000 0.780457 0.750000
O O1 0.314302 0.577794 0.701282
O O2 0.468959 0.635572 0.852914
O O3 0.440797 0.948751 0.932247
O O4 0.467680 0.916610 0.123936
O O5 0.177196 0.900099 0.997754
O O6 0.286034 0.996442 0.064898
O O7 0.000000 0.524467 0.250000
O O8 0.794576 0.591895 0.136690
O O9 0.838374 0.337387 0.279699
O O10 0.829470 0.366029 0.467494
O O11 0.246856 0.691350 0.917865
O O12 0.346963 0.746241 0.778491
O O13 0.000000 0.739974 0.750000
O O14 0.425474 0.667171 0.453216
O O15 0.093192 0.685001 0.349346
#
# Coordination Sequence:
#
# PCOD9275903 Si02
#       8
#     4   8   8   8   8   8   8   4
#     4   8  17  28  56  94 118 156 198 252 323 374
#     4  10  21  37  68  95 129 160 208 272 320 383
#     4  10  22  40  64  94 127 174 209 248 330 401
#     4   9  18  37  61  90 123 157 206 265 328 378
#     4  11  22  39  63 100 123 161 222 277 328 381
#     4  10  22  43  62  82 129 181 207 255 323 394
#     4  10  20  39  65  95 128 161 213 276 322 383
#     4  12  25  44  60  86 136 178 220 270 327 388
#
# _framework density 21.887922
#
# number of rings (size 3 to 8) (size 9 to 14) (size 15 to 20)
#    0.000    2.000    2.143    2.571    4.000    2.857 
#    5.143    2.143    0.000    0.000    0.000    0.000 
#    0.000    0.000    0.000    0.000    0.000    0.000 
#
# Total GULP energy -156150.047658 kJ/mol
# GULP energy per Si atom -5576.787416 kJ/mol
# Density = 2.183810 g / cm^3
# Si number density = 21.887922 Si / 1000 Ang^3
#
#
#
# Elastic Constant Matrix: (Units=GPa)
#
#
# Indices 1 2 3 4 5 6 
#
# 1 89.6296 31.6225 29.6464 0.0000 32.2087 0.0000
# 2 31.6225 79.5997 20.6481 0.0000 7.6300 0.0000
# 3 29.6464 20.6481 81.7370 0.0000 13.5788 0.0000
# 4 0.0000 0.0000 0.0000 10.5037 0.0000 -11.6497
# 5 32.2087 7.6300 13.5788 0.0000 29.8754 0.0000
# 6 0.0000 0.0000 0.0000 -11.6497 0.0000 -29.9040
#
#
#
# Elastic Compliance Matrix: (Units=1/GPa)
#
#
# Indices 1 2 3 4 5 6 
#
# 1 0.021501 -0.005827 -0.002945 0.000000 -0.020354 0.000000
# 2 -0.005827 0.015139 -0.002285 0.000000 0.003454 0.000000
# 3 -0.002945 -0.002285 0.014338 0.000000 -0.002758 0.000000
# 4 0.000000 0.000000 0.000000 0.066480 0.000000 -0.025899
# 5 -0.020354 0.003454 -0.002758 0.000000 0.055787 0.000000
# 6 0.000000 0.000000 0.000000 -0.025899 0.000000 -0.023351
#
#
# Mechanical properties :
#
#
# Convention : Reuss Voigt Hill
#
# Bulk Modulus (GPa) = 34.64450 46.08893 40.36672
# Shear Modulus (GPa) = 27.52848 13.36496 20.44672
#
# Velocity S-wave (km/s) = 3.55026 2.47373 3.05971
# Velocity P-wave (km/s) = 5.71562 5.40940 5.56462
#
# Compressibility (1/GPa) = 0.02886461
#
# Stress axis : x y z
#
# Youngs Moduli (GPa) = 46.50926 66.05344 69.74466
#
# Poissons Ratio (x) = 0.38487 0.20542
# Poissons Ratio (y) = 0.27100 0.15935
# Poissons Ratio (z) = 0.13699 0.15092
#
# Static dielectric constant tensor:
#      x y z
#    x 1.900980 0.000000 0.018980 
#    y 0.000000 1.833050 0.000000 
#    z 0.018980 0.000000 1.820100 
# 
# From -- ./inp_files/137992.got.cif
#   From: 2010.05.17/outbox.cif.g08.bks.cpg/sg15_69_cif.got.tgz:137992.got - 2010.06.03 18:47:42.
