data_PCOD9275644
_publ_section_title
;
Structure prediction by ZEFSAII (Michael W. Deem and Ramdas Pophale) SiO2 
 PCOD9275644
Probable space group: C 2/C
;
_chemical_formula_sum "Si O2"
_cell_formula_units_Z 48
_cell_length_a 10.189312
_cell_length_b 10.936975
_cell_length_c 17.938334
_cell_angle_alpha 90.000000
_cell_angle_beta 69.395919
_cell_angle_gamma 90.000000
_cell_volume 1871.181993
_symmetry_space_group_name_H-M "C 2/C"
_symmetry_group_IT_number 15
_symmetry_cell_setting 'monoclinic'
loop_
_space_group_symop_operation_xyz
x,y,z
-x,y,1/2-z
-x,-y,-z
x,-y,1/2+z
1/2+x,1/2+y,z
1/2-x,1/2+y,1/2-z
1/2-x,1/2-y,-z
1/2+x,1/2-y,1/2+z
loop_
_atom_site_type_symbol
_atom_site_label
_atom_site_fract_x
_atom_site_fract_y
_atom_site_fract_z
Si Si1 0.264061 0.969880 0.644217
Si Si2 0.906407 0.732268 0.840179
Si Si3 0.645532 0.133605 0.510178
Si Si4 0.796145 0.094557 0.056673
Si Si5 0.327179 0.440454 0.181749
Si Si6 0.394865 0.690837 0.888797
O O1 0.140424 0.873132 0.649047
O O2 0.386115 0.905470 0.569088
O O3 0.254483 0.991996 0.734697
O O4 0.221904 0.100623 0.621064
O O5 0.966470 0.673302 0.904466
O O6 0.773592 0.650401 0.842825
O O7 0.000000 0.718542 0.750000
O O8 0.750000 0.250000 0.500000
O O9 0.729566 0.017181 0.524180
O O10 0.665904 0.175367 0.111382
O O11 0.875349 0.041692 0.112159
O O12 0.892017 0.168505 0.979168
O O13 0.459791 0.355561 0.174668
#
# Coordination Sequence:
#
# PCOD9275644 Si02
#       6
#     8   8   8   8   8   8
#     4  10  21  39  63  88 122 166 215 269 328 404
#     4  10  21  40  60  87 123 167 215 268 331 401
#     4   8  17  38  65  85 126 170 207 265 330 391
#     4   9  20  37  63  92 129 165 217 269 331 400
#     4  11  22  37  62  94 125 169 216 269 335 396
#     4  10  20  39  63  91 127 169 213 273 331 400
#
# _framework density 25.652235999999998
#
# number of rings (size 3 to 8) (size 9 to 14) (size 15 to 20)
#    0.000    2.333    0.000    2.000    2.333    0.000 
#    6.000    2.500    0.000    0.000    0.000    0.000 
#    0.000    0.000    0.000    0.000    0.000    0.000 
#
# Total GULP energy -133987.552920 kJ/mol
# GULP energy per Si atom -5582.814705 kJ/mol
# Density = 2.559385 g / cm^3
# Si number density = 25.652236 Si / 1000 Ang^3
#
#
#
# Elastic Constant Matrix: (Units=GPa)
#
#
# Indices 1 2 3 4 5 6 
#
# 1 67.8399 28.6400 18.7763 0.0000 1.6222 0.0000
# 2 28.6400 108.1957 10.9042 0.0000 3.1473 0.0000
# 3 18.7763 10.9042 127.2500 0.0000 12.8242 0.0000
# 4 0.0000 0.0000 0.0000 46.3220 0.0000 0.3738
# 5 1.6222 3.1473 12.8242 0.0000 32.3880 0.0000
# 6 0.0000 0.0000 0.0000 0.3738 0.0000 17.3519
#
#
#
# Elastic Compliance Matrix: (Units=1/GPa)
#
#
# Indices 1 2 3 4 5 6 
#
# 1 0.017171 -0.004336 -0.002206 0.000000 0.000435 0.000000
# 2 -0.004336 0.010429 -0.000181 0.000000 -0.000725 0.000000
# 3 -0.002206 -0.000181 0.008527 0.000000 -0.003248 0.000000
# 4 0.000000 0.000000 0.000000 0.021592 0.000000 -0.000465
# 5 0.000435 -0.000725 -0.003248 0.000000 0.032210 0.000000
# 6 0.000000 0.000000 0.000000 -0.000465 0.000000 0.057641
#
#
# Mechanical properties :
#
#
# Convention : Reuss Voigt Hill
#
# Bulk Modulus (GPa) = 44.08692 46.65852 45.37272
# Shear Modulus (GPa) = 29.66020 35.54339 32.60180
#
# Velocity S-wave (km/s) = 3.40405 3.72638 3.56886
# Velocity P-wave (km/s) = 5.71609 6.06160 5.89138
#
# Compressibility (1/GPa) = 0.02268247
#
# Stress axis : x y z
#
# Youngs Moduli (GPa) = 58.23734 95.88199 117.27589
#
# Poissons Ratio (x) = 0.41571 0.25871
# Poissons Ratio (y) = 0.25249 0.02122
# Poissons Ratio (z) = 0.12847 0.01735
#
# Static dielectric constant tensor:
#      x y z
#    x 2.081500 0.000000 -0.076820 
#    y 0.000000 2.001100 0.000000 
#    z -0.076820 0.000000 2.283920 
# 
# From -- ./inp_files/236831.got.cif
#   From: 2010.05.17/outbox.cif.g08.bks.cpg/sg15_119_cif.got.tgz:236831.got - 2010.06.03 18:47:42.
