data_PCOD9275088
_publ_section_title
;
Structure prediction by ZEFSAII (Michael W. Deem and Ramdas Pophale) SiO2 
 PCOD9275088
Probable space group: C 2/C
;
_chemical_formula_sum "Si O2"
_cell_formula_units_Z 60
_cell_length_a 32.213588
_cell_length_b 5.285098
_cell_length_c 17.992867
_cell_angle_alpha 90.000000
_cell_angle_beta 64.951866
_cell_angle_gamma 90.000000
_cell_volume 2775.223134
_symmetry_space_group_name_H-M "C 2/C"
_symmetry_group_IT_number 15
_symmetry_cell_setting 'monoclinic'
loop_
_space_group_symop_operation_xyz
x,y,z
-x,y,1/2-z
-x,-y,-z
x,-y,1/2+z
1/2+x,1/2+y,z
1/2-x,1/2+y,1/2-z
1/2-x,1/2-y,-z
1/2+x,1/2-y,1/2+z
loop_
_atom_site_type_symbol
_atom_site_label
_atom_site_fract_x
_atom_site_fract_y
_atom_site_fract_z
Si Si1 0.191467 0.509084 0.955688
Si Si2 0.762723 0.796315 0.284579
Si Si3 0.145649 0.995648 0.767993
Si Si4 0.000000 0.418501 0.250000
Si Si5 0.925989 0.093713 0.392805
Si Si6 0.341897 0.146509 0.872069
Si Si7 0.639641 0.500934 0.443216
Si Si8 0.421154 0.769416 0.774671
O O1 0.235559 0.611037 0.878303
O O2 0.157138 0.750089 0.974277
O O3 0.171048 0.252193 0.932662
O O4 0.195844 0.442713 0.040041
O O5 0.754768 0.027892 0.232557
O O6 0.816889 0.781056 0.256319
O O7 0.169684 0.800401 0.692952
O O8 0.139724 0.916825 0.857372
O O9 0.096133 0.061802 0.770596
O O10 0.033419 0.262949 0.169897
O O11 0.034988 0.566997 0.277538
O O12 0.877573 0.183396 0.392966
O O13 0.911204 0.069902 0.488826
O O14 0.935041 0.831672 0.345080
O O15 0.375083 0.923488 0.822309
#
# Coordination Sequence:
#
# PCOD9275088 Si02
#       8
#     8   8   8   4   8   8   8   8
#     4  11  21  42  63  91 128 184 230 266 318 396
#     4  12  24  41  63  94 134 184 227 273 323 386
#     4  11  24  38  63  98 134 171 223 281 332 374
#     4  10  20  38  68  96 124 166 218 276 332 412
#     4   9  19  38  62  94 122 173 216 267 325 408
#     4   9  21  37  62  90 129 169 222 275 331 379
#     4  11  22  39  67  93 131 178 224 265 326 396
#     4  10  20  39  64  92 130 165 216 276 333 395
#
# _framework density 21.619883000000002
#
# number of rings (size 3 to 8) (size 9 to 14) (size 15 to 20)
#    0.000    1.600    4.000    0.400    3.733    0.533 
#    0.000    1.333    0.000   11.200    0.000    0.000 
#    0.000    0.000    0.000    0.000    0.000    0.000 
#
# Total GULP energy -167160.333351 kJ/mol
# GULP energy per Si atom -5572.011112 kJ/mol
# Density = 2.157067 g / cm^3
# Si number density = 21.619883 Si / 1000 Ang^3
#
#
#
# Elastic Constant Matrix: (Units=GPa)
#
#
# Indices 1 2 3 4 5 6 
#
# 1 58.8201 16.1468 40.0513 -0.0001 -6.6336 0.0000
# 2 16.1468 81.4379 14.0913 0.0004 6.8024 -0.0008
# 3 40.0513 14.0913 111.6267 0.0002 -5.2304 -0.0004
# 4 -0.0001 0.0004 0.0002 0.0132 0.0000 1.0925
# 5 -6.6336 6.8024 -5.2304 0.0000 27.8633 0.0000
# 6 0.0000 -0.0008 -0.0004 1.0925 0.0000 42.4187
#
#
#
# Elastic Compliance Matrix: (Units=1/GPa)
#
#
# Indices 1 2 3 4 5 6 
#
# 1 0.024005 -0.003826 -0.007888 -0.000363 0.005169 0.000009
# 2 -0.003826 0.013489 -0.000532 0.000395 -0.004304 -0.000010
# 3 -0.007888 -0.000532 0.011878 0.000228 0.000482 -0.000006
# 4 -0.000363 0.000395 0.000228-66.743163 -0.000144 1.718979
# 5 0.005169 -0.004304 0.000482 -0.000144 0.038261 0.000004
# 6 0.000009 -0.000010 -0.000006 1.718979 0.000004 -0.020698
#
#
# Mechanical properties :
#
#
# Convention : Reuss Voigt Hill
#
# Bulk Modulus (GPa) = 40.19095 43.60705 41.89900
# Shear Modulus (GPa) = -0.07503 26.16537 13.04517
#
# Velocity S-wave (km/s) = -0.18649 3.48263 2.45906
# Velocity P-wave (km/s) = 4.31089 6.03202 5.24257
#
# Compressibility (1/GPa) = 0.02488122
#
# Stress axis : x y z
#
# Youngs Moduli (GPa) = 41.65769 74.13189 84.18779
#
# Poissons Ratio (x) = 0.28366 0.66405
# Poissons Ratio (y) = 0.15940 0.04476
# Poissons Ratio (z) = 0.32859 0.03941
#
# Static dielectric constant tensor:
#      x y z
#    x 1.847070 0.000000 0.023030 
#    y 0.000000 1.900520 0.000000 
#    z 0.023030 0.000000 1.877180 
# 
# From -- ./inp_files/223866.got.cif
#   From: 2010.05.17/outbox.cif.g08.bks.cpg/sg15_112_cif.got.tgz:223866.got - 2010.06.03 18:47:42.
