data_PCOD9275568
_publ_section_title
;
Structure prediction by ZEFSAII (Michael W. Deem and Ramdas Pophale) SiO2 
 PCOD9275568
Probable space group: C 2/C
;
_chemical_formula_sum "Si O2"
_cell_formula_units_Z 64
_cell_length_a 14.098277
_cell_length_b 26.904772
_cell_length_c 12.694906
_cell_angle_alpha 90.000000
_cell_angle_beta 42.544843
_cell_angle_gamma 90.000000
_cell_volume 3255.958342
_symmetry_space_group_name_H-M "C 2/C"
_symmetry_group_IT_number 15
_symmetry_cell_setting 'monoclinic'
loop_
_space_group_symop_operation_xyz
x,y,z
-x,y,1/2-z
-x,-y,-z
x,-y,1/2+z
1/2+x,1/2+y,z
1/2-x,1/2+y,1/2-z
1/2-x,1/2-y,-z
1/2+x,1/2-y,1/2+z
loop_
_atom_site_type_symbol
_atom_site_label
_atom_site_fract_x
_atom_site_fract_y
_atom_site_fract_z
Si Si1 0.340804 0.038701 0.070679
Si Si2 0.658391 0.816291 0.657716
Si Si3 0.066805 0.479437 0.786863
Si Si4 0.148029 0.200643 0.689849
Si Si5 0.785975 0.862920 0.754154
Si Si6 0.342039 0.478107 0.138283
Si Si7 0.334929 0.701055 0.406727
Si Si8 0.886575 0.137528 0.569227
O O1 0.438909 0.045108 0.094009
O O2 0.253013 0.088659 0.145452
O O3 0.230472 0.995323 0.192397
O O4 0.448542 0.023106 0.893042
O O5 0.500000 0.818998 0.750000
O O6 0.748871 0.824467 0.478685
O O7 0.688456 0.758923 0.669945
O O8 0.696794 0.852205 0.722657
O O9 0.000000 0.446853 0.750000
O O10 0.771045 0.503262 0.350277
O O11 0.142403 0.171658 0.804829
O O12 0.000000 0.200272 0.750000
O O13 0.772903 0.819621 0.849125
O O14 0.946122 0.866008 0.585271
O O15 0.338271 0.419198 0.126122
O O16 0.500000 0.500000 0.000000
O O17 0.500000 0.709990 0.250000
O O18 0.250000 0.750000 0.500000
O O19 0.326384 0.662993 0.512486
#
# Coordination Sequence:
#
# PCOD9275568 Si02
#       8
#     8   8   8   8   8   8   8   8
#     4   9  21  39  60  86 124 156 199 252 311 357
#     4  10  22  38  61  92 116 159 199 249 312 370
#     4   9  20  40  61  82 123 161 196 253 305 358
#     4  10  20  39  63  83 125 156 198 252 311 367
#     4  11  21  39  64  88 129 159 205 258 313 370
#     4  10  20  40  62  91 123 160 213 249 302 379
#     4  10  24  44  63  91 126 167 213 264 319 375
#     4  11  21  39  66  91 125 166 208 259 312 371
#
# _framework density 19.656272000000001
#
# number of rings (size 3 to 8) (size 9 to 14) (size 15 to 20)
#    0.750    1.250    2.500    0.750    1.750    1.500 
#    6.750    0.625    0.000    0.000    0.000    0.000 
#    0.000    0.000    0.000    0.000    0.000    0.000 
#
# Total GULP energy -178155.855381 kJ/mol
# GULP energy per Si atom -5567.370481 kJ/mol
# Density = 1.961153 g / cm^3
# Si number density = 19.656272 Si / 1000 Ang^3
#
#
#
# Elastic Constant Matrix: (Units=GPa)
#
#
# Indices 1 2 3 4 5 6 
#
# 1 69.0778 -0.0761 26.3391 0.0000 2.1253 0.0000
# 2 -0.0761 73.8404 31.8880 0.0000 -1.5496 0.0000
# 3 26.3391 31.8880 117.5637 0.0000 -4.6024 0.0000
# 4 0.0000 0.0000 0.0000 26.0883 0.0000 -4.3869
# 5 2.1253 -1.5496 -4.6024 0.0000 22.1303 0.0000
# 6 0.0000 0.0000 0.0000 -4.3869 0.0000 14.6127
#
#
#
# Elastic Compliance Matrix: (Units=1/GPa)
#
#
# Indices 1 2 3 4 5 6 
#
# 1 0.016147 0.001778 -0.004190 0.000000 -0.002297 0.000000
# 2 0.001778 0.015536 -0.004614 0.000000 -0.000042 0.000000
# 3 -0.004190 -0.004614 0.010787 0.000000 0.002323 0.000000
# 4 0.000000 0.000000 0.000000 0.040369 0.000000 0.012119
# 5 -0.002297 -0.000042 0.002323 0.000000 0.045888 0.000000
# 6 0.000000 0.000000 0.000000 0.012119 0.000000 0.072072
#
#
# Mechanical properties :
#
#
# Convention : Reuss Voigt Hill
#
# Bulk Modulus (GPa) = 35.18882 41.86486 38.52684
# Shear Modulus (GPa) = 22.28925 26.05499 24.17212
#
# Velocity S-wave (km/s) = 3.37107 3.64473 3.51057
# Velocity P-wave (km/s) = 5.75266 6.24955 6.00624
#
# Compressibility (1/GPa) = 0.02841811
#
# Stress axis : x y z
#
# Youngs Moduli (GPa) = 61.93263 64.36570 92.70331
#
# Poissons Ratio (x) = -0.11442 0.38839
# Poissons Ratio (y) = -0.11010 0.42773
# Poissons Ratio (z) = 0.25947 0.29698
#
# Static dielectric constant tensor:
#      x y z
#    x 1.747480 0.000000 0.040430 
#    y 0.000000 1.745640 0.000000 
#    z 0.040430 0.000000 1.682090 
# 
# From -- ./inp_files/101300.got.cif
#   From: 2010.05.17/outbox.cif.g08.bks.cpg/sg15_51_cif.got.tgz:101300.got - 2010.06.03 18:47:42.
