data_PCOD9275508
_publ_section_title
;
Structure prediction by ZEFSAII (Michael W. Deem and Ramdas Pophale) SiO2 
 PCOD9275508
Probable space group: C 2/C
;
_chemical_formula_sum "Si O2"
_cell_formula_units_Z 56
_cell_length_a 19.651218
_cell_length_b 9.353991
_cell_length_c 16.930674
_cell_angle_alpha 90.000000
_cell_angle_beta 117.620583
_cell_angle_gamma 90.000000
_cell_volume 2757.481258
_symmetry_space_group_name_H-M "C 2/C"
_symmetry_group_IT_number 15
_symmetry_cell_setting 'monoclinic'
loop_
_space_group_symop_operation_xyz
x,y,z
-x,y,1/2-z
-x,-y,-z
x,-y,1/2+z
1/2+x,1/2+y,z
1/2-x,1/2+y,1/2-z
1/2-x,1/2-y,-z
1/2+x,1/2-y,1/2+z
loop_
_atom_site_type_symbol
_atom_site_label
_atom_site_fract_x
_atom_site_fract_y
_atom_site_fract_z
Si Si1 0.006648 0.936627 0.916113
Si Si2 0.074061 0.154521 0.736662
Si Si3 0.763939 0.237866 0.141912
Si Si4 0.668482 0.507187 0.920450
Si Si5 0.273971 0.566575 0.390990
Si Si6 0.146396 0.592531 0.195569
Si Si7 0.616001 0.769898 0.157295
O O1 0.972111 0.778486 0.895479
O O2 0.089522 0.961316 0.922309
O O3 0.946681 0.020198 0.828489
O O4 0.000000 0.000000 0.000000
O O5 0.085813 0.285960 0.683849
O O6 0.000000 0.185648 0.750000
O O7 0.143317 0.102917 0.831296
O O8 0.786887 0.135465 0.082201
O O9 0.722462 0.391795 0.110302
O O10 0.706190 0.149666 0.164654
O O11 0.842031 0.253049 0.235322
O O12 0.716591 0.594190 0.011239
O O13 0.193441 0.586807 0.303564
O O14 0.335117 0.666921 0.376515
O O15 0.120422 0.439929 0.149431
#
# Coordination Sequence:
#
# PCOD9275508 Si02
#       7
#     8   8   8   8   8   8   8
#     4  11  21  40  68  85 120 165 212 254 302 375
#     4  10  23  43  62  89 121 167 207 258 313 366
#     4  10  21  37  62  91 124 159 203 255 308 368
#     4  11  22  36  66  95 123 160 213 251 309 377
#     4  10  21  38  62  95 123 158 204 253 310 372
#     4  10  23  40  64  86 125 164 200 260 311 369
#     4  10  20  39  62  90 115 166 212 243 314 369
#
# _framework density 20.308387
#
# number of rings (size 3 to 8) (size 9 to 14) (size 15 to 20)
#    0.000    1.714    2.857    1.286    6.000    0.571 
#    5.143    0.714    0.000    0.000    0.000    0.000 
#    0.000    0.000    0.000    0.000    0.000    0.000 
#
# Total GULP energy -156043.485217 kJ/mol
# GULP energy per Si atom -5572.981615 kJ/mol
# Density = 2.026216 g / cm^3
# Si number density = 20.308387 Si / 1000 Ang^3
#
#
#
# Elastic Constant Matrix: (Units=GPa)
#
#
# Indices 1 2 3 4 5 6 
#
# 1 38.1087 31.4769 6.2565 0.0000 -8.8737 0.0000
# 2 31.4769 103.2704 13.0577 0.0000 8.6464 0.0000
# 3 6.2565 13.0577 76.8611 0.0000 -9.4573 0.0000
# 4 0.0000 0.0000 0.0000 13.6661 0.0000 -7.5736
# 5 -8.8737 8.6464 -9.4573 0.0000 15.5996 0.0000
# 6 0.0000 0.0000 0.0000 -7.5736 0.0000 25.2804
#
#
#
# Elastic Compliance Matrix: (Units=1/GPa)
#
#
# Indices 1 2 3 4 5 6 
#
# 1 0.052360 -0.020197 0.004551 0.000000 0.043738 0.000000
# 2 -0.020197 0.018455 -0.004499 0.000000 -0.024445 0.000000
# 3 0.004551 -0.004499 0.015161 0.000000 0.014274 0.000000
# 4 0.000000 0.000000 0.000000 0.087741 0.000000 0.026286
# 5 0.043738 -0.024445 0.014274 0.000000 0.111187 0.000000
# 6 0.000000 0.000000 0.000000 0.026286 0.000000 0.047431
#
#
# Mechanical properties :
#
#
# Convention : Reuss Voigt Hill
#
# Bulk Modulus (GPa) = 21.88875 35.53583 28.71229
# Shear Modulus (GPa) = 12.89145 22.07250 17.48197
#
# Velocity S-wave (km/s) = 2.52223 3.30034 2.93717
# Velocity P-wave (km/s) = 4.39133 5.66208 5.06670
#
# Compressibility (1/GPa) = 0.04568557
#
# Stress axis : x y z
#
# Youngs Moduli (GPa) = 19.09843 54.18608 65.96009
#
# Poissons Ratio (x) = 1.09439 -0.30017
# Poissons Ratio (y) = 0.38573 0.29676
# Poissons Ratio (z) = -0.08691 0.24379
#
# Static dielectric constant tensor:
#      x y z
#    x 1.727950 0.000000 0.020310 
#    y 0.000000 1.749990 0.000000 
#    z 0.020310 0.000000 1.778070 
# 
# From -- ./inp_files/214019.got.cif
#   From: 2010.05.17/outbox.cif.g08.bks.cpg/sg15_108_cif.got.tgz:214019.got - 2010.06.03 18:47:42.
