data_PCOD9275478
_publ_section_title
;
Structure prediction by ZEFSAII (Michael W. Deem and Ramdas Pophale) SiO2 
 PCOD9275478
Probable space group: C 2/C
;
_chemical_formula_sum "Si O2"
_cell_formula_units_Z 40
_cell_length_a 7.814309
_cell_length_b 16.829094
_cell_length_c 14.760124
_cell_angle_alpha 90.000000
_cell_angle_beta 86.088640
_cell_angle_gamma 90.000000
_cell_volume 1936.549368
_symmetry_space_group_name_H-M "C 2/C"
_symmetry_group_IT_number 15
_symmetry_cell_setting 'monoclinic'
loop_
_space_group_symop_operation_xyz
x,y,z
-x,y,1/2-z
-x,-y,-z
x,-y,1/2+z
1/2+x,1/2+y,z
1/2-x,1/2+y,1/2-z
1/2-x,1/2-y,-z
1/2+x,1/2-y,1/2+z
loop_
_atom_site_type_symbol
_atom_site_label
_atom_site_fract_x
_atom_site_fract_y
_atom_site_fract_z
Si Si1 0.456152 0.205048 0.855141
Si Si2 0.376995 0.063045 0.550488
Si Si3 0.574038 0.335914 0.347488
Si Si4 0.113129 0.154697 0.463972
Si Si5 0.970140 0.988940 0.853869
O O1 0.500000 0.214305 0.750000
O O2 0.519213 0.119829 0.886888
O O3 0.250015 0.207014 0.867184
O O4 0.560525 0.272208 0.904311
O O5 0.301355 0.119876 0.473770
O O6 0.500000 0.000000 0.500000
O O7 0.218327 0.022157 0.610994
O O8 0.500000 0.317133 0.250000
O O9 0.442869 0.319977 0.433006
O O10 0.590911 0.432371 0.351058
O O11 0.015041 0.078500 0.424892
O O12 0.000000 0.957678 0.750000
#
# Coordination Sequence:
#
# PCOD9275478 Si02
#       5
#     8   8   8   8   8
#     4  12  23  38  61  92 125 161 203 261 320 373
#     4  11  23  39  63  92 123 166 215 261 311 375
#     4  10  21  39  62  84 116 165 213 254 309 376
#     4  11  22  39  61  89 125 162 203 258 318 376
#     4  10  20  39  62  87 121 166 209 256 310 376
#
# _framework density 20.655294999999999
#
# number of rings (size 3 to 8) (size 9 to 14) (size 15 to 20)
#    0.000    1.200    0.000   10.200    0.000    0.000 
#    0.000    0.000    0.000    1.200    0.000    0.000 
#    0.000    0.000    0.000    0.000    0.000    0.000 
#
# Total GULP energy -111637.492175 kJ/mol
# GULP energy per Si atom -5581.874609 kJ/mol
# Density = 2.060828 g / cm^3
# Si number density = 20.655295 Si / 1000 Ang^3
#
#
#
# Elastic Constant Matrix: (Units=GPa)
#
#
# Indices 1 2 3 4 5 6 
#
# 1 103.6693 39.4116 37.4323 0.0000 6.4226 0.0000
# 2 39.4116 76.3627 61.3513 0.0000 1.6456 0.0000
# 3 37.4323 61.3513 151.9395 0.0000 19.0598 0.0000
# 4 0.0000 0.0000 0.0000 -92.3568 0.0000 50.2293
# 5 6.4226 1.6456 19.0598 0.0000 15.5669 0.0000
# 6 0.0000 0.0000 0.0000 50.2293 0.0000 2.2616
#
#
#
# Elastic Compliance Matrix: (Units=1/GPa)
#
#
# Indices 1 2 3 4 5 6 
#
# 1 0.012296 -0.006321 0.000089 0.000000 -0.004514 0.000000
# 2 -0.006321 0.023736 -0.009498 0.000000 0.011728 0.000000
# 3 0.000089 -0.009498 0.012138 0.000000 -0.013894 0.000000
# 4 0.000000 0.000000 0.000000 -0.000828 0.000000 0.018387
# 5 -0.004514 0.011728 -0.013894 0.000000 0.081873 0.000000
# 6 0.000000 0.000000 0.000000 0.018387 0.000000 0.033807
#
#
# Mechanical properties :
#
#
# Convention : Reuss Voigt Hill
#
# Bulk Modulus (GPa) = 59.84272 67.59577 63.71924
# Shear Modulus (GPa) = 24.99337 -1.98725 11.50306
#
# Velocity S-wave (km/s) = 3.48231 -0.98193 2.36245
# Velocity P-wave (km/s) = 6.72337 5.61347 6.19333
#
# Compressibility (1/GPa) = 0.01671047
#
# Stress axis : x y z
#
# Youngs Moduli (GPa) = 81.32430 42.13018 82.38688
#
# Poissons Ratio (x) = 0.26629 -0.00734
# Poissons Ratio (y) = 0.51402 0.78254
# Poissons Ratio (z) = -0.00724 0.40017
#
# Static dielectric constant tensor:
#      x y z
#    x 2.326510 0.000000 0.022960 
#    y 0.000000 1.756000 0.000000 
#    z 0.022960 0.000000 1.747120 
# 
# From -- ./inp_files/133911.got.cif
#   From: 2010.05.17/outbox.cif.g08.bks.cpg/sg15_67_cif.got.tgz:133911.got - 2010.06.03 18:47:42.
