data_PCOD9275901
_publ_section_title
;
Structure prediction by ZEFSAII (Michael W. Deem and Ramdas Pophale) SiO2 
 PCOD9275901
Probable space group: C 2/C
;
_chemical_formula_sum "Si O2"
_cell_formula_units_Z 52
_cell_length_a 16.366473
_cell_length_b 9.283492
_cell_length_c 17.667638
_cell_angle_alpha 90.000000
_cell_angle_beta 53.706931
_cell_angle_gamma 90.000000
_cell_volume 2163.614789
_symmetry_space_group_name_H-M "C 2/C"
_symmetry_group_IT_number 15
_symmetry_cell_setting 'monoclinic'
loop_
_space_group_symop_operation_xyz
x,y,z
-x,y,1/2-z
-x,-y,-z
x,-y,1/2+z
1/2+x,1/2+y,z
1/2-x,1/2+y,1/2-z
1/2-x,1/2-y,-z
1/2+x,1/2-y,1/2+z
loop_
_atom_site_type_symbol
_atom_site_label
_atom_site_fract_x
_atom_site_fract_y
_atom_site_fract_z
Si Si1 0.500000 0.382213 0.250000
Si Si2 0.801876 0.416144 0.408207
Si Si3 0.796554 0.275841 0.831890
Si Si4 0.724627 0.219958 0.329615
Si Si5 0.148585 0.456247 0.466381
Si Si6 0.498761 0.710682 0.988504
Si Si7 0.077450 0.951129 0.567281
O O1 0.589240 0.284293 0.234400
O O2 0.453600 0.485924 0.337141
O O3 0.800942 0.564549 0.362049
O O4 0.806360 0.292015 0.341698
O O5 0.866762 0.453978 0.447558
O O6 0.690706 0.393568 0.505396
O O7 0.749706 0.276915 0.773069
O O8 0.733767 0.169997 0.921770
O O9 0.615858 0.302646 0.397724
O O10 0.692998 0.063461 0.378595
O O11 0.048563 0.364996 0.501820
O O12 0.503971 0.669312 0.073516
O O13 0.433852 0.588415 0.982503
#
# Coordination Sequence:
#
# PCOD9275901 Si02
#       7
#     4   8   8   8   8   8   8
#     4  12  22  38  64 100 120 168 220 276 318 382
#     4  11  23  43  65  94 125 169 215 266 322 392
#     4  12  24  39  66  92 128 163 222 267 323 387
#     4  11  25  41  63  95 132 166 210 273 330 386
#     4  12  23  41  66  93 125 173 216 263 326 393
#     4  10  21  39  65  91 127 168 209 258 330 391
#     4  10  20  39  65  95 124 163 213 267 316 384
#
# _framework density 24.033854999999999
#
# number of rings (size 3 to 8) (size 9 to 14) (size 15 to 20)
#    0.000    0.923    4.615    3.231    0.000    1.231 
#    0.000    0.000    0.000    0.923    0.000    0.000 
#    0.000    0.000    0.000    0.000    0.000    0.000 
#
# Total GULP energy -145400.126221 kJ/mol
# GULP energy per Si atom -5592.312547 kJ/mol
# Density = 2.397915 g / cm^3
# Si number density = 24.033855 Si / 1000 Ang^3
#
#
#
# Elastic Constant Matrix: (Units=GPa)
#
#
# Indices 1 2 3 4 5 6 
#
# 1 75.0095 48.1587 21.2361 0.0000 23.6664 0.0000
# 2 48.1587 100.5340 23.1102 0.0000 27.9194 0.0000
# 3 21.2361 23.1102 69.1708 0.0000 33.3555 0.0000
# 4 0.0000 0.0000 0.0000 31.1449 0.0000 6.2455
# 5 23.6664 27.9194 33.3555 0.0000 40.1194 0.0000
# 6 0.0000 0.0000 0.0000 6.2455 0.0000 45.1305
#
#
#
# Elastic Compliance Matrix: (Units=1/GPa)
#
#
# Indices 1 2 3 4 5 6 
#
# 1 0.020574 -0.008040 -0.000794 0.000000 -0.005881 0.000000
# 2 -0.008040 0.015471 0.000341 0.000000 -0.006307 0.000000
# 3 -0.000794 0.000341 0.024163 0.000000 -0.019857 0.000000
# 4 0.000000 0.000000 0.000000 0.033024 0.000000 -0.004570
# 5 -0.005881 -0.006307 -0.019857 0.000000 0.049294 0.000000
# 6 0.000000 0.000000 0.000000 -0.004570 0.000000 0.022790
#
#
# Mechanical properties :
#
#
# Convention : Reuss Voigt Hill
#
# Bulk Modulus (GPa) = 23.13653 47.74714 35.44184
# Shear Modulus (GPa) = 25.41814 33.42626 29.42220
#
# Velocity S-wave (km/s) = 3.25560 3.73339 3.50265
# Velocity P-wave (km/s) = 4.87642 6.20435 5.58003
#
# Compressibility (1/GPa) = 0.04322170
#
# Stress axis : x y z
#
# Youngs Moduli (GPa) = 48.60547 64.63553 41.38628
#
# Poissons Ratio (x) = 0.51964 0.03287
# Poissons Ratio (y) = 0.39077 -0.01410
# Poissons Ratio (z) = 0.03860 -0.02202
#
# Static dielectric constant tensor:
#      x y z
#    x 1.975620 0.000000 0.022220 
#    y 0.000000 1.925230 0.000000 
#    z 0.022220 0.000000 1.953420 
# 
# From -- ./inp_files/209477.got.cif
#   From: 2010.05.17/outbox.cif.g08.bks.cpg/sg15_105_cif.got.tgz:209477.got - 2010.06.03 18:47:42.
