data_PCOD9275272
_publ_section_title
;
Structure prediction by ZEFSAII (Michael W. Deem and Ramdas Pophale) SiO2 
 PCOD9275272
Probable space group: C 2/C
;
_chemical_formula_sum "Si O2"
_cell_formula_units_Z 48
_cell_length_a 9.538670
_cell_length_b 10.336671
_cell_length_c 24.485942
_cell_angle_alpha 90.000000
_cell_angle_beta 121.198520
_cell_angle_gamma 90.000000
_cell_volume 2065.110183
_symmetry_space_group_name_H-M "C 2/C"
_symmetry_group_IT_number 15
_symmetry_cell_setting 'monoclinic'
loop_
_space_group_symop_operation_xyz
x,y,z
-x,y,1/2-z
-x,-y,-z
x,-y,1/2+z
1/2+x,1/2+y,z
1/2-x,1/2+y,1/2-z
1/2-x,1/2-y,-z
1/2+x,1/2-y,1/2+z
loop_
_atom_site_type_symbol
_atom_site_label
_atom_site_fract_x
_atom_site_fract_y
_atom_site_fract_z
Si Si1 0.753053 0.518867 0.591020
Si Si2 0.941145 0.195634 0.515731
Si Si3 0.362747 0.125573 0.509784
Si Si4 0.698632 0.677552 0.788956
Si Si5 0.337022 0.578526 0.600275
Si Si6 0.298759 0.532911 0.301138
O O1 0.619864 0.633853 0.564970
O O2 0.648858 0.401550 0.543858
O O3 0.887548 0.556246 0.573097
O O4 0.801101 0.491411 0.662646
O O5 0.982263 0.326448 0.492830
O O6 0.860994 0.190622 0.559282
O O7 0.250000 0.250000 0.500000
O O8 0.259553 0.033968 0.449771
O O9 0.500000 0.695418 0.750000
O O10 0.732758 0.634644 0.857835
O O11 0.747679 0.561614 0.757880
O O12 0.779927 0.813558 0.787792
O O13 0.513830 0.511338 0.648814
#
# Coordination Sequence:
#
# PCOD9275272 Si02
#       6
#     8   8   8   8   8   8
#     4   8  15  28  49  77 106 141 178 216 268 327
#     4   8  14  28  51  80 112 139 172 217 266 329
#     4   9  15  27  54  85 111 144 178 214 273 337
#     4  10  23  41  58  79 108 148 194 237 280 324
#     4   9  19  35  57  80 107 146 184 221 276 335
#     4  10  20  39  59  77 110 147 187 238 279 323
#
# _framework density 23.243312
#
# number of rings (size 3 to 8) (size 9 to 14) (size 15 to 20)
#    0.000    3.000    0.000    3.000    0.000    5.333 
#    0.000   14.167    0.000    5.000    0.000    0.000 
#    0.000    0.000    0.000    0.000    0.000    0.000 
#
# Total GULP energy -134123.944566 kJ/mol
# GULP energy per Si atom -5588.497690 kJ/mol
# Density = 2.319041 g / cm^3
# Si number density = 23.243312 Si / 1000 Ang^3
#
#
#
# Elastic Constant Matrix: (Units=GPa)
#
#
# Indices 1 2 3 4 5 6 
#
# 1 88.2510 44.0056 47.5299 0.0000 -25.1192 0.0000
# 2 44.0056 144.1786 79.6520 0.0000 -26.8950 0.0000
# 3 47.5299 79.6520 169.2093 0.0000 -51.6801 0.0000
# 4 0.0000 0.0000 0.0000 26.9468 0.0000 -13.2023
# 5 -25.1192 -26.8950 -51.6801 0.0000 39.5623 0.0000
# 6 0.0000 0.0000 0.0000 -13.2023 0.0000 44.5595
#
#
#
# Elastic Compliance Matrix: (Units=1/GPa)
#
#
# Indices 1 2 3 4 5 6 
#
# 1 0.015099 -0.002907 -0.000912 0.000000 0.006419 0.000000
# 2 -0.002907 0.009958 -0.003938 0.000000 -0.000221 0.000000
# 3 -0.000912 -0.003938 0.011689 0.000000 0.012013 0.000000
# 4 0.000000 0.000000 0.000000 0.043412 0.000000 0.012862
# 5 0.006419 -0.000221 0.012013 0.000000 0.044894 0.000000
# 6 0.000000 0.000000 0.000000 0.012862 0.000000 0.026253
#
#
# Mechanical properties :
#
#
# Convention : Reuss Voigt Hill
#
# Bulk Modulus (GPa) = 47.10261 82.66821 64.88541
# Shear Modulus (GPa) = 28.75270 37.57716 33.16493
#
# Velocity S-wave (km/s) = 3.52096 4.02517 3.78148
# Velocity P-wave (km/s) = 6.06948 7.56613 6.85875
#
# Compressibility (1/GPa) = 0.02123025
#
# Stress axis : x y z
#
# Youngs Moduli (GPa) = 66.22802 100.42549 85.55129
#
# Poissons Ratio (x) = 0.29195 0.07806
# Poissons Ratio (y) = 0.19253 0.33693
# Poissons Ratio (z) = 0.06043 0.39550
#
# Static dielectric constant tensor:
#      x y z
#    x 1.963360 0.000000 0.001620 
#    y 0.000000 1.858310 0.000000 
#    z 0.001620 0.000000 1.862900 
# 
# From -- ./inp_files/268076.got.cif
#   From: 2010.05.17/outbox.cif.g08.bks.cpg/sg15_135_cif.got.tgz:268076.got - 2010.06.03 18:47:42.
