data_PCOD9275198
_publ_section_title
;
Structure prediction by ZEFSAII (Michael W. Deem and Ramdas Pophale) SiO2 
 PCOD9275198
Probable space group: C 2/C
;
_chemical_formula_sum "Si O2"
_cell_formula_units_Z 64
_cell_length_a 18.110133
_cell_length_b 7.664622
_cell_length_c 19.483810
_cell_angle_alpha 90.000000
_cell_angle_beta 85.461949
_cell_angle_gamma 90.000000
_cell_volume 2696.016952
_symmetry_space_group_name_H-M "C 2/C"
_symmetry_group_IT_number 15
_symmetry_cell_setting 'monoclinic'
loop_
_space_group_symop_operation_xyz
x,y,z
-x,y,1/2-z
-x,-y,-z
x,-y,1/2+z
1/2+x,1/2+y,z
1/2-x,1/2+y,1/2-z
1/2-x,1/2-y,-z
1/2+x,1/2-y,1/2+z
loop_
_atom_site_type_symbol
_atom_site_label
_atom_site_fract_x
_atom_site_fract_y
_atom_site_fract_z
Si Si1 0.213714 0.914560 0.413257
Si Si2 0.738249 0.423058 0.049464
Si Si3 0.063801 0.268695 0.883449
Si Si4 0.022463 0.211521 0.042188
Si Si5 0.379432 0.974216 0.379992
Si Si6 0.640301 0.230917 0.884001
Si Si7 0.576482 0.931633 0.270748
Si Si8 0.916418 0.861049 0.404433
O O1 0.217494 0.929366 0.495855
O O2 0.194080 0.107545 0.388908
O O3 0.146309 0.806266 0.385999
O O4 0.298640 0.888466 0.388346
O O5 0.815293 0.429679 0.084272
O O6 0.667989 0.417501 0.105863
O O7 0.750000 0.250000 0.000000
O O8 0.063278 0.433747 0.833879
O O9 0.895413 0.344661 0.919335
O O10 0.994674 0.153349 0.858113
O O11 0.065598 0.331761 0.093123
O O12 0.936554 0.226314 0.071478
O O13 0.057048 0.015709 0.045283
O O14 0.037592 0.286093 0.964906
O O15 0.391805 0.019405 0.299333
O O16 0.627099 0.206604 0.804637
O O17 0.500000 0.851699 0.250000
#
# Coordination Sequence:
#
# PCOD9275198 Si02
#       8
#     8   8   8   8   8   8   8   8
#     4  11  24  45  72 108 149 182 240 307 372 431
#     4  10  20  38  72 106 146 184 226 304 377 425
#     4  12  25  44  76 109 148 186 250 311 363 436
#     4  12  26  42  78 116 136 192 256 299 370 444
#     4  12  28  50  70 105 155 195 239 310 365 433
#     4  11  23  44  74 100 145 198 235 296 374 442
#     4  12  27  49  69 104 149 198 252 299 358 448
#     4  12  22  44  75 106 152 184 238 304 374 430
#
# _framework density 23.738721999999999
#
# number of rings (size 3 to 8) (size 9 to 14) (size 15 to 20)
#    0.000    0.500    7.500    1.875    1.750    3.500 
#    2.250    1.875    0.000    0.000    0.000    0.000 
#    0.000    0.000    0.000    0.000    0.000    0.000 
#
# Total GULP energy -178302.584028 kJ/mol
# GULP energy per Si atom -5571.955751 kJ/mol
# Density = 2.368469 g / cm^3
# Si number density = 23.738722 Si / 1000 Ang^3
#
#
#
# Elastic Constant Matrix: (Units=GPa)
#
#
# Indices 1 2 3 4 5 6 
#
# 1 175.3501 15.3761 28.8934 0.0000 20.1667 0.0000
# 2 15.3761 69.8152 27.2215 0.0000 14.4794 0.0000
# 3 28.8934 27.2215 91.0934 0.0000 22.0014 0.0000
# 4 0.0000 0.0000 0.0000 18.8363 0.0000 10.9447
# 5 20.1667 14.4794 22.0014 0.0000 37.9218 0.0000
# 6 0.0000 0.0000 0.0000 10.9447 0.0000 39.8114
#
#
#
# Elastic Compliance Matrix: (Units=1/GPa)
#
#
# Indices 1 2 3 4 5 6 
#
# 1 0.006225 -0.000369 -0.001278 0.000000 -0.002428 0.000000
# 2 -0.000369 0.016754 -0.003945 0.000000 -0.003912 0.000000
# 3 -0.001278 -0.003945 0.013995 0.000000 -0.005934 0.000000
# 4 0.000000 0.000000 0.000000 0.063181 0.000000 -0.017370
# 5 -0.002428 -0.003912 -0.005934 0.000000 0.032598 0.000000
# 6 0.000000 0.000000 0.000000 -0.017370 0.000000 0.029894
#
#
# Mechanical properties :
#
#
# Convention : Reuss Voigt Hill
#
# Bulk Modulus (GPa) = 38.77303 53.24896 46.01099
# Shear Modulus (GPa) = 27.40814 36.96507 32.18661
#
# Velocity S-wave (km/s) = 3.40159 3.95037 3.68621
# Velocity P-wave (km/s) = 5.63883 6.57930 6.12714
#
# Compressibility (1/GPa) = 0.02579112
#
# Stress axis : x y z
#
# Youngs Moduli (GPa) = 160.64142 59.68617 71.45406
#
# Poissons Ratio (x) = 0.02204 0.09130
# Poissons Ratio (y) = 0.05931 0.28187
# Poissons Ratio (z) = 0.20525 0.23544
#
# Static dielectric constant tensor:
#      x y z
#    x 2.002370 0.000000 0.002740 
#    y 0.000000 2.043360 0.000000 
#    z 0.002740 0.000000 1.918520 
# 
# From -- ./inp_files/273178.got.cif
#   From: 2010.05.17/outbox.cif.g08.bks.cpg/sg15_137_cif.got.tgz:273178.got - 2010.06.03 18:47:42.
