data_PCOD9275358
_publ_section_title
;
Structure prediction by ZEFSAII (Michael W. Deem and Ramdas Pophale) SiO2 
 PCOD9275358
Probable space group: C 2/C
;
_chemical_formula_sum "Si O2"
_cell_formula_units_Z 64
_cell_length_a 9.677341
_cell_length_b 14.766782
_cell_length_c 27.918393
_cell_angle_alpha 90.000000
_cell_angle_beta 53.569416
_cell_angle_gamma 90.000000
_cell_volume 3209.962029
_symmetry_space_group_name_H-M "C 2/C"
_symmetry_group_IT_number 15
_symmetry_cell_setting 'monoclinic'
loop_
_space_group_symop_operation_xyz
x,y,z
-x,y,1/2-z
-x,-y,-z
x,-y,1/2+z
1/2+x,1/2+y,z
1/2-x,1/2+y,1/2-z
1/2-x,1/2-y,-z
1/2+x,1/2-y,1/2+z
loop_
_atom_site_type_symbol
_atom_site_label
_atom_site_fract_x
_atom_site_fract_y
_atom_site_fract_z
Si Si1 0.315638 0.280507 0.409490
Si Si2 0.365047 0.928907 0.118416
Si Si3 0.418536 0.789701 0.713844
Si Si4 0.415918 0.592361 0.214800
Si Si5 0.491353 0.709807 0.535774
Si Si6 0.758748 0.357607 0.483938
Si Si7 0.251423 0.385923 0.907776
Si Si8 0.837661 0.095214 0.747761
O O1 0.256900 0.358026 0.384806
O O2 0.430352 0.208804 0.356311
O O3 0.427083 0.318424 0.430654
O O4 0.146729 0.237669 0.468349
O O5 0.317410 0.926077 0.184222
O O6 0.326578 0.028059 0.104461
O O7 0.555881 0.892161 0.070629
O O8 0.500000 0.795662 0.750000
O O9 0.265472 0.859964 0.742702
O O10 0.328230 0.691740 0.725292
O O11 0.500000 0.587681 0.250000
O O12 0.560831 0.636661 0.151937
O O13 0.378630 0.489670 0.206095
O O14 0.375626 0.637296 0.531664
O O15 0.376668 0.800234 0.569077
O O16 0.750000 0.250000 0.500000
O O17 0.724090 0.407595 0.541130
O O18 0.000000 0.103052 0.750000
#
# Coordination Sequence:
#
# PCOD9275358 Si02
#       8
#     8   8   8   8   8   8   8   8
#     4  11  21  39  61  86 127 162 204 248 316 373
#     4  12  20  39  67  86 121 160 209 256 314 377
#     4  11  23  37  66  92 118 169 206 247 327 373
#     4  11  22  40  62  93 124 157 210 261 305 378
#     4  10  24  39  59  89 128 161 205 264 303 366
#     4  10  22  36  60  95 117 159 213 255 299 364
#     4  11  21  36  66  89 120 160 211 257 313 369
#     4  10  20  39  60  90 121 158 206 254 301 378
#
# _framework density 19.937929
#
# number of rings (size 3 to 8) (size 9 to 14) (size 15 to 20)
#    0.000    1.250    7.500    1.125    5.250    0.000 
#    0.000    1.250    2.750    0.000    0.000    0.000 
#    0.000    0.000    0.000    0.000    0.000    0.000 
#
# Total GULP energy -178565.745294 kJ/mol
# GULP energy per Si atom -5580.179540 kJ/mol
# Density = 1.989255 g / cm^3
# Si number density = 19.937929 Si / 1000 Ang^3
#
#
#
# Elastic Constant Matrix: (Units=GPa)
#
#
# Indices 1 2 3 4 5 6 
#
# 1 85.3643 6.8802 17.3949 0.0000 -7.8210 0.0000
# 2 6.8802 48.6309 -1.9682 -0.0001 -16.4331 0.0001
# 3 17.3949 -1.9682 116.8600 -0.0001 -8.0445 0.0001
# 4 0.0000 -0.0001 -0.0001 12.5480 0.0001 1.2158
# 5 -7.8210 -16.4331 -8.0445 0.0001 16.5858 -0.0001
# 6 0.0000 0.0001 0.0001 1.2158 -0.0001 15.1184
#
#
#
# Elastic Compliance Matrix: (Units=1/GPa)
#
#
# Indices 1 2 3 4 5 6 
#
# 1 0.012495 -0.000130 -0.001516 0.000000 0.005028 0.000000
# 2 -0.000130 0.031773 0.002811 0.000000 0.032782 0.000000
# 3 -0.001516 0.002811 0.009283 0.000000 0.006573 0.000000
# 4 0.000000 0.000000 0.000000 0.080320 0.000000 -0.006459
# 5 0.005028 0.032782 0.006573 0.000000 0.098332 0.000000
# 6 0.000000 0.000000 0.000000 -0.006459 0.000000 0.066664
#
#
# Mechanical properties :
#
#
# Convention : Reuss Voigt Hill
#
# Bulk Modulus (GPa) = 17.89538 32.82989 25.36264
# Shear Modulus (GPa) = 15.86483 24.08700 19.97592
#
# Velocity S-wave (km/s) = 2.82390 3.47954 3.16872
# Velocity P-wave (km/s) = 4.43030 5.71356 5.11235
#
# Compressibility (1/GPa) = 0.05588033
#
# Stress axis : x y z
#
# Youngs Moduli (GPa) = 80.03515 31.47335 107.72720
#
# Poissons Ratio (x) = 0.00410 0.16331
# Poissons Ratio (y) = 0.01042 -0.30284
# Poissons Ratio (z) = 0.12133 -0.08848
#
# Static dielectric constant tensor:
#      x y z
#    x 1.718260 0.000000 0.019970 
#    y 0.000000 1.716600 0.000000 
#    z 0.019970 0.000000 1.770320 
# 
# From -- ./inp_files/308225.got.cif
#   From: 2010.05.17/outbox.cif.g08.bks.cpg/sg15_155_cif.got.tgz:308225.got - 2010.06.03 18:47:42.
