data_PCOD9275032
_publ_section_title
;
Structure prediction by ZEFSAII (Michael W. Deem and Ramdas Pophale) SiO2 
 PCOD9275032
Probable space group: C 2/C
;
_chemical_formula_sum "Si O2"
_cell_formula_units_Z 36
_cell_length_a 19.619045
_cell_length_b 18.877978
_cell_length_c 9.245715
_cell_angle_alpha 90.000000
_cell_angle_beta 28.698680
_cell_angle_gamma 90.000000
_cell_volume 1644.367830
_symmetry_space_group_name_H-M "C 2/C"
_symmetry_group_IT_number 15
_symmetry_cell_setting 'monoclinic'
loop_
_space_group_symop_operation_xyz
x,y,z
-x,y,1/2-z
-x,-y,-z
x,-y,1/2+z
1/2+x,1/2+y,z
1/2-x,1/2+y,1/2-z
1/2-x,1/2-y,-z
1/2+x,1/2-y,1/2+z
loop_
_atom_site_type_symbol
_atom_site_label
_atom_site_fract_x
_atom_site_fract_y
_atom_site_fract_z
Si Si1 0.500000 0.728642 0.250000
Si Si2 0.859405 0.995333 0.606848
Si Si3 0.270997 0.810124 0.841971
Si Si4 0.978800 0.877735 0.056034
Si Si5 0.411987 0.049010 0.057060
O O1 0.356794 0.774557 0.548852
O O2 0.515397 0.679259 0.363916
O O3 0.884049 0.923455 0.652740
O O4 0.871750 0.064047 0.684140
O O5 0.725950 0.990267 0.751172
O O6 0.000000 0.999993 0.250000
O O7 0.370820 0.875612 0.701177
O O8 0.250000 0.750000 0.000000
O O9 0.113281 0.844278 0.141362
O O10 0.500000 0.065102 0.750000
O O11 0.500000 0.000000 0.000000
#
# Coordination Sequence:
#
# PCOD9275032 Si02
#       5
#     4   8   8   8   8
#     4  10  20  38  68 100 142 184 224 290 356 432
#     4  11  22  41  72 102 133 175 235 293 346 414
#     4  10  21  41  67  96 144 185 228 284 354 432
#     4  10  21  39  71 101 132 175 234 288 345 420
#     4  12  26  44  71 104 142 185 237 300 359 419
#
# _framework density 21.892911999999999
#
# number of rings (size 3 to 8) (size 9 to 14) (size 15 to 20)
#    0.000    1.333    4.444    1.333    3.111    0.000 
#    0.000    1.111   48.889    0.000    0.000    0.000 
#    0.000    0.000    0.000    0.000    0.000    0.000 
#
# Total GULP energy -100406.500204 kJ/mol
# GULP energy per Si atom -5578.138900 kJ/mol
# Density = 2.184308 g / cm^3
# Si number density = 21.892912 Si / 1000 Ang^3
#
#
#
# Elastic Constant Matrix: (Units=GPa)
#
#
# Indices 1 2 3 4 5 6 
#
# 1 112.4570 68.9255 52.2841 0.0002 -24.1678 -0.0002
# 2 68.9255 143.8606 59.8808 0.0002 -2.5101 -0.0002
# 3 52.2841 59.8808 149.1124 0.0003 15.5624 -0.0001
# 4 0.0002 0.0002 0.0003 38.0897 -0.0002 6.3900
# 5 -24.1678 -2.5101 15.5624 -0.0002 44.5303 0.0002
# 6 -0.0002 -0.0002 -0.0001 6.3900 0.0002 21.0977
#
#
#
# Elastic Compliance Matrix: (Units=1/GPa)
#
#
# Indices 1 2 3 4 5 6 
#
# 1 0.017004 -0.006034 -0.004636 0.000000 0.010509 0.000000
# 2 -0.006034 0.010614 -0.001938 0.000000 -0.001999 0.000000
# 3 -0.004636 -0.001938 0.009739 0.000000 -0.006029 0.000000
# 4 0.000000 0.000000 0.000000 0.027659 0.000000 -0.008377
# 5 0.010509 -0.001999 -0.006029 0.000000 0.030154 0.000000
# 6 0.000000 0.000000 0.000000 -0.008377 0.000000 0.049936
#
#
# Mechanical properties :
#
#
# Convention : Reuss Voigt Hill
#
# Bulk Modulus (GPa) = 82.36005 85.29007 83.82506
# Shear Modulus (GPa) = 28.67469 35.69953 32.18711
#
# Velocity S-wave (km/s) = 3.62300 4.04250 3.83849
# Velocity P-wave (km/s) = 7.42985 7.79946 7.61690
#
# Compressibility (1/GPa) = 0.01214181
#
# Stress axis : x y z
#
# Youngs Moduli (GPa) = 58.80872 94.21611 102.67622
#
# Poissons Ratio (x) = 0.56849 0.47600
# Poissons Ratio (y) = 0.35485 0.19898
# Poissons Ratio (z) = 0.27263 0.18259
#
# Static dielectric constant tensor:
#      x y z
#    x 1.809880 0.000000 0.034450 
#    y 0.000000 1.857550 0.000000 
#    z 0.034450 0.000000 1.826290 
# 
# From -- ./inp_files/50547.got.cif
#   From: 2010.05.17/outbox.cif.g08.bks.cpg/sg15_26_cif.got.tgz:50547.got - 2010.06.03 18:47:42.
