data_PCOD9275042
_publ_section_title
;
Structure prediction by ZEFSAII (Michael W. Deem and Ramdas Pophale) SiO2 
 PCOD9275042
Probable space group: C 2/C
;
_chemical_formula_sum "Si O2"
_cell_formula_units_Z 40
_cell_length_a 14.673474
_cell_length_b 24.452011
_cell_length_c 8.800422
_cell_angle_alpha 90.000000
_cell_angle_beta 149.599954
_cell_angle_gamma 90.000000
_cell_volume 1597.832009
_symmetry_space_group_name_H-M "C 2/C"
_symmetry_group_IT_number 15
_symmetry_cell_setting 'monoclinic'
loop_
_space_group_symop_operation_xyz
x,y,z
-x,y,1/2-z
-x,-y,-z
x,-y,1/2+z
1/2+x,1/2+y,z
1/2-x,1/2+y,1/2-z
1/2-x,1/2-y,-z
1/2+x,1/2-y,1/2+z
loop_
_atom_site_type_symbol
_atom_site_label
_atom_site_fract_x
_atom_site_fract_y
_atom_site_fract_z
Si Si1 0.763685 0.923446 0.339186
Si Si2 0.345770 0.673691 0.771770
Si Si3 0.366654 0.871594 0.821664
Si Si4 0.215542 0.467968 0.590205
Si Si5 0.227945 0.226640 0.296801
O O1 0.877765 0.873928 0.439069
O O2 0.803855 0.949592 0.560143
O O3 0.562947 0.896288 0.066109
O O4 0.766768 0.972955 0.224599
O O5 0.232521 0.649133 0.471055
O O6 0.240944 0.722317 0.703512
O O7 0.464051 0.698447 0.499443
O O8 0.365850 0.820103 0.935979
O O9 0.259765 0.921126 0.748394
O O10 0.000000 0.470059 0.250000
O O11 0.250000 0.250000 0.500000
#
# Coordination Sequence:
#
# PCOD9275042 Si02
#       5
#     8   8   8   8   8
#     4  11  22  41  70 104 140 184 232 281 334 404
#     4  12  25  44  68  99 135 181 229 287 347 408
#     4  11  23  42  67 102 139 179 228 282 336 407
#     4  10  20  38  68 104 138 181 230 277 331 404
#     4  12  27  47  69  97 134 179 230 287 349 413
#
# _framework density 25.033919999999998
#
# number of rings (size 3 to 8) (size 9 to 14) (size 15 to 20)
#    0.000    0.800    0.000    9.600    0.000    4.800 
#    0.000    1.000    0.000    9.600    0.000    0.000 
#    0.000    0.000    0.000    0.000    0.000    0.000 
#
# Total GULP energy -112278.374176 kJ/mol
# GULP energy per Si atom -5613.918709 kJ/mol
# Density = 2.497694 g / cm^3
# Si number density = 25.033920 Si / 1000 Ang^3
#
#
#
# Elastic Constant Matrix: (Units=GPa)
#
#
# Indices 1 2 3 4 5 6 
#
# 1 108.3877 84.0475 64.6841 0.0000 -22.3824 0.0000
# 2 84.0475 237.2451 70.4111 0.0000 -18.9320 0.0000
# 3 64.6841 70.4111 136.0965 0.0000 -15.2646 0.0000
# 4 0.0000 0.0000 0.0000 48.1094 0.0000 -19.5815
# 5 -22.3824 -18.9320 -15.2646 0.0000 23.4983 0.0000
# 6 0.0000 0.0000 0.0000 -19.5815 0.0000 52.3750
#
#
#
# Elastic Compliance Matrix: (Units=1/GPa)
#
#
# Indices 1 2 3 4 5 6 
#
# 1 0.017330 -0.003810 -0.005132 0.000000 0.010103 0.000000
# 2 -0.003810 0.005960 -0.001231 0.000000 0.000373 0.000000
# 3 -0.005132 -0.001231 0.010532 0.000000 0.000961 0.000000
# 4 0.000000 0.000000 0.000000 0.024517 0.000000 0.009166
# 5 0.010103 0.000373 0.000961 0.000000 0.053105 0.000000
# 6 0.000000 0.000000 0.000000 0.009166 0.000000 0.022520
#
#
# Mechanical properties :
#
#
# Convention : Reuss Voigt Hill
#
# Bulk Modulus (GPa) = 74.20965 102.22384 88.21675
# Shear Modulus (GPa) = 31.48618 42.30232 36.89425
#
# Velocity S-wave (km/s) = 3.55031 4.11518 3.84314
# Velocity P-wave (km/s) = 6.82014 7.96884 7.41676
#
# Compressibility (1/GPa) = 0.01347534
#
# Stress axis : x y z
#
# Youngs Moduli (GPa) = 57.70479 167.79072 94.95314
#
# Poissons Ratio (x) = 0.63926 0.48731
# Poissons Ratio (y) = 0.21985 0.11686
# Poissons Ratio (z) = 0.29615 0.20651
#
# Static dielectric constant tensor:
#      x y z
#    x 2.003270 0.000000 0.016560 
#    y 0.000000 1.915450 0.000000 
#    z 0.016560 0.000000 1.969990 
# 
# From -- ./inp_files/41554.got.cif
#   From: 2010.05.17/outbox.cif.g08.bks.cpg/sg15_21_cif.got.tgz:41554.got - 2010.06.03 18:47:42.
