data_PCOD9275180
_publ_section_title
;
Structure prediction by ZEFSAII (Michael W. Deem and Ramdas Pophale) SiO2 
 PCOD9275180
Probable space group: C 2/C
;
_chemical_formula_sum "Si O2"
_cell_formula_units_Z 60
_cell_length_a 9.888928
_cell_length_b 14.179808
_cell_length_c 18.745951
_cell_angle_alpha 90.000000
_cell_angle_beta 73.750524
_cell_angle_gamma 90.000000
_cell_volume 2523.608529
_symmetry_space_group_name_H-M "C 2/C"
_symmetry_group_IT_number 15
_symmetry_cell_setting 'monoclinic'
loop_
_space_group_symop_operation_xyz
x,y,z
-x,y,1/2-z
-x,-y,-z
x,-y,1/2+z
1/2+x,1/2+y,z
1/2-x,1/2+y,1/2-z
1/2-x,1/2-y,-z
1/2+x,1/2-y,1/2+z
loop_
_atom_site_type_symbol
_atom_site_label
_atom_site_fract_x
_atom_site_fract_y
_atom_site_fract_z
Si Si1 0.710112 0.993481 0.332254
Si Si2 0.751137 0.201157 0.834830
Si Si3 0.926777 0.715199 0.926997
Si Si4 0.985228 0.082811 0.445285
Si Si5 0.665963 0.700255 0.206422
Si Si6 0.500000 0.986835 0.750000
Si Si7 0.200309 0.613544 0.109500
Si Si8 0.814665 0.527361 0.017891
O O1 0.770276 0.095320 0.303783
O O2 0.614558 0.959324 0.279481
O O3 0.613065 0.006121 0.417618
O O4 0.810865 0.903787 0.328862
O O5 0.586289 0.194356 0.880278
O O6 0.750852 0.245412 0.755818
O O7 0.815513 0.274157 0.882421
O O8 0.945045 0.809708 0.972750
O O9 0.837781 0.747548 0.870123
O O10 0.862833 0.623403 0.973320
O O11 0.843633 0.048168 0.428512
O O12 0.138823 0.092119 0.387186
O O13 0.000000 0.000000 0.500000
O O14 0.500000 0.694138 0.250000
O O15 0.413324 0.927984 0.820349
O O16 0.190265 0.560793 0.035166
#
# Coordination Sequence:
#
# PCOD9275180 Si02
#       8
#     8   8   8   8   8   4   8   8
#     4  12  26  42  68  99 136 180 233 282 346 409
#     4  10  23  42  66  97 132 184 222 280 350 403
#     4  10  20  38  71 101 130 175 231 275 335 409
#     4   9  19  38  65 100 136 170 217 283 340 399
#     4  10  22  42  70  97 130 173 235 288 331 411
#     4  12  26  44  66  94 136 186 232 288 328 414
#     4  10  23  44  67  95 142 175 226 281 347 407
#     4  11  23  41  72 108 138 176 227 292 349 412
#
# _framework density 23.775478
#
# number of rings (size 3 to 8) (size 9 to 14) (size 15 to 20)
#    0.000    1.600    2.667    1.200    4.667    2.667 
#    1.200    2.667    0.000    0.000    0.000    0.000 
#    0.000    0.000    0.000    0.000    0.000    0.000 
#
# Total GULP energy -167407.652881 kJ/mol
# GULP energy per Si atom -5580.255096 kJ/mol
# Density = 2.372136 g / cm^3
# Si number density = 23.775478 Si / 1000 Ang^3
#
#
#
# Elastic Constant Matrix: (Units=GPa)
#
#
# Indices 1 2 3 4 5 6 
#
# 1 42.6808 5.6633 6.4469 0.0000 -4.0964 0.0000
# 2 5.6633 202.0546 58.1893 0.0000 19.6880 0.0000
# 3 6.4469 58.1893 96.3962 0.0000 15.1298 0.0000
# 4 0.0000 0.0000 0.0000 40.7247 0.0000 7.7088
# 5 -4.0964 19.6880 15.1298 0.0000 32.4696 0.0000
# 6 0.0000 0.0000 0.0000 7.7088 0.0000 18.9543
#
#
#
# Elastic Compliance Matrix: (Units=1/GPa)
#
#
# Indices 1 2 3 4 5 6 
#
# 1 0.024210 -0.000529 -0.001974 0.000000 0.004295 0.000000
# 2 -0.000529 0.006138 -0.003318 0.000000 -0.002242 0.000000
# 3 -0.001974 -0.003318 0.013197 0.000000 -0.004387 0.000000
# 4 0.000000 0.000000 0.000000 0.026603 0.000000 -0.010820
# 5 0.004295 -0.002242 -0.004387 0.000000 0.034744 0.000000
# 6 0.000000 0.000000 0.000000 -0.010820 0.000000 0.057159
#
#
# Mechanical properties :
#
#
# Convention : Reuss Voigt Hill
#
# Bulk Modulus (GPa) = 31.34376 53.52564 42.43470
# Shear Modulus (GPa) = 27.12571 36.48519 31.80545
#
# Velocity S-wave (km/s) = 3.38140 3.92161 3.66148
# Velocity P-wave (km/s) = 5.33451 6.56256 5.98014
#
# Compressibility (1/GPa) = 0.03190427
#
# Stress axis : x y z
#
# Youngs Moduli (GPa) = 41.30481 162.92007 75.77350
#
# Poissons Ratio (x) = 0.08610 0.14959
# Poissons Ratio (y) = 0.02183 0.25141
# Poissons Ratio (z) = 0.08154 0.54055
#
# Static dielectric constant tensor:
#      x y z
#    x 2.047880 0.000000 0.040630 
#    y 0.000000 1.904660 0.000000 
#    z 0.040630 0.000000 1.946600 
# 
# From -- ./inp_files/198284.got.cif
#   From: 2010.05.17/outbox.cif.g08.bks.cpg/sg15_100_cif.got.tgz:198284.got - 2010.06.03 18:47:42.
