data_PCOD9275620
_publ_section_title
;
Structure prediction by ZEFSAII (Michael W. Deem and Ramdas Pophale) SiO2 
 PCOD9275620
Probable space group: C 2/C
;
_chemical_formula_sum "Si O2"
_cell_formula_units_Z 56
_cell_length_a 8.938794
_cell_length_b 11.744592
_cell_length_c 31.467137
_cell_angle_alpha 90.000000
_cell_angle_beta 58.383471
_cell_angle_gamma 90.000000
_cell_volume 2813.179039
_symmetry_space_group_name_H-M "C 2/C"
_symmetry_group_IT_number 15
_symmetry_cell_setting 'monoclinic'
loop_
_space_group_symop_operation_xyz
x,y,z
-x,y,1/2-z
-x,-y,-z
x,-y,1/2+z
1/2+x,1/2+y,z
1/2-x,1/2+y,1/2-z
1/2-x,1/2-y,-z
1/2+x,1/2-y,1/2+z
loop_
_atom_site_type_symbol
_atom_site_label
_atom_site_fract_x
_atom_site_fract_y
_atom_site_fract_z
Si Si1 0.504643 0.445963 0.615104
Si Si2 0.008296 0.928116 0.298553
Si Si3 0.880159 0.283975 0.443101
Si Si4 0.305209 0.925541 0.375790
Si Si5 0.340615 0.976848 0.652248
Si Si6 0.703011 0.764240 0.203854
Si Si7 0.622131 0.035495 0.942810
O O1 0.456962 0.472162 0.671661
O O2 0.564090 0.320143 0.595039
O O3 0.339278 0.480421 0.612025
O O4 0.671579 0.525332 0.578127
O O5 0.000000 0.955688 0.250000
O O6 0.796943 0.919163 0.335512
O O7 0.149626 0.829335 0.288501
O O8 0.750000 0.250000 0.500000
O O9 0.790108 0.373684 0.424827
O O10 0.048846 0.343270 0.438885
O O11 0.285634 0.830941 0.342424
O O12 0.498723 0.978656 0.344394
O O13 0.258179 0.865829 0.686239
O O14 0.401880 0.952276 0.594740
O O15 0.500000 0.770910 0.250000
O O16 0.500000 0.000000 0.000000
#
# Coordination Sequence:
#
# PCOD9275620 Si02
#       7
#     8   8   8   8   8   8   8
#     4  10  22  40  63  92 127 164 213 264 316 371
#     4  10  21  41  65  90 127 161 205 259 319 377
#     4  11  22  39  64  87 125 169 211 257 317 370
#     4  10  23  40  61  92 127 160 213 261 309 373
#     4  10  22  39  62  88 127 165 203 256 315 363
#     4  11  23  40  66  94 125 163 209 256 321 384
#     4  10  20  39  63  89 125 169 213 260 313 368
#
# _framework density 19.906303999999999
#
# number of rings (size 3 to 8) (size 9 to 14) (size 15 to 20)
#    0.000    1.714    1.429    3.000    0.000    5.143 
#    0.000    8.571    0.000    0.000    0.000    0.000 
#    0.000    0.000    0.000    0.000    0.000    0.000 
#
# Total GULP energy -155938.381223 kJ/mol
# GULP energy per Si atom -5569.227901 kJ/mol
# Density = 1.986100 g / cm^3
# Si number density = 19.906304 Si / 1000 Ang^3
#
#
#
# Elastic Constant Matrix: (Units=GPa)
#
#
# Indices 1 2 3 4 5 6 
#
# 1 144.6087 46.1393 18.5724 0.0000 -5.9429 0.0000
# 2 46.1393 75.6980 33.0024 0.0000 -1.5888 0.0000
# 3 18.5724 33.0024 106.0931 0.0000 6.0407 0.0000
# 4 0.0000 0.0000 0.0000 21.7131 0.0000 -8.6217
# 5 -5.9429 -1.5888 6.0407 0.0000 23.2660 0.0000
# 6 0.0000 0.0000 0.0000 -8.6217 0.0000 28.6683
#
#
#
# Elastic Compliance Matrix: (Units=1/GPa)
#
#
# Indices 1 2 3 4 5 6 
#
# 1 0.008664 -0.005246 0.000010 0.000000 0.001852 0.000000
# 2 -0.005246 0.018583 -0.004931 0.000000 0.001209 0.000000
# 3 0.000010 -0.004931 0.011142 0.000000 -0.003227 0.000000
# 4 0.000000 0.000000 0.000000 0.052301 0.000000 0.015729
# 5 0.001852 0.001209 -0.003227 0.000000 0.044375 0.000000
# 6 0.000000 0.000000 0.000000 0.015729 0.000000 0.039612
#
#
# Mechanical properties :
#
#
# Convention : Reuss Voigt Hill
#
# Bulk Modulus (GPa) = 55.39033 57.98087 56.68560
# Shear Modulus (GPa) = 24.87196 29.97518 27.42357
#
# Velocity S-wave (km/s) = 3.53859 3.88469 3.71567
# Velocity P-wave (km/s) = 6.67693 7.02220 6.85174
#
# Compressibility (1/GPa) = 0.01805369
#
# Stress axis : x y z
#
# Youngs Moduli (GPa) = 115.42079 53.81169 89.75327
#
# Poissons Ratio (x) = 0.28231 -0.00088
# Poissons Ratio (y) = 0.60552 0.44259
# Poissons Ratio (z) = -0.00113 0.26536
#
# Static dielectric constant tensor:
#      x y z
#    x 1.742170 0.000000 -0.017590 
#    y 0.000000 1.712290 0.000000 
#    z -0.017590 0.000000 1.800630 
# 
# From -- ./inp_files/307397.got.cif
#   From: 2010.05.17/outbox.cif.g08.bks.cpg/sg15_154_cif.got.tgz:307397.got - 2010.06.03 18:47:42.
