data_PCOD9275108
_publ_section_title
;
Structure prediction by ZEFSAII (Michael W. Deem and Ramdas Pophale) SiO2 
 PCOD9275108
Probable space group: C 2/C
;
_chemical_formula_sum "Si O2"
_cell_formula_units_Z 52
_cell_length_a 8.050743
_cell_length_b 20.283564
_cell_length_c 16.888173
_cell_angle_alpha 90.000000
_cell_angle_beta 55.495700
_cell_angle_gamma 90.000000
_cell_volume 2272.658656
_symmetry_space_group_name_H-M "C 2/C"
_symmetry_group_IT_number 15
_symmetry_cell_setting 'monoclinic'
loop_
_space_group_symop_operation_xyz
x,y,z
-x,y,1/2-z
-x,-y,-z
x,-y,1/2+z
1/2+x,1/2+y,z
1/2-x,1/2+y,1/2-z
1/2-x,1/2-y,-z
1/2+x,1/2-y,1/2+z
loop_
_atom_site_type_symbol
_atom_site_label
_atom_site_fract_x
_atom_site_fract_y
_atom_site_fract_z
Si Si1 0.696568 0.626220 0.796760
Si Si2 0.728003 0.852116 0.407564
Si Si3 0.487081 0.422339 0.583671
Si Si4 0.674200 0.980436 0.758947
Si Si5 0.323027 0.974596 0.967592
Si Si6 0.500000 0.773243 0.250000
Si Si7 0.518948 0.729917 0.071080
O O1 0.774378 0.634099 0.685791
O O2 0.465242 0.646172 0.863162
O O3 0.746737 0.550002 0.798635
O O4 0.818860 0.676349 0.817081
O O5 0.647971 0.913123 0.480784
O O6 0.615398 0.781730 0.443421
O O7 0.367382 0.434304 0.698647
O O8 0.335002 0.450540 0.557625
O O9 0.698138 0.461622 0.531362
O O10 0.505448 0.346688 0.555886
O O11 0.500000 0.951559 0.750000
O O12 0.544538 0.990594 0.872975
O O13 0.456991 0.735092 0.181031
O O14 0.750000 0.750000 0.000000
#
# Coordination Sequence:
#
# PCOD9275108 Si02
#       7
#     8   8   8   8   8   4   8
#     4  10  20  41  69  95 128 175 230 282 339 414
#     4  10  23  42  63 102 131 176 231 279 342 417
#     4  10  23  43  66  99 141 172 234 283 353 417
#     4  10  20  38  68  98 129 174 222 282 347 407
#     4  10  22  40  71  99 133 182 220 296 346 419
#     4  10  24  44  68  90 140 184 224 276 356 412
#     4  11  27  46  65  99 137 190 231 287 352 432
#
# _framework density 22.880693000000001
#
# number of rings (size 3 to 8) (size 9 to 14) (size 15 to 20)
#    0.000    1.846    2.308    0.000    6.462    2.462 
#   19.385    0.000    0.000    0.000    0.000    0.000 
#    0.000    0.000    0.000    0.000    0.000    0.000 
#
# Total GULP energy -145105.099067 kJ/mol
# GULP energy per Si atom -5580.965349 kJ/mol
# Density = 2.282862 g / cm^3
# Si number density = 22.880693 Si / 1000 Ang^3
#
#
#
# Elastic Constant Matrix: (Units=GPa)
#
#
# Indices 1 2 3 4 5 6 
#
# 1 66.6034 38.7877 38.0388 0.0000 -3.1800 0.0000
# 2 38.7877 161.8363 67.5323 0.0000 -23.0340 0.0000
# 3 38.0388 67.5323 118.2454 0.0000 -33.0985 0.0000
# 4 0.0000 0.0000 0.0000 13.5013 0.0000 2.4099
# 5 -3.1800 -23.0340 -33.0985 0.0000 24.0068 0.0000
# 6 0.0000 0.0000 0.0000 2.4099 0.0000 30.0416
#
#
#
# Elastic Compliance Matrix: (Units=1/GPa)
#
#
# Indices 1 2 3 4 5 6 
#
# 1 0.021018 -0.003297 -0.008117 0.000000 -0.011570 0.000000
# 2 -0.003297 0.008707 -0.002761 0.000000 0.004110 0.000000
# 3 -0.008117 -0.002761 0.018894 0.000000 0.022325 0.000000
# 4 0.000000 0.000000 0.000000 0.075143 0.000000 -0.006028
# 5 -0.011570 0.004110 0.022325 0.000000 0.074845 0.000000
# 6 0.000000 0.000000 0.000000 -0.006028 0.000000 0.033771
#
#
# Mechanical properties :
#
#
# Convention : Reuss Voigt Hill
#
# Bulk Modulus (GPa) = 49.33949 70.60030 59.96990
# Shear Modulus (GPa) = 18.69266 26.99834 22.84550
#
# Velocity S-wave (km/s) = 2.86136 3.43878 3.16327
# Velocity P-wave (km/s) = 5.70325 6.83299 6.29352
#
# Compressibility (1/GPa) = 0.02026774
#
# Stress axis : x y z
#
# Youngs Moduli (GPa) = 47.57902 114.85582 52.92569
#
# Poissons Ratio (x) = 0.37869 0.42959
# Poissons Ratio (y) = 0.15687 0.14615
# Poissons Ratio (z) = 0.38619 0.31717
#
# Static dielectric constant tensor:
#      x y z
#    x 1.574930 0.000000 0.073790 
#    y 0.000000 1.860420 0.000000 
#    z 0.073790 0.000000 1.945480 
# 
# From -- ./inp_files/233026.got.cif
#   From: 2010.05.17/outbox.cif.g08.bks.cpg/sg15_117_cif.got.tgz:233026.got - 2010.06.03 18:47:42.
