data_PCOD9275949
_publ_section_title
;
Structure prediction by ZEFSAII (Michael W. Deem and Ramdas Pophale) SiO2 
 PCOD9275949
Probable space group: C 2/C
;
_chemical_formula_sum "Si O2"
_cell_formula_units_Z 52
_cell_length_a 6.634891
_cell_length_b 15.763241
_cell_length_c 27.758284
_cell_angle_alpha 90.000000
_cell_angle_beta 61.749478
_cell_angle_gamma 90.000000
_cell_volume 2557.359838
_symmetry_space_group_name_H-M "C 2/C"
_symmetry_group_IT_number 15
_symmetry_cell_setting 'monoclinic'
loop_
_space_group_symop_operation_xyz
x,y,z
-x,y,1/2-z
-x,-y,-z
x,-y,1/2+z
1/2+x,1/2+y,z
1/2-x,1/2+y,1/2-z
1/2-x,1/2-y,-z
1/2+x,1/2-y,1/2+z
loop_
_atom_site_type_symbol
_atom_site_label
_atom_site_fract_x
_atom_site_fract_y
_atom_site_fract_z
Si Si1 0.386016 0.989326 0.174879
Si Si2 0.114027 0.815022 0.188358
Si Si3 0.473740 0.713238 0.353467
Si Si4 0.850304 0.951051 0.477173
Si Si5 0.385020 0.078963 0.070836
Si Si6 0.000000 0.886004 0.750000
Si Si7 0.301344 0.380550 0.138855
O O1 0.248658 0.901058 0.186835
O O2 0.636758 0.962216 0.165643
O O3 0.407949 0.028193 0.118690
O O4 0.226339 0.054800 0.221736
O O5 0.283421 0.740628 0.151003
O O6 0.000000 0.782245 0.250000
O O7 0.929981 0.847070 0.171187
O O8 0.297018 0.653792 0.401398
O O9 0.509001 0.670105 0.297230
O O10 0.352341 0.802840 0.360308
O O11 0.642116 0.898961 0.524938
O O12 0.017909 0.899980 0.423391
O O13 0.727125 0.018591 0.456346
O O14 0.000000 0.000000 0.500000
#
# Coordination Sequence:
#
# PCOD9275949 Si02
#       7
#     8   8   8   8   8   4   8
#     4  10  20  39  66  90 125 164 218 267 312 386
#     4  11  22  41  61  93 129 174 208 261 325 394
#     4  10  24  41  62  93 137 164 208 271 329 388
#     4  11  22  40  69  94 122 169 221 267 326 383
#     4  10  22  41  63  95 127 160 215 276 315 382
#     4  10  20  44  62  96 132 170 218 268 326 392
#     4  11  23  41  66  94 126 171 217 262 327 397
#
# _framework density 20.333470999999999
#
# number of rings (size 3 to 8) (size 9 to 14) (size 15 to 20)
#    0.000    1.538    3.846    0.923    0.000    3.692 
#    2.769    3.077    0.000    0.000    0.000    0.000 
#    0.000    0.000    0.000    0.000    0.000    0.000 
#
# Total GULP energy -145154.301683 kJ/mol
# GULP energy per Si atom -5582.857757 kJ/mol
# Density = 2.028719 g / cm^3
# Si number density = 20.333471 Si / 1000 Ang^3
#
#
#
# Elastic Constant Matrix: (Units=GPa)
#
#
# Indices 1 2 3 4 5 6 
#
# 1 118.6780 28.7150 51.9292 -0.0001 -10.4056 -0.0001
# 2 28.7150 56.6674 22.8714 -0.0001 -15.7921 0.0000
# 3 51.9292 22.8714 102.3212 -0.0001 -21.8361 0.0000
# 4 -0.0001 -0.0001 -0.0001 43.3759 0.0000 -29.5323
# 5 -10.4056 -15.7921 -21.8361 0.0000 32.6853 0.0000
# 6 -0.0001 0.0000 0.0000 -29.5323 0.0000 33.3312
#
#
#
# Elastic Compliance Matrix: (Units=1/GPa)
#
#
# Indices 1 2 3 4 5 6 
#
# 1 0.011638 -0.004273 -0.005366 0.000000 -0.001945 0.000000
# 2 -0.004273 0.022708 -0.000998 0.000000 0.008944 0.000000
# 3 -0.005366 -0.000998 0.014289 0.000000 0.007356 0.000000
# 4 0.000000 0.000000 0.000000 0.058107 0.000000 0.051485
# 5 -0.001945 0.008944 0.007356 0.000000 0.039211 0.000000
# 6 0.000000 0.000000 0.000000 0.051485 0.000000 0.075619
#
#
# Mechanical properties :
#
#
# Convention : Reuss Voigt Hill
#
# Bulk Modulus (GPa) = 36.55047 53.85531 45.20289
# Shear Modulus (GPa) = 19.84389 33.48854 26.66621
#
# Velocity S-wave (km/s) = 3.12736 4.06269 3.62532
# Velocity P-wave (km/s) = 5.57271 6.96784 6.30896
#
# Compressibility (1/GPa) = 0.02735943
#
# Stress axis : x y z
#
# Youngs Moduli (GPa) = 85.92855 44.03809 69.98211
#
# Poissons Ratio (x) = 0.18819 0.37553
# Poissons Ratio (y) = 0.36720 0.06986
# Poissons Ratio (z) = 0.46109 0.04396
#
# Static dielectric constant tensor:
#      x y z
#    x 1.791900 0.000000 -0.041000 
#    y 0.000000 1.697140 0.000000 
#    z -0.041000 0.000000 1.721490 
# 
# From -- ./inp_files/305345.got.cif
#   From: 2010.05.17/outbox.cif.g08.bks.cpg/sg15_153_cif.got.tgz:305345.got - 2010.06.03 18:47:42.
