data_PCOD9275357
_publ_section_title
;
Structure prediction by ZEFSAII (Michael W. Deem and Ramdas Pophale) SiO2 
 PCOD9275357
Probable space group: C 2/C
;
_chemical_formula_sum "Si O2"
_cell_formula_units_Z 64
_cell_length_a 28.765678
_cell_length_b 10.820450
_cell_length_c 14.563295
_cell_angle_alpha 90.000000
_cell_angle_beta 38.223540
_cell_angle_gamma 90.000000
_cell_volume 2804.668968
_symmetry_space_group_name_H-M "C 2/C"
_symmetry_group_IT_number 15
_symmetry_cell_setting 'monoclinic'
loop_
_space_group_symop_operation_xyz
x,y,z
-x,y,1/2-z
-x,-y,-z
x,-y,1/2+z
1/2+x,1/2+y,z
1/2-x,1/2+y,1/2-z
1/2-x,1/2-y,-z
1/2+x,1/2-y,1/2+z
loop_
_atom_site_type_symbol
_atom_site_label
_atom_site_fract_x
_atom_site_fract_y
_atom_site_fract_z
Si Si1 0.739599 0.424583 0.680247
Si Si2 0.572998 0.202913 0.486990
Si Si3 0.427642 0.868273 0.134977
Si Si4 0.130875 0.253788 0.092225
Si Si5 0.407783 0.552632 0.646387
Si Si6 0.091656 0.174503 0.471290
Si Si7 0.867574 0.042324 0.910117
Si Si8 0.298579 0.948208 0.779726
O O1 0.796584 0.343772 0.531378
O O2 0.682815 0.522739 0.724020
O O3 0.681365 0.323542 0.811303
O O4 0.777530 0.491290 0.708664
O O5 0.511029 0.106811 0.545448
O O6 0.579706 0.202306 0.586042
O O7 0.562220 0.338853 0.464249
O O8 0.653408 0.171817 0.318330
O O9 0.400267 0.773271 0.257512
O O10 0.438432 0.803891 0.018771
O O11 0.358614 0.962822 0.235054
O O12 0.137939 0.106456 0.066676
O O13 0.439074 0.427892 0.552053
O O14 0.411112 0.570854 0.749413
O O15 0.090423 0.115840 0.573702
O O16 0.779089 0.077050 0.048392
#
# Coordination Sequence:
#
# PCOD9275357 Si02
#       8
#     8   8   8   8   8   8   8   8
#     4   8  18  35  58  91 115 144 185 252 307 335
#     4  11  24  41  56  84 129 166 196 233 293 366
#     4  12  23  38  61  89 119 163 202 240 293 353
#     4  11  19  38  64  90 118 148 206 254 290 345
#     4  10  20  39  60  90 121 151 189 246 307 351
#     4   9  20  36  57  93 117 147 185 254 298 347
#     4  11  20  38  63  96 115 147 200 251 312 346
#     4  10  22  38  62  85 120 155 196 252 289 356
#
# _framework density 22.819092999999999
#
# number of rings (size 3 to 8) (size 9 to 14) (size 15 to 20)
#    0.750    1.000    2.500    2.250    0.000    4.500 
#    0.000    3.125    0.000    0.000    0.000    0.000 
#    0.000    0.000    0.000    0.000    0.000    0.000 
#
# Total GULP energy -178285.444682 kJ/mol
# GULP energy per Si atom -5571.420146 kJ/mol
# Density = 2.276716 g / cm^3
# Si number density = 22.819093 Si / 1000 Ang^3
#
#
#
# Elastic Constant Matrix: (Units=GPa)
#
#
# Indices 1 2 3 4 5 6 
#
# 1 87.6272 9.4204 17.4485 0.0000 -1.6165 0.0000
# 2 9.4204 29.6980 2.2895 0.0000 -1.7274 0.0000
# 3 17.4485 2.2895 96.8450 0.0000 -3.0959 0.0000
# 4 0.0000 0.0000 0.0000 17.7269 0.0000 -2.0265
# 5 -1.6165 -1.7274 -3.0959 0.0000 24.5535 0.0000
# 6 0.0000 0.0000 0.0000 -2.0265 0.0000 34.8575
#
#
#
# Elastic Compliance Matrix: (Units=1/GPa)
#
#
# Indices 1 2 3 4 5 6 
#
# 1 0.012235 -0.003702 -0.002108 0.000000 0.000279 0.000000
# 2 -0.003702 0.034982 -0.000089 0.000000 0.002206 0.000000
# 3 -0.002108 -0.000089 0.010746 0.000000 0.001210 0.000000
# 4 0.000000 0.000000 0.000000 0.056789 0.000000 0.003302
# 5 0.000279 0.002206 0.001210 0.000000 0.041053 0.000000
# 6 0.000000 0.000000 0.000000 0.003302 0.000000 0.028880
#
#
# Mechanical properties :
#
#
# Convention : Reuss Voigt Hill
#
# Bulk Modulus (GPa) = 21.66192 30.27633 25.96912
# Shear Modulus (GPa) = 23.59906 27.76169 25.68038
#
# Velocity S-wave (km/s) = 3.21936 3.49176 3.35832
# Velocity P-wave (km/s) = 4.83037 5.43630 5.14227
#
# Compressibility (1/GPa) = 0.04616397
#
# Stress axis : x y z
#
# Youngs Moduli (GPa) = 81.73352 28.58619 93.05484
#
# Poissons Ratio (x) = 0.10583 0.19615
# Poissons Ratio (y) = 0.30260 0.00832
# Poissons Ratio (z) = 0.17229 0.00256
#
# Static dielectric constant tensor:
#      x y z
#    x 1.996030 0.000000 -0.078410 
#    y 0.000000 1.918880 0.000000 
#    z -0.078410 0.000000 1.878310 
# 
# From -- ./inp_files/181765.got.cif
#   From: 2010.05.17/outbox.cif.g08.bks.cpg/sg15_91_cif.got.tgz:181765.got - 2010.06.03 18:47:42.
