data_PCOD9275190
_publ_section_title
;
Structure prediction by ZEFSAII (Michael W. Deem and Ramdas Pophale) SiO2 
 PCOD9275190
Probable space group: C 2/C
;
_chemical_formula_sum "Si O2"
_cell_formula_units_Z 44
_cell_length_a 10.968370
_cell_length_b 19.650801
_cell_length_c 11.049358
_cell_angle_alpha 90.000000
_cell_angle_beta 60.164303
_cell_angle_gamma 90.000000
_cell_volume 2065.887546
_symmetry_space_group_name_H-M "C 2/C"
_symmetry_group_IT_number 15
_symmetry_cell_setting 'monoclinic'
loop_
_space_group_symop_operation_xyz
x,y,z
-x,y,1/2-z
-x,-y,-z
x,-y,1/2+z
1/2+x,1/2+y,z
1/2-x,1/2+y,1/2-z
1/2-x,1/2-y,-z
1/2+x,1/2-y,1/2+z
loop_
_atom_site_type_symbol
_atom_site_label
_atom_site_fract_x
_atom_site_fract_y
_atom_site_fract_z
Si Si1 0.766190 0.646470 0.281431
Si Si2 0.586799 0.484721 0.832477
Si Si3 0.751837 0.382808 0.237160
Si Si4 0.500000 0.702973 0.750000
Si Si5 0.920724 0.666862 0.436826
Si Si6 0.832568 0.267949 0.337753
O O1 0.652547 0.590439 0.304381
O O2 0.792108 0.646022 0.412552
O O3 0.724742 0.718526 0.241575
O O4 0.927038 0.633452 0.160408
O O5 0.500000 0.492329 0.750000
O O6 0.714500 0.538831 0.764138
O O7 0.500000 0.500000 0.000000
O O8 0.614734 0.345030 0.252703
O O9 0.791117 0.346721 0.341722
O O10 0.875519 0.356465 0.089893
O O11 0.555346 0.754841 0.617780
O O12 0.750000 0.250000 0.500000
O O13 0.000000 0.259363 0.250000
#
# Coordination Sequence:
#
# PCOD9275190 Si02
#       6
#     8   8   8   4   8   8
#     4  10  23  44  69  95 141 175 224 284 348 407
#     4  12  28  46  70 102 137 187 232 283 348 417
#     4  12  24  42  69  98 132 171 237 273 336 422
#     4  10  20  38  72 100 130 158 228 294 324 400
#     4  10  21  43  71 101 123 179 224 286 345 395
#     4  12  27  42  66 100 140 184 224 284 352 409
#
# _framework density 21.298352000000001
#
# number of rings (size 3 to 8) (size 9 to 14) (size 15 to 20)
#    0.000    1.091    4.545    3.273    5.091    0.727 
#    3.273    0.000    0.000    0.000    0.000    0.000 
#    0.000    0.000    0.000    0.000    0.000    0.000 
#
# Total GULP energy -122755.571089 kJ/mol
# GULP energy per Si atom -5579.798686 kJ/mol
# Density = 2.124988 g / cm^3
# Si number density = 21.298352 Si / 1000 Ang^3
#
#
#
# Elastic Constant Matrix: (Units=GPa)
#
#
# Indices 1 2 3 4 5 6 
#
# 1 92.1705 6.2567 15.3738 0.0000 -4.1227 0.0000
# 2 6.2567 71.3722 -9.6959 0.0000 -4.8447 0.0000
# 3 15.3738 -9.6959 65.4477 0.0000 -2.3810 0.0000
# 4 0.0000 0.0000 0.0000 10.3757 0.0000 0.6835
# 5 -4.1227 -4.8447 -2.3810 0.0000 24.5235 0.0000
# 6 0.0000 0.0000 0.0000 0.6835 0.0000 51.1611
#
#
#
# Elastic Compliance Matrix: (Units=1/GPa)
#
#
# Indices 1 2 3 4 5 6 
#
# 1 0.011473 -0.001296 -0.002836 0.000000 0.001397 0.000000
# 2 -0.001296 0.014675 0.002585 0.000000 0.002932 0.000000
# 3 -0.002836 0.002585 0.016388 0.000000 0.001625 0.000000
# 4 0.000000 0.000000 0.000000 0.096464 0.000000 -0.001289
# 5 0.001397 0.002932 0.001625 0.000000 0.041749 0.000000
# 6 0.000000 0.000000 0.000000 -0.001289 0.000000 0.019563
#
#
# Mechanical properties :
#
#
# Convention : Reuss Voigt Hill
#
# Bulk Modulus (GPa) = 25.35421 28.09552 26.72486
# Shear Modulus (GPa) = 23.08894 31.68245 27.38569
#
# Velocity S-wave (km/s) = 3.29610 3.86107 3.58971
# Velocity P-wave (km/s) = 5.13963 5.75301 5.45495
#
# Compressibility (1/GPa) = 0.03944118
#
# Stress axis : x y z
#
# Youngs Moduli (GPa) = 87.16099 68.14350 61.02127
#
# Poissons Ratio (x) = 0.08833 0.17307
# Poissons Ratio (y) = 0.11298 -0.15775
# Poissons Ratio (z) = 0.24721 -0.17617
#
# Static dielectric constant tensor:
#      x y z
#    x 1.785460 0.000000 0.007570 
#    y 0.000000 1.739780 0.000000 
#    z 0.007570 0.000000 1.909950 
# 
# From -- ./inp_files/87710.got.cif
#   From: 2010.05.17/outbox.cif.g08.bks.cpg/sg15_44_cif.got.tgz:87710.got - 2010.06.03 18:47:42.
