data_PCOD9275725
_publ_section_title
;
Structure prediction by ZEFSAII (Michael W. Deem and Ramdas Pophale) SiO2 
 PCOD9275725
Probable space group: C 2/C
;
_chemical_formula_sum "Si O2"
_cell_formula_units_Z 60
_cell_length_a 10.452362
_cell_length_b 31.410101
_cell_length_c 10.842525
_cell_angle_alpha 90.000000
_cell_angle_beta 51.535677
_cell_angle_gamma 90.000000
_cell_volume 2787.234747
_symmetry_space_group_name_H-M "C 2/C"
_symmetry_group_IT_number 15
_symmetry_cell_setting 'monoclinic'
loop_
_space_group_symop_operation_xyz
x,y,z
-x,y,1/2-z
-x,-y,-z
x,-y,1/2+z
1/2+x,1/2+y,z
1/2-x,1/2+y,1/2-z
1/2-x,1/2-y,-z
1/2+x,1/2-y,1/2+z
loop_
_atom_site_type_symbol
_atom_site_label
_atom_site_fract_x
_atom_site_fract_y
_atom_site_fract_z
Si Si1 0.173638 0.754800 0.844856
Si Si2 0.698812 0.962963 0.131734
Si Si3 0.925599 0.833879 0.428214
Si Si4 0.124505 0.381409 0.491578
Si Si5 0.253116 0.631165 0.640191
Si Si6 0.670537 0.022023 0.928490
Si Si7 0.000000 0.298460 0.250000
Si Si8 0.511279 0.201966 0.386042
O O1 0.045180 0.733640 0.830576
O O2 0.334157 0.768578 0.674080
O O3 0.123463 0.795439 0.953737
O O4 0.161388 0.716510 0.951654
O O5 0.500000 0.964437 0.250000
O O6 0.746080 0.913938 0.075935
O O7 0.752833 0.973130 0.242050
O O8 0.753419 0.994713 0.988937
O O9 0.774055 0.864076 0.484704
O O10 0.000000 0.820965 0.250000
O O11 0.066807 0.857379 0.421559
O O12 0.157415 0.375629 0.326526
O O13 0.121583 0.431651 0.510624
O O14 0.975918 0.348752 0.605471
O O15 0.155133 0.670126 0.635889
O O16 0.500000 0.000000 0.000000
O O17 0.500000 0.211104 0.250000
#
# Coordination Sequence:
#
# PCOD9275725 Si02
#       8
#     8   8   8   8   8   8   4   8
#     4  12  26  40  60  91 125 167 211 265 319 380
#     4   9  17  34  59  92 125 158 207 267 314 393
#     4  10  22  41  65  89 122 165 211 266 318 380
#     4  10  21  41  61  94 122 160 211 270 315 377
#     4  10  20  39  64  88 120 166 214 252 320 387
#     4   9  19  34  60  94 126 159 210 262 327 384
#     4  12  24  42  58  86 124 166 212 258 310 394
#     4  12  24  40  64  91 122 160 210 271 325 368
#
# _framework density 21.526712
#
# number of rings (size 3 to 8) (size 9 to 14) (size 15 to 20)
#    0.000    1.600    3.333    1.600    1.867    3.733 
#    0.000    0.667    0.000    0.000    0.000    0.000 
#    0.000    0.000    0.000    0.000    0.000    0.000 
#
# Total GULP energy -167171.320586 kJ/mol
# GULP energy per Si atom -5572.377353 kJ/mol
# Density = 2.147772 g / cm^3
# Si number density = 21.526712 Si / 1000 Ang^3
#
#
#
# Elastic Constant Matrix: (Units=GPa)
#
#
# Indices 1 2 3 4 5 6 
#
# 1 85.7727 73.3687 34.6503 0.0000 12.2667 0.0000
# 2 73.3687 175.3458 49.3565 0.0000 10.6846 0.0000
# 3 34.6503 49.3565 63.3660 0.0000 3.2076 0.0000
# 4 0.0000 0.0000 0.0000 -47.9017 0.0000 2.3739
# 5 12.2667 10.6846 3.2076 0.0000 19.7100 0.0000
# 6 0.0000 0.0000 0.0000 2.3739 0.0000 20.3792
#
#
#
# Elastic Compliance Matrix: (Units=1/GPa)
#
#
# Indices 1 2 3 4 5 6 
#
# 1 0.020847 -0.006556 -0.005864 0.000000 -0.008466 0.000000
# 2 -0.006556 0.009554 -0.003833 0.000000 -0.000475 0.000000
# 3 -0.005864 -0.003833 0.021864 0.000000 0.002169 0.000000
# 4 0.000000 0.000000 0.000000 -0.020756 0.000000 0.002418
# 5 -0.008466 -0.000475 0.002169 0.000000 0.055909 0.000000
# 6 0.000000 0.000000 0.000000 0.002418 0.000000 0.048788
#
#
# Mechanical properties :
#
#
# Convention : Reuss Voigt Hill
#
# Bulk Modulus (GPa) = 50.61233 71.02619 60.81926
# Shear Modulus (GPa) = 28.52305 9.57808 19.05056
#
# Velocity S-wave (km/s) = 3.64401 2.11165 2.97808
# Velocity P-wave (km/s) = 6.42398 6.24592 6.33558
#
# Compressibility (1/GPa) = 0.01975803
#
# Stress axis : x y z
#
# Youngs Moduli (GPa) = 47.96968 104.66809 45.73824
#
# Poissons Ratio (x) = 0.68622 0.26822
# Poissons Ratio (y) = 0.31450 0.17530
# Poissons Ratio (z) = 0.28131 0.40115
#
# Static dielectric constant tensor:
#      x y z
#    x 1.816380 0.000000 -0.030560 
#    y 0.000000 1.815660 0.000000 
#    z -0.030560 0.000000 1.869460 
# 
# From -- ./inp_files/92609.got.cif
#   From: 2010.05.17/outbox.cif.g08.bks.cpg/sg15_47_cif.got.tgz:92609.got - 2010.06.03 18:47:42.
