data_PCOD9275497
_publ_section_title
;
Structure prediction by ZEFSAII (Michael W. Deem and Ramdas Pophale) SiO2 
 PCOD9275497
Probable space group: C 2/C
;
_chemical_formula_sum "Si O2"
_cell_formula_units_Z 64
_cell_length_a 26.873201
_cell_length_b 13.451678
_cell_length_c 9.322652
_cell_angle_alpha 90.000000
_cell_angle_beta 109.291114
_cell_angle_gamma 90.000000
_cell_volume 3180.821722
_symmetry_space_group_name_H-M "C 2/C"
_symmetry_group_IT_number 15
_symmetry_cell_setting 'monoclinic'
loop_
_space_group_symop_operation_xyz
x,y,z
-x,y,1/2-z
-x,-y,-z
x,-y,1/2+z
1/2+x,1/2+y,z
1/2-x,1/2+y,1/2-z
1/2-x,1/2-y,-z
1/2+x,1/2-y,1/2+z
loop_
_atom_site_type_symbol
_atom_site_label
_atom_site_fract_x
_atom_site_fract_y
_atom_site_fract_z
Si Si1 0.254607 0.195329 0.850671
Si Si2 0.681950 0.009729 0.111989
Si Si3 0.282979 0.379629 0.705134
Si Si4 0.481307 0.904197 0.393591
Si Si5 0.159625 0.009988 0.496100
Si Si6 0.866751 0.864418 0.280627
Si Si7 0.111181 0.501555 0.293852
Si Si8 0.044546 0.700900 0.176745
O O1 0.288035 0.093732 0.889675
O O2 0.283433 0.268347 0.765754
O O3 0.193784 0.171920 0.753367
O O4 0.250000 0.250000 0.000000
O O5 0.722561 0.095562 0.114169
O O6 0.665006 0.019951 0.260182
O O7 0.628499 0.021144 0.970736
O O8 0.314013 0.412953 0.591981
O O9 0.301364 0.450980 0.856247
O O10 0.500000 0.913293 0.250000
O O11 0.510604 0.815909 0.500579
O O12 0.500000 0.000000 0.500000
O O13 0.418561 0.911970 0.316034
O O14 0.121814 0.067945 0.569408
O O15 0.134445 0.928879 0.366312
O O16 0.908826 0.778139 0.302245
O O17 0.073637 0.598061 0.252249
O O18 0.000000 0.727756 0.250000
#
# Coordination Sequence:
#
# PCOD9275497 Si02
#       8
#     8   8   8   8   8   8   8   8
#     4  12  22  36  60  91 134 175 225 258 311 393
#     4  12  22  36  59  93 131 177 214 253 314 397
#     4  11  21  39  58  87 134 181 214 266 310 380
#     4  10  20  39  62  88 130 173 208 266 325 380
#     4  10  21  42  62  84 130 172 218 268 332 369
#     4  11  23  42  67  92 124 176 222 274 334 394
#     4  11  22  37  61  94 133 170 207 253 331 399
#     4  11  23  44  69  96 124 168 222 282 338 398
#
# _framework density 20.120587
#
# number of rings (size 3 to 8) (size 9 to 14) (size 15 to 20)
#    0.000    1.000    3.750    6.750    0.000    0.500 
#    4.500    1.875    0.000    0.000    0.000    0.000 
#    0.000    0.000    0.000    0.000    0.000    0.000 
#
# Total GULP energy -178629.273676 kJ/mol
# GULP energy per Si atom -5582.164802 kJ/mol
# Density = 2.007479 g / cm^3
# Si number density = 20.120587 Si / 1000 Ang^3
#
#
#
# Elastic Constant Matrix: (Units=GPa)
#
#
# Indices 1 2 3 4 5 6 
#
# 1 64.9458 14.8819 29.1509 0.0000 5.9000 0.0000
# 2 14.8819 50.9902 33.7832 0.0000 13.4674 0.0000
# 3 29.1509 33.7832 125.2746 0.0000 -9.4328 0.0000
# 4 0.0000 0.0000 0.0000 21.0918 0.0000 -2.7741
# 5 5.9000 13.4674 -9.4328 0.0000 28.8013 0.0000
# 6 0.0000 0.0000 0.0000 -2.7741 0.0000 32.9956
#
#
#
# Elastic Compliance Matrix: (Units=1/GPa)
#
#
# Indices 1 2 3 4 5 6 
#
# 1 0.017969 -0.001320 -0.004158 0.000000 -0.004425 0.000000
# 2 -0.001320 0.030628 -0.009238 0.000000 -0.017077 0.000000
# 3 -0.004158 -0.009238 0.012130 0.000000 0.009144 0.000000
# 4 0.000000 0.000000 0.000000 0.047942 0.000000 0.004031
# 5 -0.004425 -0.017077 0.009144 0.000000 0.046607 0.000000
# 6 0.000000 0.000000 0.000000 0.004031 0.000000 0.030646
#
#
# Mechanical properties :
#
#
# Convention : Reuss Voigt Hill
#
# Bulk Modulus (GPa) = 31.95636 44.09361 38.02499
# Shear Modulus (GPa) = 22.14492 27.47073 24.80783
#
# Velocity S-wave (km/s) = 3.32114 3.69901 3.51516
# Velocity P-wave (km/s) = 5.53386 6.34081 5.95102
#
# Compressibility (1/GPa) = 0.03129267
#
# Stress axis : x y z
#
# Youngs Moduli (GPa) = 55.65292 32.65009 82.44094
#
# Poissons Ratio (x) = 0.04311 0.34282
# Poissons Ratio (y) = 0.07348 0.76160
# Poissons Ratio (z) = 0.23143 0.30162
#
# Static dielectric constant tensor:
#      x y z
#    x 1.701640 0.000000 -0.011960 
#    y 0.000000 1.743720 0.000000 
#    z -0.011960 0.000000 1.736140 
# 
# From -- ./inp_files/66261.got.cif
#   From: 2010.05.17/outbox.cif.g08.bks.cpg/sg15_34_cif.got.tgz:66261.got - 2010.06.03 18:47:42.
