data_PCOD9275448
_publ_section_title
;
Structure prediction by ZEFSAII (Michael W. Deem and Ramdas Pophale) SiO2 
 PCOD9275448
Probable space group: C 2/C
;
_chemical_formula_sum "Si O2"
_cell_formula_units_Z 48
_cell_length_a 21.016554
_cell_length_b 11.296995
_cell_length_c 13.731385
_cell_angle_alpha 90.000000
_cell_angle_beta 37.111351
_cell_angle_gamma 90.000000
_cell_volume 1967.069086
_symmetry_space_group_name_H-M "C 2/C"
_symmetry_group_IT_number 15
_symmetry_cell_setting 'monoclinic'
loop_
_space_group_symop_operation_xyz
x,y,z
-x,y,1/2-z
-x,-y,-z
x,-y,1/2+z
1/2+x,1/2+y,z
1/2-x,1/2+y,1/2-z
1/2-x,1/2-y,-z
1/2+x,1/2-y,1/2+z
loop_
_atom_site_type_symbol
_atom_site_label
_atom_site_fract_x
_atom_site_fract_y
_atom_site_fract_z
Si Si1 0.484156 0.529368 0.658222
Si Si2 0.402337 0.939764 0.932143
Si Si3 0.294156 0.707237 0.843407
Si Si4 0.061391 0.656265 0.482506
Si Si5 0.807398 0.329650 0.509425
Si Si6 0.900477 0.832409 0.622964
O O1 0.500000 0.498926 0.750000
O O2 0.380411 0.606958 0.762575
O O3 0.472035 0.415273 0.605856
O O4 0.579093 0.613697 0.507428
O O5 0.500000 0.888329 0.750000
O O6 0.437911 0.021766 0.979524
O O7 0.349137 0.041326 0.926572
O O8 0.309646 0.852036 0.077230
O O9 0.355878 0.803059 0.702010
O O10 0.250000 0.750000 0.000000
O O11 0.097846 0.720531 0.540227
O O12 0.949690 0.704815 0.583052
O O13 0.750000 0.250000 0.500000
O O14 0.716815 0.350061 0.699479
#
# Coordination Sequence:
#
# PCOD9275448 Si02
#       6
#     8   8   8   8   8   8
#     4  10  22  36  64  91 126 170 217 279 334 393
#     4  10  22  44  66  96 138 175 224 280 337 410
#     4  11  24  46  65  98 136 178 225 276 346 412
#     4   9  23  41  66  94 137 171 225 279 332 407
#     4  10  21  37  65  95 126 171 218 276 337 395
#     4  10  20  39  61  96 126 167 227 273 332 406
#
# _framework density 24.401786000000001
#
# number of rings (size 3 to 8) (size 9 to 14) (size 15 to 20)
#    1.000    1.000    1.667    1.000    4.667    0.667 
#    6.000    0.833    0.000    0.000    0.000    0.000 
#    0.000    0.000    0.000    0.000    0.000    0.000 
#
# Total GULP energy -134014.897285 kJ/mol
# GULP energy per Si atom -5583.954054 kJ/mol
# Density = 2.434625 g / cm^3
# Si number density = 24.401786 Si / 1000 Ang^3
#
#
#
# Elastic Constant Matrix: (Units=GPa)
#
#
# Indices 1 2 3 4 5 6 
#
# 1 78.5160 5.5284 -7.5972 0.0000 13.7601 0.0000
# 2 5.5284 63.3836 11.2477 0.0000 3.6663 0.0000
# 3 -7.5972 11.2477 111.8073 0.0000 -4.5520 0.0000
# 4 0.0000 0.0000 0.0000 20.3029 0.0000 -4.6893
# 5 13.7601 3.6663 -4.5520 0.0000 34.5544 0.0000
# 6 0.0000 0.0000 0.0000 -4.6893 0.0000 38.8380
#
#
#
# Elastic Compliance Matrix: (Units=1/GPa)
#
#
# Indices 1 2 3 4 5 6 
#
# 1 0.013816 -0.001047 0.000829 0.000000 -0.005281 0.000000
# 2 -0.001047 0.016272 -0.001771 0.000000 -0.001543 0.000000
# 3 0.000829 -0.001771 0.009222 0.000000 0.001073 0.000000
# 4 0.000000 0.000000 0.000000 0.050667 0.000000 0.006118
# 5 -0.005281 -0.001543 0.001073 0.000000 0.031348 0.000000
# 6 0.000000 0.000000 0.000000 0.006118 0.000000 0.026487
#
#
# Mechanical properties :
#
#
# Convention : Reuss Voigt Hill
#
# Bulk Modulus (GPa) = 28.30245 30.22943 29.26594
# Shear Modulus (GPa) = 30.56874 35.04092 32.80483
#
# Velocity S-wave (km/s) = 3.54323 3.79357 3.67053
# Velocity P-wave (km/s) = 5.32569 5.62168 5.47569
#
# Compressibility (1/GPa) = 0.03533263
#
# Stress axis : x y z
#
# Youngs Moduli (GPa) = 72.38113 61.45628 108.43508
#
# Poissons Ratio (x) = 0.06432 -0.08990
# Poissons Ratio (y) = 0.07576 0.19202
# Poissons Ratio (z) = -0.06001 0.10883
#
# Static dielectric constant tensor:
#      x y z
#    x 2.001070 0.000000 -0.037970 
#    y 0.000000 2.005830 0.000000 
#    z -0.037970 0.000000 1.969820 
# 
# From -- ./inp_files/173612.got.cif
#   From: 2010.05.17/outbox.cif.g08.bks.cpg/sg15_87_cif.got.tgz:173612.got - 2010.06.03 18:47:42.
