data_PCOD9275127
_publ_section_title
;
Structure prediction by ZEFSAII (Michael W. Deem and Ramdas Pophale) SiO2 
 PCOD9275127
Probable space group: C 2/C
;
_chemical_formula_sum "Si O2"
_cell_formula_units_Z 56
_cell_length_a 27.532896
_cell_length_b 9.220749
_cell_length_c 17.063743
_cell_angle_alpha 90.000000
_cell_angle_beta 40.655424
_cell_angle_gamma 90.000000
_cell_volume 2822.359957
_symmetry_space_group_name_H-M "C 2/C"
_symmetry_group_IT_number 15
_symmetry_cell_setting 'monoclinic'
loop_
_space_group_symop_operation_xyz
x,y,z
-x,y,1/2-z
-x,-y,-z
x,-y,1/2+z
1/2+x,1/2+y,z
1/2-x,1/2+y,1/2-z
1/2-x,1/2-y,-z
1/2+x,1/2-y,1/2+z
loop_
_atom_site_type_symbol
_atom_site_label
_atom_site_fract_x
_atom_site_fract_y
_atom_site_fract_z
Si Si1 0.819885 0.129633 0.301266
Si Si2 0.781936 0.891723 0.087404
Si Si3 0.140628 0.564553 0.273815
Si Si4 0.028783 0.722019 0.298221
Si Si5 0.885306 0.302817 0.078374
Si Si6 0.726698 0.654923 0.719019
Si Si7 0.920027 0.042093 0.315727
O O1 0.746437 0.230096 0.400489
O O2 0.860722 0.186887 0.173450
O O3 0.880201 0.134226 0.296329
O O4 0.795503 0.965861 0.315915
O O5 0.783596 0.901084 0.179499
O O6 0.711700 0.987676 0.147185
O O7 0.858551 0.947708 0.958967
O O8 0.083651 0.616752 0.277910
O O9 0.108641 0.452571 0.378222
O O10 0.175181 0.705374 0.273039
O O11 0.000000 0.663220 0.250000
O O12 0.958212 0.739597 0.442065
O O13 0.065484 0.878531 0.233552
O O14 0.814661 0.313343 0.106767
O O15 0.000000 0.093998 0.250000
#
# Coordination Sequence:
#
# PCOD9275127 Si02
#       7
#     8   8   8   8   8   8   8
#     4  10  21  42  64  92 119 173 210 262 316 376
#     4  10  22  40  64  91 129 155 219 268 308 380
#     4  10  21  42  64  92 119 173 210 262 316 376
#     4  11  25  39  59  94 130 167 210 259 324 374
#     4  10  22  40  64  91 129 155 219 268 308 380
#     4  10  20  38  69  92 117 168 214 262 322 372
#     4  11  25  39  59  94 130 167 210 259 324 374
#
# _framework density 19.841550999999999
#
# number of rings (size 3 to 8) (size 9 to 14) (size 15 to 20)
#    0.000    2.000    1.429    4.286    8.000    3.429 
#    0.000    8.571    0.000    0.000    0.000    0.000 
#    0.000    0.000    0.000    0.000    0.000    0.000 
#
# Total GULP energy -156269.951329 kJ/mol
# GULP energy per Si atom -5581.069690 kJ/mol
# Density = 1.979639 g / cm^3
# Si number density = 19.841551 Si / 1000 Ang^3
#
#
#
# Elastic Constant Matrix: (Units=GPa)
#
#
# Indices 1 2 3 4 5 6 
#
# 1 104.8395 5.9877 1.6703 0.0005 -11.9168 0.0006
# 2 5.9877 44.4128 15.3024 0.0001 -3.4861 -0.0016
# 3 1.6703 15.3024 66.6798 0.0035 -15.4751 0.0050
# 4 0.0005 0.0001 0.0035 18.0907 -0.0015 -3.7734
# 5 -11.9168 -3.4861 -15.4751 -0.0015 13.0058 -0.0015
# 6 0.0006 -0.0016 0.0050 -3.7734 -0.0015 -20.3125
#
#
#
# Elastic Compliance Matrix: (Units=1/GPa)
#
#
# Indices 1 2 3 4 5 6 
#
# 1 0.011125 -0.001546 0.003240 0.000000 0.013635 0.000000
# 2 -0.001546 0.024664 -0.006101 0.000000 -0.002065 -0.000003
# 3 0.003240 -0.006101 0.022968 -0.000001 0.028663 0.000004
# 4 0.000000 0.000000 -0.000001 0.053215 0.000004 -0.009886
# 5 0.013635 -0.002065 0.028663 0.000004 0.122933 -0.000002
# 6 0.000000 -0.000003 0.000004 -0.009886 -0.000002 -0.047394
#
#
# Mechanical properties :
#
#
# Convention : Reuss Voigt Hill
#
# Bulk Modulus (GPa) = 20.02218 29.09477 24.55848
# Shear Modulus (GPa) = 23.47728 15.02158 19.24943
#
# Velocity S-wave (km/s) = 3.44355 2.75449 3.11811
# Velocity P-wave (km/s) = 5.09153 4.98113 5.03663
#
# Compressibility (1/GPa) = 0.04994460
#
# Stress axis : x y z
#
# Youngs Moduli (GPa) = 89.88857 40.54429 43.53890
#
# Poissons Ratio (x) = 0.06269 -0.14109
# Poissons Ratio (y) = 0.13898 0.26562
# Poissons Ratio (z) = -0.29128 0.24735
#
# Static dielectric constant tensor:
#      x y z
#    x 1.720640 0.000000 0.003970 
#    y 0.000000 1.734970 0.000000 
#    z 0.003970 0.000000 1.683660 
# 
# From -- ./inp_files/224409.got.cif
#   From: 2010.05.17/outbox.cif.g08.bks.cpg/sg15_113_cif.got.tgz:224409.got - 2010.06.03 18:47:42.
