data_PCOD9275225
_publ_section_title
;
Structure prediction by ZEFSAII (Michael W. Deem and Ramdas Pophale) SiO2 
 PCOD9275225
Probable space group: C 2/C
;
_chemical_formula_sum "Si O2"
_cell_formula_units_Z 40
_cell_length_a 10.054764
_cell_length_b 10.817001
_cell_length_c 17.344586
_cell_angle_alpha 90.000000
_cell_angle_beta 111.619614
_cell_angle_gamma 90.000000
_cell_volume 1753.728482
_symmetry_space_group_name_H-M "C 2/C"
_symmetry_group_IT_number 15
_symmetry_cell_setting 'monoclinic'
loop_
_space_group_symop_operation_xyz
x,y,z
-x,y,1/2-z
-x,-y,-z
x,-y,1/2+z
1/2+x,1/2+y,z
1/2-x,1/2+y,1/2-z
1/2-x,1/2-y,-z
1/2+x,1/2-y,1/2+z
loop_
_atom_site_type_symbol
_atom_site_label
_atom_site_fract_x
_atom_site_fract_y
_atom_site_fract_z
Si Si1 0.383332 0.031927 0.789897
Si Si2 0.835942 0.047598 0.046255
Si Si3 0.167625 0.955664 0.622778
Si Si4 0.440234 0.123418 0.443006
Si Si5 0.307546 0.804455 0.415064
O O1 0.500000 0.055661 0.750000
O O2 0.236280 0.012065 0.713271
O O3 0.424900 0.912913 0.850902
O O4 0.369339 0.140738 0.848696
O O5 0.718797 0.139518 0.057608
O O6 0.000491 0.072924 0.099394
O O7 0.793228 0.912612 0.072932
O O8 0.819009 0.039983 0.950403
O O9 0.250395 0.829600 0.618100
O O10 0.561935 0.216904 0.496151
O O11 0.500000 0.000000 0.500000
#
# Coordination Sequence:
#
# PCOD9275225 Si02
#       5
#     8   8   8   8   8
#     4  10  20  39  56  82 118 149 198 244 292 364
#     4   9  20  38  60  81 123 150 201 247 286 371
#     4  11  21  37  60  90 115 157 195 249 301 349
#     4   8  17  36  60  76 114 157 185 244 292 345
#     4  10  21  39  59  85 118 159 194 244 306 352
#
# _framework density 22.808548999999999
#
# number of rings (size 3 to 8) (size 9 to 14) (size 15 to 20)
#    0.000    2.800    0.000    4.200    0.000    4.000 
#   18.000    0.000    0.000    0.000    0.000    0.000 
#    0.000    0.000    0.000    0.000    0.000    0.000 
#
# Total GULP energy -111698.960412 kJ/mol
# GULP energy per Si atom -5584.948021 kJ/mol
# Density = 2.275664 g / cm^3
# Si number density = 22.808549 Si / 1000 Ang^3
#
#
#
# Elastic Constant Matrix: (Units=GPa)
#
#
# Indices 1 2 3 4 5 6 
#
# 1 81.1244 11.4868 32.1042 0.0000 -5.6522 0.0000
# 2 11.4868 45.0174 9.6676 0.0000 -0.1972 0.0000
# 3 32.1042 9.6676 149.7656 0.0000 -0.2934 0.0000
# 4 0.0000 0.0000 0.0000 20.0815 0.0000 -7.2381
# 5 -5.6522 -0.1972 -0.2934 0.0000 35.3323 0.0000
# 6 0.0000 0.0000 0.0000 -7.2381 0.0000 20.1622
#
#
#
# Elastic Compliance Matrix: (Units=1/GPa)
#
#
# Indices 1 2 3 4 5 6 
#
# 1 0.014011 -0.002962 -0.002808 0.000000 0.002201 0.000000
# 2 -0.002962 0.023153 -0.000860 0.000000 -0.000352 0.000000
# 3 -0.002808 -0.000860 0.007334 0.000000 -0.000393 0.000000
# 4 0.000000 0.000000 0.000000 0.057198 0.000000 0.020534
# 5 0.002201 -0.000352 -0.000393 0.000000 0.028650 0.000000
# 6 0.000000 0.000000 0.000000 0.020534 0.000000 0.056969
#
#
# Mechanical properties :
#
#
# Convention : Reuss Voigt Hill
#
# Bulk Modulus (GPa) = 32.01399 42.49161 37.25280
# Shear Modulus (GPa) = 23.69808 29.95844 26.82826
#
# Velocity S-wave (km/s) = 3.22685 3.62812 3.43335
# Velocity P-wave (km/s) = 5.28676 6.01840 5.66441
#
# Compressibility (1/GPa) = 0.03123634
#
# Stress axis : x y z
#
# Youngs Moduli (GPa) = 71.37362 43.19149 136.35571
#
# Poissons Ratio (x) = 0.12795 0.38287
# Poissons Ratio (y) = 0.21144 0.11729
# Poissons Ratio (z) = 0.20041 0.03715
#
# Static dielectric constant tensor:
#      x y z
#    x 1.910880 0.000000 0.012960 
#    y 0.000000 1.925210 0.000000 
#    z 0.012960 0.000000 1.821360 
# 
# From -- ./inp_files/142371.got.cif
#   From: 2010.05.17/outbox.cif.g08.bks.cpg/sg15_72_cif.got.tgz:142371.got - 2010.06.03 18:47:42.
