data_PCOD9275673
_publ_section_title
;
Structure prediction by ZEFSAII (Michael W. Deem and Ramdas Pophale) SiO2 
 PCOD9275673
Probable space group: C 2/C
;
_chemical_formula_sum "Si O2"
_cell_formula_units_Z 48
_cell_length_a 12.736402
_cell_length_b 11.639580
_cell_length_c 17.878459
_cell_angle_alpha 90.000000
_cell_angle_beta 130.634641
_cell_angle_gamma 90.000000
_cell_volume 2011.342118
_symmetry_space_group_name_H-M "C 2/C"
_symmetry_group_IT_number 15
_symmetry_cell_setting 'monoclinic'
loop_
_space_group_symop_operation_xyz
x,y,z
-x,y,1/2-z
-x,-y,-z
x,-y,1/2+z
1/2+x,1/2+y,z
1/2-x,1/2+y,1/2-z
1/2-x,1/2-y,-z
1/2+x,1/2-y,1/2+z
loop_
_atom_site_type_symbol
_atom_site_label
_atom_site_fract_x
_atom_site_fract_y
_atom_site_fract_z
Si Si1 0.818739 0.700291 0.108543
Si Si2 0.445262 0.700763 0.105748
Si Si3 0.878437 0.639714 0.904226
Si Si4 0.720293 0.249631 0.828535
Si Si5 0.458386 0.087766 0.379928
Si Si6 0.654468 0.532433 0.552853
O O1 0.765379 0.792311 0.146884
O O2 0.746578 0.580309 0.095102
O O3 0.973570 0.658772 0.157000
O O4 0.750000 0.750000 0.000000
O O5 0.499564 0.769367 0.058290
O O6 0.335104 0.750276 0.112246
O O7 0.588453 0.709313 0.218792
O O8 0.371538 0.586703 0.041456
O O9 0.898917 0.542120 0.850065
O O10 0.918600 0.581353 0.001515
O O11 0.835720 0.338110 0.856962
O O12 0.786223 0.122869 0.859484
O O13 0.500000 0.500000 0.500000
#
# Coordination Sequence:
#
# PCOD9275673 Si02
#       6
#     8   8   8   8   8   8
#     4  10  21  38  65 103 131 171 232 282 346 419
#     4  11  24  42  65 100 131 176 231 282 346 412
#     4  10  20  39  63  93 129 173 222 274 344 411
#     4  11  25  42  65 101 134 176 232 283 346 419
#     4  10  21  38  64  94 130 178 217 280 349 409
#     4  12  22  42  73  98 134 179 230 289 341 412
#
# _framework density 23.864663
#
# number of rings (size 3 to 8) (size 9 to 14) (size 15 to 20)
#    0.000    1.333    3.333    2.500    7.000    1.333 
#    0.000    0.833    0.000    0.000    0.000    0.000 
#    0.000    0.000    0.000    0.000    0.000    0.000 
#
# Total GULP energy -133720.153776 kJ/mol
# GULP energy per Si atom -5571.673074 kJ/mol
# Density = 2.381035 g / cm^3
# Si number density = 23.864663 Si / 1000 Ang^3
#
#
#
# Elastic Constant Matrix: (Units=GPa)
#
#
# Indices 1 2 3 4 5 6 
#
# 1 147.1703 34.0550 12.7210 0.0000 31.8662 0.0000
# 2 34.0550 120.5314 19.8705 0.0000 22.9661 0.0000
# 3 12.7210 19.8705 86.1703 0.0000 8.9560 0.0000
# 4 0.0000 0.0000 0.0000 8.4270 0.0000 2.2862
# 5 31.8662 22.9661 8.9560 0.0000 29.3310 0.0000
# 6 0.0000 0.0000 0.0000 2.2862 0.0000 48.9319
#
#
#
# Elastic Compliance Matrix: (Units=1/GPa)
#
#
# Indices 1 2 3 4 5 6 
#
# 1 0.008953 -0.000769 -0.000202 0.000000 -0.009062 0.000000
# 2 -0.000769 0.010010 -0.001515 0.000000 -0.006539 0.000000
# 3 -0.000202 -0.001515 0.012226 0.000000 -0.002327 0.000000
# 4 0.000000 0.000000 0.000000 0.120190 0.000000 -0.005615
# 5 -0.009062 -0.006539 -0.002327 0.000000 0.049770 0.000000
# 6 0.000000 0.000000 0.000000 -0.005615 0.000000 0.020699
#
#
# Mechanical properties :
#
#
# Convention : Reuss Voigt Hill
#
# Bulk Modulus (GPa) = 38.14637 54.12946 46.13791
# Shear Modulus (GPa) = 21.22613 36.48634 28.85623
#
# Velocity S-wave (km/s) = 2.98558 3.91434 3.48107
# Velocity P-wave (km/s) = 5.28243 6.56966 5.96090
#
# Compressibility (1/GPa) = 0.02621482
#
# Stress axis : x y z
#
# Youngs Moduli (GPa) = 111.69982 99.90314 81.79290
#
# Poissons Ratio (x) = 0.07687 0.01655
# Poissons Ratio (y) = 0.08594 0.12391
# Poissons Ratio (z) = 0.02260 0.15135
#
# Static dielectric constant tensor:
#      x y z
#    x 1.900790 0.000000 -0.017910 
#    y 0.000000 1.911800 0.000000 
#    z -0.017910 0.000000 2.009670 
# 
# From -- ./inp_files/237231.got.cif
#   From: 2010.05.17/outbox.cif.g08.bks.cpg/sg15_119_cif.got.tgz:237231.got - 2010.06.03 18:47:42.
