data_PCOD9275611
_publ_section_title
;
Structure prediction by ZEFSAII (Michael W. Deem and Ramdas Pophale) SiO2 
 PCOD9275611
Probable space group: C 2/C
;
_chemical_formula_sum "Si O2"
_cell_formula_units_Z 48
_cell_length_a 24.135021
_cell_length_b 14.350263
_cell_length_c 11.709743
_cell_angle_alpha 90.000000
_cell_angle_beta 149.618612
_cell_angle_gamma 90.000000
_cell_volume 2051.133141
_symmetry_space_group_name_H-M "C 2/C"
_symmetry_group_IT_number 15
_symmetry_cell_setting 'monoclinic'
loop_
_space_group_symop_operation_xyz
x,y,z
-x,y,1/2-z
-x,-y,-z
x,-y,1/2+z
1/2+x,1/2+y,z
1/2-x,1/2+y,1/2-z
1/2-x,1/2-y,-z
1/2+x,1/2-y,1/2+z
loop_
_atom_site_type_symbol
_atom_site_label
_atom_site_fract_x
_atom_site_fract_y
_atom_site_fract_z
Si Si1 0.173828 0.378943 0.776342
Si Si2 0.185344 0.684968 0.056041
Si Si3 0.885731 0.168662 0.773679
Si Si4 0.166544 0.420421 0.286993
Si Si5 0.429673 0.750891 0.510336
Si Si6 0.120088 0.885481 0.977047
O O1 0.144300 0.374120 0.590141
O O2 0.136010 0.280224 0.760115
O O3 0.128043 0.475188 0.741940
O O4 0.303146 0.376874 0.037549
O O5 0.305048 0.720099 0.307630
O O6 0.193362 0.630055 0.953406
O O7 0.116363 0.779788 0.919359
O O8 0.011585 0.170171 0.959775
O O9 0.861752 0.126837 0.855189
O O10 0.275597 0.428624 0.401292
O O11 0.084623 0.350148 0.077523
O O12 0.500000 0.759609 0.750000
O O13 0.000000 0.929864 0.750000
#
# Coordination Sequence:
#
# PCOD9275611 Si02
#       6
#     8   8   8   8   8   8
#     4  10  23  39  60  91 123 166 201 262 309 367
#     4  10  21  41  62  88 127 165 207 253 314 380
#     4  10  21  40  63  82 124 169 208 244 318 384
#     4  11  24  38  64  95 126 158 211 269 305 360
#     4  11  21  40  66  92 123 166 215 250 314 380
#     4  10  20  39  63  89 119 163 206 251 316 373
#
# _framework density 23.401699000000001
#
# number of rings (size 3 to 8) (size 9 to 14) (size 15 to 20)
#    0.000    1.667    1.667    4.000    4.667    0.667 
#    3.000    5.000    0.000    0.000    0.000    0.000 
#    0.000    0.000    0.000    0.000    0.000    0.000 
#
# Total GULP energy -134145.999567 kJ/mol
# GULP energy per Si atom -5589.416649 kJ/mol
# Density = 2.334844 g / cm^3
# Si number density = 23.401699 Si / 1000 Ang^3
#
#
#
# Elastic Constant Matrix: (Units=GPa)
#
#
# Indices 1 2 3 4 5 6 
#
# 1 66.4687 8.5192 28.7362 0.0000 -10.5488 0.0000
# 2 8.5192 63.2764 26.8457 0.0000 -25.2550 0.0000
# 3 28.7362 26.8457 77.3019 0.0000 -10.8889 0.0000
# 4 0.0000 0.0000 0.0000 12.5783 0.0000 7.5026
# 5 -10.5488 -25.2550 -10.8889 0.0000 48.6663 0.0000
# 6 0.0000 0.0000 0.0000 7.5026 0.0000 6.4046
#
#
#
# Elastic Compliance Matrix: (Units=1/GPa)
#
#
# Indices 1 2 3 4 5 6 
#
# 1 0.018367 0.001839 -0.006991 0.000000 0.003371 0.000000
# 2 0.001839 0.022824 -0.007109 0.000000 0.010652 0.000000
# 3 -0.006991 -0.007109 0.017833 0.000000 -0.001215 0.000000
# 4 0.000000 0.000000 0.000000 0.263900 0.000000 -0.309145
# 5 0.003371 0.010652 -0.001215 0.000000 0.026535 0.000000
# 6 0.000000 0.000000 0.000000 -0.309145 0.000000 0.518285
#
#
# Mechanical properties :
#
#
# Convention : Reuss Voigt Hill
#
# Bulk Modulus (GPa) = 28.98579 37.24992 33.11785
# Shear Modulus (GPa) = 5.53239 23.05956 14.29597
#
# Velocity S-wave (km/s) = 1.53923 3.14248 2.47431
# Velocity P-wave (km/s) = 3.94614 5.39621 4.72711
#
# Compressibility (1/GPa) = 0.03449967
#
# Stress axis : x y z
#
# Youngs Moduli (GPa) = 54.44683 43.81373 56.07531
#
# Poissons Ratio (x) = -0.08057 0.39204
# Poissons Ratio (y) = -0.10012 0.39867
# Poissons Ratio (z) = 0.38066 0.31149
#
# Static dielectric constant tensor:
#      x y z
#    x 1.918160 0.000000 0.045040 
#    y 0.000000 1.858190 0.000000 
#    z 0.045040 0.000000 1.866640 
# 
# From -- ./inp_files/123577.got.cif
#   From: 2010.05.17/outbox.cif.g08.bks.cpg/sg15_62_cif.got.tgz:123577.got - 2010.06.03 18:47:42.
