data_PCOD9275622
_publ_section_title
;
Structure prediction by ZEFSAII (Michael W. Deem and Ramdas Pophale) SiO2 
 PCOD9275622
Probable space group: C 2/C
;
_chemical_formula_sum "Si O2"
_cell_formula_units_Z 32
_cell_length_a 11.644971
_cell_length_b 9.544469
_cell_length_c 13.728625
_cell_angle_alpha 90.000000
_cell_angle_beta 71.588063
_cell_angle_gamma 90.000000
_cell_volume 1447.760033
_symmetry_space_group_name_H-M "C 2/C"
_symmetry_group_IT_number 15
_symmetry_cell_setting 'monoclinic'
loop_
_space_group_symop_operation_xyz
x,y,z
-x,y,1/2-z
-x,-y,-z
x,-y,1/2+z
1/2+x,1/2+y,z
1/2-x,1/2+y,1/2-z
1/2-x,1/2-y,-z
1/2+x,1/2-y,1/2+z
loop_
_atom_site_type_symbol
_atom_site_label
_atom_site_fract_x
_atom_site_fract_y
_atom_site_fract_z
Si Si1 0.003940 0.879345 0.357445
Si Si2 0.891298 0.320329 0.204728
Si Si3 0.825930 0.631028 0.226675
Si Si4 0.346417 0.393087 0.567858
O O1 0.059410 0.725139 0.328912
O O2 0.000000 0.941792 0.250000
O O3 0.876067 0.888485 0.446797
O O4 0.096228 0.968357 0.399097
O O5 0.839112 0.471868 0.191402
O O6 0.789067 0.220037 0.280352
O O7 0.920353 0.234553 0.098898
O O8 0.000000 0.339160 0.250000
O O9 0.787937 0.621891 0.352176
#
# Coordination Sequence:
#
# PCOD9275622 Si02
#       4
#     8   8   8   8
#     4  11  21  38  64  85 121 165 198 256 308 353
#     4  10  20  39  63  89 128 158 201 254 299 358
#     4  10  20  40  60  91 126 157 206 252 299 370
#     4   9  21  39  57  91 122 154 211 246 299 378
#
# _framework density 22.103111999999999
#
# number of rings (size 3 to 8) (size 9 to 14) (size 15 to 20)
#    1.500    0.500    2.500    1.500    0.000    2.000 
#    0.000    3.750    0.000    0.000    0.000    0.000 
#    0.000    0.000    0.000    0.000    0.000    0.000 
#
# Total GULP energy -89136.479141 kJ/mol
# GULP energy per Si atom -5571.029946 kJ/mol
# Density = 2.205280 g / cm^3
# Si number density = 22.103112 Si / 1000 Ang^3
#
#
#
# Elastic Constant Matrix: (Units=GPa)
#
#
# Indices 1 2 3 4 5 6 
#
# 1 44.5883 30.0204 -4.2075 0.0000 -3.1029 0.0000
# 2 30.0204 164.9950 21.0974 0.0000 -4.0402 0.0000
# 3 -4.2075 21.0974 142.8977 0.0000 -11.1029 0.0000
# 4 0.0000 0.0000 0.0000 6.4170 0.0000 1.4048
# 5 -3.1029 -4.0402 -11.1029 0.0000 23.7056 0.0000
# 6 0.0000 0.0000 0.0000 1.4048 0.0000 17.5382
#
#
#
# Elastic Compliance Matrix: (Units=1/GPa)
#
#
# Indices 1 2 3 4 5 6 
#
# 1 0.026126 -0.004895 0.001757 0.000000 0.003408 0.000000
# 2 -0.004895 0.007104 -0.001192 0.000000 0.000012 0.000000
# 3 0.001757 -0.001192 0.007501 0.000000 0.003540 0.000000
# 4 0.000000 0.000000 0.000000 0.158618 0.000000 -0.012705
# 5 0.003408 0.000012 0.003540 0.000000 0.044290 0.000000
# 6 0.000000 0.000000 0.000000 -0.012705 0.000000 0.058036
#
#
# Mechanical properties :
#
#
# Convention : Reuss Voigt Hill
#
# Bulk Modulus (GPa) = 31.18113 49.58906 40.38510
# Shear Modulus (GPa) = 15.57507 29.90352 22.73929
#
# Velocity S-wave (km/s) = 2.65741 3.68218 3.21094
# Velocity P-wave (km/s) = 4.85320 6.36883 5.66196
#
# Compressibility (1/GPa) = 0.03207068
#
# Stress axis : x y z
#
# Youngs Moduli (GPa) = 38.27621 140.76420 133.31955
#
# Poissons Ratio (x) = 0.68900 -0.23421
# Poissons Ratio (y) = 0.18735 0.15892
# Poissons Ratio (z) = -0.06724 0.16780
#
# Static dielectric constant tensor:
#      x y z
#    x 1.828600 0.000000 -0.022410 
#    y 0.000000 1.806090 0.000000 
#    z -0.022410 0.000000 1.865780 
# 
# From -- ./inp_files/84184.got.cif
#   From: 2010.05.17/outbox.cif.g08.bks.cpg/sg15_43_cif.got.tgz:84184.got - 2010.06.03 18:47:42.
