data_PCOD9275684
_publ_section_title
;
Structure prediction by ZEFSAII (Michael W. Deem and Ramdas Pophale) SiO2 
 PCOD9275684
Probable space group: C 2/C
;
_chemical_formula_sum "Si O2"
_cell_formula_units_Z 60
_cell_length_a 11.941324
_cell_length_b 15.704786
_cell_length_c 22.109045
_cell_angle_alpha 90.000000
_cell_angle_beta 143.648834
_cell_angle_gamma 90.000000
_cell_volume 2457.612109
_symmetry_space_group_name_H-M "C 2/C"
_symmetry_group_IT_number 15
_symmetry_cell_setting 'monoclinic'
loop_
_space_group_symop_operation_xyz
x,y,z
-x,y,1/2-z
-x,-y,-z
x,-y,1/2+z
1/2+x,1/2+y,z
1/2-x,1/2+y,1/2-z
1/2-x,1/2-y,-z
1/2+x,1/2-y,1/2+z
loop_
_atom_site_type_symbol
_atom_site_label
_atom_site_fract_x
_atom_site_fract_y
_atom_site_fract_z
Si Si1 0.715099 0.088480 0.056866
Si Si2 0.539446 0.123599 0.354682
Si Si3 0.068364 0.890419 0.091553
Si Si4 0.690992 0.102745 0.554169
Si Si5 0.264280 0.770546 0.256271
Si Si6 0.000000 0.789465 0.750000
Si Si7 0.317392 0.271105 0.906508
Si Si8 0.231870 0.467089 0.432683
O O1 0.853686 0.151908 0.150056
O O2 0.775755 0.990333 0.096238
O O3 0.508163 0.098717 0.996338
O O4 0.718137 0.092980 0.985318
O O5 0.648506 0.126892 0.466455
O O6 0.369749 0.187352 0.293615
O O7 0.666626 0.154952 0.353770
O O8 0.537474 0.021926 0.345758
O O9 0.145620 0.856651 0.189738
O O10 0.221908 0.922640 0.110011
O O11 0.980660 0.804978 0.021665
O O12 0.911727 0.967173 0.023079
O O13 0.792854 0.185961 0.622306
O O14 0.391214 0.763131 0.252814
O O15 0.384219 0.754911 0.369274
#
# Coordination Sequence:
#
# PCOD9275684 Si02
#       8
#     8   8   8   8   8   4   8   8
#     4  10  21  37  64  88 128 171 215 251 338 388
#     4  10  20  41  64  94 126 163 216 269 325 385
#     4  10  21  42  65  96 130 169 220 270 327 398
#     4  10  20  39  63  95 121 170 210 270 320 390
#     4  12  25  39  66  95 127 171 217 268 331 386
#     4  12  24  42  58  92 140 168 208 278 324 396
#     4  11  22  38  67  95 126 163 219 266 324 382
#     4   9  21  38  69  88 125 177 215 266 335 388
#
# _framework density 24.413941999999999
#
# number of rings (size 3 to 8) (size 9 to 14) (size 15 to 20)
#    0.000    1.600    2.667    1.600    3.733    2.133 
#    0.000    2.667   20.533    0.000    0.000    0.000 
#    0.000    0.000    0.000    0.000    0.000    0.000 
#
# Total GULP energy -167307.342594 kJ/mol
# GULP energy per Si atom -5576.911420 kJ/mol
# Density = 2.435837 g / cm^3
# Si number density = 24.413942 Si / 1000 Ang^3
#
#
#
# Elastic Constant Matrix: (Units=GPa)
#
#
# Indices 1 2 3 4 5 6 
#
# 1 130.9493 12.2855 10.9624 0.0000 -21.5521 0.0000
# 2 12.2855 47.4141 8.4419 0.0000 -7.8663 0.0000
# 3 10.9624 8.4419 18.0555 0.0000 -12.9153 0.0000
# 4 0.0000 0.0000 0.0000 8.7365 0.0000 -29.3307
# 5 -21.5521 -7.8663 -12.9153 0.0000 29.7867 0.0000
# 6 0.0000 0.0000 0.0000 -29.3307 0.0000 13.0219
#
#
#
# Elastic Compliance Matrix: (Units=1/GPa)
#
#
# Indices 1 2 3 4 5 6 
#
# 1 0.008747 -0.001200 -0.000651 0.000000 0.005729 0.000000
# 2 -0.001200 0.023257 -0.009238 0.000000 0.001268 0.000000
# 3 -0.000651 -0.009238 0.084102 0.000000 0.033555 0.000000
# 4 0.000000 0.000000 0.000000 -0.017443 0.000000 -0.039290
# 5 0.005729 0.001268 0.033555 0.000000 0.052602 0.000000
# 6 0.000000 0.000000 0.000000 -0.039290 0.000000 -0.011703
#
#
# Mechanical properties :
#
#
# Convention : Reuss Voigt Hill
#
# Bulk Modulus (GPa) = 10.64656 28.86649 19.75652
# Shear Modulus (GPa) = 25.90019 21.29095 23.59557
#
# Velocity S-wave (km/s) = 3.26064 2.95631 3.11220
# Velocity P-wave (km/s) = 4.30651 4.84793 4.58522
#
# Compressibility (1/GPa) = 0.09392701
#
# Stress axis : x y z
#
# Youngs Moduli (GPa) = 114.33040 42.99801 11.89030
#
# Poissons Ratio (x) = 0.05159 0.00774
# Poissons Ratio (y) = 0.13718 0.10985
# Poissons Ratio (z) = 0.07446 0.39723
#
# Static dielectric constant tensor:
#      x y z
#    x 1.971950 0.000000 0.012120 
#    y 0.000000 1.970430 0.000000 
#    z 0.012120 0.000000 2.049500 
# 
# From -- ./inp_files/239999.got.cif
#   From: 2010.05.17/outbox.cif.g08.bks.cpg/sg15_120_cif.got.tgz:239999.got - 2010.06.03 18:47:42.
