data_PCOD9275910
_publ_section_title
;
Structure prediction by ZEFSAII (Michael W. Deem and Ramdas Pophale) SiO2 
 PCOD9275910
Probable space group: C 2/C
;
_chemical_formula_sum "Si O2"
_cell_formula_units_Z 64
_cell_length_a 13.649951
_cell_length_b 21.701031
_cell_length_c 9.670554
_cell_angle_alpha 90.000000
_cell_angle_beta 73.027937
_cell_angle_gamma 90.000000
_cell_volume 2739.831247
_symmetry_space_group_name_H-M "C 2/C"
_symmetry_group_IT_number 15
_symmetry_cell_setting 'monoclinic'
loop_
_space_group_symop_operation_xyz
x,y,z
-x,y,1/2-z
-x,-y,-z
x,-y,1/2+z
1/2+x,1/2+y,z
1/2-x,1/2+y,1/2-z
1/2-x,1/2-y,-z
1/2+x,1/2-y,1/2+z
loop_
_atom_site_type_symbol
_atom_site_label
_atom_site_fract_x
_atom_site_fract_y
_atom_site_fract_z
Si Si1 0.849841 0.048793 0.814237
Si Si2 0.177939 0.603349 0.543723
Si Si3 0.087004 0.527270 0.106827
Si Si4 0.680297 0.859832 0.740220
Si Si5 0.131395 0.271182 0.544095
Si Si6 0.875724 0.607637 0.636512
Si Si7 0.591793 0.357907 0.968673
Si Si8 0.898483 0.068948 0.482778
O O1 0.731587 0.069364 0.836199
O O2 0.897663 0.043941 0.641512
O O3 0.876126 0.986021 0.884712
O O4 0.888890 0.103285 0.898535
O O5 0.157884 0.530170 0.543567
O O6 0.152661 0.634457 0.410493
O O7 0.115977 0.621185 0.705530
O O8 0.298910 0.612638 0.517044
O O9 0.148123 0.578978 0.169312
O O10 0.000000 0.508116 0.250000
O O11 0.050689 0.562562 0.982746
O O12 0.619498 0.803181 0.697591
O O13 0.802346 0.855622 0.662059
O O14 0.250000 0.250000 0.500000
O O15 0.124888 0.327524 0.440333
O O16 0.067798 0.211847 0.525439
O O17 0.502163 0.392666 0.924375
#
# Coordination Sequence:
#
# PCOD9275910 Si02
#       8
#     8   8   8   8   8   8   8   8
#     4  11  21  39  62  94 139 179 218 274 344 409
#     4  11  23  38  63 101 143 168 212 285 352 408
#     4  11  22  40  67  97 129 177 221 270 345 419
#     4  10  22  41  65  95 127 181 230 278 335 404
#     4   9  18  40  70  83 118 178 238 279 319 394
#     4  10  20  39  65  95 131 173 221 280 341 401
#     4  11  21  41  65  93 129 183 235 274 334 404
#     4  11  25  37  65 102 145 180 220 277 347 425
#
# _framework density 23.359103000000001
#
# number of rings (size 3 to 8) (size 9 to 14) (size 15 to 20)
#    0.000    1.500    5.000    1.500    3.500    2.500 
#    2.250    7.500    0.000    0.000   16.250    0.000 
#    0.000    0.000    0.000    0.000    0.000    0.000 
#
# Total GULP energy -178996.315203 kJ/mol
# GULP energy per Si atom -5593.634850 kJ/mol
# Density = 2.330594 g / cm^3
# Si number density = 23.359103 Si / 1000 Ang^3
#
#
#
# Elastic Constant Matrix: (Units=GPa)
#
#
# Indices 1 2 3 4 5 6 
#
# 1 102.6162 34.1461 36.1906 0.0000 -17.2275 0.0000
# 2 34.1461 113.5381 50.7884 0.0000 10.7885 0.0000
# 3 36.1906 50.7884 183.3335 0.0000 37.3898 0.0000
# 4 0.0000 0.0000 0.0000 8.1142 0.0000 1.0372
# 5 -17.2275 10.7885 37.3898 0.0000 32.6619 0.0000
# 6 0.0000 0.0000 0.0000 1.0372 0.0000 25.4966
#
#
#
# Elastic Compliance Matrix: (Units=1/GPa)
#
#
# Indices 1 2 3 4 5 6 
#
# 1 0.015331 -0.003783 -0.005065 0.000000 0.015134 0.000000
# 2 -0.003783 0.010988 -0.001500 0.000000 -0.003907 0.000000
# 3 -0.005065 -0.001500 0.009541 0.000000 -0.013098 0.000000
# 4 0.000000 0.000000 0.000000 0.123885 0.000000 -0.005040
# 5 0.015134 -0.003907 -0.013098 0.000000 0.054884 0.000000
# 6 0.000000 0.000000 0.000000 -0.005040 0.000000 0.039426
#
#
# Mechanical properties :
#
#
# Convention : Reuss Voigt Hill
#
# Bulk Modulus (GPa) = 65.94730 71.30423 68.62576
# Shear Modulus (GPa) = 17.86957 31.81206 24.84081
#
# Velocity S-wave (km/s) = 2.76885 3.69436 3.26457
# Velocity P-wave (km/s) = 6.20607 6.98493 6.60698
#
# Compressibility (1/GPa) = 0.01516362
#
# Stress axis : x y z
#
# Youngs Moduli (GPa) = 65.22802 91.01045 104.80816
#
# Poissons Ratio (x) = 0.34430 0.53083
# Poissons Ratio (y) = 0.24677 0.15724
# Poissons Ratio (z) = 0.33036 0.13654
#
# Static dielectric constant tensor:
#      x y z
#    x 1.974730 0.000000 -0.031490 
#    y 0.000000 1.868550 0.000000 
#    z -0.031490 0.000000 1.921130 
# 
# From -- ./inp_files/63822.got.cif
#   From: 2010.05.17/outbox.cif.g08.bks.cpg/sg15_32_cif.got.tgz:63822.got - 2010.06.03 18:47:42.
