data_PCOD9275937
_publ_section_title
;
Structure prediction by ZEFSAII (Michael W. Deem and Ramdas Pophale) SiO2 
 PCOD9275937
Probable space group: C 2/C
;
_chemical_formula_sum "Si O2"
_cell_formula_units_Z 40
_cell_length_a 20.404176
_cell_length_b 14.758004
_cell_length_c 8.368589
_cell_angle_alpha 90.000000
_cell_angle_beta 134.135390
_cell_angle_gamma 90.000000
_cell_volume 1808.587980
_symmetry_space_group_name_H-M "C 2/C"
_symmetry_group_IT_number 15
_symmetry_cell_setting 'monoclinic'
loop_
_space_group_symop_operation_xyz
x,y,z
-x,y,1/2-z
-x,-y,-z
x,-y,1/2+z
1/2+x,1/2+y,z
1/2-x,1/2+y,1/2-z
1/2-x,1/2-y,-z
1/2+x,1/2-y,1/2+z
loop_
_atom_site_type_symbol
_atom_site_label
_atom_site_fract_x
_atom_site_fract_y
_atom_site_fract_z
Si Si1 0.392162 0.596681 0.583999
Si Si2 0.288694 0.449411 0.217940
Si Si3 0.116010 0.437514 0.362379
Si Si4 0.677959 0.777684 0.014487
Si Si5 0.540801 0.116772 0.080248
O O1 0.500000 0.599019 0.750000
O O2 0.349473 0.505591 0.441351
O O3 0.357631 0.592643 0.707058
O O4 0.346066 0.687053 0.430517
O O5 0.217893 0.524043 0.024138
O O6 0.224095 0.367183 0.169410
O O7 0.058900 0.527967 0.218188
O O8 0.096406 0.400703 0.507851
O O9 0.064318 0.370270 0.151223
O O10 0.586626 0.805894 0.763117
O O11 0.750000 0.750000 0.000000
#
# Coordination Sequence:
#
# PCOD9275937 Si02
#       5
#     8   8   8   8   8
#     4  11  23  42  65  89 121 163 211 252 307 376
#     4  10  20  39  66  88 121 164 201 250 313 363
#     4   9  16  30  54  90 121 154 199 243 303 367
#     4   9  19  37  61  86 121 162 203 245 305 369
#     4   9  17  30  53  90 125 157 193 249 306 365
#
# _framework density 22.116702
#
# number of rings (size 3 to 8) (size 9 to 14) (size 15 to 20)
#    0.000    2.400    0.000    4.200    0.000    0.000 
#   25.200    1.000   44.000    0.000    0.000    0.000 
#    0.000    0.000    0.000    0.000    0.000    0.000 
#
# Total GULP energy -111428.045792 kJ/mol
# GULP energy per Si atom -5571.402290 kJ/mol
# Density = 2.206636 g / cm^3
# Si number density = 22.116702 Si / 1000 Ang^3
#
#
#
# Elastic Constant Matrix: (Units=GPa)
#
#
# Indices 1 2 3 4 5 6 
#
# 1 107.9171 24.0223 26.7769 0.0000 27.5561 0.0000
# 2 24.0223 110.0035 29.3305 0.0000 3.7485 0.0000
# 3 26.7769 29.3305 40.8065 0.0000 13.3098 0.0000
# 4 0.0000 0.0000 0.0000 31.0456 0.0000 2.7976
# 5 27.5561 3.7485 13.3098 0.0000 32.9580 0.0000
# 6 0.0000 0.0000 0.0000 2.7976 0.0000 24.4978
#
#
#
# Elastic Compliance Matrix: (Units=1/GPa)
#
#
# Indices 1 2 3 4 5 6 
#
# 1 0.012966 -0.001271 -0.004729 0.000000 -0.008787 0.000000
# 2 -0.001271 0.011522 -0.008484 0.000000 0.003179 0.000000
# 3 -0.004729 -0.008484 0.036973 0.000000 -0.010013 0.000000
# 4 0.000000 0.000000 0.000000 0.032546 0.000000 -0.003717
# 5 -0.008787 0.003179 -0.010013 0.000000 0.041370 0.000000
# 6 0.000000 0.000000 0.000000 -0.003717 0.000000 0.041244
#
#
# Mechanical properties :
#
#
# Convention : Reuss Voigt Hill
#
# Bulk Modulus (GPa) = 30.77606 46.55406 38.66506
# Shear Modulus (GPa) = 23.10309 29.60677 26.35493
#
# Velocity S-wave (km/s) = 3.23553 3.66274 3.45574
# Velocity P-wave (km/s) = 5.28240 6.24360 5.78300
#
# Compressibility (1/GPa) = 0.03249278
#
# Stress axis : x y z
#
# Youngs Moduli (GPa) = 77.12273 86.78949 27.04687
#
# Poissons Ratio (x) = 0.11034 0.12789
# Poissons Ratio (y) = 0.09805 0.22948
# Poissons Ratio (z) = 0.36468 0.73635
#
# Static dielectric constant tensor:
#      x y z
#    x 1.929790 0.000000 0.074700 
#    y 0.000000 1.885010 0.000000 
#    z 0.074700 0.000000 1.925630 
# 
# From -- ./inp_files/55503.got.cif
#   From: 2010.05.17/outbox.cif.g08.bks.cpg/sg15_28_cif.got.tgz:55503.got - 2010.06.03 18:47:42.
