data_PCOD9275884
_publ_section_title
;
Structure prediction by ZEFSAII (Michael W. Deem and Ramdas Pophale) SiO2 
 PCOD9275884
Probable space group: C 2/C
;
_chemical_formula_sum "Si O2"
_cell_formula_units_Z 40
_cell_length_a 7.611014
_cell_length_b 24.624306
_cell_length_c 10.799714
_cell_angle_alpha 90.000000
_cell_angle_beta 111.681078
_cell_angle_gamma 90.000000
_cell_volume 1880.847172
_symmetry_space_group_name_H-M "C 2/C"
_symmetry_group_IT_number 15
_symmetry_cell_setting 'monoclinic'
loop_
_space_group_symop_operation_xyz
x,y,z
-x,y,1/2-z
-x,-y,-z
x,-y,1/2+z
1/2+x,1/2+y,z
1/2-x,1/2+y,1/2-z
1/2-x,1/2-y,-z
1/2+x,1/2-y,1/2+z
loop_
_atom_site_type_symbol
_atom_site_label
_atom_site_fract_x
_atom_site_fract_y
_atom_site_fract_z
Si Si1 0.141270 0.151695 0.644601
Si Si2 0.681803 0.874155 0.566413
Si Si3 0.788055 0.760206 0.655369
Si Si4 0.877916 0.991257 0.595316
Si Si5 0.741451 0.894971 0.064949
O O1 0.277931 0.141192 0.565642
O O2 0.150615 0.215537 0.679876
O O3 0.931539 0.130649 0.554544
O O4 0.220227 0.119174 0.781818
O O5 0.762578 0.824545 0.669160
O O6 0.781530 0.933072 0.597760
O O7 0.541522 0.873477 0.968569
O O8 0.750000 0.750000 0.500000
O O9 0.000000 0.745875 0.750000
O O10 0.000000 0.003034 0.750000
O O11 0.731659 0.040496 0.547263
O O12 0.000000 0.000000 0.500000
#
# Coordination Sequence:
#
# PCOD9275884 Si02
#       5
#     8   8   8   8   8
#     4  10  20  39  65  93 131 175 231 273 328 419
#     4  11  22  38  64  95 137 172 221 285 351 393
#     4  10  21  39  65  95 129 177 219 275 345 401
#     4  12  23  43  69  96 137 179 228 286 347 417
#     4  11  21  39  65  98 126 181 230 273 339 415
#
# _framework density 21.267012999999999
#
# number of rings (size 3 to 8) (size 9 to 14) (size 15 to 20)
#    0.000    1.200    4.000    4.200    0.000    0.800 
#    0.000    5.000    0.000    0.000    0.000    0.000 
#    0.000    0.000    0.000    0.000    0.000    0.000 
#
# Total GULP energy -111473.943401 kJ/mol
# GULP energy per Si atom -5573.697170 kJ/mol
# Density = 2.121861 g / cm^3
# Si number density = 21.267013 Si / 1000 Ang^3
#
#
#
# Elastic Constant Matrix: (Units=GPa)
#
#
# Indices 1 2 3 4 5 6 
#
# 1 64.8030 38.7000 7.9173 0.0000 26.1147 0.0000
# 2 38.7000 164.6420 -6.3529 0.0000 4.0360 0.0000
# 3 7.9173 -6.3529 47.8545 0.0000 4.0777 0.0000
# 4 0.0000 0.0000 0.0000 38.2848 0.0000 -36.1545
# 5 26.1147 4.0360 4.0777 0.0000 27.5176 0.0000
# 6 0.0000 0.0000 0.0000 -36.1545 0.0000 198.4913
#
#
#
# Elastic Compliance Matrix: (Units=1/GPa)
#
#
# Indices 1 2 3 4 5 6 
#
# 1 0.031291 -0.006807 -0.003682 0.000000 -0.028152 0.000000
# 2 -0.006807 0.007615 0.001703 0.000000 0.005091 0.000000
# 3 -0.003682 0.001703 0.021730 0.000000 0.000024 0.000000
# 4 0.000000 0.000000 0.000000 0.031546 0.000000 0.005746
# 5 -0.028152 0.005091 0.000024 0.000000 0.062307 0.000000
# 6 0.000000 0.000000 0.000000 0.005746 0.000000 0.006085
#
#
# Mechanical properties :
#
#
# Convention : Reuss Voigt Hill
#
# Bulk Modulus (GPa) = 23.22094 39.75870 31.48982
# Shear Modulus (GPa) = 25.97407 68.66109 47.31758
#
# Velocity S-wave (km/s) = 3.49855 5.68818 4.72203
# Velocity P-wave (km/s) = 5.22132 7.86613 6.67601
#
# Compressibility (1/GPa) = 0.04306459
#
# Stress axis : x y z
#
# Youngs Moduli (GPa) = 31.95787 131.32372 46.01958
#
# Poissons Ratio (x) = 0.89394 0.16944
# Poissons Ratio (y) = 0.21754 -0.07839
# Poissons Ratio (z) = 0.11766 -0.22369
#
# Static dielectric constant tensor:
#      x y z
#    x 1.768640 0.000000 -0.025040 
#    y 0.000000 1.910850 0.000000 
#    z -0.025040 0.000000 1.741180 
# 
# From -- ./inp_files/32269.got.cif
#   From: 2010.05.17/outbox.cif.g08.bks.cpg/sg15_17_cif.got.tgz:32269.got - 2010.06.03 18:47:42.
