data_PCOD9275202
_publ_section_title
;
Structure prediction by ZEFSAII (Michael W. Deem and Ramdas Pophale) SiO2 
 PCOD9275202
Probable space group: C 2/C
;
_chemical_formula_sum "Si O2"
_cell_formula_units_Z 60
_cell_length_a 13.759159
_cell_length_b 11.429831
_cell_length_c 18.526792
_cell_angle_alpha 90.000000
_cell_angle_beta 108.372259
_cell_angle_gamma 90.000000
_cell_volume 2765.102810
_symmetry_space_group_name_H-M "C 2/C"
_symmetry_group_IT_number 15
_symmetry_cell_setting 'monoclinic'
loop_
_space_group_symop_operation_xyz
x,y,z
-x,y,1/2-z
-x,-y,-z
x,-y,1/2+z
1/2+x,1/2+y,z
1/2-x,1/2+y,1/2-z
1/2-x,1/2-y,-z
1/2+x,1/2-y,1/2+z
loop_
_atom_site_type_symbol
_atom_site_label
_atom_site_fract_x
_atom_site_fract_y
_atom_site_fract_z
Si Si1 0.425608 0.414676 0.582925
Si Si2 0.660872 0.840508 0.949540
Si Si3 0.000000 0.991000 0.750000
Si Si4 0.294213 0.030410 0.427449
Si Si5 0.111133 0.425207 0.777700
Si Si6 0.352042 0.765565 0.834591
Si Si7 0.000591 0.841747 0.459444
Si Si8 0.728566 0.414367 0.271203
O O1 0.474458 0.417754 0.672835
O O2 0.305631 0.403705 0.565459
O O3 0.478987 0.330584 0.538618
O O4 0.439419 0.541844 0.548275
O O5 0.654843 0.878143 0.864152
O O6 0.560043 0.767384 0.942615
O O7 0.750000 0.750000 0.000000
O O8 0.658420 0.959607 0.995579
O O9 0.106094 0.058705 0.754417
O O10 0.344356 0.131336 0.391058
O O11 0.267493 0.929687 0.362130
O O12 0.085143 0.319067 0.716869
O O13 0.204104 0.494680 0.760111
O O14 0.000000 0.490966 0.750000
O O15 0.395280 0.657325 0.890577
O O16 0.258781 0.708648 0.767506
#
# Coordination Sequence:
#
# PCOD9275202 Si02
#       8
#     8   8   4   8   8   8   8   8
#     4  10  22  40  61 100 128 167 229 282 332 401
#     4  12  24  40  70  98 133 183 226 287 335 411
#     4  10  20  38  72  92 132 170 226 294 326 396
#     4  10  24  43  62  98 133 167 233 278 337 414
#     4  11  25  44  68 101 137 178 231 277 350 425
#     4  11  23  43  69  95 127 183 222 279 347 404
#     4  11  23  38  66  97 132 168 225 278 346 395
#     4  10  23  42  68  96 131 175 227 285 341 409
#
# _framework density 21.699012
#
# number of rings (size 3 to 8) (size 9 to 14) (size 15 to 20)
#    0.000    1.333    4.000    0.800    6.533    1.067 
#    2.400    0.000    5.867    0.000    0.000    0.000 
#    0.000    0.000    0.000    0.000    0.000    0.000 
#
# Total GULP energy -167005.437535 kJ/mol
# GULP energy per Si atom -5566.847918 kJ/mol
# Density = 2.164962 g / cm^3
# Si number density = 21.699012 Si / 1000 Ang^3
#
#
#
# Elastic Constant Matrix: (Units=GPa)
#
#
# Indices 1 2 3 4 5 6 
#
# 1 77.6536 19.9830 41.6050 0.0000 -16.9145 0.0000
# 2 19.9830 34.1297 22.5090 0.0000 -9.4580 0.0000
# 3 41.6050 22.5090 156.7116 0.0000 -31.3649 0.0000
# 4 0.0000 0.0000 0.0000 30.0396 0.0000 -4.4446
# 5 -16.9145 -9.4580 -31.3649 0.0000 31.4212 0.0000
# 6 0.0000 0.0000 0.0000 -4.4446 0.0000 3.7707
#
#
#
# Elastic Compliance Matrix: (Units=1/GPa)
#
#
# Indices 1 2 3 4 5 6 
#
# 1 0.017063 -0.007023 -0.002632 0.000000 0.004444 0.000000
# 2 -0.007023 0.036312 -0.002400 0.000000 0.004754 0.000000
# 3 -0.002632 -0.002400 0.008743 0.000000 0.006589 0.000000
# 4 0.000000 0.000000 0.000000 0.040322 0.000000 0.047529
# 5 0.004444 0.004754 0.006589 0.000000 0.042226 0.000000
# 6 0.000000 0.000000 0.000000 0.047529 0.000000 0.321228
#
#
# Mechanical properties :
#
#
# Convention : Reuss Voigt Hill
#
# Bulk Modulus (GPa) = 26.30934 48.52100 37.41517
# Shear Modulus (GPa) = 9.94683 25.33949 17.64316
#
# Velocity S-wave (km/s) = 2.14335 3.42097 2.85456
# Velocity P-wave (km/s) = 4.27507 6.16551 5.30518
#
# Compressibility (1/GPa) = 0.03800931
#
# Stress axis : x y z
#
# Youngs Moduli (GPa) = 58.60597 27.53906 114.37510
#
# Poissons Ratio (x) = 0.19341 0.30101
# Poissons Ratio (y) = 0.41160 0.27445
# Poissons Ratio (z) = 0.15424 0.06608
#
# Static dielectric constant tensor:
#      x y z
#    x 1.876300 0.000000 0.010570 
#    y 0.000000 1.859080 0.000000 
#    z 0.010570 0.000000 1.618610 
# 
# From -- ./inp_files/204074.got.cif
#   From: 2010.05.17/outbox.cif.g08.bks.cpg/sg15_103_cif.got.tgz:204074.got - 2010.06.03 18:47:42.
