data_PCOD9275062
_publ_section_title
;
Structure prediction by ZEFSAII (Michael W. Deem and Ramdas Pophale) SiO2 
 PCOD9275062
Probable space group: C 2/C
;
_chemical_formula_sum "Si O2"
_cell_formula_units_Z 44
_cell_length_a 5.277779
_cell_length_b 32.921710
_cell_length_c 12.420244
_cell_angle_alpha 90.000000
_cell_angle_beta 80.556796
_cell_angle_gamma 90.000000
_cell_volume 2128.816508
_symmetry_space_group_name_H-M "C 2/C"
_symmetry_group_IT_number 15
_symmetry_cell_setting 'monoclinic'
loop_
_space_group_symop_operation_xyz
x,y,z
-x,y,1/2-z
-x,-y,-z
x,-y,1/2+z
1/2+x,1/2+y,z
1/2-x,1/2+y,1/2-z
1/2-x,1/2-y,-z
1/2+x,1/2-y,1/2+z
loop_
_atom_site_type_symbol
_atom_site_label
_atom_site_fract_x
_atom_site_fract_y
_atom_site_fract_z
Si Si1 0.652191 0.436828 0.628117
Si Si2 0.169094 0.683066 0.959806
Si Si3 0.000000 0.713705 0.750000
Si Si4 0.724621 0.972672 0.322166
Si Si5 0.188315 0.590541 0.010826
Si Si6 0.412400 0.247042 0.098866
O O1 0.500000 0.429287 0.750000
O O2 0.730289 0.484323 0.621770
O O3 0.440236 0.426337 0.553374
O O4 0.920837 0.413022 0.595770
O O5 0.393906 0.715427 0.923648
O O6 0.017505 0.686856 0.856539
O O7 0.238612 0.637053 0.976087
O O8 0.033809 0.702780 0.074259
O O9 0.763404 0.743998 0.787068
O O10 0.500000 0.978246 0.250000
O O11 0.647342 0.937525 0.409443
O O12 0.000000 0.962373 0.250000
O O13 0.250000 0.250000 0.000000
#
# Coordination Sequence:
#
# PCOD9275062 Si02
#       6
#     8   8   4   8   8   8
#     4  11  24  46  65  93 136 187 228 275 334 404
#     4  10  23  39  64  95 134 165 219 274 331 394
#     4  10  20  38  68  90 128 172 216 268 334 396
#     4  11  23  42  70 102 137 178 226 271 337 416
#     4  12  25  41  71 101 139 173 226 289 338 389
#     4   9  20  41  62  88 125 173 210 261 327 401
#
# _framework density 20.668762000000001
#
# number of rings (size 3 to 8) (size 9 to 14) (size 15 to 20)
#    0.000    1.455    0.000    5.455    6.364    1.455 
#    1.636    5.455    0.000    0.000    0.000    0.000 
#    0.000    0.000    0.000    0.000    0.000    0.000 
#
# Total GULP energy -122787.780477 kJ/mol
# GULP energy per Si atom -5581.262749 kJ/mol
# Density = 2.062172 g / cm^3
# Si number density = 20.668762 Si / 1000 Ang^3
#
#
#
# Elastic Constant Matrix: (Units=GPa)
#
#
# Indices 1 2 3 4 5 6 
#
# 1 103.6635 47.3063 18.7590 0.0000 11.3375 0.0000
# 2 47.3063 143.0244 72.7537 0.0000 22.3491 0.0000
# 3 18.7590 72.7537 54.4316 0.0000 -0.7226 0.0000
# 4 0.0000 0.0000 0.0000 1.2429 0.0000 -4.8302
# 5 11.3375 22.3491 -0.7226 0.0000 37.3452 0.0000
# 6 0.0000 0.0000 0.0000 -4.8302 0.0000 4.3458
#
#
#
# Elastic Compliance Matrix: (Units=1/GPa)
#
#
# Indices 1 2 3 4 5 6 
#
# 1 0.011574 -0.005560 0.003441 0.000000 -0.000120 0.000000
# 2 -0.005560 0.034700 -0.044728 0.000000 -0.019943 0.000000
# 3 0.003441 -0.044728 0.077332 0.000000 0.027219 0.000000
# 4 0.000000 0.000000 0.000000 -0.242389 0.000000 -0.269404
# 5 -0.000120 -0.019943 0.027219 0.000000 0.039275 0.000000
# 6 0.000000 0.000000 0.000000 -0.269404 0.000000 -0.069325
#
#
# Mechanical properties :
#
#
# Convention : Reuss Voigt Hill
#
# Bulk Modulus (GPa) = 33.43304 64.30640 48.86972
# Shear Modulus (GPa) = -110.69698 19.40684 -45.64507
#
# Velocity S-wave (km/s) = -7.32625 3.06755 -4.70447
# Velocity P-wave (km/s) = 7.44006 6.61263 2.41118
#
# Compressibility (1/GPa) = 0.02991053
#
# Stress axis : x y z
#
# Youngs Moduli (GPa) = 86.39880 28.81880 12.93132
#
# Poissons Ratio (x) = 0.16022 -0.04449
# Poissons Ratio (y) = 0.48035 0.57840
# Poissons Ratio (z) = -0.29727 1.28902
#
# Static dielectric constant tensor:
#      x y z
#    x 1.824230 0.000000 -0.004180 
#    y 0.000000 1.690450 0.000000 
#    z -0.004180 0.000000 1.773130 
# 
# From -- ./inp_files/73843.got.cif
#   From: 2010.05.17/outbox.cif.g08.bks.cpg/sg15_37_cif.got.tgz:73843.got - 2010.06.03 18:47:42.
