data_PCOD9275159
_publ_section_title
;
Structure prediction by ZEFSAII (Michael W. Deem and Ramdas Pophale) SiO2 
 PCOD9275159
Probable space group: C 2/C
;
_chemical_formula_sum "Si O2"
_cell_formula_units_Z 44
_cell_length_a 27.693862
_cell_length_b 9.220413
_cell_length_c 8.645680
_cell_angle_alpha 90.000000
_cell_angle_beta 73.207133
_cell_angle_gamma 90.000000
_cell_volume 2113.519600
_symmetry_space_group_name_H-M "C 2/C"
_symmetry_group_IT_number 15
_symmetry_cell_setting 'monoclinic'
loop_
_space_group_symop_operation_xyz
x,y,z
-x,y,1/2-z
-x,-y,-z
x,-y,1/2+z
1/2+x,1/2+y,z
1/2-x,1/2+y,1/2-z
1/2-x,1/2-y,-z
1/2+x,1/2-y,1/2+z
loop_
_atom_site_type_symbol
_atom_site_label
_atom_site_fract_x
_atom_site_fract_y
_atom_site_fract_z
Si Si1 0.000000 0.990638 0.750000
Si Si2 0.848033 0.152799 0.577245
Si Si3 0.178499 0.561581 0.569914
Si Si4 0.336944 0.205244 0.585499
Si Si5 0.072879 0.078415 0.427997
Si Si6 0.789287 0.937774 0.430827
O O1 0.956446 0.901517 0.704444
O O2 0.029720 0.083694 0.596927
O O3 0.844464 0.316002 0.520926
O O4 0.807475 0.125169 0.750959
O O5 0.899801 0.079881 0.588952
O O6 0.830202 0.056362 0.447599
O O7 0.177481 0.620056 0.745488
O O8 0.150728 0.410465 0.560016
O O9 0.236166 0.519014 0.475244
O O10 0.384119 0.305875 0.580268
O O11 0.293839 0.311749 0.556626
#
# Coordination Sequence:
#
# PCOD9275159 Si02
#       6
#     4   8   8   8   8   8
#     4  10  20  38  70  90 110 142 198 244 304 372
#     4  11  22  39  62  88 125 157 202 247 291 344
#     4  12  24  39  61  88 124 169 201 241 290 344
#     4  11  24  41  60  87 126 158 204 248 294 347
#     4  10  21  40  64  92 113 148 191 250 302 358
#     4  11  23  39  57  87 124 168 208 239 276 340
#
# _framework density 20.818356000000001
#
# number of rings (size 3 to 8) (size 9 to 14) (size 15 to 20)
#    0.000    1.091    0.000    8.727    0.000    4.364 
#    0.000    0.000    0.000   18.545    0.000    0.000 
#    0.000    0.000    0.000    0.000    0.000    0.000 
#
# Total GULP energy -123014.257582 kJ/mol
# GULP energy per Si atom -5591.557163 kJ/mol
# Density = 2.077097 g / cm^3
# Si number density = 20.818356 Si / 1000 Ang^3
#
#
#
# Elastic Constant Matrix: (Units=GPa)
#
#
# Indices 1 2 3 4 5 6 
#
# 1 117.5519 39.1406 19.6838 0.0000 21.1152 0.0000
# 2 39.1406 113.9665 17.2173 0.0000 12.3457 0.0000
# 3 19.6838 17.2173 84.6463 0.0000 -1.2750 0.0000
# 4 0.0000 0.0000 0.0000 28.0325 0.0000 6.2171
# 5 21.1152 12.3457 -1.2750 0.0000 36.3248 0.0000
# 6 0.0000 0.0000 0.0000 6.2171 0.0000 20.9526
#
#
#
# Elastic Compliance Matrix: (Units=1/GPa)
#
#
# Indices 1 2 3 4 5 6 
#
# 1 0.010740 -0.002804 -0.002008 0.000000 -0.005360 0.000000
# 2 -0.002804 0.010158 -0.001442 0.000000 -0.001873 0.000000
# 3 -0.002008 -0.001442 0.012606 0.000000 0.002100 0.000000
# 4 0.000000 0.000000 0.000000 0.038186 0.000000 -0.011331
# 5 -0.005360 -0.001873 0.002100 0.000000 0.031355 0.000000
# 6 0.000000 0.000000 0.000000 -0.011331 0.000000 0.051089
#
#
# Mechanical properties :
#
#
# Convention : Reuss Voigt Hill
#
# Bulk Modulus (GPa) = 47.63068 52.02757 49.82913
# Shear Modulus (GPa) = 28.79499 33.07016 30.93258
#
# Velocity S-wave (km/s) = 3.72311 3.98994 3.85883
# Velocity P-wave (km/s) = 6.43513 6.80232 6.62127
#
# Compressibility (1/GPa) = 0.02099487
#
# Stress axis : x y z
#
# Youngs Moduli (GPa) = 93.11276 98.44005 79.32893
#
# Poissons Ratio (x) = 0.27607 0.15927
# Poissons Ratio (y) = 0.26113 0.11442
# Poissons Ratio (z) = 0.18694 0.14198
#
# Static dielectric constant tensor:
#      x y z
#    x 1.754980 0.000000 0.030400 
#    y 0.000000 1.765900 0.000000 
#    z 0.030400 0.000000 1.805400 
# 
# From -- ./inp_files/68291.got.cif
#   From: 2010.05.17/outbox.cif.g08.bks.cpg/sg15_35_cif.got.tgz:68291.got - 2010.06.03 18:47:42.
