data_PCOD9275009
_publ_section_title
;
Structure prediction by ZEFSAII (Michael W. Deem and Ramdas Pophale) SiO2 
 PCOD9275009
Probable space group: C 2/C
;
_chemical_formula_sum "Si O2"
_cell_formula_units_Z 40
_cell_length_a 15.183331
_cell_length_b 15.811820
_cell_length_c 14.515942
_cell_angle_alpha 90.000000
_cell_angle_beta 29.988250
_cell_angle_gamma 90.000000
_cell_volume 1741.846384
_symmetry_space_group_name_H-M "C 2/C"
_symmetry_group_IT_number 15
_symmetry_cell_setting 'monoclinic'
loop_
_space_group_symop_operation_xyz
x,y,z
-x,y,1/2-z
-x,-y,-z
x,-y,1/2+z
1/2+x,1/2+y,z
1/2-x,1/2+y,1/2-z
1/2-x,1/2-y,-z
1/2+x,1/2-y,1/2+z
loop_
_atom_site_type_symbol
_atom_site_label
_atom_site_fract_x
_atom_site_fract_y
_atom_site_fract_z
Si Si1 0.505170 0.612186 0.345759
Si Si2 0.699521 0.969175 0.429642
Si Si3 0.169941 0.470511 0.243561
Si Si4 0.657508 0.654166 0.393677
Si Si5 0.136655 0.807962 0.203185
O O1 0.500000 0.653339 0.250000
O O2 0.630590 0.529462 0.220565
O O3 0.314205 0.581874 0.555720
O O4 0.599413 0.665411 0.340621
O O5 0.528017 0.021826 0.614721
O O6 0.737891 0.882367 0.448730
O O7 0.660912 0.941306 0.358545
O O8 0.239603 0.566728 0.189015
O O9 0.763592 0.731968 0.339132
O O10 0.481820 0.647052 0.612614
O O11 0.000000 0.778256 0.250000
#
# Coordination Sequence:
#
# PCOD9275009 Si02
#       5
#     8   8   8   8   8
#     4  11  22  43  66  93 128 175 219 270 319 376
#     4  10  20  38  67  96 125 165 217 265 329 386
#     4  10  20  39  66  92 127 172 211 269 322 379
#     4  11  23  41  61  93 136 167 215 267 324 394
#     4  12  23  40  63  98 134 173 209 272 336 392
#
# _framework density 22.964137999999998
#
# number of rings (size 3 to 8) (size 9 to 14) (size 15 to 20)
#    0.000    1.200    4.000    3.600    0.000    0.800 
#    0.000    1.000    0.000    0.000    0.000    0.000 
#    0.000    0.000    0.000    0.000    0.000    0.000 
#
# Total GULP energy -111894.747850 kJ/mol
# GULP energy per Si atom -5594.737392 kJ/mol
# Density = 2.291187 g / cm^3
# Si number density = 22.964138 Si / 1000 Ang^3
#
#
#
# Elastic Constant Matrix: (Units=GPa)
#
#
# Indices 1 2 3 4 5 6 
#
# 1 138.4750 30.4632 42.2813 0.0011 1.3386 -0.0009
# 2 30.4632 45.3793 5.6150 0.0004 -22.9020 -0.0009
# 3 42.2813 5.6150 111.2239 -0.0007 -16.7047 -0.0002
# 4 0.0011 0.0004 -0.0007 20.5894 0.0000 -3.2410
# 5 1.3386 -22.9020 -16.7047 0.0000 38.8576 0.0003
# 6 -0.0009 -0.0009 -0.0002 -3.2410 0.0003 23.9211
#
#
#
# Elastic Compliance Matrix: (Units=1/GPa)
#
#
# Indices 1 2 3 4 5 6 
#
# 1 0.011568 -0.012037 -0.005255 -0.000001 -0.009752 0.000000
# 2 -0.012037 0.044062 0.006750 0.000000 0.029286 0.000001
# 3 -0.005255 0.006750 0.012050 0.000001 0.009340 0.000000
# 4 -0.000001 0.000000 0.000001 0.049627 0.000000 0.006724
# 5 -0.009752 0.029286 0.009340 0.000000 0.047346 0.000000
# 6 0.000000 0.000001 0.000000 0.006724 0.000000 0.042715
#
#
# Mechanical properties :
#
#
# Convention : Reuss Voigt Hill
#
# Bulk Modulus (GPa) = 21.46086 50.19969 35.83027
# Shear Modulus (GPa) = 20.49308 31.12153 25.80731
#
# Velocity S-wave (km/s) = 2.99054 3.68533 3.35596
# Velocity P-wave (km/s) = 4.61412 6.32585 5.53654
#
# Compressibility (1/GPa) = 0.04659646
#
# Stress axis : x y z
#
# Youngs Moduli (GPa) = 86.44337 22.69546 82.98523
#
# Poissons Ratio (x) = 0.27319 0.43605
# Poissons Ratio (y) = 1.04054 -0.56014
# Poissons Ratio (z) = 0.45422 -0.15319
#
# Static dielectric constant tensor:
#      x y z
#    x 1.928670 0.000000 0.008700 
#    y 0.000000 1.813000 0.000000 
#    z 0.008700 0.000000 1.913150 
# 
# From -- ./inp_files/155355.got.cif
#   From: 2010.05.17/outbox.cif.g08.bks.cpg/sg15_78_cif.got.tgz:155355.got - 2010.06.03 18:47:42.
