data_PCOD9275455
_publ_section_title
;
Structure prediction by ZEFSAII (Michael W. Deem and Ramdas Pophale) SiO2 
 PCOD9275455
Probable space group: C 2/C
;
_chemical_formula_sum "Si O2"
_cell_formula_units_Z 64
_cell_length_a 14.665936
_cell_length_b 20.151674
_cell_length_c 19.167763
_cell_angle_alpha 90.000000
_cell_angle_beta 28.935075
_cell_angle_gamma 90.000000
_cell_volume 2740.782503
_symmetry_space_group_name_H-M "C 2/C"
_symmetry_group_IT_number 15
_symmetry_cell_setting 'monoclinic'
loop_
_space_group_symop_operation_xyz
x,y,z
-x,y,1/2-z
-x,-y,-z
x,-y,1/2+z
1/2+x,1/2+y,z
1/2-x,1/2+y,1/2-z
1/2-x,1/2-y,-z
1/2+x,1/2-y,1/2+z
loop_
_atom_site_type_symbol
_atom_site_label
_atom_site_fract_x
_atom_site_fract_y
_atom_site_fract_z
Si Si1 0.372163 0.712578 0.980599
Si Si2 0.182525 0.176954 0.672879
Si Si3 0.698325 0.159392 0.592666
Si Si4 0.470897 0.540444 0.422424
Si Si5 0.908135 0.445609 0.961897
Si Si6 0.774744 0.204375 0.391820
Si Si7 0.249781 0.077128 0.365498
Si Si8 0.295056 0.061789 0.112029
O O1 0.354319 0.771277 0.049711
O O2 0.275197 0.647710 0.079599
O O3 0.250000 0.750000 0.000000
O O4 0.579006 0.686669 0.817276
O O5 0.252866 0.108787 0.588931
O O6 0.000000 0.196208 0.750000
O O7 0.500000 0.131501 0.750000
O O8 0.854418 0.104978 0.483221
O O9 0.671768 0.189924 0.533878
O O10 0.765265 0.219224 0.598516
O O11 0.605280 0.562515 0.397420
O O12 0.326227 0.480845 0.533125
O O13 0.612317 0.525389 0.265207
O O14 0.039969 0.429568 0.807400
O O15 0.045645 0.443340 0.936556
O O16 0.841393 0.522180 0.010216
O O17 0.734030 0.140020 0.374482
O O18 0.000000 0.204244 0.250000
#
# Coordination Sequence:
#
# PCOD9275455 Si02
#       8
#     8   8   8   8   8   8   8   8
#     4  10  21  40  62  87 120 160 205 259 317 370
#     4  10  21  39  61  85 118 159 204 261 310 374
#     4  10  22  38  58  93 124 156 202 252 308 375
#     4  10  21  41  63  90 126 165 208 259 320 377
#     4  10  22  39  60  92 123 156 217 257 315 377
#     4  10  20  39  62  84 124 159 200 248 308 371
#     4  10  22  40  64  91 125 164 209 267 317 373
#     4  10  21  39  62  87 122 166 202 263 311 379
#
# _framework density 23.350995000000001
#
# number of rings (size 3 to 8) (size 9 to 14) (size 15 to 20)
#    0.000    2.000    1.250    1.500    1.750    3.500 
#    4.500    1.875    0.000    0.000    0.000    0.000 
#    0.000    0.000    0.000    0.000    0.000    0.000 
#
# Total GULP energy -178340.283339 kJ/mol
# GULP energy per Si atom -5573.133854 kJ/mol
# Density = 2.329785 g / cm^3
# Si number density = 23.350995 Si / 1000 Ang^3
#
#
#
# Elastic Constant Matrix: (Units=GPa)
#
#
# Indices 1 2 3 4 5 6 
#
# 1 21.7254 9.3634 9.1248 1.4222 1.5125 -1.9303
# 2 9.3634 86.6547 -19.1668 5.6000 5.0507 -7.5343
# 3 9.1248 -19.1668 96.1367 4.2712 14.6113 -5.7982
# 4 1.4222 5.6000 4.2712 2249.8530 -0.2777-2942.9335
# 5 1.5125 5.0507 14.6113 -0.2777 21.0966 0.4115
# 6 -1.9303 -7.5343 -5.7982-2942.9335 0.4115 3976.2883
#
#
#
# Elastic Compliance Matrix: (Units=1/GPa)
#
#
# Indices 1 2 3 4 5 6 
#
# 1 0.051814 -0.007256 -0.006777 0.000004 0.002716 0.000004
# 2 -0.007256 0.013602 0.004268 -0.000002 -0.005693 0.000028
# 3 -0.006777 0.004268 0.013388 0.000005 -0.009809 0.000029
# 4 0.000004 -0.000002 0.000005 0.013942 -0.000021 0.010319
# 5 0.002716 -0.005693 -0.009809 -0.000021 0.055363 -0.000045
# 6 0.000004 0.000028 0.000029 0.010319 -0.000045 0.007889
#
#
# Mechanical properties :
#
#
# Convention : Reuss Voigt Hill
#
# Bulk Modulus (GPa) = 16.87109 22.57330 19.72219
# Shear Modulus (GPa) = 25.60328 1263.12726 644.36527
#
# Velocity S-wave (km/s) = 3.31487 23.28315 16.62969
# Velocity P-wave (km/s) = 4.67887 27.06464 19.42146
#
# Compressibility (1/GPa) = 0.05927299
#
# Stress axis : x y z
#
# Youngs Moduli (GPa) = 19.29984 73.51676 74.69220
#
# Poissons Ratio (x) = 0.53344 0.50621
# Poissons Ratio (y) = 0.14004 -0.31875
# Poissons Ratio (z) = 0.13080 -0.31374
#
# Static dielectric constant tensor:
#      x y z
#    x 1.995850 0.000070 0.100090 
#    y 0.000070 2.059460 0.000170 
#    z 0.100090 0.000170 1.981430 
# 
# From -- ./inp_files/280501.got.cif
#   From: 2010.05.17/outbox.cif.g08.bks.cpg/sg15_141_cif.got.tgz:280501.got - 2010.06.03 18:47:42.
