data_PCOD9275334
_publ_section_title
;
Structure prediction by ZEFSAII (Michael W. Deem and Ramdas Pophale) SiO2 
 PCOD9275334
Probable space group: C 2/C
;
_chemical_formula_sum "Si O2"
_cell_formula_units_Z 40
_cell_length_a 9.305578
_cell_length_b 15.911549
_cell_length_c 17.838412
_cell_angle_alpha 90.000000
_cell_angle_beta 48.826930
_cell_angle_gamma 90.000000
_cell_volume 1988.144797
_symmetry_space_group_name_H-M "C 2/C"
_symmetry_group_IT_number 15
_symmetry_cell_setting 'monoclinic'
loop_
_space_group_symop_operation_xyz
x,y,z
-x,y,1/2-z
-x,-y,-z
x,-y,1/2+z
1/2+x,1/2+y,z
1/2-x,1/2+y,1/2-z
1/2-x,1/2-y,-z
1/2+x,1/2-y,1/2+z
loop_
_atom_site_type_symbol
_atom_site_label
_atom_site_fract_x
_atom_site_fract_y
_atom_site_fract_z
Si Si1 0.917579 0.252981 0.110891
Si Si2 0.777332 0.064274 0.719630
Si Si3 0.014989 0.934757 0.562214
Si Si4 0.000000 0.684918 0.750000
Si Si5 0.500000 0.677707 0.750000
Si Si6 0.950482 0.570841 0.958010
O O1 0.976006 0.264075 0.179893
O O2 0.691560 0.268228 0.178457
O O3 0.971791 0.162214 0.062840
O O4 0.016931 0.330792 0.033911
O O5 0.684186 0.122366 0.686519
O O6 0.602403 0.058512 0.838254
O O7 0.950716 0.116300 0.697457
O O8 0.856742 0.973478 0.672420
O O9 0.229782 0.940119 0.516687
O O10 0.000000 0.000000 0.500000
O O11 0.000000 0.500000 0.000000
#
# Coordination Sequence:
#
# PCOD9275334 Si02
#       6
#     8   8   8   4   4   8
#     4  10  21  38  61  92 122 157 205 247 298 361
#     4  10  20  39  60  87 120 156 198 250 301 356
#     4  12  24  38  60  89 123 162 201 247 300 356
#     4   8  18  38  62  84 118 160 200 250 298 354
#     4   8  18  38  62  84 116 156 198 248 300 354
#     4  10  22  41  63  89 122 159 202 248 300 361
#
# _framework density 20.119260000000001
#
# number of rings (size 3 to 8) (size 9 to 14) (size 15 to 20)
#    0.000    2.400    0.000    5.400    0.000    4.800 
#    0.000   10.000    0.000    0.000    0.000    0.000 
#    0.000    0.000    0.000    0.000    0.000    0.000 
#
# Total GULP energy -111501.215217 kJ/mol
# GULP energy per Si atom -5575.060761 kJ/mol
# Density = 2.007347 g / cm^3
# Si number density = 20.119260 Si / 1000 Ang^3
#
#
#
# Elastic Constant Matrix: (Units=GPa)
#
#
# Indices 1 2 3 4 5 6 
#
# 1 124.6440 62.2114 2.6087 0.0002 -25.2374 0.0000
# 2 62.2114 189.8105 41.8728 0.0001 -8.6608 0.0000
# 3 2.6087 41.8728 37.9489 0.0002 -11.2127 -0.0001
# 4 0.0002 0.0001 0.0002 34.6611 -0.0001 0.9498
# 5 -25.2374 -8.6608 -11.2127 -0.0001 28.7192 0.0001
# 6 0.0000 0.0000 -0.0001 0.9498 0.0001 21.6402
#
#
#
# Elastic Compliance Matrix: (Units=1/GPa)
#
#
# Indices 1 2 3 4 5 6 
#
# 1 0.013653 -0.006003 0.009830 0.000000 0.014025 0.000000
# 2 -0.006003 0.009630 -0.012336 0.000000 -0.007188 0.000000
# 3 0.009830 -0.012336 0.046053 0.000000 0.022898 0.000000
# 4 0.000000 0.000000 0.000000 0.028886 0.000000 -0.001268
# 5 0.014025 -0.007188 0.022898 0.000000 0.053917 0.000000
# 6 0.000000 0.000000 0.000000 -0.001268 0.000000 0.046266
#
#
# Mechanical properties :
#
#
# Convention : Reuss Voigt Hill
#
# Bulk Modulus (GPa) = 19.11473 62.86547 40.99010
# Shear Modulus (GPa) = 21.47181 33.38480 27.42830
#
# Velocity S-wave (km/s) = 3.27039 4.07793 3.69628
# Velocity P-wave (km/s) = 4.87667 7.31347 6.21566
#
# Compressibility (1/GPa) = 0.05231568
#
# Stress axis : x y z
#
# Youngs Moduli (GPa) = 73.24217 103.84702 21.71406
#
# Poissons Ratio (x) = 0.62344 -0.21344
# Poissons Ratio (y) = 0.43971 0.26787
# Poissons Ratio (z) = -0.71995 1.28110
#
# Static dielectric constant tensor:
#      x y z
#    x 1.718290 0.000000 0.063110 
#    y 0.000000 1.740830 0.000000 
#    z 0.063110 0.000000 1.811360 
# 
# From -- ./inp_files/230976.got.cif
#   From: 2010.05.17/outbox.cif.g08.bks.cpg/sg15_116_cif.got.tgz:230976.got - 2010.06.03 18:47:42.
