data_PCOD9275707
_publ_section_title
;
Structure prediction by ZEFSAII (Michael W. Deem and Ramdas Pophale) SiO2 
 PCOD9275707
Probable space group: C 2/C
;
_chemical_formula_sum "Si O2"
_cell_formula_units_Z 52
_cell_length_a 20.794484
_cell_length_b 6.312711
_cell_length_c 21.315160
_cell_angle_alpha 90.000000
_cell_angle_beta 125.335359
_cell_angle_gamma 90.000000
_cell_volume 2282.580713
_symmetry_space_group_name_H-M "C 2/C"
_symmetry_group_IT_number 15
_symmetry_cell_setting 'monoclinic'
loop_
_space_group_symop_operation_xyz
x,y,z
-x,y,1/2-z
-x,-y,-z
x,-y,1/2+z
1/2+x,1/2+y,z
1/2-x,1/2+y,1/2-z
1/2-x,1/2-y,-z
1/2+x,1/2-y,1/2+z
loop_
_atom_site_type_symbol
_atom_site_label
_atom_site_fract_x
_atom_site_fract_y
_atom_site_fract_z
Si Si1 0.036268 0.125103 0.437480
Si Si2 0.595113 0.848604 0.190844
Si Si3 0.500000 0.005138 0.250000
Si Si4 0.243526 0.397259 0.355248
Si Si5 0.100634 0.632245 0.082115
Si Si6 0.364058 0.039916 0.591293
Si Si7 0.152321 0.749299 0.527224
O O1 0.042108 0.219105 0.510862
O O2 0.086780 0.288612 0.421809
O O3 0.945110 0.144509 0.364642
O O4 0.086636 0.912920 0.465395
O O5 0.548637 0.866149 0.229143
O O6 0.684890 0.871728 0.263199
O O7 0.577261 0.053792 0.137592
O O8 0.571238 0.099089 0.332228
O O9 0.316150 0.248863 0.378860
O O10 0.194561 0.350452 0.391809
O O11 0.281646 0.623806 0.395996
O O12 0.112330 0.415744 0.051120
O O13 0.320451 0.890606 0.516821
#
# Coordination Sequence:
#
# PCOD9275707 Si02
#       7
#     8   8   4   8   8   8   8
#     4   9  20  39  61  86 116 159 205 257 307 360
#     4  10  20  39  64  83 124 159 207 257 312 365
#     4   8  18  38  60  86 112 164 204 260 306 340
#     4  10  22  37  58  90 127 166 199 250 308 367
#     4  10  22  37  58  88 122 160 201 252 314 371
#     4   9  18  37  61  87 123 159 206 252 299 363
#     4  10  21  36  59  90 121 158 208 245 314 370
#
# _framework density 22.781229
#
# number of rings (size 3 to 8) (size 9 to 14) (size 15 to 20)
#    0.000    2.462    0.000    0.923    2.154    7.385 
#    0.000   13.846    0.000    0.000    0.000    0.000 
#    0.000    0.000    0.000    0.000    0.000    0.000 
#
# Total GULP energy -144925.070409 kJ/mol
# GULP energy per Si atom -5574.041170 kJ/mol
# Density = 2.272938 g / cm^3
# Si number density = 22.781229 Si / 1000 Ang^3
#
#
#
# Elastic Constant Matrix: (Units=GPa)
#
#
# Indices 1 2 3 4 5 6 
#
# 1 58.0408 -2.9930 6.3757 -0.0001 -1.2259 0.0000
# 2 -2.9930 46.0178 21.4565 -0.0003 7.8044 -0.0001
# 3 6.3757 21.4565 119.3581 0.0000 18.1736 -0.0001
# 4 -0.0001 -0.0003 0.0000 15.7176 0.0000 0.2581
# 5 -1.2259 7.8044 18.1736 0.0000 35.8799 0.0000
# 6 0.0000 -0.0001 -0.0001 0.2581 0.0000 1.7855
#
#
#
# Elastic Compliance Matrix: (Units=1/GPa)
#
#
# Indices 1 2 3 4 5 6 
#
# 1 0.017483 0.001615 -0.001367 0.000000 0.000938 0.000000
# 2 0.001615 0.024223 -0.003952 0.000000 -0.003212 0.000001
# 3 -0.001367 -0.003952 0.009793 0.000000 -0.004147 0.000000
# 4 0.000000 0.000000 0.000000 0.063774 0.000000 -0.009218
# 5 0.000938 -0.003212 -0.004147 0.000000 0.030702 0.000000
# 6 0.000000 0.000001 0.000000 -0.009218 0.000000 0.561391
#
#
# Mechanical properties :
#
#
# Convention : Reuss Voigt Hill
#
# Bulk Modulus (GPa) = 22.67996 30.34389 26.51192
# Shear Modulus (GPa) = 6.85429 23.91511 15.38470
#
# Velocity S-wave (km/s) = 1.73646 3.24353 2.60152
# Velocity P-wave (km/s) = 3.74133 5.23220 4.54827
#
# Compressibility (1/GPa) = 0.04409180
#
# Stress axis : x y z
#
# Youngs Moduli (GPa) = 57.19986 41.28295 102.11329
#
# Poissons Ratio (x) = -0.06669 0.13960
# Poissons Ratio (y) = -0.09240 0.40352
# Poissons Ratio (z) = 0.07820 0.16314
#
# Static dielectric constant tensor:
#      x y z
#    x 1.880270 0.000000 0.029940 
#    y 0.000000 1.834140 0.000000 
#    z 0.029940 0.000000 1.964610 
# 
# From -- ./inp_files/281233.got.cif
#   From: 2010.05.17/outbox.cif.g08.bks.cpg/sg15_141_cif.got.tgz:281233.got - 2010.06.03 18:47:42.
