data_PCOD9275690
_publ_section_title
;
Structure prediction by ZEFSAII (Michael W. Deem and Ramdas Pophale) SiO2 
 PCOD9275690
Probable space group: C 2/C
;
_chemical_formula_sum "Si O2"
_cell_formula_units_Z 56
_cell_length_a 29.856566
_cell_length_b 10.975434
_cell_length_c 8.796951
_cell_angle_alpha 90.000000
_cell_angle_beta 103.034398
_cell_angle_gamma 90.000000
_cell_volume 2808.389795
_symmetry_space_group_name_H-M "C 2/C"
_symmetry_group_IT_number 15
_symmetry_cell_setting 'monoclinic'
loop_
_space_group_symop_operation_xyz
x,y,z
-x,y,1/2-z
-x,-y,-z
x,-y,1/2+z
1/2+x,1/2+y,z
1/2-x,1/2+y,1/2-z
1/2-x,1/2-y,-z
1/2+x,1/2-y,1/2+z
loop_
_atom_site_type_symbol
_atom_site_label
_atom_site_fract_x
_atom_site_fract_y
_atom_site_fract_z
Si Si1 0.164192 0.001677 0.032378
Si Si2 0.672283 0.909679 0.874267
Si Si3 0.625357 0.335240 0.756350
Si Si4 0.215049 0.151956 0.828847
Si Si5 0.446591 0.146042 0.745288
Si Si6 0.785639 0.330641 0.130433
Si Si7 0.894046 0.492150 0.942026
O O1 0.138545 0.104426 0.107689
O O2 0.184219 0.904887 0.168234
O O3 0.204390 0.062922 0.961664
O O4 0.130571 0.936421 0.889952
O O5 0.641675 0.928888 0.699192
O O6 0.702320 0.033271 0.916325
O O7 0.700438 0.786852 0.868342
O O8 0.635888 0.910713 0.984421
O O9 0.576295 0.272855 0.724775
O O10 0.666085 0.239305 0.824632
O O11 0.264064 0.157828 0.782736
O O12 0.500000 0.150110 0.750000
O O13 0.417850 0.098539 0.577964
O O14 0.433120 0.054940 0.870952
O O15 0.750000 0.250000 0.000000
#
# Coordination Sequence:
#
# PCOD9275690 Si02
#       7
#     8   8   8   8   8   8   8
#     4  10  24  42  60  87 123 174 215 262 311 368
#     4  11  23  40  64  95 130 172 213 261 320 381
#     4  11  22  45  61  88 126 166 209 265 321 376
#     4  11  24  38  60  88 127 171 222 257 304 370
#     4  11  22  40  66  95 127 162 206 266 333 392
#     4  12  24  39  63  92 133 166 214 261 323 376
#     4  10  20  39  63  96 129 159 206 261 331 388
#
# _framework density 19.940252000000001
#
# number of rings (size 3 to 8) (size 9 to 14) (size 15 to 20)
#    0.000    1.143    4.286    3.000    4.000    1.714 
#    0.000    0.714    0.000    0.000    0.000    0.000 
#    0.000    0.000    0.000    0.000    0.000    0.000 
#
# Total GULP energy -156618.809565 kJ/mol
# GULP energy per Si atom -5593.528913 kJ/mol
# Density = 1.989487 g / cm^3
# Si number density = 19.940252 Si / 1000 Ang^3
#
#
#
# Elastic Constant Matrix: (Units=GPa)
#
#
# Indices 1 2 3 4 5 6 
#
# 1 118.4065 19.4901 18.1332 0.0000 -14.4354 0.0000
# 2 19.4901 71.0321 2.3637 0.0000 -6.9430 0.0000
# 3 18.1332 2.3637 73.5180 0.0000 -20.6109 0.0000
# 4 0.0000 0.0000 0.0000 21.0999 0.0000 -0.2734
# 5 -14.4354 -6.9430 -20.6109 0.0000 27.6153 0.0000
# 6 0.0000 0.0000 0.0000 -0.2734 0.0000 27.9176
#
#
#
# Elastic Compliance Matrix: (Units=1/GPa)
#
#
# Indices 1 2 3 4 5 6 
#
# 1 0.009423 -0.002210 -0.001300 0.000000 0.003400 0.000000
# 2 -0.002210 0.014980 0.001006 0.000000 0.003362 0.000000
# 3 -0.001300 0.001006 0.017415 0.000000 0.012571 0.000000
# 4 0.000000 0.000000 0.000000 0.047400 0.000000 0.000464
# 5 0.003400 0.003362 0.012571 0.000000 0.048216 0.000000
# 6 0.000000 0.000000 0.000000 0.000464 0.000000 0.035824
#
#
# Mechanical properties :
#
#
# Convention : Reuss Voigt Hill
#
# Bulk Modulus (GPa) = 27.16707 38.10340 32.63523
# Shear Modulus (GPa) = 26.24188 30.19120 28.21654
#
# Velocity S-wave (km/s) = 3.63164 3.89534 3.76580
# Velocity P-wave (km/s) = 5.58918 6.27550 5.94225
#
# Compressibility (1/GPa) = 0.03680927
#
# Stress axis : x y z
#
# Youngs Moduli (GPa) = 106.12562 66.75730 57.42278
#
# Poissons Ratio (x) = 0.14753 0.07465
# Poissons Ratio (y) = 0.23453 -0.05776
# Poissons Ratio (z) = 0.13796 -0.06715
#
# Static dielectric constant tensor:
#      x y z
#    x 1.667270 0.000000 -0.002690 
#    y 0.000000 1.724160 0.000000 
#    z -0.002690 0.000000 1.734330 
# 
# From -- ./inp_files/69163.got.cif
#   From: 2010.05.17/outbox.cif.g08.bks.cpg/sg15_35_cif.got.tgz:69163.got - 2010.06.03 18:47:42.
