data_PCOD9275784
_publ_section_title
;
Structure prediction by ZEFSAII (Michael W. Deem and Ramdas Pophale) SiO2 
 PCOD9275784
Probable space group: C 2/C
;
_chemical_formula_sum "Si O2"
_cell_formula_units_Z 48
_cell_length_a 14.100976
_cell_length_b 30.419783
_cell_length_c 10.745237
_cell_angle_alpha 90.000000
_cell_angle_beta 26.672029
_cell_angle_gamma 90.000000
_cell_volume 2068.970326
_symmetry_space_group_name_H-M "C 2/C"
_symmetry_group_IT_number 15
_symmetry_cell_setting 'monoclinic'
loop_
_space_group_symop_operation_xyz
x,y,z
-x,y,1/2-z
-x,-y,-z
x,-y,1/2+z
1/2+x,1/2+y,z
1/2-x,1/2+y,1/2-z
1/2-x,1/2-y,-z
1/2+x,1/2-y,1/2+z
loop_
_atom_site_type_symbol
_atom_site_label
_atom_site_fract_x
_atom_site_fract_y
_atom_site_fract_z
Si Si1 0.424518 0.257132 0.724056
Si Si2 0.955532 0.295437 0.929033
Si Si3 0.896919 0.940395 0.008213
Si Si4 0.222595 0.125928 0.413786
Si Si5 0.943566 0.846160 0.027933
Si Si6 0.331816 0.533355 0.062349
O O1 0.473091 0.231691 0.535668
O O2 0.460346 0.309654 0.673085
O O3 0.656807 0.245104 0.525682
O O4 0.117844 0.336196 0.737094
O O5 0.000000 0.268913 0.750000
O O6 0.726717 0.318051 0.196484
O O7 0.000000 0.937449 0.750000
O O8 0.051357 0.953479 0.944038
O O9 0.828163 0.890253 0.114850
O O10 0.747126 0.983613 0.176597
O O11 0.306539 0.075736 0.314083
O O12 0.143618 0.137421 0.369443
O O13 0.000000 0.126080 0.750000
O O14 0.500000 0.530317 0.750000
#
# Coordination Sequence:
#
# PCOD9275784 Si02
#       6
#     8   8   8   8   8   8
#     4  12  25  45  64  91 130 171 210 270 328 383
#     4  12  26  43  67  96 124 173 224 265 320 385
#     4   9  17  32  60  92 122 164 208 255 315 386
#     4  10  20  39  64  94 131 163 208 272 320 370
#     4  11  23  41  65  94 128 165 220 262 325 384
#     4   8  16  32  58  91 124 161 207 254 316 377
#
# _framework density 23.199946000000001
#
# number of rings (size 3 to 8) (size 9 to 14) (size 15 to 20)
#    0.000    1.667    3.333    1.500    0.000    1.333 
#    0.000    0.833    0.000    0.000    0.000    0.000 
#    0.000    0.000    0.000    0.000    0.000    0.000 
#
# Total GULP energy -133606.162426 kJ/mol
# GULP energy per Si atom -5566.923434 kJ/mol
# Density = 2.314714 g / cm^3
# Si number density = 23.199946 Si / 1000 Ang^3
#
#
#
# Elastic Constant Matrix: (Units=GPa)
#
#
# Indices 1 2 3 4 5 6 
#
# 1 122.8896 36.7744 41.9565 0.0000 30.4082 0.0000
# 2 36.7744 171.2757 50.5734 0.0000 12.0054 0.0000
# 3 41.9565 50.5734 88.0918 0.0000 11.6416 0.0000
# 4 0.0000 0.0000 0.0000 13.5755 0.0000 -2.8422
# 5 30.4082 12.0054 11.6416 0.0000 42.4142 0.0000
# 6 0.0000 0.0000 0.0000 -2.8422 0.0000 22.9213
#
#
#
# Elastic Compliance Matrix: (Units=1/GPa)
#
#
# Indices 1 2 3 4 5 6 
#
# 1 0.011474 -0.000766 -0.004116 0.000000 -0.006880 0.000000
# 2 -0.000766 0.007116 -0.003659 0.000000 -0.000461 0.000000
# 3 -0.004116 -0.003659 0.015447 0.000000 -0.000253 0.000000
# 4 0.000000 0.000000 0.000000 0.075625 0.000000 0.009377
# 5 -0.006880 -0.000461 -0.000253 0.000000 0.028709 0.000000
# 6 0.000000 0.000000 0.000000 0.009377 0.000000 0.044790
#
#
# Mechanical properties :
#
#
# Convention : Reuss Voigt Hill
#
# Bulk Modulus (GPa) = 58.98481 71.20730 65.09606
# Shear Modulus (GPa) = 24.28419 32.64572 28.46496
#
# Velocity S-wave (km/s) = 3.23884 3.75526 3.50657
# Velocity P-wave (km/s) = 6.28224 7.04004 6.67191
#
# Compressibility (1/GPa) = 0.01695352
#
# Stress axis : x y z
#
# Youngs Moduli (GPa) = 87.15190 140.53129 64.73958
#
# Poissons Ratio (x) = 0.10765 0.26647
# Poissons Ratio (y) = 0.06676 0.23691
# Poissons Ratio (z) = 0.35872 0.51427
#
# Static dielectric constant tensor:
#      x y z
#    x 2.070710 0.000000 0.003540 
#    y 0.000000 1.919650 0.000000 
#    z 0.003540 0.000000 1.917320 
# 
# From -- ./inp_files/101590.got.cif
#   From: 2010.05.17/outbox.cif.g08.bks.cpg/sg15_51_cif.got.tgz:101590.got - 2010.06.03 18:47:42.
