data_PCOD9275300
_publ_section_title
;
Structure prediction by ZEFSAII (Michael W. Deem and Ramdas Pophale) SiO2 
 PCOD9275300
Probable space group: C 2/C
;
_chemical_formula_sum "Si O2"
_cell_formula_units_Z 60
_cell_length_a 14.730339
_cell_length_b 7.550976
_cell_length_c 23.253589
_cell_angle_alpha 90.000000
_cell_angle_beta 81.142944
_cell_angle_gamma 90.000000
_cell_volume 2555.618214
_symmetry_space_group_name_H-M "C 2/C"
_symmetry_group_IT_number 15
_symmetry_cell_setting 'monoclinic'
loop_
_space_group_symop_operation_xyz
x,y,z
-x,y,1/2-z
-x,-y,-z
x,-y,1/2+z
1/2+x,1/2+y,z
1/2-x,1/2+y,1/2-z
1/2-x,1/2-y,-z
1/2+x,1/2-y,1/2+z
loop_
_atom_site_type_symbol
_atom_site_label
_atom_site_fract_x
_atom_site_fract_y
_atom_site_fract_z
Si Si1 0.854468 0.954384 0.165980
Si Si2 0.500000 0.007069 0.750000
Si Si3 0.967543 0.376115 0.553107
Si Si4 0.951384 0.930398 0.390613
Si Si5 0.346424 0.542991 0.296984
Si Si6 0.352851 0.267719 0.967411
Si Si7 0.361252 0.024287 0.168474
Si Si8 0.849475 0.564178 0.851496
O O1 0.861524 0.037090 0.228085
O O2 0.861594 0.740219 0.176189
O O3 0.756187 0.996003 0.146925
O O4 0.944448 0.005647 0.121080
O O5 0.422228 0.951628 0.806494
O O6 0.574468 0.067220 0.790770
O O7 0.908814 0.238970 0.521118
O O8 0.905139 0.491030 0.601808
O O9 0.000000 0.500000 0.500000
O O10 0.039753 0.261583 0.581989
O O11 0.918259 0.935230 0.328106
O O12 0.881365 0.052584 0.432473
O O13 0.243892 0.469551 0.317442
O O14 0.352874 0.742295 0.320273
O O15 0.369087 0.115962 0.916377
O O16 0.250000 0.250000 0.000000
#
# Coordination Sequence:
#
# PCOD9275300 Si02
#       8
#     8   4   8   8   8   8   8   8
#     4  10  20  39  60  94 124 162 209 262 322 399
#     4  12  22  40  60  92 130 166 206 260 352 388
#     4  11  23  42  62  91 129 170 220 274 323 387
#     4  10  22  37  69  93 123 174 224 263 337 391
#     4  10  20  39  59  93 125 159 207 268 316 395
#     4  11  22  43  67  90 131 175 223 276 326 396
#     4  10  23  39  61  87 128 167 204 262 335 389
#     4  10  23  37  61  92 124 168 207 269 329 390
#
# _framework density 23.477684
#
# number of rings (size 3 to 8) (size 9 to 14) (size 15 to 20)
#    0.000    1.600    1.333    4.800    7.467    0.000 
#    0.000    2.667    0.000    0.000    0.000    0.000 
#    0.000    0.000    0.000    0.000    0.000    0.000 
#
# Total GULP energy -167345.113442 kJ/mol
# GULP energy per Si atom -5578.170448 kJ/mol
# Density = 2.342425 g / cm^3
# Si number density = 23.477684 Si / 1000 Ang^3
#
#
#
# Elastic Constant Matrix: (Units=GPa)
#
#
# Indices 1 2 3 4 5 6 
#
# 1 106.4570 27.9471 26.0431 0.0000 -11.2989 0.0000
# 2 27.9471 46.8636 13.2375 0.0000 -12.6450 0.0000
# 3 26.0431 13.2375 147.1277 0.0000 -8.9386 0.0000
# 4 0.0000 0.0000 0.0000 32.3508 0.0000 3.4636
# 5 -11.2989 -12.6450 -8.9386 0.0000 58.1254 0.0000
# 6 0.0000 0.0000 0.0000 3.4636 0.0000 8.2079
#
#
#
# Elastic Compliance Matrix: (Units=1/GPa)
#
#
# Indices 1 2 3 4 5 6 
#
# 1 0.011452 -0.006252 -0.001425 0.000000 0.000647 0.000000
# 2 -0.006252 0.026541 -0.001014 0.000000 0.004403 0.000000
# 3 -0.001425 -0.001014 0.007177 0.000000 0.000606 0.000000
# 4 0.000000 0.000000 0.000000 0.032374 0.000000 -0.013661
# 5 0.000647 0.004403 0.000606 0.000000 0.018381 0.000000
# 6 0.000000 0.000000 0.000000 -0.013661 0.000000 0.127599
#
#
# Mechanical properties :
#
#
# Convention : Reuss Voigt Hill
#
# Bulk Modulus (GPa) = 35.98697 48.32262 42.15479
# Shear Modulus (GPa) = 19.98641 35.28488 27.63564
#
# Velocity S-wave (km/s) = 2.92086 3.88095 3.43462
# Velocity P-wave (km/s) = 5.17075 6.38039 5.80715
#
# Compressibility (1/GPa) = 0.02778784
#
# Stress axis : x y z
#
# Youngs Moduli (GPa) = 87.31975 37.67690 139.33112
#
# Poissons Ratio (x) = 0.23557 0.19859
# Poissons Ratio (y) = 0.54596 0.14125
# Poissons Ratio (z) = 0.12446 0.03820
#
# Static dielectric constant tensor:
#      x y z
#    x 1.889680 0.000000 -0.016570 
#    y 0.000000 1.958760 0.000000 
#    z -0.016570 0.000000 1.846550 
# 
# From -- ./inp_files/272729.got.cif
#   From: 2010.05.17/outbox.cif.g08.bks.cpg/sg15_137_cif.got.tgz:272729.got - 2010.06.03 18:47:42.
