data_PCOD9275155
_publ_section_title
;
Structure prediction by ZEFSAII (Michael W. Deem and Ramdas Pophale) SiO2 
 PCOD9275155
Probable space group: C 2/C
;
_chemical_formula_sum "Si O2"
_cell_formula_units_Z 36
_cell_length_a 16.340470
_cell_length_b 9.498150
_cell_length_c 17.173896
_cell_angle_alpha 90.000000
_cell_angle_beta 143.671835
_cell_angle_gamma 90.000000
_cell_volume 1579.044062
_symmetry_space_group_name_H-M "C 2/C"
_symmetry_group_IT_number 15
_symmetry_cell_setting 'monoclinic'
loop_
_space_group_symop_operation_xyz
x,y,z
-x,y,1/2-z
-x,-y,-z
x,-y,1/2+z
1/2+x,1/2+y,z
1/2-x,1/2+y,1/2-z
1/2-x,1/2-y,-z
1/2+x,1/2-y,1/2+z
loop_
_atom_site_type_symbol
_atom_site_label
_atom_site_fract_x
_atom_site_fract_y
_atom_site_fract_z
Si Si1 0.400002 0.181667 0.601504
Si Si2 0.241524 0.415982 0.967533
Si Si3 0.691334 0.775766 0.782903
Si Si4 0.000000 0.908826 0.250000
Si Si5 0.000025 0.332937 0.492434
O O1 0.500000 0.215592 0.750000
O O2 0.250000 0.250000 0.500000
O O3 0.461272 0.216807 0.564451
O O4 0.375072 0.010928 0.583015
O O5 0.385638 0.480288 0.108165
O O6 0.250000 0.250000 0.000000
O O7 0.213562 0.414268 0.853900
O O8 0.588391 0.680732 0.755785
O O9 0.616242 0.786434 0.643201
O O10 0.845576 0.716786 0.893888
O O11 0.000000 0.500000 0.500000
#
# Coordination Sequence:
#
# PCOD9275155 Si02
#       5
#     8   8   8   4   8
#     4  12  28  49  70  99 148 193 226 283 360 424
#     4  10  22  40  74 101 132 179 235 281 343 409
#     4  11  23  42  69 106 135 174 234 295 336 411
#     4  10  20  38  70 108 134 170 230 290 352 398
#     4  12  25  45  70 103 138 181 234 290 345 406
#
# _framework density 22.798604000000001
#
# number of rings (size 3 to 8) (size 9 to 14) (size 15 to 20)
#    0.000    0.889    2.222    5.333   10.889    0.000 
#    4.000    2.222    0.000    0.000    0.000    0.000 
#    0.000    0.000    0.000    0.000    0.000    0.000 
#
# Total GULP energy -100556.392373 kJ/mol
# GULP energy per Si atom -5586.466243 kJ/mol
# Density = 2.274671 g / cm^3
# Si number density = 22.798604 Si / 1000 Ang^3
#
#
#
# Elastic Constant Matrix: (Units=GPa)
#
#
# Indices 1 2 3 4 5 6 
#
# 1 146.8102 14.9454 68.2482 0.0000 -16.0656 0.0000
# 2 14.9454 51.8800 22.6761 0.0000 3.5210 0.0000
# 3 68.2482 22.6761 241.6894 0.0000 -20.5534 0.0000
# 4 0.0000 0.0000 0.0000 17.6072 0.0000 6.3021
# 5 -16.0656 3.5210 -20.5534 0.0000 49.1952 0.0000
# 6 0.0000 0.0000 0.0000 6.3021 0.0000 30.2812
#
#
#
# Elastic Compliance Matrix: (Units=1/GPa)
#
#
# Indices 1 2 3 4 5 6 
#
# 1 0.008104 -0.001604 -0.001973 0.000000 0.001937 0.000000
# 2 -0.001604 0.020673 -0.001718 0.000000 -0.002721 0.000000
# 3 -0.001973 -0.001718 0.004989 0.000000 0.001563 0.000000
# 4 0.000000 0.000000 0.000000 0.061366 0.000000 -0.012771
# 5 0.001937 -0.002721 0.001563 0.000000 0.021807 0.000000
# 6 0.000000 0.000000 0.000000 -0.012771 0.000000 0.035682
#
#
# Mechanical properties :
#
#
# Convention : Reuss Voigt Hill
#
# Bulk Modulus (GPa) = 43.14850 72.45769 57.80310
# Shear Modulus (GPa) = 29.25066 41.71738 35.48402
#
# Velocity S-wave (km/s) = 3.58579 4.28228 3.94942
# Velocity P-wave (km/s) = 6.00923 7.50341 6.79750
#
# Compressibility (1/GPa) = 0.02317577
#
# Stress axis : x y z
#
# Youngs Moduli (GPa) = 123.39540 48.37256 200.44646
#
# Poissons Ratio (x) = 0.07757 0.39553
# Poissons Ratio (y) = 0.19787 0.34441
# Poissons Ratio (z) = 0.24349 0.08311
#
# Static dielectric constant tensor:
#      x y z
#    x 1.632170 0.000000 -0.290580 
#    y 0.000000 2.000290 0.000000 
#    z -0.290580 0.000000 1.547790 
# 
# From -- ./inp_files/203722.got.cif
#   From: 2010.05.17/outbox.cif.g08.bks.cpg/sg15_102_cif.got.tgz:203722.got - 2010.06.03 18:47:42.
