data_PCOD9275114
_publ_section_title
;
Structure prediction by ZEFSAII (Michael W. Deem and Ramdas Pophale) SiO2 
 PCOD9275114
Probable space group: C 2/C
;
_chemical_formula_sum "Si O2"
_cell_formula_units_Z 56
_cell_length_a 9.286909
_cell_length_b 30.657648
_cell_length_c 9.753873
_cell_angle_alpha 90.000000
_cell_angle_beta 63.048998
_cell_angle_gamma 90.000000
_cell_volume 2475.466430
_symmetry_space_group_name_H-M "C 2/C"
_symmetry_group_IT_number 15
_symmetry_cell_setting 'monoclinic'
loop_
_space_group_symop_operation_xyz
x,y,z
-x,y,1/2-z
-x,-y,-z
x,-y,1/2+z
1/2+x,1/2+y,z
1/2-x,1/2+y,1/2-z
1/2-x,1/2-y,-z
1/2+x,1/2-y,1/2+z
loop_
_atom_site_type_symbol
_atom_site_label
_atom_site_fract_x
_atom_site_fract_y
_atom_site_fract_z
Si Si1 0.152330 0.303485 0.383287
Si Si2 0.424215 0.588849 0.133447
Si Si3 0.762078 0.437158 0.426789
Si Si4 0.100242 0.747617 0.351032
Si Si5 0.563473 0.904068 0.415767
Si Si6 0.827399 0.466508 0.891569
Si Si7 0.192973 0.667717 0.165867
O O1 0.276409 0.287661 0.213242
O O2 0.091316 0.352557 0.383690
O O3 0.228431 0.310149 0.503237
O O4 0.016715 0.266272 0.474028
O O5 0.500000 0.591325 0.250000
O O6 0.303643 0.549000 0.161147
O O7 0.320066 0.630574 0.138999
O O8 0.584520 0.580863 0.976074
O O9 0.855102 0.430073 0.244106
O O10 0.765178 0.487264 0.473771
O O11 0.871261 0.411499 0.490399
O O12 0.202341 0.703760 0.279638
O O13 0.000000 0.751179 0.250000
O O14 0.641151 0.927217 0.514570
O O15 0.000000 0.474957 0.750000
O O16 0.000000 0.653824 0.250000
#
# Coordination Sequence:
#
# PCOD9275114 Si02
#       7
#     8   8   8   8   8   8   8
#     4  10  20  38  68  99 136 171 233 278 342 413
#     4  12  26  39  67 103 141 174 231 292 335 405
#     4  11  27  44  65 101 135 184 221 290 344 403
#     4   9  19  34  63 101 129 167 224 286 333 403
#     4  11  24  45  72  95 138 182 230 278 342 423
#     4  12  24  46  71  96 130 187 234 274 349 406
#     4   9  19  39  62 101 129 176 226 273 348 401
#
# _framework density 22.622
#
# number of rings (size 3 to 8) (size 9 to 14) (size 15 to 20)
#    0.000    1.714    2.857    3.857    8.000    2.857 
#    0.000    0.000    3.143    4.286    0.000    0.000 
#    0.000    0.000    0.000    0.000    0.000    0.000 
#
# Total GULP energy -156262.724778 kJ/mol
# GULP energy per Si atom -5580.811599 kJ/mol
# Density = 2.257051 g / cm^3
# Si number density = 22.622000 Si / 1000 Ang^3
#
#
#
# Elastic Constant Matrix: (Units=GPa)
#
#
# Indices 1 2 3 4 5 6 
#
# 1 108.6162 62.7479 28.7436 0.0000 -20.1635 0.0000
# 2 62.7479 146.3505 25.3889 0.0000 -26.8162 0.0000
# 3 28.7436 25.3889 58.7677 0.0000 -11.1761 0.0000
# 4 0.0000 0.0000 0.0000 67.8554 0.0000 -18.9289
# 5 -20.1635 -26.8162 -11.1761 0.0000 29.8612 0.0000
# 6 0.0000 0.0000 0.0000 -18.9289 0.0000 19.1730
#
#
#
# Elastic Compliance Matrix: (Units=1/GPa)
#
#
# Indices 1 2 3 4 5 6 
#
# 1 0.013498 -0.004426 -0.003997 0.000000 0.003644 0.000000
# 2 -0.004426 0.009930 -0.001074 0.000000 0.005526 0.000000
# 3 -0.003997 -0.001074 0.020174 0.000000 0.003887 0.000000
# 4 0.000000 0.000000 0.000000 0.020339 0.000000 0.020080
# 5 0.003644 0.005526 0.003887 0.000000 0.042366 0.000000
# 6 0.000000 0.000000 0.000000 0.020080 0.000000 0.071981
#
#
# Mechanical properties :
#
#
# Convention : Reuss Voigt Hill
#
# Bulk Modulus (GPa) = 40.63743 60.83280 50.73512
# Shear Modulus (GPa) = 24.33284 36.50153 30.41719
#
# Velocity S-wave (km/s) = 3.28323 4.02125 3.67084
# Velocity P-wave (km/s) = 5.68995 6.96491 6.35946
#
# Compressibility (1/GPa) = 0.02460785
#
# Stress axis : x y z
#
# Youngs Moduli (GPa) = 74.08597 100.70929 49.56820
#
# Poissons Ratio (x) = 0.44576 0.19811
# Poissons Ratio (y) = 0.32792 0.05323
# Poissons Ratio (z) = 0.29610 0.10816
#
# Static dielectric constant tensor:
#      x y z
#    x 1.901450 0.000000 -0.080500 
#    y 0.000000 1.857590 0.000000 
#    z -0.080500 0.000000 2.036330 
# 
# From -- ./inp_files/82473.got.cif
#   From: 2010.05.17/outbox.cif.g08.bks.cpg/sg15_42_cif.got.tgz:82473.got - 2010.06.03 18:47:42.
