data_PCOD9275533
_publ_section_title
;
Structure prediction by ZEFSAII (Michael W. Deem and Ramdas Pophale) SiO2 
 PCOD9275533
Probable space group: C 2/C
;
_chemical_formula_sum "Si O2"
_cell_formula_units_Z 44
_cell_length_a 24.575687
_cell_length_b 9.842236
_cell_length_c 13.763890
_cell_angle_alpha 90.000000
_cell_angle_beta 151.066229
_cell_angle_gamma 90.000000
_cell_volume 1610.664115
_symmetry_space_group_name_H-M "C 2/C"
_symmetry_group_IT_number 15
_symmetry_cell_setting 'monoclinic'
loop_
_space_group_symop_operation_xyz
x,y,z
-x,y,1/2-z
-x,-y,-z
x,-y,1/2+z
1/2+x,1/2+y,z
1/2-x,1/2+y,1/2-z
1/2-x,1/2-y,-z
1/2+x,1/2-y,1/2+z
loop_
_atom_site_type_symbol
_atom_site_label
_atom_site_fract_x
_atom_site_fract_y
_atom_site_fract_z
Si Si1 0.060240 0.477905 0.250145
Si Si2 0.500000 0.522084 0.250000
Si Si3 0.725588 0.455008 0.789522
Si Si4 0.064777 0.222224 0.731828
Si Si5 0.220026 0.244983 0.789013
Si Si6 0.379010 0.290975 0.717343
O O1 0.187734 0.495748 0.487485
O O2 0.010632 0.627019 0.154538
O O3 0.059952 0.354910 0.174795
O O4 0.000000 0.420607 0.250000
O O5 0.509828 0.405381 0.350807
O O6 0.577528 0.625090 0.307685
O O7 0.781197 0.359267 0.795557
O O8 0.709013 0.601539 0.715702
O O9 0.627560 0.381564 0.696877
O O10 0.123562 0.224312 0.719076
O O11 0.169003 0.221729 0.972944
O O12 0.250000 0.250000 0.500000
#
# Coordination Sequence:
#
# PCOD9275533 Si02
#       6
#     8   4   8   8   8   8
#     4  10  20  39  62  92 123 166 212 267 332 389
#     4  12  20  40  66  94 128 170 232 262 320 408
#     4  10  22  39  61  92 129 172 218 270 331 383
#     4  10  22  39  65  88 128 177 219 268 323 401
#     4  10  22  40  60  93 128 176 221 266 330 386
#     4  10  22  38  63  93 127 170 218 270 331 390
#
# _framework density 27.317924000000001
#
# number of rings (size 3 to 8) (size 9 to 14) (size 15 to 20)
#    0.000    1.818    3.636    0.000    5.091    1.455 
#    0.000    3.636    0.000    0.000    0.000    0.000 
#    0.000    0.000    0.000    0.000    0.000    0.000 
#
# Total GULP energy -122787.141533 kJ/mol
# GULP energy per Si atom -5581.233706 kJ/mol
# Density = 2.725575 g / cm^3
# Si number density = 27.317924 Si / 1000 Ang^3
#
#
#
# Elastic Constant Matrix: (Units=GPa)
#
#
# Indices 1 2 3 4 5 6 
#
# 1 190.9104 90.0163 29.9043 0.0000 -2.3542 0.0000
# 2 90.0163 227.2700 20.9640 0.0000 -16.4078 0.0000
# 3 29.9043 20.9640 71.2122 0.0000 -25.3571 0.0000
# 4 0.0000 0.0000 0.0000 4.4774 0.0000 5.4667
# 5 -2.3542 -16.4078 -25.3571 0.0000 33.3431 0.0000
# 6 0.0000 0.0000 0.0000 5.4667 0.0000 63.4303
#
#
#
# Elastic Compliance Matrix: (Units=1/GPa)
#
#
# Indices 1 2 3 4 5 6 
#
# 1 0.006997 -0.002707 -0.003346 0.000000 -0.003382 0.000000
# 2 -0.002707 0.005638 0.000544 0.000000 0.002997 0.000000
# 3 -0.003346 0.000544 0.020980 0.000000 0.015986 0.000000
# 4 0.000000 0.000000 0.000000 0.249610 0.000000 -0.021512
# 5 -0.003382 0.002997 0.015986 0.000000 0.043385 0.000000
# 6 0.000000 0.000000 0.000000 -0.021512 0.000000 0.017619
#
#
# Mechanical properties :
#
#
# Convention : Reuss Voigt Hill
#
# Bulk Modulus (GPa) = 44.25177 85.68462 64.96820
# Shear Modulus (GPa) = 13.78253 43.48401 28.63327
#
# Velocity S-wave (km/s) = 2.24860 3.99403 3.24103
# Velocity P-wave (km/s) = 4.79328 7.25972 6.15139
#
# Compressibility (1/GPa) = 0.02259797
#
# Stress axis : x y z
#
# Youngs Moduli (GPa) = 142.92438 177.35666 47.66504
#
# Poissons Ratio (x) = 0.48007 0.15947
# Poissons Ratio (y) = 0.38687 -0.02593
# Poissons Ratio (z) = 0.47818 -0.09649
#
# Static dielectric constant tensor:
#      x y z
#    x 2.061040 0.000000 0.047660 
#    y 0.000000 2.179030 0.000000 
#    z 0.047660 0.000000 2.593160 
# 
# From -- ./inp_files/176749.got.cif
#   From: 2010.05.17/outbox.cif.g08.bks.cpg/sg15_89_cif.got.tgz:176749.got - 2010.06.03 18:47:42.
