data_PCOD9275803
_publ_section_title
;
Structure prediction by ZEFSAII (Michael W. Deem and Ramdas Pophale) SiO2 
 PCOD9275803
Probable space group: C 2/C
;
_chemical_formula_sum "Si O2"
_cell_formula_units_Z 48
_cell_length_a 22.485540
_cell_length_b 10.922139
_cell_length_c 14.712606
_cell_angle_alpha 90.000000
_cell_angle_beta 32.995984
_cell_angle_gamma 90.000000
_cell_volume 1967.716432
_symmetry_space_group_name_H-M "C 2/C"
_symmetry_group_IT_number 15
_symmetry_cell_setting 'monoclinic'
loop_
_space_group_symop_operation_xyz
x,y,z
-x,y,1/2-z
-x,-y,-z
x,-y,1/2+z
1/2+x,1/2+y,z
1/2-x,1/2+y,1/2-z
1/2-x,1/2-y,-z
1/2+x,1/2-y,1/2+z
loop_
_atom_site_type_symbol
_atom_site_label
_atom_site_fract_x
_atom_site_fract_y
_atom_site_fract_z
Si Si1 0.321182 0.626458 0.907167
Si Si2 0.119484 0.246389 0.100574
Si Si3 0.338120 0.009090 0.526625
Si Si4 0.488792 0.225969 0.403261
Si Si5 0.336923 0.218561 0.754738
Si Si6 0.328501 0.950295 0.748086
O O1 0.268949 0.552245 0.890234
O O2 0.444765 0.667897 0.732561
O O3 0.250000 0.750000 0.000000
O O4 0.281842 0.565590 0.051763
O O5 0.152946 0.217638 0.161292
O O6 0.000000 0.192872 0.250000
O O7 0.116120 0.392688 0.086568
O O8 0.206583 0.203653 0.913816
O O9 0.420744 0.124901 0.432045
O O10 0.313266 0.962632 0.660161
O O11 0.401036 0.274412 0.588952
O O12 0.584289 0.152426 0.334960
O O13 0.381164 0.080753 0.708135
#
# Coordination Sequence:
#
# PCOD9275803 Si02
#       6
#     8   8   8   8   8   8
#     4  10  23  40  66 102 142 168 231 287 336 404
#     4  11  22  37  66  92 122 174 224 265 335 397
#     4  11  22  39  70  96 130 183 224 277 347 400
#     4  10  22  41  68 102 133 174 227 284 330 412
#     4  10  21  38  62  94 134 163 222 277 321 400
#     4  10  20  39  64  96 133 174 222 277 334 409
#
# _framework density 24.39376
#
# number of rings (size 3 to 8) (size 9 to 14) (size 15 to 20)
#    0.000    1.667    1.667    4.000    2.333    8.000 
#    0.000    0.833   14.667    0.000    0.000    0.000 
#    0.000    0.000    0.000    0.000    0.000    0.000 
#
# Total GULP energy -134075.961165 kJ/mol
# GULP energy per Si atom -5586.498382 kJ/mol
# Density = 2.433824 g / cm^3
# Si number density = 24.393760 Si / 1000 Ang^3
#
#
#
# Elastic Constant Matrix: (Units=GPa)
#
#
# Indices 1 2 3 4 5 6 
#
# 1 116.4024 35.9485 70.7380 0.0000 20.8760 0.0000
# 2 35.9485 52.9077 26.4136 0.0000 -0.5497 0.0000
# 3 70.7380 26.4136 229.3101 0.0000 -1.3568 0.0000
# 4 0.0000 0.0000 0.0000 41.7475 0.0000 -6.3086
# 5 20.8760 -0.5497 -1.3568 0.0000 28.8686 0.0000
# 6 0.0000 0.0000 0.0000 -6.3086 0.0000 27.2828
#
#
#
# Elastic Compliance Matrix: (Units=1/GPa)
#
#
# Indices 1 2 3 4 5 6 
#
# 1 0.015862 -0.008937 -0.003934 0.000000 -0.011826 0.000000
# 2 -0.008937 0.025091 -0.000092 0.000000 0.006936 0.000000
# 3 -0.003934 -0.000092 0.005603 0.000000 0.003106 0.000000
# 4 0.000000 0.000000 0.000000 0.024821 0.000000 0.005739
# 5 -0.011826 0.006936 0.003106 0.000000 0.043469 0.000000
# 6 0.000000 0.000000 0.000000 0.005739 0.000000 0.037980
#
#
# Mechanical properties :
#
#
# Convention : Reuss Voigt Hill
#
# Bulk Modulus (GPa) = 48.47041 73.86893 61.16967
# Shear Modulus (GPa) = 26.93538 37.28112 32.10825
#
# Velocity S-wave (km/s) = 3.32654 3.91360 3.63195
# Velocity P-wave (km/s) = 5.88792 7.12526 6.53594
#
# Compressibility (1/GPa) = 0.02063114
#
# Stress axis : x y z
#
# Youngs Moduli (GPa) = 63.04310 39.85487 178.46245
#
# Poissons Ratio (x) = 0.35617 0.70203
# Poissons Ratio (y) = 0.56339 0.01648
# Poissons Ratio (z) = 0.24800 0.00368
#
# Static dielectric constant tensor:
#      x y z
#    x 1.994470 0.000000 -0.051300 
#    y 0.000000 2.001230 0.000000 
#    z -0.051300 0.000000 1.993590 
# 
# From -- ./inp_files/173614.got.cif
#   From: 2010.05.17/outbox.cif.g08.bks.cpg/sg15_87_cif.got.tgz:173614.got - 2010.06.03 18:47:42.
