data_PCOD9275938
_publ_section_title
;
Structure prediction by ZEFSAII (Michael W. Deem and Ramdas Pophale) SiO2 
 PCOD9275938
Probable space group: C 2/C
;
_chemical_formula_sum "Si O2"
_cell_formula_units_Z 40
_cell_length_a 15.384946
_cell_length_b 10.249370
_cell_length_c 9.844784
_cell_angle_alpha 90.000000
_cell_angle_beta 116.230514
_cell_angle_gamma 90.000000
_cell_volume 1392.524905
_symmetry_space_group_name_H-M "C 2/C"
_symmetry_group_IT_number 15
_symmetry_cell_setting 'monoclinic'
loop_
_space_group_symop_operation_xyz
x,y,z
-x,y,1/2-z
-x,-y,-z
x,-y,1/2+z
1/2+x,1/2+y,z
1/2-x,1/2+y,1/2-z
1/2-x,1/2-y,-z
1/2+x,1/2-y,1/2+z
loop_
_atom_site_type_symbol
_atom_site_label
_atom_site_fract_x
_atom_site_fract_y
_atom_site_fract_z
Si Si1 0.344131 0.474159 0.545866
Si Si2 0.636363 0.004968 0.472387
Si Si3 0.108878 0.157677 0.138586
Si Si4 0.500000 0.819260 0.250000
Si Si5 0.175299 0.739057 0.182055
Si Si6 0.000000 0.292972 0.750000
O O1 0.241804 0.545563 0.498005
O O2 0.409836 0.571251 0.505396
O O3 0.377088 0.429223 0.715868
O O4 0.325630 0.346546 0.439006
O O5 0.594527 0.904462 0.332526
O O6 0.651787 0.909172 0.611685
O O7 0.556954 0.118101 0.403316
O O8 0.018577 0.240988 0.126288
O O9 0.211624 0.232416 0.194188
O O10 0.092089 0.769094 0.235210
#
# Coordination Sequence:
#
# PCOD9275938 Si02
#       6
#     8   8   8   4   8   4
#     4  11  22  44  66  91 128 172 201 268 311 381
#     4  10  20  39  66  89 119 168 213 252 317 369
#     4  11  23  41  66  93 129 166 214 250 322 369
#     4  11  20  39  64  92 120 171 208 247 302 398
#     4  11  21  42  62  93 127 166 205 265 318 370
#     4  11  22  35  66  96 120 157 218 273 298 364
#
# _framework density 28.724799000000001
#
# number of rings (size 3 to 8) (size 9 to 14) (size 15 to 20)
#    0.000    1.200    6.000    1.800    0.000    1.600 
#    3.600    1.000    0.000    0.000    0.000    0.000 
#    0.000    0.000    0.000    0.000    0.000    0.000 
#
# Total GULP energy -112132.150550 kJ/mol
# GULP energy per Si atom -5606.607527 kJ/mol
# Density = 2.865942 g / cm^3
# Si number density = 28.724799 Si / 1000 Ang^3
#
#
#
# Elastic Constant Matrix: (Units=GPa)
#
#
# Indices 1 2 3 4 5 6 
#
# 1 207.5927 51.6661 45.8621 0.0000 -11.9426 0.0000
# 2 51.6661 74.9657 22.7208 0.0000 -24.4086 0.0000
# 3 45.8621 22.7208 95.1645 0.0000 -16.6059 0.0000
# 4 0.0000 0.0000 0.0000 43.0223 0.0000 -16.3518
# 5 -11.9426 -24.4086 -16.6059 0.0000 62.5339 0.0000
# 6 0.0000 0.0000 0.0000 -16.3518 0.0000 52.1206
#
#
#
# Elastic Compliance Matrix: (Units=1/GPa)
#
#
# Indices 1 2 3 4 5 6 
#
# 1 0.006233 -0.003924 -0.002230 0.000000 -0.000933 0.000000
# 2 -0.003924 0.018462 -0.001458 0.000000 0.006070 0.000000
# 3 -0.002230 -0.001458 0.012328 0.000000 0.002279 0.000000
# 4 0.000000 0.000000 0.000000 0.026391 0.000000 0.008279
# 5 -0.000933 0.006070 0.002279 0.000000 0.018787 0.000000
# 6 0.000000 0.000000 0.000000 0.008279 0.000000 0.021784
#
#
# Mechanical properties :
#
#
# Convention : Reuss Voigt Hill
#
# Bulk Modulus (GPa) = 45.87053 68.69119 57.28086
# Shear Modulus (GPa) = 39.53409 48.70031 44.11720
#
# Velocity S-wave (km/s) = 3.71388 4.12200 3.92325
# Velocity P-wave (km/s) = 5.86466 6.82788 6.36452
#
# Compressibility (1/GPa) = 0.02180049
#
# Stress axis : x y z
#
# Youngs Moduli (GPa) = 160.44865 54.16648 81.11357
#
# Poissons Ratio (x) = 0.21252 0.18086
# Poissons Ratio (y) = 0.62952 0.11825
# Poissons Ratio (z) = 0.35775 0.07896
#
# Static dielectric constant tensor:
#      x y z
#    x 2.080840 0.000000 0.006850 
#    y 0.000000 2.325300 0.000000 
#    z 0.006850 0.000000 2.253550 
# 
# From -- ./inp_files/38003.got.cif
#   From: 2010.05.17/outbox.cif.g08.bks.cpg/sg15_20_cif.got.tgz:38003.got - 2010.06.03 18:47:42.
