data_PCOD9275305
_publ_section_title
;
Structure prediction by ZEFSAII (Michael W. Deem and Ramdas Pophale) SiO2 
 PCOD9275305
Probable space group: C 2/C
;
_chemical_formula_sum "Si O2"
_cell_formula_units_Z 36
_cell_length_a 24.986181
_cell_length_b 8.719925
_cell_length_c 9.360298
_cell_angle_alpha 90.000000
_cell_angle_beta 134.497130
_cell_angle_gamma 90.000000
_cell_volume 1454.674203
_symmetry_space_group_name_H-M "C 2/C"
_symmetry_group_IT_number 15
_symmetry_cell_setting 'monoclinic'
loop_
_space_group_symop_operation_xyz
x,y,z
-x,y,1/2-z
-x,-y,-z
x,-y,1/2+z
1/2+x,1/2+y,z
1/2-x,1/2+y,1/2-z
1/2-x,1/2-y,-z
1/2+x,1/2-y,1/2+z
loop_
_atom_site_type_symbol
_atom_site_label
_atom_site_fract_x
_atom_site_fract_y
_atom_site_fract_z
Si Si1 0.917401 0.573575 0.069920
Si Si2 0.574159 0.508765 0.307533
Si Si3 0.671772 0.606549 0.746666
Si Si4 0.500000 0.788022 0.250000
Si Si5 0.179261 0.545035 0.328066
O O1 0.878192 0.567348 0.148711
O O2 0.000000 0.644715 0.250000
O O3 0.943527 0.402550 0.069180
O O4 0.851926 0.593096 0.830328
O O5 0.500000 0.449847 0.250000
O O6 0.642108 0.532335 0.545523
O O7 0.602497 0.416222 0.226751
O O8 0.545027 0.682118 0.224353
O O9 0.691561 0.787445 0.775194
O O10 0.741355 0.516896 0.945577
#
# Coordination Sequence:
#
# PCOD9275305 Si02
#       5
#     8   8   8   4   8
#     4  10  20  39  60  79 114 149 185 230 276 323
#     4  10  20  39  60  79 114 149 185 230 276 323
#     4  11  22  38  57  85 116 145 183 232 278 329
#     4   8  20  36  62  78 116 140 190 232 276 312
#     4  11  22  38  57  85 116 145 183 232 278 329
#
# _framework density 24.747810000000001
#
# number of rings (size 3 to 8) (size 9 to 14) (size 15 to 20)
#    1.333    0.444    2.222    2.667    0.000    0.889 
#    4.000    1.111    0.000    0.000    0.000    0.000 
#    0.000    0.000    0.000    0.000    0.000    0.000 
#
# Total GULP energy -100229.149345 kJ/mol
# GULP energy per Si atom -5568.286075 kJ/mol
# Density = 2.469148 g / cm^3
# Si number density = 24.747810 Si / 1000 Ang^3
#
#
#
# Elastic Constant Matrix: (Units=GPa)
#
#
# Indices 1 2 3 4 5 6 
#
# 1 70.4919 -18.5310 -0.9411 0.0000 -1.1209 0.0000
# 2 -18.5310 66.7583 5.3962 0.0000 4.0987 0.0000
# 3 -0.9411 5.3962 163.2427 0.0000 11.2351 0.0000
# 4 0.0000 0.0000 0.0000 -57.0372 0.0000 -14.1879
# 5 -1.1209 4.0987 11.2351 0.0000 40.6931 0.0000
# 6 0.0000 0.0000 0.0000 -14.1879 0.0000 14.6456
#
#
#
# Elastic Compliance Matrix: (Units=1/GPa)
#
#
# Indices 1 2 3 4 5 6 
#
# 1 0.015303 0.004252 -0.000053 0.000000 0.000008 0.000000
# 2 0.004252 0.016280 -0.000417 0.000000 -0.001408 0.000000
# 3 -0.000053 -0.000417 0.006255 0.000000 -0.001687 0.000000
# 4 0.000000 0.000000 0.000000 -0.014128 0.000000 -0.013686
# 5 0.000008 -0.001408 -0.001687 0.000000 0.025182 0.000000
# 6 0.000000 0.000000 0.000000 -0.013686 0.000000 0.055021
#
#
# Mechanical properties :
#
#
# Convention : Reuss Voigt Hill
#
# Bulk Modulus (GPa) = 22.02528 30.26012 26.14270
# Shear Modulus (GPa) = 44.84981 20.63156 32.74068
#
# Velocity S-wave (km/s) = 4.26170 2.89047 3.64122
# Velocity P-wave (km/s) = 5.75633 4.83670 5.31644
#
# Compressibility (1/GPa) = 0.04540237
#
# Stress axis : x y z
#
# Youngs Moduli (GPa) = 65.34607 61.42613 159.86194
#
# Poissons Ratio (x) = -0.26116 0.00845
# Poissons Ratio (y) = -0.27783 0.06662
# Poissons Ratio (z) = 0.00345 0.02560
#
# Static dielectric constant tensor:
#      x y z
#    x 1.938370 0.000000 0.071030 
#    y 0.000000 2.001000 0.000000 
#    z 0.071030 0.000000 2.074360 
# 
# From -- ./inp_files/60759.got.cif
#   From: 2010.05.17/outbox.cif.g08.bks.cpg/sg15_31_cif.got.tgz:60759.got - 2010.06.03 18:47:42.
