data_PCOD9275036
_publ_section_title
;
Structure prediction by ZEFSAII (Michael W. Deem and Ramdas Pophale) SiO2 
 PCOD9275036
Probable space group: C 2/C
;
_chemical_formula_sum "Si O2"
_cell_formula_units_Z 40
_cell_length_a 8.040537
_cell_length_b 23.792292
_cell_length_c 14.040621
_cell_angle_alpha 90.000000
_cell_angle_beta 141.849705
_cell_angle_gamma 90.000000
_cell_volume 1659.219444
_symmetry_space_group_name_H-M "C 2/C"
_symmetry_group_IT_number 15
_symmetry_cell_setting 'monoclinic'
loop_
_space_group_symop_operation_xyz
x,y,z
-x,y,1/2-z
-x,-y,-z
x,-y,1/2+z
1/2+x,1/2+y,z
1/2-x,1/2+y,1/2-z
1/2-x,1/2-y,-z
1/2+x,1/2-y,1/2+z
loop_
_atom_site_type_symbol
_atom_site_label
_atom_site_fract_x
_atom_site_fract_y
_atom_site_fract_z
Si Si1 0.494883 0.114002 0.359482
Si Si2 0.583227 0.803641 0.057694
Si Si3 0.782273 0.506532 0.571749
Si Si4 0.874254 0.120100 0.060689
Si Si5 0.690341 0.305634 0.139043
O O1 0.500000 0.127891 0.250000
O O2 0.640973 0.158491 0.491807
O O3 0.174944 0.115917 0.234889
O O4 0.622234 0.052399 0.428979
O O5 0.790693 0.806238 0.238304
O O6 0.309628 0.832033 0.976539
O O7 0.509695 0.741368 0.991345
O O8 0.500000 0.500000 0.500000
O O9 0.758754 0.558972 0.490900
O O10 0.000000 0.520603 0.750000
O O11 0.874382 0.137253 0.947838
O O12 0.000000 0.290039 0.250000
#
# Coordination Sequence:
#
# PCOD9275036 Si02
#       5
#     8   8   8   8   8
#     4  11  23  41  66  96 139 182 226 281 343 409
#     4  11  22  40  68 104 134 181 233 284 338 413
#     4  11  21  41  69  98 137 181 226 280 347 406
#     4  11  21  41  69 100 138 179 230 282 339 408
#     4  10  20  38  68 101 137 177 229 282 340 410
#
# _framework density 24.107721000000002
#
# number of rings (size 3 to 8) (size 9 to 14) (size 15 to 20)
#    0.000    1.200    4.000    7.200    0.000    0.800 
#    0.000    5.000    0.000    0.000    0.000    0.000 
#    0.000    0.000    0.000    0.000    0.000    0.000 
#
# Total GULP energy -112012.588689 kJ/mol
# GULP energy per Si atom -5600.629434 kJ/mol
# Density = 2.405285 g / cm^3
# Si number density = 24.107721 Si / 1000 Ang^3
#
#
#
# Elastic Constant Matrix: (Units=GPa)
#
#
# Indices 1 2 3 4 5 6 
#
# 1 75.8527 36.9563 37.4081 0.0000 -6.1515 0.0000
# 2 36.9563 133.8086 67.8852 0.0000 -11.0086 0.0000
# 3 37.4081 67.8852 158.2558 0.0000 -0.9871 0.0000
# 4 0.0000 0.0000 0.0000 -57.3514 0.0000 16.5210
# 5 -6.1515 -11.0086 -0.9871 0.0000 56.3188 0.0000
# 6 0.0000 0.0000 0.0000 16.5210 0.0000 39.5761
#
#
#
# Elastic Compliance Matrix: (Units=1/GPa)
#
#
# Indices 1 2 3 4 5 6 
#
# 1 0.015982 -0.003081 -0.002449 0.000000 0.001100 0.000000
# 2 -0.003081 0.010331 -0.003693 0.000000 0.001618 0.000000
# 3 -0.002449 -0.003693 0.008477 0.000000 -0.000841 0.000000
# 4 0.000000 0.000000 0.000000 -0.015565 0.000000 0.006497
# 5 0.001100 0.001618 -0.000841 0.000000 0.018178 0.000000
# 6 0.000000 0.000000 0.000000 0.006497 0.000000 0.022555
#
#
# Mechanical properties :
#
#
# Convention : Reuss Voigt Hill
#
# Bulk Modulus (GPa) = 61.18899 72.49071 66.83985
# Shear Modulus (GPa) = 59.62853 22.75319 41.19086
#
# Velocity S-wave (km/s) = 4.97874 3.07549 4.13803
# Velocity P-wave (km/s) = 7.64769 6.53806 7.11454
#
# Compressibility (1/GPa) = 0.01634281
#
# Stress axis : x y z
#
# Youngs Moduli (GPa) = 62.57197 96.79531 117.96811
#
# Poissons Ratio (x) = 0.29821 0.28894
# Poissons Ratio (y) = 0.19277 0.43569
# Poissons Ratio (z) = 0.15326 0.35749
#
# Static dielectric constant tensor:
#      x y z
#    x 2.081230 0.000000 -0.026960 
#    y 0.000000 1.882550 0.000000 
#    z -0.026960 0.000000 1.863930 
# 
# From -- ./inp_files/137632.got.cif
#   From: 2010.05.17/outbox.cif.g08.bks.cpg/sg15_69_cif.got.tgz:137632.got - 2010.06.03 18:47:42.
