data_PCOD9275355
_publ_section_title
;
Structure prediction by ZEFSAII (Michael W. Deem and Ramdas Pophale) SiO2 
 PCOD9275355
Probable space group: C 2/C
;
_chemical_formula_sum "Si O2"
_cell_formula_units_Z 56
_cell_length_a 11.671421
_cell_length_b 25.956383
_cell_length_c 11.995066
_cell_angle_alpha 90.000000
_cell_angle_beta 122.087010
_cell_angle_gamma 90.000000
_cell_volume 3078.776909
_symmetry_space_group_name_H-M "C 2/C"
_symmetry_group_IT_number 15
_symmetry_cell_setting 'monoclinic'
loop_
_space_group_symop_operation_xyz
x,y,z
-x,y,1/2-z
-x,-y,-z
x,-y,1/2+z
1/2+x,1/2+y,z
1/2-x,1/2+y,1/2-z
1/2-x,1/2-y,-z
1/2+x,1/2-y,1/2+z
loop_
_atom_site_type_symbol
_atom_site_label
_atom_site_fract_x
_atom_site_fract_y
_atom_site_fract_z
Si Si1 0.642101 0.428389 0.415873
Si Si2 0.228794 0.564664 0.761051
Si Si3 0.500000 0.479968 0.750000
Si Si4 0.960852 0.128127 0.973775
Si Si5 0.246222 0.189434 0.516002
Si Si6 0.350532 0.050503 0.219218
Si Si7 0.000000 0.366925 0.250000
Si Si8 0.817451 0.887649 0.718179
O O1 0.712458 0.424447 0.332003
O O2 0.545678 0.479078 0.366765
O O3 0.550027 0.380719 0.409169
O O4 0.753465 0.437320 0.566033
O O5 0.346511 0.583021 0.907908
O O6 0.191977 0.505043 0.754960
O O7 0.094327 0.597245 0.720458
O O8 0.375904 0.441380 0.701101
O O9 0.865421 0.176814 0.946254
O O10 0.068321 0.125791 0.130326
O O11 0.250000 0.250000 0.500000
O O12 0.392050 0.167755 0.628074
O O13 0.201097 0.155968 0.384182
O O14 0.500000 0.048627 0.250000
O O15 0.320775 0.095453 0.293196
#
# Coordination Sequence:
#
# PCOD9275355 Si02
#       8
#     8   8   4   8   8   8   4   8
#     4  11  22  34  59  89 131 167 200 246 289 362
#     4  11  20  37  57  90 133 166 194 244 295 373
#     4  12  18  33  58  90 122 159 196 238 292 352
#     4  10  20  39  60  90 116 155 211 245 308 349
#     4  11  25  43  67  86 115 155 208 269 313 347
#     4  11  24  35  54  88 132 175 202 224 303 376
#     4  10  26  37  60  94 122 157 206 242 310 380
#     4  11  22  37  61  88 122 157 204 254 290 360
#
# _framework density 18.189042000000001
#
# number of rings (size 3 to 8) (size 9 to 14) (size 15 to 20)
#    0.000    1.143    5.000    0.857    6.000    2.857 
#    0.000    0.000    0.000    4.286    0.000    0.000 
#    0.000    0.000    0.000    0.000    0.000    0.000 
#
# Total GULP energy -156065.738959 kJ/mol
# GULP energy per Si atom -5573.776391 kJ/mol
# Density = 1.814764 g / cm^3
# Si number density = 18.189042 Si / 1000 Ang^3
#
#
#
# Elastic Constant Matrix: (Units=GPa)
#
#
# Indices 1 2 3 4 5 6 
#
# 1 154.7676 70.1861 50.6152 0.0000 -3.2902 0.0000
# 2 70.1861 113.2638 41.0404 0.0000 -4.2251 0.0000
# 3 50.6152 41.0404 83.2268 0.0000 0.1569 0.0000
# 4 0.0000 0.0000 0.0000 13.7277 0.0000 -0.6729
# 5 -3.2902 -4.2251 0.1569 0.0000 27.0667 0.0000
# 6 0.0000 0.0000 0.0000 -0.6729 0.0000 18.0854
#
#
#
# Elastic Compliance Matrix: (Units=1/GPa)
#
#
# Indices 1 2 3 4 5 6 
#
# 1 0.009810 -0.004748 -0.003626 0.000000 0.000472 0.000000
# 2 -0.004748 0.013127 -0.003589 0.000000 0.001493 0.000000
# 3 -0.003626 -0.003589 0.015992 0.000000 -0.001094 0.000000
# 4 0.000000 0.000000 0.000000 0.072979 0.000000 0.002715
# 5 0.000472 0.001493 -0.001094 0.000000 0.037243 0.000000
# 6 0.000000 0.000000 0.000000 0.002715 0.000000 0.055394
#
#
# Mechanical properties :
#
#
# Convention : Reuss Voigt Hill
#
# Bulk Modulus (GPa) = 66.64454 74.99351 70.81902
# Shear Modulus (GPa) = 21.41598 24.40371 22.90985
#
# Velocity S-wave (km/s) = 3.43506 3.66686 3.55285
# Velocity P-wave (km/s) = 7.24240 7.69723 7.47328
#
# Compressibility (1/GPa) = 0.01500498
#
# Stress axis : x y z
#
# Youngs Moduli (GPa) = 101.93486 76.17956 62.53073
#
# Poissons Ratio (x) = 0.36167 0.22673
# Poissons Ratio (y) = 0.48395 0.22440
# Poissons Ratio (z) = 0.36961 0.27338
#
# Static dielectric constant tensor:
#      x y z
#    x 1.644800 0.000000 -0.068540 
#    y 0.000000 1.588740 0.000000 
#    z -0.068540 0.000000 1.574530 
# 
# From -- ./inp_files/90729.got.cif
#   From: 2010.05.17/outbox.cif.g08.bks.cpg/sg15_46_cif.got.tgz:90729.got - 2010.06.03 18:47:42.
