data_PCOD9275567
_publ_section_title
;
Structure prediction by ZEFSAII (Michael W. Deem and Ramdas Pophale) SiO2 
 PCOD9275567
Probable space group: C 2/C
;
_chemical_formula_sum "Si O2"
_cell_formula_units_Z 56
_cell_length_a 5.483012
_cell_length_b 31.112034
_cell_length_c 17.504004
_cell_angle_alpha 90.000000
_cell_angle_beta 127.167033
_cell_angle_gamma 90.000000
_cell_volume 2379.450409
_symmetry_space_group_name_H-M "C 2/C"
_symmetry_group_IT_number 15
_symmetry_cell_setting 'monoclinic'
loop_
_space_group_symop_operation_xyz
x,y,z
-x,y,1/2-z
-x,-y,-z
x,-y,1/2+z
1/2+x,1/2+y,z
1/2-x,1/2+y,1/2-z
1/2-x,1/2-y,-z
1/2+x,1/2-y,1/2+z
loop_
_atom_site_type_symbol
_atom_site_label
_atom_site_fract_x
_atom_site_fract_y
_atom_site_fract_z
Si Si1 0.294632 0.138783 0.993694
Si Si2 0.735758 0.017180 0.866051
Si Si3 0.476948 0.746306 0.385833
Si Si4 0.485573 0.721327 0.594859
Si Si5 0.934193 0.158784 0.148301
Si Si6 0.265308 0.566125 0.634310
Si Si7 0.239297 0.082136 0.134490
O O1 0.587522 0.168683 0.061573
O O2 0.299522 0.107891 0.068111
O O3 0.016778 0.172067 0.934387
O O4 0.314120 0.110785 0.920928
O O5 0.500000 0.016793 0.750000
O O6 0.538491 0.041389 0.893813
O O7 0.039704 0.040155 0.892492
O O8 0.811453 0.967414 0.895694
O O9 0.750000 0.750000 0.500000
O O10 0.188147 0.774187 0.357256
O O11 0.375585 0.696584 0.356102
O O12 0.674716 0.760765 0.350279
O O13 0.250000 0.750000 0.500000
O O14 0.000000 0.159055 0.250000
O O15 0.980272 0.110692 0.125543
O O16 0.500000 0.571219 0.750000
O O17 0.500000 0.083648 0.250000
#
# Coordination Sequence:
#
# PCOD9275567 Si02
#       7
#     8   8   8   8   8   8   8
#     4  12  25  40  69  95 136 173 219 283 329 397
#     4   9  22  44  68  90 135 174 222 278 333 393
#     4  10  20  39  63  83 123 165 210 250 314 380
#     4  10  20  39  64  87 119 166 208 258 319 377
#     4  12  25  40  63  99 138 177 217 274 334 406
#     4  10  24  46  67  95 125 177 226 281 333 387
#     4  11  24  40  64  98 136 179 218 271 336 408
#
# _framework density 23.534845000000001
#
# number of rings (size 3 to 8) (size 9 to 14) (size 15 to 20)
#    0.000    1.429    4.286    1.714    4.000    1.714 
#    0.000    1.429    0.000    0.000    0.000    0.000 
#    0.000    0.000    0.000    0.000    0.000    0.000 
#
# Total GULP energy -156404.408786 kJ/mol
# GULP energy per Si atom -5585.871742 kJ/mol
# Density = 2.348128 g / cm^3
# Si number density = 23.534845 Si / 1000 Ang^3
#
#
#
# Elastic Constant Matrix: (Units=GPa)
#
#
# Indices 1 2 3 4 5 6 
#
# 1 132.7533 33.3516 34.4574 0.0000 -24.1645 0.0000
# 2 33.3516 139.8818 47.6746 0.0000 -19.4077 0.0000
# 3 34.4574 47.6746 117.2590 0.0000 -9.6190 0.0000
# 4 0.0000 0.0000 0.0000 30.8875 0.0000 1.4818
# 5 -24.1645 -19.4077 -9.6190 0.0000 16.0868 0.0000
# 6 0.0000 0.0000 0.0000 1.4818 0.0000 45.7370
#
#
#
# Elastic Compliance Matrix: (Units=1/GPa)
#
#
# Indices 1 2 3 4 5 6 
#
# 1 0.010774 0.000234 -0.002009 0.000000 0.015265 0.000000
# 2 0.000234 0.009547 -0.003130 0.000000 0.009997 0.000000
# 3 -0.002009 -0.003130 0.010341 0.000000 -0.000611 0.000000
# 4 0.000000 0.000000 0.000000 0.032426 0.000000 -0.001051
# 5 0.015265 0.009997 -0.000611 0.000000 0.096789 0.000000
# 6 0.000000 0.000000 0.000000 -0.001051 0.000000 0.021898
#
#
# Mechanical properties :
#
#
# Convention : Reuss Voigt Hill
#
# Bulk Modulus (GPa) = 47.95800 68.98459 58.47129
# Shear Modulus (GPa) = 25.18427 36.83628 31.01028
#
# Velocity S-wave (km/s) = 3.27476 3.96053 3.63386
# Velocity P-wave (km/s) = 5.89241 7.09152 6.51959
#
# Compressibility (1/GPa) = 0.02085158
#
# Stress axis : x y z
#
# Youngs Moduli (GPa) = 92.81538 104.74410 96.70226
#
# Poissons Ratio (x) = -0.02448 0.19426
# Poissons Ratio (y) = -0.02170 0.30270
# Poissons Ratio (z) = 0.18645 0.32787
#
# Static dielectric constant tensor:
#      x y z
#    x 1.969930 0.000000 -0.038850 
#    y 0.000000 1.843880 0.000000 
#    z -0.038850 0.000000 1.910640 
# 
# From -- ./inp_files/186234.got.cif
#   From: 2010.05.17/outbox.cif.g08.bks.cpg/sg15_94_cif.got.tgz:186234.got - 2010.06.03 18:47:42.
