data_PCOD9275279
_publ_section_title
;
Structure prediction by ZEFSAII (Michael W. Deem and Ramdas Pophale) SiO2 
 PCOD9275279
Probable space group: C 2/C
;
_chemical_formula_sum "Si O2"
_cell_formula_units_Z 56
_cell_length_a 8.071406
_cell_length_b 16.414543
_cell_length_c 20.421680
_cell_angle_alpha 90.000000
_cell_angle_beta 95.159889
_cell_angle_gamma 90.000000
_cell_volume 2694.672231
_symmetry_space_group_name_H-M "C 2/C"
_symmetry_group_IT_number 15
_symmetry_cell_setting 'monoclinic'
loop_
_space_group_symop_operation_xyz
x,y,z
-x,y,1/2-z
-x,-y,-z
x,-y,1/2+z
1/2+x,1/2+y,z
1/2-x,1/2+y,1/2-z
1/2-x,1/2-y,-z
1/2+x,1/2-y,1/2+z
loop_
_atom_site_type_symbol
_atom_site_label
_atom_site_fract_x
_atom_site_fract_y
_atom_site_fract_z
Si Si1 0.659081 0.744191 0.403602
Si Si2 0.333635 0.383050 0.478603
Si Si3 0.311685 0.543024 0.549383
Si Si4 0.663729 0.704773 0.799087
Si Si5 0.173832 0.974221 0.296524
Si Si6 0.200461 0.705824 0.564684
Si Si7 0.306074 0.649022 0.228744
O O1 0.691482 0.679060 0.462204
O O2 0.753304 0.830423 0.417297
O O3 0.462426 0.760651 0.405238
O O4 0.708789 0.699720 0.338831
O O5 0.262472 0.469206 0.500661
O O6 0.525012 0.409312 0.472111
O O7 0.352555 0.515699 0.625608
O O8 0.170864 0.611329 0.547823
O O9 0.500000 0.700329 0.750000
O O10 0.752319 0.616373 0.790393
O O11 0.650869 0.708952 0.877009
O O12 0.741494 0.789911 0.780927
O O13 0.000000 0.970675 0.250000
O O14 0.265056 0.057249 0.277646
O O15 0.250000 0.750000 0.500000
O O16 0.500000 0.637849 0.250000
#
# Coordination Sequence:
#
# PCOD9275279 Si02
#       7
#     8   8   8   8   8   8   8
#     4  11  22  37  59  93 117 159 198 250 309 349
#     4  10  22  36  61  89 118 154 209 246 293 368
#     4  10  20  39  59  86 120 161 201 252 298 364
#     4  10  23  40  63  90 118 164 203 248 308 368
#     4   9  20  36  60  84 115 157 203 242 302 358
#     4  11  22  39  61  88 124 159 199 253 312 361
#     4  11  21  39  62  86 121 156 201 251 299 367
#
# _framework density 20.781749000000001
#
# number of rings (size 3 to 8) (size 9 to 14) (size 15 to 20)
#    0.000    1.714    4.286    0.000    6.000    0.571 
#    0.000    0.714    0.000    0.000    0.000    0.000 
#    0.000    0.000    0.000    0.000    0.000    0.000 
#
# Total GULP energy -155898.122158 kJ/mol
# GULP energy per Si atom -5567.790077 kJ/mol
# Density = 2.073445 g / cm^3
# Si number density = 20.781749 Si / 1000 Ang^3
#
#
#
# Elastic Constant Matrix: (Units=GPa)
#
#
# Indices 1 2 3 4 5 6 
#
# 1 12.8999 11.3954 -3.9131 0.0000 3.9665 0.0000
# 2 11.3954 164.6322 45.5720 0.0000 -1.3752 0.0000
# 3 -3.9131 45.5720 74.6613 0.0000 10.3521 0.0000
# 4 0.0000 0.0000 0.0000 35.6147 0.0000 -5.5535
# 5 3.9665 -1.3752 10.3521 0.0000 21.7609 0.0000
# 6 0.0000 0.0000 0.0000 -5.5535 0.0000 35.0700
#
#
#
# Elastic Compliance Matrix: (Units=1/GPa)
#
#
# Indices 1 2 3 4 5 6 
#
# 1 0.100986 -0.011683 0.016143 0.000000 -0.026825 0.000000
# 2 -0.011683 0.008820 -0.006818 0.000000 0.005930 0.000000
# 3 0.016143 -0.006818 0.020202 0.000000 -0.012984 0.000000
# 4 0.000000 0.000000 0.000000 0.028789 0.000000 0.004559
# 5 -0.026825 0.005930 -0.012984 0.000000 0.057395 0.000000
# 6 0.000000 0.000000 0.000000 0.004559 0.000000 0.029236
#
#
# Mechanical properties :
#
#
# Convention : Reuss Voigt Hill
#
# Bulk Modulus (GPa) = 7.98136 39.81133 23.89634
# Shear Modulus (GPa) = 17.12880 31.76506 24.44693
#
# Velocity S-wave (km/s) = 2.87404 3.91385 3.43354
# Velocity P-wave (km/s) = 3.85518 6.29466 5.21944
#
# Compressibility (1/GPa) = 0.12529200
#
# Stress axis : x y z
#
# Youngs Moduli (GPa) = 9.90241 113.38408 49.50087
#
# Poissons Ratio (x) = 1.32462 -0.79910
# Poissons Ratio (y) = 0.11569 0.33749
# Poissons Ratio (z) = -0.15986 0.77304
#
# Static dielectric constant tensor:
#      x y z
#    x 1.779490 0.000000 0.017510 
#    y 0.000000 1.830080 0.000000 
#    z 0.017510 0.000000 1.755410 
# 
# From -- ./inp_files/231547.got.cif
#   From: 2010.05.17/outbox.cif.g08.bks.cpg/sg15_116_cif.got.tgz:231547.got - 2010.06.03 18:47:42.
