data_PCOD9275394
_publ_section_title
;
Structure prediction by ZEFSAII (Michael W. Deem and Ramdas Pophale) SiO2 
 PCOD9275394
Probable space group: C 2/C
;
_chemical_formula_sum "Si O2"
_cell_formula_units_Z 52
_cell_length_a 13.229732
_cell_length_b 8.340781
_cell_length_c 25.028837
_cell_angle_alpha 90.000000
_cell_angle_beta 110.802523
_cell_angle_gamma 90.000000
_cell_volume 2581.795279
_symmetry_space_group_name_H-M "C 2/C"
_symmetry_group_IT_number 15
_symmetry_cell_setting 'monoclinic'
loop_
_space_group_symop_operation_xyz
x,y,z
-x,y,1/2-z
-x,-y,-z
x,-y,1/2+z
1/2+x,1/2+y,z
1/2-x,1/2+y,1/2-z
1/2-x,1/2-y,-z
1/2+x,1/2-y,1/2+z
loop_
_atom_site_type_symbol
_atom_site_label
_atom_site_fract_x
_atom_site_fract_y
_atom_site_fract_z
Si Si1 0.238996 0.005953 0.007661
Si Si2 0.165789 0.344662 0.771364
Si Si3 0.018764 0.198607 0.824087
Si Si4 0.792483 0.710965 0.698098
Si Si5 0.000000 0.090470 0.250000
Si Si6 0.065418 0.268248 0.951819
Si Si7 0.677260 0.797542 0.567838
O O1 0.259756 0.939900 0.951270
O O2 0.143139 0.136274 0.993681
O O3 0.209602 0.860378 0.040663
O O4 0.353798 0.084644 0.044106
O O5 0.131381 0.233550 0.814828
O O6 0.195504 0.519808 0.797427
O O7 0.254378 0.268027 0.749506
O O8 0.060368 0.338689 0.712415
O O9 0.031028 0.196285 0.888608
O O10 0.969980 0.033981 0.791683
O O11 0.715206 0.770839 0.635851
O O12 0.905874 0.798096 0.711024
O O13 0.953148 0.314863 0.959067
#
# Coordination Sequence:
#
# PCOD9275394 Si02
#       7
#     8   8   8   8   4   8   8
#     4  10  24  40  64  92 120 154 210 254 304 358
#     4  10  21  36  57  87 119 156 195 243 290 369
#     4  10  20  39  61  86 124 154 196 246 301 355
#     4  12  22  38  60  87 122 161 200 243 306 355
#     4  10  22  36  58  88 124 156 198 246 292 368
#     4  11  21  42  66  89 122 162 196 257 306 360
#     4  11  23  42  64  89 121 162 202 255 304 362
#
# _framework density 20.141023000000001
#
# number of rings (size 3 to 8) (size 9 to 14) (size 15 to 20)
#    0.000    1.538    1.538    5.538    0.000    0.000 
#    0.000    0.000    3.385    0.000    0.000    0.000 
#    0.000    0.000    0.000    0.000    0.000    0.000 
#
# Total GULP energy -145049.363363 kJ/mol
# GULP energy per Si atom -5578.821668 kJ/mol
# Density = 2.009518 g / cm^3
# Si number density = 20.141023 Si / 1000 Ang^3
#
#
#
# Elastic Constant Matrix: (Units=GPa)
#
#
# Indices 1 2 3 4 5 6 
#
# 1 86.1205 15.9573 11.9950 0.0000 15.5433 0.0000
# 2 15.9573 24.4237 -11.2875 0.0000 7.8294 0.0000
# 3 11.9950 -11.2875 25.3095 0.0000 5.2167 0.0000
# 4 0.0000 0.0000 0.0000 17.9758 0.0000 2.8143
# 5 15.5433 7.8294 5.2167 0.0000 32.9160 0.0000
# 6 0.0000 0.0000 0.0000 2.8143 0.0000 27.1851
#
#
#
# Elastic Compliance Matrix: (Units=1/GPa)
#
#
# Indices 1 2 3 4 5 6 
#
# 1 0.017579 -0.018654 -0.016390 0.000000 -0.001267 0.000000
# 2 -0.018654 0.081712 0.049076 0.000000 -0.018405 0.000000
# 3 -0.016390 0.049076 0.072339 0.000000 -0.015398 0.000000
# 4 0.000000 0.000000 0.000000 0.056547 0.000000 -0.005854
# 5 -0.001267 -0.018405 -0.015398 0.000000 0.037797 0.000000
# 6 0.000000 0.000000 0.000000 -0.005854 0.000000 0.037391
#
#
# Mechanical properties :
#
#
# Convention : Reuss Voigt Hill
#
# Bulk Modulus (GPa) = 5.00762 18.79816 11.90289
# Shear Modulus (GPa) = 14.62563 23.56131 19.09347
#
# Velocity S-wave (km/s) = 2.69766 3.42397 3.08228
# Velocity P-wave (km/s) = 3.49211 4.99850 4.31160
#
# Compressibility (1/GPa) = 0.19969557
#
# Stress axis : x y z
#
# Youngs Moduli (GPa) = 56.88457 12.23808 13.82376
#
# Poissons Ratio (x) = 0.22829 0.22657
# Poissons Ratio (y) = 1.06113 -0.67842
# Poissons Ratio (z) = 0.93232 -0.60060
#
# Static dielectric constant tensor:
#      x y z
#    x 1.772360 0.000000 -0.005490 
#    y 0.000000 1.707120 0.000000 
#    z -0.005490 0.000000 1.689300 
# 
# From -- ./inp_files/294889.got.cif
#   From: 2010.05.17/outbox.cif.g08.bks.cpg/sg15_148_cif.got.tgz:294889.got - 2010.06.03 18:47:42.
