data_PCOD9275346
_publ_section_title
;
Structure prediction by ZEFSAII (Michael W. Deem and Ramdas Pophale) SiO2 
 PCOD9275346
Probable space group: C 2/C
;
_chemical_formula_sum "Si O2"
_cell_formula_units_Z 60
_cell_length_a 26.703906
_cell_length_b 13.066561
_cell_length_c 12.185729
_cell_angle_alpha 90.000000
_cell_angle_beta 46.335585
_cell_angle_gamma 90.000000
_cell_volume 3075.840191
_symmetry_space_group_name_H-M "C 2/C"
_symmetry_group_IT_number 15
_symmetry_cell_setting 'monoclinic'
loop_
_space_group_symop_operation_xyz
x,y,z
-x,y,1/2-z
-x,-y,-z
x,-y,1/2+z
1/2+x,1/2+y,z
1/2-x,1/2+y,1/2-z
1/2-x,1/2-y,-z
1/2+x,1/2-y,1/2+z
loop_
_atom_site_type_symbol
_atom_site_label
_atom_site_fract_x
_atom_site_fract_y
_atom_site_fract_z
Si Si1 0.000000 0.179940 0.250000
Si Si2 0.949181 0.782121 0.601731
Si Si3 0.819873 0.899259 0.749452
Si Si4 0.383920 0.509233 0.456113
Si Si5 0.763544 0.468198 0.432520
Si Si6 0.815921 0.677958 0.427163
Si Si7 0.949704 0.812875 0.236869
Si Si8 0.833818 0.681868 0.653490
O O1 0.018766 0.244189 0.329917
O O2 0.064219 0.104668 0.123722
O O3 0.884350 0.857150 0.723774
O O4 0.911970 0.696357 0.582608
O O5 0.005036 0.836240 0.438999
O O6 0.854538 0.985375 0.622088
O O7 0.804936 0.798773 0.698892
O O8 0.753015 0.927572 0.920080
O O9 0.313707 0.514867 0.493932
O O10 0.423080 0.411932 0.343449
O O11 0.805615 0.573382 0.375859
O O12 0.796904 0.387075 0.299911
O O13 0.750000 0.750000 0.500000
O O14 0.885180 0.742958 0.300928
O O15 0.822434 0.648024 0.546457
O O16 0.000000 0.759638 0.250000
#
# Coordination Sequence:
#
# PCOD9275346 Si02
#       8
#     4   8   8   8   8   8   8   8
#     4  12  24  36  62 108 132 172 224 270 346 418
#     4  10  23  40  65  91 132 175 216 263 338 396
#     4  10  20  39  60  88 129 176 206 265 338 387
#     4  12  21  35  62  98 132 162 216 277 334 394
#     4  12  24  38  63  99 132 173 223 271 333 396
#     4  12  24  41  68 102 131 171 233 274 328 407
#     4  12  20  42  67  88 129 176 211 274 337 389
#     4  10  22  45  63  90 137 177 214 272 335 396
#
# _framework density 19.506865000000001
#
# number of rings (size 3 to 8) (size 9 to 14) (size 15 to 20)
#    0.800    0.000    7.333    1.200    1.867    2.133 
#    0.000    3.333    1.467    0.000    0.000    0.000 
#    0.000    0.000    0.000    0.000    0.000    0.000 
#
# Total GULP energy -167129.592564 kJ/mol
# GULP energy per Si atom -5570.986419 kJ/mol
# Density = 1.946247 g / cm^3
# Si number density = 19.506865 Si / 1000 Ang^3
#
#
#
# Elastic Constant Matrix: (Units=GPa)
#
#
# Indices 1 2 3 4 5 6 
#
# 1 103.0313 16.8300 15.5039 0.0000 2.4935 0.0000
# 2 16.8300 23.4119 19.9259 0.0000 -15.2096 0.0000
# 3 15.5039 19.9259 81.9891 0.0000 3.9276 0.0000
# 4 0.0000 0.0000 0.0000 25.9634 0.0000 -1.0033
# 5 2.4935 -15.2096 3.9276 0.0000 33.0747 0.0000
# 6 0.0000 0.0000 0.0000 -1.0033 0.0000 23.8232
#
#
#
# Elastic Compliance Matrix: (Units=1/GPa)
#
#
# Indices 1 2 3 4 5 6 
#
# 1 0.012231 -0.016028 0.001991 0.000000 -0.008529 0.000000
# 2 -0.016028 0.115126 -0.027700 0.000000 0.057439 0.000000
# 3 0.001991 -0.027700 0.019279 0.000000 -0.015178 0.000000
# 4 0.000000 0.000000 0.000000 0.038579 0.000000 0.001625
# 5 -0.008529 0.057439 -0.015178 0.000000 0.059094 0.000000
# 6 0.000000 0.000000 0.000000 0.001625 0.000000 0.042044
#
#
# Mechanical properties :
#
#
# Convention : Reuss Voigt Hill
#
# Bulk Modulus (GPa) = 15.83204 34.77242 25.30223
# Shear Modulus (GPa) = 12.79162 26.98376 19.88769
#
# Velocity S-wave (km/s) = 2.56354 3.72330 3.19646
# Velocity P-wave (km/s) = 4.11048 6.02896 5.15967
#
# Compressibility (1/GPa) = 0.06316306
#
# Stress axis : x y z
#
# Youngs Moduli (GPa) = 81.76166 8.68610 51.86909
#
# Poissons Ratio (x) = 0.13922 -0.10327
# Poissons Ratio (y) = 1.31044 1.43678
# Poissons Ratio (z) = -0.16279 0.24061
#
# Static dielectric constant tensor:
#      x y z
#    x 1.739440 0.000000 0.044080 
#    y 0.000000 1.706450 0.000000 
#    z 0.044080 0.000000 1.781960 
# 
# From -- ./inp_files/123137.got.cif
#   From: 2010.05.17/outbox.cif.g08.bks.cpg/sg15_62_cif.got.tgz:123137.got - 2010.06.03 18:47:42.
