data_PCOD9275790
_publ_section_title
;
Structure prediction by ZEFSAII (Michael W. Deem and Ramdas Pophale) SiO2 
 PCOD9275790
Probable space group: C 2/C
;
_chemical_formula_sum "Si O2"
_cell_formula_units_Z 56
_cell_length_a 17.058890
_cell_length_b 16.616624
_cell_length_c 11.130844
_cell_angle_alpha 90.000000
_cell_angle_beta 64.279138
_cell_angle_gamma 90.000000
_cell_volume 2842.545555
_symmetry_space_group_name_H-M "C 2/C"
_symmetry_group_IT_number 15
_symmetry_cell_setting 'monoclinic'
loop_
_space_group_symop_operation_xyz
x,y,z
-x,y,1/2-z
-x,-y,-z
x,-y,1/2+z
1/2+x,1/2+y,z
1/2-x,1/2+y,1/2-z
1/2-x,1/2-y,-z
1/2+x,1/2-y,1/2+z
loop_
_atom_site_type_symbol
_atom_site_label
_atom_site_fract_x
_atom_site_fract_y
_atom_site_fract_z
Si Si1 0.759236 0.880764 0.764765
Si Si2 0.053830 0.368815 0.488856
Si Si3 0.829254 0.458832 0.275275
Si Si4 0.000000 0.469098 0.750000
Si Si5 0.706311 0.663338 0.999532
Si Si6 0.339544 0.716006 0.996815
Si Si7 0.000000 0.800700 0.250000
Si Si8 0.907934 0.730769 0.074801
O O1 0.804138 0.881888 0.866163
O O2 0.817505 0.835111 0.628753
O O3 0.674120 0.824898 0.840269
O O4 0.727450 0.965374 0.731487
O O5 0.117302 0.424855 0.372715
O O6 0.112739 0.298886 0.503574
O O7 0.004397 0.416380 0.626589
O O8 0.979418 0.324339 0.460621
O O9 0.769112 0.391108 0.375687
O O10 0.908145 0.484844 0.310477
O O11 0.750000 0.750000 0.000000
O O12 0.622198 0.691593 0.980111
O O13 0.410951 0.665690 0.871186
O O14 0.250000 0.750000 0.000000
O O15 0.047133 0.755538 0.329810
#
# Coordination Sequence:
#
# PCOD9275790 Si02
#       8
#     8   8   8   4   8   8   4   8
#     4  11  22  41  61  97 138 179 220 282 348 415
#     4  11  22  38  61  99 129 178 223 276 354 410
#     4  12  25  38  63  98 137 184 220 284 365 418
#     4  12  23  36  60  98 149 162 216 297 354 420
#     4  10  24  43  62  93 140 187 230 271 343 429
#     4  11  21  38  68  96 134 176 229 279 334 411
#     4  10  21  38  66 104 121 168 238 283 330 406
#     4  10  20  39  64  94 135 172 229 284 328 418
#
# _framework density 19.700651000000001
#
# number of rings (size 3 to 8) (size 9 to 14) (size 15 to 20)
#    0.000    1.143    2.857    5.571    4.000    0.000 
#    0.000    2.143    0.000    3.429    3.714    0.000 
#    0.000    0.000    0.000    0.000    0.000    0.000 
#
# Total GULP energy -156025.437421 kJ/mol
# GULP energy per Si atom -5572.337051 kJ/mol
# Density = 1.965581 g / cm^3
# Si number density = 19.700651 Si / 1000 Ang^3
#
#
#
# Elastic Constant Matrix: (Units=GPa)
#
#
# Indices 1 2 3 4 5 6 
#
# 1 95.5130 33.8672 24.6281 0.0000 6.1934 0.0000
# 2 33.8672 56.9302 9.4316 0.0000 9.1795 0.0000
# 3 24.6281 9.4316 82.8723 0.0000 -1.2785 0.0000
# 4 0.0000 0.0000 0.0000 22.1449 0.0000 4.2093
# 5 6.1934 9.1795 -1.2785 0.0000 30.6637 0.0000
# 6 0.0000 0.0000 0.0000 4.2093 0.0000 20.2813
#
#
#
# Elastic Compliance Matrix: (Units=1/GPa)
#
#
# Indices 1 2 3 4 5 6 
#
# 1 0.014114 -0.007737 -0.003324 0.000000 -0.000673 0.000000
# 2 -0.007737 0.023102 -0.000413 0.000000 -0.005370 0.000000
# 3 -0.003324 -0.000413 0.013122 0.000000 0.001342 0.000000
# 4 0.000000 0.000000 0.000000 0.047012 0.000000 -0.009757
# 5 -0.000673 -0.005370 0.001342 0.000000 0.034411 0.000000
# 6 0.000000 0.000000 0.000000 -0.009757 0.000000 0.051331
#
#
# Mechanical properties :
#
#
# Convention : Reuss Voigt Hill
#
# Bulk Modulus (GPa) = 36.50893 41.24103 38.87498
# Shear Modulus (GPa) = 23.23724 25.77721 24.50723
#
# Velocity S-wave (km/s) = 3.43813 3.62117 3.53084
# Velocity P-wave (km/s) = 5.85945 6.20186 6.03308
#
# Compressibility (1/GPa) = 0.02739056
#
# Stress axis : x y z
#
# Youngs Moduli (GPa) = 70.85157 43.28562 76.20576
#
# Poissons Ratio (x) = 0.33490 0.25333
# Poissons Ratio (y) = 0.54818 0.03146
# Poissons Ratio (z) = 0.23553 0.01787
#
# Static dielectric constant tensor:
#      x y z
#    x 1.771120 0.000000 0.037010 
#    y 0.000000 1.754230 0.000000 
#    z 0.037010 0.000000 1.749430 
# 
# From -- ./inp_files/105659.got.cif
#   From: 2010.05.17/outbox.cif.g08.bks.cpg/sg15_53_cif.got.tgz:105659.got - 2010.06.03 18:47:42.
