data_PCOD9275627
_publ_section_title
;
Structure prediction by ZEFSAII (Michael W. Deem and Ramdas Pophale) SiO2 
 PCOD9275627
Probable space group: C 2/C
;
_chemical_formula_sum "Si O2"
_cell_formula_units_Z 44
_cell_length_a 17.647367
_cell_length_b 15.558627
_cell_length_c 8.268691
_cell_angle_alpha 90.000000
_cell_angle_beta 107.098043
_cell_angle_gamma 90.000000
_cell_volume 2169.983167
_symmetry_space_group_name_H-M "C 2/C"
_symmetry_group_IT_number 15
_symmetry_cell_setting 'monoclinic'
loop_
_space_group_symop_operation_xyz
x,y,z
-x,y,1/2-z
-x,-y,-z
x,-y,1/2+z
1/2+x,1/2+y,z
1/2-x,1/2+y,1/2-z
1/2-x,1/2-y,-z
1/2+x,1/2-y,1/2+z
loop_
_atom_site_type_symbol
_atom_site_label
_atom_site_fract_x
_atom_site_fract_y
_atom_site_fract_z
Si Si1 0.878190 0.546417 0.998682
Si Si2 0.500000 0.432631 0.250000
Si Si3 0.038109 0.176244 0.458258
Si Si4 0.653372 0.552183 0.391253
Si Si5 0.770782 0.462247 0.703743
Si Si6 0.467104 0.127849 0.548003
O O1 0.812441 0.544556 0.816765
O O2 0.960140 0.592320 0.012574
O O3 0.840696 0.579145 0.141551
O O4 0.899008 0.444167 0.014455
O O5 0.503530 0.375470 0.418285
O O6 0.577665 0.494654 0.286959
O O7 0.119777 0.127672 0.479172
O O8 0.051079 0.275166 0.512398
O O9 0.000000 0.173526 0.250000
O O10 0.708190 0.492806 0.533281
O O11 0.714154 0.585937 0.293694
O O12 0.500000 0.131603 0.750000
#
# Coordination Sequence:
#
# PCOD9275627 Si02
#       6
#     8   4   8   8   8   8
#     4  10  20  39  63  90 118 166 203 255 310 376
#     4  12  22  40  64  92 120 168 226 248 300 378
#     4  11  23  38  64  93 124 157 212 268 301 352
#     4  11  20  39  62  89 120 167 206 253 306 375
#     4  10  21  34  63  89 123 157 207 248 316 380
#     4  10  21  39  65  90 123 159 216 256 303 371
#
# _framework density 20.276655999999999
#
# number of rings (size 3 to 8) (size 9 to 14) (size 15 to 20)
#    0.000    1.455    4.545    1.636    0.000    1.455 
#    0.000    3.636    8.000    5.455    0.000    0.000 
#    0.000    0.000    0.000    0.000    0.000    0.000 
#
# Total GULP energy -122480.397407 kJ/mol
# GULP energy per Si atom -5567.290791 kJ/mol
# Density = 2.023051 g / cm^3
# Si number density = 20.276656 Si / 1000 Ang^3
#
#
#
# Elastic Constant Matrix: (Units=GPa)
#
#
# Indices 1 2 3 4 5 6 
#
# 1 123.4172 35.2238 28.2727 0.0000 -42.2861 0.0000
# 2 35.2238 104.1381 9.8150 0.0000 -15.9353 0.0000
# 3 28.2727 9.8150 66.2089 0.0000 -19.9390 0.0000
# 4 0.0000 0.0000 0.0000 15.8514 0.0000 -0.9424
# 5 -42.2861 -15.9353 -19.9390 0.0000 48.6900 0.0000
# 6 0.0000 0.0000 0.0000 -0.9424 0.0000 12.0940
#
#
#
# Elastic Compliance Matrix: (Units=1/GPa)
#
#
# Indices 1 2 3 4 5 6 
#
# 1 0.012460 -0.002620 -0.002203 0.000000 0.009061 0.000000
# 2 -0.002620 0.010679 -0.000111 0.000000 0.001174 0.000000
# 3 -0.002203 -0.000111 0.017651 0.000000 0.005278 0.000000
# 4 0.000000 0.000000 0.000000 0.063380 0.000000 0.004939
# 5 0.009061 0.001174 0.005278 0.000000 0.030953 0.000000
# 6 0.000000 0.000000 0.000000 0.004939 0.000000 0.083070
#
#
# Mechanical properties :
#
#
# Convention : Reuss Voigt Hill
#
# Bulk Modulus (GPa) = 32.34051 48.93191 40.63621
# Shear Modulus (GPa) = 20.97597 30.02393 25.49995
#
# Velocity S-wave (km/s) = 3.21984 3.85218 3.55011
# Velocity P-wave (km/s) = 5.45961 6.63101 6.07362
#
# Compressibility (1/GPa) = 0.03092097
#
# Stress axis : x y z
#
# Youngs Moduli (GPa) = 80.25821 93.64182 56.65544
#
# Poissons Ratio (x) = 0.24536 0.12483
# Poissons Ratio (y) = 0.21029 0.00627
# Poissons Ratio (z) = 0.17684 0.01036
#
# Static dielectric constant tensor:
#      x y z
#    x 1.798790 0.000000 -0.034220 
#    y 0.000000 1.714360 0.000000 
#    z -0.034220 0.000000 1.831660 
# 
# From -- ./inp_files/46994.got.cif
#   From: 2010.05.17/outbox.cif.g08.bks.cpg/sg15_24_cif.got.tgz:46994.got - 2010.06.03 18:47:42.
