data_PCOD9275368
_publ_section_title
;
Structure prediction by ZEFSAII (Michael W. Deem and Ramdas Pophale) SiO2 
 PCOD9275368
Probable space group: C 2/C
;
_chemical_formula_sum "Si O2"
_cell_formula_units_Z 60
_cell_length_a 18.716566
_cell_length_b 12.492468
_cell_length_c 14.081667
_cell_angle_alpha 90.000000
_cell_angle_beta 67.524207
_cell_angle_gamma 90.000000
_cell_volume 3042.424352
_symmetry_space_group_name_H-M "C 2/C"
_symmetry_group_IT_number 15
_symmetry_cell_setting 'monoclinic'
loop_
_space_group_symop_operation_xyz
x,y,z
-x,y,1/2-z
-x,-y,-z
x,-y,1/2+z
1/2+x,1/2+y,z
1/2-x,1/2+y,1/2-z
1/2-x,1/2-y,-z
1/2+x,1/2-y,1/2+z
loop_
_atom_site_type_symbol
_atom_site_label
_atom_site_fract_x
_atom_site_fract_y
_atom_site_fract_z
Si Si1 0.850456 0.354518 0.235326
Si Si2 0.621126 0.266266 0.183802
Si Si3 0.492989 0.641291 0.892315
Si Si4 0.739953 0.930804 0.389136
Si Si5 0.500000 0.772848 0.250000
Si Si6 0.007227 0.898888 0.604525
Si Si7 0.208108 0.554955 0.125901
Si Si8 0.323249 0.386784 0.726162
O O1 0.832869 0.400292 0.139819
O O2 0.939243 0.339493 0.220155
O O3 0.812993 0.438449 0.325592
O O4 0.812999 0.236839 0.259018
O O5 0.577578 0.284474 0.105480
O O6 0.564446 0.317975 0.291781
O O7 0.699764 0.332993 0.145456
O O8 0.642776 0.142614 0.186377
O O9 0.465642 0.518808 0.886405
O O10 0.516178 0.635570 0.990711
O O11 0.718622 0.946914 0.508552
O O12 0.782617 0.032567 0.319964
O O13 0.458469 0.691254 0.344402
O O14 0.914963 0.904341 0.670609
O O15 0.284714 0.590933 0.143590
#
# Coordination Sequence:
#
# PCOD9275368 Si02
#       8
#     8   8   8   8   4   8   8   8
#     4  10  24  43  61  90 122 166 206 254 308 373
#     4  11  21  38  60  94 125 156 204 259 303 374
#     4  10  22  35  62  95 125 158 206 255 316 355
#     4  11  22  40  66  90 121 165 207 258 314 360
#     4  10  22  40  62  82 128 162 204 242 308 372
#     4  10  20  39  60  93 124 160 201 261 315 362
#     4  11  24  40  63  92 124 167 209 251 309 371
#     4  10  21  41  66  90 125 159 208 262 304 369
#
# _framework density 19.721115000000001
#
# number of rings (size 3 to 8) (size 9 to 14) (size 15 to 20)
#    0.000    1.600    2.667    2.000    5.600    1.600 
#    4.800    0.667    0.000    0.000    0.000    0.000 
#    0.000    0.000    0.000    0.000    0.000    0.000 
#
# Total GULP energy -167521.636905 kJ/mol
# GULP energy per Si atom -5584.054563 kJ/mol
# Density = 1.967623 g / cm^3
# Si number density = 19.721115 Si / 1000 Ang^3
#
#
#
# Elastic Constant Matrix: (Units=GPa)
#
#
# Indices 1 2 3 4 5 6 
#
# 1 51.0502 -6.2646 21.2661 0.0000 17.7088 0.0000
# 2 -6.2646 85.2277 25.8399 0.0000 4.8893 0.0000
# 3 21.2661 25.8399 106.0690 0.0000 23.4146 0.0000
# 4 0.0000 0.0000 0.0000 5.2251 0.0000 3.3413
# 5 17.7088 4.8893 23.4146 0.0000 19.3080 0.0000
# 6 0.0000 0.0000 0.0000 3.3413 0.0000 8.3314
#
#
#
# Elastic Compliance Matrix: (Units=1/GPa)
#
#
# Indices 1 2 3 4 5 6 
#
# 1 0.029978 0.004064 -0.000961 0.000000 -0.027359 0.000000
# 2 0.004064 0.013228 -0.003380 0.000000 -0.002979 0.000000
# 3 -0.000961 -0.003380 0.013738 0.000000 -0.014923 0.000000
# 4 0.000000 0.000000 0.000000 0.257390 0.000000 -0.103225
# 5 -0.027359 -0.002979 -0.014923 0.000000 0.095736 0.000000
# 6 0.000000 0.000000 0.000000 -0.103225 0.000000 0.161426
#
#
# Mechanical properties :
#
#
# Convention : Reuss Voigt Hill
#
# Bulk Modulus (GPa) = 17.73328 36.00330 26.86829
# Shear Modulus (GPa) = 8.46245 20.00660 14.23453
#
# Velocity S-wave (km/s) = 2.07373 3.18854 2.68953
# Velocity P-wave (km/s) = 3.83997 5.64372 4.82685
#
# Compressibility (1/GPa) = 0.05639116
#
# Stress axis : x y z
#
# Youngs Moduli (GPa) = 33.35745 75.59949 72.79065
#
# Poissons Ratio (x) = -0.30727 0.06996
# Poissons Ratio (y) = -0.13558 0.24601
# Poissons Ratio (z) = 0.03206 0.25551
#
# Static dielectric constant tensor:
#      x y z
#    x 1.727650 0.000000 0.019940 
#    y 0.000000 1.694980 0.000000 
#    z 0.019940 0.000000 1.684530 
# 
# From -- ./inp_files/161308.got.cif
#   From: 2010.05.17/outbox.cif.g08.bks.cpg/sg15_81_cif.got.tgz:161308.got - 2010.06.03 18:47:42.
