data_PCOD9275117
_publ_section_title
;
Structure prediction by ZEFSAII (Michael W. Deem and Ramdas Pophale) SiO2 
 PCOD9275117
Probable space group: C 2/C
;
_chemical_formula_sum "Si O2"
_cell_formula_units_Z 32
_cell_length_a 15.359217
_cell_length_b 10.608464
_cell_length_c 8.180057
_cell_angle_alpha 90.000000
_cell_angle_beta 60.844250
_cell_angle_gamma 90.000000
_cell_volume 1163.967018
_symmetry_space_group_name_H-M "C 2/C"
_symmetry_group_IT_number 15
_symmetry_cell_setting 'monoclinic'
loop_
_space_group_symop_operation_xyz
x,y,z
-x,y,1/2-z
-x,-y,-z
x,-y,1/2+z
1/2+x,1/2+y,z
1/2-x,1/2+y,1/2-z
1/2-x,1/2-y,-z
1/2+x,1/2-y,1/2+z
loop_
_atom_site_type_symbol
_atom_site_label
_atom_site_fract_x
_atom_site_fract_y
_atom_site_fract_z
Si Si1 0.403715 0.584540 0.947100
Si Si2 0.074195 0.560627 0.805418
Si Si3 0.707784 0.904200 0.453540
Si Si4 0.324257 0.644384 0.355860
O O1 0.500000 0.611994 0.750000
O O2 0.308682 0.649664 0.941446
O O3 0.375410 0.435761 0.957204
O O4 0.404418 0.628031 0.133410
O O5 0.127036 0.446172 0.661426
O O6 0.153147 0.640896 0.839009
O O7 0.000000 0.634401 0.750000
O O8 0.000000 0.500000 0.000000
O O9 0.743534 0.043486 0.362099
O O10 0.250000 0.750000 0.500000
#
# Coordination Sequence:
#
# PCOD9275117 Si02
#       4
#     8   8   8   8
#     4  10  20  38  69 100 140 188 233 292 360 425
#     4   9  16  27  51  85 122 176 217 251 336 426
#     4   9  16  32  55  86 133 170 220 280 342 399
#     4  10  21  38  66  95 140 183 239 292 356 416
#
# _framework density 27.492187000000001
#
# number of rings (size 3 to 8) (size 9 to 14) (size 15 to 20)
#    1.500    1.000    2.500    0.750    0.000    0.000 
#    0.000    5.000    0.000    7.500    0.000    0.000 
#    0.000    0.000    0.000    0.000    0.000    0.000 
#
# Total GULP energy -89069.350505 kJ/mol
# GULP energy per Si atom -5566.834407 kJ/mol
# Density = 2.742961 g / cm^3
# Si number density = 27.492187 Si / 1000 Ang^3
#
#
#
# Elastic Constant Matrix: (Units=GPa)
#
#
# Indices 1 2 3 4 5 6 
#
# 1 183.9141 -1.4073 44.3841 0.0000 11.6257 0.0000
# 2 -1.4073 55.7029 37.9707 0.0000 -2.3449 0.0000
# 3 44.3841 37.9707 257.1501 0.0000 -24.5287 0.0000
# 4 0.0000 0.0000 0.0000 -5.8510 0.0000 0.2781
# 5 11.6257 -2.3449 -24.5287 0.0000 59.3532 0.0000
# 6 0.0000 0.0000 0.0000 0.2781 0.0000 18.1707
#
#
#
# Elastic Compliance Matrix: (Units=1/GPa)
#
#
# Indices 1 2 3 4 5 6 
#
# 1 0.005866 0.000974 -0.001314 0.000000 -0.001654 0.000000
# 2 0.000974 0.020135 -0.003210 0.000000 -0.000722 0.000000
# 3 -0.001314 -0.003210 0.004791 0.000000 0.002111 0.000000
# 4 0.000000 0.000000 0.000000 -0.170787 0.000000 0.002613
# 5 -0.001654 -0.000722 0.002111 0.000000 0.018016 0.000000
# 6 0.000000 0.000000 0.000000 0.002613 0.000000 0.054994
#
#
# Mechanical properties :
#
#
# Convention : Reuss Voigt Hill
#
# Bulk Modulus (GPa) = 42.20756 73.18467 57.69611
# Shear Modulus (GPa) = -96.17590 42.05590 -27.06000
#
# Velocity S-wave (km/s) = -5.92106 3.91543 -3.14073
# Velocity P-wave (km/s) = 5.59994 6.86431 2.80708
#
# Compressibility (1/GPa) = 0.02369244
#
# Stress axis : x y z
#
# Youngs Moduli (GPa) = 170.46055 49.66506 208.72761
#
# Poissons Ratio (x) = -0.04839 0.27430
# Poissons Ratio (y) = -0.16610 0.67005
# Poissons Ratio (z) = 0.22401 0.15943
#
# Static dielectric constant tensor:
#      x y z
#    x 2.256910 0.000000 0.076710 
#    y 0.000000 6.702720 0.000000 
#    z 0.076710 0.000000 2.995030 
# 
# From -- ./inp_files/54829.got.cif
#   From: 2010.05.17/outbox.cif.g08.bks.cpg/sg15_28_cif.got.tgz:54829.got - 2010.06.03 18:47:42.
