data_PCOD9275362
_publ_section_title
;
Structure prediction by ZEFSAII (Michael W. Deem and Ramdas Pophale) SiO2 
 PCOD9275362
Probable space group: C 2/C
;
_chemical_formula_sum "Si O2"
_cell_formula_units_Z 48
_cell_length_a 12.602130
_cell_length_b 25.113768
_cell_length_c 8.176096
_cell_angle_alpha 90.000000
_cell_angle_beta 50.737195
_cell_angle_gamma 90.000000
_cell_volume 2003.474018
_symmetry_space_group_name_H-M "C 2/C"
_symmetry_group_IT_number 15
_symmetry_cell_setting 'monoclinic'
loop_
_space_group_symop_operation_xyz
x,y,z
-x,y,1/2-z
-x,-y,-z
x,-y,1/2+z
1/2+x,1/2+y,z
1/2-x,1/2+y,1/2-z
1/2-x,1/2-y,-z
1/2+x,1/2-y,1/2+z
loop_
_atom_site_type_symbol
_atom_site_label
_atom_site_fract_x
_atom_site_fract_y
_atom_site_fract_z
Si Si1 0.789825 0.461899 0.081663
Si Si2 0.724226 0.926150 0.784457
Si Si3 0.475196 0.135508 0.468253
Si Si4 0.443080 0.298199 0.985367
Si Si5 0.310772 0.756794 0.121858
Si Si6 0.029015 0.907376 0.414332
O O1 0.825577 0.523443 0.063233
O O2 0.638045 0.455084 0.307207
O O3 0.787825 0.444403 0.894162
O O4 0.889385 0.419278 0.070379
O O5 0.622685 0.876233 0.905567
O O6 0.885542 0.914803 0.647760
O O7 0.500000 0.141915 0.250000
O O8 0.391609 0.188704 0.588501
O O9 0.500000 0.295545 0.750000
O O10 0.574512 0.287473 0.970241
O O11 0.322021 0.256841 0.134405
O O12 0.395422 0.356737 0.082487
O O13 0.250000 0.750000 0.000000
O O14 0.000000 0.897486 0.250000
#
# Coordination Sequence:
#
# PCOD9275362 Si02
#       6
#     8   8   8   8   8   8
#     4  10  20  39  60  90 130 169 223 274 333 401
#     4  10  22  36  64  93 129 173 220 277 334 402
#     4  10  21  39  63  95 127 166 225 278 317 400
#     4  12  27  44  67 102 141 169 217 291 355 407
#     4  12  25  46  74  99 131 182 236 273 344 419
#     4  10  21  40  65  92 128 176 228 271 329 410
#
# _framework density 23.958385
#
# number of rings (size 3 to 8) (size 9 to 14) (size 15 to 20)
#    0.000    1.333    1.667    4.000    7.000    1.333 
#    0.000    0.000    0.000    0.000    0.000    0.000 
#    0.000    0.000    0.000    0.000    0.000    0.000 
#
# Total GULP energy -134220.216426 kJ/mol
# GULP energy per Si atom -5592.509018 kJ/mol
# Density = 2.390385 g / cm^3
# Si number density = 23.958385 Si / 1000 Ang^3
#
#
#
# Elastic Constant Matrix: (Units=GPa)
#
#
# Indices 1 2 3 4 5 6 
#
# 1 52.6501 7.4476 19.6054 0.0000 -23.6805 0.0000
# 2 7.4476 79.1915 9.0824 0.0000 -5.7562 0.0000
# 3 19.6054 9.0824 62.3794 0.0000 -18.2946 0.0000
# 4 0.0000 0.0000 0.0000 35.2177 0.0000 -12.1394
# 5 -23.6805 -5.7562 -18.2946 0.0000 20.1231 0.0000
# 6 0.0000 0.0000 0.0000 -12.1394 0.0000 33.5197
#
#
#
# Elastic Compliance Matrix: (Units=1/GPa)
#
#
# Indices 1 2 3 4 5 6 
#
# 1 0.040497 -0.000438 0.001739 0.000000 0.049112 0.000000
# 2 -0.000438 0.012955 -0.001108 0.000000 0.002182 0.000000
# 3 0.001739 -0.001108 0.022026 0.000000 0.021754 0.000000
# 4 0.000000 0.000000 0.000000 0.032445 0.000000 0.011750
# 5 0.049112 0.002182 0.021754 0.000000 0.127889 0.000000
# 6 0.000000 0.000000 0.000000 0.011750 0.000000 0.034089
#
#
# Mechanical properties :
#
#
# Convention : Reuss Voigt Hill
#
# Bulk Modulus (GPa) = 13.18178 29.61019 21.39598
# Shear Modulus (GPa) = 16.96056 28.31113 22.63584
#
# Velocity S-wave (km/s) = 2.66356 3.44129 3.07709
# Velocity P-wave (km/s) = 3.86953 5.30808 4.64484
#
# Compressibility (1/GPa) = 0.07586229
#
# Stress axis : x y z
#
# Youngs Moduli (GPa) = 24.69347 77.19275 45.40165
#
# Poissons Ratio (x) = 0.03383 -0.07897
# Poissons Ratio (y) = 0.01082 0.05032
# Poissons Ratio (z) = -0.04295 0.08556
#
# Static dielectric constant tensor:
#      x y z
#    x 3.131420 0.000000 -0.454560 
#    y 0.000000 1.892510 0.000000 
#    z -0.454560 0.000000 2.048930 
# 
# From -- ./inp_files/43774.got.cif
#   From: 2010.05.17/outbox.cif.g08.bks.cpg/sg15_22_cif.got.tgz:43774.got - 2010.06.03 18:47:42.
