data_PCOD9275495
_publ_section_title
;
Structure prediction by ZEFSAII (Michael W. Deem and Ramdas Pophale) SiO2 
 PCOD9275495
Probable space group: C 2/C
;
_chemical_formula_sum "Si O2"
_cell_formula_units_Z 56
_cell_length_a 26.040222
_cell_length_b 12.629390
_cell_length_c 20.277784
_cell_angle_alpha 90.000000
_cell_angle_beta 22.631017
_cell_angle_gamma 90.000000
_cell_volume 2566.120350
_symmetry_space_group_name_H-M "C 2/C"
_symmetry_group_IT_number 15
_symmetry_cell_setting 'monoclinic'
loop_
_space_group_symop_operation_xyz
x,y,z
-x,y,1/2-z
-x,-y,-z
x,-y,1/2+z
1/2+x,1/2+y,z
1/2-x,1/2+y,1/2-z
1/2-x,1/2-y,-z
1/2+x,1/2-y,1/2+z
loop_
_atom_site_type_symbol
_atom_site_label
_atom_site_fract_x
_atom_site_fract_y
_atom_site_fract_z
Si Si1 0.343692 0.972820 0.192198
Si Si2 0.411652 0.944745 0.741559
Si Si3 0.181405 0.424478 0.911167
Si Si4 0.961089 0.007756 0.123208
Si Si5 0.386790 0.282519 0.205564
Si Si6 0.647965 0.695454 0.907447
Si Si7 0.346621 0.817876 0.931841
O O1 0.296421 0.854559 0.232652
O O2 0.317623 0.998474 0.299494
O O3 0.279321 0.044860 0.211475
O O4 0.500000 0.000000 0.000000
O O5 0.428739 0.827439 0.689073
O O6 0.354422 0.927904 0.882323
O O7 0.551783 0.005286 0.580290
O O8 0.308980 0.451270 0.803635
O O9 0.143740 0.301580 0.954296
O O10 0.963542 0.885567 0.143043
O O11 0.056460 0.097381 0.039793
O O12 0.000000 0.000000 0.000000
O O13 0.395435 0.278603 0.116216
O O14 0.231246 0.308375 0.407445
O O15 0.500000 0.780766 0.750000
O O16 0.250000 0.750000 0.000000
#
# Coordination Sequence:
#
# PCOD9275495 Si02
#       7
#     8   8   8   8   8   8   8
#     4  10  21  35  55  87 118 159 199 247 313 369
#     4  10  22  39  62  91 118 163 211 245 315 373
#     4  11  21  36  60  86 126 162 204 252 314 376
#     4  10  21  37  52  89 116 160 200 245 321 361
#     4  10  20  39  62  88 127 159 202 260 309 385
#     4  11  23  38  58  92 128 158 204 257 315 379
#     4  10  22  41  61  90 124 167 211 254 313 375
#
# _framework density 21.822827
#
# number of rings (size 3 to 8) (size 9 to 14) (size 15 to 20)
#    0.000    1.714    4.286    0.857    6.000    1.143 
#   18.000    0.000    0.000    0.857    3.714    0.000 
#    0.000    0.000    0.000    0.000    0.000    0.000 
#
# Total GULP energy -156177.784452 kJ/mol
# GULP energy per Si atom -5577.778016 kJ/mol
# Density = 2.177316 g / cm^3
# Si number density = 21.822827 Si / 1000 Ang^3
#
#
#
# Elastic Constant Matrix: (Units=GPa)
#
#
# Indices 1 2 3 4 5 6 
#
# 1 50.8713 7.1019 8.8249 0.0000 -12.4450 0.0000
# 2 7.1019 149.5297 36.0996 0.0000 -7.1398 0.0000
# 3 8.8249 36.0996 88.8708 0.0000 -14.0580 0.0000
# 4 0.0000 0.0000 0.0000 37.9078 0.0000 -4.3510
# 5 -12.4450 -7.1398 -14.0580 0.0000 22.0603 0.0000
# 6 0.0000 0.0000 0.0000 -4.3510 0.0000 30.7430
#
#
#
# Elastic Compliance Matrix: (Units=1/GPa)
#
#
# Indices 1 2 3 4 5 6 
#
# 1 0.022838 -0.000461 -0.000074 0.000000 0.012688 0.000000
# 2 -0.000461 0.007430 -0.002928 0.000000 0.000279 0.000000
# 3 -0.000074 -0.002928 0.013671 0.000000 0.007722 0.000000
# 4 0.000000 0.000000 0.000000 0.026815 0.000000 0.003795
# 5 0.012688 0.000279 0.007722 0.000000 0.057499 0.000000
# 6 0.000000 0.000000 0.000000 0.003795 0.000000 0.033065
#
#
# Mechanical properties :
#
#
# Convention : Reuss Voigt Hill
#
# Bulk Modulus (GPa) = 27.01737 43.70273 35.36005
# Shear Modulus (GPa) = 27.68829 33.95858 30.82344
#
# Velocity S-wave (km/s) = 3.56585 3.94903 3.76232
# Velocity P-wave (km/s) = 5.41857 6.39240 5.92552
#
# Compressibility (1/GPa) = 0.03701322
#
# Stress axis : x y z
#
# Youngs Moduli (GPa) = 43.78574 134.59403 73.14968
#
# Poissons Ratio (x) = 0.06207 0.00538
# Poissons Ratio (y) = 0.02019 0.21419
# Poissons Ratio (z) = 0.00322 0.39411
#
# Static dielectric constant tensor:
#      x y z
#    x 1.868330 0.000000 0.030130 
#    y 0.000000 1.833530 0.000000 
#    z 0.030130 0.000000 1.899150 
# 
# From -- ./inp_files/284603.got.cif
#   From: 2010.05.17/outbox.cif.g08.bks.cpg/sg15_143_cif.got.tgz:284603.got - 2010.06.03 18:47:42.
