data_PCOD9275135
_publ_section_title
;
Structure prediction by ZEFSAII (Michael W. Deem and Ramdas Pophale) SiO2 
 PCOD9275135
Probable space group: C 2/C
;
_chemical_formula_sum "Si O2"
_cell_formula_units_Z 64
_cell_length_a 22.821396
_cell_length_b 16.705014
_cell_length_c 13.943505
_cell_angle_alpha 90.000000
_cell_angle_beta 32.120189
_cell_angle_gamma 90.000000
_cell_volume 2826.345513
_symmetry_space_group_name_H-M "C 2/C"
_symmetry_group_IT_number 15
_symmetry_cell_setting 'monoclinic'
loop_
_space_group_symop_operation_xyz
x,y,z
-x,y,1/2-z
-x,-y,-z
x,-y,1/2+z
1/2+x,1/2+y,z
1/2-x,1/2+y,1/2-z
1/2-x,1/2-y,-z
1/2+x,1/2-y,1/2+z
loop_
_atom_site_type_symbol
_atom_site_label
_atom_site_fract_x
_atom_site_fract_y
_atom_site_fract_z
Si Si1 0.820175 0.575297 0.359592
Si Si2 0.662185 0.934669 0.299780
Si Si3 0.233221 0.699483 0.222936
Si Si4 0.408418 0.502607 0.764376
Si Si5 0.122349 0.312468 0.072072
Si Si6 0.894275 0.342170 0.944941
Si Si7 0.144221 0.956027 0.881858
Si Si8 0.697766 0.349810 0.541115
O O1 0.875322 0.499198 0.228742
O O2 0.823747 0.652993 0.286332
O O3 0.690266 0.555333 0.555494
O O4 0.862921 0.594933 0.405532
O O5 0.586271 0.892677 0.484370
O O6 0.721366 0.863092 0.160446
O O7 0.756547 0.986391 0.222201
O O8 0.147107 0.712127 0.428715
O O9 0.317336 0.634630 0.152393
O O10 0.297725 0.778432 0.099966
O O11 0.382965 0.483834 0.687881
O O12 0.531601 0.533761 0.597114
O O13 0.392929 0.417472 0.835459
O O14 0.221954 0.363917 0.978744
O O15 0.000000 0.346781 0.250000
O O16 0.137077 0.234286 0.118616
O O17 0.000000 0.299990 0.750000
#
# Coordination Sequence:
#
# PCOD9275135 Si02
#       8
#     8   8   8   8   8   8   8   8
#     4  10  24  43  66  95 132 172 226 282 325 412
#     4  10  22  42  68  91 130 167 231 280 323 402
#     4  11  24  45  64 100 141 169 227 274 338 418
#     4  10  20  38  69  96 128 170 227 281 339 383
#     4  11  24  42  67  96 138 183 219 282 350 394
#     4  12  26  44  66  95 137 183 215 275 341 404
#     4  10  21  39  68  98 128 175 218 288 339 387
#     4  10  22  41  63 101 131 167 232 284 321 411
#
# _framework density 22.644081
#
# number of rings (size 3 to 8) (size 9 to 14) (size 15 to 20)
#    0.000    1.500    3.750    0.375    3.500    5.000 
#    0.000    8.750    0.000    0.000    0.000    0.000 
#    0.000    0.000    0.000    0.000    0.000    0.000 
#
# Total GULP energy -178672.984949 kJ/mol
# GULP energy per Si atom -5583.530780 kJ/mol
# Density = 2.259254 g / cm^3
# Si number density = 22.644081 Si / 1000 Ang^3
#
#
#
# Elastic Constant Matrix: (Units=GPa)
#
#
# Indices 1 2 3 4 5 6 
#
# 1 76.3704 9.9253 15.7106 0.0000 20.7541 0.0000
# 2 9.9253 51.9008 11.4708 0.0000 5.2130 0.0000
# 3 15.7106 11.4708 109.7061 0.0000 25.2124 0.0000
# 4 0.0000 0.0000 0.0000 21.6410 0.0000 -0.1783
# 5 20.7541 5.2130 25.2124 0.0000 38.7732 0.0000
# 6 0.0000 0.0000 0.0000 -0.1783 0.0000 22.4287
#
#
#
# Elastic Compliance Matrix: (Units=1/GPa)
#
#
# Indices 1 2 3 4 5 6 
#
# 1 0.015563 -0.002140 -0.000184 0.000000 -0.007923 0.000000
# 2 -0.002140 0.020096 -0.001690 0.000000 -0.000458 0.000000
# 3 -0.000184 -0.001690 0.010867 0.000000 -0.006741 0.000000
# 4 0.000000 0.000000 0.000000 0.046212 0.000000 0.000367
# 5 -0.007923 -0.000458 -0.006741 0.000000 0.034477 0.000000
# 6 0.000000 0.000000 0.000000 0.000367 0.000000 0.044589
#
#
# Mechanical properties :
#
#
# Convention : Reuss Voigt Hill
#
# Bulk Modulus (GPa) = 25.97415 34.68786 30.33100
# Shear Modulus (GPa) = 25.95188 29.95994 27.95591
#
# Velocity S-wave (km/s) = 3.38905 3.64136 3.51747
# Velocity P-wave (km/s) = 5.17781 5.74729 5.46997
#
# Compressibility (1/GPa) = 0.03849982
#
# Stress axis : x y z
#
# Youngs Moduli (GPa) = 64.25425 49.76085 92.01771
#
# Poissons Ratio (x) = 0.10648 0.01695
# Poissons Ratio (y) = 0.13749 0.15547
# Poissons Ratio (z) = 0.01183 0.08407
#
# Static dielectric constant tensor:
#      x y z
#    x 1.911390 0.000000 0.002770 
#    y 0.000000 1.818890 0.000000 
#    z 0.002770 0.000000 1.873860 
# 
# From -- ./inp_files/174227.got.cif
#   From: 2010.05.17/outbox.cif.g08.bks.cpg/sg15_88_cif.got.tgz:174227.got - 2010.06.03 18:47:42.
