data_PCOD9275791
_publ_section_title
;
Structure prediction by ZEFSAII (Michael W. Deem and Ramdas Pophale) SiO2 
 PCOD9275791
Probable space group: C 2/C
;
_chemical_formula_sum "Si O2"
_cell_formula_units_Z 56
_cell_length_a 5.321918
_cell_length_b 18.268423
_cell_length_c 21.751572
_cell_angle_alpha 90.000000
_cell_angle_beta 97.023566
_cell_angle_gamma 90.000000
_cell_volume 2098.884917
_symmetry_space_group_name_H-M "C 2/C"
_symmetry_group_IT_number 15
_symmetry_cell_setting 'monoclinic'
loop_
_space_group_symop_operation_xyz
x,y,z
-x,y,1/2-z
-x,-y,-z
x,-y,1/2+z
1/2+x,1/2+y,z
1/2-x,1/2+y,1/2-z
1/2-x,1/2-y,-z
1/2+x,1/2-y,1/2+z
loop_
_atom_site_type_symbol
_atom_site_label
_atom_site_fract_x
_atom_site_fract_y
_atom_site_fract_z
Si Si1 0.500000 0.368004 0.750000
Si Si2 0.619502 0.392378 0.881988
Si Si3 0.552442 0.056723 0.687716
Si Si4 0.868898 0.459450 0.569422
Si Si5 0.053048 0.139535 0.664241
Si Si6 0.285775 0.629344 0.536239
Si Si7 0.517233 0.259322 0.947361
Si Si8 0.000000 0.727916 0.250000
O O1 0.591191 0.414008 0.810889
O O2 0.253059 0.320413 0.759339
O O3 0.402315 0.437268 0.909954
O O4 0.573109 0.305572 0.888513
O O5 0.896853 0.403208 0.917387
O O6 0.500000 0.012039 0.750000
O O7 0.833521 0.088142 0.686826
O O8 0.337104 0.118585 0.689600
O O9 0.472852 0.019041 0.620876
O O10 0.801253 0.448230 0.494348
O O11 0.016963 0.127514 0.589971
O O12 0.003794 0.219763 0.690171
O O13 0.341456 0.683674 0.480605
O O14 0.087603 0.678952 0.567469
O O15 0.750000 0.250000 0.000000
#
# Coordination Sequence:
#
# PCOD9275791 Si02
#       8
#     4   8   8   8   8   8   8   4
#     4  12  26  38  67  98 137 168 222 272 322 396
#     4  11  24  41  64 102 133 176 217 268 329 400
#     4  12  26  47  69  94 129 179 228 284 332 384
#     4  11  25  44  68  97 134 172 226 273 332 389
#     4  12  26  45  72  95 130 175 228 273 336 386
#     4  10  24  40  67 101 132 177 213 275 326 405
#     4  10  20  39  64  94 140 175 211 253 339 405
#     4  12  24  44  61  96 133 170 218 276 330 398
#
# _framework density 26.680833
#
# number of rings (size 3 to 8) (size 9 to 14) (size 15 to 20)
#    0.000    0.857    2.857    3.429    6.000    1.143 
#    0.000    0.000    0.000    0.000    0.000    0.000 
#    0.000    0.000    0.000    0.000    0.000    0.000 
#
# Total GULP energy -156587.407375 kJ/mol
# GULP energy per Si atom -5592.407406 kJ/mol
# Density = 2.662011 g / cm^3
# Si number density = 26.680833 Si / 1000 Ang^3
#
#
#
# Elastic Constant Matrix: (Units=GPa)
#
#
# Indices 1 2 3 4 5 6 
#
# 1 156.9995 32.9023 22.3336 0.0000 20.8846 0.0000
# 2 32.9023 62.7841 4.0263 0.0000 -1.5291 0.0000
# 3 22.3336 4.0263 140.0932 0.0000 11.9610 0.0000
# 4 0.0000 0.0000 0.0000 32.7038 0.0000 8.7708
# 5 20.8846 -1.5291 11.9610 0.0000 50.8449 0.0000
# 6 0.0000 0.0000 0.0000 8.7708 0.0000 14.3567
#
#
#
# Elastic Compliance Matrix: (Units=1/GPa)
#
#
# Indices 1 2 3 4 5 6 
#
# 1 0.007761 -0.004088 -0.000854 0.000000 -0.003110 0.000000
# 2 -0.004088 0.018129 -0.000060 0.000000 0.002239 0.000000
# 3 -0.000854 -0.000060 0.007395 0.000000 -0.001390 0.000000
# 4 0.000000 0.000000 0.000000 0.036569 0.000000 -0.022341
# 5 -0.003110 0.002239 -0.001390 0.000000 0.021340 0.000000
# 6 0.000000 0.000000 0.000000 -0.022341 0.000000 0.083302
#
#
# Mechanical properties :
#
#
# Convention : Reuss Voigt Hill
#
# Bulk Modulus (GPa) = 42.95791 53.15570 48.05680
# Shear Modulus (GPa) = 26.00630 39.62205 32.81417
#
# Velocity S-wave (km/s) = 3.12543 3.85780 3.51077
# Velocity P-wave (km/s) = 5.40001 6.30948 5.87238
#
# Compressibility (1/GPa) = 0.02327860
#
# Stress axis : x y z
#
# Youngs Moduli (GPa) = 128.84134 55.16163 135.23104
#
# Poissons Ratio (x) = 0.22552 0.11553
# Poissons Ratio (y) = 0.52676 0.00817
# Poissons Ratio (z) = 0.11007 0.00333
#
# Static dielectric constant tensor:
#      x y z
#    x 2.093770 0.000000 -0.098390 
#    y 0.000000 2.149520 0.000000 
#    z -0.098390 0.000000 2.219770 
# 
# From -- ./inp_files/261226.got.cif
#   From: 2010.05.17/outbox.cif.g08.bks.cpg/sg15_131_cif.got.tgz:261226.got - 2010.06.03 18:47:42.
