data_PCOD9275679
_publ_section_title
;
Structure prediction by ZEFSAII (Michael W. Deem and Ramdas Pophale) SiO2 
 PCOD9275679
Probable space group: C 2/C
;
_chemical_formula_sum "Si O2"
_cell_formula_units_Z 48
_cell_length_a 12.323240
_cell_length_b 7.484442
_cell_length_c 27.104913
_cell_angle_alpha 90.000000
_cell_angle_beta 63.156967
_cell_angle_gamma 90.000000
_cell_volume 2230.577990
_symmetry_space_group_name_H-M "C 2/C"
_symmetry_group_IT_number 15
_symmetry_cell_setting 'monoclinic'
loop_
_space_group_symop_operation_xyz
x,y,z
-x,y,1/2-z
-x,-y,-z
x,-y,1/2+z
1/2+x,1/2+y,z
1/2-x,1/2+y,1/2-z
1/2-x,1/2-y,-z
1/2+x,1/2-y,1/2+z
loop_
_atom_site_type_symbol
_atom_site_label
_atom_site_fract_x
_atom_site_fract_y
_atom_site_fract_z
Si Si1 0.997448 0.808328 0.060937
Si Si2 0.691784 0.780807 0.294600
Si Si3 0.481857 0.051848 0.888166
Si Si4 0.897489 0.910362 0.183422
Si Si5 0.619676 0.659695 0.022284
Si Si6 0.586446 0.128021 0.189487
O O1 0.910952 0.881656 0.122394
O O2 0.030960 0.609639 0.070806
O O3 0.933473 0.809954 0.021263
O O4 0.108821 0.948849 0.035323
O O5 0.615171 0.937895 0.335721
O O6 0.770115 0.841375 0.231859
O O7 0.600515 0.618130 0.302278
O O8 0.790554 0.701595 0.312513
O O9 0.459780 0.234145 0.921242
O O10 0.395652 0.006227 0.859607
O O11 0.006307 0.794392 0.184964
O O12 0.750000 0.750000 0.000000
O O13 0.500000 0.047327 0.250000
#
# Coordination Sequence:
#
# PCOD9275679 Si02
#       6
#     8   8   8   8   8   8
#     4  10  23  43  62  92 133 161 223 278 309 392
#     4  11  21  40  66  93 136 171 205 274 334 387
#     4  11  23  42  66  94 128 172 217 267 335 389
#     4  10  20  39  63  94 130 167 213 263 326 396
#     4  11  25  42  65  94 125 174 225 264 329 384
#     4   9  21  38  60  95 130 165 214 263 323 402
#
# _framework density 21.519086000000001
#
# number of rings (size 3 to 8) (size 9 to 14) (size 15 to 20)
#    0.000    1.667    1.667    3.500    2.333    3.333 
#    0.000    9.167    0.000    0.000    0.000    0.000 
#    0.000    0.000    0.000    0.000    0.000    0.000 
#
# Total GULP energy -134090.364478 kJ/mol
# GULP energy per Si atom -5587.098520 kJ/mol
# Density = 2.147011 g / cm^3
# Si number density = 21.519086 Si / 1000 Ang^3
#
#
#
# Elastic Constant Matrix: (Units=GPa)
#
#
# Indices 1 2 3 4 5 6 
#
# 1 62.3869 12.6735 23.4186 0.0000 0.6893 0.0000
# 2 12.6735 87.3984 6.7853 0.0000 8.3209 0.0000
# 3 23.4186 6.7853 94.1469 0.0000 14.4183 0.0000
# 4 0.0000 0.0000 0.0000 33.3686 0.0000 -11.2418
# 5 0.6893 8.3209 14.4183 0.0000 29.7088 0.0000
# 6 0.0000 0.0000 0.0000 -11.2418 0.0000 20.5240
#
#
#
# Elastic Compliance Matrix: (Units=1/GPa)
#
#
# Indices 1 2 3 4 5 6 
#
# 1 0.018305 -0.002532 -0.004769 0.000000 0.002599 0.000000
# 2 -0.002532 0.012117 0.000289 0.000000 -0.003475 0.000000
# 3 -0.004769 0.000289 0.012729 0.000000 -0.006148 0.000000
# 4 0.000000 0.000000 0.000000 0.036750 0.000000 0.020129
# 5 0.002599 -0.003475 -0.006148 0.000000 0.037557 0.000000
# 6 0.000000 0.000000 0.000000 0.020129 0.000000 0.059749
#
#
# Mechanical properties :
#
#
# Convention : Reuss Voigt Hill
#
# Bulk Modulus (GPa) = 34.33201 36.63190 35.48195
# Shear Modulus (GPa) = 24.88324 30.12395 27.50360
#
# Velocity S-wave (km/s) = 3.40418 3.74554 3.57893
# Velocity P-wave (km/s) = 5.60715 5.98042 5.79679
#
# Compressibility (1/GPa) = 0.02912734
#
# Stress axis : x y z
#
# Youngs Moduli (GPa) = 54.63096 82.52594 78.56328
#
# Poissons Ratio (x) = 0.20892 0.37465
# Poissons Ratio (y) = 0.13830 -0.02267
# Poissons Ratio (z) = 0.26052 -0.02382
#
# Static dielectric constant tensor:
#      x y z
#    x 1.758460 0.000000 -0.022120 
#    y 0.000000 1.812850 0.000000 
#    z -0.022120 0.000000 1.821420 
# 
# From -- ./inp_files/291060.got.cif
#   From: 2010.05.17/outbox.cif.g08.bks.cpg/sg15_146_cif.got.tgz:291060.got - 2010.06.03 18:47:42.
