data_PCOD9275814
_publ_section_title
;
Structure prediction by ZEFSAII (Michael W. Deem and Ramdas Pophale) SiO2 
 PCOD9275814
Probable space group: C 2/C
;
_chemical_formula_sum "Si O2"
_cell_formula_units_Z 56
_cell_length_a 5.587451
_cell_length_b 34.646169
_cell_length_c 14.031004
_cell_angle_alpha 90.000000
_cell_angle_beta 90.661485
_cell_angle_gamma 90.000000
_cell_volume 2715.993658
_symmetry_space_group_name_H-M "C 2/C"
_symmetry_group_IT_number 15
_symmetry_cell_setting 'monoclinic'
loop_
_space_group_symop_operation_xyz
x,y,z
-x,y,1/2-z
-x,-y,-z
x,-y,1/2+z
1/2+x,1/2+y,z
1/2-x,1/2+y,1/2-z
1/2-x,1/2-y,-z
1/2+x,1/2-y,1/2+z
loop_
_atom_site_type_symbol
_atom_site_label
_atom_site_fract_x
_atom_site_fract_y
_atom_site_fract_z
Si Si1 0.116986 0.087706 0.852970
Si Si2 0.243680 0.073268 0.191766
Si Si3 0.948604 0.649301 0.142730
Si Si4 0.250723 0.976406 0.500426
Si Si5 0.183253 0.857754 0.004550
Si Si6 0.189645 0.205227 0.005039
Si Si7 0.588346 0.163159 0.655696
O O1 0.238206 0.052268 0.909015
O O2 0.294330 0.121965 0.822887
O O3 0.000000 0.076033 0.750000
O O4 0.964193 0.109319 0.937901
O O5 0.500000 0.069878 0.250000
O O6 0.242763 0.117165 0.151792
O O7 0.000000 0.066082 0.250000
O O8 0.252507 0.046549 0.099694
O O9 0.000000 0.661475 0.250000
O O10 0.872678 0.685059 0.078550
O O11 0.166044 0.628595 0.086795
O O12 0.500000 0.000000 0.500000
O O13 0.000000 0.000000 0.500000
O O14 0.371614 0.844689 0.084727
O O15 0.051499 0.818203 0.970824
O O16 0.250000 0.250000 0.000000
O O17 0.227106 0.189316 0.898891
O O18 0.500000 0.182668 0.750000
#
# Coordination Sequence:
#
# PCOD9275814 Si02
#       7
#     8   8   8   8   8   8   8
#     4  11  24  42  73 101 134 185 236 295 355 423
#     4  11  25  46  76 102 138 188 242 297 355 416
#     4  10  24  40  69 100 130 181 242 292 340 417
#     4  12  29  46  70 105 150 186 232 291 362 440
#     4  10  21  41  70  94 139 171 238 289 349 411
#     4  10  23  41  59  97 142 183 223 288 363 423
#     4  10  20  39  65 100 125 175 236 287 342 412
#
# _framework density 20.618604000000001
#
# number of rings (size 3 to 8) (size 9 to 14) (size 15 to 20)
#    0.000    1.429    1.429    3.429   12.000    4.000 
#    5.143    0.000    0.000    0.000    0.000    0.000 
#    0.000    0.000    0.000    0.000    0.000    0.000 
#
# Total GULP energy -156014.402540 kJ/mol
# GULP energy per Si atom -5571.942948 kJ/mol
# Density = 2.057168 g / cm^3
# Si number density = 20.618604 Si / 1000 Ang^3
#
#
#
# Elastic Constant Matrix: (Units=GPa)
#
#
# Indices 1 2 3 4 5 6 
#
# 1 92.2941 27.4465 44.6403 0.0000 -0.7159 0.0000
# 2 27.4465 98.4776 50.4882 0.0000 13.0744 0.0000
# 3 44.6403 50.4882 153.0251 0.0000 -6.7200 0.0000
# 4 0.0000 0.0000 0.0000 -12.9030 0.0000 4.3208
# 5 -0.7159 13.0744 -6.7200 0.0000 30.1410 0.0000
# 6 0.0000 0.0000 0.0000 4.3208 0.0000 15.1995
#
#
#
# Elastic Compliance Matrix: (Units=1/GPa)
#
#
# Indices 1 2 3 4 5 6 
#
# 1 0.012945 -0.002114 -0.003055 0.000000 0.000543 0.000000
# 2 -0.002114 0.013861 -0.004265 0.000000 -0.007014 0.000000
# 3 -0.003055 -0.004265 0.008999 0.000000 0.003784 0.000000
# 4 0.000000 0.000000 0.000000 -0.070765 0.000000 0.020117
# 5 0.000543 -0.007014 0.003784 0.000000 0.037076 0.000000
# 6 0.000000 0.000000 0.000000 0.020117 0.000000 0.060073
#
#
# Mechanical properties :
#
#
# Convention : Reuss Voigt Hill
#
# Bulk Modulus (GPa) = 59.03584 65.43852 62.23718
# Shear Modulus (GPa) = 57.66754 21.23563 39.45159
#
# Velocity S-wave (km/s) = 5.29428 3.21273 4.37899
# Velocity P-wave (km/s) = 8.12816 6.75046 7.47113
#
# Compressibility (1/GPa) = 0.01693886
#
# Stress axis : x y z
#
# Youngs Moduli (GPa) = 77.24724 72.14310 111.11904
#
# Poissons Ratio (x) = 0.15249 0.33949
# Poissons Ratio (y) = 0.16328 0.47389
# Poissons Ratio (z) = 0.23600 0.30767
#
# Static dielectric constant tensor:
#      x y z
#    x 1.916720 0.000000 -0.017300 
#    y 0.000000 1.728620 0.000000 
#    z -0.017300 0.000000 1.726610 
# 
# From -- ./inp_files/130786.got.cif
#   From: 2010.05.17/outbox.cif.g08.bks.cpg/sg15_66_cif.got.tgz:130786.got - 2010.06.03 18:47:42.
