data_PCOD9275501
_publ_section_title
;
Structure prediction by ZEFSAII (Michael W. Deem and Ramdas Pophale) SiO2 
 PCOD9275501
Probable space group: C 2/C
;
_chemical_formula_sum "Si O2"
_cell_formula_units_Z 52
_cell_length_a 6.547923
_cell_length_b 18.058858
_cell_length_c 24.742163
_cell_angle_alpha 90.000000
_cell_angle_beta 106.499498
_cell_angle_gamma 90.000000
_cell_volume 2805.237280
_symmetry_space_group_name_H-M "C 2/C"
_symmetry_group_IT_number 15
_symmetry_cell_setting 'monoclinic'
loop_
_space_group_symop_operation_xyz
x,y,z
-x,y,1/2-z
-x,-y,-z
x,-y,1/2+z
1/2+x,1/2+y,z
1/2-x,1/2+y,1/2-z
1/2-x,1/2-y,-z
1/2+x,1/2-y,1/2+z
loop_
_atom_site_type_symbol
_atom_site_label
_atom_site_fract_x
_atom_site_fract_y
_atom_site_fract_z
Si Si1 0.093646 0.742548 0.414661
Si Si2 0.000000 0.890674 0.250000
Si Si3 0.399068 0.211499 0.800137
Si Si4 0.293789 0.017870 0.693931
Si Si5 0.333065 0.846429 0.688914
Si Si6 0.451148 0.195076 0.514573
Si Si7 0.228132 0.636203 0.899863
O O1 0.083413 0.698123 0.357526
O O2 0.336767 0.767670 0.444008
O O3 0.015578 0.687738 0.456749
O O4 0.948786 0.817449 0.409228
O O5 0.182573 0.836421 0.287077
O O6 0.104245 0.943845 0.213311
O O7 0.500000 0.194429 0.750000
O O8 0.360489 0.297844 0.803829
O O9 0.558824 0.189198 0.858363
O O10 0.500000 0.024881 0.750000
O O11 0.294507 0.063231 0.638035
O O12 0.274556 0.931823 0.677514
O O13 0.500000 0.843091 0.750000
O O14 0.250000 0.250000 0.500000
O O15 0.359270 0.129533 0.545457
#
# Coordination Sequence:
#
# PCOD9275501 Si02
#       7
#     8   4   8   8   8   8   8
#     4  10  20  39  62  89 118 151 198 249 295 346
#     4  12  20  38  54  80 118 166 194 240 290 344
#     4  12  21  34  58  86 113 153 208 240 280 352
#     4  11  24  38  53  87 130 158 194 239 300 357
#     4  11  23  38  58  88 127 158 189 245 302 351
#     4   9  20  36  65  91 111 147 205 252 290 340
#     4  11  19  36  61  87 113 155 199 244 286 352
#
# _framework density 18.536754999999999
#
# number of rings (size 3 to 8) (size 9 to 14) (size 15 to 20)
#    0.000    1.231    5.385    1.846    1.077    0.000 
#    0.000    0.769    0.000    8.308    0.000    0.000 
#    0.000    0.000    0.000    0.000    0.000    0.000 
#
# Total GULP energy -144834.936558 kJ/mol
# GULP energy per Si atom -5570.574483 kJ/mol
# Density = 1.849456 g / cm^3
# Si number density = 18.536755 Si / 1000 Ang^3
#
#
#
# Elastic Constant Matrix: (Units=GPa)
#
#
# Indices 1 2 3 4 5 6 
#
# 1 102.6304 31.0104 33.1094 0.0000 1.0642 0.0000
# 2 31.0104 116.8123 23.3488 0.0000 -2.8086 0.0000
# 3 33.1094 23.3488 73.8352 0.0000 -11.2524 0.0000
# 4 0.0000 0.0000 0.0000 73.1422 0.0000 3.1475
# 5 1.0642 -2.8086 -11.2524 0.0000 45.4280 0.0000
# 6 0.0000 0.0000 0.0000 3.1475 0.0000 12.4416
#
#
#
# Elastic Compliance Matrix: (Units=1/GPa)
#
#
# Indices 1 2 3 4 5 6 
#
# 1 0.012032 -0.002247 -0.004935 0.000000 -0.001643 0.000000
# 2 -0.002247 0.009559 -0.001992 0.000000 0.000150 0.000000
# 3 -0.004935 -0.001992 0.017028 0.000000 0.004210 0.000000
# 4 0.000000 0.000000 0.000000 0.013822 0.000000 -0.003497
# 5 -0.001643 0.000150 0.004210 0.000000 0.023103 0.000000
# 6 0.000000 0.000000 0.000000 -0.003497 0.000000 0.081260
#
#
# Mechanical properties :
#
#
# Convention : Reuss Voigt Hill
#
# Bulk Modulus (GPa) = 49.33375 52.02389 50.67882
# Shear Modulus (GPa) = 27.48594 39.92300 33.70447
#
# Velocity S-wave (km/s) = 3.85487 4.64585 4.26872
# Velocity P-wave (km/s) = 6.81800 7.54353 7.18992
#
# Compressibility (1/GPa) = 0.02027010
#
# Stress axis : x y z
#
# Youngs Moduli (GPa) = 83.11271 104.61186 58.72545
#
# Poissons Ratio (x) = 0.23508 0.28982
# Poissons Ratio (y) = 0.18677 0.11700
# Poissons Ratio (z) = 0.41017 0.20842
#
# Static dielectric constant tensor:
#      x y z
#    x 1.687340 0.000000 -0.038190 
#    y 0.000000 1.631900 0.000000 
#    z -0.038190 0.000000 1.719930 
# 
# From -- ./inp_files/285811.got.cif
#   From: 2010.05.17/outbox.cif.g08.bks.cpg/sg15_143_cif.got.tgz:285811.got - 2010.06.03 18:47:42.
