data_PCOD9275914
_publ_section_title
;
Structure prediction by ZEFSAII (Michael W. Deem and Ramdas Pophale) SiO2 
 PCOD9275914
Probable space group: C 2/C
;
_chemical_formula_sum "Si O2"
_cell_formula_units_Z 48
_cell_length_a 13.923817
_cell_length_b 11.070732
_cell_length_c 15.318018
_cell_angle_alpha 90.000000
_cell_angle_beta 59.608297
_cell_angle_gamma 90.000000
_cell_volume 2036.761127
_symmetry_space_group_name_H-M "C 2/C"
_symmetry_group_IT_number 15
_symmetry_cell_setting 'monoclinic'
loop_
_space_group_symop_operation_xyz
x,y,z
-x,y,1/2-z
-x,-y,-z
x,-y,1/2+z
1/2+x,1/2+y,z
1/2-x,1/2+y,1/2-z
1/2-x,1/2-y,-z
1/2+x,1/2-y,1/2+z
loop_
_atom_site_type_symbol
_atom_site_label
_atom_site_fract_x
_atom_site_fract_y
_atom_site_fract_z
Si Si1 0.000000 0.221830 0.750000
Si Si2 0.949496 0.413505 0.093989
Si Si3 0.297289 0.413087 0.542343
Si Si4 0.256974 0.190331 0.899555
Si Si5 0.481961 0.281550 0.068539
Si Si6 0.734628 0.660081 0.637604
Si Si7 0.000000 0.658351 0.750000
O O1 0.010182 0.281893 0.649386
O O2 0.892703 0.140428 0.782562
O O3 0.816839 0.415425 0.159574
O O4 0.002779 0.421338 0.162565
O O5 0.000000 0.500000 0.000000
O O6 0.975149 0.285290 0.037845
O O7 0.258497 0.545714 0.584923
O O8 0.432528 0.396322 0.469929
O O9 0.247527 0.383392 0.469718
O O10 0.253806 0.305219 0.625189
O O11 0.150670 0.221105 0.887207
O O12 0.379639 0.224077 0.805769
O O13 0.250000 0.250000 0.000000
#
# Coordination Sequence:
#
# PCOD9275914 Si02
#       7
#     4   8   8   8   8   8   4
#     4  10  20  39  65  96 132 168 231 279 344 416
#     4  11  23  41  67  96 135 178 231 289 349 422
#     4   9  20  39  68  92 127 176 228 283 349 413
#     4  12  24  43  67  98 141 187 228 290 358 423
#     4  10  22  42  66  95 133 181 225 289 346 418
#     4   9  19  37  63  95 124 171 227 281 341 411
#     4  12  26  43  65 100 142 184 235 287 362 422
#
# _framework density 23.566828999999998
#
# number of rings (size 3 to 8) (size 9 to 14) (size 15 to 20)
#    0.000    1.667    1.667    3.500    0.000    2.667 
#    0.000    3.333    0.000    0.000    0.000    0.000 
#    0.000    0.000    0.000    0.000    0.000    0.000 
#
# Total GULP energy -133759.898707 kJ/mol
# GULP energy per Si atom -5573.329113 kJ/mol
# Density = 2.351319 g / cm^3
# Si number density = 23.566829 Si / 1000 Ang^3
#
#
#
# Elastic Constant Matrix: (Units=GPa)
#
#
# Indices 1 2 3 4 5 6 
#
# 1 197.7037 13.5704 50.2448 0.0000 -12.5748 0.0000
# 2 13.5704 49.3478 2.2873 0.0000 3.8227 0.0000
# 3 50.2448 2.2873 98.2775 0.0000 5.1041 0.0000
# 4 0.0000 0.0000 0.0000 14.6009 0.0000 -1.8385
# 5 -12.5748 3.8227 5.1041 0.0000 68.8017 0.0000
# 6 0.0000 0.0000 0.0000 -1.8385 0.0000 13.2675
#
#
#
# Elastic Compliance Matrix: (Units=1/GPa)
#
#
# Indices 1 2 3 4 5 6 
#
# 1 0.006057 -0.001631 -0.003133 0.000000 0.001430 0.000000
# 2 -0.001631 0.020808 0.000427 0.000000 -0.001486 0.000000
# 3 -0.003133 0.000427 0.011844 0.000000 -0.001475 0.000000
# 4 0.000000 0.000000 0.000000 0.069705 0.000000 0.009659
# 5 0.001430 -0.001486 -0.001475 0.000000 0.014988 0.000000
# 6 0.000000 0.000000 0.000000 0.009659 0.000000 0.076711
#
#
# Mechanical properties :
#
#
# Convention : Reuss Voigt Hill
#
# Bulk Modulus (GPa) = 33.29533 53.05934 43.17734
# Shear Modulus (GPa) = 22.85195 37.94911 30.40053
#
# Velocity S-wave (km/s) = 3.11732 4.01718 3.59551
# Velocity P-wave (km/s) = 5.20727 6.63930 5.96640
#
# Compressibility (1/GPa) = 0.03003424
#
# Stress axis : x y z
#
# Youngs Moduli (GPa) = 165.09096 48.05789 84.43263
#
# Poissons Ratio (x) = 0.07840 0.26454
# Poissons Ratio (y) = 0.26931 -0.03604
# Poissons Ratio (z) = 0.51725 -0.02052
#
# Static dielectric constant tensor:
#      x y z
#    x 2.007220 0.000000 -0.073390 
#    y 0.000000 2.032560 0.000000 
#    z -0.073390 0.000000 1.948740 
# 
# From -- ./inp_files/152486.got.cif
#   From: 2010.05.17/outbox.cif.g08.bks.cpg/sg15_77_cif.got.tgz:152486.got - 2010.06.03 18:47:42.
