data_PCOD9275244
_publ_section_title
;
Structure prediction by ZEFSAII (Michael W. Deem and Ramdas Pophale) SiO2 
 PCOD9275244
Probable space group: C 2/C
;
_chemical_formula_sum "Si O2"
_cell_formula_units_Z 48
_cell_length_a 20.925081
_cell_length_b 10.120907
_cell_length_c 9.739889
_cell_angle_alpha 90.000000
_cell_angle_beta 94.823254
_cell_angle_gamma 90.000000
_cell_volume 2055.416996
_symmetry_space_group_name_H-M "C 2/C"
_symmetry_group_IT_number 15
_symmetry_cell_setting 'monoclinic'
loop_
_space_group_symop_operation_xyz
x,y,z
-x,y,1/2-z
-x,-y,-z
x,-y,1/2+z
1/2+x,1/2+y,z
1/2-x,1/2+y,1/2-z
1/2-x,1/2-y,-z
1/2+x,1/2-y,1/2+z
loop_
_atom_site_type_symbol
_atom_site_label
_atom_site_fract_x
_atom_site_fract_y
_atom_site_fract_z
Si Si1 0.248563 0.382512 0.090324
Si Si2 0.751366 0.118968 0.905877
Si Si3 0.944676 0.089758 0.124351
Si Si4 0.896015 0.364805 0.141045
Si Si5 0.404364 0.066545 0.932829
Si Si6 0.532494 0.693253 0.898006
O O1 0.278959 0.499900 0.003187
O O2 0.250000 0.250000 0.000000
O O3 0.275647 0.367046 0.252059
O O4 0.172755 0.417932 0.091316
O O5 0.676595 0.086406 0.872309
O O6 0.750000 0.250000 0.000000
O O7 0.895776 0.206657 0.147831
O O8 0.000000 0.095482 0.250000
O O9 0.923870 0.938006 0.115542
O O10 0.977553 0.137028 0.989245
O O11 0.929207 0.418257 0.283313
O O12 0.923873 0.430036 0.008880
O O13 0.429852 0.187932 0.027005
O O14 0.500000 0.731543 0.750000
#
# Coordination Sequence:
#
# PCOD9275244 Si02
#       6
#     8   8   8   8   8   8
#     4  10  21  39  61  85 116 152 190 239 287 343
#     4  10  21  39  60  87 117 149 191 236 289 344
#     4  10  20  39  58  78 114 150 189 235 279 330
#     4  10  22  38  59  84 114 149 186 234 280 334
#     4  10  22  39  57  84 116 147 189 232 280 337
#     4  10  22  37  56  83 113 151 191 233 281 330
#
# _framework density 23.352926
#
# number of rings (size 3 to 8) (size 9 to 14) (size 15 to 20)
#    0.000    2.000    1.667    1.000    2.333    4.000 
#    0.000    0.000    0.000    0.000    0.000    0.000 
#    0.000    0.000    0.000    0.000    0.000    0.000 
#
# Total GULP energy -133999.297513 kJ/mol
# GULP energy per Si atom -5583.304063 kJ/mol
# Density = 2.329977 g / cm^3
# Si number density = 23.352926 Si / 1000 Ang^3
#
#
#
# Elastic Constant Matrix: (Units=GPa)
#
#
# Indices 1 2 3 4 5 6 
#
# 1 34.0706 -11.8431 13.2175 0.0000 9.6751 0.0000
# 2 -11.8431 133.3520 59.1620 0.0000 16.8606 0.0000
# 3 13.2175 59.1620 208.0555 0.0000 16.3366 0.0000
# 4 0.0000 0.0000 0.0000 15.6868 0.0000 4.3401
# 5 9.6751 16.8606 16.3366 0.0000 24.5000 0.0000
# 6 0.0000 0.0000 0.0000 4.3401 0.0000 25.1911
#
#
#
# Elastic Compliance Matrix: (Units=1/GPa)
#
#
# Indices 1 2 3 4 5 6 
#
# 1 0.037977 0.006949 -0.002992 0.000000 -0.017784 0.000000
# 2 0.006949 0.010354 -0.002755 0.000000 -0.008033 0.000000
# 3 -0.002992 -0.002755 0.005844 0.000000 -0.000819 0.000000
# 4 0.000000 0.000000 0.000000 0.066939 0.000000 -0.011533
# 5 -0.017784 -0.008033 -0.000819 0.000000 0.053914 0.000000
# 6 0.000000 0.000000 0.000000 -0.011533 0.000000 0.041683
#
#
# Mechanical properties :
#
#
# Convention : Reuss Voigt Hill
#
# Bulk Modulus (GPa) = 17.67436 55.17231 36.42334
# Shear Modulus (GPa) = 21.44381 34.07170 27.75775
#
# Velocity S-wave (km/s) = 3.03355 3.82382 3.45138
# Velocity P-wave (km/s) = 4.45586 6.57055 5.61368
#
# Compressibility (1/GPa) = 0.05657913
#
# Stress axis : x y z
#
# Youngs Moduli (GPa) = 26.33145 96.58157 171.10912
#
# Poissons Ratio (x) = -0.67114 0.51199
# Poissons Ratio (y) = -0.18297 0.47140
# Poissons Ratio (z) = 0.07879 0.26608
#
# Static dielectric constant tensor:
#      x y z
#    x 1.932060 0.000000 -0.055260 
#    y 0.000000 2.001960 0.000000 
#    z -0.055260 0.000000 1.934990 
# 
# From -- ./inp_files/68546.got.cif
#   From: 2010.05.17/outbox.cif.g08.bks.cpg/sg15_35_cif.got.tgz:68546.got - 2010.06.03 18:47:42.
