data_PCOD9275641
_publ_section_title
;
Structure prediction by ZEFSAII (Michael W. Deem and Ramdas Pophale) SiO2 
 PCOD9275641
Probable space group: C 2/C
;
_chemical_formula_sum "Si O2"
_cell_formula_units_Z 44
_cell_length_a 17.590816
_cell_length_b 19.503515
_cell_length_c 8.093436
_cell_angle_alpha 90.000000
_cell_angle_beta 126.787075
_cell_angle_gamma 90.000000
_cell_volume 2223.780556
_symmetry_space_group_name_H-M "C 2/C"
_symmetry_group_IT_number 15
_symmetry_cell_setting 'monoclinic'
loop_
_space_group_symop_operation_xyz
x,y,z
-x,y,1/2-z
-x,-y,-z
x,-y,1/2+z
1/2+x,1/2+y,z
1/2-x,1/2+y,1/2-z
1/2-x,1/2-y,-z
1/2+x,1/2-y,1/2+z
loop_
_atom_site_type_symbol
_atom_site_label
_atom_site_fract_x
_atom_site_fract_y
_atom_site_fract_z
Si Si1 0.727371 0.191852 0.336879
Si Si2 0.281457 0.590430 0.970521
Si Si3 0.000000 0.116125 0.750000
Si Si4 0.800654 0.937835 0.108081
Si Si5 0.906949 0.812261 0.833814
Si Si6 0.399882 0.173345 0.627559
O O1 0.750000 0.250000 0.500000
O O2 0.734565 0.117208 0.429086
O O3 0.814007 0.198334 0.323695
O O4 0.635559 0.195211 0.101366
O O5 0.272964 0.516113 0.042947
O O6 0.373854 0.629450 0.162494
O O7 0.295409 0.580583 0.793902
O O8 0.187140 0.633348 0.897853
O O9 0.905419 0.072971 0.664768
O O10 0.984212 0.161742 0.565193
O O11 0.922131 0.741586 0.760690
O O12 0.500000 0.133726 0.750000
#
# Coordination Sequence:
#
# PCOD9275641 Si02
#       6
#     8   8   4   8   8   8
#     4  10  20  39  63  91 126 169 204 258 326 373
#     4  11  23  43  62  89 128 176 202 261 323 383
#     4  10  24  38  62 106 120 162 208 266 318 396
#     4  11  23  41  67  90 131 163 211 255 329 383
#     4  10  22  37  60  91 132 158 210 258 321 372
#     4  11  24  40  62  94 125 169 223 260 303 370
#
# _framework density 19.786125999999999
#
# number of rings (size 3 to 8) (size 9 to 14) (size 15 to 20)
#    0.000    1.455    0.000    7.636    7.636    2.909 
#    0.000    3.636    0.000    0.000    0.000    0.000 
#    0.000    0.000    0.000    0.000    0.000    0.000 
#
# Total GULP energy -122860.591442 kJ/mol
# GULP energy per Si atom -5584.572338 kJ/mol
# Density = 1.974109 g / cm^3
# Si number density = 19.786126 Si / 1000 Ang^3
#
#
#
# Elastic Constant Matrix: (Units=GPa)
#
#
# Indices 1 2 3 4 5 6 
#
# 1 42.3513 24.9119 24.6862 0.0000 -24.1357 0.0000
# 2 24.9119 115.9672 27.7844 0.0000 -7.0584 0.0000
# 3 24.6862 27.7844 85.9625 0.0000 -19.1605 0.0000
# 4 0.0000 0.0000 0.0000 13.6693 0.0000 -19.6990
# 5 -24.1357 -7.0584 -19.1605 0.0000 34.2716 0.0000
# 6 0.0000 0.0000 0.0000 -19.6990 0.0000 20.8344
#
#
#
# Elastic Compliance Matrix: (Units=1/GPa)
#
#
# Indices 1 2 3 4 5 6 
#
# 1 0.047223 -0.007239 -0.004731 0.000000 0.029121 0.000000
# 2 -0.007239 0.010459 -0.002237 0.000000 -0.004194 0.000000
# 3 -0.004731 -0.002237 0.014701 0.000000 0.004427 0.000000
# 4 0.000000 0.000000 0.000000 -0.201770 0.000000 -0.190775
# 5 0.029121 -0.004194 0.004427 0.000000 0.051298 0.000000
# 6 0.000000 0.000000 0.000000 -0.190775 0.000000 -0.132380
#
#
# Mechanical properties :
#
#
# Convention : Reuss Voigt Hill
#
# Bulk Modulus (GPa) = 22.74207 44.33845 33.54026
# Shear Modulus (GPa) = -29.86842 24.88164 -2.49339
#
# Velocity S-wave (km/s) = -3.88953 3.55001 -1.12379
# Velocity P-wave (km/s) = 2.94148 6.26586 3.91207
#
# Compressibility (1/GPa) = 0.04397137
#
# Stress axis : x y z
#
# Youngs Moduli (GPa) = 21.17603 95.61448 68.02205
#
# Poissons Ratio (x) = 0.69211 0.32180
# Poissons Ratio (y) = 0.15328 0.15213
# Poissons Ratio (z) = 0.10018 0.21384
#
# Static dielectric constant tensor:
#      x y z
#    x 1.696610 0.000000 0.000530 
#    y 0.000000 1.700000 0.000000 
#    z 0.000530 0.000000 1.753310 
# 
# From -- ./inp_files/39760.got.cif
#   From: 2010.05.17/outbox.cif.g08.bks.cpg/sg15_20_cif.got.tgz:39760.got - 2010.06.03 18:47:42.
