data_PCOD9275379
_publ_section_title
;
Structure prediction by ZEFSAII (Michael W. Deem and Ramdas Pophale) SiO2 
 PCOD9275379
Probable space group: C 2/C
;
_chemical_formula_sum "Si O2"
_cell_formula_units_Z 64
_cell_length_a 24.395086
_cell_length_b 11.004286
_cell_length_c 11.819080
_cell_angle_alpha 90.000000
_cell_angle_beta 96.306361
_cell_angle_gamma 90.000000
_cell_volume 3153.638392
_symmetry_space_group_name_H-M "C 2/C"
_symmetry_group_IT_number 15
_symmetry_cell_setting 'monoclinic'
loop_
_space_group_symop_operation_xyz
x,y,z
-x,y,1/2-z
-x,-y,-z
x,-y,1/2+z
1/2+x,1/2+y,z
1/2-x,1/2+y,1/2-z
1/2-x,1/2-y,-z
1/2+x,1/2-y,1/2+z
loop_
_atom_site_type_symbol
_atom_site_label
_atom_site_fract_x
_atom_site_fract_y
_atom_site_fract_z
Si Si1 0.997091 0.303792 0.558535
Si Si2 0.741691 0.224107 0.694780
Si Si3 0.116832 0.745267 0.719210
Si Si4 0.915449 0.853044 0.553125
Si Si5 0.724359 0.594336 0.994568
Si Si6 0.043048 0.462622 0.161774
Si Si7 0.704695 0.679781 0.563417
Si Si8 0.901331 0.140092 0.529813
O O1 0.972322 0.394262 0.457892
O O2 0.945294 0.230025 0.599097
O O3 0.034433 0.205919 0.502864
O O4 0.035074 0.393604 0.641742
O O5 0.682821 0.250262 0.738566
O O6 0.750153 0.328188 0.602620
O O7 0.741160 0.105735 0.613014
O O8 0.785417 0.210650 0.803550
O O9 0.087703 0.808865 0.818250
O O10 0.099394 0.603563 0.709446
O O11 0.099310 0.816437 0.601416
O O12 0.858349 0.802673 0.487083
O O13 0.917270 0.999060 0.545977
O O14 0.716313 0.460947 0.039790
O O15 0.663134 0.646233 0.950983
O O16 0.000000 0.428498 0.250000
O O17 0.750000 0.750000 0.500000
#
# Coordination Sequence:
#
# PCOD9275379 Si02
#       8
#     8   8   8   8   8   8   8   8
#     4  10  21  39  61  87 119 152 203 247 305 366
#     4  10  21  42  61  86 123 162 208 249 312 367
#     4  10  20  39  62  85 118 164 201 244 318 369
#     4  11  21  38  61  90 122 159 205 249 308 363
#     4   9  22  40  63  86 120 167 200 257 311 359
#     4  10  20  39  61  83 119 160 192 251 304 364
#     4  11  23  36  60  90 125 161 208 256 301 363
#     4   9  21  38  62  87 117 157 201 258 302 365
#
# _framework density 20.29402
#
# number of rings (size 3 to 8) (size 9 to 14) (size 15 to 20)
#    0.000    2.000    2.500    0.375    1.750    4.000 
#    4.500    2.500    0.000    0.000    0.000    0.000 
#    0.000    0.000    0.000    0.000    0.000    0.000 
#
# Total GULP energy -178416.461312 kJ/mol
# GULP energy per Si atom -5575.514416 kJ/mol
# Density = 2.024783 g / cm^3
# Si number density = 20.294020 Si / 1000 Ang^3
#
#
#
# Elastic Constant Matrix: (Units=GPa)
#
#
# Indices 1 2 3 4 5 6 
#
# 1 44.8126 42.6292 2.4257 0.0000 -4.2254 0.0000
# 2 42.6292 90.4207 14.0545 0.0000 1.4862 0.0000
# 3 2.4257 14.0545 54.8940 0.0000 -2.7381 0.0000
# 4 0.0000 0.0000 0.0000 43.4079 0.0000 42.6717
# 5 -4.2254 1.4862 -2.7381 0.0000 23.3263 0.0000
# 6 0.0000 0.0000 0.0000 42.6717 0.0000 95.7450
#
#
#
# Elastic Compliance Matrix: (Units=1/GPa)
#
#
# Indices 1 2 3 4 5 6 
#
# 1 0.043051 -0.021072 0.003972 0.000000 0.009607 0.000000
# 2 -0.021072 0.021859 -0.004954 0.000000 -0.005791 0.000000
# 3 0.003972 -0.004954 0.019476 0.000000 0.003321 0.000000
# 4 0.000000 0.000000 0.000000 0.041000 0.000000 -0.018273
# 5 0.009607 -0.005791 0.003321 0.000000 0.045369 0.000000
# 6 0.000000 0.000000 0.000000 -0.018273 0.000000 0.018588
#
#
# Mechanical properties :
#
#
# Convention : Reuss Voigt Hill
#
# Bulk Modulus (GPa) = 24.82793 34.26065 29.54429
# Shear Modulus (GPa) = 20.25285 41.23037 30.74161
#
# Velocity S-wave (km/s) = 3.16250 4.51227 3.89628
# Velocity P-wave (km/s) = 5.05923 6.63824 5.90178
#
# Compressibility (1/GPa) = 0.04027722
#
# Stress axis : x y z
#
# Youngs Moduli (GPa) = 23.22804 45.74737 51.34644
#
# Poissons Ratio (x) = 0.96399 -0.20394
# Poissons Ratio (y) = 0.48946 0.25439
# Poissons Ratio (z) = -0.09226 0.22665
#
# Static dielectric constant tensor:
#      x y z
#    x 1.754260 0.000000 0.018590 
#    y 0.000000 1.738740 0.000000 
#    z 0.018590 0.000000 1.740490 
# 
# From -- ./inp_files/117581.got.cif
#   From: 2010.05.17/outbox.cif.g08.bks.cpg/sg15_59_cif.got.tgz:117581.got - 2010.06.03 18:47:42.
