data_PCOD9275203
_publ_section_title
;
Structure prediction by ZEFSAII (Michael W. Deem and Ramdas Pophale) SiO2 
 PCOD9275203
Probable space group: C 2/C
;
_chemical_formula_sum "Si O2"
_cell_formula_units_Z 32
_cell_length_a 8.194820
_cell_length_b 10.382625
_cell_length_c 15.957909
_cell_angle_alpha 90.000000
_cell_angle_beta 76.094946
_cell_angle_gamma 90.000000
_cell_volume 1317.969902
_symmetry_space_group_name_H-M "C 2/C"
_symmetry_group_IT_number 15
_symmetry_cell_setting 'monoclinic'
loop_
_space_group_symop_operation_xyz
x,y,z
-x,y,1/2-z
-x,-y,-z
x,-y,1/2+z
1/2+x,1/2+y,z
1/2-x,1/2+y,1/2-z
1/2-x,1/2-y,-z
1/2+x,1/2-y,1/2+z
loop_
_atom_site_type_symbol
_atom_site_label
_atom_site_fract_x
_atom_site_fract_y
_atom_site_fract_z
Si Si1 0.000000 0.000000 0.500000
Si Si2 0.361826 0.240422 0.608912
Si Si3 0.497079 0.708958 0.587001
Si Si4 0.000000 0.109139 0.250000
Si Si5 0.712654 0.965031 0.897581
O O1 0.918651 0.069051 0.601179
O O2 0.819431 0.027222 0.468926
O O3 0.435306 0.319844 0.519283
O O4 0.160226 0.240590 0.621436
O O5 0.433714 0.299191 0.683352
O O6 0.405793 0.090391 0.591265
O O7 0.379014 0.829454 0.599205
O O8 0.157467 0.030056 0.195683
#
# Coordination Sequence:
#
# PCOD9275203 Si02
#       5
#     4   8   8   4   8
#     4  10  20  38  72  96 122 174 222 268 316 400
#     4  10  24  42  64  98 127 168 225 270 329 404
#     4  10  21  44  68  95 127 174 224 267 324 405
#     4  12  26  42  60 102 136 166 216 278 340 384
#     4  11  24  43  68  95 132 177 217 278 329 392
#
# _framework density 24.279764
#
# number of rings (size 3 to 8) (size 9 to 14) (size 15 to 20)
#    0.000    1.500    2.500    1.500    0.000    7.000 
#    0.000    0.000    0.000    0.000    0.000    0.000 
#    0.000    0.000    0.000    0.000    0.000    0.000 
#
# Total GULP energy -89126.729144 kJ/mol
# GULP energy per Si atom -5570.420571 kJ/mol
# Density = 2.422450 g / cm^3
# Si number density = 24.279764 Si / 1000 Ang^3
#
#
#
# Elastic Constant Matrix: (Units=GPa)
#
#
# Indices 1 2 3 4 5 6 
#
# 1 66.4300 39.2403 41.1230 0.0000 18.9853 0.0000
# 2 39.2403 155.8417 17.2019 0.0000 -1.0471 0.0000
# 3 41.1230 17.2019 78.4990 0.0000 17.1896 0.0000
# 4 0.0000 0.0000 0.0000 20.4548 0.0000 -3.8290
# 5 18.9853 -1.0471 17.1896 0.0000 40.0084 0.0000
# 6 0.0000 0.0000 0.0000 -3.8290 0.0000 52.4605
#
#
#
# Elastic Compliance Matrix: (Units=1/GPa)
#
#
# Indices 1 2 3 4 5 6 
#
# 1 0.028118 -0.005859 -0.011581 0.000000 -0.008521 0.000000
# 2 -0.005859 0.007824 0.000774 0.000000 0.002653 0.000000
# 3 -0.011581 0.000774 0.019238 0.000000 -0.002750 0.000000
# 4 0.000000 0.000000 0.000000 0.049566 0.000000 0.003618
# 5 -0.008521 0.002653 -0.002750 0.000000 0.030289 0.000000
# 6 0.000000 0.000000 0.000000 0.003618 0.000000 0.019326
#
#
# Mechanical properties :
#
#
# Convention : Reuss Voigt Hill
#
# Bulk Modulus (GPa) = 45.76693 55.10013 50.43353
# Shear Modulus (GPa) = 25.64409 36.13176 30.88793
#
# Velocity S-wave (km/s) = 3.25344 3.86183 3.57062
# Velocity P-wave (km/s) = 5.74490 6.52902 6.14947
#
# Compressibility (1/GPa) = 0.02184984
#
# Stress axis : x y z
#
# Youngs Moduli (GPa) = 35.56380 127.80426 51.97968
#
# Poissons Ratio (x) = 0.74882 0.60195
# Poissons Ratio (y) = 0.20837 -0.04023
# Poissons Ratio (z) = 0.41185 -0.09891
#
# Static dielectric constant tensor:
#      x y z
#    x 1.905480 0.000000 -0.048130 
#    y 0.000000 2.343310 0.000000 
#    z -0.048130 0.000000 2.053730 
# 
# From -- ./inp_files/131796.got.cif
#   From: 2010.05.17/outbox.cif.g08.bks.cpg/sg15_66_cif.got.tgz:131796.got - 2010.06.03 18:47:42.
