data_PCOD9275152
_publ_section_title
;
Structure prediction by ZEFSAII (Michael W. Deem and Ramdas Pophale) SiO2 
 PCOD9275152
Probable space group: C 2/C
;
_chemical_formula_sum "Si O2"
_cell_formula_units_Z 56
_cell_length_a 25.727009
_cell_length_b 19.636508
_cell_length_c 5.355675
_cell_angle_alpha 90.000000
_cell_angle_beta 72.482852
_cell_angle_gamma 90.000000
_cell_volume 2580.157812
_symmetry_space_group_name_H-M "C 2/C"
_symmetry_group_IT_number 15
_symmetry_cell_setting 'monoclinic'
loop_
_space_group_symop_operation_xyz
x,y,z
-x,y,1/2-z
-x,-y,-z
x,-y,1/2+z
1/2+x,1/2+y,z
1/2-x,1/2+y,1/2-z
1/2-x,1/2-y,-z
1/2+x,1/2-y,1/2+z
loop_
_atom_site_type_symbol
_atom_site_label
_atom_site_fract_x
_atom_site_fract_y
_atom_site_fract_z
Si Si1 0.500000 0.729186 0.750000
Si Si2 0.926159 0.669209 0.247856
Si Si3 0.705036 0.340558 0.030873
Si Si4 0.186095 0.697393 0.337094
Si Si5 0.845694 0.958428 0.114925
Si Si6 0.371116 0.726190 0.202351
Si Si7 0.500000 0.954516 0.750000
Si Si8 0.942706 0.860324 0.975918
O O1 0.521376 0.786863 0.921902
O O2 0.455666 0.671837 0.726572
O O3 0.872508 0.666180 0.154857
O O4 0.907963 0.720494 0.497036
O O5 0.948149 0.596509 0.302204
O O6 0.762383 0.347976 0.807720
O O7 0.656241 0.336638 0.901780
O O8 0.696777 0.266396 0.165855
O O9 0.694299 0.396353 0.255457
O O10 0.178342 0.726241 0.625693
O O11 0.837310 0.010924 0.354341
O O12 0.906636 0.927550 0.043686
O O13 0.406408 0.693776 0.372383
O O14 0.500000 0.000000 0.500000
O O15 0.000000 0.868459 0.750000
#
# Coordination Sequence:
#
# PCOD9275152 Si02
#       8
#     4   8   8   8   8   8   4   8
#     4  11  20  36  62  96 130 169 204 292 346 387
#     4  10  22  38  65 100 135 170 224 271 358 402
#     4  10  22  41  65  99 129 169 223 278 352 398
#     4  10  20  38  70 103 127 160 218 296 349 403
#     4  12  28  48  65  88 137 192 229 269 324 407
#     4  11  19  38  68 106 132 162 208 301 357 397
#     4  11  28  46  68  94 144 199 232 270 330 423
#     4  12  24  38  68  95 134 168 229 276 338 392
#
# _framework density 21.704097000000001
#
# number of rings (size 3 to 8) (size 9 to 14) (size 15 to 20)
#    0.000    1.143    4.286    2.143    4.000    0.571 
#    0.000    1.429    0.000    0.000    0.000    0.000 
#    0.000    0.000    0.000    0.000    0.000    0.000 
#
# Total GULP energy -155973.399024 kJ/mol
# GULP energy per Si atom -5570.478537 kJ/mol
# Density = 2.165470 g / cm^3
# Si number density = 21.704097 Si / 1000 Ang^3
#
#
#
# Elastic Constant Matrix: (Units=GPa)
#
#
# Indices 1 2 3 4 5 6 
#
# 1 77.5821 19.1207 21.6314 0.0000 -16.4825 0.0000
# 2 19.1207 73.0653 24.5390 0.0000 4.8234 0.0000
# 3 21.6314 24.5390 86.6863 0.0000 -14.3281 0.0000
# 4 0.0000 0.0000 0.0000 42.4140 0.0000 -4.3646
# 5 -16.4825 4.8234 -14.3281 0.0000 39.8967 0.0000
# 6 0.0000 0.0000 0.0000 -4.3646 0.0000 24.2293
#
#
#
# Elastic Compliance Matrix: (Units=1/GPa)
#
#
# Indices 1 2 3 4 5 6 
#
# 1 0.015693 -0.003935 -0.001756 0.000000 0.006328 0.000000
# 2 -0.003935 0.016607 -0.004592 0.000000 -0.005283 0.000000
# 3 -0.001756 -0.004592 0.014082 0.000000 0.004887 0.000000
# 4 0.000000 0.000000 0.000000 0.024022 0.000000 0.004327
# 5 0.006328 -0.005283 0.004887 0.000000 0.030073 0.000000
# 6 0.000000 0.000000 0.000000 0.004327 0.000000 0.042052
#
#
# Mechanical properties :
#
#
# Convention : Reuss Voigt Hill
#
# Bulk Modulus (GPa) = 38.73625 40.87956 39.80791
# Shear Modulus (GPa) = 29.12026 32.77750 30.94888
#
# Velocity S-wave (km/s) = 3.66689 3.89034 3.78027
# Velocity P-wave (km/s) = 5.98450 6.24944 6.11841
#
# Compressibility (1/GPa) = 0.02581561
#
# Stress axis : x y z
#
# Youngs Moduli (GPa) = 63.72070 60.21494 71.01343
#
# Poissons Ratio (x) = 0.23693 0.12472
# Poissons Ratio (y) = 0.25073 0.32612
# Poissons Ratio (z) = 0.11191 0.27653
#
# Static dielectric constant tensor:
#      x y z
#    x 2.291950 0.000000 -0.376480 
#    y 0.000000 1.782380 0.000000 
#    z -0.376480 0.000000 2.206810 
# 
# From -- ./inp_files/17177.got.cif
#   From: 2010.05.17/outbox.cif.g08.bks.cpg/sg15_9_cif.got.tgz:17177.got - 2010.06.03 18:47:42.
