data_PCOD9275249
_publ_section_title
;
Structure prediction by ZEFSAII (Michael W. Deem and Ramdas Pophale) SiO2 
 PCOD9275249
Probable space group: C 2/C
;
_chemical_formula_sum "Si O2"
_cell_formula_units_Z 40
_cell_length_a 21.474746
_cell_length_b 9.324752
_cell_length_c 29.607676
_cell_angle_alpha 90.000000
_cell_angle_beta 161.223431
_cell_angle_gamma 90.000000
_cell_volume 1908.365978
_symmetry_space_group_name_H-M "C 2/C"
_symmetry_group_IT_number 15
_symmetry_cell_setting 'monoclinic'
loop_
_space_group_symop_operation_xyz
x,y,z
-x,y,1/2-z
-x,-y,-z
x,-y,1/2+z
1/2+x,1/2+y,z
1/2-x,1/2+y,1/2-z
1/2-x,1/2-y,-z
1/2+x,1/2-y,1/2+z
loop_
_atom_site_type_symbol
_atom_site_label
_atom_site_fract_x
_atom_site_fract_y
_atom_site_fract_z
Si Si1 0.036780 0.078893 0.327930
Si Si2 0.069201 0.187609 0.903591
Si Si3 0.935093 0.302785 0.082434
Si Si4 0.631634 0.541117 0.523549
Si Si5 0.799152 0.456898 0.733180
O O1 0.961467 0.204143 0.308846
O O2 0.269510 0.100295 0.491806
O O3 0.000000 0.089271 0.250000
O O4 0.970372 0.927658 0.302136
O O5 0.925547 0.313038 0.820222
O O6 0.138608 0.090798 0.993322
O O7 0.250000 0.250000 0.000000
O O8 0.833983 0.189881 0.979313
O O9 0.084390 0.413234 0.163417
O O10 0.764793 0.505183 0.657595
O O11 0.410897 0.557661 0.389271
#
# Coordination Sequence:
#
# PCOD9275249 Si02
#       5
#     8   8   8   8   8
#     4  10  21  36  56  86 117 152 198 248 311 359
#     4  11  23  39  60  92 122 158 206 264 306 361
#     4  10  20  39  58  83 122 158 199 251 299 369
#     4  10  24  40  60  92 123 167 208 245 320 375
#     4  11  22  40  64  87 125 166 204 257 308 377
#
# _framework density 20.960341
#
# number of rings (size 3 to 8) (size 9 to 14) (size 15 to 20)
#    0.000    1.600    2.000    2.400    2.800    0.000 
#    0.000    0.000    0.000   13.200    0.000    0.000 
#    0.000    0.000    0.000    0.000    0.000    0.000 
#
# Total GULP energy -111665.816298 kJ/mol
# GULP energy per Si atom -5583.290815 kJ/mol
# Density = 2.091263 g / cm^3
# Si number density = 20.960341 Si / 1000 Ang^3
#
#
#
# Elastic Constant Matrix: (Units=GPa)
#
#
# Indices 1 2 3 4 5 6 
#
# 1 63.2582 20.4801 -4.2007 0.0011 -11.5165 0.0042
# 2 20.4801 128.2779 22.1031 -0.0020 3.2557 -0.0068
# 3 -4.2007 22.1031 25.3125 0.0170 4.2057 -0.0047
# 4 0.0011 -0.0020 0.0170 22.4900 0.0089 8.0347
# 5 -11.5165 3.2557 4.2057 0.0089 31.8314 0.0005
# 6 0.0042 -0.0068 -0.0047 8.0347 0.0005 28.7306
#
#
#
# Elastic Compliance Matrix: (Units=1/GPa)
#
#
# Indices 1 2 3 4 5 6 
#
# 1 0.018687 -0.004116 0.005626 -0.000008 0.006438 -0.000001
# 2 -0.004116 0.010083 -0.009273 0.000009 -0.001295 -0.000001
# 3 0.005626 -0.009273 0.049119 -0.000043 -0.003506 0.000017
# 4 -0.000008 0.000009 -0.000043 0.049400 -0.000012 -0.013815
# 5 0.006438 -0.001295 -0.003506 -0.000012 0.034341 0.000001
# 6 -0.000001 -0.000001 0.000017 -0.013815 0.000001 0.038669
#
#
# Mechanical properties :
#
#
# Convention : Reuss Voigt Hill
#
# Bulk Modulus (GPa) = 16.03522 32.62373 24.32947
# Shear Modulus (GPa) = 21.13156 28.50817 24.81986
#
# Velocity S-wave (km/s) = 3.17861 3.69195 3.44486
# Velocity P-wave (km/s) = 4.59764 5.81140 5.23978
#
# Compressibility (1/GPa) = 0.06236273
#
# Stress axis : x y z
#
# Youngs Moduli (GPa) = 53.51433 99.17336 20.35862
#
# Poissons Ratio (x) = 0.40821 -0.11453
# Poissons Ratio (y) = 0.22027 0.18878
# Poissons Ratio (z) = -0.30105 0.91961
#
# Static dielectric constant tensor:
#      x y z
#    x 1.772860 0.000040 0.005790 
#    y 0.000040 1.762330 0.000000 
#    z 0.005790 0.000000 1.762990 
# 
# From -- ./inp_files/109763.got.cif
#   From: 2010.05.17/outbox.cif.g08.bks.cpg/sg15_55_cif.got.tgz:109763.got - 2010.06.03 18:47:42.
