data_PCOD9275698
_publ_section_title
;
Structure prediction by ZEFSAII (Michael W. Deem and Ramdas Pophale) SiO2 
 PCOD9275698
Probable space group: C 2/C
;
_chemical_formula_sum "Si O2"
_cell_formula_units_Z 48
_cell_length_a 11.970020
_cell_length_b 33.324768
_cell_length_c 5.692764
_cell_angle_alpha 90.000000
_cell_angle_beta 61.328737
_cell_angle_gamma 90.000000
_cell_volume 1992.399125
_symmetry_space_group_name_H-M "C 2/C"
_symmetry_group_IT_number 15
_symmetry_cell_setting 'monoclinic'
loop_
_space_group_symop_operation_xyz
x,y,z
-x,y,1/2-z
-x,-y,-z
x,-y,1/2+z
1/2+x,1/2+y,z
1/2-x,1/2+y,1/2-z
1/2-x,1/2-y,-z
1/2+x,1/2-y,1/2+z
loop_
_atom_site_type_symbol
_atom_site_label
_atom_site_fract_x
_atom_site_fract_y
_atom_site_fract_z
Si Si1 0.041070 0.082101 0.464720
Si Si2 0.630939 0.827723 0.756487
Si Si3 0.571744 0.256495 0.434144
Si Si4 0.644743 0.986986 0.123862
Si Si5 0.344834 0.345687 0.180015
Si Si6 0.189407 0.601720 0.475463
O O1 0.192034 0.087222 0.305215
O O2 0.000000 0.064947 0.250000
O O3 0.968762 0.125622 0.550709
O O4 0.000000 0.061339 0.750000
O O5 0.500000 0.820866 0.750000
O O6 0.659689 0.783030 0.823736
O O7 0.760352 0.839919 0.496305
O O8 0.598002 0.867630 0.936832
O O9 0.500000 0.261075 0.250000
O O10 0.627547 0.300488 0.423378
O O11 0.500000 0.246889 0.750000
O O12 0.500000 0.004167 0.250000
O O13 0.703951 0.000604 0.312122
O O14 0.637674 0.938959 0.135510
O O15 0.252766 0.369595 0.101540
#
# Coordination Sequence:
#
# PCOD9275698 Si02
#       6
#     8   8   8   8   8   8
#     4  10  20  39  63  98 125 174 232 272 331 397
#     4  11  27  41  64 103 141 184 236 295 350 402
#     4  11  26  45  67  96 144 186 238 294 346 406
#     4  10  25  46  72 104 142 183 222 273 351 427
#     4  11  24  43  69  97 137 190 234 285 346 411
#     4  11  25  41  76  99 140 175 236 292 336 417
#
# _framework density 24.091560999999999
#
# number of rings (size 3 to 8) (size 9 to 14) (size 15 to 20)
#    0.000    1.333    1.667    2.500   11.667    1.333 
#    0.000    0.000    0.000   13.000    0.000    0.000 
#    0.000    0.000    0.000    0.000    0.000    0.000 
#
# Total GULP energy -133792.053664 kJ/mol
# GULP energy per Si atom -5574.668903 kJ/mol
# Density = 2.403673 g / cm^3
# Si number density = 24.091561 Si / 1000 Ang^3
#
#
#
# Elastic Constant Matrix: (Units=GPa)
#
#
# Indices 1 2 3 4 5 6 
#
# 1 45.2609 13.5436 13.9002 0.0000 5.2965 0.0000
# 2 13.5436 115.1504 12.4375 0.0000 17.9553 0.0000
# 3 13.9002 12.4375 134.1260 0.0000 23.4876 0.0000
# 4 0.0000 0.0000 0.0000 33.8605 0.0000 7.3128
# 5 5.2965 17.9553 23.4876 0.0000 36.7314 0.0000
# 6 0.0000 0.0000 0.0000 7.3128 0.0000 15.1502
#
#
#
# Elastic Compliance Matrix: (Units=1/GPa)
#
#
# Indices 1 2 3 4 5 6 
#
# 1 0.023553 -0.002407 -0.002060 0.000000 -0.000903 0.000000
# 2 -0.002407 0.009648 0.000135 0.000000 -0.004455 0.000000
# 3 -0.002060 0.000135 0.008577 0.000000 -0.005253 0.000000
# 4 0.000000 0.000000 0.000000 0.032970 0.000000 -0.015914
# 5 -0.000903 -0.004455 -0.005253 0.000000 0.032892 0.000000
# 6 0.000000 0.000000 0.000000 -0.015914 0.000000 0.073687
#
#
# Mechanical properties :
#
#
# Convention : Reuss Voigt Hill
#
# Bulk Modulus (GPa) = 30.19924 41.58886 35.89405
# Shear Modulus (GPa) = 24.87236 34.12549 29.49893
#
# Velocity S-wave (km/s) = 3.21660 3.76771 3.50301
# Velocity P-wave (km/s) = 5.13398 6.01896 5.59400
#
# Compressibility (1/GPa) = 0.03311342
#
# Stress axis : x y z
#
# Youngs Moduli (GPa) = 42.45828 103.65369 116.59735
#
# Poissons Ratio (x) = 0.24949 0.24015
# Poissons Ratio (y) = 0.10220 -0.01574
# Poissons Ratio (z) = 0.08745 -0.01399
#
# Static dielectric constant tensor:
#      x y z
#    x 1.972060 0.000000 0.028620 
#    y 0.000000 1.926590 0.000000 
#    z 0.028620 0.000000 2.051950 
# 
# From -- ./inp_files/8940.got.cif
#   From: 2010.05.17/outbox.cif.g08.bks.cpg/sg15_5_cif.got.tgz:8940.got - 2010.06.03 18:47:42.
