data_PCOD9275774
_publ_section_title
;
Structure prediction by ZEFSAII (Michael W. Deem and Ramdas Pophale) SiO2 
 PCOD9275774
Probable space group: C 2/C
;
_chemical_formula_sum "Si O2"
_cell_formula_units_Z 64
_cell_length_a 19.901865
_cell_length_b 22.337320
_cell_length_c 8.845687
_cell_angle_alpha 90.000000
_cell_angle_beta 49.198782
_cell_angle_gamma 90.000000
_cell_volume 2976.743976
_symmetry_space_group_name_H-M "C 2/C"
_symmetry_group_IT_number 15
_symmetry_cell_setting 'monoclinic'
loop_
_space_group_symop_operation_xyz
x,y,z
-x,y,1/2-z
-x,-y,-z
x,-y,1/2+z
1/2+x,1/2+y,z
1/2-x,1/2+y,1/2-z
1/2-x,1/2-y,-z
1/2+x,1/2-y,1/2+z
loop_
_atom_site_type_symbol
_atom_site_label
_atom_site_fract_x
_atom_site_fract_y
_atom_site_fract_z
Si Si1 0.697760 0.432369 0.824836
Si Si2 0.510899 0.171130 0.908586
Si Si3 0.001983 0.934619 0.069516
Si Si4 0.327737 0.645310 0.847215
Si Si5 0.332186 0.857091 0.133141
Si Si6 0.284378 0.027496 0.885933
Si Si7 0.085812 0.264818 0.713427
Si Si8 0.047984 0.448167 0.838940
O O1 0.705400 0.496096 0.904942
O O2 0.757880 0.442347 0.585810
O O3 0.602609 0.412453 0.896717
O O4 0.713604 0.387435 0.943133
O O5 0.500000 0.168075 0.750000
O O6 0.612904 0.176626 0.814849
O O7 0.450476 0.222352 0.067598
O O8 0.469573 0.110961 0.040114
O O9 0.000000 0.944930 0.250000
O O10 0.918501 0.890325 0.167583
O O11 0.000000 0.000000 0.000000
O O12 0.266187 0.648185 0.789681
O O13 0.344658 0.712302 0.879873
O O14 0.329936 0.923965 0.207738
O O15 0.384444 0.826269 0.913865
O O16 0.352584 0.973409 0.822377
O O17 0.000000 0.241758 0.750000
O O18 0.000000 0.440921 0.750000
O O19 0.000000 0.500000 0.000000
#
# Coordination Sequence:
#
# PCOD9275774 Si02
#       8
#     8   8   8   8   8   8   8   8
#     4  11  24  38  64  98 140 175 231 285 348 418
#     4  11  26  45  69 102 141 184 233 292 350 423
#     4  10  20  39  64  93 131 174 220 280 348 407
#     4  11  24  45  72  98 133 189 237 287 354 423
#     4  11  24  44  68  99 136 179 232 286 352 414
#     4  12  25  39  63 104 142 183 227 292 351 425
#     4  10  23  47  74  96 137 190 241 286 349 424
#     4  12  24  40  65 100 144 186 224 272 361 433
#
# _framework density 21.500001000000001
#
# number of rings (size 3 to 8) (size 9 to 14) (size 15 to 20)
#    0.000    1.000    1.250    6.750    7.000    0.000 
#    0.000    5.625    0.000    0.000    0.000    0.000 
#    0.000    0.000    0.000    0.000    0.000    0.000 
#
# Total GULP energy -178233.107123 kJ/mol
# GULP energy per Si atom -5569.784598 kJ/mol
# Density = 2.145107 g / cm^3
# Si number density = 21.500001 Si / 1000 Ang^3
#
#
#
# Elastic Constant Matrix: (Units=GPa)
#
#
# Indices 1 2 3 4 5 6 
#
# 1 138.5536 38.8054 66.5023 0.0000 -2.0623 0.0000
# 2 38.8054 87.4578 47.1702 0.0000 9.7317 0.0000
# 3 66.5023 47.1702 106.7276 0.0000 17.1643 0.0000
# 4 0.0000 0.0000 0.0000 34.4826 0.0000 -10.2428
# 5 -2.0623 9.7317 17.1643 0.0000 36.2152 0.0000
# 6 0.0000 0.0000 0.0000 -10.2428 0.0000 1.8936
#
#
#
# Elastic Compliance Matrix: (Units=1/GPa)
#
#
# Indices 1 2 3 4 5 6 
#
# 1 0.011028 -0.001698 -0.006815 0.000000 0.004314 0.000000
# 2 -0.001698 0.015305 -0.005445 0.000000 -0.001629 0.000000
# 3 -0.006815 -0.005445 0.017158 0.000000 -0.007057 0.000000
# 4 0.000000 0.000000 0.000000 -0.047797 0.000000 -0.258538
# 5 0.004314 -0.001629 -0.007057 0.000000 0.031641 0.000000
# 6 0.000000 0.000000 0.000000 -0.258538 0.000000 -0.870375
#
#
# Mechanical properties :
#
#
# Convention : Reuss Voigt Hill
#
# Bulk Modulus (GPa) = 64.20172 70.85498 67.52835
# Shear Modulus (GPa) = -6.17335 26.53571 10.18118
#
# Velocity S-wave (km/s) = -1.69634 3.51696 2.17847
# Velocity P-wave (km/s) = 5.10777 7.03700 6.14852
#
# Compressibility (1/GPa) = 0.01557591
#
# Stress axis : x y z
#
# Youngs Moduli (GPa) = 90.67607 65.33764 58.28329
#
# Poissons Ratio (x) = 0.11091 0.39722
# Poissons Ratio (y) = 0.15392 0.31733
# Poissons Ratio (z) = 0.61799 0.35574
#
# Static dielectric constant tensor:
#      x y z
#    x 1.835670 0.000000 -0.071590 
#    y 0.000000 1.813250 0.000000 
#    z -0.071590 0.000000 1.813260 
# 
# From -- ./inp_files/58622.got.cif
#   From: 2010.05.17/outbox.cif.g08.bks.cpg/sg15_30_cif.got.tgz:58622.got - 2010.06.03 18:47:42.
