data_PCOD9275787
_publ_section_title
;
Structure prediction by ZEFSAII (Michael W. Deem and Ramdas Pophale) SiO2 
 PCOD9275787
Probable space group: C 2/C
;
_chemical_formula_sum "Si O2"
_cell_formula_units_Z 64
_cell_length_a 14.443183
_cell_length_b 28.720107
_cell_length_c 10.188784
_cell_angle_alpha 90.000000
_cell_angle_beta 132.932311
_cell_angle_gamma 90.000000
_cell_volume 3094.401547
_symmetry_space_group_name_H-M "C 2/C"
_symmetry_group_IT_number 15
_symmetry_cell_setting 'monoclinic'
loop_
_space_group_symop_operation_xyz
x,y,z
-x,y,1/2-z
-x,-y,-z
x,-y,1/2+z
1/2+x,1/2+y,z
1/2-x,1/2+y,1/2-z
1/2-x,1/2-y,-z
1/2+x,1/2-y,1/2+z
loop_
_atom_site_type_symbol
_atom_site_label
_atom_site_fract_x
_atom_site_fract_y
_atom_site_fract_z
Si Si1 0.692481 0.702574 0.883432
Si Si2 0.790080 0.511424 0.316491
Si Si3 0.020561 0.567038 0.613259
Si Si4 0.659100 0.839856 0.204295
Si Si5 0.134403 0.994477 0.932340
Si Si6 0.446667 0.677471 0.504342
Si Si7 0.087225 0.886542 0.957267
Si Si8 0.124986 0.242723 0.291780
O O1 0.792025 0.674695 0.891944
O O2 0.568694 0.708651 0.669263
O O3 0.750000 0.750000 0.000000
O O4 0.639991 0.672233 0.952801
O O5 0.872179 0.467981 0.339545
O O6 0.730160 0.503254 0.401817
O O7 0.888739 0.553001 0.422156
O O8 0.683852 0.521386 0.106541
O O9 0.061761 0.618434 0.616675
O O10 0.000000 0.438300 0.250000
O O11 0.781990 0.858138 0.404500
O O12 0.602616 0.793372 0.209428
O O13 0.117391 0.940977 0.966740
O O14 0.000000 0.010820 0.750000
O O15 0.506309 0.630300 0.504355
O O16 0.367979 0.705179 0.318101
O O17 0.000000 0.873966 0.750000
O O18 0.250000 0.250000 0.500000
O O19 0.000000 0.229506 0.250000
#
# Coordination Sequence:
#
# PCOD9275787 Si02
#       8
#     8   8   8   8   8   8   8   8
#     4  10  20  39  65  87 134 182 225 277 336 408
#     4  11  22  43  71 100 134 182 226 275 369 412
#     4  11  22  41  71  97 141 183 221 290 343 413
#     4  11  21  39  64  98 131 176 234 279 336 405
#     4  11  23  42  73 100 135 175 228 287 345 427
#     4  10  21  38  64  91 131 187 220 276 347 393
#     4  10  20  39  64  94 134 172 223 283 342 397
#     4  12  24  38  64  98 130 176 229 278 332 408
#
# _framework density 20.682511999999999
#
# number of rings (size 3 to 8) (size 9 to 14) (size 15 to 20)
#    0.000    1.250    3.750    3.375    0.000    0.000 
#    0.000    3.750    5.500    0.000    0.000    0.000 
#    0.000    0.000    0.000    0.000    0.000    0.000 
#
# Total GULP energy -178751.520426 kJ/mol
# GULP energy per Si atom -5585.985013 kJ/mol
# Density = 2.063544 g / cm^3
# Si number density = 20.682512 Si / 1000 Ang^3
#
#
#
# Elastic Constant Matrix: (Units=GPa)
#
#
# Indices 1 2 3 4 5 6 
#
# 1 80.3442 47.6519 25.6912 0.0000 -17.7030 0.0000
# 2 47.6519 84.0291 35.6096 0.0000 -7.7759 0.0000
# 3 25.6912 35.6096 110.1341 0.0000 -8.5116 0.0000
# 4 0.0000 0.0000 0.0000 23.1858 0.0000 0.1390
# 5 -17.7030 -7.7759 -8.5116 0.0000 27.5843 0.0000
# 6 0.0000 0.0000 0.0000 0.1390 0.0000 27.8632
#
#
#
# Elastic Compliance Matrix: (Units=1/GPa)
#
#
# Indices 1 2 3 4 5 6 
#
# 1 0.021435 -0.010904 -0.000665 0.000000 0.010477 0.000000
# 2 -0.010904 0.019518 -0.003978 0.000000 -0.002723 0.000000
# 3 -0.000665 -0.003978 0.010655 0.000000 0.001740 0.000000
# 4 0.000000 0.000000 0.000000 0.043131 0.000000 -0.000215
# 5 0.010477 -0.002723 0.001740 0.000000 0.042746 0.000000
# 6 0.000000 0.000000 0.000000 -0.000215 0.000000 0.035891
#
#
# Mechanical properties :
#
#
# Convention : Reuss Voigt Hill
#
# Bulk Modulus (GPa) = 48.74439 54.71253 51.72846
# Shear Modulus (GPa) = 23.66224 26.76364 25.21294
#
# Velocity S-wave (km/s) = 3.38608 3.60116 3.49527
# Velocity P-wave (km/s) = 6.23751 6.61831 6.43073
#
# Compressibility (1/GPa) = 0.02051518
#
# Stress axis : x y z
#
# Youngs Moduli (GPa) = 46.65303 51.23525 93.84881
#
# Poissons Ratio (x) = 0.55868 0.06239
# Poissons Ratio (y) = 0.50871 0.37329
# Poissons Ratio (z) = 0.03101 0.20379
#
# Static dielectric constant tensor:
#      x y z
#    x 1.679800 0.000000 0.013390 
#    y 0.000000 1.731790 0.000000 
#    z 0.013390 0.000000 1.761600 
# 
# From -- ./inp_files/44879.got.cif
#   From: 2010.05.17/outbox.cif.g08.bks.cpg/sg15_23_cif.got.tgz:44879.got - 2010.06.03 18:47:42.
