data_PCOD9275652
_publ_section_title
;
Structure prediction by ZEFSAII (Michael W. Deem and Ramdas Pophale) SiO2 
 PCOD9275652
Probable space group: C 2/C
;
_chemical_formula_sum "Si O2"
_cell_formula_units_Z 48
_cell_length_a 10.348963
_cell_length_b 15.009805
_cell_length_c 29.625692
_cell_angle_alpha 90.000000
_cell_angle_beta 144.785384
_cell_angle_gamma 90.000000
_cell_volume 2653.662680
_symmetry_space_group_name_H-M "C 2/C"
_symmetry_group_IT_number 15
_symmetry_cell_setting 'monoclinic'
loop_
_space_group_symop_operation_xyz
x,y,z
-x,y,1/2-z
-x,-y,-z
x,-y,1/2+z
1/2+x,1/2+y,z
1/2-x,1/2+y,1/2-z
1/2-x,1/2-y,-z
1/2+x,1/2-y,1/2+z
loop_
_atom_site_type_symbol
_atom_site_label
_atom_site_fract_x
_atom_site_fract_y
_atom_site_fract_z
Si Si1 0.119008 0.644643 0.660575
Si Si2 0.569300 0.353924 0.338252
Si Si3 0.266247 0.993596 0.564990
Si Si4 0.886648 0.347477 0.667436
Si Si5 0.229577 0.493128 0.038326
Si Si6 0.077265 0.813685 0.923985
O O1 0.232063 0.635987 0.642803
O O2 0.327185 0.617300 0.750689
O O3 0.898433 0.586856 0.604386
O O4 0.044715 0.747139 0.645752
O O5 0.548600 0.246859 0.336560
O O6 0.628217 0.416508 0.396543
O O7 0.402833 0.929394 0.637921
O O8 0.291804 0.966129 0.520039
O O9 0.000000 0.000000 0.500000
O O10 0.620964 0.341416 0.599486
O O11 0.000000 0.355871 0.750000
O O12 0.326838 0.594033 0.067032
O O13 0.000000 0.500000 0.000000
O O14 0.250000 0.750000 0.000000
#
# Coordination Sequence:
#
# PCOD9275652 Si02
#       6
#     8   8   8   8   8   8
#     4  10  20  39  63  92 122 171 213 254 311 388
#     4  10  21  39  65  92 125 166 216 260 313 381
#     4  12  24  38  63  98 128 164 213 265 317 375
#     4  11  22  41  64  91 126 171 209 254 325 383
#     4  12  23  39  65  98 126 165 213 263 320 376
#     4  11  19  39  65  89 119 172 211 245 310 395
#
# _framework density 18.088207000000001
#
# number of rings (size 3 to 8) (size 9 to 14) (size 15 to 20)
#    0.000    1.000    8.333    1.000    2.333    0.667 
#    0.000    0.000    0.000    0.000    0.000    0.000 
#    0.000    0.000    0.000    0.000    0.000    0.000 
#
# Total GULP energy -133650.496613 kJ/mol
# GULP energy per Si atom -5568.770692 kJ/mol
# Density = 1.804704 g / cm^3
# Si number density = 18.088207 Si / 1000 Ang^3
#
#
#
# Elastic Constant Matrix: (Units=GPa)
#
#
# Indices 1 2 3 4 5 6 
#
# 1 63.4629 30.9434 36.6508 0.0000 -0.9444 0.0000
# 2 30.9434 123.3944 52.6086 0.0000 -21.3127 0.0000
# 3 36.6508 52.6086 89.7614 0.0000 -8.7601 0.0000
# 4 0.0000 0.0000 0.0000 37.8540 0.0000 0.3702
# 5 -0.9444 -21.3127 -8.7601 0.0000 38.3236 0.0000
# 6 0.0000 0.0000 0.0000 0.3702 0.0000 37.5037
#
#
#
# Elastic Compliance Matrix: (Units=1/GPa)
#
#
# Indices 1 2 3 4 5 6 
#
# 1 0.021277 -0.002635 -0.007400 0.000000 -0.002633 0.000000
# 2 -0.002635 0.012012 -0.005440 0.000000 0.005372 0.000000
# 3 -0.007400 -0.005440 0.017426 0.000000 0.000776 0.000000
# 4 0.000000 0.000000 0.000000 0.026420 0.000000 -0.000261
# 5 -0.002633 0.005372 0.000776 0.000000 0.029193 0.000000
# 6 0.000000 0.000000 0.000000 -0.000261 0.000000 0.026667
#
#
# Mechanical properties :
#
#
# Convention : Reuss Voigt Hill
#
# Bulk Modulus (GPa) = 50.59577 57.44714 54.02146
# Shear Modulus (GPa) = 29.31986 33.16401 31.24193
#
# Velocity S-wave (km/s) = 4.03045 4.28654 4.16047
# Velocity P-wave (km/s) = 7.04924 7.50517 7.28078
#
# Compressibility (1/GPa) = 0.01976450
#
# Stress axis : x y z
#
# Youngs Moduli (GPa) = 47.00009 83.24987 57.38508
#
# Poissons Ratio (x) = 0.21939 0.42465
# Poissons Ratio (y) = 0.12386 0.31217
# Poissons Ratio (z) = 0.34780 0.45287
#
# Static dielectric constant tensor:
#      x y z
#    x 1.645800 0.000000 -0.004440 
#    y 0.000000 1.660670 0.000000 
#    z -0.004440 0.000000 1.690150 
# 
# From -- ./inp_files/289108.got.cif
#   From: 2010.05.17/outbox.cif.g08.bks.cpg/sg15_145_cif.got.tgz:289108.got - 2010.06.03 18:47:42.
