data_PCOD9275759
_publ_section_title
;
Structure prediction by ZEFSAII (Michael W. Deem and Ramdas Pophale) SiO2 
 PCOD9275759
Probable space group: C 2/C
;
_chemical_formula_sum "Si O2"
_cell_formula_units_Z 60
_cell_length_a 26.886420
_cell_length_b 8.671135
_cell_length_c 21.954105
_cell_angle_alpha 90.000000
_cell_angle_beta 143.899531
_cell_angle_gamma 90.000000
_cell_volume 3015.710107
_symmetry_space_group_name_H-M "C 2/C"
_symmetry_group_IT_number 15
_symmetry_cell_setting 'monoclinic'
loop_
_space_group_symop_operation_xyz
x,y,z
-x,y,1/2-z
-x,-y,-z
x,-y,1/2+z
1/2+x,1/2+y,z
1/2-x,1/2+y,1/2-z
1/2-x,1/2-y,-z
1/2+x,1/2-y,1/2+z
loop_
_atom_site_type_symbol
_atom_site_label
_atom_site_fract_x
_atom_site_fract_y
_atom_site_fract_z
Si Si1 0.392423 0.610430 0.228307
Si Si2 0.697459 0.681847 0.740551
Si Si3 0.000000 0.321270 0.250000
Si Si4 0.281279 0.573131 0.527255
Si Si5 0.159301 0.185690 0.034663
Si Si6 0.486730 0.421421 0.421657
Si Si7 0.755333 0.661879 0.336262
Si Si8 0.365389 0.975914 0.045127
O O1 0.433360 0.712976 0.217247
O O2 0.343970 0.472134 0.144460
O O3 0.459926 0.539775 0.341734
O O4 0.324960 0.704801 0.201866
O O5 0.597116 0.686683 0.655093
O O6 0.727366 0.505930 0.782093
O O7 0.718406 0.728783 0.692359
O O8 0.756171 0.787615 0.842007
O O9 0.955840 0.426863 0.156574
O O10 0.250000 0.750000 0.500000
O O11 0.323040 0.563674 0.502152
O O12 0.199678 0.470437 0.462183
O O13 0.139038 0.350612 0.983822
O O14 0.076957 0.147610 0.992467
O O15 0.500000 0.500000 0.500000
O O16 0.831272 0.632599 0.458009
#
# Coordination Sequence:
#
# PCOD9275759 Si02
#       8
#     8   8   4   8   8   8   8   8
#     4  10  22  39  58  88 126 157 199 263 304 372
#     4  10  21  41  62  91 124 160 208 262 303 370
#     4  12  24  38  54  92 130 160 202 244 320 380
#     4   9  18  38  65  87 115 157 203 256 318 370
#     4  10  20  39  64  92 122 158 209 256 317 368
#     4  11  23  39  65  93 120 162 213 260 308 368
#     4   9  20  42  61  82 119 161 204 252 308 367
#     4   9  22  38  57  85 125 158 198 254 300 378
#
# _framework density 19.895811999999999
#
# number of rings (size 3 to 8) (size 9 to 14) (size 15 to 20)
#    0.000    2.133    0.000    4.800    1.867    5.333 
#    9.600    1.333    0.000    0.000    0.000    0.000 
#    0.000    0.000    0.000    0.000    0.000    0.000 
#
# Total GULP energy -167398.075699 kJ/mol
# GULP energy per Si atom -5579.935857 kJ/mol
# Density = 1.985053 g / cm^3
# Si number density = 19.895812 Si / 1000 Ang^3
#
#
#
# Elastic Constant Matrix: (Units=GPa)
#
#
# Indices 1 2 3 4 5 6 
#
# 1 145.2446 26.6411 35.4769 0.0000 2.0038 0.0000
# 2 26.6411 17.2908 27.7449 0.0000 -3.3254 0.0000
# 3 35.4769 27.7449 107.7024 0.0000 4.4207 0.0000
# 4 0.0000 0.0000 0.0000 15.8528 0.0000 -5.8572
# 5 2.0038 -3.3254 4.4207 0.0000 24.5672 0.0000
# 6 0.0000 0.0000 0.0000 -5.8572 0.0000 29.5268
#
#
#
# Elastic Compliance Matrix: (Units=1/GPa)
#
#
# Indices 1 2 3 4 5 6 
#
# 1 0.009968 -0.018813 0.001714 0.000000 -0.003668 0.000000
# 2 -0.018813 0.142732 -0.031662 0.000000 0.026552 0.000000
# 3 0.001714 -0.031662 0.017185 0.000000 -0.007518 0.000000
# 4 0.000000 0.000000 0.000000 0.068069 0.000000 0.013503
# 5 -0.003668 0.026552 -0.007518 0.000000 0.045951 0.000000
# 6 0.000000 0.000000 0.000000 0.013503 0.000000 0.036546
#
#
# Mechanical properties :
#
#
# Convention : Reuss Voigt Hill
#
# Bulk Modulus (GPa) = 13.81930 49.99597 31.90763
# Shear Modulus (GPa) = 11.30982 26.01434 18.66208
#
# Velocity S-wave (km/s) = 2.38681 3.61990 3.06599
# Velocity P-wave (km/s) = 3.81533 6.53108 5.34845
#
# Compressibility (1/GPa) = 0.07236259
#
# Stress axis : x y z
#
# Youngs Moduli (GPa) = 100.32399 7.00616 58.18944
#
# Poissons Ratio (x) = 0.13181 -0.09971
# Poissons Ratio (y) = 1.88739 1.84237
# Poissons Ratio (z) = -0.17191 0.22183
#
# Static dielectric constant tensor:
#      x y z
#    x 1.739240 0.000000 0.019670 
#    y 0.000000 1.697730 0.000000 
#    z 0.019670 0.000000 1.689190 
# 
# From -- ./inp_files/224255.got.cif
#   From: 2010.05.17/outbox.cif.g08.bks.cpg/sg15_113_cif.got.tgz:224255.got - 2010.06.03 18:47:42.
