data_PCOD9275239
_publ_section_title
;
Structure prediction by ZEFSAII (Michael W. Deem and Ramdas Pophale) SiO2 
 PCOD9275239
Probable space group: C 2/C
;
_chemical_formula_sum "Si O2"
_cell_formula_units_Z 36
_cell_length_a 7.924467
_cell_length_b 13.113581
_cell_length_c 22.804820
_cell_angle_alpha 90.000000
_cell_angle_beta 138.281092
_cell_angle_gamma 90.000000
_cell_volume 1577.069659
_symmetry_space_group_name_H-M "C 2/C"
_symmetry_group_IT_number 15
_symmetry_cell_setting 'monoclinic'
loop_
_space_group_symop_operation_xyz
x,y,z
-x,y,1/2-z
-x,-y,-z
x,-y,1/2+z
1/2+x,1/2+y,z
1/2-x,1/2+y,1/2-z
1/2-x,1/2-y,-z
1/2+x,1/2-y,1/2+z
loop_
_atom_site_type_symbol
_atom_site_label
_atom_site_fract_x
_atom_site_fract_y
_atom_site_fract_z
Si Si1 0.000000 0.046670 0.750000
Si Si2 0.779005 0.899058 0.304174
Si Si3 0.367886 0.917187 0.925199
Si Si4 0.536359 0.201175 0.360796
Si Si5 0.876047 0.136916 0.345106
O O1 0.197988 0.103601 0.760561
O O2 0.161747 0.979437 0.834814
O O3 0.500000 0.866360 0.250000
O O4 0.987377 0.814510 0.372585
O O5 0.824687 0.013944 0.339322
O O6 0.540114 0.867446 0.919795
O O7 0.174413 0.844547 0.911060
O O8 0.500000 0.000000 0.000000
O O9 0.767729 0.190042 0.375550
O O10 0.296440 0.168352 0.256335
#
# Coordination Sequence:
#
# PCOD9275239 Si02
#       5
#     4   8   8   8   8
#     4  10  20  40  56  88 120 158 210 256 308 370
#     4  11  19  33  65  88 118 166 205 257 312 368
#     4  11  21  37  63  88 124 166 202 257 314 370
#     4  11  20  37  62  90 119 164 210 247 321 368
#     4  10  20  39  57  90 124 156 210 262 301 369
#
# _framework density 22.827147
#
# number of rings (size 3 to 8) (size 9 to 14) (size 15 to 20)
#    0.000    1.333    6.667    2.667    0.000    0.889 
#    0.000    4.444    0.000   22.667    0.000    0.000 
#    0.000    0.000    0.000    0.000    0.000    0.000 
#
# Total GULP energy -100418.233072 kJ/mol
# GULP energy per Si atom -5578.790726 kJ/mol
# Density = 2.277519 g / cm^3
# Si number density = 22.827147 Si / 1000 Ang^3
#
#
#
# Elastic Constant Matrix: (Units=GPa)
#
#
# Indices 1 2 3 4 5 6 
#
# 1 181.4249 3.8253 19.3835 -0.0001 -18.2179 -0.0005
# 2 3.8253 88.6394 11.0412 0.0000 -10.5702 0.0000
# 3 19.3835 11.0412 55.2746 0.0000 5.9879 -0.0003
# 4 -0.0001 0.0000 0.0000 -4.9782 0.0000 -88.9532
# 5 -18.2179 -10.5702 5.9879 0.0000 11.8541 -0.0001
# 6 -0.0005 0.0000 -0.0003 -88.9532 -0.0001 -699.6001
#
#
#
# Elastic Compliance Matrix: (Units=1/GPa)
#
#
# Indices 1 2 3 4 5 6 
#
# 1 0.007598 0.002193 -0.004844 0.000000 0.016079 0.000000
# 2 0.002193 0.014132 -0.005630 0.000000 0.018816 0.000000
# 3 -0.004844 -0.005630 0.023554 0.000000 -0.024363 0.000000
# 4 0.000000 0.000000 0.000000 0.157925 0.000000 -0.020080
# 5 0.016079 0.018816 -0.024363 0.000000 0.138154 0.000000
# 6 0.000000 0.000000 0.000000 -0.020080 0.000000 0.001124
#
#
# Mechanical properties :
#
#
# Convention : Reuss Voigt Hill
#
# Bulk Modulus (GPa) = 34.81769 43.75987 39.28878
# Shear Modulus (GPa) = 13.56397 -119.13890 -52.78747
#
# Velocity S-wave (km/s) = 2.44027 -7.23222 -4.81405
# Velocity P-wave (km/s) = 4.81931 7.10833 3.69477
#
# Compressibility (1/GPa) = 0.02872103
#
# Stress axis : x y z
#
# Youngs Moduli (GPa) = 131.61637 70.76091 42.45541
#
# Poissons Ratio (x) = -0.15517 0.20567
# Poissons Ratio (y) = -0.28863 0.23903
# Poissons Ratio (z) = 0.63758 0.39840
#
# Static dielectric constant tensor:
#      x y z
#    x 2.052700 0.000000 0.014190 
#    y 0.000000 2.017770 0.000000 
#    z 0.014190 0.000000 1.827390 
# 
# From -- ./inp_files/132778.got.cif
#   From: 2010.05.17/outbox.cif.g08.bks.cpg/sg15_67_cif.got.tgz:132778.got - 2010.06.03 18:47:42.
