data_PCOD9275154
_publ_section_title
;
Structure prediction by ZEFSAII (Michael W. Deem and Ramdas Pophale) SiO2 
 PCOD9275154
Probable space group: C 2/C
;
_chemical_formula_sum "Si O2"
_cell_formula_units_Z 28
_cell_length_a 7.176349
_cell_length_b 17.910274
_cell_length_c 12.271301
_cell_angle_alpha 90.000000
_cell_angle_beta 59.427141
_cell_angle_gamma 90.000000
_cell_volume 1357.972572
_symmetry_space_group_name_H-M "C 2/C"
_symmetry_group_IT_number 15
_symmetry_cell_setting 'monoclinic'
loop_
_space_group_symop_operation_xyz
x,y,z
-x,y,1/2-z
-x,-y,-z
x,-y,1/2+z
1/2+x,1/2+y,z
1/2-x,1/2+y,1/2-z
1/2-x,1/2-y,-z
1/2+x,1/2-y,1/2+z
loop_
_atom_site_type_symbol
_atom_site_label
_atom_site_fract_x
_atom_site_fract_y
_atom_site_fract_z
Si Si1 0.617484 0.079630 0.980181
Si Si2 0.000000 0.449884 0.750000
Si Si3 0.406315 0.552912 0.622629
Si Si4 0.364164 0.187441 0.894182
O O1 0.515580 0.139713 0.930123
O O2 0.871961 0.071760 0.881420
O O3 0.573046 0.096296 0.121899
O O4 0.500000 0.000000 0.000000
O O5 0.798892 0.503878 0.776533
O O6 0.500000 0.500000 0.500000
O O7 0.307124 0.628501 0.603749
O O8 0.500000 0.216864 0.750000
O O9 0.250000 0.250000 0.000000
#
# Coordination Sequence:
#
# PCOD9275154 Si02
#       4
#     8   4   8   8
#     4  11  22  41  69 101 135 177 228 288 338 406
#     4  10  20  38  70 106 128 172 234 286 342 394
#     4  10  20  42  68 101 133 175 231 276 341 405
#     4  12  27  47  66 102 143 185 226 283 348 408
#
# _framework density 20.618973
#
# number of rings (size 3 to 8) (size 9 to 14) (size 15 to 20)
#    0.000    1.143    7.143    0.000    0.000   10.286 
#    0.000    0.000    0.000    0.000    0.000    0.000 
#    0.000    0.000    0.000    0.000    0.000    0.000 
#
# Total GULP energy -78169.807421 kJ/mol
# GULP energy per Si atom -5583.557673 kJ/mol
# Density = 2.057204 g / cm^3
# Si number density = 20.618973 Si / 1000 Ang^3
#
#
#
# Elastic Constant Matrix: (Units=GPa)
#
#
# Indices 1 2 3 4 5 6 
#
# 1 170.5972 29.7372 55.1538 0.0000 -25.2058 0.0000
# 2 29.7372 66.1829 55.9112 0.0000 -5.8712 0.0000
# 3 55.1538 55.9112 206.8957 0.0000 -8.1646 0.0000
# 4 0.0000 0.0000 0.0000 34.7132 0.0000 -3.4478
# 5 -25.2058 -5.8712 -8.1646 0.0000 41.2265 0.0000
# 6 0.0000 0.0000 0.0000 -3.4478 0.0000 13.7503
#
#
#
# Elastic Compliance Matrix: (Units=1/GPa)
#
#
# Indices 1 2 3 4 5 6 
#
# 1 0.007157 -0.001801 -0.001269 0.000000 0.003868 0.000000
# 2 -0.001801 0.020160 -0.004936 0.000000 0.000792 0.000000
# 3 -0.001269 -0.004936 0.006498 0.000000 -0.000192 0.000000
# 4 0.000000 0.000000 0.000000 0.029543 0.000000 0.007408
# 5 0.003868 0.000792 -0.000192 0.000000 0.026696 0.000000
# 6 0.000000 0.000000 0.000000 0.007408 0.000000 0.074583
#
#
# Mechanical properties :
#
#
# Convention : Reuss Voigt Hill
#
# Bulk Modulus (GPa) = 56.17177 80.58671 68.37924
# Shear Modulus (GPa) = 26.79756 38.12958 32.46357
#
# Velocity S-wave (km/s) = 3.60898 4.30495 3.97224
# Velocity P-wave (km/s) = 6.68343 7.99242 7.36706
#
# Compressibility (1/GPa) = 0.01780254
#
# Stress axis : x y z
#
# Youngs Moduli (GPa) = 139.71561 49.60438 153.89329
#
# Poissons Ratio (x) = 0.08934 0.19523
# Poissons Ratio (y) = 0.25164 0.75969
# Poissons Ratio (z) = 0.17725 0.24487
#
# Static dielectric constant tensor:
#      x y z
#    x 1.787890 0.000000 0.038620 
#    y 0.000000 1.674090 0.000000 
#    z 0.038620 0.000000 1.845720 
# 
# From -- ./inp_files/133419.got.cif
#   From: 2010.05.17/outbox.cif.g08.bks.cpg/sg15_67_cif.got.tgz:133419.got - 2010.06.03 18:47:42.
