data_PCOD9275575
_publ_section_title
;
Structure prediction by ZEFSAII (Michael W. Deem and Ramdas Pophale) SiO2 
 PCOD9275575
Probable space group: C 2/C
;
_chemical_formula_sum "Si O2"
_cell_formula_units_Z 64
_cell_length_a 20.865611
_cell_length_b 17.846489
_cell_length_c 23.876821
_cell_angle_alpha 90.000000
_cell_angle_beta 22.095572
_cell_angle_gamma 90.000000
_cell_volume 3344.448652
_symmetry_space_group_name_H-M "C 2/C"
_symmetry_group_IT_number 15
_symmetry_cell_setting 'monoclinic'
loop_
_space_group_symop_operation_xyz
x,y,z
-x,y,1/2-z
-x,-y,-z
x,-y,1/2+z
1/2+x,1/2+y,z
1/2-x,1/2+y,1/2-z
1/2-x,1/2-y,-z
1/2+x,1/2-y,1/2+z
loop_
_atom_site_type_symbol
_atom_site_label
_atom_site_fract_x
_atom_site_fract_y
_atom_site_fract_z
Si Si1 0.281673 0.876779 0.123434
Si Si2 0.094518 0.933589 0.063841
Si Si3 0.412276 0.424847 0.765529
Si Si4 0.005529 0.305172 0.024972
Si Si5 0.178224 0.957591 0.868681
Si Si6 0.045979 0.527990 0.542619
Si Si7 0.698537 0.327305 0.070427
Si Si8 0.145015 0.169528 0.300680
O O1 0.350954 0.812668 0.107288
O O2 0.298806 0.851512 0.045036
O O3 0.085357 0.890512 0.296151
O O4 0.384699 0.955511 0.048932
O O5 0.212837 0.889931 0.011190
O O6 0.171425 0.939952 0.940089
O O7 0.033414 0.009473 0.143704
O O8 0.500000 0.392550 0.750000
O O9 0.392012 0.371397 0.728171
O O10 0.223907 0.458049 0.933209
O O11 0.985866 0.235606 0.081616
O O12 0.019115 0.387784 0.041199
O O13 0.173105 0.292301 0.853558
O O14 0.166469 0.888904 0.834246
O O15 0.357630 0.001412 0.714195
O O16 0.000000 0.000000 0.000000
O O17 0.500000 0.324207 0.250000
O O18 0.750000 0.250000 0.000000
#
# Coordination Sequence:
#
# PCOD9275575 Si02
#       8
#     8   8   8   8   8   8   8   8
#     4  10  20  39  63  85 122 169 218 252 316 381
#     4  10  21  37  62  89 121 170 211 260 311 382
#     4  10  21  45  71  89 123 168 222 268 329 382
#     4  11  24  39  63  92 129 163 213 267 332 381
#     4  12  23  39  65  98 133 163 215 268 321 384
#     4  10  22  41  66  96 121 168 218 267 315 391
#     4  10  23  38  55  86 126 169 209 254 313 381
#     4  11  26  40  62  98 128 170 208 271 328 388
#
# _framework density 19.136187
#
# number of rings (size 3 to 8) (size 9 to 14) (size 15 to 20)
#    0.000    1.500    2.500    3.000    7.000    2.000 
#    0.000    4.375    0.000    1.500    0.000    0.000 
#    0.000    0.000    0.000    0.000    0.000    0.000 
#
# Total GULP energy -178249.897066 kJ/mol
# GULP energy per Si atom -5570.309283 kJ/mol
# Density = 1.909263 g / cm^3
# Si number density = 19.136187 Si / 1000 Ang^3
#
#
#
# Elastic Constant Matrix: (Units=GPa)
#
#
# Indices 1 2 3 4 5 6 
#
# 1 114.6651 45.4908 25.2438 -0.0012 13.1152 0.0002
# 2 45.4908 77.1517 31.9662 -0.0034 2.5394 -0.0020
# 3 25.2438 31.9662 79.4971 0.0027 13.8419 -0.0036
# 4 -0.0012 -0.0034 0.0027 32.1156 0.0003 7.6667
# 5 13.1152 2.5394 13.8419 0.0003 19.8647 -0.0004
# 6 0.0002 -0.0020 -0.0036 7.6667 -0.0004 18.0255
#
#
#
# Elastic Compliance Matrix: (Units=1/GPa)
#
#
# Indices 1 2 3 4 5 6 
#
# 1 0.012346 -0.007134 0.000238 0.000000 -0.007405 -0.000001
# 2 -0.007134 0.019803 -0.006916 0.000002 0.006998 0.000000
# 3 0.000238 -0.006916 0.017251 -0.000003 -0.011293 0.000004
# 4 0.000000 0.000002 -0.000003 0.034656 0.000001 -0.014740
# 5 -0.007405 0.006998 -0.011293 0.000001 0.062204 0.000000
# 6 -0.000001 0.000000 0.000004 -0.014740 0.000000 0.061746
#
#
# Mechanical properties :
#
#
# Convention : Reuss Voigt Hill
#
# Bulk Modulus (GPa) = 45.92436 52.96838 49.44637
# Shear Modulus (GPa) = 20.58536 25.24203 22.91369
#
# Velocity S-wave (km/s) = 3.28339 3.63584 3.46410
# Velocity P-wave (km/s) = 6.19879 6.73540 6.47266
#
# Compressibility (1/GPa) = 0.02177494
#
# Stress axis : x y z
#
# Youngs Moduli (GPa) = 80.99752 50.49672 57.96771
#
# Poissons Ratio (x) = 0.36026 -0.01378
# Poissons Ratio (y) = 0.57786 0.40091
# Poissons Ratio (z) = -0.01925 0.34924
#
# Static dielectric constant tensor:
#      x y z
#    x 1.629770 -0.000250 -0.118720 
#    y -0.000250 1.607780 -0.000340 
#    z -0.118720 -0.000340 1.498200 
# 
# From -- ./inp_files/280475.got.cif
#   From: 2010.05.17/outbox.cif.g08.bks.cpg/sg15_141_cif.got.tgz:280475.got - 2010.06.03 18:47:42.
