data_PCOD9275904
_publ_section_title
;
Structure prediction by ZEFSAII (Michael W. Deem and Ramdas Pophale) SiO2 
 PCOD9275904
Probable space group: C 2/C
;
_chemical_formula_sum "Si O2"
_cell_formula_units_Z 40
_cell_length_a 14.433386
_cell_length_b 13.597551
_cell_length_c 10.034257
_cell_angle_alpha 90.000000
_cell_angle_beta 60.892232
_cell_angle_gamma 90.000000
_cell_volume 1720.598737
_symmetry_space_group_name_H-M "C 2/C"
_symmetry_group_IT_number 15
_symmetry_cell_setting 'monoclinic'
loop_
_space_group_symop_operation_xyz
x,y,z
-x,y,1/2-z
-x,-y,-z
x,-y,1/2+z
1/2+x,1/2+y,z
1/2-x,1/2+y,1/2-z
1/2-x,1/2-y,-z
1/2+x,1/2-y,1/2+z
loop_
_atom_site_type_symbol
_atom_site_label
_atom_site_fract_x
_atom_site_fract_y
_atom_site_fract_z
Si Si1 0.885501 0.241299 0.341752
Si Si2 0.704305 0.564527 0.773476
Si Si3 0.196082 0.713743 0.322926
Si Si4 0.923110 0.520248 0.178389
Si Si5 0.895716 0.013797 0.400183
O O1 0.829772 0.298803 0.501390
O O2 0.823531 0.222901 0.247190
O O3 0.901506 0.131236 0.386382
O O4 0.000000 0.288014 0.250000
O O5 0.665303 0.677185 0.797165
O O6 0.823939 0.555732 0.745577
O O7 0.698960 0.522262 0.628718
O O8 0.631229 0.499515 0.925625
O O9 0.138393 0.625530 0.290036
O O10 0.000000 0.519300 0.250000
O O11 0.000000 0.500000 0.000000
O O12 0.000000 0.974049 0.250000
#
# Coordination Sequence:
#
# PCOD9275904 Si02
#       5
#     8   8   8   8   8
#     4   9  19  37  66  94 127 172 234 278 334 410
#     4  11  23  43  66  98 136 179 225 283 342 414
#     4  10  23  40  65  98 135 178 233 277 348 414
#     4  12  28  47  70 103 143 185 233 288 352 415
#     4  10  20  39  65  95 128 169 220 282 341 404
#
# _framework density 23.247720999999999
#
# number of rings (size 3 to 8) (size 9 to 14) (size 15 to 20)
#    0.000    1.600    2.000    1.800    8.400    0.800 
#    0.000    4.000    0.000    0.000    0.000    0.000 
#    0.000    0.000    0.000    0.000    0.000    0.000 
#
# Total GULP energy -111563.907789 kJ/mol
# GULP energy per Si atom -5578.195389 kJ/mol
# Density = 2.319481 g / cm^3
# Si number density = 23.247721 Si / 1000 Ang^3
#
#
#
# Elastic Constant Matrix: (Units=GPa)
#
#
# Indices 1 2 3 4 5 6 
#
# 1 112.6922 33.0510 10.6447 0.0000 6.3858 0.0000
# 2 33.0510 116.0368 26.8318 0.0000 4.6621 0.0000
# 3 10.6447 26.8318 64.2863 0.0000 11.6911 0.0000
# 4 0.0000 0.0000 0.0000 21.3480 0.0000 1.7559
# 5 6.3858 4.6621 11.6911 0.0000 39.3285 0.0000
# 6 0.0000 0.0000 0.0000 1.7559 0.0000 29.8586
#
#
#
# Elastic Compliance Matrix: (Units=1/GPa)
#
#
# Indices 1 2 3 4 5 6 
#
# 1 0.009749 -0.002663 -0.000288 0.000000 -0.001182 0.000000
# 2 -0.002663 0.010266 -0.003913 0.000000 0.000379 0.000000
# 3 -0.000288 -0.003913 0.018123 0.000000 -0.004877 0.000000
# 4 0.000000 0.000000 0.000000 0.047070 0.000000 -0.002768
# 5 -0.001182 0.000379 -0.004877 0.000000 0.027024 0.000000
# 6 0.000000 0.000000 0.000000 -0.002768 0.000000 0.033654
#
#
# Mechanical properties :
#
#
# Convention : Reuss Voigt Hill
#
# Bulk Modulus (GPa) = 40.96514 48.23003 44.59759
# Shear Modulus (GPa) = 29.80630 32.93953 31.37292
#
# Velocity S-wave (km/s) = 3.58455 3.76825 3.67755
# Velocity P-wave (km/s) = 5.89842 6.30270 6.10391
#
# Compressibility (1/GPa) = 0.02441100
#
# Stress axis : x y z
#
# Youngs Moduli (GPa) = 102.57648 97.40949 55.17821
#
# Poissons Ratio (x) = 0.25937 0.01589
# Poissons Ratio (y) = 0.27313 0.21590
# Poissons Ratio (z) = 0.02954 0.38114
#
# Static dielectric constant tensor:
#      x y z
#    x 2.082380 0.000000 -0.131610 
#    y 0.000000 1.880950 0.000000 
#    z -0.131610 0.000000 1.925310 
# 
# From -- ./inp_files/37807.got.cif
#   From: 2010.05.17/outbox.cif.g08.bks.cpg/sg15_19_cif.got.tgz:37807.got - 2010.06.03 18:47:42.
