data_PCOD9275820
_publ_section_title
;
Structure prediction by ZEFSAII (Michael W. Deem and Ramdas Pophale) SiO2 
 PCOD9275820
Probable space group: C 2/C
;
_chemical_formula_sum "Si O2"
_cell_formula_units_Z 64
_cell_length_a 14.814960
_cell_length_b 30.611351
_cell_length_c 12.289662
_cell_angle_alpha 90.000000
_cell_angle_beta 29.737657
_cell_angle_gamma 90.000000
_cell_volume 2764.587815
_symmetry_space_group_name_H-M "C 2/C"
_symmetry_group_IT_number 15
_symmetry_cell_setting 'monoclinic'
loop_
_space_group_symop_operation_xyz
x,y,z
-x,y,1/2-z
-x,-y,-z
x,-y,1/2+z
1/2+x,1/2+y,z
1/2-x,1/2+y,1/2-z
1/2-x,1/2-y,-z
1/2+x,1/2-y,1/2+z
loop_
_atom_site_type_symbol
_atom_site_label
_atom_site_fract_x
_atom_site_fract_y
_atom_site_fract_z
Si Si1 0.583998 0.944167 0.488115
Si Si2 0.375697 0.618968 0.124501
Si Si3 0.991471 0.959924 0.137029
Si Si4 0.844813 0.710604 0.542149
Si Si5 0.235644 0.191400 0.430370
Si Si6 0.291004 0.139172 0.749148
Si Si7 0.781411 0.903069 0.952549
Si Si8 0.682655 0.013457 0.664488
O O1 0.594947 0.892084 0.454274
O O2 0.582165 0.961838 0.366962
O O3 0.780259 0.959822 0.327980
O O4 0.424072 0.967183 0.724180
O O5 0.320923 0.651128 0.084899
O O6 0.259735 0.618067 0.356517
O O7 0.392309 0.569964 0.064255
O O8 0.581669 0.629440 0.941291
O O9 0.000000 0.941061 0.250000
O O10 0.107180 0.004232 0.022183
O O11 0.837975 0.762644 0.538696
O O12 0.710698 0.690960 0.588079
O O13 0.810701 0.689388 0.695008
O O14 0.048992 0.696503 0.305066
O O15 0.310532 0.124662 0.853675
O O16 0.000000 0.904721 0.750000
O O17 0.702152 0.952422 0.045460
#
# Coordination Sequence:
#
# PCOD9275820 Si02
#       8
#     8   8   8   8   8   8   8   8
#     4   9  21  38  60  91 117 164 215 273 319 367
#     4  10  22  39  62  89 128 166 212 256 325 388
#     4  11  24  37  57  89 120 167 210 270 319 379
#     4  10  21  39  65  97 129 161 202 258 312 385
#     4  10  22  38  64  97 130 164 200 253 321 381
#     4   9  19  37  65  91 128 161 211 264 318 381
#     4   9  19  40  66  88 122 175 212 265 320 382
#     4  10  20  39  65  83 122 164 223 270 318 372
#
# _framework density 23.149926000000001
#
# number of rings (size 3 to 8) (size 9 to 14) (size 15 to 20)
#    0.000    2.250    0.000    2.250    5.250    2.500 
#    0.000    2.500    5.500    0.000    0.000    0.000 
#    0.000    0.000    0.000    0.000    0.000    0.000 
#
# Total GULP energy -178707.962189 kJ/mol
# GULP energy per Si atom -5584.623818 kJ/mol
# Density = 2.309724 g / cm^3
# Si number density = 23.149926 Si / 1000 Ang^3
#
#
#
# Elastic Constant Matrix: (Units=GPa)
#
#
# Indices 1 2 3 4 5 6 
#
# 1 68.7435 25.6706 32.0726 -0.0001 0.7759 -0.0001
# 2 25.6706 80.2654 43.3306 0.0000 4.5304 0.0000
# 3 32.0726 43.3306 89.0257 -0.0001 17.7514 -0.0001
# 4 -0.0001 0.0000 -0.0001 0.9755 0.0001 -25.4314
# 5 0.7759 4.5304 17.7514 0.0001 29.6860 0.0001
# 6 -0.0001 0.0000 -0.0001 -25.4314 0.0001 7.2242
#
#
#
# Elastic Compliance Matrix: (Units=1/GPa)
#
#
# Indices 1 2 3 4 5 6 
#
# 1 0.018334 -0.002875 -0.005902 0.000000 0.003488 0.000000
# 2 -0.002875 0.017536 -0.007926 0.000000 0.002138 0.000000
# 3 -0.005902 -0.007926 0.019238 0.000000 -0.010140 0.000000
# 4 0.000000 0.000000 0.000000 -0.011293 0.000000 -0.039755
# 5 0.003488 0.002138 -0.010140 0.000000 0.039332 0.000000
# 6 0.000000 0.000000 0.000000 -0.039755 0.000000 -0.001525
#
#
# Mechanical properties :
#
#
# Convention : Reuss Voigt Hill
#
# Bulk Modulus (GPa) = 46.07339 48.90913 47.49126
# Shear Modulus (GPa) = 40.89569 16.70787 28.80178
#
# Velocity S-wave (km/s) = 4.20760 2.68941 3.53107
# Velocity P-wave (km/s) = 6.59929 5.55129 6.09785
#
# Compressibility (1/GPa) = 0.02170450
#
# Stress axis : x y z
#
# Youngs Moduli (GPa) = 54.54242 57.02520 51.97913
#
# Poissons Ratio (x) = 0.16393 0.30676
# Poissons Ratio (y) = 0.15679 0.41198
# Poissons Ratio (z) = 0.32189 0.45198
#
# Static dielectric constant tensor:
#      x y z
#    x 1.943900 0.000000 -0.010050 
#    y 0.000000 1.874290 0.000000 
#    z -0.010050 0.000000 1.925090 
# 
# From -- ./inp_files/101298.got.cif
#   From: 2010.05.17/outbox.cif.g08.bks.cpg/sg15_51_cif.got.tgz:101298.got - 2010.06.03 18:47:42.
