data_PCOD9275031
_publ_section_title
;
Structure prediction by ZEFSAII (Michael W. Deem and Ramdas Pophale) SiO2 
 PCOD9275031
Probable space group: C 2/C
;
_chemical_formula_sum "Si O2"
_cell_formula_units_Z 40
_cell_length_a 10.246009
_cell_length_b 12.174009
_cell_length_c 13.503289
_cell_angle_alpha 90.000000
_cell_angle_beta 64.363854
_cell_angle_gamma 90.000000
_cell_volume 1518.526701
_symmetry_space_group_name_H-M "C 2/C"
_symmetry_group_IT_number 15
_symmetry_cell_setting 'monoclinic'
loop_
_space_group_symop_operation_xyz
x,y,z
-x,y,1/2-z
-x,-y,-z
x,-y,1/2+z
1/2+x,1/2+y,z
1/2-x,1/2+y,1/2-z
1/2-x,1/2-y,-z
1/2+x,1/2-y,1/2+z
loop_
_atom_site_type_symbol
_atom_site_label
_atom_site_fract_x
_atom_site_fract_y
_atom_site_fract_z
Si Si1 0.642228 0.761197 0.768926
Si Si2 0.751018 0.856872 0.067286
Si Si3 0.972202 0.466337 0.897616
Si Si4 0.481529 0.508598 0.873381
Si Si5 0.817746 0.863764 0.566970
O O1 0.500000 0.731185 0.750000
O O2 0.696697 0.688876 0.843187
O O3 0.601853 0.888401 0.814555
O O4 0.432205 0.622881 0.941864
O O5 0.599873 0.924020 0.126825
O O6 0.750000 0.750000 0.000000
O O7 0.855656 0.931465 0.961301
O O8 0.835695 0.385236 0.932920
O O9 0.781812 0.237177 0.149411
O O10 0.000000 0.500000 0.000000
O O11 0.500000 0.504730 0.750000
O O12 0.625204 0.457522 0.875399
#
# Coordination Sequence:
#
# PCOD9275031 Si02
#       5
#     8   8   8   8   8
#     4  10  21  42  69  99 151 186 244 319 375 463
#     4  11  21  38  70 103 141 189 244 311 381 452
#     4  10  20  38  68 100 136 183 243 298 379 447
#     4  10  21  40  66  99 140 180 244 302 366 455
#     4   9  21  40  65  99 133 186 238 296 377 435
#
# _framework density 26.34132
#
# number of rings (size 3 to 8) (size 9 to 14) (size 15 to 20)
#    0.000    2.000    2.000    1.200    2.800    0.000 
#    0.000   28.000    0.000    0.000    0.000    0.000 
#    0.000    0.000    0.000    0.000    0.000    0.000 
#
# Total GULP energy -111425.288667 kJ/mol
# GULP energy per Si atom -5571.264433 kJ/mol
# Density = 2.628137 g / cm^3
# Si number density = 26.341320 Si / 1000 Ang^3
#
#
#
# Elastic Constant Matrix: (Units=GPa)
#
#
# Indices 1 2 3 4 5 6 
#
# 1 106.4218 36.7287 85.0548 0.0000 5.6228 0.0000
# 2 36.7287 131.6397 75.0975 0.0000 0.9050 0.0000
# 3 85.0548 75.0975 284.5994 0.0000 26.2698 0.0000
# 4 0.0000 0.0000 0.0000 60.5692 0.0000 1.1020
# 5 5.6228 0.9050 26.2698 0.0000 48.6241 0.0000
# 6 0.0000 0.0000 0.0000 1.1020 0.0000 37.3754
#
#
#
# Elastic Compliance Matrix: (Units=1/GPa)
#
#
# Indices 1 2 3 4 5 6 
#
# 1 0.012637 -0.001593 -0.003394 0.000000 0.000402 0.000000
# 2 -0.001593 0.009207 -0.002057 0.000000 0.001124 0.000000
# 3 -0.003394 -0.002057 0.005295 0.000000 -0.002430 0.000000
# 4 0.000000 0.000000 0.000000 0.016519 0.000000 -0.000487
# 5 0.000402 0.001124 -0.002430 0.000000 0.021811 0.000000
# 6 0.000000 0.000000 0.000000 -0.000487 0.000000 0.026770
#
#
# Mechanical properties :
#
#
# Convention : Reuss Voigt Hill
#
# Bulk Modulus (GPa) = 76.61592 101.82476 89.22034
# Shear Modulus (GPa) = 45.17662 51.03240 48.10451
#
# Velocity S-wave (km/s) = 4.14581 4.40631 4.27804
# Velocity P-wave (km/s) = 7.21567 8.03911 7.63849
#
# Compressibility (1/GPa) = 0.01305212
#
# Stress axis : x y z
#
# Youngs Moduli (GPa) = 79.13124 108.61641 188.85662
#
# Poissons Ratio (x) = 0.17300 0.64089
# Poissons Ratio (y) = 0.12603 0.38851
# Poissons Ratio (z) = 0.26854 0.22344
#
# Static dielectric constant tensor:
#      x y z
#    x 2.162440 0.000000 -0.027930 
#    y 0.000000 2.309630 0.000000 
#    z -0.027930 0.000000 2.067580 
# 
# From -- ./inp_files/141849.got.cif
#   From: 2010.05.17/outbox.cif.g08.bks.cpg/sg15_71_cif.got.tgz:141849.got - 2010.06.03 18:47:42.
