data_PCOD9275156
_publ_section_title
;
Structure prediction by ZEFSAII (Michael W. Deem and Ramdas Pophale) SiO2 
 PCOD9275156
Probable space group: C 2/C
;
_chemical_formula_sum "Si O2"
_cell_formula_units_Z 32
_cell_length_a 31.080932
_cell_length_b 7.172126
_cell_length_c 23.699900
_cell_angle_alpha 90.000000
_cell_angle_beta 13.392886
_cell_angle_gamma 90.000000
_cell_volume 1223.708180
_symmetry_space_group_name_H-M "C 2/C"
_symmetry_group_IT_number 15
_symmetry_cell_setting 'monoclinic'
loop_
_space_group_symop_operation_xyz
x,y,z
-x,y,1/2-z
-x,-y,-z
x,-y,1/2+z
1/2+x,1/2+y,z
1/2-x,1/2+y,1/2-z
1/2-x,1/2-y,-z
1/2+x,1/2-y,1/2+z
loop_
_atom_site_type_symbol
_atom_site_label
_atom_site_fract_x
_atom_site_fract_y
_atom_site_fract_z
Si Si1 0.692570 0.629761 0.659169
Si Si2 0.908643 0.397334 0.469969
Si Si3 0.392577 0.147981 0.598665
Si Si4 0.172587 0.019193 0.061496
O O1 0.834976 0.491917 0.507353
O O2 0.523221 0.676293 0.917025
O O3 0.629826 0.550742 0.679017
O O4 0.785293 0.830014 0.527773
O O5 0.791221 0.216898 0.635956
O O6 0.860340 0.547361 0.580472
O O7 0.130425 0.374694 0.188485
O O8 0.500000 0.000000 0.500000
O O9 0.000000 0.113075 0.250000
#
# Coordination Sequence:
#
# PCOD9275156 Si02
#       4
#     8   8   8   8
#     4  10  20  39  71 106 146 190 236 287 349 419
#     4  11  23  42  71 104 141 187 240 292 349 423
#     4  11  24  42  70 106 143 185 237 301 362 419
#     4  10  20  38  70 108 147 192 233 281 349 423
#
# _framework density 26.150024999999999
#
# number of rings (size 3 to 8) (size 9 to 14) (size 15 to 20)
#    0.000    1.500    0.000    7.500    0.000    2.000 
#    0.000    0.000    0.000   79.500    0.000    8.750 
#    0.000    0.000    0.000    0.000    0.000    0.000 
#
# Total GULP energy -89879.000245 kJ/mol
# GULP energy per Si atom -5617.437515 kJ/mol
# Density = 2.609051 g / cm^3
# Si number density = 26.150025 Si / 1000 Ang^3
#
#
#
# Elastic Constant Matrix: (Units=GPa)
#
#
# Indices 1 2 3 4 5 6 
#
# 1 160.2483 29.5968 76.0951 -0.0024 -20.9313 0.0008
# 2 29.5968 100.3535 82.8637 -0.0072 -6.5764 -0.0013
# 3 76.0951 82.8637 231.1902 -0.0046 -18.4101 0.0020
# 4 -0.0024 -0.0072 -0.0046 61.1159 0.0026 -0.9187
# 5 -20.9313 -6.5764 -18.4101 0.0026 46.8201 -0.0012
# 6 0.0008 -0.0013 0.0020 -0.9187 -0.0012 16.6972
#
#
#
# Elastic Compliance Matrix: (Units=1/GPa)
#
#
# Indices 1 2 3 4 5 6 
#
# 1 0.007678 -0.000253 -0.002236 0.000000 0.002518 0.000000
# 2 -0.000253 0.014162 -0.005000 0.000001 -0.000090 0.000002
# 3 -0.002236 -0.005000 0.006935 0.000000 0.001025 -0.000001
# 4 0.000000 0.000001 0.000000 0.016376 -0.000001 0.000901
# 5 0.002518 -0.000090 0.001025 -0.000001 0.022874 0.000001
# 6 0.000000 0.000002 -0.000001 0.000901 0.000001 0.059940
#
#
# Mechanical properties :
#
#
# Convention : Reuss Voigt Hill
#
# Bulk Modulus (GPa) = 72.47943 96.54479 84.51211
# Shear Modulus (GPa) = 33.88882 45.14240 39.51561
#
# Velocity S-wave (km/s) = 3.60382 4.15937 3.89152
# Velocity P-wave (km/s) = 6.71518 7.75028 7.25122
#
# Compressibility (1/GPa) = 0.01379702
#
# Stress axis : x y z
#
# Youngs Moduli (GPa) = 130.24862 70.61161 144.19567
#
# Poissons Ratio (x) = 0.01788 0.32240
# Poissons Ratio (y) = 0.03298 0.72095
# Poissons Ratio (z) = 0.29121 0.35304
#
# Static dielectric constant tensor:
#      x y z
#    x 2.012400 0.000000 0.027730 
#    y 0.000000 2.029010 0.000000 
#    z 0.027730 0.000000 2.097100 
# 
# From -- ./inp_files/257089.got.cif
#   From: 2010.05.17/outbox.cif.g08.bks.cpg/sg15_129_cif.got.tgz:257089.got - 2010.06.03 18:47:42.
