data_PCOD9275609
_publ_section_title
;
Structure prediction by ZEFSAII (Michael W. Deem and Ramdas Pophale) SiO2 
 PCOD9275609
Probable space group: C 2/C
;
_chemical_formula_sum "Si O2"
_cell_formula_units_Z 64
_cell_length_a 12.631618
_cell_length_b 8.261151
_cell_length_c 28.526462
_cell_angle_alpha 90.000000
_cell_angle_beta 110.155654
_cell_angle_gamma 90.000000
_cell_volume 2794.486592
_symmetry_space_group_name_H-M "C 2/C"
_symmetry_group_IT_number 15
_symmetry_cell_setting 'monoclinic'
loop_
_space_group_symop_operation_xyz
x,y,z
-x,y,1/2-z
-x,-y,-z
x,-y,1/2+z
1/2+x,1/2+y,z
1/2-x,1/2+y,1/2-z
1/2-x,1/2-y,-z
1/2+x,1/2-y,1/2+z
loop_
_atom_site_type_symbol
_atom_site_label
_atom_site_fract_x
_atom_site_fract_y
_atom_site_fract_z
Si Si1 0.121315 0.101812 0.065639
Si Si2 0.255328 0.032726 0.663565
Si Si3 0.468011 0.233919 0.657823
Si Si4 0.430215 0.191975 0.368344
Si Si5 0.399332 0.994045 0.269169
Si Si6 0.921807 0.964528 0.096554
Si Si7 0.491435 0.919070 0.438419
Si Si8 0.264288 0.945403 0.500758
O O1 0.076350 0.280036 0.044610
O O2 0.209201 0.108769 0.122874
O O3 0.011063 0.009439 0.068543
O O4 0.188589 0.009755 0.035101
O O5 0.363691 0.128247 0.660475
O O6 0.157040 0.163280 0.646257
O O7 0.287665 0.988505 0.721457
O O8 0.569291 0.187897 0.708489
O O9 0.444480 0.421618 0.644741
O O10 0.489059 0.166988 0.608878
O O11 0.552810 0.278033 0.387648
O O12 0.406851 0.093323 0.317845
O O13 0.423791 0.078984 0.412893
O O14 0.500000 0.048541 0.250000
O O15 0.801149 0.998093 0.055886
O O16 0.387694 0.024181 0.523734
O O17 0.250000 0.750000 0.500000
#
# Coordination Sequence:
#
# PCOD9275609 Si02
#       8
#     8   8   8   8   8   8   8   8
#     4  10  23  40  61  88 123 159 208 247 306 371
#     4  10  20  39  63  89 118 161 200 254 308 370
#     4   9  19  39  62  85 118 159 204 245 308 367
#     4  10  21  38  57  89 125 148 204 260 301 369
#     4   9  20  38  63  84 118 162 198 243 309 374
#     4  10  22  40  60  87 123 159 201 259 302 364
#     4  10  21  41  60  86 122 165 200 256 305 366
#     4  12  23  39  62  88 124 164 207 252 311 367
#
# _framework density 22.902239999999999
#
# number of rings (size 3 to 8) (size 9 to 14) (size 15 to 20)
#    0.000    2.000    2.500    0.375    0.000    7.500 
#    4.500    3.125    0.000    0.000    0.000    0.000 
#    0.000    0.000    0.000    0.000    0.000    0.000 
#
# Total GULP energy -178628.426405 kJ/mol
# GULP energy per Si atom -5582.138325 kJ/mol
# Density = 2.285011 g / cm^3
# Si number density = 22.902240 Si / 1000 Ang^3
#
#
#
# Elastic Constant Matrix: (Units=GPa)
#
#
# Indices 1 2 3 4 5 6 
#
# 1 79.5327 23.8939 41.8426 0.0000 16.6796 0.0000
# 2 23.8939 74.2514 17.1975 0.0000 11.9076 0.0000
# 3 41.8426 17.1975 90.7648 0.0000 28.6237 0.0000
# 4 0.0000 0.0000 0.0000 24.3939 0.0000 8.7094
# 5 16.6796 11.9076 28.6237 0.0000 38.7606 0.0000
# 6 0.0000 0.0000 0.0000 8.7094 0.0000 28.3248
#
#
#
# Elastic Compliance Matrix: (Units=1/GPa)
#
#
# Indices 1 2 3 4 5 6 
#
# 1 0.017695 -0.003867 -0.007037 0.000000 -0.001230 0.000000
# 2 -0.003867 0.015217 -0.000197 0.000000 -0.002865 0.000000
# 3 -0.007037 -0.000197 0.017370 0.000000 -0.009739 0.000000
# 4 0.000000 0.000000 0.000000 0.046049 0.000000 -0.014159
# 5 -0.001230 -0.002865 -0.009739 0.000000 0.034401 0.000000
# 6 0.000000 0.000000 0.000000 -0.014159 0.000000 0.039658
#
#
# Mechanical properties :
#
#
# Convention : Reuss Voigt Hill
#
# Bulk Modulus (GPa) = 35.61163 45.60188 40.60675
# Shear Modulus (GPa) = 24.75818 29.07018 26.91418
#
# Velocity S-wave (km/s) = 3.29148 3.56661 3.43180
# Velocity P-wave (km/s) = 5.47981 6.07583 5.78550
#
# Compressibility (1/GPa) = 0.02808072
#
# Stress axis : x y z
#
# Youngs Moduli (GPa) = 56.51182 65.71454 57.57048
#
# Poissons Ratio (x) = 0.25413 0.40512
# Poissons Ratio (y) = 0.21854 0.01133
# Poissons Ratio (z) = 0.39767 0.01294
#
# Static dielectric constant tensor:
#      x y z
#    x 1.927920 0.000000 0.019450 
#    y 0.000000 1.947220 0.000000 
#    z 0.019450 0.000000 1.898490 
# 
# From -- ./inp_files/295218.got.cif
#   From: 2010.05.17/outbox.cif.g08.bks.cpg/sg15_148_cif.got.tgz:295218.got - 2010.06.03 18:47:42.
