data_PCOD9275014
_publ_section_title
;
Structure prediction by ZEFSAII (Michael W. Deem and Ramdas Pophale) SiO2 
 PCOD9275014
Probable space group: C 2/C
;
_chemical_formula_sum "Si O2"
_cell_formula_units_Z 56
_cell_length_a 18.534810
_cell_length_b 16.768296
_cell_length_c 17.900115
_cell_angle_alpha 90.000000
_cell_angle_beta 150.152574
_cell_angle_gamma 90.000000
_cell_volume 2768.812943
_symmetry_space_group_name_H-M "C 2/C"
_symmetry_group_IT_number 15
_symmetry_cell_setting 'monoclinic'
loop_
_space_group_symop_operation_xyz
x,y,z
-x,y,1/2-z
-x,-y,-z
x,-y,1/2+z
1/2+x,1/2+y,z
1/2-x,1/2+y,1/2-z
1/2-x,1/2-y,-z
1/2+x,1/2-y,1/2+z
loop_
_atom_site_type_symbol
_atom_site_label
_atom_site_fract_x
_atom_site_fract_y
_atom_site_fract_z
Si Si1 0.643495 0.556424 0.824818
Si Si2 0.644762 0.614231 0.482155
Si Si3 0.063935 0.046798 0.985919
Si Si4 0.838679 0.243759 0.888839
Si Si5 0.194427 0.875934 0.858995
Si Si6 0.133493 0.688697 0.427631
Si Si7 0.133450 0.221218 0.080170
O O1 0.500000 0.551044 0.750000
O O2 0.570062 0.583000 0.681658
O O3 0.710143 0.470678 0.865711
O O4 0.770096 0.610433 0.970949
O O5 0.642786 0.521573 0.506885
O O6 0.708576 0.667800 0.604937
O O7 0.475129 0.635661 0.315029
O O8 0.717392 0.635359 0.468358
O O9 0.153278 0.126151 0.084934
O O10 0.000000 0.000000 0.000000
O O11 0.791325 0.321180 0.893482
O O12 0.773063 0.246035 0.747475
O O13 0.008326 0.234408 0.028422
O O14 0.250000 0.750000 0.500000
O O15 0.093046 0.729631 0.470001
O O16 0.000000 0.679123 0.250000
#
# Coordination Sequence:
#
# PCOD9275014 Si02
#       7
#     8   8   8   8   8   8   8
#     4  11  21  42  71  97 124 170 236 277 332 410
#     4  10  20  38  67  97 123 172 227 270 323 400
#     4  11  19  37  66  97 123 167 224 278 318 398
#     4  12  22  42  62 100 134 173 217 278 334 403
#     4  10  20  40  68  96 130 169 225 275 326 404
#     4  12  26  44  67  98 136 180 225 288 348 406
#     4  12  25  40  65  98 133 169 221 276 342 400
#
# _framework density 20.225273000000001
#
# number of rings (size 3 to 8) (size 9 to 14) (size 15 to 20)
#    0.000    0.857    5.714    5.143    0.000    0.000 
#    0.000    2.143    0.000    0.000    0.000    0.000 
#    0.000    0.000    0.000    0.000    0.000    0.000 
#
# Total GULP energy -156202.064219 kJ/mol
# GULP energy per Si atom -5578.645151 kJ/mol
# Density = 2.017924 g / cm^3
# Si number density = 20.225273 Si / 1000 Ang^3
#
#
#
# Elastic Constant Matrix: (Units=GPa)
#
#
# Indices 1 2 3 4 5 6 
#
# 1 70.4420 30.0267 16.2455 0.0008 -18.5136 0.0005
# 2 30.0267 115.4438 54.5850 0.0006 -15.6761 0.0006
# 3 16.2455 54.5850 98.7303 0.0004 -20.2669 0.0006
# 4 0.0008 0.0006 0.0004 24.3887 0.0006 -6.9567
# 5 -18.5136 -15.6761 -20.2669 0.0006 27.5490 0.0006
# 6 0.0005 0.0006 0.0006 -6.9567 0.0006 32.1315
#
#
#
# Elastic Compliance Matrix: (Units=1/GPa)
#
#
# Indices 1 2 3 4 5 6 
#
# 1 0.018512 -0.003979 0.001464 -0.000001 0.011253 -0.000001
# 2 -0.003979 0.012702 -0.006400 0.000000 -0.000154 0.000000
# 3 0.001464 -0.006400 0.015171 0.000000 0.008503 0.000000
# 4 -0.000001 0.000000 0.000000 0.043701 -0.000002 0.009462
# 5 0.011253 -0.000154 0.008503 -0.000002 0.050029 -0.000002
# 6 -0.000001 0.000000 0.000000 0.009462 -0.000002 0.033171
#
#
# Mechanical properties :
#
#
# Convention : Reuss Voigt Hill
#
# Bulk Modulus (GPa) = 35.01857 54.03671 44.52764
# Shear Modulus (GPa) = 24.92084 29.06445 26.99264
#
# Velocity S-wave (km/s) = 3.51403 3.79494 3.65718
# Velocity P-wave (km/s) = 5.81518 6.78067 6.31640
#
# Compressibility (1/GPa) = 0.02855627
#
# Stress axis : x y z
#
# Youngs Moduli (GPa) = 54.01843 78.72706 65.91365
#
# Poissons Ratio (x) = 0.31326 -0.09649
# Poissons Ratio (y) = 0.21494 0.42182
# Poissons Ratio (z) = -0.07908 0.50382
#
# Static dielectric constant tensor:
#      x y z
#    x 1.791650 0.000000 -0.056250 
#    y 0.000000 1.753210 0.000000 
#    z -0.056250 0.000000 1.735310 
# 
# From -- ./inp_files/215765.got.cif
#   From: 2010.05.17/outbox.cif.g08.bks.cpg/sg15_108_cif.got.tgz:215765.got - 2010.06.03 18:47:42.
