data_PCOD9275823
_publ_section_title
;
Structure prediction by ZEFSAII (Michael W. Deem and Ramdas Pophale) SiO2 
 PCOD9275823
Probable space group: C 2/C
;
_chemical_formula_sum "Si O2"
_cell_formula_units_Z 64
_cell_length_a 19.371628
_cell_length_b 14.010978
_cell_length_c 19.512147
_cell_angle_alpha 90.000000
_cell_angle_beta 142.308567
_cell_angle_gamma 90.000000
_cell_volume 3237.958400
_symmetry_space_group_name_H-M "C 2/C"
_symmetry_group_IT_number 15
_symmetry_cell_setting 'monoclinic'
loop_
_space_group_symop_operation_xyz
x,y,z
-x,y,1/2-z
-x,-y,-z
x,-y,1/2+z
1/2+x,1/2+y,z
1/2-x,1/2+y,1/2-z
1/2-x,1/2-y,-z
1/2+x,1/2-y,1/2+z
loop_
_atom_site_type_symbol
_atom_site_label
_atom_site_fract_x
_atom_site_fract_y
_atom_site_fract_z
Si Si1 0.454275 0.594608 0.284763
Si Si2 0.495693 0.972066 0.915822
Si Si3 0.234975 0.485382 0.081009
Si Si4 0.390857 0.303447 0.864923
Si Si5 0.132229 0.924573 0.446892
Si Si6 0.238460 0.020889 0.174509
Si Si7 0.504239 0.745619 0.908624
Si Si8 0.778352 0.856091 0.245692
O O1 0.500000 0.637003 0.250000
O O2 0.323937 0.567120 0.170476
O O3 0.461131 0.662331 0.355231
O O4 0.525678 0.496793 0.353314
O O5 0.371953 0.995108 0.789502
O O6 0.511710 0.859164 0.912631
O O7 0.606928 0.019496 0.970157
O O8 0.500000 0.000000 0.000000
O O9 0.288868 0.433812 0.057463
O O10 0.233892 0.415385 0.145798
O O11 0.303060 0.387335 0.815501
O O12 0.318513 0.208459 0.797678
O O13 0.465271 0.285498 0.990293
O O14 0.199442 0.960770 0.566599
O O15 0.085791 0.818070 0.424654
O O16 0.178930 0.931122 0.164320
O O17 0.377475 0.710995 0.796181
#
# Coordination Sequence:
#
# PCOD9275823 Si02
#       8
#     8   8   8   8   8   8   8   8
#     4  10  20  39  65  86 118 159 200 252 307 349
#     4  12  22  39  60  87 123 165 199 237 300 369
#     4  11  22  39  61  91 124 161 197 245 311 368
#     4  11  20  37  61  91 117 155 207 250 297 356
#     4  10  23  40  62  91 123 156 200 257 307 350
#     4  11  22  39  61  89 120 160 203 248 300 355
#     4  11  22  35  60  92 118 153 201 253 296 352
#     4  12  21  37  64  90 118 159 207 248 295 362
#
# _framework density 19.765540000000001
#
# number of rings (size 3 to 8) (size 9 to 14) (size 15 to 20)
#    0.000    1.000    6.250    0.750    0.000    3.000 
#    0.000    1.250    5.500    2.250    0.000    0.000 
#    0.000    0.000    0.000    0.000    0.000    0.000 
#
# Total GULP energy -178694.731910 kJ/mol
# GULP energy per Si atom -5584.210372 kJ/mol
# Density = 1.972055 g / cm^3
# Si number density = 19.765540 Si / 1000 Ang^3
#
#
#
# Elastic Constant Matrix: (Units=GPa)
#
#
# Indices 1 2 3 4 5 6 
#
# 1 88.0055 12.3102 7.1222 0.0000 -8.5219 0.0000
# 2 12.3102 39.8801 -16.9378 0.0000 -14.9270 0.0000
# 3 7.1222 -16.9378 55.5669 0.0000 10.9660 0.0000
# 4 0.0000 0.0000 0.0000 20.9002 0.0000 1.5976
# 5 -8.5219 -14.9270 10.9660 0.0000 29.4180 0.0000
# 6 0.0000 0.0000 0.0000 1.5976 0.0000 19.0935
#
#
#
# Elastic Compliance Matrix: (Units=1/GPa)
#
#
# Indices 1 2 3 4 5 6 
#
# 1 0.012509 -0.004308 -0.003454 0.000000 0.002725 0.000000
# 2 -0.004308 0.035049 0.008605 0.000000 0.013328 0.000000
# 3 -0.003454 0.008605 0.022018 0.000000 -0.004842 0.000000
# 4 0.000000 0.000000 0.000000 0.048154 0.000000 -0.004029
# 5 0.002725 0.013328 -0.004842 0.000000 0.043350 0.000000
# 6 0.000000 0.000000 0.000000 -0.004029 0.000000 0.052711
#
#
# Mechanical properties :
#
#
# Convention : Reuss Voigt Hill
#
# Bulk Modulus (GPa) = 14.03300 20.93796 17.48548
# Shear Modulus (GPa) = 21.19909 25.94620 23.57265
#
# Velocity S-wave (km/s) = 3.27850 3.62705 3.45717
# Velocity P-wave (km/s) = 4.63104 5.30630 4.98013
#
# Compressibility (1/GPa) = 0.07126062
#
# Stress axis : x y z
#
# Youngs Moduli (GPa) = 79.94220 28.53174 45.41805
#
# Poissons Ratio (x) = 0.12293 0.15689
# Poissons Ratio (y) = 0.34442 -0.39084
# Poissons Ratio (z) = 0.27616 -0.24553
#
# Static dielectric constant tensor:
#      x y z
#    x 1.696380 0.000000 0.027300 
#    y 0.000000 1.703790 0.000000 
#    z 0.027300 0.000000 1.718250 
# 
# From -- ./inp_files/211421.got.cif
#   From: 2010.05.17/outbox.cif.g08.bks.cpg/sg15_106_cif.got.tgz:211421.got - 2010.06.03 18:47:42.
