data_PCOD9275743
_publ_section_title
;
Structure prediction by ZEFSAII (Michael W. Deem and Ramdas Pophale) SiO2 
 PCOD9275743
Probable space group: C 2/C
;
_chemical_formula_sum "Si O2"
_cell_formula_units_Z 24
_cell_length_a 9.754911
_cell_length_b 14.616077
_cell_length_c 15.516288
_cell_angle_alpha 90.000000
_cell_angle_beta 25.467527
_cell_angle_gamma 90.000000
_cell_volume 951.283346
_symmetry_space_group_name_H-M "C 2/C"
_symmetry_group_IT_number 15
_symmetry_cell_setting 'monoclinic'
loop_
_space_group_symop_operation_xyz
x,y,z
-x,y,1/2-z
-x,-y,-z
x,-y,1/2+z
1/2+x,1/2+y,z
1/2-x,1/2+y,1/2-z
1/2-x,1/2-y,-z
1/2+x,1/2-y,1/2+z
loop_
_atom_site_type_symbol
_atom_site_label
_atom_site_fract_x
_atom_site_fract_y
_atom_site_fract_z
Si Si1 0.973982 0.946951 0.421706
Si Si2 0.651483 0.107210 0.323610
Si Si3 0.132544 0.222266 0.931434
O O1 0.625169 0.928006 0.582577
O O2 0.111807 0.847761 0.363358
O O3 0.000000 0.000000 0.500000
O O4 0.163823 0.016228 0.252570
O O5 0.522269 0.176372 0.468452
O O6 0.906700 0.172996 0.129493
O O7 0.500000 0.226124 0.750000
#
# Coordination Sequence:
#
# PCOD9275743 Si02
#       3
#     8   8   8
#     4  10  20  39  64  90 120 164 206 245 302 379
#     4  11  23  41  65  92 122 162 209 254 303 365
#     4  11  22  40  64  92 122 162 207 255 304 364
#
# _framework density 25.229075999999999
#
# number of rings (size 3 to 8) (size 9 to 14) (size 15 to 20)
#    0.000    1.333    0.000   10.000    0.000    0.000 
#    0.000    6.667    0.000    0.000    0.000    0.000 
#    0.000    0.000    0.000    0.000    0.000    0.000 
#
# Total GULP energy -67126.256972 kJ/mol
# GULP energy per Si atom -5593.854748 kJ/mol
# Density = 2.517165 g / cm^3
# Si number density = 25.229076 Si / 1000 Ang^3
#
#
#
# Elastic Constant Matrix: (Units=GPa)
#
#
# Indices 1 2 3 4 5 6 
#
# 1 54.9337 -21.1361 98.5173 0.0222 -47.4208 -0.0026
# 2 -21.1361 81.2149 72.3672 -0.1608 -34.7208 -0.0104
# 3 98.5173 72.3672 86.0857 0.0656 -31.8964 0.0767
# 4 0.0222 -0.1608 0.0656 23.0351 -0.1518 -1.8334
# 5 -47.4208 -34.7208 -31.8964 -0.1518 60.1956 -0.0246
# 6 -0.0026 -0.0104 0.0767 -1.8334 -0.0246 45.4461
#
#
#
# Elastic Compliance Matrix: (Units=1/GPa)
#
#
# Indices 1 2 3 4 5 6 
#
# 1 -0.001548 -0.008575 0.008331 -0.000095 -0.001751 -0.000021
# 2 -0.008575 0.004888 0.005283 0.000019 -0.001136 -0.000008
# 3 0.008331 0.005283 0.001495 0.000094 0.010403 0.000009
# 4 -0.000095 0.000019 0.000094 0.043553 0.000096 0.001757
# 5 -0.001751 -0.001136 0.010403 0.000096 0.020090 -0.000003
# 6 -0.000021 -0.000008 0.000009 0.001757 -0.000003 0.022075
#
#
# Mechanical properties :
#
#
# Convention : Reuss Voigt Hill
#
# Bulk Modulus (GPa) = 67.05069 57.97014 62.51041
# Shear Modulus (GPa) = 58.51613 30.56774 44.54193
#
# Velocity S-wave (km/s) = 4.82123 3.48459 4.20634
# Velocity P-wave (km/s) = 7.59123 6.26237 6.95859
#
# Compressibility (1/GPa) = 0.01491409
#
# Stress axis : x y z
#
# Youngs Moduli (GPa) = -646.11987 204.58182 668.67857
#
# Poissons Ratio (x) = 1.75428 -5.57072
# Poissons Ratio (y) = -5.54046 -3.53275
# Poissons Ratio (z) = 5.38278 -1.08084
#
# Static dielectric constant tensor:
#      x y z
#    x 2.072670 0.000000 0.154430 
#    y 0.000000 1.966890 0.000030 
#    z 0.154430 0.000030 2.101800 
# 
# From -- ./inp_files/26944.got.cif
#   From: 2010.05.17/outbox.cif.g08.bks.cpg/sg15_14_cif.got.tgz:26944.got - 2010.06.03 18:47:42.
