data_PCOD9275298
_publ_section_title
;
Structure prediction by ZEFSAII (Michael W. Deem and Ramdas Pophale) SiO2 
 PCOD9275298
Probable space group: C 2/C
;
_chemical_formula_sum "Si O2"
_cell_formula_units_Z 64
_cell_length_a 16.131572
_cell_length_b 12.077210
_cell_length_c 29.015331
_cell_angle_alpha 90.000000
_cell_angle_beta 36.940548
_cell_angle_gamma 90.000000
_cell_volume 3397.310172
_symmetry_space_group_name_H-M "C 2/C"
_symmetry_group_IT_number 15
_symmetry_cell_setting 'monoclinic'
loop_
_space_group_symop_operation_xyz
x,y,z
-x,y,1/2-z
-x,-y,-z
x,-y,1/2+z
1/2+x,1/2+y,z
1/2-x,1/2+y,1/2-z
1/2-x,1/2-y,-z
1/2+x,1/2-y,1/2+z
loop_
_atom_site_type_symbol
_atom_site_label
_atom_site_fract_x
_atom_site_fract_y
_atom_site_fract_z
Si Si1 0.065087 0.131530 0.085220
Si Si2 0.696914 0.192227 0.587005
Si Si3 0.946822 0.552411 0.664091
Si Si4 0.689078 0.769496 0.332079
Si Si5 0.042337 0.110455 0.564268
Si Si6 0.265511 0.151241 0.386326
Si Si7 0.981814 0.296433 0.662584
Si Si8 0.232945 0.418750 0.165399
O O1 0.136124 0.190691 0.097256
O O2 0.911461 0.178465 0.146810
O O3 0.067109 0.999774 0.083384
O O4 0.152733 0.174060 0.001915
O O5 0.598487 0.101704 0.605869
O O6 0.695726 0.167459 0.641591
O O7 0.878172 0.613809 0.651424
O O8 0.951241 0.420882 0.659193
O O9 0.858337 0.588920 0.748266
O O10 0.701191 0.740707 0.380300
O O11 0.840796 0.756827 0.243579
O O12 0.158372 0.119762 0.473825
O O13 0.040321 0.218888 0.596554
O O14 0.892817 0.095062 0.607285
O O15 0.406224 0.191815 0.346751
O O16 0.291422 0.040531 0.345033
#
# Coordination Sequence:
#
# PCOD9275298 Si02
#       8
#     8   8   8   8   8   8   8   8
#     4  10  20  39  59  92 129 159 198 257 322 363
#     4  10  21  34  63  94 123 159 204 258 308 370
#     4  11  22  39  60  92 125 161 207 262 314 368
#     4  11  23  39  62  88 124 163 209 260 314 365
#     4  12  23  40  63  96 130 162 205 265 318 373
#     4  12  23  39  66  92 122 165 218 252 304 384
#     4  12  24  40  61  94 125 166 209 259 318 372
#     4  12  20  37  64  95 121 157 220 258 303 373
#
# _framework density 18.838432000000001
#
# number of rings (size 3 to 8) (size 9 to 14) (size 15 to 20)
#    0.000    0.750    6.250    2.250    0.000    0.000 
#    0.000    1.875    0.000    1.500    0.000    0.000 
#    0.000    0.000    0.000    0.000    0.000    0.000 
#
# Total GULP energy -178912.545881 kJ/mol
# GULP energy per Si atom -5591.017059 kJ/mol
# Density = 1.879555 g / cm^3
# Si number density = 18.838432 Si / 1000 Ang^3
#
#
#
# Elastic Constant Matrix: (Units=GPa)
#
#
# Indices 1 2 3 4 5 6 
#
# 1 99.3316 52.5751 12.9046 0.0000 1.1616 0.0000
# 2 52.5751 99.5330 -3.0555 0.0000 16.8866 0.0000
# 3 12.9046 -3.0555 46.5572 0.0000 -7.7203 0.0000
# 4 0.0000 0.0000 0.0000 24.6802 0.0000 6.0436
# 5 1.1616 16.8866 -7.7203 0.0000 22.8595 0.0000
# 6 0.0000 0.0000 0.0000 6.0436 0.0000 34.4913
#
#
#
# Elastic Compliance Matrix: (Units=1/GPa)
#
#
# Indices 1 2 3 4 5 6 
#
# 1 0.015287 -0.008957 -0.004085 0.000000 0.004460 0.000000
# 2 -0.008957 0.016755 0.001700 0.000000 -0.011348 0.000000
# 3 -0.004085 0.001700 0.023887 0.000000 0.007019 0.000000
# 4 0.000000 0.000000 0.000000 0.042335 0.000000 -0.007418
# 5 0.004460 -0.011348 0.007019 0.000000 0.054272 0.000000
# 6 0.000000 0.000000 0.000000 -0.007418 0.000000 0.030293
#
#
# Mechanical properties :
#
#
# Convention : Reuss Voigt Hill
#
# Bulk Modulus (GPa) = 30.07914 41.14116 35.61015
# Shear Modulus (GPa) = 23.08472 28.60605 25.84538
#
# Velocity S-wave (km/s) = 3.50438 3.90101 3.70800
# Velocity P-wave (km/s) = 5.68997 6.49437 6.10544
#
# Compressibility (1/GPa) = 0.03324563
#
# Stress axis : x y z
#
# Youngs Moduli (GPa) = 65.41694 59.68194 41.86417
#
# Poissons Ratio (x) = 0.53455 0.17103
# Poissons Ratio (y) = 0.58592 -0.07119
# Poissons Ratio (z) = 0.26725 -0.10149
#
# Static dielectric constant tensor:
#      x y z
#    x 1.645950 0.000000 -0.012080 
#    y 0.000000 1.649870 0.000000 
#    z -0.012080 0.000000 1.654230 
# 
# From -- ./inp_files/296129.got.cif
#   From: 2010.05.17/outbox.cif.g08.bks.cpg/sg15_149_cif.got.tgz:296129.got - 2010.06.03 18:47:42.
