data_PCOD9275275
_publ_section_title
;
Structure prediction by ZEFSAII (Michael W. Deem and Ramdas Pophale) SiO2 
 PCOD9275275
Probable space group: C 2/C
;
_chemical_formula_sum "Si O2"
_cell_formula_units_Z 40
_cell_length_a 9.131368
_cell_length_b 15.773863
_cell_length_c 15.584409
_cell_angle_alpha 90.000000
_cell_angle_beta 54.130446
_cell_angle_gamma 90.000000
_cell_volume 1819.024519
_symmetry_space_group_name_H-M "C 2/C"
_symmetry_group_IT_number 15
_symmetry_cell_setting 'monoclinic'
loop_
_space_group_symop_operation_xyz
x,y,z
-x,y,1/2-z
-x,-y,-z
x,-y,1/2+z
1/2+x,1/2+y,z
1/2-x,1/2+y,1/2-z
1/2-x,1/2-y,-z
1/2+x,1/2-y,1/2+z
loop_
_atom_site_type_symbol
_atom_site_label
_atom_site_fract_x
_atom_site_fract_y
_atom_site_fract_z
Si Si1 0.251457 0.415475 0.440223
Si Si2 0.244921 0.000000 0.249996
Si Si3 0.626335 0.345060 0.377547
Si Si4 0.631903 0.415482 0.559773
Si Si5 0.618573 0.154943 0.377554
O O1 0.257807 0.455625 0.343002
O O2 0.435744 0.368160 0.398962
O O3 0.249321 0.499995 0.500683
O O4 0.079532 0.356210 0.513289
O O5 0.266670 0.918464 0.302629
O O6 0.371929 0.081539 0.197362
O O7 0.056191 0.044373 0.342998
O O8 0.606109 0.356220 0.486706
O O9 0.664726 0.250000 0.335287
O O10 0.733680 0.368165 0.601024
#
# Coordination Sequence:
#
# PCOD9275275 Si02
#       5
#     8   8   8   8   8
#     4  10  20  39  59  83 118 155 191 239 291 344
#     4  10  21  40  61  82 119 160 193 236 293 346
#     4  11  22  38  61  88 117 154 195 240 290 343
#     4  10  20  39  59  83 118 155 191 239 291 344
#     4  11  22  38  61  88 117 154 195 240 290 343
#
# _framework density 21.989809000000001
#
# number of rings (size 3 to 8) (size 9 to 14) (size 15 to 20)
#    0.000    1.600    0.000   11.400    0.000    1.600 
#    0.000   21.000    0.000    0.000    0.000    0.000 
#    0.000    0.000    0.000    0.000    0.000    0.000 
#
# Total GULP energy -111587.867150 kJ/mol
# GULP energy per Si atom -5579.393357 kJ/mol
# Density = 2.193976 g / cm^3
# Si number density = 21.989809 Si / 1000 Ang^3
#
#
#
# Elastic Constant Matrix: (Units=GPa)
#
#
# Indices 1 2 3 4 5 6 
#
# 1 22.6295 20.0163 9.3060 0.0000 -0.4836 -0.0001
# 2 20.0163 167.9645 29.4782 0.0000 -0.7905 0.0000
# 3 9.3060 29.4782 61.5502 0.0000 -2.8095 0.0000
# 4 0.0000 0.0000 0.0000 23.3922 0.0000 0.0619
# 5 -0.4836 -0.7905 -2.8095 0.0000 9.6963 0.0000
# 6 -0.0001 0.0000 0.0000 0.0619 0.0000 24.1165
#
#
#
# Elastic Compliance Matrix: (Units=1/GPa)
#
#
# Indices 1 2 3 4 5 6 
#
# 1 0.050897 -0.005150 -0.005201 0.000000 0.000612 0.000000
# 2 -0.005150 0.007022 -0.002605 0.000000 -0.000439 0.000000
# 3 -0.005201 -0.002605 0.018504 0.000000 0.004890 0.000000
# 4 0.000000 0.000000 0.000000 0.042750 0.000000 -0.000110
# 5 0.000612 -0.000439 0.004890 0.000000 0.104543 0.000000
# 6 0.000000 0.000000 0.000000 -0.000110 0.000000 0.041466
#
#
# Mechanical properties :
#
#
# Convention : Reuss Voigt Hill
#
# Bulk Modulus (GPa) = 19.79708 41.08279 30.43994
# Shear Modulus (GPa) = 16.23745 24.33058 20.28401
#
# Velocity S-wave (km/s) = 2.72031 3.32994 3.04044
# Velocity P-wave (km/s) = 4.34617 5.78860 5.11845
#
# Compressibility (1/GPa) = 0.05051250
#
# Stress axis : x y z
#
# Youngs Moduli (GPa) = 19.64752 142.40179 54.04268
#
# Poissons Ratio (x) = 0.73333 0.28108
# Poissons Ratio (y) = 0.10118 0.14076
# Poissons Ratio (z) = 0.10219 0.37091
#
# Static dielectric constant tensor:
#      x y z
#    x 1.839960 0.000000 -0.001220 
#    y 0.000000 1.834670 0.000000 
#    z -0.001220 0.000000 1.854390 
# 
# From -- ./inp_files/143284.got.cif
#   From: 2010.05.17/outbox.cif.g08.bks.cpg/sg15_72_cif.got.tgz:143284.got - 2010.06.03 18:47:42.
