data_PCOD9275545
_publ_section_title
;
Structure prediction by ZEFSAII (Michael W. Deem and Ramdas Pophale) SiO2 
 PCOD9275545
Probable space group: C 2/C
;
_chemical_formula_sum "Si O2"
_cell_formula_units_Z 48
_cell_length_a 31.252775
_cell_length_b 16.425338
_cell_length_c 9.326518
_cell_angle_alpha 90.000000
_cell_angle_beta 152.073274
_cell_angle_gamma 90.000000
_cell_volume 2242.257788
_symmetry_space_group_name_H-M "C 2/C"
_symmetry_group_IT_number 15
_symmetry_cell_setting 'monoclinic'
loop_
_space_group_symop_operation_xyz
x,y,z
-x,y,1/2-z
-x,-y,-z
x,-y,1/2+z
1/2+x,1/2+y,z
1/2-x,1/2+y,1/2-z
1/2-x,1/2-y,-z
1/2+x,1/2-y,1/2+z
loop_
_atom_site_type_symbol
_atom_site_label
_atom_site_fract_x
_atom_site_fract_y
_atom_site_fract_z
Si Si1 0.731832 0.897308 0.626327
Si Si2 0.283041 0.628593 0.975425
Si Si3 0.388746 0.044549 0.177079
Si Si4 0.000000 0.831464 0.750000
Si Si5 0.594906 0.526726 0.710089
Si Si6 0.325681 0.755795 0.851760
Si Si7 0.000000 0.540805 0.750000
O O1 0.754993 0.847260 0.552682
O O2 0.689068 0.845028 0.627219
O O3 0.657958 0.967630 0.381392
O O4 0.826058 0.939053 0.953515
O O5 0.193077 0.592074 0.636360
O O6 0.310751 0.696772 0.944869
O O7 0.358165 0.555598 0.212748
O O8 0.436526 0.090626 0.451521
O O9 0.450112 0.014113 0.224751
O O10 0.934106 0.896483 0.472896
O O11 0.926291 0.771974 0.603627
O O12 0.500000 0.500000 0.500000
O O13 0.250000 0.750000 0.500000
#
# Coordination Sequence:
#
# PCOD9275545 Si02
#       7
#     8   8   8   4   8   8   4
#     4  11  24  43  67 101 140 181 223 287 365 413
#     4  11  24  43  70 100 137 177 229 293 353 410
#     4  10  22  39  67  99 127 179 232 287 333 399
#     4  12  24  47  68 111 134 188 240 286 360 419
#     4  11  22  42  77 104 136 175 242 300 341 408
#     4  12  27  46  67  97 146 183 226 286 360 436
#     4  10  20  39  62  93 132 164 230 278 314 403
#
# _framework density 21.406995999999999
#
# number of rings (size 3 to 8) (size 9 to 14) (size 15 to 20)
#    0.000    1.000    5.000    1.500    4.667    0.667 
#    3.000    0.000    0.000    0.000    0.000    0.000 
#    0.000    0.000    0.000    0.000    0.000    0.000 
#
# Total GULP energy -133788.754843 kJ/mol
# GULP energy per Si atom -5574.531452 kJ/mol
# Density = 2.135827 g / cm^3
# Si number density = 21.406996 Si / 1000 Ang^3
#
#
#
# Elastic Constant Matrix: (Units=GPa)
#
#
# Indices 1 2 3 4 5 6 
#
# 1 111.2548 19.7616 43.7993 0.0000 1.0949 0.0000
# 2 19.7616 53.5863 15.2322 0.0000 2.1170 0.0000
# 3 43.7993 15.2322 97.4769 0.0000 1.4701 0.0000
# 4 0.0000 0.0000 0.0000 19.5508 0.0000 -3.7139
# 5 1.0949 2.1170 1.4701 0.0000 38.2035 0.0000
# 6 0.0000 0.0000 0.0000 -3.7139 0.0000 30.2567
#
#
#
# Elastic Compliance Matrix: (Units=1/GPa)
#
#
# Indices 1 2 3 4 5 6 
#
# 1 0.011323 -0.002857 -0.004642 0.000000 0.000012 0.000000
# 2 -0.002857 0.020285 -0.001872 0.000000 -0.000970 0.000000
# 3 -0.004642 -0.001872 0.012641 0.000000 -0.000250 0.000000
# 4 0.000000 0.000000 0.000000 0.052370 0.000000 0.006428
# 5 0.000012 -0.000970 -0.000250 0.000000 0.026239 0.000000
# 6 0.000000 0.000000 0.000000 0.006428 0.000000 0.033840
#
#
# Mechanical properties :
#
#
# Convention : Reuss Voigt Hill
#
# Bulk Modulus (GPa) = 39.20166 46.65602 42.92884
# Shear Modulus (GPa) = 27.18279 29.83721 28.51000
#
# Velocity S-wave (km/s) = 3.56730 3.73742 3.65335
# Velocity P-wave (km/s) = 5.94305 6.36133 6.15574
#
# Compressibility (1/GPa) = 0.02550912
#
# Stress axis : x y z
#
# Youngs Moduli (GPa) = 88.31589 49.29660 79.10990
#
# Poissons Ratio (x) = 0.14083 0.36719
# Poissons Ratio (y) = 0.25230 0.14806
# Poissons Ratio (z) = 0.40992 0.09226
#
# Static dielectric constant tensor:
#      x y z
#    x 1.804860 0.000000 0.031550 
#    y 0.000000 1.858990 0.000000 
#    z 0.031550 0.000000 1.862720 
# 
# From -- ./inp_files/48765.got.cif
#   From: 2010.05.17/outbox.cif.g08.bks.cpg/sg15_25_cif.got.tgz:48765.got - 2010.06.03 18:47:42.
