data_PCOD9275096
_publ_section_title
;
Structure prediction by ZEFSAII (Michael W. Deem and Ramdas Pophale) SiO2 
 PCOD9275096
Probable space group: C 2/C
;
_chemical_formula_sum "Si O2"
_cell_formula_units_Z 52
_cell_length_a 25.769872
_cell_length_b 5.488961
_cell_length_c 18.344645
_cell_angle_alpha 90.000000
_cell_angle_beta 104.209633
_cell_angle_gamma 90.000000
_cell_volume 2515.455087
_symmetry_space_group_name_H-M "C 2/C"
_symmetry_group_IT_number 15
_symmetry_cell_setting 'monoclinic'
loop_
_space_group_symop_operation_xyz
x,y,z
-x,y,1/2-z
-x,-y,-z
x,-y,1/2+z
1/2+x,1/2+y,z
1/2-x,1/2+y,1/2-z
1/2-x,1/2-y,-z
1/2+x,1/2-y,1/2+z
loop_
_atom_site_type_symbol
_atom_site_label
_atom_site_fract_x
_atom_site_fract_y
_atom_site_fract_z
Si Si1 0.127804 0.545730 0.249409
Si Si2 0.028893 0.314937 0.145989
Si Si3 0.732321 0.227261 0.782113
Si Si4 0.000000 0.055663 0.750000
Si Si5 0.165588 0.249723 0.617836
Si Si6 0.925950 0.622000 0.124068
Si Si7 0.890904 0.245756 0.452595
O O1 0.068611 0.513409 0.195140
O O2 0.168762 0.317482 0.260059
O O3 0.152238 0.737844 0.200380
O O4 0.120791 0.581854 0.333166
O O5 0.055114 0.248195 0.078121
O O6 0.967042 0.397962 0.121662
O O7 0.034958 0.108130 0.208423
O O8 0.746036 0.471183 0.743011
O O9 0.769822 0.253008 0.866513
O O10 0.036279 0.199066 0.818164
O O11 0.141184 0.505304 0.579663
O O12 0.140207 0.004885 0.575996
O O13 0.905673 0.731071 0.041971
#
# Coordination Sequence:
#
# PCOD9275096 Si02
#       7
#     8   8   8   4   8   8   8
#     4  10  20  41  65  92 124 164 212 265 312 362
#     4  11  22  41  59  90 128 164 208 260 308 374
#     4  10  20  38  68  97 121 158 214 266 314 368
#     4  12  22  38  68  82 132 158 222 260 300 358
#     4  10  22  44  63  94 124 162 211 260 312 377
#     4  12  24  41  57  97 123 167 211 258 311 374
#     4  11  26  40  65  89 132 170 203 253 323 375
#
# _framework density 20.672204000000001
#
# number of rings (size 3 to 8) (size 9 to 14) (size 15 to 20)
#    0.000    1.231    3.077    4.154    4.308    1.846 
#    0.000    1.538    0.000    0.000    0.000    0.000 
#    0.000    0.000    0.000    0.000    0.000    0.000 
#
# Total GULP energy -144812.351570 kJ/mol
# GULP energy per Si atom -5569.705830 kJ/mol
# Density = 2.062515 g / cm^3
# Si number density = 20.672204 Si / 1000 Ang^3
#
#
#
# Elastic Constant Matrix: (Units=GPa)
#
#
# Indices 1 2 3 4 5 6 
#
# 1 41.8039 21.4570 24.2027 0.0000 13.1726 0.0000
# 2 21.4570 102.7569 30.6005 0.0000 15.2435 0.0000
# 3 24.2027 30.6005 112.3979 0.0000 -5.8519 0.0000
# 4 0.0000 0.0000 0.0000 -7.5102 0.0000 -15.3832
# 5 13.1726 15.2435 -5.8519 0.0000 25.0029 0.0000
# 6 0.0000 0.0000 0.0000 -15.3832 0.0000 26.6884
#
#
#
# Elastic Compliance Matrix: (Units=1/GPa)
#
#
# Indices 1 2 3 4 5 6 
#
# 1 0.035902 -0.002177 -0.008153 0.000000 -0.019496 0.000000
# 2 -0.002177 0.012188 -0.003216 0.000000 -0.007036 0.000000
# 3 -0.008153 -0.003216 0.012000 0.000000 0.009065 0.000000
# 4 0.000000 0.000000 0.000000 -0.061061 0.000000 -0.035196
# 5 -0.019496 -0.007036 0.009065 0.000000 0.056678 0.000000
# 6 0.000000 0.000000 0.000000 -0.035196 0.000000 0.017183
#
#
# Mechanical properties :
#
#
# Convention : Reuss Voigt Hill
#
# Bulk Modulus (GPa) = 30.30449 45.49767 37.90108
# Shear Modulus (GPa) = 45.05289 20.88277 32.96783
#
# Velocity S-wave (km/s) = 4.67346 3.18179 3.99781
# Velocity P-wave (km/s) = 6.61914 5.96282 6.29954
#
# Compressibility (1/GPa) = 0.03299841
#
# Stress axis : x y z
#
# Youngs Moduli (GPa) = 27.85352 82.05017 83.33316
#
# Poissons Ratio (x) = 0.17860 0.67943
# Poissons Ratio (y) = 0.06063 0.26798
# Poissons Ratio (z) = 0.22710 0.26385
#
# Static dielectric constant tensor:
#      x y z
#    x 1.871550 0.000000 -0.014460 
#    y 0.000000 1.826650 0.000000 
#    z -0.014460 0.000000 1.736620 
# 
# From -- ./inp_files/220916.got.cif
#   From: 2010.05.17/outbox.cif.g08.bks.cpg/sg15_111_cif.got.tgz:220916.got - 2010.06.03 18:47:42.
