data_PCOD9275573
_publ_section_title
;
Structure prediction by ZEFSAII (Michael W. Deem and Ramdas Pophale) SiO2 
 PCOD9275573
Probable space group: C 2/C
;
_chemical_formula_sum "Si O2"
_cell_formula_units_Z 32
_cell_length_a 9.356816
_cell_length_b 8.401976
_cell_length_c 18.855568
_cell_angle_alpha 90.000000
_cell_angle_beta 97.679486
_cell_angle_gamma 90.000000
_cell_volume 1469.049509
_symmetry_space_group_name_H-M "C 2/C"
_symmetry_group_IT_number 15
_symmetry_cell_setting 'monoclinic'
loop_
_space_group_symop_operation_xyz
x,y,z
-x,y,1/2-z
-x,-y,-z
x,-y,1/2+z
1/2+x,1/2+y,z
1/2-x,1/2+y,1/2-z
1/2-x,1/2-y,-z
1/2+x,1/2-y,1/2+z
loop_
_atom_site_type_symbol
_atom_site_label
_atom_site_fract_x
_atom_site_fract_y
_atom_site_fract_z
Si Si1 0.634230 0.149393 0.898090
Si Si2 0.670461 0.664988 0.265718
Si Si3 0.158880 0.013284 0.479791
Si Si4 0.703977 0.128465 0.640593
O O1 0.678584 0.183974 0.819987
O O2 0.661136 0.319723 0.937609
O O3 0.464557 0.114468 0.889819
O O4 0.728380 0.025340 0.948426
O O5 0.500000 0.624452 0.250000
O O6 0.722729 0.718297 0.191879
O O7 0.753248 0.521412 0.307700
O O8 0.202864 0.882285 0.424649
O O9 0.000000 0.000000 0.500000
#
# Coordination Sequence:
#
# PCOD9275573 Si02
#       4
#     8   8   8   8
#     4   9  20  39  59  84 117 152 193 242 292 345
#     4   9  20  38  58  85 119 154 196 246 292 342
#     4  10  21  38  60  87 119 151 191 243 293 344
#     4  10  20  39  63  85 119 158 194 240 293 346
#
# _framework density 21.782791
#
# number of rings (size 3 to 8) (size 9 to 14) (size 15 to 20)
#    0.000    2.500    0.000    0.750    0.000    7.000 
#    0.000   28.750    0.000    0.000    0.000    0.000 
#    0.000    0.000    0.000    0.000    0.000    0.000 
#
# Total GULP energy -89408.259191 kJ/mol
# GULP energy per Si atom -5588.016199 kJ/mol
# Density = 2.173321 g / cm^3
# Si number density = 21.782791 Si / 1000 Ang^3
#
#
#
# Elastic Constant Matrix: (Units=GPa)
#
#
# Indices 1 2 3 4 5 6 
#
# 1 50.2137 14.1008 52.0248 0.0000 9.2694 0.0000
# 2 14.1008 42.6031 17.8786 0.0000 5.6603 0.0000
# 3 52.0248 17.8786 112.0405 0.0000 10.3781 0.0000
# 4 0.0000 0.0000 0.0000 34.8734 0.0000 3.6620
# 5 9.2694 5.6603 10.3781 0.0000 44.2222 0.0000
# 6 0.0000 0.0000 0.0000 3.6620 0.0000 20.5079
#
#
#
# Elastic Compliance Matrix: (Units=1/GPa)
#
#
# Indices 1 2 3 4 5 6 
#
# 1 0.040222 -0.005502 -0.017463 0.000000 -0.003629 0.000000
# 2 -0.005502 0.026147 -0.001446 0.000000 -0.001854 0.000000
# 3 -0.017463 -0.001446 0.017284 0.000000 -0.000211 0.000000
# 4 0.000000 0.000000 0.000000 0.029223 0.000000 -0.005218
# 5 -0.003629 -0.001854 -0.000211 0.000000 0.023660 0.000000
# 6 0.000000 0.000000 0.000000 -0.005218 0.000000 0.049693
#
#
# Mechanical properties :
#
#
# Convention : Reuss Voigt Hill
#
# Bulk Modulus (GPa) = 28.70936 41.42950 35.06943
# Shear Modulus (GPa) = 20.27065 27.97759 24.12412
#
# Velocity S-wave (km/s) = 3.05385 3.58773 3.33150
# Velocity P-wave (km/s) = 5.06390 6.01856 5.56175
#
# Compressibility (1/GPa) = 0.03483185
#
# Stress axis : x y z
#
# Youngs Moduli (GPa) = 24.86179 38.24585 57.85646
#
# Poissons Ratio (x) = 0.21044 1.01033
# Poissons Ratio (y) = 0.13680 0.08363
# Poissons Ratio (z) = 0.43415 0.05529
#
# Static dielectric constant tensor:
#      x y z
#    x 1.740870 0.000000 -0.020540 
#    y 0.000000 1.796090 0.000000 
#    z -0.020540 0.000000 1.826220 
# 
# From -- ./inp_files/194721.got.cif
#   From: 2010.05.17/outbox.cif.g08.bks.cpg/sg15_98_cif.got.tgz:194721.got - 2010.06.03 18:47:42.
