data_PCOD9275809
_publ_section_title
;
Structure prediction by ZEFSAII (Michael W. Deem and Ramdas Pophale) SiO2 
 PCOD9275809
Probable space group: C 2/C
;
_chemical_formula_sum "Si O2"
_cell_formula_units_Z 28
_cell_length_a 11.499204
_cell_length_b 10.874868
_cell_length_c 9.219430
_cell_angle_alpha 90.000000
_cell_angle_beta 75.039043
_cell_angle_gamma 90.000000
_cell_volume 1113.829744
_symmetry_space_group_name_H-M "C 2/C"
_symmetry_group_IT_number 15
_symmetry_cell_setting 'monoclinic'
loop_
_space_group_symop_operation_xyz
x,y,z
-x,y,1/2-z
-x,-y,-z
x,-y,1/2+z
1/2+x,1/2+y,z
1/2-x,1/2+y,1/2-z
1/2-x,1/2-y,-z
1/2+x,1/2-y,1/2+z
loop_
_atom_site_type_symbol
_atom_site_label
_atom_site_fract_x
_atom_site_fract_y
_atom_site_fract_z
Si Si1 0.211992 0.063600 0.619114
Si Si2 0.307352 0.214744 0.828074
Si Si3 0.367701 0.944066 0.801318
Si Si4 0.500000 0.407799 0.750000
O O1 0.283081 0.105628 0.455559
O O2 0.084250 0.999404 0.629058
O O3 0.207803 0.169066 0.743452
O O4 0.296617 0.960955 0.673334
O O5 0.379308 0.088949 0.837792
O O6 0.399953 0.311381 0.727048
O O7 0.250000 0.250000 0.000000
O O8 0.500000 0.888792 0.750000
#
# Coordination Sequence:
#
# PCOD9275809 Si02
#       4
#     8   8   8   4
#     4  10  23  37  69 100 129 184 227 274 344 403
#     4  10  21  37  64  97 132 179 221 267 349 401
#     4  10  20  39  64  97 136 172 226 278 331 403
#     4  12  20  42  70  94 138 178 220 286 336 406
#
# _framework density 25.138491999999999
#
# number of rings (size 3 to 8) (size 9 to 14) (size 15 to 20)
#    1.714    0.000    4.286    0.857    0.000    4.571 
#    0.000    1.429    3.143    0.000    0.000    0.000 
#    0.000    0.000    0.000    0.000    0.000    0.000 
#
# Total GULP energy -77952.888695 kJ/mol
# GULP energy per Si atom -5568.063478 kJ/mol
# Density = 2.508128 g / cm^3
# Si number density = 25.138492 Si / 1000 Ang^3
#
#
#
# Elastic Constant Matrix: (Units=GPa)
#
#
# Indices 1 2 3 4 5 6 
#
# 1 122.4958 45.9081 57.8541 0.0000 -19.2076 0.0000
# 2 45.9081 73.7828 39.8679 0.0000 -7.0221 0.0000
# 3 57.8541 39.8679 155.6768 0.0000 -8.4093 0.0000
# 4 0.0000 0.0000 0.0000 39.2309 0.0000 12.8200
# 5 -19.2076 -7.0221 -8.4093 0.0000 35.9974 0.0000
# 6 0.0000 0.0000 0.0000 12.8200 0.0000 23.4284
#
#
#
# Elastic Compliance Matrix: (Units=1/GPa)
#
#
# Indices 1 2 3 4 5 6 
#
# 1 0.012430 -0.005708 -0.002896 0.000000 0.004842 0.000000
# 2 -0.005708 0.018518 -0.002624 0.000000 -0.000046 0.000000
# 3 -0.002896 -0.002624 0.008164 0.000000 -0.000150 0.000000
# 4 0.000000 0.000000 0.000000 0.031041 0.000000 -0.016985
# 5 0.004842 -0.000046 -0.000150 0.000000 0.030320 0.000000
# 6 0.000000 0.000000 0.000000 -0.016985 0.000000 0.051978
#
#
# Mechanical properties :
#
#
# Convention : Reuss Voigt Hill
#
# Bulk Modulus (GPa) = 60.03772 71.02395 65.53084
# Shear Modulus (GPa) = 27.70746 33.61970 30.66358
#
# Velocity S-wave (km/s) = 3.32353 3.66099 3.49633
# Velocity P-wave (km/s) = 6.21791 6.79594 6.51334
#
# Compressibility (1/GPa) = 0.01665619
#
# Stress axis : x y z
#
# Youngs Moduli (GPa) = 80.45142 54.00080 122.49610
#
# Poissons Ratio (x) = 0.30825 0.35473
# Poissons Ratio (y) = 0.45924 0.32137
# Poissons Ratio (z) = 0.23298 0.14167
#
# Static dielectric constant tensor:
#      x y z
#    x 1.974210 0.000000 0.031690 
#    y 0.000000 2.178970 0.000000 
#    z 0.031690 0.000000 1.927780 
# 
# From -- ./inp_files/27257.got.cif
#   From: 2010.05.17/outbox.cif.g08.bks.cpg/sg15_14_cif.got.tgz:27257.got - 2010.06.03 18:47:42.
