data_PCOD9275940
_publ_section_title
;
Structure prediction by ZEFSAII (Michael W. Deem and Ramdas Pophale) SiO2 
 PCOD9275940
Probable space group: C 2/C
;
_chemical_formula_sum "Si O2"
_cell_formula_units_Z 48
_cell_length_a 6.970642
_cell_length_b 12.218510
_cell_length_c 25.284512
_cell_angle_alpha 90.000000
_cell_angle_beta 115.020349
_cell_angle_gamma 90.000000
_cell_volume 1951.413732
_symmetry_space_group_name_H-M "C 2/C"
_symmetry_group_IT_number 15
_symmetry_cell_setting 'monoclinic'
loop_
_space_group_symop_operation_xyz
x,y,z
-x,y,1/2-z
-x,-y,-z
x,-y,1/2+z
1/2+x,1/2+y,z
1/2-x,1/2+y,1/2-z
1/2-x,1/2-y,-z
1/2+x,1/2-y,1/2+z
loop_
_atom_site_type_symbol
_atom_site_label
_atom_site_fract_x
_atom_site_fract_y
_atom_site_fract_z
Si Si1 0.729947 0.052050 0.772850
Si Si2 0.060708 0.560276 0.405116
Si Si3 0.458760 0.400630 0.870373
Si Si4 0.135895 0.054504 0.969804
Si Si5 0.161504 0.341093 0.153000
Si Si6 0.073771 0.785802 0.130946
O O1 0.500000 0.996573 0.750000
O O2 0.738145 0.113306 0.718362
O O3 0.743160 0.145238 0.819777
O O4 0.904468 0.963590 0.809745
O O5 0.253733 0.575965 0.385085
O O6 0.150233 0.582239 0.474467
O O7 0.899215 0.656846 0.370935
O O8 0.969631 0.439344 0.388582
O O9 0.641259 0.465191 0.923366
O O10 0.470975 0.271652 0.863643
O O11 0.006173 0.157679 0.932278
O O12 0.000000 0.000000 0.000000
O O13 0.372097 0.310382 0.145244
#
# Coordination Sequence:
#
# PCOD9275940 Si02
#       6
#     8   8   8   8   8   8
#     4  11  22  41  63  87 126 169 210 258 320 386
#     4  10  20  39  66  89 125 167 207 258 327 376
#     4   9  21  40  61  90 127 162 212 262 315 379
#     4   9  19  40  65  89 124 169 207 260 320 380
#     4  11  23  38  63  94 123 168 207 264 326 374
#     4  10  23  41  61  95 126 161 213 268 313 383
#
# _framework density 24.597553000000001
#
# number of rings (size 3 to 8) (size 9 to 14) (size 15 to 20)
#    0.000    2.000    1.667    1.000    2.333    1.333 
#    6.000    0.000    0.000    0.000    0.000    0.000 
#    0.000    0.000    0.000    0.000    0.000    0.000 
#
# Total GULP energy -134284.196631 kJ/mol
# GULP energy per Si atom -5595.174860 kJ/mol
# Density = 2.454157 g / cm^3
# Si number density = 24.597553 Si / 1000 Ang^3
#
#
#
# Elastic Constant Matrix: (Units=GPa)
#
#
# Indices 1 2 3 4 5 6 
#
# 1 53.6237 2.5126 0.6779 0.0000 -6.4456 0.0000
# 2 2.5126 175.6052 38.6680 0.0000 -1.1452 0.0000
# 3 0.6779 38.6680 126.8730 0.0000 11.1725 0.0000
# 4 0.0000 0.0000 0.0000 21.6633 0.0000 2.1277
# 5 -6.4456 -1.1452 11.1725 0.0000 31.6240 0.0000
# 6 0.0000 0.0000 0.0000 2.1277 0.0000 37.6810
#
#
#
# Elastic Compliance Matrix: (Units=1/GPa)
#
#
# Indices 1 2 3 4 5 6 
#
# 1 0.019147 -0.000157 -0.000410 0.000000 0.004042 0.000000
# 2 -0.000157 0.006131 -0.001945 0.000000 0.000877 0.000000
# 3 -0.000410 -0.001945 0.008763 0.000000 -0.003250 0.000000
# 4 0.000000 0.000000 0.000000 0.046419 0.000000 -0.002621
# 5 0.004042 0.000877 -0.003250 0.000000 0.033625 0.000000
# 6 0.000000 0.000000 0.000000 -0.002621 0.000000 0.026687
#
#
# Mechanical properties :
#
#
# Convention : Reuss Voigt Hill
#
# Bulk Modulus (GPa) = 34.46403 48.86875 41.66639
# Shear Modulus (GPa) = 32.16097 39.14322 35.65209
#
# Velocity S-wave (km/s) = 3.61984 3.99350 3.81125
# Velocity P-wave (km/s) = 5.61361 6.41673 6.02856
#
# Compressibility (1/GPa) = 0.02901576
#
# Stress axis : x y z
#
# Youngs Moduli (GPa) = 52.22794 163.10994 114.11547
#
# Poissons Ratio (x) = 0.02565 0.04682
# Poissons Ratio (y) = 0.00821 0.22195
# Poissons Ratio (z) = 0.02143 0.31724
#
# Static dielectric constant tensor:
#      x y z
#    x 2.112510 0.000000 0.004010 
#    y 0.000000 1.900240 0.000000 
#    z 0.004010 0.000000 1.940930 
# 
# From -- ./inp_files/263259.got.cif
#   From: 2010.05.17/outbox.cif.g08.bks.cpg/sg15_132_cif.got.tgz:263259.got - 2010.06.03 18:47:42.
