data_PCOD9275230
_publ_section_title
;
Structure prediction by ZEFSAII (Michael W. Deem and Ramdas Pophale) SiO2 
 PCOD9275230
Probable space group: C 2/C
;
_chemical_formula_sum "Si O2"
_cell_formula_units_Z 48
_cell_length_a 11.305921
_cell_length_b 8.544368
_cell_length_c 19.226784
_cell_angle_alpha 90.000000
_cell_angle_beta 88.730941
_cell_angle_gamma 90.000000
_cell_volume 1856.889241
_symmetry_space_group_name_H-M "C 2/C"
_symmetry_group_IT_number 15
_symmetry_cell_setting 'monoclinic'
loop_
_space_group_symop_operation_xyz
x,y,z
-x,y,1/2-z
-x,-y,-z
x,-y,1/2+z
1/2+x,1/2+y,z
1/2-x,1/2+y,1/2-z
1/2-x,1/2-y,-z
1/2+x,1/2-y,1/2+z
loop_
_atom_site_type_symbol
_atom_site_label
_atom_site_fract_x
_atom_site_fract_y
_atom_site_fract_z
Si Si1 0.359315 0.656868 0.811820
Si Si2 0.335425 0.395147 0.700818
Si Si3 0.000000 0.343137 0.250000
Si Si4 0.769098 0.080750 0.423216
Si Si5 0.664782 0.923810 0.126862
Si Si6 0.500000 0.500000 0.500000
Si Si7 0.999415 0.320705 0.925199
O O1 0.375278 0.520330 0.756586
O O2 0.278117 0.789363 0.778440
O O3 0.284629 0.567279 0.872073
O O4 0.470581 0.732609 0.850758
O O5 0.437844 0.268719 0.693894
O O6 0.291745 0.492448 0.635593
O O7 0.097226 0.430378 0.202996
O O8 0.819430 0.243627 0.390998
O O9 0.631191 0.115838 0.432170
O O10 0.859299 0.044667 0.484028
O O11 0.588844 0.031664 0.076638
O O12 0.525219 0.685207 0.519416
#
# Coordination Sequence:
#
# PCOD9275230 Si02
#       7
#     8   8   4   8   8   4   8
#     4  10  20  39  56  88 127 162 212 252 305 381
#     4  11  21  37  56  89 128 171 205 249 301 378
#     4  12  22  36  60  88 134 168 202 252 298 376
#     4  11  22  44  66  93 125 166 213 274 324 383
#     4  11  25  40  63  97 132 168 216 252 314 386
#     4  10  24  46  70  94 124 160 224 280 334 380
#     4  10  24  42  67  91 125 169 210 275 325 378
#
# _framework density 25.849682999999999
#
# number of rings (size 3 to 8) (size 9 to 14) (size 15 to 20)
#    0.000    1.333    3.333    1.500    2.333    0.667 
#    0.000    1.667    0.000    0.000    0.000    0.000 
#    0.000    0.000    0.000    0.000    0.000    0.000 
#
# Total GULP energy -133737.776888 kJ/mol
# GULP energy per Si atom -5572.407370 kJ/mol
# Density = 2.579085 g / cm^3
# Si number density = 25.849683 Si / 1000 Ang^3
#
#
#
# Elastic Constant Matrix: (Units=GPa)
#
#
# Indices 1 2 3 4 5 6 
#
# 1 113.5305 69.7062 54.3779 0.0000 56.8327 0.0000
# 2 69.7062 135.9135 50.1628 0.0000 19.0645 0.0000
# 3 54.3779 50.1628 81.4923 0.0000 17.3799 0.0000
# 4 0.0000 0.0000 0.0000 50.5243 0.0000 30.9999
# 5 56.8327 19.0645 17.3799 0.0000 37.9410 0.0000
# 6 0.0000 0.0000 0.0000 30.9999 0.0000 39.9860
#
#
#
# Elastic Compliance Matrix: (Units=1/GPa)
#
#
# Indices 1 2 3 4 5 6 
#
# 1 0.088357 -0.021601 -0.021888 0.000000 -0.111471 0.000000
# 2 -0.021601 0.014991 -0.000120 0.000000 0.024879 0.000000
# 3 -0.021888 -0.000120 0.022104 0.000000 0.022721 0.000000
# 4 0.000000 0.000000 0.000000 0.037749 0.000000 -0.029265
# 5 -0.111471 0.024879 0.022721 0.000000 0.170423 0.000000
# 6 0.000000 0.000000 0.000000 -0.029265 0.000000 0.047697
#
#
# Mechanical properties :
#
#
# Convention : Reuss Voigt Hill
#
# Bulk Modulus (GPa) = 26.15484 75.49223 50.82354
# Shear Modulus (GPa) = 10.38890 36.13621 23.26256
#
# Velocity S-wave (km/s) = 2.00691 3.74295 3.00312
# Velocity P-wave (km/s) = 3.93831 6.92440 5.63283
#
# Compressibility (1/GPa) = 0.03823384
#
# Stress axis : x y z
#
# Youngs Moduli (GPa) = 11.31776 66.70833 45.24015
#
# Poissons Ratio (x) = 1.44099 0.99022
# Poissons Ratio (y) = 0.24448 0.00541
# Poissons Ratio (z) = 0.24772 0.00797
#
# Static dielectric constant tensor:
#      x y z
#    x 2.012330 0.000000 -0.033700 
#    y 0.000000 1.973690 0.000000 
#    z -0.033700 0.000000 2.095540 
# 
# From -- ./inp_files/267830.got.cif
#   From: 2010.05.17/outbox.cif.g08.bks.cpg/sg15_134_cif.got.tgz:267830.got - 2010.06.03 18:47:42.
