data_PCOD9275655
_publ_section_title
;
Structure prediction by ZEFSAII (Michael W. Deem and Ramdas Pophale) SiO2 
 PCOD9275655
Probable space group: C 2/C
;
_chemical_formula_sum "Si O2"
_cell_formula_units_Z 64
_cell_length_a 5.759651
_cell_length_b 18.528554
_cell_length_c 27.153674
_cell_angle_alpha 90.000000
_cell_angle_beta 85.702991
_cell_angle_gamma 90.000000
_cell_volume 2889.640364
_symmetry_space_group_name_H-M "C 2/C"
_symmetry_group_IT_number 15
_symmetry_cell_setting 'monoclinic'
loop_
_space_group_symop_operation_xyz
x,y,z
-x,y,1/2-z
-x,-y,-z
x,-y,1/2+z
1/2+x,1/2+y,z
1/2-x,1/2+y,1/2-z
1/2-x,1/2-y,-z
1/2+x,1/2-y,1/2+z
loop_
_atom_site_type_symbol
_atom_site_label
_atom_site_fract_x
_atom_site_fract_y
_atom_site_fract_z
Si Si1 0.497062 0.095431 0.349397
Si Si2 0.495216 0.064523 0.641021
Si Si3 0.101154 0.826054 0.386860
Si Si4 0.376822 0.307318 0.897141
Si Si5 0.205061 0.060855 0.553110
Si Si6 0.632951 0.577381 0.444023
Si Si7 0.799575 0.269391 0.817993
Si Si8 0.255564 0.133033 0.728773
O O1 0.722722 0.133651 0.369566
O O2 0.311836 0.088731 0.396883
O O3 0.399028 0.150598 0.310588
O O4 0.513115 0.013100 0.332796
O O5 0.725644 0.113280 0.638358
O O6 0.424830 0.051462 0.585365
O O7 0.295043 0.108609 0.671943
O O8 0.241433 0.764742 0.414276
O O9 0.924726 0.868304 0.424520
O O10 0.988011 0.776631 0.346198
O O11 0.476987 0.350841 0.941862
O O12 0.575040 0.278997 0.856484
O O13 0.254153 0.069105 0.494753
O O14 0.030624 0.992591 0.561535
O O15 0.747335 0.220341 0.771943
O O16 0.500000 0.110043 0.750000
O O17 0.000000 0.107799 0.750000
#
# Coordination Sequence:
#
# PCOD9275655 Si02
#       8
#     8   8   8   8   8   8   8   8
#     4  10  22  39  69  91 136 177 223 273 335 410
#     4  12  23  42  68  98 130 182 220 279 356 406
#     4  11  20  38  66  89 127 179 225 272 335 410
#     4  10  20  39  63  92 124 177 221 271 330 404
#     4  11  22  36  61  93 137 181 228 280 332 406
#     4  10  22  37  56  99 135 176 235 277 327 391
#     4  10  22  43  67  95 126 175 223 266 350 413
#     4  12  27  46  78 105 136 170 228 290 348 426
#
# _framework density 22.148084000000001
#
# number of rings (size 3 to 8) (size 9 to 14) (size 15 to 20)
#    0.000    1.250    5.000    0.750    1.750    2.000 
#    0.000    9.375    0.000    0.000    0.000    0.000 
#    0.000    0.000    0.000    0.000    0.000    0.000 
#
# Total GULP energy -178628.641067 kJ/mol
# GULP energy per Si atom -5582.145033 kJ/mol
# Density = 2.209767 g / cm^3
# Si number density = 22.148084 Si / 1000 Ang^3
#
#
#
# Elastic Constant Matrix: (Units=GPa)
#
#
# Indices 1 2 3 4 5 6 
#
# 1 71.9804 21.7790 10.4217 0.0000 2.8399 0.0000
# 2 21.7790 132.6674 -4.7927 0.0000 3.3616 0.0000
# 3 10.4217 -4.7927 41.1771 0.0000 -2.8577 0.0000
# 4 0.0000 0.0000 0.0000 21.5411 0.0000 2.0819
# 5 2.8399 3.3616 -2.8577 0.0000 23.2021 0.0000
# 6 0.0000 0.0000 0.0000 2.0819 0.0000 46.9708
#
#
#
# Elastic Compliance Matrix: (Units=1/GPa)
#
#
# Indices 1 2 3 4 5 6 
#
# 1 0.015399 -0.002633 -0.004345 0.000000 -0.002038 0.000000
# 2 -0.002633 0.008043 0.001557 0.000000 -0.000651 0.000000
# 3 -0.004345 0.001557 0.025808 0.000000 0.003485 0.000000
# 4 0.000000 0.000000 0.000000 0.046623 0.000000 -0.002066
# 5 -0.002038 -0.000651 0.003485 0.000000 0.043873 0.000000
# 6 0.000000 0.000000 0.000000 -0.002066 0.000000 0.021381
#
#
# Mechanical properties :
#
#
# Convention : Reuss Voigt Hill
#
# Bulk Modulus (GPa) = 26.03663 33.40454 29.72058
# Shear Modulus (GPa) = 27.06048 32.90395 29.98221
#
# Velocity S-wave (km/s) = 3.49921 3.85857 3.68328
# Velocity P-wave (km/s) = 5.30162 5.91325 5.61577
#
# Compressibility (1/GPa) = 0.03840743
#
# Stress axis : x y z
#
# Youngs Moduli (GPa) = 64.93942 124.33659 38.74735
#
# Poissons Ratio (x) = 0.32741 0.16837
# Poissons Ratio (y) = 0.17100 -0.06034
# Poissons Ratio (z) = 0.28218 -0.19364
#
# Static dielectric constant tensor:
#      x y z
#    x 1.881700 0.000000 0.055420 
#    y 0.000000 1.846360 0.000000 
#    z 0.055420 0.000000 1.832790 
# 
# From -- ./inp_files/305807.got.cif
#   From: 2010.05.17/outbox.cif.g08.bks.cpg/sg15_153_cif.got.tgz:305807.got - 2010.06.03 18:47:42.
