data_PCOD9275420
_publ_section_title
;
Structure prediction by ZEFSAII (Michael W. Deem and Ramdas Pophale) SiO2 
 PCOD9275420
Probable space group: C 2/C
;
_chemical_formula_sum "Si O2"
_cell_formula_units_Z 60
_cell_length_a 29.408851
_cell_length_b 9.233510
_cell_length_c 10.117944
_cell_angle_alpha 90.000000
_cell_angle_beta 71.227268
_cell_angle_gamma 90.000000
_cell_volume 2601.336648
_symmetry_space_group_name_H-M "C 2/C"
_symmetry_group_IT_number 15
_symmetry_cell_setting 'monoclinic'
loop_
_space_group_symop_operation_xyz
x,y,z
-x,y,1/2-z
-x,-y,-z
x,-y,1/2+z
1/2+x,1/2+y,z
1/2-x,1/2+y,1/2-z
1/2-x,1/2-y,-z
1/2+x,1/2-y,1/2+z
loop_
_atom_site_type_symbol
_atom_site_label
_atom_site_fract_x
_atom_site_fract_y
_atom_site_fract_z
Si Si1 0.403693 0.792218 0.309003
Si Si2 0.648318 0.263848 0.912555
Si Si3 0.792913 0.349841 0.791578
Si Si4 0.500000 0.382655 0.750000
Si Si5 0.563668 0.587567 0.829564
Si Si6 0.737215 0.074031 0.883532
Si Si7 0.602408 0.871628 0.715203
Si Si8 0.375116 0.545615 0.469998
O O1 0.386010 0.746765 0.180524
O O2 0.454186 0.721445 0.303606
O O3 0.364399 0.710430 0.438723
O O4 0.409659 0.962959 0.302068
O O5 0.695232 0.168391 0.853413
O O6 0.662035 0.427741 0.941433
O O7 0.619734 0.194914 0.060938
O O8 0.782998 0.177721 0.817481
O O9 0.766926 0.422961 0.689997
O O10 0.850342 0.371281 0.735821
O O11 0.774719 0.422937 0.947958
O O12 0.515892 0.496451 0.847787
O O13 0.562845 0.761134 0.809885
O O14 0.586983 0.554515 0.947198
O O15 0.600261 0.526967 0.682024
#
# Coordination Sequence:
#
# PCOD9275420 Si02
#       8
#     8   8   8   4   8   8   8   8
#     4  11  22  39  65  90 123 164 206 265 307 380
#     4  10  20  42  61  91 127 164 210 260 300 380
#     4  10  22  42  62  93 130 166 205 258 303 373
#     4  10  22  42  62  90 124 156 218 256 314 372
#     4  10  22  38  63  86 121 161 202 258 308 372
#     4  10  22  41  65  93 131 163 209 257 306 362
#     4  10  23  40  64  90 128 165 206 255 321 363
#     4  10  20  39  61  90 116 165 205 247 313 368
#
# _framework density 23.065066000000002
#
# number of rings (size 3 to 8) (size 9 to 14) (size 15 to 20)
#    0.000    1.867    4.000    0.000    1.867    4.267 
#    4.800    0.667    0.000    0.000    0.000    0.000 
#    0.000    0.000    0.000    0.000    0.000    0.000 
#
# Total GULP energy -167363.552667 kJ/mol
# GULP energy per Si atom -5578.785089 kJ/mol
# Density = 2.301257 g / cm^3
# Si number density = 23.065066 Si / 1000 Ang^3
#
#
#
# Elastic Constant Matrix: (Units=GPa)
#
#
# Indices 1 2 3 4 5 6 
#
# 1 62.6674 25.1902 13.4786 0.0000 8.5299 0.0000
# 2 25.1902 140.2973 24.0643 0.0000 -1.0418 0.0000
# 3 13.4786 24.0643 79.4667 0.0000 28.9254 0.0000
# 4 0.0000 0.0000 0.0000 32.8163 0.0000 8.1971
# 5 8.5299 -1.0418 28.9254 0.0000 30.7241 0.0000
# 6 0.0000 0.0000 0.0000 8.1971 0.0000 36.6758
#
#
#
# Elastic Compliance Matrix: (Units=1/GPa)
#
#
# Indices 1 2 3 4 5 6 
#
# 1 0.017968 -0.003204 -0.000338 0.000000 -0.004779 0.000000
# 2 -0.003204 0.008368 -0.003678 0.000000 0.004636 0.000000
# 3 -0.000338 -0.003678 0.020943 0.000000 -0.019748 0.000000
# 4 0.000000 0.000000 0.000000 0.032274 0.000000 -0.007213
# 5 -0.004779 0.004636 -0.019748 0.000000 0.052623 0.000000
# 6 0.000000 0.000000 0.000000 -0.007213 0.000000 0.028878
#
#
# Mechanical properties :
#
#
# Convention : Reuss Voigt Hill
#
# Bulk Modulus (GPa) = 30.45080 45.32196 37.88638
# Shear Modulus (GPa) = 26.81798 34.68981 30.75390
#
# Velocity S-wave (km/s) = 3.41355 3.88235 3.65547
# Velocity P-wave (km/s) = 5.36351 6.30786 5.85476
#
# Compressibility (1/GPa) = 0.03283986
#
# Stress axis : x y z
#
# Youngs Moduli (GPa) = 55.65389 119.49922 47.74824
#
# Poissons Ratio (x) = 0.38284 0.01614
# Poissons Ratio (y) = 0.17830 0.17563
# Poissons Ratio (z) = 0.01881 0.43954
#
# Static dielectric constant tensor:
#      x y z
#    x 1.895900 0.000000 -0.049040 
#    y 0.000000 1.940920 0.000000 
#    z -0.049040 0.000000 1.886780 
# 
# From -- ./inp_files/125573.got.cif
#   From: 2010.05.17/outbox.cif.g08.bks.cpg/sg15_63_cif.got.tgz:125573.got - 2010.06.03 18:47:42.
