data_PCOD9275303
_publ_section_title
;
Structure prediction by ZEFSAII (Michael W. Deem and Ramdas Pophale) SiO2 
 PCOD9275303
Probable space group: C 2/C
;
_chemical_formula_sum "Si O2"
_cell_formula_units_Z 56
_cell_length_a 28.645449
_cell_length_b 9.193288
_cell_length_c 11.142941
_cell_angle_alpha 90.000000
_cell_angle_beta 121.042745
_cell_angle_gamma 90.000000
_cell_volume 2514.184134
_symmetry_space_group_name_H-M "C 2/C"
_symmetry_group_IT_number 15
_symmetry_cell_setting 'monoclinic'
loop_
_space_group_symop_operation_xyz
x,y,z
-x,y,1/2-z
-x,-y,-z
x,-y,1/2+z
1/2+x,1/2+y,z
1/2-x,1/2+y,1/2-z
1/2-x,1/2-y,-z
1/2+x,1/2-y,1/2+z
loop_
_atom_site_type_symbol
_atom_site_label
_atom_site_fract_x
_atom_site_fract_y
_atom_site_fract_z
Si Si1 0.362512 0.574253 0.774575
Si Si2 0.440509 0.688904 0.328917
Si Si3 0.804150 0.533401 0.219579
Si Si4 0.339970 0.217279 0.045339
Si Si5 0.558994 0.257125 0.944434
Si Si6 0.082773 0.437365 0.023345
Si Si7 0.240009 0.196146 0.736477
O O1 0.396279 0.425755 0.818344
O O2 0.358410 0.634973 0.633710
O O3 0.302047 0.589759 0.749046
O O4 0.397242 0.684372 0.903439
O O5 0.422595 0.730692 0.169728
O O6 0.504075 0.649266 0.392756
O O7 0.444955 0.815558 0.433196
O O8 0.808821 0.626389 0.106323
O O9 0.863859 0.478328 0.328951
O O10 0.788362 0.646661 0.305664
O O11 0.761879 0.400707 0.156236
O O12 0.392303 0.132876 0.064250
O O13 0.295241 0.231669 0.882943
O O14 0.550476 0.084846 0.954683
#
# Coordination Sequence:
#
# PCOD9275303 Si02
#       7
#     8   8   8   8   8   8   8
#     4  11  23  43  67  96 134 175 212 283 333 393
#     4  11  27  42  69  97 129 174 227 273 337 393
#     4  10  20  39  59  95 124 169 216 258 324 389
#     4  10  22  41  67  95 133 172 218 265 333 401
#     4  11  24  46  66  96 134 165 231 279 326 399
#     4  11  22  44  68  93 133 175 217 274 330 401
#     4  10  22  37  65  92 131 171 214 269 321 402
#
# _framework density 22.273627999999999
#
# number of rings (size 3 to 8) (size 9 to 14) (size 15 to 20)
#    0.000    1.429    2.857    3.429    6.000    1.143 
#    0.000    1.429    0.000    0.000    0.000    0.000 
#    0.000    0.000    0.000    0.000    0.000    0.000 
#
# Total GULP energy -156246.656648 kJ/mol
# GULP energy per Si atom -5580.237737 kJ/mol
# Density = 2.222293 g / cm^3
# Si number density = 22.273628 Si / 1000 Ang^3
#
#
#
# Elastic Constant Matrix: (Units=GPa)
#
#
# Indices 1 2 3 4 5 6 
#
# 1 71.5753 18.7525 8.5621 0.0000 2.3480 0.0000
# 2 18.7525 43.8039 9.0242 0.0000 -7.6062 0.0000
# 3 8.5621 9.0242 30.1707 0.0000 4.1949 0.0000
# 4 0.0000 0.0000 0.0000 -5.0503 0.0000 -4.6733
# 5 2.3480 -7.6062 4.1949 0.0000 23.6970 0.0000
# 6 0.0000 0.0000 0.0000 -4.6733 0.0000 35.9884
#
#
#
# Elastic Compliance Matrix: (Units=1/GPa)
#
#
# Indices 1 2 3 4 5 6 
#
# 1 0.016195 -0.007144 -0.001965 0.000000 -0.003550 0.000000
# 2 -0.007144 0.029672 -0.008479 0.000000 0.011733 0.000000
# 3 -0.001965 -0.008479 0.037513 0.000000 -0.009167 0.000000
# 4 0.000000 0.000000 0.000000 -0.176768 0.000000 -0.022954
# 5 -0.003550 0.011733 -0.009167 0.000000 0.047940 0.000000
# 6 0.000000 0.000000 0.000000 -0.022954 0.000000 0.024806
#
#
# Mechanical properties :
#
#
# Convention : Reuss Voigt Hill
#
# Bulk Modulus (GPa) = 20.74586 24.24750 22.49668
# Shear Modulus (GPa) = 163.38805 18.20775 90.79790
#
# Velocity S-wave (km/s) = 8.57404 2.86222 6.39165
# Velocity P-wave (km/s) = 10.36114 4.67257 8.03698
#
# Compressibility (1/GPa) = 0.04820238
#
# Stress axis : x y z
#
# Youngs Moduli (GPa) = 61.74866 33.70221 26.65730
#
# Poissons Ratio (x) = 0.24079 0.05239
# Poissons Ratio (y) = 0.44116 0.22602
# Poissons Ratio (z) = 0.12136 0.28575
#
# Static dielectric constant tensor:
#      x y z
#    x 1.819470 0.000000 -0.023910 
#    y 0.000000 1.876880 0.000000 
#    z -0.023910 0.000000 1.815500 
# 
# From -- ./inp_files/125973.got.cif
#   From: 2010.05.17/outbox.cif.g08.bks.cpg/sg15_63_cif.got.tgz:125973.got - 2010.06.03 18:47:42.
