data_PCOD9275634
_publ_section_title
;
Structure prediction by ZEFSAII (Michael W. Deem and Ramdas Pophale) SiO2 
 PCOD9275634
Probable space group: C 2/C
;
_chemical_formula_sum "Si O2"
_cell_formula_units_Z 56
_cell_length_a 12.194224
_cell_length_b 7.200955
_cell_length_c 26.399510
_cell_angle_alpha 90.000000
_cell_angle_beta 107.641602
_cell_angle_gamma 90.000000
_cell_volume 2209.122282
_symmetry_space_group_name_H-M "C 2/C"
_symmetry_group_IT_number 15
_symmetry_cell_setting 'monoclinic'
loop_
_space_group_symop_operation_xyz
x,y,z
-x,y,1/2-z
-x,-y,-z
x,-y,1/2+z
1/2+x,1/2+y,z
1/2-x,1/2+y,1/2-z
1/2-x,1/2-y,-z
1/2+x,1/2-y,1/2+z
loop_
_atom_site_type_symbol
_atom_site_label
_atom_site_fract_x
_atom_site_fract_y
_atom_site_fract_z
Si Si1 0.445036 0.962679 0.911398
Si Si2 0.401770 0.439308 0.447066
Si Si3 0.812730 0.410930 0.540469
Si Si4 0.972264 0.513437 0.188940
Si Si5 0.780835 0.094165 0.338639
Si Si6 0.802169 0.102328 0.621793
Si Si7 0.479469 0.543645 0.802993
O O1 0.433597 0.741100 0.919467
O O2 0.565840 0.002199 0.957096
O O3 0.468512 0.037128 0.857014
O O4 0.319101 0.023582 0.913310
O O5 0.500000 0.500000 0.500000
O O6 0.282428 0.434264 0.461412
O O7 0.367742 0.587511 0.398932
O O8 0.750000 0.250000 0.500000
O O9 0.839539 0.277921 0.592795
O O10 0.834341 0.475782 0.167656
O O11 0.009886 0.732423 0.195643
O O12 0.000000 0.445199 0.250000
O O13 0.730607 0.301702 0.328886
O O14 0.856348 0.021947 0.304133
O O15 0.913783 0.978830 0.646259
O O16 0.500000 0.474795 0.750000
#
# Coordination Sequence:
#
# PCOD9275634 Si02
#       7
#     8   8   8   8   8   8   8
#     4  12  22  41  65  92 125 161 211 259 310 376
#     4  11  21  37  66  92 117 170 205 253 315 369
#     4  11  22  43  63  86 129 166 204 260 319 365
#     4  10  21  38  64  91 123 170 205 256 319 371
#     4  10  20  42  62  88 128 163 208 256 312 371
#     4  10  24  40  62  95 125 161 209 261 304 374
#     4  10  20  39  63  90 124 166 205 255 313 371
#
# _framework density 25.349433999999999
#
# number of rings (size 3 to 8) (size 9 to 14) (size 15 to 20)
#    0.000    1.429    7.143    0.000    2.000    1.714 
#    0.000    1.429    0.000    0.000    0.000    0.000 
#    0.000    0.000    0.000    0.000    0.000    0.000 
#
# Total GULP energy -155971.347280 kJ/mol
# GULP energy per Si atom -5570.405260 kJ/mol
# Density = 2.529174 g / cm^3
# Si number density = 25.349434 Si / 1000 Ang^3
#
#
#
# Elastic Constant Matrix: (Units=GPa)
#
#
# Indices 1 2 3 4 5 6 
#
# 1 177.5712 21.5973 12.1231 0.0000 4.2849 0.0000
# 2 21.5973 47.4178 -6.3506 0.0000 -4.6991 0.0000
# 3 12.1231 -6.3506 96.3033 0.0000 6.4446 0.0000
# 4 0.0000 0.0000 0.0000 0.9686 0.0000 -0.6436
# 5 4.2849 -4.6991 6.4446 0.0000 39.1881 0.0000
# 6 0.0000 0.0000 0.0000 -0.6436 0.0000 41.5622
#
#
#
# Elastic Compliance Matrix: (Units=1/GPa)
#
#
# Indices 1 2 3 4 5 6 
#
# 1 0.006076 -0.002975 -0.000903 0.000000 -0.000873 0.000000
# 2 -0.002975 0.022949 0.001701 0.000000 0.002797 0.000000
# 3 -0.000903 0.001701 0.010707 0.000000 -0.001458 0.000000
# 4 0.000000 0.000000 0.000000 1.043106 0.000000 0.016153
# 5 -0.000873 0.002797 -0.001458 0.000000 0.026189 0.000000
# 6 0.000000 0.000000 0.000000 0.016153 0.000000 0.024310
#
#
# Mechanical properties :
#
#
# Convention : Reuss Voigt Hill
#
# Bulk Modulus (GPa) = 28.26563 41.78130 35.02346
# Shear Modulus (GPa) = 4.34978 35.93861 20.14420
#
# Velocity S-wave (km/s) = 1.31136 3.76936 2.82203
# Velocity P-wave (km/s) = 3.66981 5.95500 4.94618
#
# Compressibility (1/GPa) = 0.03537866
#
# Stress axis : x y z
#
# Youngs Moduli (GPa) = 164.58080 43.57476 93.39491
#
# Poissons Ratio (x) = 0.12963 0.08430
# Poissons Ratio (y) = 0.48960 -0.15883
# Poissons Ratio (z) = 0.14856 -0.07410
#
# Static dielectric constant tensor:
#      x y z
#    x 2.088440 0.000000 -0.009590 
#    y 0.000000 2.069520 0.000000 
#    z -0.009590 0.000000 2.144450 
# 
# From -- ./inp_files/310060.got.cif
#   From: 2010.05.17/outbox.cif.g08.bks.cpg/sg15_156_cif.got.tgz:310060.got - 2010.06.03 18:47:42.
