data_PCOD9275150
_publ_section_title
;
Structure prediction by ZEFSAII (Michael W. Deem and Ramdas Pophale) SiO2 
 PCOD9275150
Probable space group: C 2/C
;
_chemical_formula_sum "Si O2"
_cell_formula_units_Z 52
_cell_length_a 11.720018
_cell_length_b 31.186225
_cell_length_c 7.584121
_cell_angle_alpha 90.000000
_cell_angle_beta 52.180843
_cell_angle_gamma 90.000000
_cell_volume 2189.757214
_symmetry_space_group_name_H-M "C 2/C"
_symmetry_group_IT_number 15
_symmetry_cell_setting 'monoclinic'
loop_
_space_group_symop_operation_xyz
x,y,z
-x,y,1/2-z
-x,-y,-z
x,-y,1/2+z
1/2+x,1/2+y,z
1/2-x,1/2+y,1/2-z
1/2-x,1/2-y,-z
1/2+x,1/2-y,1/2+z
loop_
_atom_site_type_symbol
_atom_site_label
_atom_site_fract_x
_atom_site_fract_y
_atom_site_fract_z
Si Si1 0.500000 0.607099 0.250000
Si Si2 0.474937 0.867688 0.987356
Si Si3 0.211717 0.036107 0.883967
Si Si4 0.500000 0.940174 0.250000
Si Si5 0.500000 0.745633 0.750000
Si Si6 0.742397 0.305812 0.128992
Si Si7 0.660395 0.443865 0.046252
Si Si8 0.221487 0.142013 0.301538
O O1 0.391257 0.574032 0.449476
O O2 0.594581 0.637333 0.284379
O O3 0.500000 0.871098 0.750000
O O4 0.620716 0.843743 0.914378
O O5 0.484164 0.910177 0.094099
O O6 0.322323 0.843622 0.160992
O O7 0.352888 0.033802 0.873784
O O8 0.240123 0.047358 0.653926
O O9 0.144228 0.988708 0.960029
O O10 0.403133 0.720342 0.695006
O O11 0.622562 0.774477 0.539842
O O12 0.691584 0.328349 0.995680
O O13 0.500000 0.428385 0.250000
O O14 0.733100 0.406989 0.863578
#
# Coordination Sequence:
#
# PCOD9275150 Si02
#       8
#     4   8   8   4   4   8   8   8
#     4  12  22  40  65  85 128 170 220 269 321 382
#     4  10  21  43  65  93 130 167 212 269 325 377
#     4  12  25  41  59  91 122 178 218 274 331 373
#     4  12  26  42  65  93 132 174 224 267 331 386
#     4  10  20  38  70 102 128 164 214 248 320 408
#     4  10  21  40  68  99 128 168 208 259 320 388
#     4  12  24  41  64  87 128 166 225 276 321 385
#     4  11  22  40  64  92 127 165 216 275 321 383
#
# _framework density 23.746924
#
# number of rings (size 3 to 8) (size 9 to 14) (size 15 to 20)
#    0.000    0.923    6.154    3.231    1.077    1.846 
#    4.154    0.000    0.000    5.538    0.000    0.000 
#    0.000    0.000    0.000    0.000    0.000    0.000 
#
# Total GULP energy -145208.470620 kJ/mol
# GULP energy per Si atom -5584.941178 kJ/mol
# Density = 2.369287 g / cm^3
# Si number density = 23.746924 Si / 1000 Ang^3
#
#
#
# Elastic Constant Matrix: (Units=GPa)
#
#
# Indices 1 2 3 4 5 6 
#
# 1 204.3097 47.6231 37.7611 0.0000 -12.2756 0.0000
# 2 47.6231 65.0670 21.8790 0.0000 -4.3185 0.0000
# 3 37.7611 21.8790 35.8077 0.0000 -3.2653 0.0000
# 4 0.0000 0.0000 0.0000 32.9560 0.0000 -15.5967
# 5 -12.2756 -4.3185 -3.2653 0.0000 36.1312 0.0000
# 6 0.0000 0.0000 0.0000 -15.5967 0.0000 36.4556
#
#
#
# Elastic Compliance Matrix: (Units=1/GPa)
#
#
# Indices 1 2 3 4 5 6 
#
# 1 0.006616 -0.003077 -0.004966 0.000000 0.001431 0.000000
# 2 -0.003077 0.020831 -0.009429 0.000000 0.000592 0.000000
# 3 -0.004966 -0.009429 0.038989 0.000000 0.000710 0.000000
# 4 0.000000 0.000000 0.000000 0.038047 0.000000 0.016278
# 5 0.001431 0.000592 0.000710 0.000000 0.028298 0.000000
# 6 0.000000 0.000000 0.000000 0.016278 0.000000 0.034395
#
#
# Mechanical properties :
#
#
# Convention : Reuss Voigt Hill
#
# Bulk Modulus (GPa) = 31.75388 57.74566 44.74977
# Shear Modulus (GPa) = 23.51655 34.30331 28.90993
#
# Velocity S-wave (km/s) = 3.15032 3.80483 3.49294
# Velocity P-wave (km/s) = 5.16076 6.60850 5.92898
#
# Compressibility (1/GPa) = 0.03149222
#
# Stress axis : x y z
#
# Youngs Moduli (GPa) = 151.15825 48.00581 25.64804
#
# Poissons Ratio (x) = 0.14773 0.12736
# Poissons Ratio (y) = 0.46516 0.24183
# Poissons Ratio (z) = 0.75061 0.45263
#
# Static dielectric constant tensor:
#      x y z
#    x 1.967680 0.000000 -0.047990 
#    y 0.000000 1.953670 0.000000 
#    z -0.047990 0.000000 1.977820 
# 
# From -- ./inp_files/35132.got.cif
#   From: 2010.05.17/outbox.cif.g08.bks.cpg/sg15_18_cif.got.tgz:35132.got - 2010.06.03 18:47:42.
