data_PCOD9275270
_publ_section_title
;
Structure prediction by ZEFSAII (Michael W. Deem and Ramdas Pophale) SiO2 
 PCOD9275270
Probable space group: C 2/C
;
_chemical_formula_sum "Si O2"
_cell_formula_units_Z 60
_cell_length_a 13.010261
_cell_length_b 18.411009
_cell_length_c 11.308777
_cell_angle_alpha 90.000000
_cell_angle_beta 107.383265
_cell_angle_gamma 90.000000
_cell_volume 2585.096373
_symmetry_space_group_name_H-M "C 2/C"
_symmetry_group_IT_number 15
_symmetry_cell_setting 'monoclinic'
loop_
_space_group_symop_operation_xyz
x,y,z
-x,y,1/2-z
-x,-y,-z
x,-y,1/2+z
1/2+x,1/2+y,z
1/2-x,1/2+y,1/2-z
1/2-x,1/2-y,-z
1/2+x,1/2-y,1/2+z
loop_
_atom_site_type_symbol
_atom_site_label
_atom_site_fract_x
_atom_site_fract_y
_atom_site_fract_z
Si Si1 0.194264 0.193859 0.390305
Si Si2 0.268379 0.427934 0.432500
Si Si3 0.095764 0.220922 0.123762
Si Si4 0.841966 0.914201 0.012285
Si Si5 0.309906 0.870243 0.338967
Si Si6 0.421889 0.783903 0.892531
Si Si7 0.000000 0.840206 0.250000
Si Si8 0.529563 0.920837 0.468327
O O1 0.250000 0.250000 0.500000
O O2 0.166236 0.123028 0.454768
O O3 0.105904 0.217272 0.267833
O O4 0.300634 0.187006 0.345982
O O5 0.325603 0.506075 0.451532
O O6 0.259087 0.392261 0.299626
O O7 0.146746 0.423355 0.446536
O O8 0.178664 0.286127 0.123932
O O9 0.137492 0.146533 0.080079
O O10 0.981112 0.244847 0.026515
O O11 0.737186 0.906829 0.060158
O O12 0.935617 0.892111 0.138391
O O13 0.431378 0.895422 0.352122
O O14 0.432403 0.720204 0.800618
O O15 0.478124 0.863013 0.925020
O O16 0.500000 0.000000 0.500000
#
# Coordination Sequence:
#
# PCOD9275270 Si02
#       8
#     8   8   8   8   8   8   4   8
#     4  11  22  41  66  94 130 169 214 271 337 405
#     4  11  24  39  62  98 133 172 214 276 338 404
#     4  10  22  41  65  94 124 176 225 271 326 399
#     4  11  24  41  67  92 132 174 228 283 331 389
#     4  11  21  40  64  91 133 172 218 267 337 411
#     4   9  22  39  65  93 128 171 222 276 325 401
#     4  10  22  46  64  94 130 182 240 286 324 390
#     4  10  20  39  58  97 136 169 204 268 352 415
#
# _framework density 23.209966000000001
#
# number of rings (size 3 to 8) (size 9 to 14) (size 15 to 20)
#    0.000    1.600    2.667    1.600    1.867    2.667 
#    2.400    2.000    0.000    0.000    0.000    0.000 
#    0.000    0.000    0.000    0.000    0.000    0.000 
#
# Total GULP energy -167139.050953 kJ/mol
# GULP energy per Si atom -5571.301698 kJ/mol
# Density = 2.315714 g / cm^3
# Si number density = 23.209966 Si / 1000 Ang^3
#
#
#
# Elastic Constant Matrix: (Units=GPa)
#
#
# Indices 1 2 3 4 5 6 
#
# 1 53.5678 31.2208 18.6181 0.0000 12.8273 0.0000
# 2 31.2208 150.6016 21.9020 0.0000 11.8120 0.0000
# 3 18.6181 21.9020 75.3142 0.0000 18.7578 0.0000
# 4 0.0000 0.0000 0.0000 22.0766 0.0000 4.8301
# 5 12.8273 11.8120 18.7578 0.0000 28.9424 0.0000
# 6 0.0000 0.0000 0.0000 4.8301 0.0000 22.9567
#
#
#
# Elastic Compliance Matrix: (Units=1/GPa)
#
#
# Indices 1 2 3 4 5 6 
#
# 1 0.023655 -0.003926 -0.002974 0.000000 -0.006954 0.000000
# 2 -0.003926 0.007666 -0.001089 0.000000 -0.000683 0.000000
# 3 -0.002974 -0.001089 0.016564 0.000000 -0.008973 0.000000
# 4 0.000000 0.000000 0.000000 0.047483 0.000000 -0.009990
# 5 -0.006954 -0.000683 -0.008973 0.000000 0.043728 0.000000
# 6 0.000000 0.000000 0.000000 -0.009990 0.000000 0.045662
#
#
# Mechanical properties :
#
#
# Convention : Reuss Voigt Hill
#
# Bulk Modulus (GPa) = 31.34002 46.99614 39.16808
# Shear Modulus (GPa) = 23.65513 28.64467 26.14990
#
# Velocity S-wave (km/s) = 3.19592 3.51686 3.36023
# Velocity P-wave (km/s) = 5.21063 6.06493 5.65394
#
# Compressibility (1/GPa) = 0.03190809
#
# Stress axis : x y z
#
# Youngs Moduli (GPa) = 42.27450 130.44959 60.37083
#
# Poissons Ratio (x) = 0.51213 0.17954
# Poissons Ratio (y) = 0.16597 0.06572
# Poissons Ratio (z) = 0.12572 0.14201
#
# Static dielectric constant tensor:
#      x y z
#    x 2.421720 0.000000 -0.147520 
#    y 0.000000 1.859270 0.000000 
#    z -0.147520 0.000000 1.969860 
# 
# From -- ./inp_files/98809.got.cif
#   From: 2010.05.17/outbox.cif.g08.bks.cpg/sg15_50_cif.got.tgz:98809.got - 2010.06.03 18:47:42.
