data_PCOD9275493
_publ_section_title
;
Structure prediction by ZEFSAII (Michael W. Deem and Ramdas Pophale) SiO2 
 PCOD9275493
Probable space group: C 2/C
;
_chemical_formula_sum "Si O2"
_cell_formula_units_Z 40
_cell_length_a 17.757815
_cell_length_b 11.635375
_cell_length_c 18.025462
_cell_angle_alpha 90.000000
_cell_angle_beta 148.059957
_cell_angle_gamma 90.000000
_cell_volume 1970.325050
_symmetry_space_group_name_H-M "C 2/C"
_symmetry_group_IT_number 15
_symmetry_cell_setting 'monoclinic'
loop_
_space_group_symop_operation_xyz
x,y,z
-x,y,1/2-z
-x,-y,-z
x,-y,1/2+z
1/2+x,1/2+y,z
1/2-x,1/2+y,1/2-z
1/2-x,1/2-y,-z
1/2+x,1/2-y,1/2+z
loop_
_atom_site_type_symbol
_atom_site_label
_atom_site_fract_x
_atom_site_fract_y
_atom_site_fract_z
Si Si1 0.478618 0.129486 0.956408
Si Si2 0.162868 0.832086 0.176378
Si Si3 0.170200 0.610261 0.991872
Si Si4 0.437387 0.480158 0.274205
Si Si5 0.699518 0.624420 0.543475
O O1 0.323301 0.180912 0.839477
O O2 0.516492 0.119124 0.900627
O O3 0.589061 0.214322 0.089215
O O4 0.500000 0.000000 0.000000
O O5 0.072560 0.896976 0.163506
O O6 0.186540 0.902900 0.119381
O O7 0.186274 0.575317 0.919597
O O8 0.279203 0.527935 0.126803
O O9 0.224251 0.739642 0.053852
O O10 0.500000 0.427372 0.250000
O O11 0.546701 0.584214 0.382837
#
# Coordination Sequence:
#
# PCOD9275493 Si02
#       5
#     8   8   8   8   8
#     4  11  24  41  65  91 130 161 206 261 308 378
#     4  11  24  39  64  92 124 167 210 258 313 371
#     4   9  19  35  58  91 123 156 201 263 314 361
#     4  10  20  39  62  88 125 168 208 260 313 376
#     4   9  20  33  61  91 121 159 207 253 318 369
#
# _framework density 20.301217999999999
#
# number of rings (size 3 to 8) (size 9 to 14) (size 15 to 20)
#    0.000    2.000    2.000    0.600   11.200    2.400 
#    0.000    1.000    4.400    0.000    0.000    0.000 
#    0.000    0.000    0.000    0.000    0.000    0.000 
#
# Total GULP energy -111353.208749 kJ/mol
# GULP energy per Si atom -5567.660437 kJ/mol
# Density = 2.025501 g / cm^3
# Si number density = 20.301218 Si / 1000 Ang^3
#
#
#
# Elastic Constant Matrix: (Units=GPa)
#
#
# Indices 1 2 3 4 5 6 
#
# 1 154.6549 45.8356 25.3822 0.0000 -15.0476 0.0000
# 2 45.8356 70.0262 38.7058 0.0000 -3.2685 0.0000
# 3 25.3822 38.7058 72.2766 -0.0001 8.7305 0.0000
# 4 0.0000 0.0000 -0.0001 23.8071 0.0000 -5.2053
# 5 -15.0476 -3.2685 8.7305 0.0000 37.6436 0.0000
# 6 0.0000 0.0000 0.0000 -5.2053 0.0000 26.6562
#
#
#
# Elastic Compliance Matrix: (Units=1/GPa)
#
#
# Indices 1 2 3 4 5 6 
#
# 1 0.008338 -0.004962 -0.000640 0.000000 0.003051 0.000000
# 2 -0.004962 0.023973 -0.011427 0.000000 0.002748 0.000000
# 3 -0.000640 -0.011427 0.020917 0.000000 -0.006099 0.000000
# 4 0.000000 0.000000 0.000000 0.043878 0.000000 0.008568
# 5 0.003051 0.002748 -0.006099 0.000000 0.029438 0.000000
# 6 0.000000 0.000000 0.000000 0.008568 0.000000 0.039188
#
#
# Mechanical properties :
#
#
# Convention : Reuss Voigt Hill
#
# Bulk Modulus (GPa) = 52.16478 57.42277 54.79378
# Shear Modulus (GPa) = 24.25079 30.09031 27.17055
#
# Velocity S-wave (km/s) = 3.45997 3.85410 3.66234
# Velocity P-wave (km/s) = 6.45857 6.93918 6.70318
#
# Compressibility (1/GPa) = 0.01917002
#
# Stress axis : x y z
#
# Youngs Moduli (GPa) = 119.92699 41.71386 47.80881
#
# Poissons Ratio (x) = 0.20699 0.03057
# Poissons Ratio (y) = 0.59508 0.54633
# Poissons Ratio (z) = 0.07670 0.47668
#
# Static dielectric constant tensor:
#      x y z
#    x 1.833260 0.000000 -0.017030 
#    y 0.000000 1.683190 0.000000 
#    z -0.017030 0.000000 1.761160 
# 
# From -- ./inp_files/46739.got.cif
#   From: 2010.05.17/outbox.cif.g08.bks.cpg/sg15_24_cif.got.tgz:46739.got - 2010.06.03 18:47:42.
