data_PCOD9275826
_publ_section_title
;
Structure prediction by ZEFSAII (Michael W. Deem and Ramdas Pophale) SiO2 
 PCOD9275826
Probable space group: C 2/C
;
_chemical_formula_sum "Si O2"
_cell_formula_units_Z 60
_cell_length_a 12.043592
_cell_length_b 15.364775
_cell_length_c 16.636318
_cell_angle_alpha 90.000000
_cell_angle_beta 76.505248
_cell_angle_gamma 90.000000
_cell_volume 2993.508644
_symmetry_space_group_name_H-M "C 2/C"
_symmetry_group_IT_number 15
_symmetry_cell_setting 'monoclinic'
loop_
_space_group_symop_operation_xyz
x,y,z
-x,y,1/2-z
-x,-y,-z
x,-y,1/2+z
1/2+x,1/2+y,z
1/2-x,1/2+y,1/2-z
1/2-x,1/2-y,-z
1/2+x,1/2-y,1/2+z
loop_
_atom_site_type_symbol
_atom_site_label
_atom_site_fract_x
_atom_site_fract_y
_atom_site_fract_z
Si Si1 0.202343 0.959815 0.371773
Si Si2 0.500000 0.458146 0.750000
Si Si3 0.831973 0.906854 0.305345
Si Si4 0.684535 0.340022 0.528830
Si Si5 0.212382 0.265910 0.598212
Si Si6 0.410047 0.052476 0.398682
Si Si7 0.922260 0.135436 0.122092
Si Si8 0.155365 0.475812 0.914753
O O1 0.170712 0.918063 0.290871
O O2 0.185056 0.891363 0.444837
O O3 0.334153 0.993087 0.351622
O O4 0.126615 0.045509 0.408480
O O5 0.571469 0.524155 0.682831
O O6 0.581031 0.395324 0.785316
O O7 0.845286 0.813846 0.344617
O O8 0.716476 0.947067 0.357745
O O9 0.750000 0.250000 0.500000
O O10 0.551396 0.337514 0.578504
O O11 0.759793 0.395929 0.579569
O O12 0.250000 0.250000 0.500000
O O13 0.131952 0.349966 0.609585
O O14 0.331012 0.290534 0.621279
O O15 0.546109 0.050352 0.380647
O O16 0.376131 0.016023 0.492854
#
# Coordination Sequence:
#
# PCOD9275826 Si02
#       8
#     8   4   8   8   8   8   8   8
#     4   9  22  41  62  89 123 170 214 251 327 384
#     4  10  22  44  64  92 126 178 212 252 328 382
#     4  11  22  41  64  93 125 166 210 269 317 380
#     4  11  23  38  62  95 124 168 215 268 310 380
#     4  11  23  38  65  98 122 162 214 271 318 371
#     4   9  20  40  61  92 124 162 211 256 322 388
#     4  10  22  41  66  89 129 167 212 260 322 386
#     4  10  20  39  65  86 128 169 207 259 317 391
#
# _framework density 20.043369999999999
#
# number of rings (size 3 to 8) (size 9 to 14) (size 15 to 20)
#    0.000    1.867    2.667    0.400    1.867    4.800 
#    2.400    0.000    0.000    0.000    0.000    0.000 
#    0.000    0.000    0.000    0.000    0.000    0.000 
#
# Total GULP energy -167204.342948 kJ/mol
# GULP energy per Si atom -5573.478098 kJ/mol
# Density = 1.999775 g / cm^3
# Si number density = 20.043370 Si / 1000 Ang^3
#
#
#
# Elastic Constant Matrix: (Units=GPa)
#
#
# Indices 1 2 3 4 5 6 
#
# 1 99.8209 19.6823 -1.4639 0.0000 15.6708 0.0000
# 2 19.6823 79.0605 14.7352 0.0000 2.1449 0.0000
# 3 -1.4639 14.7352 32.1623 0.0000 15.1375 0.0000
# 4 0.0000 0.0000 0.0000 23.3662 0.0000 1.7716
# 5 15.6708 2.1449 15.1375 0.0000 15.9493 0.0000
# 6 0.0000 0.0000 0.0000 1.7716 0.0000 29.4358
#
#
#
# Elastic Compliance Matrix: (Units=1/GPa)
#
#
# Indices 1 2 3 4 5 6 
#
# 1 0.017493 -0.007336 0.021295 0.000000 -0.036411 0.000000
# 2 -0.007336 0.017422 -0.019168 0.000000 0.023057 0.000000
# 3 0.021295 -0.019168 0.089423 0.000000 -0.103216 0.000000
# 4 0.000000 0.000000 0.000000 0.042993 0.000000 -0.002588
# 5 -0.036411 0.023057 -0.103216 0.000000 0.193336 0.000000
# 6 0.000000 0.000000 0.000000 -0.002588 0.000000 0.034128
#
#
# Mechanical properties :
#
#
# Convention : Reuss Voigt Hill
#
# Bulk Modulus (GPa) = 8.77812 30.77232 19.77522
# Shear Modulus (GPa) = 11.28197 25.62296 18.45246
#
# Velocity S-wave (km/s) = 2.37508 3.57932 3.03748
# Velocity P-wave (km/s) = 3.45115 5.69809 4.71055
#
# Compressibility (1/GPa) = 0.11391965
#
# Stress axis : x y z
#
# Youngs Moduli (GPa) = 57.16610 57.39965 11.18283
#
# Poissons Ratio (x) = 0.42108 -0.23813
# Poissons Ratio (y) = 0.41936 0.21435
# Poissons Ratio (z) = -1.21733 1.10021
#
# Static dielectric constant tensor:
#      x y z
#    x 1.769880 0.000000 0.004840 
#    y 0.000000 1.690400 0.000000 
#    z 0.004840 0.000000 1.730890 
# 
# From -- ./inp_files/197857.got.cif
#   From: 2010.05.17/outbox.cif.g08.bks.cpg/sg15_99_cif.got.tgz:197857.got - 2010.06.03 18:47:42.
