data_PCOD9275054
_publ_section_title
;
Structure prediction by ZEFSAII (Michael W. Deem and Ramdas Pophale) SiO2 
 PCOD9275054
Probable space group: C 2/C
;
_chemical_formula_sum "Si O2"
_cell_formula_units_Z 44
_cell_length_a 11.648681
_cell_length_b 9.308903
_cell_length_c 18.520348
_cell_angle_alpha 90.000000
_cell_angle_beta 54.589357
_cell_angle_gamma 90.000000
_cell_volume 1636.789237
_symmetry_space_group_name_H-M "C 2/C"
_symmetry_group_IT_number 15
_symmetry_cell_setting 'monoclinic'
loop_
_space_group_symop_operation_xyz
x,y,z
-x,y,1/2-z
-x,-y,-z
x,-y,1/2+z
1/2+x,1/2+y,z
1/2-x,1/2+y,1/2-z
1/2-x,1/2-y,-z
1/2+x,1/2-y,1/2+z
loop_
_atom_site_type_symbol
_atom_site_label
_atom_site_fract_x
_atom_site_fract_y
_atom_site_fract_z
Si Si1 0.997825 0.834627 0.023075
Si Si2 0.642078 0.740650 0.323775
Si Si3 0.223430 0.352864 0.943019
Si Si4 0.000000 0.430448 0.250000
Si Si5 0.783799 0.996813 0.296280
Si Si6 0.549860 0.913727 0.595417
O O1 0.057064 0.757782 0.929067
O O2 0.070646 0.752600 0.063942
O O3 0.841415 0.771334 0.085018
O O4 0.000000 0.000000 0.000000
O O5 0.573914 0.825087 0.280914
O O6 0.657650 0.578099 0.293534
O O7 0.785732 0.826970 0.287938
O O8 0.336561 0.434858 0.851894
O O9 0.250000 0.250000 0.000000
O O10 0.137618 0.485793 0.008912
O O11 0.915588 0.536771 0.335548
O O12 0.615028 0.039861 0.357296
#
# Coordination Sequence:
#
# PCOD9275054 Si02
#       6
#     8   8   8   4   8   8
#     4  11  23  42  63  91 132 172 210 267 326 395
#     4  11  22  40  61  94 123 168 216 266 322 388
#     4  11  20  40  67  90 117 169 215 263 325 383
#     4  10  20  38  68  88 122 164 224 274 320 372
#     4  10  21  35  62  89 123 162 213 255 321 389
#     4  10  20  43  63  90 125 172 212 266 325 383
#
# _framework density 26.881896000000001
#
# number of rings (size 3 to 8) (size 9 to 14) (size 15 to 20)
#    0.000    1.455    5.455    2.182    5.091    0.000 
#    0.000    5.455    0.000    0.000    0.000    0.000 
#    0.000    0.000    0.000    0.000    0.000    0.000 
#
# Total GULP energy -122651.271765 kJ/mol
# GULP energy per Si atom -5575.057808 kJ/mol
# Density = 2.682071 g / cm^3
# Si number density = 26.881896 Si / 1000 Ang^3
#
#
#
# Elastic Constant Matrix: (Units=GPa)
#
#
# Indices 1 2 3 4 5 6 
#
# 1 31.7516 16.6499 1.0224 0.0000 11.0474 0.0000
# 2 16.6499 168.9643 17.3120 0.0000 12.1945 0.0000
# 3 1.0224 17.3120 126.0286 0.0000 20.6085 0.0000
# 4 0.0000 0.0000 0.0000 39.4600 0.0000 10.4324
# 5 11.0474 12.1945 20.6085 0.0000 25.0846 0.0000
# 6 0.0000 0.0000 0.0000 10.4324 0.0000 26.8777
#
#
#
# Elastic Compliance Matrix: (Units=1/GPa)
#
#
# Indices 1 2 3 4 5 6 
#
# 1 0.039320 -0.002859 0.003094 0.000000 -0.018469 0.000000
# 2 -0.002859 0.006360 -0.000636 0.000000 -0.001310 0.000000
# 3 0.003094 -0.000636 0.009437 0.000000 -0.008806 0.000000
# 4 0.000000 0.000000 0.000000 0.028240 0.000000 -0.010961
# 5 -0.018469 -0.001310 -0.008806 0.000000 0.055871 0.000000
# 6 0.000000 0.000000 0.000000 -0.010961 0.000000 0.041460
#
#
# Mechanical properties :
#
#
# Convention : Reuss Voigt Hill
#
# Bulk Modulus (GPa) = 18.41135 44.07922 31.24528
# Shear Modulus (GPa) = 25.05080 37.73514 31.39297
#
# Velocity S-wave (km/s) = 3.05599 3.75071 3.42103
# Velocity P-wave (km/s) = 4.39499 5.93212 5.22044
#
# Compressibility (1/GPa) = 0.05431433
#
# Stress axis : x y z
#
# Youngs Moduli (GPa) = 25.43254 157.23662 105.96557
#
# Poissons Ratio (x) = 0.44949 -0.32783
# Poissons Ratio (y) = 0.07270 0.06742
# Poissons Ratio (z) = -0.07868 0.10003
#
# Static dielectric constant tensor:
#      x y z
#    x 2.470420 0.000000 0.047930 
#    y 0.000000 2.165070 0.000000 
#    z 0.047930 0.000000 2.116110 
# 
# From -- ./inp_files/202735.got.cif
#   From: 2010.05.17/outbox.cif.g08.bks.cpg/sg15_102_cif.got.tgz:202735.got - 2010.06.03 18:47:42.
