data_PCOD9275282
_publ_section_title
;
Structure prediction by ZEFSAII (Michael W. Deem and Ramdas Pophale) SiO2 
 PCOD9275282
Probable space group: C 2/C
;
_chemical_formula_sum "Si O2"
_cell_formula_units_Z 64
_cell_length_a 15.396345
_cell_length_b 23.153377
_cell_length_c 14.726262
_cell_angle_alpha 90.000000
_cell_angle_beta 143.090113
_cell_angle_gamma 90.000000
_cell_volume 3152.677949
_symmetry_space_group_name_H-M "C 2/C"
_symmetry_group_IT_number 15
_symmetry_cell_setting 'monoclinic'
loop_
_space_group_symop_operation_xyz
x,y,z
-x,y,1/2-z
-x,-y,-z
x,-y,1/2+z
1/2+x,1/2+y,z
1/2-x,1/2+y,1/2-z
1/2-x,1/2-y,-z
1/2+x,1/2-y,1/2+z
loop_
_atom_site_type_symbol
_atom_site_label
_atom_site_fract_x
_atom_site_fract_y
_atom_site_fract_z
Si Si1 0.648157 0.121510 0.328491
Si Si2 0.129070 0.312835 0.479404
Si Si3 0.141135 0.071440 0.114382
Si Si4 0.570341 0.488818 0.209879
Si Si5 0.775498 0.127813 0.623411
Si Si6 0.974970 0.686298 0.424601
Si Si7 0.706967 0.191823 0.855242
Si Si8 0.546627 0.320980 0.077827
O O1 0.500000 0.101350 0.250000
O O2 0.702955 0.075891 0.301049
O O3 0.761866 0.132123 0.503523
O O4 0.610971 0.178833 0.240944
O O5 0.116798 0.340181 0.568479
O O6 0.221936 0.254650 0.570167
O O7 0.196868 0.339943 0.444755
O O8 0.958883 0.301562 0.314986
O O9 0.131500 0.042877 0.204685
O O10 0.045622 0.037285 0.959023
O O11 0.076752 0.136107 0.058939
O O12 0.500000 0.500735 0.250000
O O13 0.689461 0.438658 0.323992
O O14 0.624871 0.152789 0.536107
O O15 0.901700 0.163495 0.777763
O O16 0.995855 0.753993 0.462436
O O17 0.813705 0.165655 0.869676
#
# Coordination Sequence:
#
# PCOD9275282 Si02
#       8
#     8   8   8   8   8   8   8   8
#     4  10  22  40  58  89 131 165 208 258 316 391
#     4   9  17  31  52  76 115 173 220 251 316 360
#     4  10  22  40  66  95 119 158 218 268 324 377
#     4  10  20  42  73  90 117 160 209 283 323 372
#     4  10  20  39  59  87 123 167 208 256 326 365
#     4  10  21  35  55  87 130 174 203 250 308 401
#     4   9  17  31  52  78 114 167 217 267 301 373
#     4  10  21  34  59  88 128 168 211 259 313 384
#
# _framework density 20.300201999999999
#
# number of rings (size 3 to 8) (size 9 to 14) (size 15 to 20)
#    0.000    2.250    2.500    0.000    1.750    1.500 
#    6.750    2.500    2.750    0.000    0.000    0.000 
#    0.000    0.000    0.000    0.000    0.000    0.000 
#
# Total GULP energy -178275.507853 kJ/mol
# GULP energy per Si atom -5571.109620 kJ/mol
# Density = 2.025400 g / cm^3
# Si number density = 20.300202 Si / 1000 Ang^3
#
#
#
# Elastic Constant Matrix: (Units=GPa)
#
#
# Indices 1 2 3 4 5 6 
#
# 1 155.7532 56.9445 51.0293 0.0000 -8.0513 0.0000
# 2 56.9445 72.4322 28.0459 0.0000 -10.7953 0.0000
# 3 51.0293 28.0459 72.8811 0.0000 -18.2404 0.0000
# 4 0.0000 0.0000 0.0000 5.4433 0.0000 1.2317
# 5 -8.0513 -10.7953 -18.2404 0.0000 37.5759 0.0000
# 6 0.0000 0.0000 0.0000 1.2317 0.0000 29.2325
#
#
#
# Elastic Compliance Matrix: (Units=1/GPa)
#
#
# Indices 1 2 3 4 5 6 
#
# 1 0.010423 -0.006445 -0.005375 0.000000 -0.002228 0.000000
# 2 -0.006445 0.020323 -0.002496 0.000000 0.003246 0.000000
# 3 -0.005375 -0.002496 0.020463 0.000000 0.008065 0.000000
# 4 0.000000 0.000000 0.000000 0.185480 0.000000 -0.007815
# 5 -0.002228 0.003246 0.008065 0.000000 0.030983 0.000000
# 6 0.000000 0.000000 0.000000 -0.007815 0.000000 0.034538
#
#
# Mechanical properties :
#
#
# Convention : Reuss Voigt Hill
#
# Bulk Modulus (GPa) = 44.29147 63.67845 53.98496
# Shear Modulus (GPa) = 14.77690 25.45346 20.11518
#
# Velocity S-wave (km/s) = 2.70092 3.54482 3.15125
# Velocity P-wave (km/s) = 5.62070 6.94196 6.31597
#
# Compressibility (1/GPa) = 0.02257771
#
# Stress axis : x y z
#
# Youngs Moduli (GPa) = 95.94614 49.20560 48.86819
#
# Poissons Ratio (x) = 0.31712 0.26267
# Poissons Ratio (y) = 0.61835 0.12196
# Poissons Ratio (z) = 0.51571 0.12280
#
# Static dielectric constant tensor:
#      x y z
#    x 1.798700 0.000000 -0.025340 
#    y 0.000000 1.699380 0.000000 
#    z -0.025340 0.000000 1.770760 
# 
# From -- ./inp_files/156810.got.cif
#   From: 2010.05.17/outbox.cif.g08.bks.cpg/sg15_79_cif.got.tgz:156810.got - 2010.06.03 18:47:42.
