data_PCOD9275059
_publ_section_title
;
Structure prediction by ZEFSAII (Michael W. Deem and Ramdas Pophale) SiO2 
 PCOD9275059
Probable space group: C 2/C
;
_chemical_formula_sum "Si O2"
_cell_formula_units_Z 36
_cell_length_a 23.871151
_cell_length_b 15.687336
_cell_length_c 12.899457
_cell_angle_alpha 90.000000
_cell_angle_beta 20.809191
_cell_angle_gamma 90.000000
_cell_volume 1716.076047
_symmetry_space_group_name_H-M "C 2/C"
_symmetry_group_IT_number 15
_symmetry_cell_setting 'monoclinic'
loop_
_space_group_symop_operation_xyz
x,y,z
-x,y,1/2-z
-x,-y,-z
x,-y,1/2+z
1/2+x,1/2+y,z
1/2-x,1/2+y,1/2-z
1/2-x,1/2-y,-z
1/2+x,1/2-y,1/2+z
loop_
_atom_site_type_symbol
_atom_site_label
_atom_site_fract_x
_atom_site_fract_y
_atom_site_fract_z
Si Si1 0.616430 0.554517 0.722736
Si Si2 0.526917 0.043677 0.319416
Si Si3 0.530165 0.326460 0.889392
Si Si4 0.500000 0.558075 0.250000
Si Si5 0.098415 0.366516 0.269639
O O1 0.793258 0.555214 0.456369
O O2 0.609103 0.509675 0.623752
O O3 0.500000 0.500000 0.000000
O O4 0.547700 0.647601 0.866387
O O5 0.500000 0.070805 0.250000
O O6 0.420577 0.098134 0.580881
O O7 0.510673 0.941069 0.357919
O O8 0.452930 0.377674 0.925263
O O9 0.715037 0.354407 0.574180
O O10 0.523301 0.225818 0.884494
#
# Coordination Sequence:
#
# PCOD9275059 Si02
#       5
#     8   8   8   4   8
#     4  10  21  40  65  91 121 168 209 247 313 374
#     4  11  24  41  63  91 132 165 203 259 315 365
#     4  10  22  40  64  91 122 160 215 250 306 376
#     4  10  20  38  68  90 118 166 200 262 292 386
#     4  10  23  41  58  95 125 158 209 259 307 366
#
# _framework density 20.978090999999999
#
# number of rings (size 3 to 8) (size 9 to 14) (size 15 to 20)
#    0.000    1.778    4.444    0.000    7.778    0.889 
#    2.000    0.000    0.000    0.000    0.000    0.000 
#    0.000    0.000    0.000    0.000    0.000    0.000 
#
# Total GULP energy -100247.599625 kJ/mol
# GULP energy per Si atom -5569.311090 kJ/mol
# Density = 2.093034 g / cm^3
# Si number density = 20.978091 Si / 1000 Ang^3
#
#
#
# Elastic Constant Matrix: (Units=GPa)
#
#
# Indices 1 2 3 4 5 6 
#
# 1 120.2797 30.6981 21.1690 -0.0006 -1.1933 0.0003
# 2 30.6981 116.9077 46.5799 -0.0014 6.6406 0.0011
# 3 21.1690 46.5799 68.4660 -0.0011 -7.8653 0.0007
# 4 -0.0006 -0.0014 -0.0011 18.6897 0.0009 9.5385
# 5 -1.1933 6.6406 -7.8653 0.0009 22.5140 -0.0007
# 6 0.0003 0.0011 0.0007 9.5385 -0.0007 3.7947
#
#
#
# Elastic Compliance Matrix: (Units=1/GPa)
#
#
# Indices 1 2 3 4 5 6 
#
# 1 0.009045 -0.001797 -0.001519 0.000000 0.000479 0.000000
# 2 -0.001797 0.013086 -0.009169 -0.000008 -0.007158 0.000018
# 3 -0.001519 -0.009169 0.022519 0.000001 0.010491 -0.000001
# 4 0.000000 -0.000008 0.000001 -0.189147 0.000024 0.475450
# 5 0.000479 -0.007158 0.010491 0.000024 0.050218 -0.000053
# 6 0.000000 0.000018 -0.000001 0.475450 -0.000053 -0.931591
#
#
# Mechanical properties :
#
#
# Convention : Reuss Voigt Hill
#
# Bulk Modulus (GPa) = 50.81670 55.83861 53.32765
# Shear Modulus (GPa) = -5.02846 22.81344 8.89249
#
# Velocity S-wave (km/s) = -1.54991 3.30129 2.06110
# Velocity P-wave (km/s) = 4.59057 6.41924 5.58032
#
# Compressibility (1/GPa) = 0.01967857
#
# Stress axis : x y z
#
# Youngs Moduli (GPa) = 110.56239 76.42003 44.40720
#
# Poissons Ratio (x) = 0.13732 0.06745
# Poissons Ratio (y) = 0.19868 0.40718
# Poissons Ratio (z) = 0.16794 0.70072
#
# Static dielectric constant tensor:
#      x y z
#    x 1.774250 0.000000 0.023510 
#    y 0.000000 1.860150 0.000000 
#    z 0.023510 0.000000 1.792860 
# 
# From -- ./inp_files/178092.got.cif
#   From: 2010.05.17/outbox.cif.g08.bks.cpg/sg15_90_cif.got.tgz:178092.got - 2010.06.03 18:47:42.
