data_PCOD9275954
_publ_section_title
;
Structure prediction by ZEFSAII (Michael W. Deem and Ramdas Pophale) SiO2 
 PCOD9275954
Probable space group: C 2/C
;
_chemical_formula_sum "Si O2"
_cell_formula_units_Z 36
_cell_length_a 19.904620
_cell_length_b 13.617698
_cell_length_c 18.746560
_cell_angle_alpha 90.000000
_cell_angle_beta 21.759907
_cell_angle_gamma 90.000000
_cell_volume 1883.748358
_symmetry_space_group_name_H-M "C 2/C"
_symmetry_group_IT_number 15
_symmetry_cell_setting 'monoclinic'
loop_
_space_group_symop_operation_xyz
x,y,z
-x,y,1/2-z
-x,-y,-z
x,-y,1/2+z
1/2+x,1/2+y,z
1/2-x,1/2+y,1/2-z
1/2-x,1/2-y,-z
1/2+x,1/2-y,1/2+z
loop_
_atom_site_type_symbol
_atom_site_label
_atom_site_fract_x
_atom_site_fract_y
_atom_site_fract_z
Si Si1 0.685972 0.142685 0.475241
Si Si2 0.500000 0.170551 0.250000
Si Si3 0.140686 0.137412 0.670387
Si Si4 0.964488 0.987053 0.617957
Si Si5 0.262226 0.127549 0.910930
O O1 0.474176 0.116678 0.684032
O O2 0.760394 0.116836 0.481218
O O3 0.705260 0.260293 0.449642
O O4 0.803371 0.086840 0.300374
O O5 0.344860 0.114416 0.444949
O O6 0.392748 0.245174 0.302626
O O7 0.000000 0.097989 0.750000
O O8 0.091090 0.091194 0.793579
O O9 0.140053 0.945770 0.486111
O O10 0.000000 0.000000 0.500000
#
# Coordination Sequence:
#
# PCOD9275954 Si02
#       5
#     8   4   8   8   8
#     4  10  20  39  67  90 116 159 210 260 296 352
#     4   8  18  38  64  86  98 150 202 248 300 324
#     4   9  18  38  61  84 111 144 207 249 282 345
#     4  12  25  38  55  94 131 162 194 242 313 380
#     4  10  20  39  66  91 117 156 212 259 302 344
#
# _framework density 19.110833
#
# number of rings (size 3 to 8) (size 9 to 14) (size 15 to 20)
#    0.667    1.333    2.222    2.000    0.000    4.444 
#    4.000    0.000    0.000    0.000    0.000    0.000 
#    0.000    0.000    0.000    0.000    0.000    0.000 
#
# Total GULP energy -100464.431354 kJ/mol
# GULP energy per Si atom -5581.357297 kJ/mol
# Density = 1.906734 g / cm^3
# Si number density = 19.110833 Si / 1000 Ang^3
#
#
#
# Elastic Constant Matrix: (Units=GPa)
#
#
# Indices 1 2 3 4 5 6 
#
# 1 79.8446 30.4210 74.6890 0.0007 20.9883 -0.0003
# 2 30.4210 61.1559 35.2925 0.0012 15.4137 -0.0003
# 3 74.6890 35.2925 164.3744 0.0036 13.4958 -0.0023
# 4 0.0007 0.0012 0.0036 31.9140 -0.0014 -1.8025
# 5 20.9883 15.4137 13.4958 -0.0014 42.7554 0.0006
# 6 -0.0003 -0.0003 -0.0023 -1.8025 0.0006 5.3912
#
#
#
# Elastic Compliance Matrix: (Units=1/GPa)
#
#
# Indices 1 2 3 4 5 6 
#
# 1 0.025885 -0.005154 -0.010024 0.000000 -0.007684 -0.000002
# 2 -0.005154 0.021100 -0.001819 -0.000001 -0.004502 0.000000
# 3 -0.010024 -0.001819 0.010852 -0.000001 0.002151 0.000004
# 4 0.000000 -0.000001 -0.000001 0.031937 0.000001 0.010678
# 5 -0.007684 -0.004502 0.002151 0.000001 0.028105 -0.000003
# 6 -0.000002 0.000000 0.000004 0.010678 -0.000003 0.189056
#
#
# Mechanical properties :
#
#
# Convention : Reuss Voigt Hill
#
# Bulk Modulus (GPa) = 41.94106 65.13108 53.53607
# Shear Modulus (GPa) = 14.33168 27.01029 20.67099
#
# Velocity S-wave (km/s) = 2.74145 3.76353 3.29239
# Velocity P-wave (km/s) = 5.65814 7.28288 6.52131
#
# Compressibility (1/GPa) = 0.02384298
#
# Stress axis : x y z
#
# Youngs Moduli (GPa) = 38.63248 47.39361 92.14620
#
# Poissons Ratio (x) = 0.24429 0.92368
# Poissons Ratio (y) = 0.19913 0.16757
# Poissons Ratio (z) = 0.38726 0.08619
#
# Static dielectric constant tensor:
#      x y z
#    x 1.474130 -0.000010 -0.070810 
#    y -0.000010 1.724750 0.000000 
#    z -0.070810 0.000000 1.655760 
# 
# From -- ./inp_files/215532.got.cif
#   From: 2010.05.17/outbox.cif.g08.bks.cpg/sg15_108_cif.got.tgz:215532.got - 2010.06.03 18:47:42.
