data_PCOD9275081
_publ_section_title
;
Structure prediction by ZEFSAII (Michael W. Deem and Ramdas Pophale) SiO2 
 PCOD9275081
Probable space group: C 2/C
;
_chemical_formula_sum "Si O2"
_cell_formula_units_Z 52
_cell_length_a 28.199398
_cell_length_b 15.002466
_cell_length_c 20.926282
_cell_angle_alpha 90.000000
_cell_angle_beta 163.174463
_cell_angle_gamma 90.000000
_cell_volume 2562.599837
_symmetry_space_group_name_H-M "C 2/C"
_symmetry_group_IT_number 15
_symmetry_cell_setting 'monoclinic'
loop_
_space_group_symop_operation_xyz
x,y,z
-x,y,1/2-z
-x,-y,-z
x,-y,1/2+z
1/2+x,1/2+y,z
1/2-x,1/2+y,1/2-z
1/2-x,1/2-y,-z
1/2+x,1/2-y,1/2+z
loop_
_atom_site_type_symbol
_atom_site_label
_atom_site_fract_x
_atom_site_fract_y
_atom_site_fract_z
Si Si1 0.977096 0.249297 0.846209
Si Si2 0.815147 0.489512 0.487622
Si Si3 0.703327 0.392900 0.467664
Si Si4 0.819633 0.837172 0.268415
Si Si5 0.486721 0.322077 0.615073
Si Si6 0.000000 0.040219 0.250000
Si Si7 0.681609 0.802897 0.514680
O O1 0.866925 0.338943 0.696358
O O2 0.922253 0.184530 0.717077
O O3 0.925240 0.204107 0.846318
O O4 0.167434 0.271530 0.086100
O O5 0.717860 0.452770 0.422857
O O6 0.763551 0.427594 0.363278
O O7 0.791558 0.592376 0.441439
O O8 0.000000 0.477104 0.750000
O O9 0.647650 0.468159 0.446040
O O10 0.924944 0.855764 0.467010
O O11 0.507921 0.395572 0.698360
O O12 0.345285 0.255387 0.457353
O O13 0.661376 0.274837 0.824809
O O14 0.500000 0.793594 0.250000
#
# Coordination Sequence:
#
# PCOD9275081 Si02
#       7
#     8   8   8   8   8   4   8
#     4  10  21  40  67  96 132 163 209 257 325 383
#     4  10  20  39  67  89 125 161 212 248 316 380
#     4  10  20  38  68  94 124 167 209 258 313 380
#     4  11  23  41  62  99 130 168 204 264 322 384
#     4  12  26  43  66  91 131 166 218 265 321 370
#     4  12  24  42  62  96 126 166 224 268 310 370
#     4  11  24  45  67  89 118 174 218 266 308 379
#
# _framework density 20.291892000000001
#
# number of rings (size 3 to 8) (size 9 to 14) (size 15 to 20)
#    0.000    1.231    3.846    2.308    0.000    0.615 
#    5.538    0.769    0.000    0.000    0.000    0.000 
#    0.000    0.000    0.000    0.000    0.000    0.000 
#
# Total GULP energy -145001.771857 kJ/mol
# GULP energy per Si atom -5576.991225 kJ/mol
# Density = 2.024571 g / cm^3
# Si number density = 20.291892 Si / 1000 Ang^3
#
#
#
# Elastic Constant Matrix: (Units=GPa)
#
#
# Indices 1 2 3 4 5 6 
#
# 1 109.4902 32.8560 32.7320 0.0005 2.4181 0.0003
# 2 32.8560 83.2052 -0.0289 0.0000 6.7001 0.0002
# 3 32.7320 -0.0289 72.1066 0.0026 5.1726 0.0012
# 4 0.0005 0.0000 0.0026 8.7572 0.0012 7.3065
# 5 2.4181 6.7001 5.1726 0.0012 39.5653 0.0006
# 6 0.0003 0.0002 0.0012 7.3065 0.0006 25.8573
#
#
#
# Elastic Compliance Matrix: (Units=1/GPa)
#
#
# Indices 1 2 3 4 5 6 
#
# 1 0.012274 -0.004914 -0.005632 0.000001 0.000818 0.000000
# 2 -0.004914 0.014154 0.002410 0.000000 -0.002412 0.000000
# 3 -0.005632 0.002410 0.016586 -0.000005 -0.002232 0.000001
# 4 0.000001 0.000000 -0.000005 0.149420 -0.000003 -0.042222
# 5 0.000818 -0.002412 -0.002232 -0.000003 0.025925 0.000000
# 6 0.000000 0.000000 0.000001 -0.042222 0.000000 0.050605
#
#
# Mechanical properties :
#
#
# Convention : Reuss Voigt Hill
#
# Bulk Modulus (GPa) = 37.39759 43.99113 40.69436
# Shear Modulus (GPa) = 16.99810 28.11882 22.55846
#
# Velocity S-wave (km/s) = 2.89741 3.72656 3.33783
# Velocity P-wave (km/s) = 5.44639 6.34370 5.91209
#
# Compressibility (1/GPa) = 0.02673969
#
# Stress axis : x y z
#
# Youngs Moduli (GPa) = 81.47543 70.65080 60.29143
#
# Poissons Ratio (x) = 0.34721 0.33957
# Poissons Ratio (y) = 0.40041 -0.14527
# Poissons Ratio (z) = 0.45888 -0.17024
#
# Static dielectric constant tensor:
#      x y z
#    x 1.767890 0.000000 0.052550 
#    y 0.000000 1.718280 0.000000 
#    z 0.052550 0.000000 1.751830 
# 
# From -- ./inp_files/257826.got.cif
#   From: 2010.05.17/outbox.cif.g08.bks.cpg/sg15_129_cif.got.tgz:257826.got - 2010.06.03 18:47:42.
