data_PCOD9275047
_publ_section_title
;
Structure prediction by ZEFSAII (Michael W. Deem and Ramdas Pophale) SiO2 
 PCOD9275047
Probable space group: C 2/C
;
_chemical_formula_sum "Si O2"
_cell_formula_units_Z 28
_cell_length_a 7.793436
_cell_length_b 17.059742
_cell_length_c 9.834001
_cell_angle_alpha 90.000000
_cell_angle_beta 120.255535
_cell_angle_gamma 90.000000
_cell_volume 1129.375236
_symmetry_space_group_name_H-M "C 2/C"
_symmetry_group_IT_number 15
_symmetry_cell_setting 'monoclinic'
loop_
_space_group_symop_operation_xyz
x,y,z
-x,y,1/2-z
-x,-y,-z
x,-y,1/2+z
1/2+x,1/2+y,z
1/2-x,1/2+y,1/2-z
1/2-x,1/2-y,-z
1/2+x,1/2-y,1/2+z
loop_
_atom_site_type_symbol
_atom_site_label
_atom_site_fract_x
_atom_site_fract_y
_atom_site_fract_z
Si Si1 0.614283 0.653166 0.501771
Si Si2 0.500000 0.211843 0.750000
Si Si3 0.184752 0.406546 0.884779
Si Si4 0.275094 0.492134 0.651328
O O1 0.551392 0.731918 0.396474
O O2 0.402599 0.629064 0.477111
O O3 0.691993 0.588631 0.422752
O O4 0.794847 0.664391 0.678742
O O5 0.207313 0.472302 0.775682
O O6 0.000000 0.357239 0.750000
O O7 0.147837 0.446382 0.014459
O O8 0.500000 0.523318 0.750000
#
# Coordination Sequence:
#
# PCOD9275047 Si02
#       4
#     8   4   8   8
#     4  10  20  39  62  89 118 164 213 246 297 368
#     4  10  20  38  68  82 120 170 214 240 298 368
#     4  11  22  39  62  95 129 157 200 259 312 363
#     4  10  20  39  61  90 127 161 206 249 308 367
#
# _framework density 24.792466999999998
#
# number of rings (size 3 to 8) (size 9 to 14) (size 15 to 20)
#    0.000    1.714    4.286    4.286    2.000    0.000 
#    5.143    1.429    0.000    0.000    0.000    0.000 
#    0.000    0.000    0.000    0.000    0.000    0.000 
#
# Total GULP energy -78204.872124 kJ/mol
# GULP energy per Si atom -5586.062295 kJ/mol
# Density = 2.473604 g / cm^3
# Si number density = 24.792467 Si / 1000 Ang^3
#
#
#
# Elastic Constant Matrix: (Units=GPa)
#
#
# Indices 1 2 3 4 5 6 
#
# 1 116.2289 19.7179 48.5377 0.0000 34.2385 0.0000
# 2 19.7179 46.1102 40.1454 0.0000 19.0015 0.0000
# 3 48.5377 40.1454 153.9906 0.0000 55.3847 0.0000
# 4 0.0000 0.0000 0.0000 22.3607 0.0000 13.1559
# 5 34.2385 19.0015 55.3847 0.0000 62.4335 0.0000
# 6 0.0000 0.0000 0.0000 13.1559 0.0000 26.4937
#
#
#
# Elastic Compliance Matrix: (Units=1/GPa)
#
#
# Indices 1 2 3 4 5 6 
#
# 1 0.010693 -0.001601 -0.001497 0.000000 -0.004049 0.000000
# 2 -0.001601 0.028685 -0.006094 0.000000 -0.002447 0.000000
# 3 -0.001497 -0.006094 0.011149 0.000000 -0.007215 0.000000
# 4 0.000000 0.000000 0.000000 0.063179 0.000000 -0.031373
# 5 -0.004049 -0.002447 -0.007215 0.000000 0.025383 0.000000
# 6 0.000000 0.000000 0.000000 -0.031373 0.000000 0.053323
#
#
# Mechanical properties :
#
#
# Convention : Reuss Voigt Hill
#
# Bulk Modulus (GPa) = 31.10898 59.23685 45.17292
# Shear Modulus (GPa) = 22.57223 36.11952 29.34587
#
# Velocity S-wave (km/s) = 3.02063 3.82104 3.44417
# Velocity P-wave (km/s) = 4.97400 6.58879 5.83750
#
# Compressibility (1/GPa) = 0.03214506
#
# Stress axis : x y z
#
# Youngs Moduli (GPa) = 93.51793 34.86087 89.69151
#
# Poissons Ratio (x) = 0.05581 0.13425
# Poissons Ratio (y) = 0.14971 0.54655
# Poissons Ratio (z) = 0.13998 0.21243
#
# Static dielectric constant tensor:
#      x y z
#    x 2.105750 0.000000 0.083450 
#    y 0.000000 2.046420 0.000000 
#    z 0.083450 0.000000 1.983000 
# 
# From -- ./inp_files/21651.got.cif
#   From: 2010.05.17/outbox.cif.g08.bks.cpg/sg15_11_cif.got.tgz:21651.got - 2010.06.03 18:47:42.
