data_PCOD9275623
_publ_section_title
;
Structure prediction by ZEFSAII (Michael W. Deem and Ramdas Pophale) SiO2 
 PCOD9275623
Probable space group: C 2/C
;
_chemical_formula_sum "Si O2"
_cell_formula_units_Z 48
_cell_length_a 16.329723
_cell_length_b 7.159365
_cell_length_c 25.201447
_cell_angle_alpha 90.000000
_cell_angle_beta 44.346472
_cell_angle_gamma 90.000000
_cell_volume 2059.459275
_symmetry_space_group_name_H-M "C 2/C"
_symmetry_group_IT_number 15
_symmetry_cell_setting 'monoclinic'
loop_
_space_group_symop_operation_xyz
x,y,z
-x,y,1/2-z
-x,-y,-z
x,-y,1/2+z
1/2+x,1/2+y,z
1/2-x,1/2+y,1/2-z
1/2-x,1/2-y,-z
1/2+x,1/2-y,1/2+z
loop_
_atom_site_type_symbol
_atom_site_label
_atom_site_fract_x
_atom_site_fract_y
_atom_site_fract_z
Si Si1 0.410686 0.662859 0.175134
Si Si2 0.371668 0.712973 0.823355
Si Si3 0.940391 0.472275 0.371224
Si Si4 0.504911 0.284843 0.982914
Si Si5 0.346453 0.243637 0.215664
Si Si6 0.170258 0.500589 0.967342
O O1 0.443131 0.729310 0.100548
O O2 0.407647 0.439655 0.175047
O O3 0.508889 0.767708 0.164238
O O4 0.278687 0.717722 0.254012
O O5 0.500000 0.638354 0.750000
O O6 0.390792 0.905147 0.846413
O O7 0.315629 0.755199 0.792522
O O8 0.296726 0.569283 0.891752
O O9 0.847415 0.473174 0.461924
O O10 0.057616 0.583407 0.336721
O O11 0.584460 0.166159 0.986268
O O12 0.500000 0.500000 0.000000
O O13 0.378314 0.184821 0.038795
#
# Coordination Sequence:
#
# PCOD9275623 Si02
#       6
#     8   8   8   8   8   8
#     4  11  21  36  64  92 125 169 221 269 324 388
#     4  10  22  41  61  88 131 171 212 264 336 387
#     4  10  22  40  61  91 127 174 217 267 332 389
#     4  10  21  36  61  99 126 163 217 274 326 378
#     4  11  21  38  62  93 128 168 219 272 322 387
#     4  10  20  39  63  89 128 169 221 266 325 391
#
# _framework density 23.307088
#
# number of rings (size 3 to 8) (size 9 to 14) (size 15 to 20)
#    0.000    1.667    3.333    1.500    0.000    1.333 
#    0.000   10.833    0.000   12.000    0.000    0.000 
#    0.000    0.000    0.000    0.000    0.000    0.000 
#
# Total GULP energy -134231.824693 kJ/mol
# GULP energy per Si atom -5592.992696 kJ/mol
# Density = 2.325404 g / cm^3
# Si number density = 23.307088 Si / 1000 Ang^3
#
#
#
# Elastic Constant Matrix: (Units=GPa)
#
#
# Indices 1 2 3 4 5 6 
#
# 1 32.8058 0.8358 5.6533 -0.0004 0.8374 0.0006
# 2 0.8358 120.0249 1.4057 -0.0012 -1.0044 0.0015
# 3 5.6533 1.4057 77.7097 -0.0001 -5.4706 -0.0002
# 4 -0.0004 -0.0012 -0.0001 24.6204 -0.0001 6.7981
# 5 0.8374 -1.0044 -5.4706 -0.0001 25.2352 0.0000
# 6 0.0006 0.0015 -0.0002 6.7981 0.0000 17.5324
#
#
#
# Elastic Compliance Matrix: (Units=1/GPa)
#
#
# Indices 1 2 3 4 5 6 
#
# 1 0.030933 -0.000201 -0.002355 0.000001 -0.001545 -0.000001
# 2 -0.000201 0.008337 -0.000114 0.000001 0.000314 -0.000001
# 3 -0.002355 -0.000114 0.013249 0.000000 0.002946 0.000000
# 4 0.000001 0.000001 0.000000 0.045487 0.000000 -0.017637
# 5 -0.001545 0.000314 0.002946 0.000000 0.040330 0.000000
# 6 -0.000001 -0.000001 0.000000 -0.017637 0.000000 0.063876
#
#
# Mechanical properties :
#
#
# Convention : Reuss Voigt Hill
#
# Bulk Modulus (GPa) = 21.19615 27.37000 24.28308
# Shear Modulus (GPa) = 22.39359 28.32064 25.35711
#
# Velocity S-wave (km/s) = 3.10305 3.48962 3.30200
# Velocity P-wave (km/s) = 4.68536 5.29201 4.99790
#
# Compressibility (1/GPa) = 0.04717837
#
# Stress axis : x y z
#
# Youngs Moduli (GPa) = 32.32810 119.94774 75.47622
#
# Poissons Ratio (x) = 0.02408 0.17778
# Poissons Ratio (y) = 0.00649 0.00861
# Poissons Ratio (z) = 0.07615 0.01369
#
# Static dielectric constant tensor:
#      x y z
#    x 1.949980 0.000000 -0.013080 
#    y 0.000000 1.864420 0.000000 
#    z -0.013080 0.000000 1.860100 
# 
# From -- ./inp_files/299855.got.cif
#   From: 2010.05.17/outbox.cif.g08.bks.cpg/sg15_150_cif.got.tgz:299855.got - 2010.06.03 18:47:42.
