data_PCOD9275517
_publ_section_title
;
Structure prediction by ZEFSAII (Michael W. Deem and Ramdas Pophale) SiO2 
 PCOD9275517
Probable space group: C 2/C
;
_chemical_formula_sum "Si O2"
_cell_formula_units_Z 40
_cell_length_a 19.220181
_cell_length_b 5.412494
_cell_length_c 23.798401
_cell_angle_alpha 90.000000
_cell_angle_beta 141.739385
_cell_angle_gamma 90.000000
_cell_volume 1533.067520
_symmetry_space_group_name_H-M "C 2/C"
_symmetry_group_IT_number 15
_symmetry_cell_setting 'monoclinic'
loop_
_space_group_symop_operation_xyz
x,y,z
-x,y,1/2-z
-x,-y,-z
x,-y,1/2+z
1/2+x,1/2+y,z
1/2-x,1/2+y,1/2-z
1/2-x,1/2-y,-z
1/2+x,1/2-y,1/2+z
loop_
_atom_site_type_symbol
_atom_site_label
_atom_site_fract_x
_atom_site_fract_y
_atom_site_fract_z
Si Si1 0.232490 0.139770 0.871992
Si Si2 0.649589 0.522808 0.497690
Si Si3 0.700334 0.135543 0.236937
Si Si4 0.100804 0.770596 0.850512
Si Si5 0.588803 0.789605 0.565476
O O1 0.319498 0.235207 0.974671
O O2 0.201874 0.337294 0.804732
O O3 0.126910 0.026642 0.835191
O O4 0.293494 0.922712 0.876426
O O5 0.778975 0.628000 0.575353
O O6 0.583885 0.647018 0.404529
O O7 0.586968 0.582370 0.516915
O O8 0.791034 0.345443 0.273612
O O9 0.596510 0.253611 0.136848
O O10 0.000000 0.653288 0.750000
O O11 0.500000 0.000000 0.500000
#
# Coordination Sequence:
#
# PCOD9275517 Si02
#       5
#     8   8   8   8   8
#     4  10  21  39  63  84 128 169 212 276 336 399
#     4  10  21  42  61  89 133 167 218 285 334 405
#     4  10  20  39  62  90 128 167 213 265 332 400
#     4  10  23  40  63  93 121 170 227 276 339 401
#     4  10  22  38  58  94 126 170 216 272 336 405
#
# _framework density 26.091479
#
# number of rings (size 3 to 8) (size 9 to 14) (size 15 to 20)
#    0.000    2.000    2.000    0.600    0.000    4.800 
#    7.200    0.000    0.000    0.000    0.000    0.000 
#    0.000    0.000    0.000    0.000    0.000    0.000 
#
# Total GULP energy -111464.315530 kJ/mol
# GULP energy per Si atom -5573.215777 kJ/mol
# Density = 2.603209 g / cm^3
# Si number density = 26.091479 Si / 1000 Ang^3
#
#
#
# Elastic Constant Matrix: (Units=GPa)
#
#
# Indices 1 2 3 4 5 6 
#
# 1 69.1314 9.4697 19.5414 -0.0003 -12.5151 -0.0012
# 2 9.4697 63.0909 1.9172 0.0001 -0.9349 -0.0072
# 3 19.5414 1.9172 135.4323 -0.0002 -14.5866 -0.0013
# 4 -0.0003 0.0001 -0.0002 46.0971 -0.0002 -0.7722
# 5 -12.5151 -0.9349 -14.5866 -0.0002 33.6576 0.0000
# 6 -0.0012 -0.0072 -0.0013 -0.7722 0.0000 33.7008
#
#
#
# Elastic Compliance Matrix: (Units=1/GPa)
#
#
# Indices 1 2 3 4 5 6 
#
# 1 0.016218 -0.002304 -0.001746 0.000000 0.005209 0.000000
# 2 -0.002304 0.016188 0.000062 0.000000 -0.000380 0.000003
# 3 -0.001746 0.000062 0.007936 0.000000 0.002791 0.000000
# 4 0.000000 0.000000 0.000000 0.021702 0.000000 0.000497
# 5 0.005209 -0.000380 0.002791 0.000000 0.032847 0.000000
# 6 0.000000 0.000003 0.000000 0.000497 0.000000 0.029684
#
#
# Mechanical properties :
#
#
# Convention : Reuss Voigt Hill
#
# Bulk Modulus (GPa) = 30.89694 36.61235 33.75464
# Shear Modulus (GPa) = 34.88232 38.47285 36.67759
#
# Velocity S-wave (km/s) = 3.66036 3.84414 3.75337
# Velocity P-wave (km/s) = 5.45269 5.81085 5.63461
#
# Compressibility (1/GPa) = 0.03236566
#
# Stress axis : x y z
#
# Youngs Moduli (GPa) = 61.66168 61.77245 126.01580
#
# Poissons Ratio (x) = 0.14232 0.22006
# Poissons Ratio (y) = 0.14206 -0.00786
# Poissons Ratio (z) = 0.10768 -0.00385
#
# Static dielectric constant tensor:
#      x y z
#    x 2.057040 0.000000 -0.031440 
#    y 0.000000 2.157800 0.000000 
#    z -0.031440 0.000000 2.311500 
# 
# From -- ./inp_files/170475.got.cif
#   From: 2010.05.17/outbox.cif.g08.bks.cpg/sg15_86_cif.got.tgz:170475.got - 2010.06.03 18:47:42.
