data_PCOD9275781
_publ_section_title
;
Structure prediction by ZEFSAII (Michael W. Deem and Ramdas Pophale) SiO2 
 PCOD9275781
Probable space group: C 2/C
;
_chemical_formula_sum "Si O2"
_cell_formula_units_Z 64
_cell_length_a 12.500986
_cell_length_b 10.031018
_cell_length_c 22.535663
_cell_angle_alpha 90.000000
_cell_angle_beta 86.302479
_cell_angle_gamma 90.000000
_cell_volume 2820.036001
_symmetry_space_group_name_H-M "C 2/C"
_symmetry_group_IT_number 15
_symmetry_cell_setting 'monoclinic'
loop_
_space_group_symop_operation_xyz
x,y,z
-x,y,1/2-z
-x,-y,-z
x,-y,1/2+z
1/2+x,1/2+y,z
1/2-x,1/2+y,1/2-z
1/2-x,1/2-y,-z
1/2+x,1/2-y,1/2+z
loop_
_atom_site_type_symbol
_atom_site_label
_atom_site_fract_x
_atom_site_fract_y
_atom_site_fract_z
Si Si1 0.253923 0.898661 0.352133
Si Si2 0.754242 0.863250 0.374570
Si Si3 0.836072 0.644244 0.081605
Si Si4 0.584244 0.714123 0.195527
Si Si5 0.935755 0.759049 0.455916
Si Si6 0.627407 0.438770 0.242004
Si Si7 0.531176 0.748404 0.418237
Si Si8 0.359560 0.027202 0.956916
O O1 0.231178 0.763519 0.389083
O O2 0.356215 0.854254 0.311017
O O3 0.165671 0.933244 0.308129
O O4 0.284634 0.997170 0.403085
O O5 0.851565 0.837317 0.418060
O O6 0.807634 0.847841 0.307357
O O7 0.652120 0.770288 0.391640
O O8 0.699224 0.008875 0.384858
O O9 0.958021 0.701875 0.080753
O O10 0.815326 0.612264 0.013151
O O11 0.500000 0.731162 0.250000
O O12 0.648856 0.586275 0.215482
O O13 0.531650 0.680376 0.133763
O O14 0.968390 0.824414 0.517752
O O15 0.882926 0.619799 0.479430
O O16 0.500000 0.413130 0.250000
O O17 0.463349 0.887475 0.431316
#
# Coordination Sequence:
#
# PCOD9275781 Si02
#       8
#     8   8   8   8   8   8   8   8
#     4  11  23  41  67  88 123 176 209 260 346 383
#     4  12  22  40  70  93 130 178 219 268 339 398
#     4  11  21  42  64  95 134 167 214 271 332 401
#     4  10  22  41  63  86 125 164 214 270 314 389
#     4  11  22  39  64 101 133 165 215 280 327 396
#     4  11  25  44  59  89 126 168 216 272 318 394
#     4  10  20  39  64  94 126 168 210 265 332 394
#     4  10  21  39  66  96 131 163 209 277 325 395
#
# _framework density 22.694745999999999
#
# number of rings (size 3 to 8) (size 9 to 14) (size 15 to 20)
#    0.000    1.250    3.750    3.000    0.000    3.000 
#    0.000    0.625    0.000    0.000    0.000    0.000 
#    0.000    0.000    0.000    0.000    0.000    0.000 
#
# Total GULP energy -178568.742442 kJ/mol
# GULP energy per Si atom -5580.273201 kJ/mol
# Density = 2.264309 g / cm^3
# Si number density = 22.694746 Si / 1000 Ang^3
#
#
#
# Elastic Constant Matrix: (Units=GPa)
#
#
# Indices 1 2 3 4 5 6 
#
# 1 84.4758 6.4246 50.3031 0.0000 9.8361 0.0000
# 2 6.4246 31.8771 7.9281 0.0000 -4.1428 0.0000
# 3 50.3031 7.9281 127.4203 0.0000 23.6102 0.0000
# 4 0.0000 0.0000 0.0000 8.8575 0.0000 -0.8734
# 5 9.8361 -4.1428 23.6102 0.0000 45.1412 0.0000
# 6 0.0000 0.0000 0.0000 -0.8734 0.0000 11.0728
#
#
#
# Elastic Compliance Matrix: (Units=1/GPa)
#
#
# Indices 1 2 3 4 5 6 
#
# 1 0.015566 -0.001712 -0.005959 0.000000 -0.000432 0.000000
# 2 -0.001712 0.032856 -0.002211 0.000000 0.004544 0.000000
# 3 -0.005959 -0.002211 0.011223 0.000000 -0.004774 0.000000
# 4 0.000000 0.000000 0.000000 0.113784 0.000000 0.008975
# 5 -0.000432 0.004544 -0.004774 0.000000 0.025161 0.000000
# 6 0.000000 0.000000 0.000000 0.008975 0.000000 0.091020
#
#
# Mechanical properties :
#
#
# Convention : Reuss Voigt Hill
#
# Bulk Modulus (GPa) = 25.07328 41.45386 33.26357
# Shear Modulus (GPa) = 15.49591 24.95546 20.22568
#
# Velocity S-wave (km/s) = 2.61587 3.31964 2.98855
# Velocity P-wave (km/s) = 4.49397 5.74446 5.15726
#
# Compressibility (1/GPa) = 0.03988310
#
# Stress axis : x y z
#
# Youngs Moduli (GPa) = 64.24054 30.43598 89.10561
#
# Poissons Ratio (x) = 0.05209 0.53096
# Poissons Ratio (y) = 0.10995 0.19698
# Poissons Ratio (z) = 0.38279 0.06728
#
# Static dielectric constant tensor:
#      x y z
#    x 1.927370 0.000000 -0.013110 
#    y 0.000000 1.972460 0.000000 
#    z -0.013110 0.000000 1.865400 
# 
# From -- ./inp_files/268899.got.cif
#   From: 2010.05.17/outbox.cif.g08.bks.cpg/sg15_135_cif.got.tgz:268899.got - 2010.06.03 18:47:42.
