data_PCOD9275850
_publ_section_title
;
Structure prediction by ZEFSAII (Michael W. Deem and Ramdas Pophale) SiO2 
 PCOD9275850
Probable space group: C 2/C
;
_chemical_formula_sum "Si O2"
_cell_formula_units_Z 60
_cell_length_a 23.156601
_cell_length_b 8.780884
_cell_length_c 18.955801
_cell_angle_alpha 90.000000
_cell_angle_beta 135.367056
_cell_angle_gamma 90.000000
_cell_volume 2707.946368
_symmetry_space_group_name_H-M "C 2/C"
_symmetry_group_IT_number 15
_symmetry_cell_setting 'monoclinic'
loop_
_space_group_symop_operation_xyz
x,y,z
-x,y,1/2-z
-x,-y,-z
x,-y,1/2+z
1/2+x,1/2+y,z
1/2-x,1/2+y,1/2-z
1/2-x,1/2-y,-z
1/2+x,1/2-y,1/2+z
loop_
_atom_site_type_symbol
_atom_site_label
_atom_site_fract_x
_atom_site_fract_y
_atom_site_fract_z
Si Si1 0.526775 0.719284 0.384393
Si Si2 0.000000 0.441908 0.250000
Si Si3 0.770702 0.548802 0.639766
Si Si4 0.708126 0.138014 0.062581
Si Si5 0.858514 0.526436 0.357450
Si Si6 0.656513 0.122071 0.422791
Si Si7 0.486856 0.226118 0.009819
Si Si8 0.601673 0.580588 0.952213
O O1 0.471152 0.826552 0.286628
O O2 0.615991 0.801095 0.466399
O O3 0.493879 0.712519 0.435745
O O4 0.548365 0.554552 0.371876
O O5 0.066015 0.550072 0.342879
O O6 0.768581 0.718819 0.603772
O O7 0.813257 0.546131 0.752085
O O8 0.812505 0.419567 0.628046
O O9 0.675542 0.499417 0.559526
O O10 0.705837 0.094233 0.142837
O O11 0.714425 0.983320 0.023087
O O12 0.916637 0.404138 0.447207
O O13 0.924990 0.654466 0.394074
O O14 0.643365 0.293218 0.437913
O O15 0.457457 0.341109 0.042907
#
# Coordination Sequence:
#
# PCOD9275850 Si02
#       8
#     8   4   8   8   8   8   8   8
#     4   9  20  39  61  90 125 159 202 257 317 373
#     4  10  22  40  64  92 116 166 216 258 306 384
#     4  11  24  38  61  92 127 164 214 261 315 383
#     4   9  20  39  60  84 124 166 203 255 317 373
#     4  10  21  37  64  94 119 163 220 261 309 380
#     4  11  22  40  64  88 124 173 212 257 321 380
#     4  10  20  39  65  90 125 167 205 262 319 374
#     4  11  23  39  63  91 132 163 203 264 325 370
#
# _framework density 22.157012999999999
#
# number of rings (size 3 to 8) (size 9 to 14) (size 15 to 20)
#    0.000    1.867    1.333    2.000    5.600    0.533 
#    0.000    0.000    2.933    0.000    0.000    0.000 
#    0.000    0.000    0.000    0.000    0.000    0.000 
#
# Total GULP energy -167461.110186 kJ/mol
# GULP energy per Si atom -5582.037006 kJ/mol
# Density = 2.210658 g / cm^3
# Si number density = 22.157013 Si / 1000 Ang^3
#
#
#
# Elastic Constant Matrix: (Units=GPa)
#
#
# Indices 1 2 3 4 5 6 
#
# 1 25.1634 11.7349 -4.2021 0.0000 -2.9073 0.0000
# 2 11.7349 102.3087 22.0415 0.0000 0.8443 0.0000
# 3 -4.2021 22.0415 66.7456 0.0000 -2.7906 0.0000
# 4 0.0000 0.0000 0.0000 11.6823 0.0000 -4.8066
# 5 -2.9073 0.8443 -2.7906 0.0000 16.7743 0.0000
# 6 0.0000 0.0000 0.0000 -4.8066 0.0000 25.2971
#
#
#
# Elastic Compliance Matrix: (Units=1/GPa)
#
#
# Indices 1 2 3 4 5 6 
#
# 1 0.044601 -0.006325 0.005270 0.000000 0.008925 0.000000
# 2 -0.006325 0.011441 -0.004276 0.000000 -0.002383 0.000000
# 3 0.005270 -0.004276 0.016891 0.000000 0.003939 0.000000
# 4 0.000000 0.000000 0.000000 0.092859 0.000000 0.017644
# 5 0.008925 -0.002383 0.003939 0.000000 0.061937 0.000000
# 6 0.000000 0.000000 0.000000 0.017644 0.000000 0.042883
#
#
# Mechanical properties :
#
#
# Convention : Reuss Voigt Hill
#
# Bulk Modulus (GPa) = 16.05894 28.15181 22.10537
# Shear Modulus (GPa) = 16.55464 21.72695 19.14080
#
# Velocity S-wave (km/s) = 2.73637 3.13484 2.94236
# Velocity P-wave (km/s) = 4.15297 5.08292 4.64130
#
# Compressibility (1/GPa) = 0.06227061
#
# Stress axis : x y z
#
# Youngs Moduli (GPa) = 22.42099 87.40751 59.20404
#
# Poissons Ratio (x) = 0.55283 -0.31199
# Poissons Ratio (y) = 0.14181 0.25315
# Poissons Ratio (z) = -0.11815 0.37375
#
# Static dielectric constant tensor:
#      x y z
#    x 1.853160 0.000000 0.005900 
#    y 0.000000 1.853440 0.000000 
#    z 0.005900 0.000000 1.790440 
# 
# From -- ./inp_files/257211.got.cif
#   From: 2010.05.17/outbox.cif.g08.bks.cpg/sg15_129_cif.got.tgz:257211.got - 2010.06.03 18:47:42.
