data_PCOD9275515
_publ_section_title
;
Structure prediction by ZEFSAII (Michael W. Deem and Ramdas Pophale) SiO2 
 PCOD9275515
Probable space group: C 2/C
;
_chemical_formula_sum "Si O2"
_cell_formula_units_Z 56
_cell_length_a 28.961862
_cell_length_b 7.390920
_cell_length_c 12.578237
_cell_angle_alpha 90.000000
_cell_angle_beta 64.938010
_cell_angle_gamma 90.000000
_cell_volume 2438.939626
_symmetry_space_group_name_H-M "C 2/C"
_symmetry_group_IT_number 15
_symmetry_cell_setting 'monoclinic'
loop_
_space_group_symop_operation_xyz
x,y,z
-x,y,1/2-z
-x,-y,-z
x,-y,1/2+z
1/2+x,1/2+y,z
1/2-x,1/2+y,1/2-z
1/2-x,1/2-y,-z
1/2+x,1/2-y,1/2+z
loop_
_atom_site_type_symbol
_atom_site_label
_atom_site_fract_x
_atom_site_fract_y
_atom_site_fract_z
Si Si1 0.134225 0.341722 0.718999
Si Si2 0.187535 0.595908 0.965011
Si Si3 0.284620 0.572188 0.457745
Si Si4 0.931373 0.083296 0.057101
Si Si5 0.164252 0.724510 0.773480
Si Si6 0.472533 0.318244 0.165651
Si Si7 0.853629 0.200391 0.566759
O O1 0.153321 0.291229 0.582773
O O2 0.153835 0.544617 0.717057
O O3 0.072938 0.327008 0.789189
O O4 0.155644 0.230922 0.798813
O O5 0.241499 0.568846 0.969954
O O6 0.200529 0.678023 0.836699
O O7 0.156657 0.404172 0.970772
O O8 0.250000 0.750000 0.500000
O O9 0.320107 0.619858 0.322868
O O10 0.315680 0.572927 0.537237
O O11 0.886611 0.223348 0.114531
O O12 0.944265 0.003019 0.160401
O O13 0.908206 0.908938 0.014118
O O14 0.981149 0.181150 0.963253
O O15 0.500000 0.321604 0.250000
#
# Coordination Sequence:
#
# PCOD9275515 Si02
#       7
#     8   8   8   8   8   8   8
#     4  10  20  40  65  92 124 170 205 277 315 377
#     4  10  21  40  66  94 130 168 221 262 321 379
#     4  10  20  39  62  90 125 172 206 260 313 381
#     4  10  23  40  61  96 124 171 206 267 323 382
#     4  11  22  39  66  92 129 164 218 260 321 382
#     4  10  22  40  64  87 129 161 215 262 322 384
#     4   9  20  39  64  87 133 167 212 260 324 378
#
# _framework density 22.960799000000002
#
# number of rings (size 3 to 8) (size 9 to 14) (size 15 to 20)
#    0.000    2.000    2.857    0.857    2.000    2.857 
#    2.571    4.286    0.000    0.000    0.000    0.000 
#    0.000    0.000    0.000    0.000    0.000    0.000 
#
# Total GULP energy -156113.808540 kJ/mol
# GULP energy per Si atom -5575.493162 kJ/mol
# Density = 2.290854 g / cm^3
# Si number density = 22.960799 Si / 1000 Ang^3
#
#
#
# Elastic Constant Matrix: (Units=GPa)
#
#
# Indices 1 2 3 4 5 6 
#
# 1 121.0612 22.7742 41.2306 0.0000 17.9894 0.0000
# 2 22.7742 65.7367 31.8558 0.0000 6.0686 0.0000
# 3 41.2306 31.8558 105.8469 0.0000 13.9748 0.0000
# 4 0.0000 0.0000 0.0000 19.7214 0.0000 -6.5482
# 5 17.9894 6.0686 13.9748 0.0000 43.1671 0.0000
# 6 0.0000 0.0000 0.0000 -6.5482 0.0000 22.1518
#
#
#
# Elastic Compliance Matrix: (Units=1/GPa)
#
#
# Indices 1 2 3 4 5 6 
#
# 1 0.010052 -0.001757 -0.002994 0.000000 -0.002973 0.000000
# 2 -0.001757 0.018143 -0.004738 0.000000 -0.000284 0.000000
# 3 -0.002994 -0.004738 0.012314 0.000000 -0.002072 0.000000
# 4 0.000000 0.000000 0.000000 0.056225 0.000000 0.016620
# 5 -0.002973 -0.000284 -0.002072 0.000000 0.025116 0.000000
# 6 0.000000 0.000000 0.000000 0.016620 0.000000 0.050056
#
#
# Mechanical properties :
#
#
# Convention : Reuss Voigt Hill
#
# Bulk Modulus (GPa) = 46.44763 53.81843 50.13303
# Shear Modulus (GPa) = 25.24452 30.12700 27.68576
#
# Velocity S-wave (km/s) = 3.31941 3.62623 3.47621
# Velocity P-wave (km/s) = 5.91306 6.40491 6.16389
#
# Compressibility (1/GPa) = 0.02152963
#
# Stress axis : x y z
#
# Youngs Moduli (GPa) = 99.47863 55.11636 81.21020
#
# Poissons Ratio (x) = 0.09684 0.24318
# Poissons Ratio (y) = 0.17479 0.38481
# Poissons Ratio (z) = 0.29788 0.26117
#
# Static dielectric constant tensor:
#      x y z
#    x 1.870680 0.000000 0.063380 
#    y 0.000000 1.692870 0.000000 
#    z 0.063380 0.000000 1.534090 
# 
# From -- ./inp_files/125542.got.cif
#   From: 2010.05.17/outbox.cif.g08.bks.cpg/sg15_63_cif.got.tgz:125542.got - 2010.06.03 18:47:42.
