data_PCOD9275786
_publ_section_title
;
Structure prediction by ZEFSAII (Michael W. Deem and Ramdas Pophale) SiO2 
 PCOD9275786
Probable space group: C 2/C
;
_chemical_formula_sum "Si O2"
_cell_formula_units_Z 40
_cell_length_a 11.129416
_cell_length_b 12.017818
_cell_length_c 22.455017
_cell_angle_alpha 90.000000
_cell_angle_beta 147.341581
_cell_angle_gamma 90.000000
_cell_volume 1620.716479
_symmetry_space_group_name_H-M "C 2/C"
_symmetry_group_IT_number 15
_symmetry_cell_setting 'monoclinic'
loop_
_space_group_symop_operation_xyz
x,y,z
-x,y,1/2-z
-x,-y,-z
x,-y,1/2+z
1/2+x,1/2+y,z
1/2-x,1/2+y,1/2-z
1/2-x,1/2-y,-z
1/2+x,1/2-y,1/2+z
loop_
_atom_site_type_symbol
_atom_site_label
_atom_site_fract_x
_atom_site_fract_y
_atom_site_fract_z
Si Si1 0.950808 0.252347 0.659269
Si Si2 0.005059 0.004245 0.823088
Si Si3 0.510953 0.366550 0.494438
Si Si4 0.370061 0.088175 0.749669
Si Si5 0.037695 0.785238 0.638688
O O1 0.745012 0.332573 0.562368
O O2 0.000000 0.250658 0.750000
O O3 0.885274 0.123951 0.618308
O O4 0.194023 0.286404 0.737273
O O5 0.771048 0.019603 0.761257
O O6 0.000000 0.992884 0.750000
O O7 0.089129 0.888747 0.884667
O O8 0.500000 0.500000 0.500000
O O9 0.308424 0.344432 0.365289
O O10 0.507966 0.300280 0.555655
O O11 0.500000 0.025874 0.750000
O O12 0.519526 0.170126 0.851964
#
# Coordination Sequence:
#
# PCOD9275786 Si02
#       5
#     8   8   8   8   8
#     4   8  19  37  63  92 132 170 219 267 330 403
#     4  10  20  39  64  94 131 177 215 273 340 401
#     4  11  22  40  69 103 133 184 230 275 338 420
#     4  11  25  42  67  98 137 179 226 284 342 400
#     4  10  21  40  65  97 137 173 224 286 339 400
#
# _framework density 24.680443
#
# number of rings (size 3 to 8) (size 9 to 14) (size 15 to 20)
#    0.000    2.000    2.000    1.800    2.800    4.000 
#    0.000    0.000    0.000   20.400    0.000    0.000 
#    0.000    0.000    0.000    0.000    0.000    0.000 
#
# Total GULP energy -111546.269555 kJ/mol
# GULP energy per Si atom -5577.313478 kJ/mol
# Density = 2.462427 g / cm^3
# Si number density = 24.680443 Si / 1000 Ang^3
#
#
#
# Elastic Constant Matrix: (Units=GPa)
#
#
# Indices 1 2 3 4 5 6 
#
# 1 170.5431 7.4502 23.4475 -0.0002 -35.4253 -0.0001
# 2 7.4502 91.8473 -12.5151 -0.0001 -25.1997 0.0000
# 3 23.4475 -12.5151 77.3828 0.0004 -24.6400 0.0002
# 4 -0.0002 -0.0001 0.0004 12.9302 -0.0001 -8.2833
# 5 -35.4253 -25.1997 -24.6400 -0.0001 53.4547 0.0000
# 6 -0.0001 0.0000 0.0002 -8.2833 0.0000 21.4099
#
#
#
# Elastic Compliance Matrix: (Units=1/GPa)
#
#
# Indices 1 2 3 4 5 6 
#
# 1 0.006864 0.000641 -0.000506 0.000000 0.004619 0.000000
# 2 0.000641 0.014115 0.005090 0.000000 0.009425 0.000000
# 3 -0.000506 0.005090 0.017060 -0.000001 0.009928 0.000000
# 4 0.000000 0.000000 -0.000001 0.102823 0.000000 0.039782
# 5 0.004619 0.009425 0.009928 0.000000 0.030788 0.000000
# 6 0.000000 0.000000 0.000000 0.039782 0.000000 0.062099
#
#
# Mechanical properties :
#
#
# Convention : Reuss Voigt Hill
#
# Bulk Modulus (GPa) = 20.62233 41.83761 31.22997
# Shear Modulus (GPa) = 20.88008 38.98499 29.93254
#
# Velocity S-wave (km/s) = 2.91179 3.97872 3.48631
# Velocity P-wave (km/s) = 4.43606 6.17215 5.37467
#
# Compressibility (1/GPa) = 0.04849112
#
# Stress axis : x y z
#
# Youngs Moduli (GPa) = 145.67751 70.84597 58.61496
#
# Poissons Ratio (x) = -0.04544 0.02964
# Poissons Ratio (y) = -0.09345 -0.29833
# Poissons Ratio (z) = 0.07366 -0.36058
#
# Static dielectric constant tensor:
#      x y z
#    x 2.065800 0.000000 0.107250 
#    y 0.000000 1.986400 0.000000 
#    z 0.107250 0.000000 1.994750 
# 
# From -- ./inp_files/270041.got.cif
#   From: 2010.05.17/outbox.cif.g08.bks.cpg/sg15_136_cif.got.tgz:270041.got - 2010.06.03 18:47:42.
