data_PCOD9275400
_publ_section_title
;
Structure prediction by ZEFSAII (Michael W. Deem and Ramdas Pophale) SiO2 
 PCOD9275400
Probable space group: C 2/C
;
_chemical_formula_sum "Si O2"
_cell_formula_units_Z 64
_cell_length_a 27.481136
_cell_length_b 18.422769
_cell_length_c 13.782344
_cell_angle_alpha 90.000000
_cell_angle_beta 155.066986
_cell_angle_gamma 90.000000
_cell_volume 2941.510517
_symmetry_space_group_name_H-M "C 2/C"
_symmetry_group_IT_number 15
_symmetry_cell_setting 'monoclinic'
loop_
_space_group_symop_operation_xyz
x,y,z
-x,y,1/2-z
-x,-y,-z
x,-y,1/2+z
1/2+x,1/2+y,z
1/2-x,1/2+y,1/2-z
1/2-x,1/2-y,-z
1/2+x,1/2-y,1/2+z
loop_
_atom_site_type_symbol
_atom_site_label
_atom_site_fract_x
_atom_site_fract_y
_atom_site_fract_z
Si Si1 0.759330 0.317513 0.739626
Si Si2 0.003266 0.061054 0.367588
Si Si3 0.131498 0.451167 0.245628
Si Si4 0.360730 0.295700 0.164206
Si Si5 0.075866 0.544393 0.986446
Si Si6 0.702643 0.813377 0.478184
Si Si7 0.976616 0.231722 0.059306
Si Si8 0.327595 0.538974 0.669696
O O1 0.652390 0.300267 0.475472
O O2 0.825486 0.394321 0.840351
O O3 0.730576 0.320781 0.800636
O O4 0.855926 0.256264 0.889311
O O5 0.000000 0.042354 0.250000
O O6 0.993023 0.148447 0.360930
O O7 0.124073 0.036386 0.634250
O O8 0.905277 0.016365 0.247304
O O9 0.203756 0.382816 0.412021
O O10 0.195944 0.517840 0.415255
O O11 0.009979 0.438003 0.079074
O O12 0.126374 0.469075 0.122142
O O13 0.462286 0.264280 0.415789
O O14 0.348816 0.379184 0.174560
O O15 0.250000 0.250000 0.000000
O O16 0.000000 0.540878 0.750000
O O17 0.750000 0.750000 0.500000
O O18 0.572390 0.788253 0.267913
#
# Coordination Sequence:
#
# PCOD9275400 Si02
#       8
#     8   8   8   8   8   8   8   8
#     4  11  19  40  65  86 116 166 215 239 315 388
#     4  10  21  36  59  83 117 163 199 249 312 369
#     4  11  23  37  62  91 127 156 207 267 303 368
#     4   9  20  36  64  87 112 158 208 255 301 377
#     4  11  21  38  62  92 118 168 209 250 316 380
#     4  12  24  38  61  93 128 166 206 263 313 368
#     4  10  20  39  61  87 118 161 208 253 303 376
#     4  10  21  38  54  87 122 150 202 257 308 361
#
# _framework density 21.757529000000002
#
# number of rings (size 3 to 8) (size 9 to 14) (size 15 to 20)
#    0.000    1.500    3.750    1.875    0.000    2.000 
#    0.000    4.375    0.000    0.000    0.000    0.875 
#    0.000    0.000    0.000    0.000    0.000    0.000 
#
# Total GULP energy -178525.669309 kJ/mol
# GULP energy per Si atom -5578.927166 kJ/mol
# Density = 2.170801 g / cm^3
# Si number density = 21.757529 Si / 1000 Ang^3
#
#
#
# Elastic Constant Matrix: (Units=GPa)
#
#
# Indices 1 2 3 4 5 6 
#
# 1 55.3759 24.7214 31.7581 0.0000 -30.5426 0.0000
# 2 24.7214 80.8107 5.8851 0.0000 -27.0267 0.0000
# 3 31.7581 5.8851 113.8186 0.0000 -48.7010 0.0000
# 4 0.0000 0.0000 0.0000 28.6109 0.0000 -5.3444
# 5 -30.5426 -27.0267 -48.7010 0.0000 45.8392 0.0000
# 6 0.0000 0.0000 0.0000 -5.3444 0.0000 19.1492
#
#
#
# Elastic Compliance Matrix: (Units=1/GPa)
#
#
# Indices 1 2 3 4 5 6 
#
# 1 0.029172 -0.003336 -0.000902 0.000000 0.016512 0.000000
# 2 -0.003336 0.018087 0.006614 0.000000 0.015468 0.000000
# 3 -0.000902 0.006614 0.018531 0.000000 0.022987 0.000000
# 4 0.000000 0.000000 0.000000 0.036874 0.000000 0.010291
# 5 0.016512 0.015468 0.022987 0.000000 0.066359 0.000000
# 6 0.000000 0.000000 0.000000 0.010291 0.000000 0.055094
#
#
# Mechanical properties :
#
#
# Convention : Reuss Voigt Hill
#
# Bulk Modulus (GPa) = 14.17587 41.63716 27.90651
# Shear Modulus (GPa) = 20.58630 31.22923 25.90777
#
# Velocity S-wave (km/s) = 3.07932 3.79269 3.45447
# Velocity P-wave (km/s) = 4.37864 6.19336 5.36331
#
# Compressibility (1/GPa) = 0.07054242
#
# Stress axis : x y z
#
# Youngs Moduli (GPa) = 34.27900 55.28913 53.96268
#
# Poissons Ratio (x) = 0.18446 0.04867
# Poissons Ratio (y) = 0.11436 -0.35692
# Poissons Ratio (z) = 0.03092 -0.36570
#
# Static dielectric constant tensor:
#      x y z
#    x 1.825280 0.000000 0.027070 
#    y 0.000000 1.851170 0.000000 
#    z 0.027070 0.000000 1.894480 
# 
# From -- ./inp_files/124288.got.cif
#   From: 2010.05.17/outbox.cif.g08.bks.cpg/sg15_63_cif.got.tgz:124288.got - 2010.06.03 18:47:42.
