data_PCOD9275817
_publ_section_title
;
Structure prediction by ZEFSAII (Michael W. Deem and Ramdas Pophale) SiO2 
 PCOD9275817
Probable space group: C 2/C
;
_chemical_formula_sum "Si O2"
_cell_formula_units_Z 56
_cell_length_a 12.845865
_cell_length_b 17.374322
_cell_length_c 19.861904
_cell_angle_alpha 90.000000
_cell_angle_beta 37.529626
_cell_angle_gamma 90.000000
_cell_volume 2700.422533
_symmetry_space_group_name_H-M "C 2/C"
_symmetry_group_IT_number 15
_symmetry_cell_setting 'monoclinic'
loop_
_space_group_symop_operation_xyz
x,y,z
-x,y,1/2-z
-x,-y,-z
x,-y,1/2+z
1/2+x,1/2+y,z
1/2-x,1/2+y,1/2-z
1/2-x,1/2-y,-z
1/2+x,1/2-y,1/2+z
loop_
_atom_site_type_symbol
_atom_site_label
_atom_site_fract_x
_atom_site_fract_y
_atom_site_fract_z
Si Si1 0.583312 0.337047 0.852140
Si Si2 0.473515 0.107812 0.158433
Si Si3 0.241998 0.177314 0.721040
Si Si4 0.202837 0.801302 0.590870
Si Si5 0.000000 0.472408 0.250000
Si Si6 0.000000 0.267181 0.750000
Si Si7 0.004342 0.409645 0.489816
Si Si8 0.197775 0.150650 0.890279
O O1 0.766870 0.378504 0.761512
O O2 0.625769 0.246424 0.832956
O O3 0.468880 0.345369 0.843879
O O4 0.463025 0.357703 0.977359
O O5 0.556231 0.174314 0.162329
O O6 0.534863 0.118127 0.050696
O O7 0.507351 0.028097 0.180574
O O8 0.133115 0.212348 0.717085
O O9 0.345967 0.106813 0.639236
O O10 0.146399 0.156328 0.838519
O O11 0.250000 0.750000 0.500000
O O12 0.340601 0.864434 0.543966
O O13 0.209420 0.732315 0.641354
O O14 0.834673 0.417165 0.330935
O O15 0.000000 0.500000 0.500000
#
# Coordination Sequence:
#
# PCOD9275817 Si02
#       8
#     8   8   8   8   4   4   8   8
#     4  10  22  39  67  98 131 167 230 275 328 387
#     4  10  24  44  61  98 136 176 220 275 341 407
#     4  11  22  42  63 101 128 171 225 269 335 402
#     4  10  20  39  65 101 122 172 227 272 333 385
#     4  11  24  42  66  95 132 184 220 269 352 392
#     4   9  22  42  68  91 128 174 224 267 336 400
#     4  12  25  41  65  95 141 176 215 285 344 398
#     4  11  22  38  71  96 129 168 229 285 313 403
#
# _framework density 20.737496
#
# number of rings (size 3 to 8) (size 9 to 14) (size 15 to 20)
#    0.000    1.429    2.857    3.429    6.000    2.857 
#    5.143    2.857    0.000    0.000    0.000    0.000 
#    0.000    0.000    0.000    0.000    0.000    0.000 
#
# Total GULP energy -156237.657112 kJ/mol
# GULP energy per Si atom -5579.916325 kJ/mol
# Density = 2.069030 g / cm^3
# Si number density = 20.737496 Si / 1000 Ang^3
#
#
#
# Elastic Constant Matrix: (Units=GPa)
#
#
# Indices 1 2 3 4 5 6 
#
# 1 117.1587 31.4199 20.9046 0.0006 28.4545 -0.0002
# 2 31.4199 99.3254 -4.5701 0.0014 -0.3074 -0.0009
# 3 20.9046 -4.5701 68.2022 0.0040 19.9678 -0.0022
# 4 0.0006 0.0014 0.0040 11.9352 -0.0013 -0.1434
# 5 28.4545 -0.3074 19.9678 -0.0013 23.5192 0.0004
# 6 -0.0002 -0.0009 -0.0022 -0.1434 0.0004 29.1697
#
#
#
# Elastic Compliance Matrix: (Units=1/GPa)
#
#
# Indices 1 2 3 4 5 6 
#
# 1 0.013795 -0.004394 0.000506 -0.000002 -0.017177 0.000000
# 2 -0.004394 0.011505 0.000688 -0.000001 0.004882 0.000000
# 3 0.000506 0.000688 0.019602 -0.000008 -0.017246 0.000002
# 4 -0.000002 -0.000001 -0.000008 0.083791 0.000014 0.000412
# 5 -0.017177 0.004882 -0.017246 0.000014 0.078006 -0.000002
# 6 0.000000 0.000000 0.000002 0.000412 -0.000002 0.034284
#
#
# Mechanical properties :
#
#
# Convention : Reuss Voigt Hill
#
# Bulk Modulus (GPa) = 25.97123 42.24392 34.10758
# Shear Modulus (GPa) = 19.21478 28.72028 23.96753
#
# Velocity S-wave (km/s) = 3.04727 3.72552 3.40333
# Velocity P-wave (km/s) = 4.99321 6.23867 5.65036
#
# Compressibility (1/GPa) = 0.03850414
#
# Stress axis : x y z
#
# Youngs Moduli (GPa) = 72.48822 86.92176 51.01412
#
# Poissons Ratio (x) = 0.38192 -0.02583
# Poissons Ratio (y) = 0.31850 -0.03512
# Poissons Ratio (z) = -0.03670 -0.05984
#
# Static dielectric constant tensor:
#      x y z
#    x 1.827400 0.000000 -0.011020 
#    y 0.000000 1.726210 0.000000 
#    z -0.011020 0.000000 1.829080 
# 
# From -- ./inp_files/199487.got.cif
#   From: 2010.05.17/outbox.cif.g08.bks.cpg/sg15_100_cif.got.tgz:199487.got - 2010.06.03 18:47:42.
