data_PCOD9275946
_publ_section_title
;
Structure prediction by ZEFSAII (Michael W. Deem and Ramdas Pophale) SiO2 
 PCOD9275946
Probable space group: C 2/C
;
_chemical_formula_sum "Si O2"
_cell_formula_units_Z 56
_cell_length_a 15.661138
_cell_length_b 10.775046
_cell_length_c 25.050229
_cell_angle_alpha 90.000000
_cell_angle_beta 142.321282
_cell_angle_gamma 90.000000
_cell_volume 2583.812636
_symmetry_space_group_name_H-M "C 2/C"
_symmetry_group_IT_number 15
_symmetry_cell_setting 'monoclinic'
loop_
_space_group_symop_operation_xyz
x,y,z
-x,y,1/2-z
-x,-y,-z
x,-y,1/2+z
1/2+x,1/2+y,z
1/2-x,1/2+y,1/2-z
1/2-x,1/2-y,-z
1/2+x,1/2-y,1/2+z
loop_
_atom_site_type_symbol
_atom_site_label
_atom_site_fract_x
_atom_site_fract_y
_atom_site_fract_z
Si Si1 0.919661 0.191706 0.447569
Si Si2 0.034819 0.955597 0.095062
Si Si3 0.290771 0.023777 0.546583
Si Si4 0.873278 0.774321 0.648936
Si Si5 0.597578 0.908063 0.513266
Si Si6 0.872290 0.721414 0.146189
Si Si7 0.514417 0.471426 0.321989
O O1 0.771860 0.239554 0.394039
O O2 0.895284 0.063237 0.404847
O O3 0.998683 0.291625 0.451384
O O4 0.016880 0.162138 0.547524
O O5 0.097116 0.947383 0.185585
O O6 0.873105 0.997661 0.023764
O O7 0.324434 0.155006 0.591747
O O8 0.344939 0.032707 0.512728
O O9 0.364122 0.904425 0.608913
O O10 0.738747 0.845664 0.608382
O O11 0.000000 0.735428 0.750000
O O12 0.938884 0.886387 0.646880
O O13 0.500000 0.000000 0.500000
O O14 0.893046 0.847551 0.123380
O O15 0.000000 0.709748 0.250000
O O16 0.500000 0.469035 0.250000
#
# Coordination Sequence:
#
# PCOD9275946 Si02
#       7
#     8   8   8   8   8   8   8
#     4  10  22  37  64  95 125 163 213 275 314 385
#     4  10  20  39  66  90 122 169 220 257 326 394
#     4  11  22  41  69  91 125 174 216 264 323 391
#     4  11  22  41  69  92 126 170 211 260 331 389
#     4  12  24  39  64  98 129 161 222 271 309 378
#     4  10  23  43  63  93 132 172 215 267 331 386
#     4  10  21  38  65  88 125 172 213 256 325 394
#
# _framework density 21.673397999999999
#
# number of rings (size 3 to 8) (size 9 to 14) (size 15 to 20)
#    0.000    1.429    2.857    2.571    2.000    1.143 
#    0.000    7.143    0.000    0.000    0.000    0.000 
#    0.000    0.000    0.000    0.000    0.000    0.000 
#
# Total GULP energy -155941.903565 kJ/mol
# GULP energy per Si atom -5569.353699 kJ/mol
# Density = 2.162407 g / cm^3
# Si number density = 21.673398 Si / 1000 Ang^3
#
#
#
# Elastic Constant Matrix: (Units=GPa)
#
#
# Indices 1 2 3 4 5 6 
#
# 1 83.7521 12.6494 8.5168 0.0000 -10.5904 0.0000
# 2 12.6494 109.3948 18.3358 0.0000 -3.8414 0.0000
# 3 8.5168 18.3358 48.2136 0.0000 -6.4315 0.0000
# 4 0.0000 0.0000 0.0000 57.9541 0.0000 -36.6054
# 5 -10.5904 -3.8414 -6.4315 0.0000 27.1030 0.0000
# 6 0.0000 0.0000 0.0000 -36.6054 0.0000 59.3336
#
#
#
# Elastic Compliance Matrix: (Units=1/GPa)
#
#
# Indices 1 2 3 4 5 6 
#
# 1 0.012810 -0.001115 -0.001231 0.000000 0.004555 0.000000
# 2 -0.001115 0.009868 -0.003539 0.000000 0.000123 0.000000
# 3 -0.001231 -0.003539 0.022898 0.000000 0.004451 0.000000
# 4 0.000000 0.000000 0.000000 0.028272 0.000000 0.017442
# 5 0.004555 0.000123 0.004451 0.000000 0.039750 0.000000
# 6 0.000000 0.000000 0.000000 0.017442 0.000000 0.027615
#
#
# Mechanical properties :
#
#
# Convention : Reuss Voigt Hill
#
# Bulk Modulus (GPa) = 29.58160 35.59605 32.58882
# Shear Modulus (GPa) = 30.44117 42.33536 36.38827
#
# Velocity S-wave (km/s) = 3.75179 4.42445 4.10193
# Velocity P-wave (km/s) = 5.69617 6.52384 6.12400
#
# Compressibility (1/GPa) = 0.03380480
#
# Stress axis : x y z
#
# Youngs Moduli (GPa) = 78.06663 101.34109 43.67141
#
# Poissons Ratio (x) = 0.11298 0.05377
# Poissons Ratio (y) = 0.08703 0.15457
# Poissons Ratio (z) = 0.09611 0.35868
#
# Static dielectric constant tensor:
#      x y z
#    x 1.819120 0.000000 -0.062300 
#    y 0.000000 1.803440 0.000000 
#    z -0.062300 0.000000 1.941670 
# 
# From -- ./inp_files/295947.got.cif
#   From: 2010.05.17/outbox.cif.g08.bks.cpg/sg15_148_cif.got.tgz:295947.got - 2010.06.03 18:47:42.
