data_PCOD9275367
_publ_section_title
;
Structure prediction by ZEFSAII (Michael W. Deem and Ramdas Pophale) SiO2 
 PCOD9275367
Probable space group: C 2/C
;
_chemical_formula_sum "Si O2"
_cell_formula_units_Z 56
_cell_length_a 15.558372
_cell_length_b 16.618512
_cell_length_c 13.003804
_cell_angle_alpha 90.000000
_cell_angle_beta 56.861547
_cell_angle_gamma 90.000000
_cell_volume 2815.365436
_symmetry_space_group_name_H-M "C 2/C"
_symmetry_group_IT_number 15
_symmetry_cell_setting 'monoclinic'
loop_
_space_group_symop_operation_xyz
x,y,z
-x,y,1/2-z
-x,-y,-z
x,-y,1/2+z
1/2+x,1/2+y,z
1/2-x,1/2+y,1/2-z
1/2-x,1/2-y,-z
1/2+x,1/2-y,1/2+z
loop_
_atom_site_type_symbol
_atom_site_label
_atom_site_fract_x
_atom_site_fract_y
_atom_site_fract_z
Si Si1 0.942568 0.568238 0.974183
Si Si2 0.769206 0.563681 0.241102
Si Si3 0.118164 0.820661 0.147975
Si Si4 0.208744 0.566173 0.603902
Si Si5 0.704478 0.277562 0.877542
Si Si6 0.620164 0.486168 0.657812
Si Si7 0.582439 0.203056 0.775443
O O1 0.876216 0.534373 0.922000
O O2 0.018177 0.634930 0.879490
O O3 0.858309 0.599074 0.110151
O O4 0.000000 0.500000 0.000000
O O5 0.797100 0.485046 0.288307
O O6 0.742985 0.631996 0.339163
O O7 0.677983 0.540119 0.223821
O O8 0.200540 0.783804 0.173686
O O9 0.131381 0.917347 0.134972
O O10 0.000000 0.804721 0.250000
O O11 0.142654 0.777218 0.024174
O O12 0.318569 0.556210 0.476358
O O13 0.171188 0.656179 0.654208
O O14 0.634953 0.258905 0.824630
O O15 0.500000 0.467905 0.750000
O O16 0.500000 0.240211 0.750000
#
# Coordination Sequence:
#
# PCOD9275367 Si02
#       7
#     8   8   8   8   8   8   8
#     4  10  21  35  63  92 119 154 204 256 307 360
#     4  11  22  38  61  94 120 157 208 251 307 366
#     4  10  23  43  63  91 125 162 207 254 307 364
#     4  10  20  39  60  92 119 155 207 255 302 356
#     4  11  24  41  63  91 129 166 199 252 317 377
#     4  10  22  42  63  88 120 162 212 255 295 355
#     4  10  22  41  62  92 128 164 200 254 315 370
#
# _framework density 19.890847000000001
#
# number of rings (size 3 to 8) (size 9 to 14) (size 15 to 20)
#    0.000    1.714    2.857    0.857    4.000    1.143 
#    2.571    6.429    0.000    0.000    0.000    0.000 
#    0.000    0.000    0.000    0.000    0.000    0.000 
#
# Total GULP energy -156281.429463 kJ/mol
# GULP energy per Si atom -5581.479624 kJ/mol
# Density = 1.984557 g / cm^3
# Si number density = 19.890847 Si / 1000 Ang^3
#
#
#
# Elastic Constant Matrix: (Units=GPa)
#
#
# Indices 1 2 3 4 5 6 
#
# 1 68.4883 11.4344 30.6108 0.0000 -4.6416 0.0000
# 2 11.4344 19.3676 1.6108 0.0000 -11.6691 0.0000
# 3 30.6108 1.6108 73.2987 0.0000 -9.8990 0.0000
# 4 0.0000 0.0000 0.0000 19.9001 0.0000 13.9841
# 5 -4.6416 -11.6691 -9.8990 0.0000 37.5996 0.0000
# 6 0.0000 0.0000 0.0000 13.9841 0.0000 13.6475
#
#
#
# Elastic Compliance Matrix: (Units=1/GPa)
#
#
# Indices 1 2 3 4 5 6 
#
# 1 0.020599 -0.013895 -0.008851 0.000000 -0.004100 0.000000
# 2 -0.013895 0.073003 0.007286 0.000000 0.022860 0.000000
# 3 -0.008851 0.007286 0.017976 0.000000 0.005901 0.000000
# 4 0.000000 0.000000 0.000000 0.179500 0.000000 -0.183928
# 5 -0.004100 0.022860 0.005901 0.000000 0.034738 0.000000
# 6 0.000000 0.000000 0.000000 -0.183928 0.000000 0.261739
#
#
# Mechanical properties :
#
#
# Convention : Reuss Voigt Hill
#
# Bulk Modulus (GPa) = 12.39811 27.60741 20.00276
# Shear Modulus (GPa) = 7.74760 22.06267 14.90514
#
# Velocity S-wave (km/s) = 1.97573 3.33406 2.74039
# Velocity P-wave (km/s) = 3.38398 5.36012 4.48231
#
# Compressibility (1/GPa) = 0.08065748
#
# Stress axis : x y z
#
# Youngs Moduli (GPa) = 48.54625 13.69800 55.63013
#
# Poissons Ratio (x) = 0.19034 0.49237
# Poissons Ratio (y) = 0.67457 -0.40531
# Poissons Ratio (z) = 0.42967 -0.09980
#
# Static dielectric constant tensor:
#      x y z
#    x 1.703090 0.000000 -0.009120 
#    y 0.000000 1.683770 0.000000 
#    z -0.009120 0.000000 1.729110 
# 
# From -- ./inp_files/98668.got.cif
#   From: 2010.05.17/outbox.cif.g08.bks.cpg/sg15_50_cif.got.tgz:98668.got - 2010.06.03 18:47:42.
