data_PCOD9275927
_publ_section_title
;
Structure prediction by ZEFSAII (Michael W. Deem and Ramdas Pophale) SiO2 
 PCOD9275927
Probable space group: C 2/C
;
_chemical_formula_sum "Si O2"
_cell_formula_units_Z 52
_cell_length_a 7.739367
_cell_length_b 24.834672
_cell_length_c 13.585038
_cell_angle_alpha 90.000000
_cell_angle_beta 111.522782
_cell_angle_gamma 90.000000
_cell_volume 2429.039446
_symmetry_space_group_name_H-M "C 2/C"
_symmetry_group_IT_number 15
_symmetry_cell_setting 'monoclinic'
loop_
_space_group_symop_operation_xyz
x,y,z
-x,y,1/2-z
-x,-y,-z
x,-y,1/2+z
1/2+x,1/2+y,z
1/2-x,1/2+y,1/2-z
1/2-x,1/2-y,-z
1/2+x,1/2-y,1/2+z
loop_
_atom_site_type_symbol
_atom_site_label
_atom_site_fract_x
_atom_site_fract_y
_atom_site_fract_z
Si Si1 0.832675 0.933201 0.353673
Si Si2 0.658657 0.208599 0.609362
Si Si3 0.775449 0.679718 0.210383
Si Si4 0.705743 0.198353 0.058852
Si Si5 0.000000 0.631991 0.750000
Si Si6 0.000000 0.978736 0.750000
Si Si7 0.034872 0.100073 0.420359
Si Si8 0.000000 0.844566 0.250000
O O1 0.627124 0.912113 0.334999
O O2 0.867770 0.984608 0.291562
O O3 0.888574 0.883636 0.296439
O O4 0.962308 0.931926 0.476529
O O5 0.680652 0.272064 0.628977
O O6 0.517715 0.193779 0.493720
O O7 0.576246 0.174511 0.684467
O O8 0.870676 0.189655 0.651531
O O9 0.737917 0.698287 0.315390
O O10 0.660852 0.626510 0.154597
O O11 0.000000 0.674990 0.250000
O O12 0.819299 0.148587 0.038683
O O13 0.750000 0.250000 0.000000
O O14 0.898575 0.939776 0.651783
#
# Coordination Sequence:
#
# PCOD9275927 Si02
#       8
#     8   8   8   8   4   4   8   4
#     4  10  23  43  71  98 127 181 226 292 348 392
#     4  11  21  37  64  96 138 179 217 262 330 408
#     4  12  27  41  63 105 146 181 227 274 334 417
#     4  12  24  40  67  98 138 186 224 267 342 418
#     4  10  20  39  66 102 132 167 232 278 328 416
#     4  11  24  49  70  96 132 175 238 295 350 402
#     4  12  24  46  71  96 140 182 226 285 351 407
#     4   9  22  38  64  98 140 172 222 277 324 406
#
# _framework density 21.407640000000001
#
# number of rings (size 3 to 8) (size 9 to 14) (size 15 to 20)
#    0.000    0.923    5.385    1.385    4.308    0.615 
#    1.385    0.769    0.000    0.000    0.000    0.000 
#    0.000    0.000    0.000    0.000    0.000    0.000 
#
# Total GULP energy -144908.891992 kJ/mol
# GULP energy per Si atom -5573.418923 kJ/mol
# Density = 2.135892 g / cm^3
# Si number density = 21.407640 Si / 1000 Ang^3
#
#
#
# Elastic Constant Matrix: (Units=GPa)
#
#
# Indices 1 2 3 4 5 6 
#
# 1 32.6519 30.5545 15.5241 0.0000 19.5401 0.0000
# 2 30.5545 115.9053 39.0298 0.0000 1.7302 0.0000
# 3 15.5241 39.0298 112.4742 0.0000 11.6970 0.0000
# 4 0.0000 0.0000 0.0000 -16.7781 0.0000 75.0623
# 5 19.5401 1.7302 11.6970 0.0000 38.8248 0.0000
# 6 0.0000 0.0000 0.0000 75.0623 0.0000 -114.1630
#
#
#
# Elastic Compliance Matrix: (Units=1/GPa)
#
#
# Indices 1 2 3 4 5 6 
#
# 1 0.065747 -0.016902 0.000158 0.000000 -0.032384 0.000000
# 2 -0.016902 0.014128 -0.003499 0.000000 0.008931 0.000000
# 3 0.000158 -0.003499 0.010401 0.000000 -0.003057 0.000000
# 4 0.000000 0.000000 0.000000 0.030698 0.000000 0.020184
# 5 -0.032384 0.008931 -0.003057 0.000000 0.042579 0.000000
# 6 0.000000 0.000000 0.000000 0.020184 0.000000 0.004512
#
#
# Mechanical properties :
#
#
# Convention : Reuss Voigt Hill
#
# Bulk Modulus (GPa) = 20.08357 47.91647 34.00002
# Shear Modulus (GPa) = 22.20787 -6.69507 7.75640
#
# Velocity S-wave (km/s) = 3.22433 -1.77037 1.90553
# Velocity P-wave (km/s) = 4.82324 4.27230 4.55610
#
# Compressibility (1/GPa) = 0.04979195
#
# Stress axis : x y z
#
# Youngs Moduli (GPa) = 15.20986 70.78081 96.14400
#
# Poissons Ratio (x) = 1.19633 -0.01523
# Poissons Ratio (y) = 0.25707 0.33637
# Poissons Ratio (z) = -0.00241 0.24763
#
# Static dielectric constant tensor:
#      x y z
#    x 3.853700 0.000000 0.864830 
#    y 0.000000 1.764930 0.000000 
#    z 0.864830 0.000000 2.183420 
# 
# From -- ./inp_files/138328.got.cif
#   From: 2010.05.17/outbox.cif.g08.bks.cpg/sg15_70_cif.got.tgz:138328.got - 2010.06.03 18:47:42.
