data_PCOD9275911
_publ_section_title
;
Structure prediction by ZEFSAII (Michael W. Deem and Ramdas Pophale) SiO2 
 PCOD9275911
Probable space group: C 2/C
;
_chemical_formula_sum "Si O2"
_cell_formula_units_Z 48
_cell_length_a 8.287376
_cell_length_b 18.229904
_cell_length_c 19.211489
_cell_angle_alpha 90.000000
_cell_angle_beta 56.026095
_cell_angle_gamma 90.000000
_cell_volume 2406.966329
_symmetry_space_group_name_H-M "C 2/C"
_symmetry_group_IT_number 15
_symmetry_cell_setting 'monoclinic'
loop_
_space_group_symop_operation_xyz
x,y,z
-x,y,1/2-z
-x,-y,-z
x,-y,1/2+z
1/2+x,1/2+y,z
1/2-x,1/2+y,1/2-z
1/2-x,1/2-y,-z
1/2+x,1/2-y,1/2+z
loop_
_atom_site_type_symbol
_atom_site_label
_atom_site_fract_x
_atom_site_fract_y
_atom_site_fract_z
Si Si1 0.715129 0.866827 0.174742
Si Si2 0.719816 0.524969 0.276249
Si Si3 0.712768 0.590101 0.138443
Si Si4 0.255315 0.159543 0.359120
Si Si5 0.143980 0.280265 0.811724
Si Si6 0.800356 0.163715 0.497973
O O1 0.500000 0.843926 0.250000
O O2 0.858468 0.802933 0.164813
O O3 0.760314 0.943256 0.201398
O O4 0.727265 0.867440 0.088721
O O5 0.806011 0.540480 0.177939
O O6 0.496189 0.552406 0.323438
O O7 0.798287 0.579586 0.316552
O O8 0.716275 0.670076 0.174289
O O9 0.782638 0.612555 0.044571
O O10 0.277392 0.211390 0.285727
O O11 0.428412 0.184821 0.367364
O O12 0.036495 0.160550 0.439303
O O13 0.750000 0.250000 0.500000
#
# Coordination Sequence:
#
# PCOD9275911 Si02
#       6
#     8   8   8   8   8   8
#     4  12  26  38  63  95 131 164 216 276 321 369
#     4   9  21  40  64  88 126 169 213 253 320 389
#     4   9  19  38  68  85 120 171 209 248 319 385
#     4   9  21  37  68  90 125 172 216 255 320 388
#     4  10  20  39  65  96 122 169 220 261 317 385
#     4  11  21  41  65  98 129 166 216 270 318 378
#
# _framework density 19.942115999999999
#
# number of rings (size 3 to 8) (size 9 to 14) (size 15 to 20)
#    0.000    2.000    1.667    2.000    9.333    6.000 
#    0.000    0.833    0.000    0.000    0.000    0.000 
#    0.000    0.000    0.000    0.000    0.000    0.000 
#
# Total GULP energy -133719.493316 kJ/mol
# GULP energy per Si atom -5571.645555 kJ/mol
# Density = 1.989673 g / cm^3
# Si number density = 19.942116 Si / 1000 Ang^3
#
#
#
# Elastic Constant Matrix: (Units=GPa)
#
#
# Indices 1 2 3 4 5 6 
#
# 1 81.7665 41.7206 29.6025 0.0000 -4.5012 0.0000
# 2 41.7206 127.4643 26.7663 0.0000 31.6530 0.0000
# 3 29.6025 26.7663 128.0445 0.0000 16.1524 0.0000
# 4 0.0000 0.0000 0.0000 15.8115 0.0000 18.9759
# 5 -4.5012 31.6530 16.1524 0.0000 32.7176 0.0000
# 6 0.0000 0.0000 0.0000 18.9759 0.0000 -10.5131
#
#
#
# Elastic Compliance Matrix: (Units=1/GPa)
#
#
# Indices 1 2 3 4 5 6 
#
# 1 0.018761 -0.008444 -0.004189 0.000000 0.012819 0.000000
# 2 -0.008444 0.014238 0.000917 0.000000 -0.015389 0.000000
# 3 -0.004189 0.000917 0.009354 0.000000 -0.006082 0.000000
# 4 0.000000 0.000000 0.000000 0.019975 0.000000 0.036054
# 5 0.012819 -0.015389 -0.006082 0.000000 0.050219 0.000000
# 6 0.000000 0.000000 0.000000 0.036054 0.000000 -0.030042
#
#
# Mechanical properties :
#
#
# Convention : Reuss Voigt Hill
#
# Bulk Modulus (GPa) = 52.85278 59.27266 56.06272
# Shear Modulus (GPa) = 44.54584 23.54894 34.04739
#
# Velocity S-wave (km/s) = 4.73139 3.44010 4.13644
# Velocity P-wave (km/s) = 7.51057 6.75025 7.14054
#
# Compressibility (1/GPa) = 0.01892048
#
# Stress axis : x y z
#
# Youngs Moduli (GPa) = 53.30273 70.23328 106.90949
#
# Poissons Ratio (x) = 0.59306 0.44786
# Poissons Ratio (y) = 0.45010 -0.09806
# Poissons Ratio (z) = 0.22329 -0.06442
#
# Static dielectric constant tensor:
#      x y z
#    x 1.774240 0.000000 0.017950 
#    y 0.000000 1.691480 0.000000 
#    z 0.017950 0.000000 1.728870 
# 
# From -- ./inp_files/190273.got.cif
#   From: 2010.05.17/outbox.cif.g08.bks.cpg/sg15_96_cif.got.tgz:190273.got - 2010.06.03 18:47:42.
