data_PCOD9275083
_publ_section_title
;
Structure prediction by ZEFSAII (Michael W. Deem and Ramdas Pophale) SiO2 
 PCOD9275083
Probable space group: C 2/C
;
_chemical_formula_sum "Si O2"
_cell_formula_units_Z 44
_cell_length_a 29.442932
_cell_length_b 5.898738
_cell_length_c 9.997426
_cell_angle_alpha 90.000000
_cell_angle_beta 76.536821
_cell_angle_gamma 90.000000
_cell_volume 1688.600010
_symmetry_space_group_name_H-M "C 2/C"
_symmetry_group_IT_number 15
_symmetry_cell_setting 'monoclinic'
loop_
_space_group_symop_operation_xyz
x,y,z
-x,y,1/2-z
-x,-y,-z
x,-y,1/2+z
1/2+x,1/2+y,z
1/2-x,1/2+y,1/2-z
1/2-x,1/2-y,-z
1/2+x,1/2-y,1/2+z
loop_
_atom_site_type_symbol
_atom_site_label
_atom_site_fract_x
_atom_site_fract_y
_atom_site_fract_z
Si Si1 0.500000 0.541882 0.750000
Si Si2 0.453988 0.093690 0.462536
Si Si3 0.125655 0.874943 0.890059
Si Si4 0.800799 0.364682 0.975375
Si Si5 0.407732 0.689707 0.350848
Si Si6 0.224263 0.348938 0.782644
O O1 0.545628 0.405042 0.754710
O O2 0.522176 0.693017 0.621967
O O3 0.426399 0.938813 0.374592
O O4 0.500000 0.000000 0.500000
O O5 0.411534 0.170159 0.582191
O O6 0.132472 0.889938 0.725782
O O7 0.168695 0.786489 0.947065
O O8 0.104383 0.078296 0.995080
O O9 0.814031 0.370494 0.810231
O O10 0.750000 0.250000 0.000000
O O11 0.796051 0.604264 0.055380
O O12 0.246067 0.090833 0.762250
#
# Coordination Sequence:
#
# PCOD9275083 Si02
#       6
#     4   8   8   8   8   8
#     4  10  20  38  68  94 134 176 230 274 362 428
#     4  11  22  40  66  98 138 181 230 286 365 436
#     4  11  26  43  66 103 136 186 241 298 367 437
#     4  10  24  46  70 103 140 190 244 301 371 436
#     4  11  24  44  68 102 142 182 234 301 361 438
#     4  10  22  45  74 106 141 190 248 306 372 447
#
# _framework density 26.057089000000001
#
# number of rings (size 3 to 8) (size 9 to 14) (size 15 to 20)
#    0.000    1.455    0.000    4.364    2.545   10.182 
#    6.545    0.000    0.000    0.000    0.000    0.000 
#    0.000    0.000    0.000    0.000    0.000    0.000 
#
# Total GULP energy -122609.845673 kJ/mol
# GULP energy per Si atom -5573.174803 kJ/mol
# Density = 2.599778 g / cm^3
# Si number density = 26.057089 Si / 1000 Ang^3
#
#
#
# Elastic Constant Matrix: (Units=GPa)
#
#
# Indices 1 2 3 4 5 6 
#
# 1 93.1483 33.6040 23.9242 0.0000 28.7685 0.0000
# 2 33.6040 101.2913 27.4167 0.0000 4.4815 0.0000
# 3 23.9242 27.4167 110.8939 0.0000 44.7421 0.0000
# 4 0.0000 0.0000 0.0000 -19.1787 0.0000 -54.4277
# 5 28.7685 4.4815 44.7421 0.0000 49.5122 0.0000
# 6 0.0000 0.0000 0.0000 -54.4277 0.0000 -20.5120
#
#
#
# Elastic Compliance Matrix: (Units=1/GPa)
#
#
# Indices 1 2 3 4 5 6 
#
# 1 0.015246 -0.005187 0.002169 0.000000 -0.010349 0.000000
# 2 -0.005187 0.012502 -0.004298 0.000000 0.005767 0.000000
# 3 0.002169 -0.004298 0.015681 0.000000 -0.015041 0.000000
# 4 0.000000 0.000000 0.000000 0.007984 0.000000 -0.021186
# 5 -0.010349 0.005767 -0.015041 0.000000 0.039280 0.000000
# 6 0.000000 0.000000 0.000000 -0.021186 0.000000 0.007465
#
#
# Mechanical properties :
#
#
# Convention : Reuss Voigt Hill
#
# Bulk Modulus (GPa) = 34.72807 52.80260 43.76533
# Shear Modulus (GPa) = 40.85253 16.65688 28.75471
#
# Velocity S-wave (km/s) = 3.96385 2.53107 3.32554
# Velocity P-wave (km/s) = 5.85714 5.37122 5.61943
#
# Compressibility (1/GPa) = 0.02879515
#
# Stress axis : x y z
#
# Youngs Moduli (GPa) = 65.59089 79.98923 63.77048
#
# Poissons Ratio (x) = 0.41491 -0.13829
# Poissons Ratio (y) = 0.34022 0.27411
# Poissons Ratio (z) = -0.14224 0.34383
#
# Static dielectric constant tensor:
#      x y z
#    x 2.842250 0.000000 0.148670 
#    y 0.000000 1.273970 0.000000 
#    z 0.148670 0.000000 2.212040 
# 
# From -- ./inp_files/124975.got.cif
#   From: 2010.05.17/outbox.cif.g08.bks.cpg/sg15_63_cif.got.tgz:124975.got - 2010.06.03 18:47:42.
