data_PCOD9275967
_publ_section_title
;
Structure prediction by ZEFSAII (Michael W. Deem and Ramdas Pophale) SiO2 
 PCOD9275967
Probable space group: C 2/C
;
_chemical_formula_sum "Si O2"
_cell_formula_units_Z 60
_cell_length_a 8.899998
_cell_length_b 20.391310
_cell_length_c 16.597910
_cell_angle_alpha 90.000000
_cell_angle_beta 74.258993
_cell_angle_gamma 90.000000
_cell_volume 2899.266919
_symmetry_space_group_name_H-M "C 2/C"
_symmetry_group_IT_number 15
_symmetry_cell_setting 'monoclinic'
loop_
_space_group_symop_operation_xyz
x,y,z
-x,y,1/2-z
-x,-y,-z
x,-y,1/2+z
1/2+x,1/2+y,z
1/2-x,1/2+y,1/2-z
1/2-x,1/2-y,-z
1/2+x,1/2-y,1/2+z
loop_
_atom_site_type_symbol
_atom_site_label
_atom_site_fract_x
_atom_site_fract_y
_atom_site_fract_z
Si Si1 0.043137 0.730385 0.164049
Si Si2 0.416940 0.656277 0.571172
Si Si3 0.000000 0.074011 0.250000
Si Si4 0.581570 0.149554 0.547473
Si Si5 0.610067 0.975616 0.412293
Si Si6 0.833657 0.388473 0.649682
Si Si7 0.863747 0.225644 0.056408
Si Si8 0.969898 0.019084 0.909410
O O1 0.974438 0.778147 0.106352
O O2 0.949063 0.662926 0.172891
O O3 0.000000 0.768617 0.250000
O O4 0.226767 0.715685 0.139998
O O5 0.237819 0.660002 0.574627
O O6 0.535329 0.661111 0.477278
O O7 0.448773 0.589399 0.612582
O O8 0.843606 0.114913 0.293176
O O9 0.979143 0.029771 0.170895
O O10 0.467804 0.093250 0.599150
O O11 0.643653 0.128150 0.449280
O O12 0.481250 0.215630 0.558094
O O13 0.784907 0.969906 0.421672
O O14 0.500000 0.000000 0.500000
O O15 0.616577 0.035279 0.348190
O O16 0.750000 0.250000 0.000000
O O17 0.000000 0.000000 0.000000
#
# Coordination Sequence:
#
# PCOD9275967 Si02
#       8
#     8   8   4   8   8   8   8   8
#     4  11  25  42  62  96 135 183 220 281 342 405
#     4  11  23  39  68  98 130 170 228 279 334 417
#     4  10  24  44  66 100 140 178 218 304 332 412
#     4  11  20  41  68 101 126 172 226 283 341 406
#     4   9  19  35  65  91 132 164 215 279 328 404
#     4  10  21  41  64  94 131 169 222 275 350 389
#     4  10  20  39  66  93 125 168 225 273 329 407
#     4  11  23  42  68 101 131 183 228 273 352 407
#
# _framework density 20.694886
#
# number of rings (size 3 to 8) (size 9 to 14) (size 15 to 20)
#    0.000    1.600    2.667    4.400    2.800    2.133 
#    2.400    0.000    0.000    0.000    0.000    0.000 
#    0.000    0.000    0.000    0.000    0.000    0.000 
#
# Total GULP energy -167139.261201 kJ/mol
# GULP energy per Si atom -5571.308707 kJ/mol
# Density = 2.064778 g / cm^3
# Si number density = 20.694886 Si / 1000 Ang^3
#
#
#
# Elastic Constant Matrix: (Units=GPa)
#
#
# Indices 1 2 3 4 5 6 
#
# 1 162.5206 57.9822 42.0547 0.0000 -22.7081 0.0000
# 2 57.9822 86.0894 19.7573 0.0000 3.1260 0.0000
# 3 42.0547 19.7573 63.0364 0.0000 -13.4108 0.0000
# 4 0.0000 0.0000 0.0000 9.3570 0.0000 -10.4636
# 5 -22.7081 3.1260 -13.4108 0.0000 34.4706 0.0000
# 6 0.0000 0.0000 0.0000 -10.4636 0.0000 42.7054
#
#
#
# Elastic Compliance Matrix: (Units=1/GPa)
#
#
# Indices 1 2 3 4 5 6 
#
# 1 0.010099 -0.006198 -0.003554 0.000000 0.005832 0.000000
# 2 -0.006198 0.016592 -0.002458 0.000000 -0.006544 0.000000
# 3 -0.003554 -0.002458 0.020229 0.000000 0.005752 0.000000
# 4 0.000000 0.000000 0.000000 0.147205 0.000000 0.036068
# 5 0.005832 -0.006544 0.005752 0.000000 0.035683 0.000000
# 6 0.000000 0.000000 0.000000 0.036068 0.000000 0.032254
#
#
# Mechanical properties :
#
#
# Convention : Reuss Voigt Hill
#
# Bulk Modulus (GPa) = 44.44357 61.24831 52.84594
# Shear Modulus (GPa) = 17.00791 30.09675 23.55233
#
# Velocity S-wave (km/s) = 2.86989 3.81768 3.37720
# Velocity P-wave (km/s) = 5.70122 7.00664 6.38737
#
# Compressibility (1/GPa) = 0.02250044
#
# Stress axis : x y z
#
# Youngs Moduli (GPa) = 99.02175 60.27101 49.43431
#
# Poissons Ratio (x) = 0.37355 0.17569
# Poissons Ratio (y) = 0.61371 0.12149
# Poissons Ratio (z) = 0.35193 0.14812
#
# Static dielectric constant tensor:
#      x y z
#    x 1.686540 0.000000 -0.038790 
#    y 0.000000 1.760060 0.000000 
#    z -0.038790 0.000000 2.026630 
# 
# From -- ./inp_files/192098.got.cif
#   From: 2010.05.17/outbox.cif.g08.bks.cpg/sg15_97_cif.got.tgz:192098.got - 2010.06.03 18:47:42.
