data_PCOD9275002
_publ_section_title
;
Structure prediction by ZEFSAII (Michael W. Deem and Ramdas Pophale) SiO2 
 PCOD9275002
Probable space group: C 2/C
;
_chemical_formula_sum "Si O2"
_cell_formula_units_Z 32
_cell_length_a 11.360411
_cell_length_b 13.793843
_cell_length_c 10.759548
_cell_angle_alpha 90.000000
_cell_angle_beta 115.186206
_cell_angle_gamma 90.000000
_cell_volume 1525.766628
_symmetry_space_group_name_H-M "C 2/C"
_symmetry_group_IT_number 15
_symmetry_cell_setting 'monoclinic'
loop_
_space_group_symop_operation_xyz
x,y,z
-x,y,1/2-z
-x,-y,-z
x,-y,1/2+z
1/2+x,1/2+y,z
1/2-x,1/2+y,1/2-z
1/2-x,1/2-y,-z
1/2+x,1/2-y,1/2+z
loop_
_atom_site_type_symbol
_atom_site_label
_atom_site_fract_x
_atom_site_fract_y
_atom_site_fract_z
Si Si1 0.411006 0.647025 0.971518
Si Si2 0.753894 0.669859 0.378128
Si Si3 0.186181 0.072581 0.094540
Si Si4 0.918183 0.518485 0.586000
O O1 0.380132 0.668582 0.103565
O O2 0.564382 0.642638 0.010356
O O3 0.322137 0.729800 0.869643
O O4 0.364456 0.538269 0.919483
O O5 0.738843 0.604420 0.251397
O O6 0.848244 0.619375 0.521654
O O7 0.305953 0.062787 0.053667
O O8 0.000000 0.522801 0.750000
O O9 0.000000 0.500000 0.500000
#
# Coordination Sequence:
#
# PCOD9275002 Si02
#       4
#     8   8   8   8
#     4   9  21  37  64 101 126 178 221 276 338 407
#     4  10  20  38  67  94 131 174 226 271 336 414
#     4  10  20  39  65  91 134 169 222 281 330 396
#     4  11  22  40  66  91 130 180 223 273 338 399
#
# _framework density 20.973064000000001
#
# number of rings (size 3 to 8) (size 9 to 14) (size 15 to 20)
#    0.000    2.000    2.500    0.750    0.000    6.000 
#    0.000    1.250   27.500    0.000    0.000    0.000 
#    0.000    0.000    0.000    0.000    0.000    0.000 
#
# Total GULP energy -89112.243461 kJ/mol
# GULP energy per Si atom -5569.515216 kJ/mol
# Density = 2.092533 g / cm^3
# Si number density = 20.973064 Si / 1000 Ang^3
#
#
#
# Elastic Constant Matrix: (Units=GPa)
#
#
# Indices 1 2 3 4 5 6 
#
# 1 153.8143 38.9894 48.8995 0.0000 -12.3088 0.0000
# 2 38.9894 83.3193 31.6051 0.0000 2.4250 0.0000
# 3 48.8995 31.6051 86.1549 0.0000 -3.8184 0.0000
# 4 0.0000 0.0000 0.0000 10.2924 0.0000 -14.9370
# 5 -12.3088 2.4250 -3.8184 0.0000 30.4545 0.0000
# 6 0.0000 0.0000 0.0000 -14.9370 0.0000 23.5919
#
#
#
# Elastic Compliance Matrix: (Units=1/GPa)
#
#
# Indices 1 2 3 4 5 6 
#
# 1 0.008646 -0.002710 -0.003769 0.000000 0.003238 0.000000
# 2 -0.002710 0.014886 -0.004046 0.000000 -0.002788 0.000000
# 3 -0.003769 -0.004046 0.015262 0.000000 0.000712 0.000000
# 4 0.000000 0.000000 0.000000 1.197274 0.000000 0.758042
# 5 0.003238 -0.002788 0.000712 0.000000 0.034456 0.000000
# 6 0.000000 0.000000 0.000000 0.758042 0.000000 0.522334
#
#
# Mechanical properties :
#
#
# Convention : Reuss Voigt Hill
#
# Bulk Modulus (GPa) = 56.36129 62.47515 59.41822
# Shear Modulus (GPa) = 2.74752 26.45408 14.60080
#
# Velocity S-wave (km/s) = 1.14580 3.55538 2.64136
# Velocity P-wave (km/s) = 5.35556 6.83427 6.13960
#
# Compressibility (1/GPa) = 0.01774267
#
# Stress axis : x y z
#
# Youngs Moduli (GPa) = 115.66361 67.17618 65.52089
#
# Poissons Ratio (x) = 0.18206 0.24698
# Poissons Ratio (y) = 0.31347 0.26511
# Poissons Ratio (z) = 0.43599 0.27181
#
# Static dielectric constant tensor:
#      x y z
#    x 1.917680 0.000000 0.043760 
#    y 0.000000 1.793180 0.000000 
#    z 0.043760 0.000000 1.730820 
# 
# From -- ./inp_files/83863.got.cif
#   From: 2010.05.17/outbox.cif.g08.bks.cpg/sg15_42_cif.got.tgz:83863.got - 2010.06.03 18:47:42.
