data_PCOD9275360
_publ_section_title
;
Structure prediction by ZEFSAII (Michael W. Deem and Ramdas Pophale) SiO2 
 PCOD9275360
Probable space group: C 2/C
;
_chemical_formula_sum "Si O2"
_cell_formula_units_Z 48
_cell_length_a 6.874075
_cell_length_b 25.122396
_cell_length_c 13.153749
_cell_angle_alpha 90.000000
_cell_angle_beta 128.308666
_cell_angle_gamma 90.000000
_cell_volume 1782.456365
_symmetry_space_group_name_H-M "C 2/C"
_symmetry_group_IT_number 15
_symmetry_cell_setting 'monoclinic'
loop_
_space_group_symop_operation_xyz
x,y,z
-x,y,1/2-z
-x,-y,-z
x,-y,1/2+z
1/2+x,1/2+y,z
1/2-x,1/2+y,1/2-z
1/2-x,1/2-y,-z
1/2+x,1/2-y,1/2+z
loop_
_atom_site_type_symbol
_atom_site_label
_atom_site_fract_x
_atom_site_fract_y
_atom_site_fract_z
Si Si1 0.246297 0.412436 0.716343
Si Si2 0.982771 0.096546 0.502695
Si Si3 0.214444 0.267212 0.201045
Si Si4 0.497393 0.121443 0.943582
Si Si5 0.028741 0.213060 0.969591
Si Si6 0.758083 0.468022 0.242900
O O1 0.500000 0.390941 0.750000
O O2 0.276157 0.408088 0.847937
O O3 0.040684 0.385882 0.578022
O O4 0.245289 0.476139 0.700710
O O5 0.953500 0.151673 0.553805
O O6 0.243770 0.105381 0.527437
O O7 0.031534 0.047273 0.594031
O O8 0.500000 0.268093 0.250000
O O9 0.069624 0.218497 0.103230
O O10 0.273291 0.266159 0.339525
O O11 0.079959 0.320319 0.118822
O O12 0.301383 0.079878 0.834814
O O13 0.250000 0.250000 0.000000
O O14 0.000000 0.470500 0.250000
#
# Coordination Sequence:
#
# PCOD9275360 Si02
#       6
#     8   8   8   8   8   8
#     4  10  22  39  61  95 127 163 213 263 306 375
#     4  10  21  40  63  86 126 169 204 259 314 376
#     4  10  22  40  60  90 121 160 204 260 315 373
#     4  10  21  39  63  88 126 164 210 252 317 375
#     4  10  22  41  61  87 125 157 206 258 312 375
#     4  10  20  39  60  90 126 168 213 254 316 377
#
# _framework density 26.929131000000002
#
# number of rings (size 3 to 8) (size 9 to 14) (size 15 to 20)
#    0.000    2.000    1.667    1.000    2.333    1.333 
#    6.000    0.000    0.000    0.000    0.000    0.000 
#    0.000    0.000    0.000    0.000    0.000    0.000 
#
# Total GULP energy -134370.901103 kJ/mol
# GULP energy per Si atom -5598.787546 kJ/mol
# Density = 2.686784 g / cm^3
# Si number density = 26.929131 Si / 1000 Ang^3
#
#
#
# Elastic Constant Matrix: (Units=GPa)
#
#
# Indices 1 2 3 4 5 6 
#
# 1 91.6783 -8.1551 13.0554 0.0000 -4.2764 0.0000
# 2 -8.1551 75.5935 39.4399 0.0000 8.0665 0.0000
# 3 13.0554 39.4399 232.4757 0.0000 13.5669 0.0000
# 4 0.0000 0.0000 0.0000 55.3531 0.0000 -6.9026
# 5 -4.2764 8.0665 13.5669 0.0000 17.1840 0.0000
# 6 0.0000 0.0000 0.0000 -6.9026 0.0000 34.2038
#
#
#
# Elastic Compliance Matrix: (Units=1/GPa)
#
#
# Indices 1 2 3 4 5 6 
#
# 1 0.011326 0.001456 -0.001056 0.000000 0.002969 0.000000
# 2 0.001456 0.015140 -0.002366 0.000000 -0.004877 0.000000
# 3 -0.001056 -0.002366 0.004940 0.000000 -0.003053 0.000000
# 4 0.000000 0.000000 0.000000 0.018532 0.000000 0.003740
# 5 0.002969 -0.004877 -0.003053 0.000000 0.063632 0.000000
# 6 0.000000 0.000000 0.000000 0.003740 0.000000 0.029991
#
#
# Mechanical properties :
#
#
# Convention : Reuss Voigt Hill
#
# Bulk Modulus (GPa) = 36.39657 54.26976 45.33316
# Shear Modulus (GPa) = 31.91769 45.04199 38.47984
#
# Velocity S-wave (km/s) = 3.44648 4.09419 3.78422
# Velocity P-wave (km/s) = 5.42058 6.52277 5.99705
#
# Compressibility (1/GPa) = 0.02747512
#
# Stress axis : x y z
#
# Youngs Moduli (GPa) = 88.29106 66.04817 202.41419
#
# Poissons Ratio (x) = -0.09618 0.21383
# Poissons Ratio (y) = -0.12857 0.47887
# Poissons Ratio (z) = 0.09327 0.15625
#
# Static dielectric constant tensor:
#      x y z
#    x 2.265070 0.000000 -0.095140 
#    y 0.000000 1.985250 0.000000 
#    z -0.095140 0.000000 2.144740 
# 
# From -- ./inp_files/139012.got.cif
#   From: 2010.05.17/outbox.cif.g08.bks.cpg/sg15_70_cif.got.tgz:139012.got - 2010.06.03 18:47:42.
