data_PCOD9275268
_publ_section_title
;
Structure prediction by ZEFSAII (Michael W. Deem and Ramdas Pophale) SiO2 
 PCOD9275268
Probable space group: C 2/C
;
_chemical_formula_sum "Si O2"
_cell_formula_units_Z 64
_cell_length_a 26.554087
_cell_length_b 13.017264
_cell_length_c 19.400491
_cell_angle_alpha 90.000000
_cell_angle_beta 29.089632
_cell_angle_gamma 90.000000
_cell_volume 3260.306639
_symmetry_space_group_name_H-M "C 2/C"
_symmetry_group_IT_number 15
_symmetry_cell_setting 'monoclinic'
loop_
_space_group_symop_operation_xyz
x,y,z
-x,y,1/2-z
-x,-y,-z
x,-y,1/2+z
1/2+x,1/2+y,z
1/2-x,1/2+y,1/2-z
1/2-x,1/2-y,-z
1/2+x,1/2-y,1/2+z
loop_
_atom_site_type_symbol
_atom_site_label
_atom_site_fract_x
_atom_site_fract_y
_atom_site_fract_z
Si Si1 0.498246 0.097726 0.953081
Si Si2 0.157812 0.168170 0.112746
Si Si3 0.210311 0.287662 0.822475
Si Si4 0.920505 0.725399 0.525778
Si Si5 0.561856 0.365413 0.578801
Si Si6 0.524674 0.554416 0.898962
Si Si7 0.263872 0.537237 0.364931
Si Si8 0.467630 0.040412 0.368584
O O1 0.568595 0.179289 0.909530
O O2 0.521650 0.051832 0.848789
O O3 0.381839 0.141684 0.095618
O O4 0.500000 0.000000 0.000000
O O5 0.115966 0.137291 0.088182
O O6 0.211115 0.075503 0.088783
O O7 0.049453 0.194251 0.282469
O O8 0.250000 0.250000 0.000000
O O9 0.298413 0.249615 0.665220
O O10 0.266869 0.361454 0.811803
O O11 0.144645 0.192640 0.931990
O O12 0.966723 0.644232 0.415574
O O13 0.981460 0.831838 0.447235
O O14 0.528407 0.478371 0.593572
O O15 0.648390 0.546968 0.751340
O O16 0.500000 0.500000 0.000000
O O17 0.151321 0.493255 0.491030
O O18 0.500000 0.050809 0.250000
#
# Coordination Sequence:
#
# PCOD9275268 Si02
#       8
#     8   8   8   8   8   8   8   8
#     4   9  22  42  65  92 127 165 220 272 325 382
#     4  10  20  39  58  92 133 170 209 260 332 391
#     4  11  21  36  64 100 122 165 219 268 326 380
#     4  11  24  41  68  94 130 171 221 273 329 395
#     4  10  23  35  60  96 131 167 214 263 329 393
#     4  11  22  40  64  91 131 168 215 277 327 384
#     4  10  22  39  63  94 125 170 212 264 329 383
#     4  10  24  46  66  95 131 174 218 270 331 400
#
# _framework density 19.630054999999999
#
# number of rings (size 3 to 8) (size 9 to 14) (size 15 to 20)
#    0.000    1.750    2.500    0.750    5.250    4.000 
#    4.500    1.875    0.000    0.000    0.000    0.000 
#    0.000    0.000    0.000    0.000    0.000    0.000 
#
# Total GULP energy -178346.497276 kJ/mol
# GULP energy per Si atom -5573.328040 kJ/mol
# Density = 1.958538 g / cm^3
# Si number density = 19.630055 Si / 1000 Ang^3
#
#
#
# Elastic Constant Matrix: (Units=GPa)
#
#
# Indices 1 2 3 4 5 6 
#
# 1 71.3504 19.6257 -12.5582 0.0000 8.7310 0.0000
# 2 19.6257 99.8320 24.4422 0.0000 7.8566 0.0000
# 3 -12.5582 24.4422 38.1887 0.0000 14.3068 0.0000
# 4 0.0000 0.0000 0.0000 27.8912 0.0000 -5.6905
# 5 8.7310 7.8566 14.3068 0.0000 26.3202 0.0000
# 6 0.0000 0.0000 0.0000 -5.6905 0.0000 25.9038
#
#
#
# Elastic Compliance Matrix: (Units=1/GPa)
#
#
# Indices 1 2 3 4 5 6 
#
# 1 0.020428 -0.006921 0.016214 0.000000 -0.013524 0.000000
# 2 -0.006921 0.014235 -0.013380 0.000000 0.005320 0.000000
# 3 0.016214 -0.013380 0.050982 0.000000 -0.029097 0.000000
# 4 0.000000 0.000000 0.000000 0.037536 0.000000 0.008246
# 5 -0.013524 0.005320 -0.029097 0.000000 0.056708 0.000000
# 6 0.000000 0.000000 0.000000 0.008246 0.000000 0.040416
#
#
# Mechanical properties :
#
#
# Convention : Reuss Voigt Hill
#
# Bulk Modulus (GPa) = 12.90824 30.26563 21.58693
# Shear Modulus (GPa) = 19.66176 27.88047 23.77111
#
# Velocity S-wave (km/s) = 3.16826 3.77277 3.48365
# Velocity P-wave (km/s) = 4.46922 5.86770 5.21554
#
# Compressibility (1/GPa) = 0.07746991
#
# Stress axis : x y z
#
# Youngs Moduli (GPa) = 48.95313 70.25142 19.61492
#
# Poissons Ratio (x) = 0.48623 -0.31803
# Poissons Ratio (y) = 0.33882 0.26244
# Poissons Ratio (z) = -0.79372 0.93994
#
# Static dielectric constant tensor:
#      x y z
#    x 1.724770 0.000000 0.000460 
#    y 0.000000 1.848050 0.000000 
#    z 0.000460 0.000000 1.461930 
# 
# From -- ./inp_files/257507.got.cif
#   From: 2010.05.17/outbox.cif.g08.bks.cpg/sg15_129_cif.got.tgz:257507.got - 2010.06.03 18:47:42.
