data_PCOD9275831
_publ_section_title
;
Structure prediction by ZEFSAII (Michael W. Deem and Ramdas Pophale) SiO2 
 PCOD9275831
Probable space group: C 2/C
;
_chemical_formula_sum "Si O2"
_cell_formula_units_Z 56
_cell_length_a 7.854953
_cell_length_b 26.174102
_cell_length_c 15.332714
_cell_angle_alpha 90.000000
_cell_angle_beta 103.115318
_cell_angle_gamma 90.000000
_cell_volume 3070.121913
_symmetry_space_group_name_H-M "C 2/C"
_symmetry_group_IT_number 15
_symmetry_cell_setting 'monoclinic'
loop_
_space_group_symop_operation_xyz
x,y,z
-x,y,1/2-z
-x,-y,-z
x,-y,1/2+z
1/2+x,1/2+y,z
1/2-x,1/2+y,1/2-z
1/2-x,1/2-y,-z
1/2+x,1/2-y,1/2+z
loop_
_atom_site_type_symbol
_atom_site_label
_atom_site_fract_x
_atom_site_fract_y
_atom_site_fract_z
Si Si1 0.288965 0.190537 0.996858
Si Si2 0.103817 0.078176 0.171122
Si Si3 0.403188 0.824787 0.102247
Si Si4 0.500000 0.738347 0.250000
Si Si5 0.460850 0.375771 0.472181
Si Si6 0.631837 0.459914 0.183595
Si Si7 0.688439 0.828423 0.799529
Si Si8 0.000000 0.589004 0.750000
O O1 0.319049 0.173993 0.098253
O O2 0.250000 0.250000 0.000000
O O3 0.457646 0.183106 0.957554
O O4 0.120449 0.157179 0.950263
O O5 0.273256 0.112114 0.213443
O O6 0.000000 0.080036 0.250000
O O7 0.133963 0.018862 0.154480
O O8 0.009812 0.104366 0.075639
O O9 0.413321 0.775589 0.167259
O O10 0.210202 0.839420 0.046664
O O11 0.470732 0.873230 0.165430
O O12 0.651066 0.703948 0.222793
O O13 0.422514 0.422847 0.402460
O O14 0.500000 0.454167 0.250000
O O15 0.824911 0.443821 0.237134
O O16 0.500000 0.809036 0.750000
#
# Coordination Sequence:
#
# PCOD9275831 Si02
#       8
#     8   8   8   4   8   8   8   4
#     4  11  23  39  57  91 117 155 203 235 289 356
#     4  10  22  40  61  86 118 156 200 243 298 355
#     4  10  22  38  63  87 120 156 197 245 292 348
#     4  11  22  40  58  88 120 154 200 241 294 356
#     4  10  23  40  61  88 122 156 197 249 292 349
#     4  10  20  39  65  88 119 155 195 247 302 348
#     4  11  25  39  58  83 121 156 194 245 293 352
#     4   9  20  38  60  94 118 152 198 243 294 352
#
# _framework density 18.240319
#
# number of rings (size 3 to 8) (size 9 to 14) (size 15 to 20)
#    0.000    1.714    2.143    1.286    5.000    0.571 
#    0.000    0.000    0.000    8.571    0.000    0.000 
#    0.000    0.000    0.000    0.000    0.000    0.000 
#
# Total GULP energy -156125.570826 kJ/mol
# GULP energy per Si atom -5575.913244 kJ/mol
# Density = 1.819880 g / cm^3
# Si number density = 18.240319 Si / 1000 Ang^3
#
#
#
# Elastic Constant Matrix: (Units=GPa)
#
#
# Indices 1 2 3 4 5 6 
#
# 1 105.8412 38.5661 37.7088 0.0000 -7.7892 0.0000
# 2 38.5661 98.3690 21.5328 0.0000 -6.4433 0.0000
# 3 37.7088 21.5328 61.1193 0.0000 -12.7537 0.0000
# 4 0.0000 0.0000 0.0000 126.0872 0.0000 -530.8568
# 5 -7.7892 -6.4433 -12.7537 0.0000 33.7088 0.0000
# 6 0.0000 0.0000 0.0000 -530.8568 0.0000 2398.9342
#
#
#
# Elastic Compliance Matrix: (Units=1/GPa)
#
#
# Indices 1 2 3 4 5 6 
#
# 1 0.013241 -0.003693 -0.006924 0.000000 -0.000266 0.000000
# 2 -0.003693 0.012060 -0.001810 0.000000 0.000767 0.000000
# 3 -0.006924 -0.001810 0.022653 0.000000 0.006625 0.000000
# 4 0.000000 0.000000 0.000000 0.116081 0.000000 0.025687
# 5 -0.000266 0.000767 0.006625 0.000000 0.032258 0.000000
# 6 0.000000 0.000000 0.000000 0.025687 0.000000 0.006101
#
#
# Mechanical properties :
#
#
# Convention : Reuss Voigt Hill
#
# Bulk Modulus (GPa) = 43.28929 51.21610 47.25270
# Shear Modulus (GPa) = 21.28123 522.91416 272.09770
#
# Velocity S-wave (km/s) = 3.41942 16.95001 12.22692
# Velocity P-wave (km/s) = 6.27489 20.27831 15.00973
#
# Compressibility (1/GPa) = 0.02310040
#
# Stress axis : x y z
#
# Youngs Moduli (GPa) = 75.52319 82.91742 44.14351
#
# Poissons Ratio (x) = 0.30622 0.30564
# Poissons Ratio (y) = 0.27891 0.07992
# Poissons Ratio (z) = 0.52290 0.15011
#
# Static dielectric constant tensor:
#      x y z
#    x 1.660840 0.000000 0.102870 
#    y 0.000000 1.602800 0.000000 
#    z 0.102870 0.000000 -0.312510 
# 
# From -- ./inp_files/130816.got.cif
#   From: 2010.05.17/outbox.cif.g08.bks.cpg/sg15_66_cif.got.tgz:130816.got - 2010.06.03 18:47:42.
