data_PCOD9275752
_publ_section_title
;
Structure prediction by ZEFSAII (Michael W. Deem and Ramdas Pophale) SiO2 
 PCOD9275752
Probable space group: C 2/C
;
_chemical_formula_sum "Si O2"
_cell_formula_units_Z 48
_cell_length_a 11.969156
_cell_length_b 14.042921
_cell_length_c 21.268282
_cell_angle_alpha 90.000000
_cell_angle_beta 143.137600
_cell_angle_gamma 90.000000
_cell_volume 2144.513850
_symmetry_space_group_name_H-M "C 2/C"
_symmetry_group_IT_number 15
_symmetry_cell_setting 'monoclinic'
loop_
_space_group_symop_operation_xyz
x,y,z
-x,y,1/2-z
-x,-y,-z
x,-y,1/2+z
1/2+x,1/2+y,z
1/2-x,1/2+y,1/2-z
1/2-x,1/2-y,-z
1/2+x,1/2-y,1/2+z
loop_
_atom_site_type_symbol
_atom_site_label
_atom_site_fract_x
_atom_site_fract_y
_atom_site_fract_z
Si Si1 0.025578 0.944551 0.110959
Si Si2 0.894047 0.762350 0.438810
Si Si3 0.749528 0.602897 0.525526
Si Si4 0.791804 0.078790 0.141798
Si Si5 0.093495 0.503823 0.160150
Si Si6 0.197645 0.657214 0.515621
O O1 0.083792 0.853427 0.096178
O O2 0.889864 0.901952 0.105205
O O3 0.209261 0.001577 0.215306
O O4 0.886923 0.017474 0.013589
O O5 0.824978 0.804139 0.473663
O O6 0.750650 0.683536 0.348358
O O7 0.086224 0.701165 0.524691
O O8 0.736343 0.596230 0.444268
O O9 0.966173 0.578404 0.633035
O O10 0.660018 0.002629 0.117107
O O11 0.000000 0.053664 0.250000
O O12 0.950083 0.593281 0.091153
O O13 0.250000 0.750000 0.500000
#
# Coordination Sequence:
#
# PCOD9275752 Si02
#       6
#     8   8   8   8   8   8
#     4  10  20  39  64  91 126 166 210 255 315 378
#     4  10  22  38  62  93 126 162 205 261 321 370
#     4  11  22  39  63  92 125 160 210 261 314 370
#     4  11  22  40  60  84 124 164 206 254 313 377
#     4  10  21  37  64  91 120 165 214 257 307 378
#     4   8  18  39  62  89 127 171 200 253 316 378
#
# _framework density 22.382695999999999
#
# number of rings (size 3 to 8) (size 9 to 14) (size 15 to 20)
#    0.000    2.000    1.667    1.500    2.333    0.000 
#    0.000    0.000    0.000    8.000    0.000    0.000 
#    0.000    0.000    0.000    0.000    0.000    0.000 
#
# Total GULP energy -133638.275861 kJ/mol
# GULP energy per Si atom -5568.261494 kJ/mol
# Density = 2.233175 g / cm^3
# Si number density = 22.382696 Si / 1000 Ang^3
#
#
#
# Elastic Constant Matrix: (Units=GPa)
#
#
# Indices 1 2 3 4 5 6 
#
# 1 135.0348 48.8391 35.9809 0.0000 22.4429 0.0000
# 2 48.8391 109.4884 20.8402 0.0000 10.9896 0.0000
# 3 35.9809 20.8402 73.5258 0.0000 37.6209 0.0000
# 4 0.0000 0.0000 0.0000 17.3012 0.0000 7.3601
# 5 22.4429 10.9896 37.6209 0.0000 33.5628 0.0000
# 6 0.0000 0.0000 0.0000 7.3601 0.0000 51.9040
#
#
#
# Elastic Compliance Matrix: (Units=1/GPa)
#
#
# Indices 1 2 3 4 5 6 
#
# 1 0.009809 -0.003651 -0.002394 0.000000 -0.002680 0.000000
# 2 -0.003651 0.011014 -0.001733 0.000000 0.000777 0.000000
# 3 -0.002394 -0.001733 0.033189 0.000000 -0.035034 0.000000
# 4 0.000000 0.000000 0.000000 0.061510 0.000000 -0.008722
# 5 -0.002680 0.000777 -0.035034 0.000000 0.070603 0.000000
# 6 0.000000 0.000000 0.000000 -0.008722 0.000000 0.020503
#
#
# Mechanical properties :
#
#
# Convention : Reuss Voigt Hill
#
# Bulk Modulus (GPa) = 26.00339 58.81884 42.41111
# Shear Modulus (GPa) = 21.27635 34.71285 27.99460
#
# Velocity S-wave (km/s) = 3.08648 3.94239 3.54040
# Velocity P-wave (km/s) = 4.93403 6.85996 5.97510
#
# Compressibility (1/GPa) = 0.03845653
#
# Stress axis : x y z
#
# Youngs Moduli (GPa) = 101.94365 90.79569 30.13026
#
# Poissons Ratio (x) = 0.33149 0.07213
# Poissons Ratio (y) = 0.37219 0.05221
# Poissons Ratio (z) = 0.24406 0.15734
#
# Static dielectric constant tensor:
#      x y z
#    x 1.929350 0.000000 0.006070 
#    y 0.000000 1.868300 0.000000 
#    z 0.006070 0.000000 1.817780 
# 
# From -- ./inp_files/143460.got.cif
#   From: 2010.05.17/outbox.cif.g08.bks.cpg/sg15_72_cif.got.tgz:143460.got - 2010.06.03 18:47:42.
