data_PCOD9275973
_publ_section_title
;
Structure prediction by ZEFSAII (Michael W. Deem and Ramdas Pophale) SiO2 
 PCOD9275973
Probable space group: C 2/C
;
_chemical_formula_sum "Si O2"
_cell_formula_units_Z 40
_cell_length_a 10.967333
_cell_length_b 9.656346
_cell_length_c 20.765652
_cell_angle_alpha 90.000000
_cell_angle_beta 133.823695
_cell_angle_gamma 90.000000
_cell_volume 1586.646073
_symmetry_space_group_name_H-M "C 2/C"
_symmetry_group_IT_number 15
_symmetry_cell_setting 'monoclinic'
loop_
_space_group_symop_operation_xyz
x,y,z
-x,y,1/2-z
-x,-y,-z
x,-y,1/2+z
1/2+x,1/2+y,z
1/2-x,1/2+y,1/2-z
1/2-x,1/2-y,-z
1/2+x,1/2-y,1/2+z
loop_
_atom_site_type_symbol
_atom_site_label
_atom_site_fract_x
_atom_site_fract_y
_atom_site_fract_z
Si Si1 0.930251 0.400853 0.031232
Si Si2 0.500000 0.013295 0.750000
Si Si3 0.312093 0.055556 0.300882
Si Si4 0.664910 0.320801 0.098398
Si Si5 0.500000 0.576850 0.750000
Si Si6 0.145586 0.116863 0.937213
O O1 0.075964 0.421617 0.136657
O O2 0.890625 0.251835 0.988134
O O3 0.761758 0.482542 0.987521
O O4 0.000000 0.500000 0.000000
O O5 0.609295 0.921407 0.740317
O O6 0.651828 0.108449 0.834533
O O7 0.123550 0.013169 0.249689
O O8 0.335927 0.192185 0.351467
O O9 0.516056 0.408586 0.076297
O O10 0.608256 0.644094 0.847493
O O11 0.250000 0.250000 0.000000
#
# Coordination Sequence:
#
# PCOD9275973 Si02
#       6
#     8   4   8   8   4   8
#     4  10  20  39  66  93 130 173 223 273 332 399
#     4  12  27  41  64 102 136 166 227 279 332 402
#     4  11  23  44  64  99 132 173 228 277 331 408
#     4  11  23  42  67  91 135 176 214 285 330 393
#     4  12  21  39  72  94 132 184 225 263 342 404
#     4  12  21  40  70 101 130 179 228 269 337 404
#
# _framework density 25.210412999999999
#
# number of rings (size 3 to 8) (size 9 to 14) (size 15 to 20)
#    0.000    0.800   10.000    0.600    0.000    1.600 
#    0.000    1.000    0.000    0.000    0.000    0.000 
#    0.000    0.000    0.000    0.000    0.000    0.000 
#
# Total GULP energy -111748.907092 kJ/mol
# GULP energy per Si atom -5587.445355 kJ/mol
# Density = 2.515303 g / cm^3
# Si number density = 25.210413 Si / 1000 Ang^3
#
#
#
# Elastic Constant Matrix: (Units=GPa)
#
#
# Indices 1 2 3 4 5 6 
#
# 1 196.3403 43.6451 28.9065 0.0000 33.4664 0.0000
# 2 43.6451 53.3818 3.9017 0.0000 4.5996 0.0000
# 3 28.9065 3.9017 43.5431 0.0000 15.0993 0.0000
# 4 0.0000 0.0000 0.0000 13.1643 0.0000 -5.7471
# 5 33.4664 4.5996 15.0993 0.0000 49.6491 0.0000
# 6 0.0000 0.0000 0.0000 -5.7471 0.0000 27.7220
#
#
#
# Elastic Compliance Matrix: (Units=1/GPa)
#
#
# Indices 1 2 3 4 5 6 
#
# 1 0.007382 -0.005501 -0.003196 0.000000 -0.003494 0.000000
# 2 -0.005501 0.023040 0.001165 0.000000 0.001219 0.000000
# 3 -0.003196 0.001165 0.027135 0.000000 -0.006206 0.000000
# 4 0.000000 0.000000 0.000000 0.083522 0.000000 0.017315
# 5 -0.003494 0.001219 -0.006206 0.000000 0.024271 0.000000
# 6 0.000000 0.000000 0.000000 0.017315 0.000000 0.039662
#
#
# Mechanical properties :
#
#
# Convention : Reuss Voigt Hill
#
# Bulk Modulus (GPa) = 23.53350 49.57465 36.55408
# Shear Modulus (GPa) = 21.34543 32.56122 26.95332
#
# Velocity S-wave (km/s) = 2.91295 3.59775 3.27331
# Velocity P-wave (km/s) = 4.54630 6.07992 5.36816
#
# Compressibility (1/GPa) = 0.04249262
#
# Stress axis : x y z
#
# Youngs Moduli (GPa) = 135.46088 43.40193 36.85261
#
# Poissons Ratio (x) = 0.23875 0.11778
# Poissons Ratio (y) = 0.74517 -0.04292
# Poissons Ratio (z) = 0.43294 -0.05054
#
# Static dielectric constant tensor:
#      x y z
#    x -3.600230 0.000000 -2.658250 
#    y 0.000000 2.012310 0.000000 
#    z -2.658250 0.000000 0.962770 
# 
# From -- ./inp_files/142171.got.cif
#   From: 2010.05.17/outbox.cif.g08.bks.cpg/sg15_72_cif.got.tgz:142171.got - 2010.06.03 18:47:42.
