data_PCOD9275119
_publ_section_title
;
Structure prediction by ZEFSAII (Michael W. Deem and Ramdas Pophale) SiO2 
 PCOD9275119
Probable space group: C 2/C
;
_chemical_formula_sum "Si O2"
_cell_formula_units_Z 48
_cell_length_a 8.400620
_cell_length_b 12.819973
_cell_length_c 16.560087
_cell_angle_alpha 90.000000
_cell_angle_beta 87.545909
_cell_angle_gamma 90.000000
_cell_volume 1781.814830
_symmetry_space_group_name_H-M "C 2/C"
_symmetry_group_IT_number 15
_symmetry_cell_setting 'monoclinic'
loop_
_space_group_symop_operation_xyz
x,y,z
-x,y,1/2-z
-x,-y,-z
x,-y,1/2+z
1/2+x,1/2+y,z
1/2-x,1/2+y,1/2-z
1/2-x,1/2-y,-z
1/2+x,1/2-y,1/2+z
loop_
_atom_site_type_symbol
_atom_site_label
_atom_site_fract_x
_atom_site_fract_y
_atom_site_fract_z
Si Si1 0.297191 0.447702 0.202529
Si Si2 0.582632 0.627008 0.971848
Si Si3 0.500000 0.361587 0.750000
Si Si4 0.228838 0.450665 0.475608
Si Si5 0.005271 0.665149 0.094759
Si Si6 0.500000 0.056918 0.250000
Si Si7 0.705803 0.205325 0.835976
O O1 0.385185 0.425685 0.117079
O O2 0.363669 0.549517 0.247517
O O3 0.115910 0.481209 0.198608
O O4 0.290282 0.343798 0.255567
O O5 0.399146 0.601947 0.998906
O O6 0.588250 0.749522 0.955549
O O7 0.710474 0.570117 0.026998
O O8 0.555846 0.279008 0.817758
O O9 0.086784 0.423593 0.539033
O O10 0.179950 0.394218 0.394040
O O11 0.927798 0.626503 0.179492
O O12 0.162775 0.725730 0.123027
#
# Coordination Sequence:
#
# PCOD9275119 Si02
#       7
#     8   8   4   8   8   4   8
#     4  12  25  42  68 103 139 188 243 292 352 428
#     4  10  20  38  69 101 140 180 237 297 355 420
#     4  12  23  43  68  98 144 188 237 291 356 414
#     4  10  21  39  66 109 138 177 238 298 353 429
#     4  11  21  40  69 101 138 185 236 292 362 420
#     4  12  23  43  64  98 140 186 237 295 352 424
#     4  11  23  40  67 101 137 179 235 293 351 422
#
# _framework density 26.938825999999999
#
# number of rings (size 3 to 8) (size 9 to 14) (size 15 to 20)
#    0.000    1.000    3.333    5.500    0.000    4.000 
#    0.000    0.833    0.000    2.000    0.000    0.000 
#    0.000    0.000    0.000    0.000    0.000    0.000 
#
# Total GULP energy -134194.214965 kJ/mol
# GULP energy per Si atom -5591.425624 kJ/mol
# Density = 2.687751 g / cm^3
# Si number density = 26.938826 Si / 1000 Ang^3
#
#
#
# Elastic Constant Matrix: (Units=GPa)
#
#
# Indices 1 2 3 4 5 6 
#
# 1 77.4101 65.4110 37.6515 0.0000 -2.7944 0.0000
# 2 65.4110 171.8108 39.7398 0.0000 10.3588 0.0000
# 3 37.6515 39.7398 82.3881 0.0000 -19.4401 0.0000
# 4 0.0000 0.0000 0.0000 49.0080 0.0000 9.1843
# 5 -2.7944 10.3588 -19.4401 0.0000 44.6611 0.0000
# 6 0.0000 0.0000 0.0000 9.1843 0.0000 50.5807
#
#
#
# Elastic Compliance Matrix: (Units=1/GPa)
#
#
# Indices 1 2 3 4 5 6 
#
# 1 0.021941 -0.006793 -0.006748 0.000000 0.000011 0.000000
# 2 -0.006793 0.009100 -0.002099 0.000000 -0.003449 0.000000
# 3 -0.006748 -0.002099 0.018109 0.000000 0.007947 0.000000
# 4 0.000000 0.000000 0.000000 0.021124 0.000000 -0.003836
# 5 0.000011 -0.003449 0.007947 0.000000 0.026651 0.000000
# 6 0.000000 0.000000 0.000000 -0.003836 0.000000 0.020467
#
#
# Mechanical properties :
#
#
# Convention : Reuss Voigt Hill
#
# Bulk Modulus (GPa) = 55.95806 68.57930 62.26868
# Shear Modulus (GPa) = 32.33587 41.43705 36.88646
#
# Velocity S-wave (km/s) = 3.46836 3.92623 3.70438
# Velocity P-wave (km/s) = 6.07097 6.78722 6.43907
#
# Compressibility (1/GPa) = 0.01787053
#
# Stress axis : x y z
#
# Youngs Moduli (GPa) = 45.57721 109.88976 55.22147
#
# Poissons Ratio (x) = 0.74650 0.37262
# Poissons Ratio (y) = 0.30961 0.11590
# Poissons Ratio (z) = 0.30754 0.23064
#
# Static dielectric constant tensor:
#      x y z
#    x 2.017360 0.000000 0.224030 
#    y 0.000000 2.128070 0.000000 
#    z 0.224030 0.000000 1.915110 
# 
# From -- ./inp_files/189285.got.cif
#   From: 2010.05.17/outbox.cif.g08.bks.cpg/sg15_95_cif.got.tgz:189285.got - 2010.06.03 18:47:42.
