data_PCOD9275724
_publ_section_title
;
Structure prediction by ZEFSAII (Michael W. Deem and Ramdas Pophale) SiO2 
 PCOD9275724
Probable space group: C 2/C
;
_chemical_formula_sum "Si O2"
_cell_formula_units_Z 32
_cell_length_a 11.767615
_cell_length_b 23.183833
_cell_length_c 5.233147
_cell_angle_alpha 90.000000
_cell_angle_beta 114.888163
_cell_angle_gamma 90.000000
_cell_volume 1295.109902
_symmetry_space_group_name_H-M "C 2/C"
_symmetry_group_IT_number 15
_symmetry_cell_setting 'monoclinic'
loop_
_space_group_symop_operation_xyz
x,y,z
-x,y,1/2-z
-x,-y,-z
x,-y,1/2+z
1/2+x,1/2+y,z
1/2-x,1/2+y,1/2-z
1/2-x,1/2-y,-z
1/2+x,1/2-y,1/2+z
loop_
_atom_site_type_symbol
_atom_site_label
_atom_site_fract_x
_atom_site_fract_y
_atom_site_fract_z
Si Si1 0.500000 0.301622 0.250000
Si Si2 0.000000 0.120449 0.250000
Si Si3 0.137866 0.647479 0.071841
Si Si4 0.642156 0.194625 0.575789
Si Si5 0.739719 0.538028 0.458217
O O1 0.479457 0.339944 0.480946
O O2 0.612555 0.257077 0.430337
O O3 0.882061 0.078626 0.181969
O O4 0.199634 0.654798 0.409232
O O5 0.147932 0.582635 0.985591
O O6 0.200001 0.687363 0.910922
O O7 0.997028 0.668843 0.993010
O O8 0.740948 0.509240 0.736378
#
# Coordination Sequence:
#
# PCOD9275724 Si02
#       5
#     4   4   8   8   8
#     4  10  20  39  64  88 118 151 186 234 296 356
#     4  12  24  41  60  84 114 157 204 244 282 330
#     4   9  18  36  60  84 118 152 184 231 290 348
#     4   9  18  38  60  90 124 144 170 235 298 360
#     4  12  25  42  59  82 115 158 205 248 280 322
#
# _framework density 24.708327000000001
#
# number of rings (size 3 to 8) (size 9 to 14) (size 15 to 20)
#    0.000    2.000    0.000    6.750    0.000    0.000 
#    0.000   32.500    0.000    0.000    0.000    0.000 
#    0.000    0.000    0.000    0.000    0.000    0.000 
#
# Total GULP energy -89483.002433 kJ/mol
# GULP energy per Si atom -5592.687652 kJ/mol
# Density = 2.465209 g / cm^3
# Si number density = 24.708327 Si / 1000 Ang^3
#
#
#
# Elastic Constant Matrix: (Units=GPa)
#
#
# Indices 1 2 3 4 5 6 
#
# 1 63.0104 30.3137 21.3818 0.0000 3.0644 0.0000
# 2 30.3137 119.4000 29.4399 0.0000 -7.7960 0.0000
# 3 21.3818 29.4399 155.8490 0.0000 -57.3225 0.0000
# 4 0.0000 0.0000 0.0000 65.1791 0.0000 -14.6634
# 5 3.0644 -7.7960 -57.3225 0.0000 43.3434 0.0000
# 6 0.0000 0.0000 0.0000 -14.6634 0.0000 -21.0528
#
#
#
# Elastic Compliance Matrix: (Units=1/GPa)
#
#
# Indices 1 2 3 4 5 6 
#
# 1 0.020286 -0.004433 -0.005387 0.000000 -0.009356 0.000000
# 2 -0.004433 0.009785 -0.000930 0.000000 0.000844 0.000000
# 3 -0.005387 -0.000930 0.014428 0.000000 0.019295 0.000000
# 4 0.000000 0.000000 0.000000 0.013264 0.000000 -0.009238
# 5 -0.009356 0.000844 0.019295 0.000000 0.049403 0.000000
# 6 0.000000 0.000000 0.000000 -0.009238 0.000000 -0.041065
#
#
# Mechanical properties :
#
#
# Convention : Reuss Voigt Hill
#
# Bulk Modulus (GPa) = 43.47937 55.61446 49.54691
# Shear Modulus (GPa) = 52.48409 34.63553 43.55981
#
# Velocity S-wave (km/s) = 4.61385 3.74809 4.20332
# Velocity P-wave (km/s) = 6.78371 6.42559 6.60707
#
# Compressibility (1/GPa) = 0.02299942
#
# Stress axis : x y z
#
# Youngs Moduli (GPa) = 49.29501 102.19686 69.30950
#
# Poissons Ratio (x) = 0.45303 0.37337
# Poissons Ratio (y) = 0.21852 0.06446
# Poissons Ratio (z) = 0.26555 0.09504
#
# Static dielectric constant tensor:
#      x y z
#    x 2.054110 0.000000 0.095950 
#    y 0.000000 1.927130 0.000000 
#    z 0.095950 0.000000 2.191660 
# 
# From -- ./inp_files/6584.got.cif
#   From: 2010.05.17/outbox.cif.g08.bks.cpg/sg15_4_cif.got.tgz:6584.got - 2010.06.03 18:47:42.
