data_PCOD9275153
_publ_section_title
;
Structure prediction by ZEFSAII (Michael W. Deem and Ramdas Pophale) SiO2 
 PCOD9275153
Probable space group: C 2/C
;
_chemical_formula_sum "Si O2"
_cell_formula_units_Z 64
_cell_length_a 16.569731
_cell_length_b 7.383985
_cell_length_c 25.396092
_cell_angle_alpha 90.000000
_cell_angle_beta 46.823477
_cell_angle_gamma 90.000000
_cell_volume 2265.943274
_symmetry_space_group_name_H-M "C 2/C"
_symmetry_group_IT_number 15
_symmetry_cell_setting 'monoclinic'
loop_
_space_group_symop_operation_xyz
x,y,z
-x,y,1/2-z
-x,-y,-z
x,-y,1/2+z
1/2+x,1/2+y,z
1/2-x,1/2+y,1/2-z
1/2-x,1/2-y,-z
1/2+x,1/2-y,1/2+z
loop_
_atom_site_type_symbol
_atom_site_label
_atom_site_fract_x
_atom_site_fract_y
_atom_site_fract_z
Si Si1 0.398296 0.264602 0.409354
Si Si2 0.643623 0.176131 0.272601
Si Si3 0.665005 0.415469 0.745367
Si Si4 0.153182 0.045805 0.368512
Si Si5 0.380450 0.306513 0.936776
Si Si6 0.392546 0.149703 0.820595
Si Si7 0.194245 0.667889 0.936799
Si Si8 0.644865 0.246293 0.439332
O O1 0.515656 0.183829 0.341291
O O2 0.390366 0.479576 0.423007
O O3 0.315829 0.252164 0.396300
O O4 0.358419 0.171285 0.481029
O O5 0.669344 0.370307 0.235251
O O6 0.712041 0.032657 0.207038
O O7 0.712477 0.158159 0.296246
O O8 0.612832 0.397108 0.827766
O O9 0.611976 0.315668 0.720069
O O10 0.820144 0.463755 0.578499
O O11 0.143928 0.197989 0.416655
O O12 0.091077 0.866558 0.417126
O O13 0.425691 0.203849 0.865704
O O14 0.250000 0.250000 0.000000
O O15 0.421435 0.262931 0.976897
O O16 0.500000 0.039644 0.750000
O O17 0.259190 0.136413 0.891147
#
# Coordination Sequence:
#
# PCOD9275153 Si02
#       8
#     8   8   8   8   8   8   8   8
#     4  11  22  42  70 114 150 196 249 321 378 453
#     4  10  24  45  72 101 151 199 253 312 390 456
#     4  10  23  44  70 102 147 194 251 316 379 458
#     4  10  24  45  73 103 149 201 247 310 383 457
#     4  10  20  38  70 104 150 188 243 304 377 448
#     4  11  22  39  72 106 135 186 252 320 376 441
#     4  11  23  41  76 107 156 196 244 313 379 448
#     4  11  22  45  68 110 146 196 241 302 384 450
#
# _framework density 28.244308
#
# number of rings (size 3 to 8) (size 9 to 14) (size 15 to 20)
#    0.750    0.750    3.750    2.250    0.000    0.500 
#    4.500    1.875    8.250    3.750    0.000    0.000 
#    0.000    0.000    0.000    0.000    0.000    0.000 
#
# Total GULP energy -178861.157743 kJ/mol
# GULP energy per Si atom -5589.411179 kJ/mol
# Density = 2.818002 g / cm^3
# Si number density = 28.244308 Si / 1000 Ang^3
#
#
#
# Elastic Constant Matrix: (Units=GPa)
#
#
# Indices 1 2 3 4 5 6 
#
# 1 140.8891 36.9358 63.6382 0.0002 -12.7852 0.0003
# 2 36.9358 150.8019 48.8272 -0.0009 17.1287 -0.0005
# 3 63.6382 48.8272 194.8207 0.0003 19.3792 0.0001
# 4 0.0002 -0.0009 0.0003 54.9938 0.0001 13.7310
# 5 -12.7852 17.1287 19.3792 0.0001 57.2775 -0.0001
# 6 0.0003 -0.0005 0.0001 13.7310 -0.0001 20.7869
#
#
#
# Elastic Compliance Matrix: (Units=1/GPa)
#
#
# Indices 1 2 3 4 5 6 
#
# 1 0.009190 -0.001706 -0.002928 0.000000 0.003552 0.000000
# 2 -0.001706 0.007678 -0.001139 0.000000 -0.002292 0.000000
# 3 -0.002928 -0.001139 0.006629 0.000000 -0.002556 0.000000
# 4 0.000000 0.000000 0.000000 0.021775 0.000000 -0.014384
# 5 0.003552 -0.002292 -0.002556 0.000000 0.019802 0.000000
# 6 0.000000 0.000000 0.000000 -0.014384 0.000000 0.057609
#
#
# Mechanical properties :
#
#
# Convention : Reuss Voigt Hill
#
# Bulk Modulus (GPa) = 83.67468 87.25713 85.46591
# Shear Modulus (GPa) = 36.17627 49.08568 42.63097
#
# Velocity S-wave (km/s) = 3.58276 4.17333 3.88927
# Velocity P-wave (km/s) = 6.84138 7.36091 7.10590
#
# Compressibility (1/GPa) = 0.01195105
#
# Stress axis : x y z
#
# Youngs Moduli (GPa) = 108.81612 130.23774 150.85518
#
# Poissons Ratio (x) = 0.22224 0.44163
# Poissons Ratio (y) = 0.18569 0.17182
# Poissons Ratio (z) = 0.31856 0.14834
#
# Static dielectric constant tensor:
#      x y z
#    x 2.466260 0.000000 -0.002870 
#    y 0.000000 2.175360 0.000000 
#    z -0.002870 0.000000 2.240780 
# 
# From -- ./inp_files/248614.got.cif
#   From: 2010.05.17/outbox.cif.g08.bks.cpg/sg15_125_cif.got.tgz:248614.got - 2010.06.03 18:47:42.
