data_PCOD9275606
_publ_section_title
;
Structure prediction by ZEFSAII (Michael W. Deem and Ramdas Pophale) SiO2 
 PCOD9275606
Probable space group: C 2/C
;
_chemical_formula_sum "Si O2"
_cell_formula_units_Z 48
_cell_length_a 17.933789
_cell_length_b 9.016648
_cell_length_c 16.015314
_cell_angle_alpha 90.000000
_cell_angle_beta 83.661704
_cell_angle_gamma 90.000000
_cell_volume 2573.888971
_symmetry_space_group_name_H-M "C 2/C"
_symmetry_group_IT_number 15
_symmetry_cell_setting 'monoclinic'
loop_
_space_group_symop_operation_xyz
x,y,z
-x,y,1/2-z
-x,-y,-z
x,-y,1/2+z
1/2+x,1/2+y,z
1/2-x,1/2+y,1/2-z
1/2-x,1/2-y,-z
1/2+x,1/2-y,1/2+z
loop_
_atom_site_type_symbol
_atom_site_label
_atom_site_fract_x
_atom_site_fract_y
_atom_site_fract_z
Si Si1 0.072662 0.618622 0.138329
Si Si2 0.921038 0.921354 0.030796
Si Si3 0.320282 0.656092 0.960633
Si Si4 0.409105 0.811078 0.672905
Si Si5 0.262012 0.090622 0.106983
Si Si6 0.348492 0.171666 0.928415
O O1 0.113866 0.732040 0.071960
O O2 0.083819 0.688513 0.228632
O O3 0.110230 0.458676 0.124654
O O4 0.984252 0.606649 0.131873
O O5 0.913436 0.845409 0.122707
O O6 0.904228 0.787298 0.967669
O O7 0.855419 0.040567 0.022155
O O8 0.000000 0.000000 0.000000
O O9 0.288634 0.555910 0.888157
O O10 0.250000 0.750000 0.000000
O O11 0.332450 0.893806 0.658525
O O12 0.207281 0.231460 0.121186
O O13 0.298806 0.102525 0.009657
#
# Coordination Sequence:
#
# PCOD9275606 Si02
#       6
#     8   8   8   8   8   8
#     4  11  22  38  60  86 123 155 197 251 302 359
#     4  10  20  39  63  89 116 162 201 244 296 361
#     4  11  21  36  61  91 114 155 206 245 291 362
#     4  10  23  38  59  84 124 157 197 247 312 347
#     4   9  19  37  57  85 116 152 195 243 294 354
#     4   9  19  35  62  84 116 154 196 246 296 352
#
# _framework density 18.648821999999999
#
# number of rings (size 3 to 8) (size 9 to 14) (size 15 to 20)
#    0.000    2.000    3.333    1.000    0.000    5.333 
#    0.000    0.000   14.667    0.000    0.000    0.000 
#    0.000    0.000    0.000    0.000    0.000    0.000 
#
# Total GULP energy -133792.011075 kJ/mol
# GULP energy per Si atom -5574.667128 kJ/mol
# Density = 1.860638 g / cm^3
# Si number density = 18.648822 Si / 1000 Ang^3
#
#
#
# Elastic Constant Matrix: (Units=GPa)
#
#
# Indices 1 2 3 4 5 6 
#
# 1 93.6281 44.7144 15.0684 0.0000 15.2212 0.0000
# 2 44.7144 108.3978 31.4943 0.0000 0.2319 0.0000
# 3 15.0684 31.4943 42.4040 0.0000 4.6929 0.0000
# 4 0.0000 0.0000 0.0000 14.2342 0.0000 -5.4982
# 5 15.2212 0.2319 4.6929 0.0000 25.4436 0.0000
# 6 0.0000 0.0000 0.0000 -5.4982 0.0000 37.4142
#
#
#
# Elastic Compliance Matrix: (Units=1/GPa)
#
#
# Indices 1 2 3 4 5 6 
#
# 1 0.015111 -0.006305 0.000314 0.000000 -0.009040 0.000000
# 2 -0.006305 0.014454 -0.009083 0.000000 0.005315 0.000000
# 3 0.000314 -0.009083 0.030859 0.000000 -0.005797 0.000000
# 4 0.000000 0.000000 0.000000 0.074481 0.000000 0.010945
# 5 -0.009040 0.005315 -0.005797 0.000000 0.045731 0.000000
# 6 0.000000 0.000000 0.000000 0.010945 0.000000 0.028336
#
#
# Mechanical properties :
#
#
# Convention : Reuss Voigt Hill
#
# Bulk Modulus (GPa) = 33.03062 47.44268 40.23665
# Shear Modulus (GPa) = 20.06320 25.62858 22.84589
#
# Velocity S-wave (km/s) = 3.28356 3.71114 3.50388
# Velocity P-wave (km/s) = 5.66799 6.62259 6.16380
#
# Compressibility (1/GPa) = 0.03027494
#
# Stress axis : x y z
#
# Youngs Moduli (GPa) = 66.17740 69.18626 32.40579
#
# Poissons Ratio (x) = 0.43623 -0.01017
# Poissons Ratio (y) = 0.41726 0.29434
# Poissons Ratio (z) = -0.02076 0.62841
#
# Static dielectric constant tensor:
#      x y z
#    x 1.672130 0.000000 0.016670 
#    y 0.000000 1.655700 0.000000 
#    z 0.016670 0.000000 1.633320 
# 
# From -- ./inp_files/208615.got.cif
#   From: 2010.05.17/outbox.cif.g08.bks.cpg/sg15_105_cif.got.tgz:208615.got - 2010.06.03 18:47:42.
