data_PCOD9275217
_publ_section_title
;
Structure prediction by ZEFSAII (Michael W. Deem and Ramdas Pophale) SiO2 
 PCOD9275217
Probable space group: C 2/C
;
_chemical_formula_sum "Si O2"
_cell_formula_units_Z 64
_cell_length_a 18.363518
_cell_length_b 31.627551
_cell_length_c 9.189127
_cell_angle_alpha 90.000000
_cell_angle_beta 38.012258
_cell_angle_gamma 90.000000
_cell_volume 3286.673632
_symmetry_space_group_name_H-M "C 2/C"
_symmetry_group_IT_number 15
_symmetry_cell_setting 'monoclinic'
loop_
_space_group_symop_operation_xyz
x,y,z
-x,y,1/2-z
-x,-y,-z
x,-y,1/2+z
1/2+x,1/2+y,z
1/2-x,1/2+y,1/2-z
1/2-x,1/2-y,-z
1/2+x,1/2-y,1/2+z
loop_
_atom_site_type_symbol
_atom_site_label
_atom_site_fract_x
_atom_site_fract_y
_atom_site_fract_z
Si Si1 0.726907 0.186919 0.088241
Si Si2 0.085476 0.402510 0.301848
Si Si3 0.867330 0.259607 0.023183
Si Si4 0.149944 0.437728 0.883726
Si Si5 0.466792 0.193066 0.635473
Si Si6 0.630642 0.601469 0.606881
Si Si7 0.875236 0.978389 0.182726
Si Si8 0.727175 0.976931 0.152154
O O1 0.799362 0.216528 0.088342
O O2 0.594039 0.184664 0.360073
O O3 0.706922 0.207219 0.959440
O O4 0.800202 0.143982 0.961039
O O5 0.098703 0.352505 0.264219
O O6 0.169877 0.431063 0.266428
O O7 0.949426 0.412907 0.552777
O O8 0.116212 0.424505 0.099169
O O9 0.891139 0.274923 0.152009
O O10 0.000000 0.256441 0.750000
O O11 0.281763 0.421590 0.645273
O O12 0.142346 0.486439 0.849121
O O13 0.500000 0.205446 0.750000
O O14 0.500000 0.609540 0.750000
O O15 0.622207 0.567660 0.749472
O O16 0.843647 0.976944 0.065078
O O17 0.773461 0.006020 0.424155
O O18 0.000000 0.000000 0.000000
#
# Coordination Sequence:
#
# PCOD9275217 Si02
#       8
#     8   8   8   8   8   8   8   8
#     4  10  20  41  60  92 120 158 203 250 316 373
#     4  11  20  36  60  82 130 153 205 254 312 365
#     4   9  21  38  65  91 124 153 197 255 311 382
#     4  10  20  39  53  89 117 167 196 260 307 357
#     4  11  21  38  63  92 125 162 197 255 323 376
#     4  11  22  36  62  84 119 160 214 249 308 372
#     4  11  23  40  57  86 121 167 213 261 302 363
#     4  11  22  37  59  83 118 164 215 252 311 356
#
# _framework density 19.472577000000001
#
# number of rings (size 3 to 8) (size 9 to 14) (size 15 to 20)
#    0.000    1.500    3.750    2.625    1.750    0.500 
#    0.000    0.000    0.000    0.000    0.000    0.000 
#    0.000    0.000    0.000    0.000    0.000    0.000 
#
# Total GULP energy -178255.746932 kJ/mol
# GULP energy per Si atom -5570.492092 kJ/mol
# Density = 1.942826 g / cm^3
# Si number density = 19.472577 Si / 1000 Ang^3
#
#
#
# Elastic Constant Matrix: (Units=GPa)
#
#
# Indices 1 2 3 4 5 6 
#
# 1 91.4310 38.8987 10.9979 0.0000 -8.1624 0.0000
# 2 38.8987 107.2149 20.0373 0.0000 -2.1721 0.0000
# 3 10.9979 20.0373 46.3678 0.0000 -2.8397 0.0000
# 4 0.0000 0.0000 0.0000 2.1132 0.0000 -41.9561
# 5 -8.1624 -2.1721 -2.8397 0.0000 31.6960 0.0000
# 6 0.0000 0.0000 0.0000 -41.9561 0.0000 -31.5277
#
#
#
# Elastic Compliance Matrix: (Units=1/GPa)
#
#
# Indices 1 2 3 4 5 6 
#
# 1 0.013269 -0.004568 -0.000988 0.000000 0.003015 0.000000
# 2 -0.004568 0.011722 -0.004027 0.000000 -0.000734 0.000000
# 3 -0.000988 -0.004027 0.023639 0.000000 0.001587 0.000000
# 4 0.000000 0.000000 0.000000 0.017257 0.000000 -0.022965
# 5 0.003015 -0.000734 0.001587 0.000000 0.032418 0.000000
# 6 0.000000 0.000000 0.000000 -0.022965 0.000000 -0.001157
#
#
# Mechanical properties :
#
#
# Convention : Reuss Voigt Hill
#
# Bulk Modulus (GPa) = 33.94180 42.76462 38.35321
# Shear Modulus (GPa) = 39.63963 12.12828 25.88395
#
# Velocity S-wave (km/s) = 4.51673 2.49838 3.64985
# Velocity P-wave (km/s) = 6.68353 5.50742 6.12377
#
# Compressibility (1/GPa) = 0.02946220
#
# Stress axis : x y z
#
# Youngs Moduli (GPa) = 75.36457 85.30816 42.30376
#
# Poissons Ratio (x) = 0.38971 0.04181
# Poissons Ratio (y) = 0.34428 0.17036
# Poissons Ratio (z) = 0.07449 0.34354
#
# Static dielectric constant tensor:
#      x y z
#    x 1.737310 0.000000 -0.000640 
#    y 0.000000 1.717360 0.000000 
#    z -0.000640 0.000000 1.665620 
# 
# From -- ./inp_files/52811.got.cif
#   From: 2010.05.17/outbox.cif.g08.bks.cpg/sg15_27_cif.got.tgz:52811.got - 2010.06.03 18:47:42.
