data_PCOD9275943
_publ_section_title
;
Structure prediction by ZEFSAII (Michael W. Deem and Ramdas Pophale) SiO2 
 PCOD9275943
Probable space group: C 2/C
;
_chemical_formula_sum "Si O2"
_cell_formula_units_Z 52
_cell_length_a 9.495808
_cell_length_b 22.535172
_cell_length_c 17.553155
_cell_angle_alpha 90.000000
_cell_angle_beta 45.932065
_cell_angle_gamma 90.000000
_cell_volume 2698.884004
_symmetry_space_group_name_H-M "C 2/C"
_symmetry_group_IT_number 15
_symmetry_cell_setting 'monoclinic'
loop_
_space_group_symop_operation_xyz
x,y,z
-x,y,1/2-z
-x,-y,-z
x,-y,1/2+z
1/2+x,1/2+y,z
1/2-x,1/2+y,1/2-z
1/2-x,1/2-y,-z
1/2+x,1/2-y,1/2+z
loop_
_atom_site_type_symbol
_atom_site_label
_atom_site_fract_x
_atom_site_fract_y
_atom_site_fract_z
Si Si1 0.085481 0.828549 0.338034
Si Si2 0.752778 0.909359 0.016720
Si Si3 0.500000 0.852152 0.250000
Si Si4 0.500000 0.228200 0.250000
Si Si5 0.087063 0.473221 0.639602
Si Si6 0.000000 0.932398 0.250000
Si Si7 0.819081 0.532763 0.104474
Si Si8 0.156532 0.141405 0.423364
O O1 0.304314 0.822031 0.289567
O O2 0.027038 0.772002 0.310859
O O3 0.071502 0.888122 0.290366
O O4 0.931551 0.835909 0.463907
O O5 0.594320 0.882053 0.136485
O O6 0.732494 0.978709 0.047436
O O7 0.720961 0.912324 0.937068
O O8 0.962454 0.879436 0.951299
O O9 0.304069 0.188875 0.331651
O O10 0.211880 0.415954 0.611253
O O11 0.000000 0.499710 0.750000
O O12 0.900338 0.454455 0.658181
O O13 0.837456 0.979962 0.335527
O O14 0.000000 0.500000 0.000000
#
# Coordination Sequence:
#
# PCOD9275943 Si02
#       8
#     8   8   4   4   8   4   8   8
#     4  10  22  41  64  84 113 160 208 257 307 358
#     4  10  21  38  60  92 125 161 200 242 302 371
#     4  10  20  39  66  90 116 157 210 252 306 364
#     4  11  24  43  60  88 120 151 210 265 308 354
#     4  11  21  36  60  90 130 162 194 242 294 367
#     4  11  22  36  58  84 122 164 200 243 298 358
#     4  10  22  35  54  90 127 159 199 239 292 360
#     4  11  23  39  63  87 118 163 205 249 306 362
#
# _framework density 19.267223000000001
#
# number of rings (size 3 to 8) (size 9 to 14) (size 15 to 20)
#    0.000    1.538    1.538    4.615    4.308    1.231 
#    0.000    4.615    0.000    0.000    0.000    0.000 
#    0.000    0.000    0.000    0.000    0.000    0.000 
#
# Total GULP energy -144754.533537 kJ/mol
# GULP energy per Si atom -5567.482059 kJ/mol
# Density = 1.922337 g / cm^3
# Si number density = 19.267223 Si / 1000 Ang^3
#
#
#
# Elastic Constant Matrix: (Units=GPa)
#
#
# Indices 1 2 3 4 5 6 
#
# 1 85.2130 -35.8099 58.1042 0.0000 -19.0707 0.0000
# 2 -35.8099 -110.0913 44.7783 0.0000 -69.0296 0.0000
# 3 58.1042 44.7783 104.8541 0.0000 -9.1971 0.0000
# 4 0.0000 0.0000 0.0000 -2.8452 0.0000 8.2752
# 5 -19.0707 -69.0296 -9.1971 0.0000 17.6951 0.0000
# 6 0.0000 0.0000 0.0000 8.2752 0.0000 13.8294
#
#
#
# Elastic Compliance Matrix: (Units=1/GPa)
#
#
# Indices 1 2 3 4 5 6 
#
# 1 0.013170 -0.003966 -0.005989 0.000000 -0.004392 0.000000
# 2 -0.003966 -0.001436 0.002038 0.000000 -0.008817 0.000000
# 3 -0.005989 0.002038 0.012696 0.000000 0.008093 0.000000
# 4 0.000000 0.000000 0.000000 -0.128255 0.000000 0.076745
# 5 -0.004392 -0.008817 0.008093 0.000000 0.021590 0.000000
# 6 0.000000 0.000000 0.000000 0.076745 0.000000 0.026387
#
#
# Mechanical properties :
#
#
# Convention : Reuss Voigt Hill
#
# Bulk Modulus (GPa) = 116.36384 23.79121 70.07753
# Shear Modulus (GPa) = -134.59339 6.59607 -63.99866
#
# Velocity S-wave (km/s) = -8.36707 1.85227 -5.76961
# Velocity P-wave (km/s) = 5.72869 4.11696 2.81678
#
# Compressibility (1/GPa) = 0.00859373
#
# Stress axis : x y z
#
# Youngs Moduli (GPa) = 75.93213 -696.39832 78.76708
#
# Poissons Ratio (x) = -2.76202 0.47176
# Poissons Ratio (y) = 0.30116 -0.16050
# Poissons Ratio (z) = 0.45478 1.41903
#
# Static dielectric constant tensor:
#      x y z
#    x 1.768810 0.000000 0.107960 
#    y 0.000000 1.677170 0.000000 
#    z 0.107960 0.000000 1.744890 
# 
# From -- ./inp_files/192506.got.cif
#   From: 2010.05.17/outbox.cif.g08.bks.cpg/sg15_97_cif.got.tgz:192506.got - 2010.06.03 18:47:42.
