data_PCOD9275792
_publ_section_title
;
Structure prediction by ZEFSAII (Michael W. Deem and Ramdas Pophale) SiO2 
 PCOD9275792
Probable space group: C 2/C
;
_chemical_formula_sum "Si O2"
_cell_formula_units_Z 52
_cell_length_a 11.812236
_cell_length_b 28.312264
_cell_length_c 8.365929
_cell_angle_alpha 90.000000
_cell_angle_beta 59.553296
_cell_angle_gamma 90.000000
_cell_volume 2412.009339
_symmetry_space_group_name_H-M "C 2/C"
_symmetry_group_IT_number 15
_symmetry_cell_setting 'monoclinic'
loop_
_space_group_symop_operation_xyz
x,y,z
-x,y,1/2-z
-x,-y,-z
x,-y,1/2+z
1/2+x,1/2+y,z
1/2-x,1/2+y,1/2-z
1/2-x,1/2-y,-z
1/2+x,1/2-y,1/2+z
loop_
_atom_site_type_symbol
_atom_site_label
_atom_site_fract_x
_atom_site_fract_y
_atom_site_fract_z
Si Si1 0.983005 0.582010 0.443677
Si Si2 0.870702 0.481555 0.448296
Si Si3 0.354933 0.734361 0.790045
Si Si4 0.627354 0.783654 0.047515
Si Si5 0.286726 0.146024 0.777012
Si Si6 0.500000 0.506905 0.250000
Si Si7 0.640947 0.551555 0.886391
O O1 0.891334 0.534734 0.496068
O O2 0.910342 0.621860 0.598703
O O3 0.000000 0.598638 0.250000
O O4 0.114607 0.558546 0.425452
O O5 0.752282 0.473700 0.413080
O O6 0.000000 0.472149 0.250000
O O7 0.500000 0.720762 0.750000
O O8 0.387568 0.774163 0.630462
O O9 0.278979 0.690473 0.763183
O O10 0.250000 0.750000 0.000000
O O11 0.500000 0.771303 0.250000
O O12 0.668459 0.835277 0.081564
O O13 0.750000 0.750000 0.000000
O O14 0.178875 0.105472 0.855556
O O15 0.483273 0.541015 0.413093
O O16 0.388807 0.471607 0.262368
#
# Coordination Sequence:
#
# PCOD9275792 Si02
#       7
#     8   8   8   8   8   4   8
#     4  10  22  37  61 106 138 180 226 286 345 406
#     4  10  20  39  64  94 143 184 225 285 353 396
#     4  11  25  50  73 102 141 182 230 300 374 431
#     4  10  23  45  73 101 137 180 221 288 368 431
#     4  11  24  42  68 102 136 175 233 287 336 434
#     4  10  26  44  66  86 148 196 226 282 336 410
#     4  11  23  45  63  98 131 188 238 277 341 404
#
# _framework density 21.558789000000001
#
# number of rings (size 3 to 8) (size 9 to 14) (size 15 to 20)
#    0.000    1.538    1.538    2.769    7.538    1.846 
#    8.308    0.000    0.000    0.000    0.000    0.000 
#    0.000    0.000    0.000    0.000    0.000    0.000 
#
# Total GULP energy -144973.719329 kJ/mol
# GULP energy per Si atom -5575.912282 kJ/mol
# Density = 2.150972 g / cm^3
# Si number density = 21.558789 Si / 1000 Ang^3
#
#
#
# Elastic Constant Matrix: (Units=GPa)
#
#
# Indices 1 2 3 4 5 6 
#
# 1 112.8367 35.7614 12.6603 0.0000 11.5039 0.0000
# 2 35.7614 128.7665 58.0882 0.0000 13.0573 0.0000
# 3 12.6603 58.0882 113.6337 0.0000 12.4733 0.0000
# 4 0.0000 0.0000 0.0000 35.1220 0.0000 4.7785
# 5 11.5039 13.0573 12.4733 0.0000 34.4832 0.0000
# 6 0.0000 0.0000 0.0000 4.7785 0.0000 39.5719
#
#
#
# Elastic Compliance Matrix: (Units=1/GPa)
#
#
# Indices 1 2 3 4 5 6 
#
# 1 0.009927 -0.002768 0.000580 0.000000 -0.002474 0.000000
# 2 -0.002768 0.011005 -0.005166 0.000000 -0.001375 0.000000
# 3 0.000580 -0.005166 0.011645 0.000000 -0.002450 0.000000
# 4 0.000000 0.000000 0.000000 0.028948 0.000000 -0.003496
# 5 -0.002474 -0.001375 -0.002450 0.000000 0.031232 0.000000
# 6 0.000000 0.000000 0.000000 -0.003496 0.000000 0.025693
#
#
# Mechanical properties :
#
#
# Convention : Reuss Voigt Hill
#
# Bulk Modulus (GPa) = 55.96139 63.13963 59.55051
# Shear Modulus (GPa) = 35.94221 38.41721 37.17971
#
# Velocity S-wave (km/s) = 4.08753 4.22592 4.15730
# Velocity P-wave (km/s) = 6.94918 7.29123 7.12226
#
# Compressibility (1/GPa) = 0.01786946
#
# Stress axis : x y z
#
# Youngs Moduli (GPa) = 100.73893 90.87080 85.87143
#
# Poissons Ratio (x) = 0.25152 -0.04985
# Poissons Ratio (y) = 0.27883 0.44362
# Poissons Ratio (z) = -0.05848 0.46945
#
# Static dielectric constant tensor:
#      x y z
#    x 1.871370 0.000000 -0.023390 
#    y 0.000000 1.759400 0.000000 
#    z -0.023390 0.000000 1.956070 
# 
# From -- ./inp_files/34104.got.cif
#   From: 2010.05.17/outbox.cif.g08.bks.cpg/sg15_18_cif.got.tgz:34104.got - 2010.06.03 18:47:42.
