data_PCOD9275981
_publ_section_title
;
Structure prediction by ZEFSAII (Michael W. Deem and Ramdas Pophale) SiO2 
 PCOD9275981
Probable space group: C 2/C
;
_chemical_formula_sum "Si O2"
_cell_formula_units_Z 48
_cell_length_a 11.369039
_cell_length_b 24.741638
_cell_length_c 8.407845
_cell_angle_alpha 90.000000
_cell_angle_beta 69.966537
_cell_angle_gamma 90.000000
_cell_volume 2221.929703
_symmetry_space_group_name_H-M "C 2/C"
_symmetry_group_IT_number 15
_symmetry_cell_setting 'monoclinic'
loop_
_space_group_symop_operation_xyz
x,y,z
-x,y,1/2-z
-x,-y,-z
x,-y,1/2+z
1/2+x,1/2+y,z
1/2-x,1/2+y,1/2-z
1/2-x,1/2-y,-z
1/2+x,1/2-y,1/2+z
loop_
_atom_site_type_symbol
_atom_site_label
_atom_site_fract_x
_atom_site_fract_y
_atom_site_fract_z
Si Si1 0.265629 0.350139 0.686135
Si Si2 0.670322 0.043962 0.401243
Si Si3 0.000000 0.135636 0.250000
Si Si4 0.149684 0.125449 0.708057
Si Si5 0.388112 0.542613 0.520192
Si Si6 0.000000 0.528190 0.750000
Si Si7 0.349099 0.743043 0.802021
O O1 0.224881 0.404147 0.791824
O O2 0.396191 0.331516 0.704286
O O3 0.287186 0.368535 0.494124
O O4 0.172236 0.301424 0.763415
O O5 0.785479 0.018096 0.447668
O O6 0.596322 0.008768 0.306564
O O7 0.572824 0.060711 0.582808
O O8 0.946053 0.094475 0.405582
O O9 0.177469 0.072465 0.799602
O O10 0.180925 0.185065 0.765837
O O11 0.000000 0.121398 0.750000
O O12 0.500000 0.500000 0.500000
O O13 0.500000 0.739137 0.750000
O O14 0.250000 0.750000 0.000000
#
# Coordination Sequence:
#
# PCOD9275981 Si02
#       7
#     8   8   4   8   8   4   8
#     4  10  21  41  66  96 131 174 228 282 345 416
#     4  10  25  43  65  91 130 178 228 276 341 413
#     4  10  22  38  56  95 139 168 216 284 338 406
#     4  10  20  39  66  94 135 170 218 280 337 407
#     4  11  25  39  64 100 132 172 226 276 351 414
#     4  10  24  48  62  83 135 180 220 284 332 406
#     4   9  20  40  70  99 128 182 231 284 352 414
#
# _framework density 21.602841999999999
#
# number of rings (size 3 to 8) (size 9 to 14) (size 15 to 20)
#    0.000    2.000    1.667    0.000    7.000    2.667 
#    3.000    4.167    0.000    1.000    0.000    0.000 
#    0.000    0.000    0.000    0.000    0.000    0.000 
#
# Total GULP energy -133688.018656 kJ/mol
# GULP energy per Si atom -5570.334111 kJ/mol
# Density = 2.155367 g / cm^3
# Si number density = 21.602842 Si / 1000 Ang^3
#
#
#
# Elastic Constant Matrix: (Units=GPa)
#
#
# Indices 1 2 3 4 5 6 
#
# 1 113.0476 44.0774 23.6947 0.0000 13.6917 0.0000
# 2 44.0774 79.7887 51.9440 0.0000 9.9315 0.0000
# 3 23.6947 51.9440 98.8073 0.0000 0.7923 0.0000
# 4 0.0000 0.0000 0.0000 19.3944 0.0000 -13.9879
# 5 13.6917 9.9315 0.7923 0.0000 30.1149 0.0000
# 6 0.0000 0.0000 0.0000 -13.9879 0.0000 28.8130
#
#
#
# Elastic Compliance Matrix: (Units=1/GPa)
#
#
# Indices 1 2 3 4 5 6 
#
# 1 0.011603 -0.006415 0.000616 0.000000 -0.003176 0.000000
# 2 -0.006415 0.023759 -0.010915 0.000000 -0.004632 0.000000
# 3 0.000616 -0.010915 0.015688 0.000000 0.002907 0.000000
# 4 0.000000 0.000000 0.000000 0.079342 0.000000 0.038518
# 5 -0.003176 -0.004632 0.002907 0.000000 0.036101 0.000000
# 6 0.000000 0.000000 0.000000 0.038518 0.000000 0.053406
#
#
# Mechanical properties :
#
#
# Convention : Reuss Voigt Hill
#
# Bulk Modulus (GPa) = 56.75087 59.00840 57.87964
# Shear Modulus (GPa) = 19.28996 27.12628 23.20812
#
# Velocity S-wave (km/s) = 2.99145 3.54740 3.28122
# Velocity P-wave (km/s) = 6.18537 6.64479 6.41919
#
# Compressibility (1/GPa) = 0.01762087
#
# Stress axis : x y z
#
# Youngs Moduli (GPa) = 86.18698 42.08865 63.74325
#
# Poissons Ratio (x) = 0.27000 -0.03924
# Poissons Ratio (y) = 0.55289 0.69576
# Poissons Ratio (z) = -0.05305 0.45940
#
# Static dielectric constant tensor:
#      x y z
#    x 1.880950 0.000000 0.012910 
#    y 0.000000 1.791600 0.000000 
#    z 0.012910 0.000000 1.966170 
# 
# From -- ./inp_files/32579.got.cif
#   From: 2010.05.17/outbox.cif.g08.bks.cpg/sg15_17_cif.got.tgz:32579.got - 2010.06.03 18:47:42.
