data_PCOD9275804
_publ_section_title
;
Structure prediction by ZEFSAII (Michael W. Deem and Ramdas Pophale) SiO2 
 PCOD9275804
Probable space group: C 2/C
;
_chemical_formula_sum "Si O2"
_cell_formula_units_Z 48
_cell_length_a 27.260108
_cell_length_b 5.401472
_cell_length_c 15.204636
_cell_angle_alpha 90.000000
_cell_angle_beta 117.906719
_cell_angle_gamma 90.000000
_cell_volume 1978.453590
_symmetry_space_group_name_H-M "C 2/C"
_symmetry_group_IT_number 15
_symmetry_cell_setting 'monoclinic'
loop_
_space_group_symop_operation_xyz
x,y,z
-x,y,1/2-z
-x,-y,-z
x,-y,1/2+z
1/2+x,1/2+y,z
1/2-x,1/2+y,1/2-z
1/2-x,1/2-y,-z
1/2+x,1/2-y,1/2+z
loop_
_atom_site_type_symbol
_atom_site_label
_atom_site_fract_x
_atom_site_fract_y
_atom_site_fract_z
Si Si1 0.042530 0.321341 0.491628
Si Si2 0.346692 0.748968 0.965537
Si Si3 0.910845 0.175488 0.621894
Si Si4 0.297828 0.054363 0.068188
Si Si5 0.225010 0.405702 0.749390
Si Si6 0.025167 0.932364 0.154161
O O1 0.100636 0.427784 0.507951
O O2 0.000000 0.500000 0.500000
O O3 0.008453 0.184522 0.387510
O O4 0.052551 0.134110 0.583395
O O5 0.317520 0.749556 0.847177
O O6 0.378677 0.508401 0.027953
O O7 0.302306 0.831172 0.001440
O O8 0.861172 0.349527 0.612384
O O9 0.931187 0.051483 0.731210
O O10 0.972222 0.244005 0.635046
O O11 0.289639 0.011630 0.164548
O O12 0.250000 0.250000 0.000000
O O13 0.231822 0.672330 0.705337
#
# Coordination Sequence:
#
# PCOD9275804 Si02
#       6
#     8   8   8   8   8   8
#     4  10  20  39  64  96 136 175 234 292 362 435
#     4  11  25  43  68 103 135 189 237 299 367 439
#     4  10  22  40  66  95 140 181 233 294 369 437
#     4  12  25  45  69  99 139 188 241 302 362 436
#     4  12  28  49  74 105 142 190 246 305 365 435
#     4   9  20  39  62  99 134 180 227 297 364 439
#
# _framework density 24.261371
#
# number of rings (size 3 to 8) (size 9 to 14) (size 15 to 20)
#    0.000    1.333    1.667    3.000    2.333    4.000 
#    0.000    3.333    0.000    0.000    0.000    0.000 
#    0.000    0.000    0.000    0.000    0.000    0.000 
#
# Total GULP energy -133690.973968 kJ/mol
# GULP energy per Si atom -5570.457249 kJ/mol
# Density = 2.420615 g / cm^3
# Si number density = 24.261371 Si / 1000 Ang^3
#
#
#
# Elastic Constant Matrix: (Units=GPa)
#
#
# Indices 1 2 3 4 5 6 
#
# 1 139.6220 15.5391 28.3092 0.0000 -20.6858 0.0000
# 2 15.5391 40.7943 -2.9470 -0.0002 -7.6387 0.0001
# 3 28.3092 -2.9470 141.4989 0.0000 -11.8798 0.0000
# 4 0.0000 -0.0002 0.0000 16.9728 0.0000 1.1648
# 5 -20.6858 -7.6387 -11.8798 0.0000 38.9024 0.0000
# 6 0.0000 0.0001 0.0000 1.1648 0.0000 44.4072
#
#
#
# Elastic Compliance Matrix: (Units=1/GPa)
#
#
# Indices 1 2 3 4 5 6 
#
# 1 0.008249 -0.002599 -0.001415 0.000000 0.003443 0.000000
# 2 -0.002599 0.026400 0.001426 0.000000 0.004237 0.000000
# 3 -0.001415 0.001426 0.007534 0.000000 0.001828 0.000000
# 4 0.000000 0.000000 0.000000 0.059024 0.000000 -0.001548
# 5 0.003443 0.004237 0.001828 0.000000 0.028926 0.000000
# 6 0.000000 0.000000 0.000000 -0.001548 0.000000 0.022559
#
#
# Mechanical properties :
#
#
# Convention : Reuss Voigt Hill
#
# Bulk Modulus (GPa) = 27.02448 44.85754 35.94101
# Shear Modulus (GPa) = 29.37640 38.79075 34.08357
#
# Velocity S-wave (km/s) = 3.48347 4.00292 3.75220
# Velocity P-wave (km/s) = 5.22901 6.31617 5.79812
#
# Compressibility (1/GPa) = 0.03700349
#
# Stress axis : x y z
#
# Youngs Moduli (GPa) = 121.23223 37.87918 132.74034
#
# Poissons Ratio (x) = 0.09847 0.18787
# Poissons Ratio (y) = 0.31514 -0.18923
# Poissons Ratio (z) = 0.17158 -0.05400
#
# Static dielectric constant tensor:
#      x y z
#    x 2.082130 0.000000 0.015590 
#    y 0.000000 2.359800 0.000000 
#    z 0.015590 0.000000 1.984730 
# 
# From -- ./inp_files/180220.got.cif
#   From: 2010.05.17/outbox.cif.g08.bks.cpg/sg15_91_cif.got.tgz:180220.got - 2010.06.03 18:47:42.
