data_PCOD9275959
_publ_section_title
;
Structure prediction by ZEFSAII (Michael W. Deem and Ramdas Pophale) SiO2 
 PCOD9275959
Probable space group: C 2/C
;
_chemical_formula_sum "Si O2"
_cell_formula_units_Z 48
_cell_length_a 11.433667
_cell_length_b 13.844670
_cell_length_c 12.294823
_cell_angle_alpha 90.000000
_cell_angle_beta 74.891940
_cell_angle_gamma 90.000000
_cell_volume 1878.944303
_symmetry_space_group_name_H-M "C 2/C"
_symmetry_group_IT_number 15
_symmetry_cell_setting 'monoclinic'
loop_
_space_group_symop_operation_xyz
x,y,z
-x,y,1/2-z
-x,-y,-z
x,-y,1/2+z
1/2+x,1/2+y,z
1/2-x,1/2+y,1/2-z
1/2-x,1/2-y,-z
1/2+x,1/2-y,1/2+z
loop_
_atom_site_type_symbol
_atom_site_label
_atom_site_fract_x
_atom_site_fract_y
_atom_site_fract_z
Si Si1 0.345242 0.489812 0.663290
Si Si2 0.520227 0.361818 0.522794
Si Si3 0.801060 0.347601 0.212220
Si Si4 0.582062 0.842105 0.081556
Si Si5 0.906724 0.545040 0.372241
Si Si6 0.901146 0.240888 0.866708
O O1 0.451698 0.409958 0.642256
O O2 0.395803 0.561069 0.557479
O O3 0.290921 0.559796 0.770380
O O4 0.222667 0.442721 0.651910
O O5 0.592432 0.262366 0.523867
O O6 0.417794 0.334264 0.459233
O O7 0.833122 0.332134 0.331466
O O8 0.726608 0.269619 0.162162
O O9 0.937556 0.350701 0.136846
O O10 0.606779 0.954455 0.042370
O O11 0.935312 0.652702 0.403007
O O12 0.000000 0.521563 0.250000
O O13 0.000000 0.219476 0.750000
#
# Coordination Sequence:
#
# PCOD9275959 Si02
#       6
#     8   8   8   8   8   8
#     4  10  21  42  63  96 134 169 214 281 320 395
#     4  11  24  41  67 100 137 166 224 276 330 382
#     4  10  20  42  67  88 137 175 219 260 331 398
#     4  10  21  41  69  94 127 176 221 272 318 390
#     4  10  20  39  66  91 132 173 223 262 316 393
#     4  11  23  41  65  97 131 179 215 273 335 392
#
# _framework density 25.546258999999999
#
# number of rings (size 3 to 8) (size 9 to 14) (size 15 to 20)
#    0.000    1.667    5.000    1.000    0.000    6.000 
#    0.000   16.667    0.000    1.000    0.000    0.000 
#    0.000    0.000    0.000    0.000    0.000    0.000 
#
# Total GULP energy -133811.417084 kJ/mol
# GULP energy per Si atom -5575.475712 kJ/mol
# Density = 2.548812 g / cm^3
# Si number density = 25.546259 Si / 1000 Ang^3
#
#
#
# Elastic Constant Matrix: (Units=GPa)
#
#
# Indices 1 2 3 4 5 6 
#
# 1 106.7986 32.8980 31.5776 0.0000 -1.5700 0.0000
# 2 32.8980 131.1238 27.6830 0.0000 9.9996 0.0000
# 3 31.5776 27.6830 79.0080 0.0000 -13.3431 0.0000
# 4 0.0000 0.0000 0.0000 30.8041 0.0000 -2.4286
# 5 -1.5700 9.9996 -13.3431 0.0000 31.9215 0.0000
# 6 0.0000 0.0000 0.0000 -2.4286 0.0000 30.0916
#
#
#
# Elastic Compliance Matrix: (Units=1/GPa)
#
#
# Indices 1 2 3 4 5 6 
#
# 1 0.011086 -0.001939 -0.003827 0.000000 -0.000447 0.000000
# 2 -0.001939 0.009098 -0.003131 0.000000 -0.004254 0.000000
# 3 -0.003827 -0.003131 0.016588 0.000000 0.007727 0.000000
# 4 0.000000 0.000000 0.000000 0.032671 0.000000 0.002637
# 5 -0.000447 -0.004254 0.007727 0.000000 0.035867 0.000000
# 6 0.000000 0.000000 0.000000 0.002637 0.000000 0.033445
#
#
# Mechanical properties :
#
#
# Convention : Reuss Voigt Hill
#
# Bulk Modulus (GPa) = 52.69271 55.69417 54.19344
# Shear Modulus (GPa) = 30.69816 33.54823 32.12320
#
# Velocity S-wave (km/s) = 3.47027 3.62779 3.54990
# Velocity P-wave (km/s) = 6.06038 6.27666 6.16947
#
# Compressibility (1/GPa) = 0.01897796
#
# Stress axis : x y z
#
# Youngs Moduli (GPa) = 90.20641 109.90840 60.28306
#
# Poissons Ratio (x) = 0.21315 0.23068
# Poissons Ratio (y) = 0.17494 0.18877
# Poissons Ratio (z) = 0.34519 0.34416
#
# Static dielectric constant tensor:
#      x y z
#    x 1.971630 0.000000 0.047470 
#    y 0.000000 2.116170 0.000000 
#    z 0.047470 0.000000 2.150150 
# 
# From -- ./inp_files/269515.got.cif
#   From: 2010.05.17/outbox.cif.g08.bks.cpg/sg15_135_cif.got.tgz:269515.got - 2010.06.03 18:47:42.
