data_PCOD9275069
_publ_section_title
;
Structure prediction by ZEFSAII (Michael W. Deem and Ramdas Pophale) SiO2 
 PCOD9275069
Probable space group: C 2/C
;
_chemical_formula_sum "Si O2"
_cell_formula_units_Z 40
_cell_length_a 25.915162
_cell_length_b 9.624003
_cell_length_c 13.957904
_cell_angle_alpha 90.000000
_cell_angle_beta 31.044658
_cell_angle_gamma 90.000000
_cell_volume 1795.279557
_symmetry_space_group_name_H-M "C 2/C"
_symmetry_group_IT_number 15
_symmetry_cell_setting 'monoclinic'
loop_
_space_group_symop_operation_xyz
x,y,z
-x,y,1/2-z
-x,-y,-z
x,-y,1/2+z
1/2+x,1/2+y,z
1/2-x,1/2+y,1/2-z
1/2-x,1/2-y,-z
1/2+x,1/2-y,1/2+z
loop_
_atom_site_type_symbol
_atom_site_label
_atom_site_fract_x
_atom_site_fract_y
_atom_site_fract_z
Si Si1 0.000000 0.633935 0.250000
Si Si2 0.981988 0.228138 0.578023
Si Si3 0.340426 0.796219 0.653120
Si Si4 0.000000 0.822235 0.750000
Si Si5 0.284309 0.018883 0.599908
Si Si6 0.622464 0.568943 0.224375
O O1 0.988949 0.722899 0.363743
O O2 0.899957 0.546478 0.397617
O O3 0.902087 0.328320 0.652317
O O4 0.076854 0.193366 0.361196
O O5 0.927534 0.079051 0.670793
O O6 0.429766 0.756416 0.437536
O O7 0.270767 0.663345 0.786161
O O8 0.278045 0.916696 0.701335
O O9 0.916940 0.904164 0.819540
O O10 0.234268 0.951191 0.585179
#
# Coordination Sequence:
#
# PCOD9275069 Si02
#       6
#     4   8   8   4   8   8
#     4  12  24  38  62  92 129 166 205 260 313 358
#     4   9  20  38  61  90 125 164 209 257 307 368
#     4  10  23  42  63  92 126 164 208 256 310 371
#     4  10  20  38  68  92 121 162 207 260 313 364
#     4  11  24  40  62  93 129 166 208 253 309 371
#     4   9  19  38  63  92 124 164 210 252 306 377
#
# _framework density 22.280653000000001
#
# number of rings (size 3 to 8) (size 9 to 14) (size 15 to 20)
#    0.000    2.000    0.000    3.600    0.000    8.000 
#    0.000    0.000    0.000    0.000    0.000    0.000 
#    0.000    0.000    0.000    0.000    0.000    0.000 
#
# Total GULP energy -111598.710735 kJ/mol
# GULP energy per Si atom -5579.935537 kJ/mol
# Density = 2.222994 g / cm^3
# Si number density = 22.280653 Si / 1000 Ang^3
#
#
#
# Elastic Constant Matrix: (Units=GPa)
#
#
# Indices 1 2 3 4 5 6 
#
# 1 203.3605 39.6354 51.2147 0.0000 -20.3392 0.0000
# 2 39.6354 34.2957 16.7130 0.0000 -16.2118 0.0000
# 3 51.2147 16.7130 67.3785 0.0000 -15.5028 0.0000
# 4 0.0000 0.0000 0.0000 28.6719 0.0000 19.8820
# 5 -20.3392 -16.2118 -15.5028 0.0000 33.8370 0.0000
# 6 0.0000 0.0000 0.0000 19.8820 0.0000 45.9578
#
#
#
# Elastic Compliance Matrix: (Units=1/GPa)
#
#
# Indices 1 2 3 4 5 6 
#
# 1 0.007136 -0.006664 -0.003934 0.000000 -0.000705 0.000000
# 2 -0.006664 0.046067 -0.002465 0.000000 0.016936 0.000000
# 3 -0.003934 -0.002465 0.019704 0.000000 0.005482 0.000000
# 4 0.000000 0.000000 0.000000 0.049824 0.000000 -0.021554
# 5 -0.000705 0.016936 0.005482 0.000000 0.039756 0.000000
# 6 0.000000 0.000000 0.000000 -0.021554 0.000000 0.031084
#
#
# Mechanical properties :
#
#
# Convention : Reuss Voigt Hill
#
# Bulk Modulus (GPa) = 21.37533 57.79567 39.58550
# Shear Modulus (GPa) = 21.25046 34.85813 28.05430
#
# Velocity S-wave (km/s) = 3.09166 3.95967 3.55228
# Velocity P-wave (km/s) = 4.72852 6.84847 5.88474
#
# Compressibility (1/GPa) = 0.04678290
#
# Stress axis : x y z
#
# Youngs Moduli (GPa) = 140.12863 21.70772 50.75030
#
# Poissons Ratio (x) = 0.14466 0.19964
# Poissons Ratio (y) = 0.93380 0.12508
# Poissons Ratio (z) = 0.55122 0.05350
#
# Static dielectric constant tensor:
#      x y z
#    x 1.867880 0.000000 0.010210 
#    y 0.000000 1.842180 0.000000 
#    z 0.010210 0.000000 1.834630 
# 
# From -- ./inp_files/94929.got.cif
#   From: 2010.05.17/outbox.cif.g08.bks.cpg/sg15_48_cif.got.tgz:94929.got - 2010.06.03 18:47:42.
