data_PCOD9275022
_publ_section_title
;
Structure prediction by ZEFSAII (Michael W. Deem and Ramdas Pophale) SiO2 
 PCOD9275022
Probable space group: C 2/C
;
_chemical_formula_sum "Si O2"
_cell_formula_units_Z 64
_cell_length_a 23.482661
_cell_length_b 16.816942
_cell_length_c 14.940382
_cell_angle_alpha 90.000000
_cell_angle_beta 32.549129
_cell_angle_gamma 90.000000
_cell_volume 3174.362687
_symmetry_space_group_name_H-M "C 2/C"
_symmetry_group_IT_number 15
_symmetry_cell_setting 'monoclinic'
loop_
_space_group_symop_operation_xyz
x,y,z
-x,y,1/2-z
-x,-y,-z
x,-y,1/2+z
1/2+x,1/2+y,z
1/2-x,1/2+y,1/2-z
1/2-x,1/2-y,-z
1/2+x,1/2-y,1/2+z
loop_
_atom_site_type_symbol
_atom_site_label
_atom_site_fract_x
_atom_site_fract_y
_atom_site_fract_z
Si Si1 0.915764 0.706551 0.608197
Si Si2 0.896621 0.885399 0.706035
Si Si3 0.732380 0.222732 0.869893
Si Si4 0.360600 0.878795 0.715290
Si Si5 0.376186 0.084943 0.390728
Si Si6 0.233232 0.830632 0.465984
Si Si7 0.764322 0.482752 0.693217
Si Si8 0.870555 0.877431 0.067259
O O1 0.918536 0.794073 0.648287
O O2 0.848545 0.717150 0.606401
O O3 0.845490 0.654360 0.770206
O O4 0.027279 0.666452 0.440846
O O5 0.833971 0.930826 0.712246
O O6 0.013330 0.913485 0.577519
O O7 0.818816 0.889347 0.894285
O O8 0.768649 0.311715 0.841691
O O9 0.836695 0.175690 0.697070
O O10 0.677308 0.171184 0.019637
O O11 0.360955 0.930086 0.805682
O O12 0.340505 0.930005 0.653131
O O13 0.500000 0.088448 0.250000
O O14 0.321836 0.024278 0.532587
O O15 0.250000 0.750000 0.500000
O O16 0.149496 0.825187 0.494992
O O17 0.714013 0.551771 0.820359
#
# Coordination Sequence:
#
# PCOD9275022 Si02
#       8
#     8   8   8   8   8   8   8   8
#     4  10  20  38  67  99 124 165 217 274 329 382
#     4  11  20  40  65  91 134 169 217 273 329 395
#     4  10  20  42  66  97 126 163 228 275 318 393
#     4  12  23  43  73  94 133 180 218 280 334 383
#     4  11  25  44  65  96 133 179 225 268 330 395
#     4   9  21  36  62  96 125 164 222 273 315 390
#     4  11  27  40  63  99 136 173 220 271 328 407
#     4  10  21  40  63  92 133 178 210 271 341 386
#
# _framework density 20.161527
#
# number of rings (size 3 to 8) (size 9 to 14) (size 15 to 20)
#    0.000    1.500    3.750    1.125    1.750    1.500 
#    0.000    0.000    0.000    0.000    0.000    0.000 
#    0.000    0.000    0.000    0.000    0.000    0.000 
#
# Total GULP energy -178534.975024 kJ/mol
# GULP energy per Si atom -5579.217969 kJ/mol
# Density = 2.011564 g / cm^3
# Si number density = 20.161527 Si / 1000 Ang^3
#
#
#
# Elastic Constant Matrix: (Units=GPa)
#
#
# Indices 1 2 3 4 5 6 
#
# 1 110.3559 35.4176 58.8589 0.0000 -5.5951 0.0000
# 2 35.4176 64.6890 39.3768 0.0000 -4.9719 0.0000
# 3 58.8589 39.3768 87.8895 0.0000 -12.6138 0.0000
# 4 0.0000 0.0000 0.0000 16.0184 0.0000 2.3052
# 5 -5.5951 -4.9719 -12.6138 0.0000 28.3825 0.0000
# 6 0.0000 0.0000 0.0000 2.3052 0.0000 29.6113
#
#
#
# Elastic Compliance Matrix: (Units=1/GPa)
#
#
# Indices 1 2 3 4 5 6 
#
# 1 0.014510 -0.002769 -0.008690 0.000000 -0.001487 0.000000
# 2 -0.002769 0.021791 -0.007946 0.000000 -0.000260 0.000000
# 3 -0.008690 -0.007946 0.021696 0.000000 0.006537 0.000000
# 4 0.000000 0.000000 0.000000 0.063136 0.000000 -0.004915
# 5 -0.001487 -0.000260 0.006537 0.000000 0.037800 0.000000
# 6 0.000000 0.000000 0.000000 -0.004915 0.000000 0.034154
#
#
# Mechanical properties :
#
#
# Convention : Reuss Voigt Hill
#
# Bulk Modulus (GPa) = 52.11829 58.91567 55.51698
# Shear Modulus (GPa) = 20.98277 23.42119 22.20198
#
# Velocity S-wave (km/s) = 3.22954 3.41204 3.32204
# Velocity P-wave (km/s) = 6.30976 6.69387 6.50465
#
# Compressibility (1/GPa) = 0.01918712
#
# Stress axis : x y z
#
# Youngs Moduli (GPa) = 68.91987 45.88961 46.09200
#
# Poissons Ratio (x) = 0.12706 0.40053
# Poissons Ratio (y) = 0.19082 0.36626
# Poissons Ratio (z) = 0.59890 0.36465
#
# Static dielectric constant tensor:
#      x y z
#    x 1.750740 0.000000 0.002650 
#    y 0.000000 1.730190 0.000000 
#    z 0.002650 0.000000 1.722850 
# 
# From -- ./inp_files/174212.got.cif
#   From: 2010.05.17/outbox.cif.g08.bks.cpg/sg15_88_cif.got.tgz:174212.got - 2010.06.03 18:47:42.
