data_PCOD9275920
_publ_section_title
;
Structure prediction by ZEFSAII (Michael W. Deem and Ramdas Pophale) SiO2 
 PCOD9275920
Probable space group: C 2/C
;
_chemical_formula_sum "Si O2"
_cell_formula_units_Z 44
_cell_length_a 17.729156
_cell_length_b 11.819506
_cell_length_c 25.870620
_cell_angle_alpha 90.000000
_cell_angle_beta 160.496009
_cell_angle_gamma 90.000000
_cell_volume 1809.984675
_symmetry_space_group_name_H-M "C 2/C"
_symmetry_group_IT_number 15
_symmetry_cell_setting 'monoclinic'
loop_
_space_group_symop_operation_xyz
x,y,z
-x,y,1/2-z
-x,-y,-z
x,-y,1/2+z
1/2+x,1/2+y,z
1/2-x,1/2+y,1/2-z
1/2-x,1/2-y,-z
1/2+x,1/2-y,1/2+z
loop_
_atom_site_type_symbol
_atom_site_label
_atom_site_fract_x
_atom_site_fract_y
_atom_site_fract_z
Si Si1 0.275773 0.004167 0.392616
Si Si2 0.500000 0.916106 0.750000
Si Si3 0.149980 0.257120 0.059117
Si Si4 0.401999 0.577737 0.391041
Si Si5 0.977691 0.554844 0.628761
Si Si6 0.377750 0.691967 0.278959
O O1 0.300589 0.029782 0.469498
O O2 0.143499 0.108279 0.282504
O O3 0.500000 0.000000 0.500000
O O4 0.210505 0.872673 0.347904
O O5 0.719554 0.834852 0.891049
O O6 0.480667 0.990015 0.685453
O O7 0.149896 0.195974 0.114518
O O8 0.886355 0.280936 0.875010
O O9 0.500000 0.500000 0.500000
O O10 0.195553 0.500100 0.240782
O O11 0.512803 0.621200 0.410070
O O12 0.011785 0.687357 0.659529
#
# Coordination Sequence:
#
# PCOD9275920 Si02
#       6
#     8   4   8   8   8   8
#     4  10  20  39  65  98 125 160 216 278 329 378
#     4  10  26  42  60  90 140 178 214 264 336 408
#     4  10  21  39  61  94 129 171 217 267 327 391
#     4  11  21  34  63 100 124 164 209 275 328 377
#     4  11  22  41  62  92 133 169 215 271 330 397
#     4  11  21  38  70  96 130 163 226 279 327 379
#
# _framework density 24.309597
#
# number of rings (size 3 to 8) (size 9 to 14) (size 15 to 20)
#    0.000    1.455    5.455    2.182    0.000    0.727 
#    0.000    1.818    0.000    0.000    0.000    0.000 
#    0.000    0.000    0.000    0.000    0.000    0.000 
#
# Total GULP energy -122732.275270 kJ/mol
# GULP energy per Si atom -5578.739785 kJ/mol
# Density = 2.425427 g / cm^3
# Si number density = 24.309597 Si / 1000 Ang^3
#
#
#
# Elastic Constant Matrix: (Units=GPa)
#
#
# Indices 1 2 3 4 5 6 
#
# 1 81.4917 57.1451 38.2240 0.0037 -19.0221 0.0096
# 2 57.1451 230.4363 55.6844 -0.0272 -42.1050 -0.0048
# 3 38.2240 55.6844 59.8408 -0.0712 -21.9698 -0.0138
# 4 0.0037 -0.0272 -0.0712 34.5722 0.0091 -2.0719
# 5 -19.0221 -42.1050 -21.9698 0.0091 57.9025 -0.0014
# 6 0.0096 -0.0048 -0.0138 -2.0719 -0.0014 35.5024
#
#
#
# Elastic Compliance Matrix: (Units=1/GPa)
#
#
# Indices 1 2 3 4 5 6 
#
# 1 0.018399 -0.002110 -0.009450 -0.000024 0.000924 -0.000010
# 2 -0.002110 0.006152 -0.003473 -0.000003 0.002463 0.000000
# 3 -0.009450 -0.003473 0.027782 0.000055 0.004912 0.000016
# 4 -0.000024 -0.000003 0.000055 0.029027 0.000007 0.001694
# 5 0.000924 0.002463 0.004912 0.000007 0.021229 0.000003
# 6 -0.000010 0.000000 0.000016 0.001694 0.000003 0.028266
#
#
# Mechanical properties :
#
#
# Convention : Reuss Voigt Hill
#
# Bulk Modulus (GPa) = 44.90755 74.87509 59.89132
# Shear Modulus (GPa) = 29.70150 40.30976 35.00563
#
# Velocity S-wave (km/s) = 3.49922 4.07650 3.79884
# Velocity P-wave (km/s) = 5.90249 7.28180 6.62812
#
# Compressibility (1/GPa) = 0.02226797
#
# Stress axis : x y z
#
# Youngs Moduli (GPa) = 54.35017 162.54720 35.99498
#
# Poissons Ratio (x) = 0.34304 0.34014
# Poissons Ratio (y) = 0.11470 0.12500
# Poissons Ratio (z) = 0.51358 0.56446
#
# Static dielectric constant tensor:
#      x y z
#    x 1.991000 -0.000010 0.098840 
#    y -0.000010 1.888400 -0.000030 
#    z 0.098840 -0.000030 2.098920 
# 
# From -- ./inp_files/300879.got.cif
#   From: 2010.05.17/outbox.cif.g08.bks.cpg/sg15_151_cif.got.tgz:300879.got - 2010.06.03 18:47:42.
