data_PCOD9275149
_publ_section_title
;
Structure prediction by ZEFSAII (Michael W. Deem and Ramdas Pophale) SiO2 
 PCOD9275149
Probable space group: C 2/C
;
_chemical_formula_sum "Si O2"
_cell_formula_units_Z 56
_cell_length_a 14.169275
_cell_length_b 14.049211
_cell_length_c 22.074698
_cell_angle_alpha 90.000000
_cell_angle_beta 32.071398
_cell_angle_gamma 90.000000
_cell_volume 2333.291101
_symmetry_space_group_name_H-M "C 2/C"
_symmetry_group_IT_number 15
_symmetry_cell_setting 'monoclinic'
loop_
_space_group_symop_operation_xyz
x,y,z
-x,y,1/2-z
-x,-y,-z
x,-y,1/2+z
1/2+x,1/2+y,z
1/2-x,1/2+y,1/2-z
1/2-x,1/2-y,-z
1/2+x,1/2-y,1/2+z
loop_
_atom_site_type_symbol
_atom_site_label
_atom_site_fract_x
_atom_site_fract_y
_atom_site_fract_z
Si Si1 0.299371 0.954205 0.372101
Si Si2 0.350680 0.347721 0.933563
Si Si3 0.010368 0.719719 0.422076
Si Si4 0.801267 0.884760 0.714012
Si Si5 0.057160 0.593017 0.508839
Si Si6 0.278050 0.593400 0.721633
Si Si7 0.701924 0.172086 0.134999
O O1 0.500000 0.919928 0.250000
O O2 0.187309 0.903813 0.483881
O O3 0.218466 0.935422 0.350778
O O4 0.307534 0.065055 0.385428
O O5 0.561661 0.328101 0.817829
O O6 0.250000 0.250000 0.000000
O O7 0.251237 0.405297 0.934434
O O8 0.055353 0.684465 0.465566
O O9 0.809425 0.752958 0.536838
O O10 0.091667 0.631409 0.341152
O O11 0.111870 0.809793 0.337543
O O12 0.804908 0.848107 0.642740
O O13 0.848595 0.992576 0.707767
O O14 0.910668 0.605508 0.641943
O O15 0.000000 0.500000 0.500000
O O16 0.500000 0.205761 0.250000
#
# Coordination Sequence:
#
# PCOD9275149 Si02
#       7
#     8   8   8   8   8   8   8
#     4  10  20  38  70 101 136 190 242 305 365 441
#     4  12  24  43  71 109 148 195 258 309 384 465
#     4  12  24  44  72 100 145 196 243 306 380 451
#     4  11  25  44  67 106 143 192 247 307 372 449
#     4  12  26  47  69 106 156 197 245 318 379 451
#     4  11  22  45  70 100 147 192 245 306 372 454
#     4  10  23  43  70 104 138 185 259 309 366 451
#
# _framework density 24.000435
#
# number of rings (size 3 to 8) (size 9 to 14) (size 15 to 20)
#    0.000    0.857    2.857    5.143    0.000    3.429 
#    0.000    2.857    0.000    0.000    0.000    0.000 
#    0.000    0.000    0.000    0.000    0.000    0.000 
#
# Total GULP energy -156205.936709 kJ/mol
# GULP energy per Si atom -5578.783454 kJ/mol
# Density = 2.394581 g / cm^3
# Si number density = 24.000435 Si / 1000 Ang^3
#
#
#
# Elastic Constant Matrix: (Units=GPa)
#
#
# Indices 1 2 3 4 5 6 
#
# 1 86.5656 13.9624 26.0083 0.0004 -6.5282 0.0000
# 2 13.9624 81.6910 39.2850 0.0001 -5.1753 0.0003
# 3 26.0083 39.2850 118.1172 0.0025 -6.8891 0.0010
# 4 0.0004 0.0001 0.0025 40.0686 -0.0005 1.7283
# 5 -6.5282 -5.1753 -6.8891 -0.0005 36.8774 -0.0001
# 6 0.0000 0.0003 0.0010 1.7283 -0.0001 26.1884
#
#
#
# Elastic Compliance Matrix: (Units=1/GPa)
#
#
# Indices 1 2 3 4 5 6 
#
# 1 0.012532 -0.000901 -0.002364 0.000000 0.001650 0.000000
# 2 -0.000901 0.014685 -0.004625 0.000000 0.001037 0.000000
# 3 -0.002364 -0.004625 0.010578 -0.000001 0.000909 0.000000
# 4 0.000000 0.000000 -0.000001 0.025028 0.000000 -0.001652
# 5 0.001650 0.001037 0.000909 0.000000 0.027724 0.000000
# 6 0.000000 0.000000 0.000000 -0.001652 0.000000 0.038294
#
#
# Mechanical properties :
#
#
# Convention : Reuss Voigt Hill
#
# Bulk Modulus (GPa) = 45.42210 49.43168 47.42689
# Shear Modulus (GPa) = 32.90349 34.43476 33.66912
#
# Velocity S-wave (km/s) = 3.70666 3.79193 3.74953
# Velocity P-wave (km/s) = 6.10620 6.30971 6.20879
#
# Compressibility (1/GPa) = 0.02201572
#
# Stress axis : x y z
#
# Youngs Moduli (GPa) = 79.79703 68.09547 94.53613
#
# Poissons Ratio (x) = 0.06133 0.22344
# Poissons Ratio (y) = 0.07187 0.43727
# Poissons Ratio (z) = 0.18860 0.31497
#
# Static dielectric constant tensor:
#      x y z
#    x 2.003190 0.000000 0.031000 
#    y 0.000000 2.085800 -0.000010 
#    z 0.031000 -0.000010 2.275050 
# 
# From -- ./inp_files/274442.got.cif
#   From: 2010.05.17/outbox.cif.g08.bks.cpg/sg15_138_cif.got.tgz:274442.got - 2010.06.03 18:47:42.
