data_PCOD9275482
_publ_section_title
;
Structure prediction by ZEFSAII (Michael W. Deem and Ramdas Pophale) SiO2 
 PCOD9275482
Probable space group: C 2/C
;
_chemical_formula_sum "Si O2"
_cell_formula_units_Z 44
_cell_length_a 28.278531
_cell_length_b 14.870949
_cell_length_c 14.809013
_cell_angle_alpha 90.000000
_cell_angle_beta 158.159299
_cell_angle_gamma 90.000000
_cell_volume 2316.842238
_symmetry_space_group_name_H-M "C 2/C"
_symmetry_group_IT_number 15
_symmetry_cell_setting 'monoclinic'
loop_
_space_group_symop_operation_xyz
x,y,z
-x,y,1/2-z
-x,-y,-z
x,-y,1/2+z
1/2+x,1/2+y,z
1/2-x,1/2+y,1/2-z
1/2-x,1/2-y,-z
1/2+x,1/2-y,1/2+z
loop_
_atom_site_type_symbol
_atom_site_label
_atom_site_fract_x
_atom_site_fract_y
_atom_site_fract_z
Si Si1 0.865400 0.212396 0.825988
Si Si2 0.369596 0.945596 0.264712
Si Si3 0.701155 0.617003 0.973113
Si Si4 0.500000 0.318322 0.250000
Si Si5 0.700236 0.195642 0.700898
Si Si6 0.362820 0.218440 0.634082
O O1 0.806994 0.308880 0.690856
O O2 0.861215 0.151468 0.729887
O O3 0.770626 0.169636 0.732571
O O4 0.006528 0.229617 0.113527
O O5 0.342465 0.881440 0.304015
O O6 0.378736 0.884267 0.191576
O O7 0.500000 0.000000 0.500000
O O8 0.259898 0.019451 0.065796
O O9 0.597596 0.621949 0.867750
O O10 0.577964 0.253946 0.456192
O O11 0.805922 0.258920 0.936141
O O12 0.250000 0.250000 0.500000
#
# Coordination Sequence:
#
# PCOD9275482 Si02
#       6
#     8   8   8   4   8   8
#     4  10  20  40  65  87 126 169 206 240 325 374
#     4  11  22  40  64  96 126 152 215 266 304 359
#     4  10  21  39  64  93 121 162 204 263 301 377
#     4  10  22  44  66  82 124 174 212 240 322 388
#     4  10  23  40  63  91 124 169 206 255 309 383
#     4  10  20  39  62  87 123 165 203 249 309 373
#
# _framework density 18.991367
#
# number of rings (size 3 to 8) (size 9 to 14) (size 15 to 20)
#    0.000    1.818    1.818    2.727    5.091    0.000 
#   13.091    4.545    0.000    0.000    0.000    0.000 
#    0.000    0.000    0.000    0.000    0.000    0.000 
#
# Total GULP energy -122741.900707 kJ/mol
# GULP energy per Si atom -5579.177305 kJ/mol
# Density = 1.894814 g / cm^3
# Si number density = 18.991367 Si / 1000 Ang^3
#
#
#
# Elastic Constant Matrix: (Units=GPa)
#
#
# Indices 1 2 3 4 5 6 
#
# 1 65.8177 32.4542 11.2431 0.0000 -1.8769 0.0000
# 2 32.4542 92.1461 41.9696 0.0000 -0.9264 0.0000
# 3 11.2431 41.9696 125.2104 0.0000 -3.0548 0.0000
# 4 0.0000 0.0000 0.0000 26.2309 0.0000 4.1774
# 5 -1.8769 -0.9264 -3.0548 0.0000 34.2486 0.0000
# 6 0.0000 0.0000 0.0000 4.1774 0.0000 21.6553
#
#
#
# Elastic Compliance Matrix: (Units=1/GPa)
#
#
# Indices 1 2 3 4 5 6 
#
# 1 0.018453 -0.006781 0.000637 0.000000 0.000885 0.000000
# 2 -0.006781 0.015299 -0.004528 0.000000 -0.000362 0.000000
# 3 0.000637 -0.004528 0.009466 0.000000 0.000757 0.000000
# 4 0.000000 0.000000 0.000000 0.039331 0.000000 -0.007587
# 5 0.000885 -0.000362 0.000757 0.000000 0.029304 0.000000
# 6 0.000000 0.000000 0.000000 -0.007587 0.000000 0.047642
#
#
# Mechanical properties :
#
#
# Convention : Reuss Voigt Hill
#
# Bulk Modulus (GPa) = 45.71366 50.50088 48.10727
# Shear Modulus (GPa) = 26.57730 29.59412 28.08571
#
# Velocity S-wave (km/s) = 3.74497 3.95180 3.84978
# Velocity P-wave (km/s) = 6.54391 6.88996 6.71916
#
# Compressibility (1/GPa) = 0.02187530
#
# Stress axis : x y z
#
# Youngs Moduli (GPa) = 54.19056 65.36215 105.64582
#
# Poissons Ratio (x) = 0.44321 -0.06735
# Poissons Ratio (y) = 0.36746 0.47838
# Poissons Ratio (z) = -0.03454 0.29597
#
# Static dielectric constant tensor:
#      x y z
#    x 1.700540 0.000000 -0.012300 
#    y 0.000000 1.649470 0.000000 
#    z -0.012300 0.000000 1.676300 
# 
# From -- ./inp_files/182242.got.cif
#   From: 2010.05.17/outbox.cif.g08.bks.cpg/sg15_92_cif.got.tgz:182242.got - 2010.06.03 18:47:42.
