data_PCOD9275834
_publ_section_title
;
Structure prediction by ZEFSAII (Michael W. Deem and Ramdas Pophale) SiO2 
 PCOD9275834
Probable space group: C 2/C
;
_chemical_formula_sum "Si O2"
_cell_formula_units_Z 48
_cell_length_a 5.420716
_cell_length_b 33.293357
_cell_length_c 12.971841
_cell_angle_alpha 90.000000
_cell_angle_beta 97.159990
_cell_angle_gamma 90.000000
_cell_volume 2322.822095
_symmetry_space_group_name_H-M "C 2/C"
_symmetry_group_IT_number 15
_symmetry_cell_setting 'monoclinic'
loop_
_space_group_symop_operation_xyz
x,y,z
-x,y,1/2-z
-x,-y,-z
x,-y,1/2+z
1/2+x,1/2+y,z
1/2-x,1/2+y,1/2-z
1/2-x,1/2-y,-z
1/2+x,1/2-y,1/2+z
loop_
_atom_site_type_symbol
_atom_site_label
_atom_site_fract_x
_atom_site_fract_y
_atom_site_fract_z
Si Si1 0.135438 0.064783 0.555064
Si Si2 0.478248 0.798740 0.480421
Si Si3 0.016621 0.152309 0.482495
Si Si4 0.500000 0.675624 0.250000
Si Si5 0.500000 0.035327 0.750000
Si Si6 0.312979 0.245258 0.170545
Si Si7 0.239918 0.504923 0.086841
O O1 0.042164 0.109717 0.540096
O O2 0.352263 0.060133 0.653652
O O3 0.194408 0.050014 0.441465
O O4 0.935252 0.030376 0.572014
O O5 0.738126 0.821109 0.482385
O O6 0.462540 0.769022 0.577337
O O7 0.416331 0.771332 0.379436
O O8 0.240414 0.827541 0.492100
O O9 0.025503 0.150651 0.357132
O O10 0.720237 0.706551 0.229651
O O11 0.319944 0.004979 0.799798
O O12 0.500000 0.270079 0.250000
O O13 0.000000 0.500000 0.000000
#
# Coordination Sequence:
#
# PCOD9275834 Si02
#       7
#     8   8   8   4   4   8   8
#     4  10  22  41  66  92 140 166 218 270 330 393
#     4  10  24  39  64  91 126 169 216 267 334 392
#     4  11  24  43  61  98 133 169 212 279 336 389
#     4  10  22  40  67  88 130 164 222 272 340 383
#     4  10  20  40  67  88 128 170 220 258 318 391
#     4  10  20  39  65  88 125 168 219 273 323 399
#     4   9  20  40  65  95 119 177 213 263 318 400
#
# _framework density 20.664521000000001
#
# number of rings (size 3 to 8) (size 9 to 14) (size 15 to 20)
#    0.000    2.000    1.667    0.500    7.000    2.000 
#   12.000    0.000    0.000    0.000    0.000    0.000 
#    0.000    0.000    0.000    0.000    0.000    0.000 
#
# Total GULP energy -133651.814988 kJ/mol
# GULP energy per Si atom -5568.825625 kJ/mol
# Density = 2.061749 g / cm^3
# Si number density = 20.664521 Si / 1000 Ang^3
#
#
#
# Elastic Constant Matrix: (Units=GPa)
#
#
# Indices 1 2 3 4 5 6 
#
# 1 58.7967 11.5610 14.3407 0.0000 14.7115 0.0000
# 2 11.5610 70.2467 37.9666 0.0000 14.5782 0.0000
# 3 14.3407 37.9666 100.9504 0.0000 15.6082 0.0000
# 4 0.0000 0.0000 0.0000 29.2973 0.0000 6.8628
# 5 14.7115 14.5782 15.6082 0.0000 37.0589 0.0000
# 6 0.0000 0.0000 0.0000 6.8628 0.0000 18.9383
#
#
#
# Elastic Compliance Matrix: (Units=1/GPa)
#
#
# Indices 1 2 3 4 5 6 
#
# 1 0.019200 -0.001081 -0.001292 0.000000 -0.006652 0.000000
# 2 -0.001081 0.018655 -0.006198 0.000000 -0.004299 0.000000
# 3 -0.001292 -0.006198 0.012797 0.000000 -0.002439 0.000000
# 4 0.000000 0.000000 0.000000 0.037299 0.000000 -0.013516
# 5 -0.006652 -0.004299 -0.002439 0.000000 0.032343 0.000000
# 6 0.000000 0.000000 0.000000 -0.013516 0.000000 0.057701
#
#
# Mechanical properties :
#
#
# Convention : Reuss Voigt Hill
#
# Bulk Modulus (GPa) = 29.84126 39.74783 34.79455
# Shear Modulus (GPa) = 24.23550 28.13393 26.18471
#
# Velocity S-wave (km/s) = 3.42834 3.69380 3.56354
# Velocity P-wave (km/s) = 5.49031 6.12118 5.81431
#
# Compressibility (1/GPa) = 0.03351064
#
# Stress axis : x y z
#
# Youngs Moduli (GPa) = 52.08327 53.60370 78.14028
#
# Poissons Ratio (x) = 0.05793 0.10100
# Poissons Ratio (y) = 0.05629 0.48431
# Poissons Ratio (z) = 0.06732 0.33223
#
# Static dielectric constant tensor:
#      x y z
#    x 1.870010 0.000000 -0.022680 
#    y 0.000000 1.705530 0.000000 
#    z -0.022680 0.000000 1.785360 
# 
# From -- ./inp_files/130504.got.cif
#   From: 2010.05.17/outbox.cif.g08.bks.cpg/sg15_66_cif.got.tgz:130504.got - 2010.06.03 18:47:42.
