data_PCOD9275486
_publ_section_title
;
Structure prediction by ZEFSAII (Michael W. Deem and Ramdas Pophale) SiO2 
 PCOD9275486
Probable space group: C 2/C
;
_chemical_formula_sum "Si O2"
_cell_formula_units_Z 56
_cell_length_a 13.959963
_cell_length_b 18.568855
_cell_length_c 11.010085
_cell_angle_alpha 90.000000
_cell_angle_beta 114.062365
_cell_angle_gamma 90.000000
_cell_volume 2606.030236
_symmetry_space_group_name_H-M "C 2/C"
_symmetry_group_IT_number 15
_symmetry_cell_setting 'monoclinic'
loop_
_space_group_symop_operation_xyz
x,y,z
-x,y,1/2-z
-x,-y,-z
x,-y,1/2+z
1/2+x,1/2+y,z
1/2-x,1/2+y,1/2-z
1/2-x,1/2-y,-z
1/2+x,1/2-y,1/2+z
loop_
_atom_site_type_symbol
_atom_site_label
_atom_site_fract_x
_atom_site_fract_y
_atom_site_fract_z
Si Si1 0.392841 0.310174 0.935945
Si Si2 0.574916 0.388609 0.186755
Si Si3 0.141179 0.837407 0.860600
Si Si4 0.092390 0.354586 0.117960
Si Si5 0.234259 0.110884 0.956148
Si Si6 0.371300 0.826294 0.084329
Si Si7 0.110835 0.024974 0.498809
O O1 0.493183 0.343339 0.062144
O O2 0.284204 0.336622 0.940664
O O3 0.398263 0.224952 0.934599
O O4 0.386986 0.336947 0.794759
O O5 0.500000 0.426533 0.250000
O O6 0.599271 0.409910 0.899538
O O7 0.659246 0.350509 0.315831
O O8 0.649629 0.437879 0.143030
O O9 0.265079 0.837019 0.955444
O O10 0.104295 0.760036 0.896077
O O11 0.156985 0.401842 0.055636
O O12 0.137481 0.350065 0.279093
O O13 0.969009 0.366845 0.074520
O O14 0.182373 0.036817 0.979221
O O15 0.000000 0.000000 0.500000
#
# Coordination Sequence:
#
# PCOD9275486 Si02
#       7
#     8   8   8   8   8   8   8
#     4  10  21  37  59  88 125 159 203 254 299 366
#     4  10  21  37  54  86 122 165 201 243 304 358
#     4  10  22  39  63  92 120 158 213 252 304 360
#     4  10  20  39  62  88 118 160 209 248 308 360
#     4  11  24  37  57  91 130 162 197 250 314 368
#     4   9  20  41  67  86 115 161 209 264 296 355
#     4  12  23  36  59  90 127 161 196 247 311 376
#
# _framework density 21.488623
#
# number of rings (size 3 to 8) (size 9 to 14) (size 15 to 20)
#    0.000    1.714    2.857    2.143    2.000    5.143 
#    0.000    2.857    0.000    0.000    0.000    0.000 
#    0.000    0.000    0.000    0.000    0.000    0.000 
#
# Total GULP energy -156018.623814 kJ/mol
# GULP energy per Si atom -5572.093708 kJ/mol
# Density = 2.143971 g / cm^3
# Si number density = 21.488623 Si / 1000 Ang^3
#
#
#
# Elastic Constant Matrix: (Units=GPa)
#
#
# Indices 1 2 3 4 5 6 
#
# 1 140.9890 39.8758 48.0384 0.0000 -21.2002 0.0000
# 2 39.8758 57.0636 34.7911 0.0000 -20.3925 0.0000
# 3 48.0384 34.7911 102.6599 0.0000 -10.2856 0.0000
# 4 0.0000 0.0000 0.0000 20.2832 0.0000 -16.1415
# 5 -21.2002 -20.3925 -10.2856 0.0000 44.4465 0.0000
# 6 0.0000 0.0000 0.0000 -16.1415 0.0000 27.3923
#
#
#
# Elastic Compliance Matrix: (Units=1/GPa)
#
#
# Indices 1 2 3 4 5 6 
#
# 1 0.009554 -0.004251 -0.002835 0.000000 0.001951 0.000000
# 2 -0.004251 0.027738 -0.006490 0.000000 0.009197 0.000000
# 3 -0.002835 -0.006490 0.013138 0.000000 -0.001289 0.000000
# 4 0.000000 0.000000 0.000000 0.092838 0.000000 0.054707
# 5 0.001951 0.009197 -0.001289 0.000000 0.027351 0.000000
# 6 0.000000 0.000000 0.000000 0.054707 0.000000 0.068744
#
#
# Mechanical properties :
#
#
# Convention : Reuss Voigt Hill
#
# Bulk Modulus (GPa) = 42.95677 60.68034 51.81856
# Shear Modulus (GPa) = 18.23000 30.29155 24.26078
#
# Velocity S-wave (km/s) = 2.91582 3.75861 3.36371
# Velocity P-wave (km/s) = 5.60088 6.86556 6.26521
#
# Compressibility (1/GPa) = 0.02327922
#
# Stress axis : x y z
#
# Youngs Moduli (GPa) = 104.66541 36.05116 76.11795
#
# Poissons Ratio (x) = 0.15326 0.21577
# Poissons Ratio (y) = 0.44494 0.49398
# Poissons Ratio (z) = 0.29669 0.23396
#
# Static dielectric constant tensor:
#      x y z
#    x 1.901540 0.000000 -0.000720 
#    y 0.000000 1.858970 0.000000 
#    z -0.000720 0.000000 1.840350 
# 
# From -- ./inp_files/90369.got.cif
#   From: 2010.05.17/outbox.cif.g08.bks.cpg/sg15_46_cif.got.tgz:90369.got - 2010.06.03 18:47:42.
