data_PCOD9275732
_publ_section_title
;
Structure prediction by ZEFSAII (Michael W. Deem and Ramdas Pophale) SiO2 
 PCOD9275732
Probable space group: C 2/C
;
_chemical_formula_sum "Si O2"
_cell_formula_units_Z 64
_cell_length_a 8.357122
_cell_length_b 23.368770
_cell_length_c 28.703367
_cell_angle_alpha 90.000000
_cell_angle_beta 145.252489
_cell_angle_gamma 90.000000
_cell_volume 3194.998307
_symmetry_space_group_name_H-M "C 2/C"
_symmetry_group_IT_number 15
_symmetry_cell_setting 'monoclinic'
loop_
_space_group_symop_operation_xyz
x,y,z
-x,y,1/2-z
-x,-y,-z
x,-y,1/2+z
1/2+x,1/2+y,z
1/2-x,1/2+y,1/2-z
1/2-x,1/2-y,-z
1/2+x,1/2-y,1/2+z
loop_
_atom_site_type_symbol
_atom_site_label
_atom_site_fract_x
_atom_site_fract_y
_atom_site_fract_z
Si Si1 0.579097 0.637221 0.348120
Si Si2 0.143929 0.587600 0.733544
Si Si3 0.540324 0.676403 0.856255
Si Si4 0.250459 0.040123 0.272212
Si Si5 0.430751 0.208139 0.287110
Si Si6 0.176069 0.829585 0.092223
Si Si7 0.838898 0.717778 0.475195
Si Si8 0.120927 0.370448 0.911147
O O1 0.398522 0.578798 0.303660
O O2 0.371519 0.681870 0.273712
O O3 0.641214 0.665521 0.412509
O O4 0.871117 0.635493 0.389697
O O5 0.450226 0.615698 0.813888
O O6 0.167016 0.523575 0.720886
O O7 0.000000 0.585067 0.750000
O O8 0.953543 0.630866 0.657186
O O9 0.440064 0.724709 0.796609
O O10 0.380461 0.682579 0.867020
O O11 0.860163 0.689440 0.944594
O O12 0.517198 0.074238 0.357162
O O13 0.000000 0.039148 0.250000
O O14 0.500000 0.193688 0.250000
O O15 0.622983 0.180062 0.373090
O O16 0.177385 0.767886 0.067490
O O17 0.915857 0.865774 0.008280
O O18 0.750000 0.750000 0.500000
#
# Coordination Sequence:
#
# PCOD9275732 Si02
#       8
#     8   8   8   8   8   8   8   8
#     4  10  21  38  61  87 123 166 206 244 302 380
#     4  10  24  42  63  89 118 164 211 261 304 363
#     4  11  22  40  62  86 127 168 203 247 306 377
#     4   9  21  40  64  86 117 160 214 255 308 363
#     4  11  21  34  57  95 126 158 200 253 310 361
#     4  11  22  41  64  89 125 163 211 245 308 379
#     4  12  23  37  60  98 131 156 198 255 313 365
#     4  10  20  39  64  89 120 168 207 250 301 374
#
# _framework density 20.031309
#
# number of rings (size 3 to 8) (size 9 to 14) (size 15 to 20)
#    0.000    1.500    2.500    3.750    0.000    6.000 
#    0.000    0.625    0.000    0.000    0.000    0.000 
#    0.000    0.000    0.000    0.000    0.000    0.000 
#
# Total GULP energy -178584.674903 kJ/mol
# GULP energy per Si atom -5580.771091 kJ/mol
# Density = 1.998572 g / cm^3
# Si number density = 20.031309 Si / 1000 Ang^3
#
#
#
# Elastic Constant Matrix: (Units=GPa)
#
#
# Indices 1 2 3 4 5 6 
#
# 1 38.1855 14.7050 17.7425 -0.0018 -7.3292 -0.0021
# 2 14.7050 106.2924 54.2082 0.0002 8.0750 0.0007
# 3 17.7425 54.2082 98.1355 0.0010 6.0179 -0.0015
# 4 -0.0018 0.0002 0.0010 29.9208 -0.0014 -4.6494
# 5 -7.3292 8.0750 6.0179 -0.0014 20.1613 -0.0020
# 6 -0.0021 0.0007 -0.0015 -4.6494 -0.0020 31.9445
#
#
#
# Elastic Compliance Matrix: (Units=1/GPa)
#
#
# Indices 1 2 3 4 5 6 
#
# 1 0.032509 -0.002993 -0.005116 0.000003 0.014544 0.000003
# 2 -0.002993 0.013572 -0.006678 0.000000 -0.004531 -0.000001
# 3 -0.005116 -0.006678 0.015029 -0.000001 -0.003671 0.000000
# 4 0.000003 0.000000 -0.000001 0.034195 0.000005 0.004977
# 5 0.014544 -0.004531 -0.003671 0.000005 0.057797 0.000005
# 6 0.000003 -0.000001 0.000000 0.004977 0.000005 0.032029
#
#
# Mechanical properties :
#
#
# Convention : Reuss Voigt Hill
#
# Bulk Modulus (GPa) = 31.71003 46.21384 38.96193
# Shear Modulus (GPa) = 22.20077 26.80252 24.50165
#
# Velocity S-wave (km/s) = 3.33273 3.66188 3.50118
# Velocity P-wave (km/s) = 5.53842 6.40313 5.98641
#
# Compressibility (1/GPa) = 0.03153576
#
# Stress axis : x y z
#
# Youngs Moduli (GPa) = 30.76042 73.68115 66.53886
#
# Poissons Ratio (x) = 0.22055 0.34041
# Poissons Ratio (y) = 0.09207 0.44434
# Poissons Ratio (z) = 0.15737 0.49204
#
# Static dielectric constant tensor:
#      x y z
#    x 1.738470 0.000000 0.009520 
#    y 0.000000 1.698350 0.000000 
#    z 0.009520 0.000000 1.757570 
# 
# From -- ./inp_files/309127.got.cif
#   From: 2010.05.17/outbox.cif.g08.bks.cpg/sg15_155_cif.got.tgz:309127.got - 2010.06.03 18:47:42.
