data_PCOD9275658
_publ_section_title
;
Structure prediction by ZEFSAII (Michael W. Deem and Ramdas Pophale) SiO2 
 PCOD9275658
Probable space group: C 2/C
;
_chemical_formula_sum "Si O2"
_cell_formula_units_Z 40
_cell_length_a 15.975572
_cell_length_b 12.253363
_cell_length_c 9.547670
_cell_angle_alpha 90.000000
_cell_angle_beta 93.151968
_cell_angle_gamma 90.000000
_cell_volume 1866.171799
_symmetry_space_group_name_H-M "C 2/C"
_symmetry_group_IT_number 15
_symmetry_cell_setting 'monoclinic'
loop_
_space_group_symop_operation_xyz
x,y,z
-x,y,1/2-z
-x,-y,-z
x,-y,1/2+z
1/2+x,1/2+y,z
1/2-x,1/2+y,1/2-z
1/2-x,1/2-y,-z
1/2+x,1/2-y,1/2+z
loop_
_atom_site_type_symbol
_atom_site_label
_atom_site_fract_x
_atom_site_fract_y
_atom_site_fract_z
Si Si1 0.268532 0.185039 0.224946
Si Si2 0.519930 0.388861 0.084483
Si Si3 0.213810 0.110085 0.625949
Si Si4 0.701566 0.982823 0.114795
Si Si5 0.625474 0.755637 0.032452
O O1 0.248202 0.270472 0.345387
O O2 0.322816 0.088118 0.296647
O O3 0.179117 0.173689 0.137008
O O4 0.326091 0.237187 0.110423
O O5 0.500000 0.394881 0.250000
O O6 0.618757 0.373403 0.075419
O O7 0.500000 0.500000 0.000000
O O8 0.465086 0.292667 0.008217
O O9 0.265081 0.032237 0.526821
O O10 0.221377 0.057547 0.781675
O O11 0.639271 0.879973 0.092004
#
# Coordination Sequence:
#
# PCOD9275658 Si02
#       5
#     8   8   8   8   8
#     4  10  20  39  63  92 127 172 222 269 317 390
#     4  12  24  40  63  95 133 169 206 272 336 387
#     4  11  22  36  65  95 127 166 220 271 323 390
#     4  11  21  40  67  97 127 172 221 271 320 395
#     4  10  22  40  63  94 135 169 217 270 337 382
#
# _framework density 21.434253999999999
#
# number of rings (size 3 to 8) (size 9 to 14) (size 15 to 20)
#    0.000    1.200    4.000    3.000    2.800    0.000 
#    0.000    1.000    0.000    0.000    0.000    0.000 
#    0.000    0.000    0.000    0.000    0.000    0.000 
#
# Total GULP energy -111453.310516 kJ/mol
# GULP energy per Si atom -5572.665526 kJ/mol
# Density = 2.138547 g / cm^3
# Si number density = 21.434254 Si / 1000 Ang^3
#
#
#
# Elastic Constant Matrix: (Units=GPa)
#
#
# Indices 1 2 3 4 5 6 
#
# 1 61.5012 17.7558 19.6830 0.0000 27.5524 0.0000
# 2 17.7558 121.0340 58.2947 0.0000 17.2864 0.0000
# 3 19.6830 58.2947 119.5149 0.0000 14.6135 0.0000
# 4 0.0000 0.0000 0.0000 40.5479 0.0000 13.3405
# 5 27.5524 17.2864 14.6135 0.0000 24.3048 0.0000
# 6 0.0000 0.0000 0.0000 13.3405 0.0000 26.1378
#
#
#
# Elastic Compliance Matrix: (Units=1/GPa)
#
#
# Indices 1 2 3 4 5 6 
#
# 1 0.033262 0.001205 -0.001458 0.000000 -0.037687 0.000000
# 2 0.001205 0.011405 -0.004968 0.000000 -0.006491 0.000000
# 3 -0.001458 -0.004968 0.011221 0.000000 -0.001561 0.000000
# 4 0.000000 0.000000 0.000000 0.029639 0.000000 -0.015128
# 5 -0.037687 -0.006491 -0.001561 0.000000 0.089423 0.000000
# 6 0.000000 0.000000 0.000000 -0.015128 0.000000 0.045980
#
#
# Mechanical properties :
#
#
# Convention : Reuss Voigt Hill
#
# Bulk Modulus (GPa) = 22.00319 54.83523 38.41921
# Shear Modulus (GPa) = 20.28233 31.95254 26.11743
#
# Velocity S-wave (km/s) = 3.07947 3.86518 3.49448
# Velocity P-wave (km/s) = 4.78872 6.74967 5.85192
#
# Compressibility (1/GPa) = 0.04544796
#
# Stress axis : x y z
#
# Youngs Moduli (GPa) = 30.06410 87.68045 89.11722
#
# Poissons Ratio (x) = -0.10566 0.12989
# Poissons Ratio (y) = -0.03623 0.44271
# Poissons Ratio (z) = 0.04382 0.43557
#
# Static dielectric constant tensor:
#      x y z
#    x 1.757510 0.000000 0.030070 
#    y 0.000000 1.944350 0.000000 
#    z 0.030070 0.000000 1.842460 
# 
# From -- ./inp_files/46244.got.cif
#   From: 2010.05.17/outbox.cif.g08.bks.cpg/sg15_24_cif.got.tgz:46244.got - 2010.06.03 18:47:42.
