data_PCOD9275729
_publ_section_title
;
Structure prediction by ZEFSAII (Michael W. Deem and Ramdas Pophale) SiO2 
 PCOD9275729
Probable space group: C 2/C
;
_chemical_formula_sum "Si O2"
_cell_formula_units_Z 48
_cell_length_a 7.902381
_cell_length_b 32.814720
_cell_length_c 8.945982
_cell_angle_alpha 90.000000
_cell_angle_beta 97.439296
_cell_angle_gamma 90.000000
_cell_volume 2300.295251
_symmetry_space_group_name_H-M "C 2/C"
_symmetry_group_IT_number 15
_symmetry_cell_setting 'monoclinic'
loop_
_space_group_symop_operation_xyz
x,y,z
-x,y,1/2-z
-x,-y,-z
x,-y,1/2+z
1/2+x,1/2+y,z
1/2-x,1/2+y,1/2-z
1/2-x,1/2-y,-z
1/2+x,1/2-y,1/2+z
loop_
_atom_site_type_symbol
_atom_site_label
_atom_site_fract_x
_atom_site_fract_y
_atom_site_fract_z
Si Si1 0.782964 0.297364 0.482610
Si Si2 0.500000 0.835407 0.250000
Si Si3 0.275530 0.470355 0.377613
Si Si4 0.694147 0.109708 0.014549
Si Si5 0.185950 0.048499 0.951055
Si Si6 0.500000 0.846585 0.750000
Si Si7 0.549532 0.369599 0.430255
O O1 0.750000 0.250000 0.500000
O O2 0.892737 0.317237 0.628443
O O3 0.611626 0.324012 0.457043
O O4 0.879471 0.307814 0.339232
O O5 0.395327 0.864569 0.127492
O O6 0.182680 0.438085 0.474435
O O7 0.245990 0.516845 0.420358
O O8 0.235562 0.461513 0.201063
O O9 0.480466 0.460890 0.416916
O O10 0.892759 0.120940 0.019756
O O11 0.617533 0.125005 0.159925
O O12 0.196083 0.096758 0.980065
O O13 0.500000 0.376354 0.250000
#
# Coordination Sequence:
#
# PCOD9275729 Si02
#       7
#     8   4   8   8   8   4   8
#     4  11  25  41  65  91 124 159 205 257 311 370
#     4  10  20  40  64  87 126 172 196 249 318 382
#     4   9  16  29  52  84 117 152 192 247 295 344
#     4  10  20  39  64  88 125 165 205 252 305 371
#     4   9  16  29  53  88 117 147 198 249 299 339
#     4  10  26  42  58  95 128 160 200 255 324 362
#     4  11  19  38  66  93 114 162 216 247 299 375
#
# _framework density 20.866886000000001
#
# number of rings (size 3 to 8) (size 9 to 14) (size 15 to 20)
#    0.000    2.000    5.000    0.000    1.167    3.333 
#    0.000    6.667    0.000   17.000    0.000    0.000 
#    0.000    0.000    0.000    0.000    0.000    0.000 
#
# Total GULP energy -134128.160912 kJ/mol
# GULP energy per Si atom -5588.673371 kJ/mol
# Density = 2.081939 g / cm^3
# Si number density = 20.866886 Si / 1000 Ang^3
#
#
#
# Elastic Constant Matrix: (Units=GPa)
#
#
# Indices 1 2 3 4 5 6 
#
# 1 41.6098 33.2311 36.7085 0.0000 -19.5638 0.0000
# 2 33.2311 174.4434 46.2634 0.0000 -14.8054 0.0000
# 3 36.7085 46.2634 105.3849 0.0000 -26.5916 0.0000
# 4 0.0000 0.0000 0.0000 23.8945 0.0000 -1.9099
# 5 -19.5638 -14.8054 -26.5916 0.0000 25.2116 0.0000
# 6 0.0000 0.0000 0.0000 -1.9099 0.0000 20.5390
#
#
#
# Elastic Compliance Matrix: (Units=1/GPa)
#
#
# Indices 1 2 3 4 5 6 
#
# 1 0.046405 -0.004644 -0.007804 0.000000 0.025051 0.000000
# 2 -0.004644 0.006975 -0.001799 0.000000 -0.001405 0.000000
# 3 -0.007804 -0.001799 0.015265 0.000000 0.008988 0.000000
# 4 0.000000 0.000000 0.000000 0.042164 0.000000 0.003921
# 5 0.025051 -0.001405 0.008988 0.000000 0.067758 0.000000
# 6 0.000000 0.000000 0.000000 0.003921 0.000000 0.049052
#
#
# Mechanical properties :
#
#
# Convention : Reuss Voigt Hill
#
# Bulk Modulus (GPa) = 24.90631 61.53824 43.22227
# Shear Modulus (GPa) = 18.55297 27.61136 23.08217
#
# Velocity S-wave (km/s) = 2.98503 3.64155 3.32951
# Velocity P-wave (km/s) = 4.88285 6.87285 5.96147
#
# Compressibility (1/GPa) = 0.04015047
#
# Stress axis : x y z
#
# Youngs Moduli (GPa) = 21.54935 143.36845 65.50841
#
# Poissons Ratio (x) = 0.66583 0.51126
# Poissons Ratio (y) = 0.10008 0.11784
# Poissons Ratio (z) = 0.16818 0.25790
#
# Static dielectric constant tensor:
#      x y z
#    x 1.820750 0.000000 0.025460 
#    y 0.000000 1.720900 0.000000 
#    z 0.025460 0.000000 1.733260 
# 
# From -- ./inp_files/26169.got.cif
#   From: 2010.05.17/outbox.cif.g08.bks.cpg/sg15_14_cif.got.tgz:26169.got - 2010.06.03 18:47:42.
