data_PCOD9275503
_publ_section_title
;
Structure prediction by ZEFSAII (Michael W. Deem and Ramdas Pophale) SiO2 
 PCOD9275503
Probable space group: C 2/C
;
_chemical_formula_sum "Si O2"
_cell_formula_units_Z 56
_cell_length_a 11.721025
_cell_length_b 21.829022
_cell_length_c 11.625355
_cell_angle_alpha 90.000000
_cell_angle_beta 82.569996
_cell_angle_gamma 90.000000
_cell_volume 2949.471341
_symmetry_space_group_name_H-M "C 2/C"
_symmetry_group_IT_number 15
_symmetry_cell_setting 'monoclinic'
loop_
_space_group_symop_operation_xyz
x,y,z
-x,y,1/2-z
-x,-y,-z
x,-y,1/2+z
1/2+x,1/2+y,z
1/2-x,1/2+y,1/2-z
1/2-x,1/2-y,-z
1/2+x,1/2-y,1/2+z
loop_
_atom_site_type_symbol
_atom_site_label
_atom_site_fract_x
_atom_site_fract_y
_atom_site_fract_z
Si Si1 0.103596 0.779432 0.922075
Si Si2 0.339832 0.305524 0.989383
Si Si3 0.636788 0.370341 0.732948
Si Si4 0.626103 0.382653 0.286326
Si Si5 0.249825 0.494689 0.718236
Si Si6 0.724364 0.847551 0.443890
Si Si7 0.867729 0.520041 0.512308
O O1 0.147619 0.804761 0.794608
O O2 0.147472 0.712982 0.950199
O O3 0.966903 0.781140 0.941729
O O4 0.162502 0.829304 0.998078
O O5 0.313079 0.357904 0.899129
O O6 0.250000 0.250000 0.000000
O O7 0.355364 0.340649 0.106173
O O8 0.500000 0.384428 0.750000
O O9 0.700284 0.426061 0.785582
O O10 0.500000 0.373339 0.250000
O O11 0.649267 0.454687 0.301714
O O12 0.725710 0.362387 0.186664
O O13 0.188349 0.502487 0.853701
O O14 0.181314 0.503847 0.605732
O O15 0.654803 0.906801 0.493407
O O16 0.000000 0.500000 0.500000
#
# Coordination Sequence:
#
# PCOD9275503 Si02
#       7
#     8   8   8   8   8   8   8
#     4  10  20  39  62  89 121 165 212 256 317 380
#     4  11  23  39  62  94 131 160 210 270 321 380
#     4  10  21  38  61  91 123 160 207 262 318 385
#     4  11  22  39  61  92 124 163 210 264 320 388
#     4  11  23  40  65  91 127 167 211 265 329 384
#     4  10  21  39  64  86 122 167 211 257 317 383
#     4  11  24  43  63  93 128 170 217 269 325 392
#
# _framework density 18.986453000000001
#
# number of rings (size 3 to 8) (size 9 to 14) (size 15 to 20)
#    0.000    1.429    2.857    2.571    0.000    2.286 
#    0.000    8.571    0.000    0.000    0.000    0.000 
#    0.000    0.000    0.000    0.000    0.000    0.000 
#
# Total GULP energy -155983.748583 kJ/mol
# GULP energy per Si atom -5570.848164 kJ/mol
# Density = 1.894324 g / cm^3
# Si number density = 18.986453 Si / 1000 Ang^3
#
#
#
# Elastic Constant Matrix: (Units=GPa)
#
#
# Indices 1 2 3 4 5 6 
#
# 1 77.7101 40.8710 34.5784 0.0000 10.4067 0.0000
# 2 40.8710 97.6274 32.7575 0.0000 0.7036 0.0000
# 3 34.5784 32.7575 110.3609 0.0000 19.0971 0.0000
# 4 0.0000 0.0000 0.0000 25.0271 0.0000 1.7853
# 5 10.4067 0.7036 19.0971 0.0000 26.6498 0.0000
# 6 0.0000 0.0000 0.0000 1.7853 0.0000 14.2532
#
#
#
# Elastic Compliance Matrix: (Units=1/GPa)
#
#
# Indices 1 2 3 4 5 6 
#
# 1 0.018322 -0.006656 -0.002920 0.000000 -0.004887 0.000000
# 2 -0.006656 0.013932 -0.002781 0.000000 0.004224 0.000000
# 3 -0.002920 -0.002781 0.012091 0.000000 -0.007451 0.000000
# 4 0.000000 0.000000 0.000000 0.040317 0.000000 -0.005050
# 5 -0.004887 0.004224 -0.007451 0.000000 0.044660 0.000000
# 6 0.000000 0.000000 0.000000 -0.005050 0.000000 0.070792
#
#
# Mechanical properties :
#
#
# Convention : Reuss Voigt Hill
#
# Bulk Modulus (GPa) = 50.93529 55.79026 53.36278
# Shear Modulus (GPa) = 21.61033 25.01877 23.31455
#
# Velocity S-wave (km/s) = 3.37738 3.63398 3.50802
# Velocity P-wave (km/s) = 6.48801 6.85972 6.67645
#
# Compressibility (1/GPa) = 0.01963275
#
# Stress axis : x y z
#
# Youngs Moduli (GPa) = 54.57790 71.77698 82.70859
#
# Poissons Ratio (x) = 0.47773 0.24147
# Poissons Ratio (y) = 0.36325 0.23000
# Poissons Ratio (z) = 0.15934 0.19960
#
# Static dielectric constant tensor:
#      x y z
#    x 1.633970 0.000000 0.039200 
#    y 0.000000 1.642040 0.000000 
#    z 0.039200 0.000000 1.789160 
# 
# From -- ./inp_files/88911.got.cif
#   From: 2010.05.17/outbox.cif.g08.bks.cpg/sg15_45_cif.got.tgz:88911.got - 2010.06.03 18:47:42.
