data_PCOD9275848
_publ_section_title
;
Structure prediction by ZEFSAII (Michael W. Deem and Ramdas Pophale) SiO2 
 PCOD9275848
Probable space group: C 2/C
;
_chemical_formula_sum "Si O2"
_cell_formula_units_Z 64
_cell_length_a 30.459357
_cell_length_b 8.255270
_cell_length_c 15.229599
_cell_angle_alpha 90.000000
_cell_angle_beta 51.784344
_cell_angle_gamma 90.000000
_cell_volume 3008.780722
_symmetry_space_group_name_H-M "C 2/C"
_symmetry_group_IT_number 15
_symmetry_cell_setting 'monoclinic'
loop_
_space_group_symop_operation_xyz
x,y,z
-x,y,1/2-z
-x,-y,-z
x,-y,1/2+z
1/2+x,1/2+y,z
1/2-x,1/2+y,1/2-z
1/2-x,1/2-y,-z
1/2+x,1/2-y,1/2+z
loop_
_atom_site_type_symbol
_atom_site_label
_atom_site_fract_x
_atom_site_fract_y
_atom_site_fract_z
Si Si1 0.537400 0.320945 0.540843
Si Si2 0.131884 0.410580 0.920075
Si Si3 0.235209 0.958882 0.439038
Si Si4 0.077818 0.972643 0.824414
Si Si5 0.605405 0.459553 0.090337
Si Si6 0.354611 0.273347 0.621669
Si Si7 0.232840 0.604706 0.403704
Si Si8 0.768047 0.756905 0.298472
O O1 0.569284 0.150973 0.504021
O O2 0.471253 0.340324 0.629125
O O3 0.554757 0.400236 0.425298
O O4 0.564411 0.419542 0.588977
O O5 0.136228 0.584821 0.870270
O O6 0.166628 0.419317 0.967770
O O7 0.172937 0.283241 0.819726
O O8 0.168702 0.976557 0.514566
O O9 0.247761 0.794884 0.369115
O O10 0.251973 0.920629 0.515874
O O11 0.266279 0.126667 0.379274
O O12 0.090062 0.051567 0.713364
O O13 0.126721 0.881361 0.818331
O O14 0.610151 0.314769 0.011639
O O15 0.290649 0.300287 0.672471
O O16 0.259951 0.446236 0.324644
#
# Coordination Sequence:
#
# PCOD9275848 Si02
#       8
#     8   8   8   8   8   8   8   8
#     4  10  22  42  61  95 123 160 215 276 317 389
#     4  11  23  40  59  90 137 170 206 270 330 384
#     4  10  21  37  59  91 124 167 219 263 310 396
#     4  10  22  40  70  89 120 167 220 268 330 391
#     4  10  20  39  65  90 123 166 211 273 325 384
#     4   9  23  40  62  96 129 169 217 267 326 394
#     4  10  22  36  57  87 128 168 209 257 316 387
#     4  10  23  38  60  90 135 171 204 262 327 389
#
# _framework density 21.271076000000001
#
# number of rings (size 3 to 8) (size 9 to 14) (size 15 to 20)
#    0.000    2.000    1.250    0.750    7.000    1.500 
#    0.000    0.000    0.000    4.500    0.000    0.000 
#    0.000    0.000    0.000    0.000    0.000    0.000 
#
# Total GULP energy -178184.908596 kJ/mol
# GULP energy per Si atom -5568.278394 kJ/mol
# Density = 2.122266 g / cm^3
# Si number density = 21.271076 Si / 1000 Ang^3
#
#
#
# Elastic Constant Matrix: (Units=GPa)
#
#
# Indices 1 2 3 4 5 6 
#
# 1 85.1608 -0.2570 36.9163 0.0001 6.4181 -0.0001
# 2 -0.2570 78.0000 32.4742 0.0011 -0.3693 -0.0009
# 3 36.9163 32.4742 79.3413 0.0000 12.8681 0.0000
# 4 0.0001 0.0011 0.0000 8.2176 -0.0001 25.6341
# 5 6.4181 -0.3693 12.8681 -0.0001 31.2266 0.0001
# 6 -0.0001 -0.0009 0.0000 25.6341 0.0001 -5.2715
#
#
#
# Elastic Compliance Matrix: (Units=1/GPa)
#
#
# Indices 1 2 3 4 5 6 
#
# 1 0.015551 0.003736 -0.008844 0.000000 0.000493 0.000000
# 2 0.003736 0.016616 -0.009052 0.000000 0.003159 -0.000001
# 3 -0.008844 -0.009052 0.021589 0.000000 -0.007186 0.000000
# 4 0.000000 0.000000 0.000000 0.007526 0.000000 0.036598
# 5 0.000493 0.003159 -0.007186 0.000000 0.034921 0.000000
# 6 0.000000 -0.000001 0.000000 0.036598 0.000000 -0.011732
#
#
# Mechanical properties :
#
#
# Convention : Reuss Voigt Hill
#
# Bulk Modulus (GPa) = 39.31468 42.30767 40.81117
# Shear Modulus (GPa) = 41.23039 18.39247 29.81143
#
# Velocity S-wave (km/s) = 4.40742 2.94372 3.74772
# Velocity P-wave (km/s) = 6.66508 5.61132 6.16077
#
# Compressibility (1/GPa) = 0.02543579
#
# Stress axis : x y z
#
# Youngs Moduli (GPa) = 64.30623 60.18208 46.31956
#
# Poissons Ratio (x) = -0.22483 0.40967
# Poissons Ratio (y) = -0.24024 0.41926
# Poissons Ratio (z) = 0.56875 0.54474
#
# Static dielectric constant tensor:
#      x y z
#    x 1.848540 0.000000 0.044290 
#    y 0.000000 1.833860 0.000000 
#    z 0.044290 0.000000 1.860620 
# 
# From -- ./inp_files/181146.got.cif
#   From: 2010.05.17/outbox.cif.g08.bks.cpg/sg15_91_cif.got.tgz:181146.got - 2010.06.03 18:47:42.
