data_PCOD9275810
_publ_section_title
;
Structure prediction by ZEFSAII (Michael W. Deem and Ramdas Pophale) SiO2 
 PCOD9275810
Probable space group: C 2/C
;
_chemical_formula_sum "Si O2"
_cell_formula_units_Z 64
_cell_length_a 12.316182
_cell_length_b 13.282537
_cell_length_c 16.886153
_cell_angle_alpha 90.000000
_cell_angle_beta 61.810475
_cell_angle_gamma 90.000000
_cell_volume 2434.758483
_symmetry_space_group_name_H-M "C 2/C"
_symmetry_group_IT_number 15
_symmetry_cell_setting 'monoclinic'
loop_
_space_group_symop_operation_xyz
x,y,z
-x,y,1/2-z
-x,-y,-z
x,-y,1/2+z
1/2+x,1/2+y,z
1/2-x,1/2+y,1/2-z
1/2-x,1/2-y,-z
1/2+x,1/2-y,1/2+z
loop_
_atom_site_type_symbol
_atom_site_label
_atom_site_fract_x
_atom_site_fract_y
_atom_site_fract_z
Si Si1 0.255657 0.911434 0.540640
Si Si2 0.045256 0.276677 0.645832
Si Si3 0.449057 0.569100 0.934973
Si Si4 0.718802 0.800951 0.811938
Si Si5 0.775966 0.058706 0.691297
Si Si6 0.921579 0.606104 0.847756
Si Si7 0.306712 0.695379 0.105069
Si Si8 0.142199 0.570003 0.887155
O O1 0.224807 0.845333 0.627893
O O2 0.325480 0.852260 0.446292
O O3 0.140978 0.976261 0.549209
O O4 0.349333 0.996618 0.542265
O O5 0.057903 0.156205 0.629587
O O6 0.183508 0.316917 0.594241
O O7 0.000000 0.294520 0.750000
O O8 0.930378 0.317182 0.634258
O O9 0.410321 0.464875 0.114706
O O10 0.411866 0.634790 0.024185
O O11 0.733499 0.680668 0.808251
O O12 0.775125 0.833506 0.707270
O O13 0.664852 0.028111 0.671151
O O14 0.753556 0.035590 0.790495
O O15 0.000000 0.660922 0.750000
O O16 0.028302 0.563090 0.866615
O O17 0.342261 0.813423 0.095253
#
# Coordination Sequence:
#
# PCOD9275810 Si02
#       8
#     8   8   8   8   8   8   8   8
#     4  12  25  39  67 104 134 167 221 291 349 383
#     4   9  18  37  67  94 128 180 231 274 324 407
#     4  11  23  37  69  98 134 177 218 282 343 404
#     4   9  22  41  66 101 130 176 232 280 329 399
#     4   9  22  47  70  88 131 191 228 260 332 421
#     4  10  24  45  68  92 132 181 224 271 335 413
#     4  10  20  39  64  98 134 177 232 275 330 417
#     4  10  22  42  70  96 132 173 227 280 340 396
#
# _framework density 26.285975000000001
#
# number of rings (size 3 to 8) (size 9 to 14) (size 15 to 20)
#    0.000    2.000    1.250    1.500    3.500    4.000 
#    0.000    5.000    8.250    0.000    0.000    0.000 
#    0.000    0.000    0.000    0.000    0.000    0.000 
#
# Total GULP energy -179013.177195 kJ/mol
# GULP energy per Si atom -5594.161787 kJ/mol
# Density = 2.622615 g / cm^3
# Si number density = 26.285975 Si / 1000 Ang^3
#
#
#
# Elastic Constant Matrix: (Units=GPa)
#
#
# Indices 1 2 3 4 5 6 
#
# 1 127.6230 20.1877 63.4995 0.0000 -6.1604 0.0000
# 2 20.1877 72.9470 36.5084 0.0000 8.5590 0.0000
# 3 63.4995 36.5084 172.3803 0.0000 -6.6964 0.0000
# 4 0.0000 0.0000 0.0000 33.5839 0.0000 15.9162
# 5 -6.1604 8.5590 -6.6964 0.0000 42.9155 0.0000
# 6 0.0000 0.0000 0.0000 15.9162 0.0000 18.4574
#
#
#
# Elastic Compliance Matrix: (Units=1/GPa)
#
#
# Indices 1 2 3 4 5 6 
#
# 1 0.009709 -0.001174 -0.003285 0.000000 0.001115 0.000000
# 2 -0.001174 0.016045 -0.003115 0.000000 -0.003855 0.000000
# 3 -0.003285 -0.003115 0.007724 0.000000 0.001355 0.000000
# 4 0.000000 0.000000 0.000000 0.050355 0.000000 -0.043422
# 5 0.001115 -0.003855 0.001355 0.000000 0.024442 0.000000
# 6 0.000000 0.000000 0.000000 -0.043422 0.000000 0.091623
#
#
# Mechanical properties :
#
#
# Convention : Reuss Voigt Hill
#
# Bulk Modulus (GPa) = 54.55619 68.14906 61.35262
# Shear Modulus (GPa) = 22.60848 35.84168 29.22508
#
# Velocity S-wave (km/s) = 2.93592 3.69660 3.33800
# Velocity P-wave (km/s) = 5.68267 6.64847 6.18445
#
# Compressibility (1/GPa) = 0.01832973
#
# Stress axis : x y z
#
# Youngs Moduli (GPa) = 102.99267 62.32483 129.47406
#
# Poissons Ratio (x) = 0.07317 0.42528
# Poissons Ratio (y) = 0.12091 0.40337
# Poissons Ratio (z) = 0.33830 0.19417
#
# Static dielectric constant tensor:
#      x y z
#    x 2.102850 0.000000 -0.003800 
#    y 0.000000 2.072350 0.000000 
#    z -0.003800 0.000000 2.074870 
# 
# From -- ./inp_files/205415.got.cif
#   From: 2010.05.17/outbox.cif.g08.bks.cpg/sg15_103_cif.got.tgz:205415.got - 2010.06.03 18:47:42.
