data_PCOD9275621
_publ_section_title
;
Structure prediction by ZEFSAII (Michael W. Deem and Ramdas Pophale) SiO2 
 PCOD9275621
Probable space group: C 2/C
;
_chemical_formula_sum "Si O2"
_cell_formula_units_Z 40
_cell_length_a 13.295105
_cell_length_b 24.839465
_cell_length_c 5.216981
_cell_angle_alpha 90.000000
_cell_angle_beta 113.678637
_cell_angle_gamma 90.000000
_cell_volume 1577.828451
_symmetry_space_group_name_H-M "C 2/C"
_symmetry_group_IT_number 15
_symmetry_cell_setting 'monoclinic'
loop_
_space_group_symop_operation_xyz
x,y,z
-x,y,1/2-z
-x,-y,-z
x,-y,1/2+z
1/2+x,1/2+y,z
1/2-x,1/2+y,1/2-z
1/2-x,1/2-y,-z
1/2+x,1/2-y,1/2+z
loop_
_atom_site_type_symbol
_atom_site_label
_atom_site_fract_x
_atom_site_fract_y
_atom_site_fract_z
Si Si1 0.827379 0.253650 0.327797
Si Si2 0.605817 0.639022 0.192327
Si Si3 0.847453 0.630959 0.685243
Si Si4 0.888321 0.437807 0.731193
Si Si5 0.350082 0.469884 0.981388
O O1 0.750000 0.250000 0.500000
O O2 0.901048 0.200247 0.412142
O O3 0.886105 0.310390 0.328919
O O4 0.750000 0.250000 0.000000
O O5 0.500000 0.626699 0.250000
O O6 0.718923 0.635069 0.471378
O O7 0.620121 0.592872 0.995705
O O8 0.901261 0.603095 0.487426
O O9 0.855997 0.595174 0.945079
O O10 0.782791 0.473231 0.681112
O O11 0.000000 0.466023 0.750000
O O12 0.389197 0.500599 0.771540
#
# Coordination Sequence:
#
# PCOD9275621 Si02
#       5
#     8   8   8   8   8
#     4  10  20  39  63  89 126 165 201 248 302 362
#     4  10  23  42  66  95 127 169 214 254 307 375
#     4  10  21  41  64  97 135 163 198 253 312 375
#     4  11  23  41  67  95 125 163 208 258 318 383
#     4  11  24  43  63  87 123 164 212 270 318 360
#
# _framework density 25.351299000000001
#
# number of rings (size 3 to 8) (size 9 to 14) (size 15 to 20)
#    0.000    1.600    0.000    6.600    0.000    4.800 
#    0.000   24.000    0.000    0.000    0.000    0.000 
#    0.000    0.000    0.000    0.000    0.000    0.000 
#
# Total GULP energy -111973.494289 kJ/mol
# GULP energy per Si atom -5598.674714 kJ/mol
# Density = 2.529360 g / cm^3
# Si number density = 25.351299 Si / 1000 Ang^3
#
#
#
# Elastic Constant Matrix: (Units=GPa)
#
#
# Indices 1 2 3 4 5 6 
#
# 1 151.1059 17.9347 35.1323 0.0000 -22.1800 0.0000
# 2 17.9347 133.9150 59.3254 0.0000 -18.4014 0.0000
# 3 35.1323 59.3254 163.9281 0.0000 -35.9331 0.0000
# 4 0.0000 0.0000 0.0000 19.3108 0.0000 -27.9344
# 5 -22.1800 -18.4014 -35.9331 0.0000 48.6576 0.0000
# 6 0.0000 0.0000 0.0000 -27.9344 0.0000 17.2175
#
#
#
# Elastic Compliance Matrix: (Units=1/GPa)
#
#
# Indices 1 2 3 4 5 6 
#
# 1 0.007229 -0.000214 -0.000915 0.000000 0.002538 0.000000
# 2 -0.000214 0.008956 -0.002952 0.000000 0.001109 0.000000
# 3 -0.000915 -0.002952 0.008386 0.000000 0.004659 0.000000
# 4 0.000000 0.000000 0.000000 -0.038445 0.000000 -0.062375
# 5 0.002538 0.001109 0.004659 0.000000 0.025569 0.000000
# 6 0.000000 0.000000 0.000000 -0.062375 0.000000 -0.043119
#
#
# Mechanical properties :
#
#
# Convention : Reuss Voigt Hill
#
# Bulk Modulus (GPa) = 60.94534 74.85933 67.90233
# Shear Modulus (GPa) = -281.04024 39.47429 -120.78298
#
# Velocity S-wave (km/s) = -10.54035 3.95028 -6.90993
# Velocity P-wave (km/s) = 11.13730 7.09924 6.06796
#
# Compressibility (1/GPa) = 0.01640815
#
# Stress axis : x y z
#
# Youngs Moduli (GPa) = 138.33812 111.65201 119.24368
#
# Poissons Ratio (x) = 0.02387 0.10917
# Poissons Ratio (y) = 0.02957 0.35204
# Poissons Ratio (z) = 0.12665 0.32963
#
# Static dielectric constant tensor:
#      x y z
#    x 2.078790 0.000000 0.033430 
#    y 0.000000 2.032480 0.000000 
#    z 0.033430 0.000000 1.927110 
# 
# From -- ./inp_files/7381.got.cif
#   From: 2010.05.17/outbox.cif.g08.bks.cpg/sg15_4_cif.got.tgz:7381.got - 2010.06.03 18:47:42.
