data_PCOD9275287
_publ_section_title
;
Structure prediction by ZEFSAII (Michael W. Deem and Ramdas Pophale) SiO2 
 PCOD9275287
Probable space group: C 2/C
;
_chemical_formula_sum "Si O2"
_cell_formula_units_Z 40
_cell_length_a 21.851202
_cell_length_b 7.903347
_cell_length_c 8.563998
_cell_angle_alpha 90.000000
_cell_angle_beta 87.052204
_cell_angle_gamma 90.000000
_cell_volume 1477.025192
_symmetry_space_group_name_H-M "C 2/C"
_symmetry_group_IT_number 15
_symmetry_cell_setting 'monoclinic'
loop_
_space_group_symop_operation_xyz
x,y,z
-x,y,1/2-z
-x,-y,-z
x,-y,1/2+z
1/2+x,1/2+y,z
1/2-x,1/2+y,1/2-z
1/2-x,1/2-y,-z
1/2+x,1/2-y,1/2+z
loop_
_atom_site_type_symbol
_atom_site_label
_atom_site_fract_x
_atom_site_fract_y
_atom_site_fract_z
Si Si1 0.773668 0.573586 0.419506
Si Si2 0.802515 0.132199 0.357105
Si Si3 0.370397 0.103567 0.658382
Si Si4 0.964534 0.653024 0.097050
Si Si5 0.435391 0.613320 0.306650
O O1 0.750000 0.750000 0.500000
O O2 0.756344 0.596168 0.242337
O O3 0.725111 0.426978 0.477457
O O4 0.838909 0.582733 0.496237
O O5 0.825339 0.319250 0.299069
O O6 0.867406 0.030725 0.325112
O O7 0.422781 0.246323 0.672262
O O8 0.402287 0.926118 0.674820
O O9 0.000000 0.696224 0.250000
O O10 0.946422 0.794168 0.971828
O O11 0.000000 0.500000 0.000000
O O12 0.500000 0.533950 0.250000
#
# Coordination Sequence:
#
# PCOD9275287 Si02
#       5
#     8   8   8   8   8
#     4  10  21  40  64  90 121 166 207 257 319 384
#     4   9  21  41  60  88 124 160 213 260 313 367
#     4   9  20  34  60  87 127 159 207 263 312 357
#     4  12  18  33  59  93 126 168 213 256 306 364
#     4  10  20  39  59  88 130 163 209 260 308 362
#
# _framework density 27.08146
#
# number of rings (size 3 to 8) (size 9 to 14) (size 15 to 20)
#    1.200    0.800    4.000    0.000    2.800    0.000 
#    0.000   16.000    0.000    0.000    0.000    0.000 
#    0.000    0.000    0.000    0.000    0.000    0.000 
#
# Total GULP energy -111410.178924 kJ/mol
# GULP energy per Si atom -5570.508946 kJ/mol
# Density = 2.701982 g / cm^3
# Si number density = 27.081460 Si / 1000 Ang^3
#
#
#
# Elastic Constant Matrix: (Units=GPa)
#
#
# Indices 1 2 3 4 5 6 
#
# 1 179.5683 28.4920 71.1260 0.0000 21.4766 0.0000
# 2 28.4920 81.5482 41.1844 0.0000 7.4050 0.0000
# 3 71.1260 41.1844 109.1560 0.0000 13.5888 0.0000
# 4 0.0000 0.0000 0.0000 18.1759 0.0000 -1.0685
# 5 21.4766 7.4050 13.5888 0.0000 74.7298 0.0000
# 6 0.0000 0.0000 0.0000 -1.0685 0.0000 1.5695
#
#
#
# Elastic Compliance Matrix: (Units=1/GPa)
#
#
# Indices 1 2 3 4 5 6 
#
# 1 0.007633 -0.000146 -0.004755 0.000000 -0.001314 0.000000
# 2 -0.000146 0.015168 -0.005572 0.000000 -0.000448 0.000000
# 3 -0.004755 -0.005572 0.014450 0.000000 -0.000709 0.000000
# 4 0.000000 0.000000 0.000000 0.057312 0.000000 0.039018
# 5 -0.001314 -0.000448 -0.000709 0.000000 0.013933 0.000000
# 6 0.000000 0.000000 0.000000 0.039018 0.000000 0.663710
#
#
# Mechanical properties :
#
#
# Convention : Reuss Voigt Hill
#
# Bulk Modulus (GPa) = 61.32967 72.43079 66.88023
# Shear Modulus (GPa) = 6.26107 34.19305 20.22706
#
# Velocity S-wave (km/s) = 1.52216 3.55716 2.73591
# Velocity P-wave (km/s) = 5.07787 6.60869 5.89320
#
# Compressibility (1/GPa) = 0.01630532
#
# Stress axis : x y z
#
# Youngs Moduli (GPa) = 131.01710 65.92618 69.20463
#
# Poissons Ratio (x) = 0.00963 0.32904
# Poissons Ratio (y) = 0.01915 0.38561
# Poissons Ratio (z) = 0.62294 0.36734
#
# Static dielectric constant tensor:
#      x y z
#    x 2.836970 0.000000 0.133590 
#    y 0.000000 2.320790 0.000000 
#    z 0.133590 0.000000 2.233950 
# 
# From -- ./inp_files/60028.got.cif
#   From: 2010.05.17/outbox.cif.g08.bks.cpg/sg15_31_cif.got.tgz:60028.got - 2010.06.03 18:47:42.
