data_PCOD9275681
_publ_section_title
;
Structure prediction by ZEFSAII (Michael W. Deem and Ramdas Pophale) SiO2 
 PCOD9275681
Probable space group: C 2/C
;
_chemical_formula_sum "Si O2"
_cell_formula_units_Z 64
_cell_length_a 24.796995
_cell_length_b 8.441979
_cell_length_c 19.297822
_cell_angle_alpha 90.000000
_cell_angle_beta 142.519317
_cell_angle_gamma 90.000000
_cell_volume 2458.147057
_symmetry_space_group_name_H-M "C 2/C"
_symmetry_group_IT_number 15
_symmetry_cell_setting 'monoclinic'
loop_
_space_group_symop_operation_xyz
x,y,z
-x,y,1/2-z
-x,-y,-z
x,-y,1/2+z
1/2+x,1/2+y,z
1/2-x,1/2+y,1/2-z
1/2-x,1/2-y,-z
1/2+x,1/2-y,1/2+z
loop_
_atom_site_type_symbol
_atom_site_label
_atom_site_fract_x
_atom_site_fract_y
_atom_site_fract_z
Si Si1 0.298780 0.028134 0.561264
Si Si2 0.373802 0.659006 0.111696
Si Si3 0.473820 0.204667 0.934919
Si Si4 0.744962 0.259688 0.308565
Si Si5 0.427169 0.076596 0.025820
Si Si6 0.276701 0.095110 0.697769
Si Si7 0.492923 0.446579 0.846945
Si Si8 0.585676 0.219633 0.253193
O O1 0.349907 0.160136 0.570387
O O2 0.200003 0.038901 0.432555
O O3 0.281087 0.111215 0.619036
O O4 0.348875 0.865555 0.624940
O O5 0.407850 0.577281 0.076981
O O6 0.441655 0.674503 0.244171
O O7 0.382350 0.112682 0.822241
O O8 0.475621 0.378833 0.904679
O O9 0.553579 0.096464 0.986915
O O10 0.468968 0.200531 0.012195
O O11 0.823962 0.368963 0.422858
O O12 0.735961 0.299795 0.217886
O O13 0.653871 0.257468 0.259110
O O14 0.767711 0.074854 0.335049
O O15 0.501155 0.100475 0.160363
O O16 0.461900 0.613995 0.787654
#
# Coordination Sequence:
#
# PCOD9275681 Si02
#       8
#     8   8   8   8   8   8   8   8
#     4  10  21  45  70  92 131 175 223 291 337 401
#     4  10  23  44  69  94 121 172 240 277 342 407
#     4  10  20  42  64  90 134 177 223 275 334 416
#     4  10  23  37  62  99 135 175 223 264 344 419
#     4  10  21  40  63  93 133 180 219 262 337 420
#     4  10  20  39  63  94 135 172 218 276 332 411
#     4  11  24  42  66  98 129 170 228 287 333 407
#     4  11  24  41  66 100 143 168 217 290 344 406
#
# _framework density 26.035872000000001
#
# number of rings (size 3 to 8) (size 9 to 14) (size 15 to 20)
#    0.000    1.750    3.750    0.000    7.000    2.000 
#    4.500    5.000    0.000    0.000    0.000    0.000 
#    0.000    0.000    0.000    0.000    0.000    0.000 
#
# Total GULP energy -178461.218708 kJ/mol
# GULP energy per Si atom -5576.913085 kJ/mol
# Density = 2.597661 g / cm^3
# Si number density = 26.035872 Si / 1000 Ang^3
#
#
#
# Elastic Constant Matrix: (Units=GPa)
#
#
# Indices 1 2 3 4 5 6 
#
# 1 97.4819 18.1518 4.3328 0.0000 13.9440 0.0000
# 2 18.1518 106.8390 2.1488 0.0000 12.6508 0.0000
# 3 4.3328 2.1488 68.9243 0.0000 20.9905 0.0000
# 4 0.0000 0.0000 0.0000 41.0273 0.0000 -5.7795
# 5 13.9440 12.6508 20.9905 0.0000 37.2315 0.0000
# 6 0.0000 0.0000 0.0000 -5.7795 0.0000 26.1917
#
#
#
# Elastic Compliance Matrix: (Units=1/GPa)
#
#
# Indices 1 2 3 4 5 6 
#
# 1 0.011067 -0.001421 0.000560 0.000000 -0.003978 0.000000
# 2 -0.001421 0.009976 0.000783 0.000000 -0.003299 0.000000
# 3 0.000560 0.000783 0.017619 0.000000 -0.010409 0.000000
# 4 0.000000 0.000000 0.000000 0.025156 0.000000 0.005551
# 5 -0.003978 -0.003299 -0.010409 0.000000 0.035338 0.000000
# 6 0.000000 0.000000 0.000000 0.005551 0.000000 0.039405
#
#
# Mechanical properties :
#
#
# Convention : Reuss Voigt Hill
#
# Bulk Modulus (GPa) = 25.96914 35.83467 30.90191
# Shear Modulus (GPa) = 32.99196 37.46420 35.22808
#
# Velocity S-wave (km/s) = 3.56360 3.79746 3.68239
# Velocity P-wave (km/s) = 5.18925 5.74639 5.47492
#
# Compressibility (1/GPa) = 0.03850724
#
# Stress axis : x y z
#
# Youngs Moduli (GPa) = 90.35929 100.23925 56.75663
#
# Poissons Ratio (x) = 0.14239 -0.03179
# Poissons Ratio (y) = 0.12836 -0.04444
# Poissons Ratio (z) = -0.05060 -0.07849
#
# Static dielectric constant tensor:
#      x y z
#    x 2.197340 0.000000 0.016150 
#    y 0.000000 2.039800 0.000000 
#    z 0.016150 0.000000 2.192300 
# 
# From -- ./inp_files/284433.got.cif
#   From: 2010.05.17/outbox.cif.g08.bks.cpg/sg15_143_cif.got.tgz:284433.got - 2010.06.03 18:47:42.
