data_PCOD9275066
_publ_section_title
;
Structure prediction by ZEFSAII (Michael W. Deem and Ramdas Pophale) SiO2 
 PCOD9275066
Probable space group: C 2/C
;
_chemical_formula_sum "Si O2"
_cell_formula_units_Z 36
_cell_length_a 14.316608
_cell_length_b 21.065997
_cell_length_c 9.749023
_cell_angle_alpha 90.000000
_cell_angle_beta 29.827471
_cell_angle_gamma 90.000000
_cell_volume 1462.447429
_symmetry_space_group_name_H-M "C 2/C"
_symmetry_group_IT_number 15
_symmetry_cell_setting 'monoclinic'
loop_
_space_group_symop_operation_xyz
x,y,z
-x,y,1/2-z
-x,-y,-z
x,-y,1/2+z
1/2+x,1/2+y,z
1/2-x,1/2+y,1/2-z
1/2-x,1/2-y,-z
1/2+x,1/2-y,1/2+z
loop_
_atom_site_type_symbol
_atom_site_label
_atom_site_fract_x
_atom_site_fract_y
_atom_site_fract_z
Si Si1 0.500000 0.449320 0.750000
Si Si2 0.486476 0.142776 0.922500
Si Si3 0.159525 0.227146 0.929703
Si Si4 0.060040 0.120562 0.886780
Si Si5 0.763769 0.435339 0.896806
O O1 0.518229 0.409838 0.588084
O O2 0.686388 0.493524 0.513511
O O3 0.500000 0.117575 0.750000
O O4 0.666087 0.185179 0.738840
O O5 0.325832 0.197878 0.115765
O O6 0.445793 0.087110 0.082217
O O7 0.092464 0.193988 0.875678
O O8 0.000000 0.222238 0.250000
O O9 0.242875 0.095025 0.573372
O O10 0.894032 0.096263 0.001616
#
# Coordination Sequence:
#
# PCOD9275066 Si02
#       5
#     4   8   8   8   8
#     4  10  20  40  72  90 124 174 212 256 316 380
#     4  11  23  38  62  94 131 165 211 263 315 381
#     4  11  21  39  65  91 124 171 212 257 319 381
#     4  10  20  38  68  91 125 167 209 260 311 378
#     4  10  21  38  60  96 127 161 212 256 315 369
#
# _framework density 24.61627
#
# number of rings (size 3 to 8) (size 9 to 14) (size 15 to 20)
#    0.000    1.778    1.111    8.000    0.000    1.778 
#    0.000    1.111    0.000    0.000    0.000    0.000 
#    0.000    0.000    0.000    0.000    0.000    0.000 
#
# Total GULP energy -100537.254618 kJ/mol
# GULP energy per Si atom -5585.403034 kJ/mol
# Density = 2.456024 g / cm^3
# Si number density = 24.616270 Si / 1000 Ang^3
#
#
#
# Elastic Constant Matrix: (Units=GPa)
#
#
# Indices 1 2 3 4 5 6 
#
# 1 93.5178 0.4983 35.0926 0.0042 15.7766 0.0173
# 2 0.4983 80.9675 52.5443 -0.0028 27.3541 0.0025
# 3 35.0926 52.5443 127.4410 -0.0087 21.6820 0.0025
# 4 0.0042 -0.0028 -0.0087 57.5792 -0.0038 12.1557
# 5 15.7766 27.3541 21.6820 -0.0038 52.7883 -0.0140
# 6 0.0173 0.0025 0.0025 12.1557 -0.0140 25.2068
#
#
#
# Elastic Compliance Matrix: (Units=1/GPa)
#
#
# Indices 1 2 3 4 5 6 
#
# 1 0.013166 0.004435 -0.004724 0.000001 -0.004293 -0.000012
# 2 0.004435 0.020579 -0.008242 0.000001 -0.008604 -0.000009
# 3 -0.004724 -0.008242 0.012449 0.000001 0.000569 0.000002
# 4 0.000001 0.000001 0.000001 0.019336 -0.000002 -0.009325
# 5 -0.004293 -0.008604 0.000569 -0.000002 0.024451 0.000018
# 6 -0.000012 -0.000009 0.000002 -0.009325 0.000018 0.044169
#
#
# Mechanical properties :
#
#
# Convention : Reuss Voigt Hill
#
# Bulk Modulus (GPa) = 34.32675 53.13297 43.72986
# Shear Modulus (GPa) = 31.07099 41.36758 36.21929
#
# Velocity S-wave (km/s) = 3.55662 4.10383 3.83999
# Velocity P-wave (km/s) = 5.55347 6.63978 6.12077
#
# Compressibility (1/GPa) = 0.02913180
#
# Stress axis : x y z
#
# Youngs Moduli (GPa) = 75.95175 48.59389 80.32899
#
# Poissons Ratio (x) = -0.21550 0.37944
# Poissons Ratio (y) = -0.33682 0.66207
# Poissons Ratio (z) = 0.35876 0.40051
#
# Static dielectric constant tensor:
#      x y z
#    x 2.016320 0.000000 -0.125770 
#    y 0.000000 1.972750 0.000010 
#    z -0.125770 0.000010 2.098820 
# 
# From -- ./inp_files/43762.got.cif
#   From: 2010.05.17/outbox.cif.g08.bks.cpg/sg15_22_cif.got.tgz:43762.got - 2010.06.03 18:47:42.
