data_PCOD9275742
_publ_section_title
;
Structure prediction by ZEFSAII (Michael W. Deem and Ramdas Pophale) SiO2 
 PCOD9275742
Probable space group: C 2/C
;
_chemical_formula_sum "Si O2"
_cell_formula_units_Z 48
_cell_length_a 14.323197
_cell_length_b 9.884022
_cell_length_c 14.989905
_cell_angle_alpha 90.000000
_cell_angle_beta 76.700081
_cell_angle_gamma 90.000000
_cell_volume 2065.215454
_symmetry_space_group_name_H-M "C 2/C"
_symmetry_group_IT_number 15
_symmetry_cell_setting 'monoclinic'
loop_
_space_group_symop_operation_xyz
x,y,z
-x,y,1/2-z
-x,-y,-z
x,-y,1/2+z
1/2+x,1/2+y,z
1/2-x,1/2+y,1/2-z
1/2-x,1/2-y,-z
1/2+x,1/2-y,1/2+z
loop_
_atom_site_type_symbol
_atom_site_label
_atom_site_fract_x
_atom_site_fract_y
_atom_site_fract_z
Si Si1 0.104575 0.936828 0.690926
Si Si2 0.262646 0.526043 0.994294
Si Si3 0.699837 0.671122 0.332470
Si Si4 0.399985 0.116236 0.248497
Si Si5 0.911118 0.581339 0.589735
Si Si6 0.112758 0.364330 0.108695
O O1 0.157673 0.013926 0.599130
O O2 0.172220 0.935711 0.762779
O O3 0.099757 0.782312 0.654230
O O4 0.000000 0.976730 0.750000
O O5 0.164329 0.588323 0.974677
O O6 0.302714 0.607646 0.069059
O O7 0.217222 0.387215 0.042713
O O8 0.809394 0.708484 0.288331
O O9 0.627964 0.794832 0.341778
O O10 0.500000 0.184796 0.250000
O O11 0.397818 0.055258 0.149814
O O12 0.395779 0.985310 0.316142
O O13 0.024807 0.609670 0.558312
#
# Coordination Sequence:
#
# PCOD9275742 Si02
#       6
#     8   8   8   8   8   8
#     4  12  22  42  66  88 125 173 207 247 306 373
#     4  11  25  38  63  97 123 156 211 261 307 360
#     4  11  22  39  64  90 130 163 203 257 311 364
#     4   9  18  35  63  89 116 158 209 251 301 362
#     4  11  19  39  64  88 122 162 201 255 314 360
#     4  10  20  39  64  90 114 160 216 254 295 365
#
# _framework density 23.242127
#
# number of rings (size 3 to 8) (size 9 to 14) (size 15 to 20)
#    0.000    1.333    5.000    2.000    0.000    0.667 
#    0.000    0.833    0.000    0.000    0.000    0.000 
#    0.000    0.000    0.000    0.000    0.000    0.000 
#
# Total GULP energy -134079.998595 kJ/mol
# GULP energy per Si atom -5586.666608 kJ/mol
# Density = 2.318923 g / cm^3
# Si number density = 23.242127 Si / 1000 Ang^3
#
#
#
# Elastic Constant Matrix: (Units=GPa)
#
#
# Indices 1 2 3 4 5 6 
#
# 1 117.7787 8.6362 44.3614 0.0000 -27.2215 0.0000
# 2 8.6362 47.3947 12.5935 0.0000 -7.5711 0.0000
# 3 44.3614 12.5935 135.1779 0.0000 -4.5581 0.0000
# 4 0.0000 0.0000 0.0000 10.3514 0.0000 5.8262
# 5 -27.2215 -7.5711 -4.5581 0.0000 55.7580 0.0000
# 6 0.0000 0.0000 0.0000 5.8262 0.0000 14.5295
#
#
#
# Elastic Compliance Matrix: (Units=1/GPa)
#
#
# Indices 1 2 3 4 5 6 
#
# 1 0.010954 -0.000289 -0.003398 0.000000 0.005031 0.000000
# 2 -0.000289 0.022081 -0.001871 0.000000 0.002704 0.000000
# 3 -0.003398 -0.001871 0.008647 0.000000 -0.001206 0.000000
# 4 0.000000 0.000000 0.000000 0.124765 0.000000 -0.050030
# 5 0.005031 0.002704 -0.001206 0.000000 0.020659 0.000000
# 6 0.000000 0.000000 0.000000 -0.050030 0.000000 0.088887
#
#
# Mechanical properties :
#
#
# Convention : Reuss Voigt Hill
#
# Bulk Modulus (GPa) = 32.71742 47.94816 40.33279
# Shear Modulus (GPa) = 16.81807 31.77844 24.29826
#
# Velocity S-wave (km/s) = 2.69291 3.70168 3.23683
# Velocity P-wave (km/s) = 4.87610 6.24056 5.60004
#
# Compressibility (1/GPa) = 0.03056476
#
# Stress axis : x y z
#
# Youngs Moduli (GPa) = 91.28679 45.28726 115.65339
#
# Poissons Ratio (x) = 0.01311 0.39303
# Poissons Ratio (y) = 0.02642 0.21639
# Poissons Ratio (z) = 0.31022 0.08473
#
# Static dielectric constant tensor:
#      x y z
#    x 1.888980 0.000000 -0.022780 
#    y 0.000000 1.915690 0.000000 
#    z -0.022780 0.000000 1.938170 
# 
# From -- ./inp_files/151850.got.cif
#   From: 2010.05.17/outbox.cif.g08.bks.cpg/sg15_76_cif.got.tgz:151850.got - 2010.06.03 18:47:42.
