data_PCOD9275423
_publ_section_title
;
Structure prediction by ZEFSAII (Michael W. Deem and Ramdas Pophale) SiO2 
 PCOD9275423
Probable space group: C 2/C
;
_chemical_formula_sum "Si O2"
_cell_formula_units_Z 40
_cell_length_a 15.153483
_cell_length_b 8.893278
_cell_length_c 15.116338
_cell_angle_alpha 90.000000
_cell_angle_beta 46.723976
_cell_angle_gamma 90.000000
_cell_volume 1483.159678
_symmetry_space_group_name_H-M "C 2/C"
_symmetry_group_IT_number 15
_symmetry_cell_setting 'monoclinic'
loop_
_space_group_symop_operation_xyz
x,y,z
-x,y,1/2-z
-x,-y,-z
x,-y,1/2+z
1/2+x,1/2+y,z
1/2-x,1/2+y,1/2-z
1/2-x,1/2-y,-z
1/2+x,1/2-y,1/2+z
loop_
_atom_site_type_symbol
_atom_site_label
_atom_site_fract_x
_atom_site_fract_y
_atom_site_fract_z
Si Si1 0.077406 0.611066 0.882617
Si Si2 0.103483 0.850347 0.446698
Si Si3 0.676667 0.958289 0.643086
Si Si4 0.256772 0.886320 0.564168
Si Si5 0.650475 0.628715 0.725158
O O1 0.099381 0.548800 0.768878
O O2 0.210339 0.620345 0.834798
O O3 0.000000 0.500000 0.000000
O O4 0.009436 0.772335 0.926938
O O5 0.184507 0.987664 0.428360
O O6 0.194863 0.705027 0.384879
O O7 0.070617 0.879209 0.367775
O O8 0.662004 0.001377 0.550636
O O9 0.644911 0.785267 0.678772
O O10 0.250000 0.750000 0.500000
O O11 0.141872 0.983553 0.669463
#
# Coordination Sequence:
#
# PCOD9275423 Si02
#       5
#     8   8   8   8   8
#     4  11  20  38  63  91 123 170 218 261 321 383
#     4  10  20  39  61  90 123 166 214 260 320 383
#     4  10  22  36  62  92 125 168 210 271 321 377
#     4  10  21  38  60  89 126 165 210 259 332 381
#     4  11  20  37  63  89 123 166 217 265 313 386
#
# _framework density 26.969448
#
# number of rings (size 3 to 8) (size 9 to 14) (size 15 to 20)
#    0.000    1.600    4.000    1.800    0.000    1.600 
#    0.000    0.000    0.000    7.200    0.000    0.000 
#    0.000    0.000    0.000    0.000    0.000    0.000 
#
# Total GULP energy -111777.899345 kJ/mol
# GULP energy per Si atom -5588.894967 kJ/mol
# Density = 2.690806 g / cm^3
# Si number density = 26.969448 Si / 1000 Ang^3
#
#
#
# Elastic Constant Matrix: (Units=GPa)
#
#
# Indices 1 2 3 4 5 6 
#
# 1 53.2394 21.7900 41.9950 0.0000 -4.7414 0.0000
# 2 21.7900 132.3664 28.9247 0.0000 10.4827 0.0000
# 3 41.9950 28.9247 145.0716 0.0000 19.7179 0.0000
# 4 0.0000 0.0000 0.0000 38.7352 0.0000 5.2285
# 5 -4.7414 10.4827 19.7179 0.0000 58.4775 0.0000
# 6 0.0000 0.0000 0.0000 5.2285 0.0000 35.6901
#
#
#
# Elastic Compliance Matrix: (Units=1/GPa)
#
#
# Indices 1 2 3 4 5 6 
#
# 1 0.026722 -0.003110 -0.007845 0.000000 0.005369 0.000000
# 2 -0.003110 0.008309 -0.000545 0.000000 -0.001558 0.000000
# 3 -0.007845 -0.000545 0.009795 0.000000 -0.003841 0.000000
# 4 0.000000 0.000000 0.000000 0.026337 0.000000 -0.003858
# 5 0.005369 -0.001558 -0.003841 0.000000 0.019110 0.000000
# 6 0.000000 0.000000 0.000000 -0.003858 0.000000 0.028584
#
#
# Mechanical properties :
#
#
# Convention : Reuss Voigt Hill
#
# Bulk Modulus (GPa) = 45.81550 57.34411 51.57980
# Shear Modulus (GPa) = 33.52699 42.44507 37.98603
#
# Velocity S-wave (km/s) = 3.52965 3.97144 3.75705
# Velocity P-wave (km/s) = 5.79966 6.50681 6.16339
#
# Compressibility (1/GPa) = 0.02182667
#
# Stress axis : x y z
#
# Youngs Moduli (GPa) = 37.42172 120.34930 102.09414
#
# Poissons Ratio (x) = 0.37427 0.80096
# Poissons Ratio (y) = 0.11638 0.05561
# Poissons Ratio (z) = 0.29359 0.06555
#
# Static dielectric constant tensor:
#      x y z
#    x 2.290540 0.000000 0.004780 
#    y 0.000000 2.164040 0.000000 
#    z 0.004780 0.000000 2.153400 
# 
# From -- ./inp_files/213666.got.cif
#   From: 2010.05.17/outbox.cif.g08.bks.cpg/sg15_107_cif.got.tgz:213666.got - 2010.06.03 18:47:42.
