data_PCOD9275701
_publ_section_title
;
Structure prediction by ZEFSAII (Michael W. Deem and Ramdas Pophale) SiO2 
 PCOD9275701
Probable space group: C 2/C
;
_chemical_formula_sum "Si O2"
_cell_formula_units_Z 64
_cell_length_a 15.521481
_cell_length_b 11.447549
_cell_length_c 16.018552
_cell_angle_alpha 90.000000
_cell_angle_beta 65.856514
_cell_angle_gamma 90.000000
_cell_volume 2597.246805
_symmetry_space_group_name_H-M "C 2/C"
_symmetry_group_IT_number 15
_symmetry_cell_setting 'monoclinic'
loop_
_space_group_symop_operation_xyz
x,y,z
-x,y,1/2-z
-x,-y,-z
x,-y,1/2+z
1/2+x,1/2+y,z
1/2-x,1/2+y,1/2-z
1/2-x,1/2-y,-z
1/2+x,1/2-y,1/2+z
loop_
_atom_site_type_symbol
_atom_site_label
_atom_site_fract_x
_atom_site_fract_y
_atom_site_fract_z
Si Si1 0.940530 0.434725 0.134006
Si Si2 0.449993 0.693951 0.856968
Si Si3 0.270378 0.102837 0.244910
Si Si4 0.397808 0.205220 0.899814
Si Si5 0.876631 0.401271 0.980662
Si Si6 0.391862 0.554453 0.319390
Si Si7 0.249869 0.486711 0.083205
Si Si8 0.126665 0.213730 0.906838
O O1 0.860710 0.516664 0.202960
O O2 0.993045 0.328589 0.158656
O O3 0.030333 0.520542 0.080105
O O4 0.891872 0.381525 0.071340
O O5 0.500000 0.730517 0.750000
O O6 0.380243 0.789538 0.920741
O O7 0.402227 0.570335 0.859371
O O8 0.530943 0.691434 0.895072
O O9 0.248978 0.092729 0.351287
O O10 0.181887 0.053387 0.227640
O O11 0.303678 0.222457 0.187100
O O12 0.367041 0.333410 0.884608
O O13 0.332949 0.112580 0.877028
O O14 0.384573 0.203936 0.006657
O O15 0.780615 0.466982 0.995154
O O16 0.500000 0.576863 0.250000
O O17 0.339006 0.409423 0.071041
#
# Coordination Sequence:
#
# PCOD9275701 Si02
#       8
#     8   8   8   8   8   8   8   8
#     4  10  21  39  66 101 130 168 229 290 327 392
#     4  11  22  43  67  94 136 183 227 279 347 412
#     4  12  24  43  69 103 135 177 233 292 331 409
#     4  11  24  43  73 101 141 184 227 285 346 407
#     4  10  20  39  64 100 133 167 222 290 337 394
#     4  11  27  46  66  98 146 183 221 284 352 418
#     4  11  24  36  69 104 132 174 230 282 342 400
#     4  12  23  45  72 103 133 185 240 272 339 427
#
# _framework density 24.641479
#
# number of rings (size 3 to 8) (size 9 to 14) (size 15 to 20)
#    0.000    1.000    3.750    4.125    3.500    1.500 
#    0.000    1.875    0.000    0.000    0.000    0.000 
#    0.000    0.000    0.000    0.000    0.000    0.000 
#
# Total GULP energy -178895.245487 kJ/mol
# GULP energy per Si atom -5590.476421 kJ/mol
# Density = 2.458539 g / cm^3
# Si number density = 24.641479 Si / 1000 Ang^3
#
#
#
# Elastic Constant Matrix: (Units=GPa)
#
#
# Indices 1 2 3 4 5 6 
#
# 1 104.9811 -3.3881 19.6305 0.0000 31.3346 0.0000
# 2 -3.3881 59.5483 7.7336 0.0000 22.7041 0.0000
# 3 19.6305 7.7336 68.9465 0.0000 31.3762 0.0000
# 4 0.0000 0.0000 0.0000 23.1466 0.0000 15.8356
# 5 31.3346 22.7041 31.3762 0.0000 43.4872 0.0000
# 6 0.0000 0.0000 0.0000 15.8356 0.0000 27.8831
#
#
#
# Elastic Compliance Matrix: (Units=1/GPa)
#
#
# Indices 1 2 3 4 5 6 
#
# 1 0.013649 0.006014 0.002001 0.000000 -0.014418 0.000000
# 2 0.006014 0.024351 0.004934 0.000000 -0.020607 0.000000
# 3 0.002001 0.004934 0.022644 0.000000 -0.020356 0.000000
# 4 0.000000 0.000000 0.000000 0.070656 0.000000 -0.040127
# 5 -0.014418 -0.020607 -0.020356 0.000000 0.058829 0.000000
# 6 0.000000 0.000000 0.000000 -0.040127 0.000000 0.058654
#
#
# Mechanical properties :
#
#
# Convention : Reuss Voigt Hill
#
# Bulk Modulus (GPa) = 11.55510 31.26976 21.41243
# Shear Modulus (GPa) = 19.86228 32.87004 26.36616
#
# Velocity S-wave (km/s) = 2.84218 3.65626 3.27462
# Velocity P-wave (km/s) = 3.93321 5.52646 4.79645
#
# Compressibility (1/GPa) = 0.08654188
#
# Stress axis : x y z
#
# Youngs Moduli (GPa) = 73.26545 41.06560 44.16113
#
# Poissons Ratio (x) = -0.24697 -0.08835
# Poissons Ratio (y) = -0.44062 -0.21789
# Poissons Ratio (z) = -0.14658 -0.20262
#
# Static dielectric constant tensor:
#      x y z
#    x 1.923130 0.000000 -0.083230 
#    y 0.000000 1.984710 0.000000 
#    z -0.083230 0.000000 2.017250 
# 
# From -- ./inp_files/204470.got.cif
#   From: 2010.05.17/outbox.cif.g08.bks.cpg/sg15_103_cif.got.tgz:204470.got - 2010.06.03 18:47:42.
