data_PCOD9275027
_publ_section_title
;
Structure prediction by ZEFSAII (Michael W. Deem and Ramdas Pophale) SiO2 
 PCOD9275027
Probable space group: C 2/C
;
_chemical_formula_sum "Si O2"
_cell_formula_units_Z 56
_cell_length_a 17.913270
_cell_length_b 8.986010
_cell_length_c 26.319670
_cell_angle_alpha 90.000000
_cell_angle_beta 141.134156
_cell_angle_gamma 90.000000
_cell_volume 2658.491359
_symmetry_space_group_name_H-M "C 2/C"
_symmetry_group_IT_number 15
_symmetry_cell_setting 'monoclinic'
loop_
_space_group_symop_operation_xyz
x,y,z
-x,y,1/2-z
-x,-y,-z
x,-y,1/2+z
1/2+x,1/2+y,z
1/2-x,1/2+y,1/2-z
1/2-x,1/2-y,-z
1/2+x,1/2-y,1/2+z
loop_
_atom_site_type_symbol
_atom_site_label
_atom_site_fract_x
_atom_site_fract_y
_atom_site_fract_z
Si Si1 0.562453 0.443484 0.086042
Si Si2 0.737434 0.625638 0.126956
Si Si3 0.000000 0.212326 0.250000
Si Si4 0.000000 0.739694 0.250000
Si Si5 0.675708 0.929232 0.492072
Si Si6 0.050089 0.021290 0.862262
Si Si7 0.721442 0.846979 0.408484
Si Si8 0.458325 0.139377 0.011610
O O1 0.686227 0.533865 0.147811
O O2 0.504273 0.474176 0.110169
O O3 0.500000 0.500000 0.000000
O O4 0.556333 0.264999 0.075522
O O5 0.877008 0.659324 0.199434
O O6 0.722606 0.504907 0.074025
O O7 0.654520 0.770009 0.072498
O O8 0.878696 0.304799 0.184829
O O9 0.000885 0.109383 0.200533
O O10 0.971078 0.835145 0.184117
O O11 0.651557 0.862754 0.424372
O O12 0.685024 0.786911 0.534681
O O13 0.808950 0.993424 0.560655
O O14 0.589195 0.058569 0.463139
O O15 0.500000 0.000000 0.000000
#
# Coordination Sequence:
#
# PCOD9275027 Si02
#       8
#     8   8   4   4   8   8   8   8
#     4  10  23  42  67 101 136 174 225 304 351 405
#     4  11  23  42  65  96 139 175 236 285 350 418
#     4   9  21  40  64  96 136 182 220 274 352 428
#     4  11  23  42  70  96 138 196 236 282 352 436
#     4  10  20  38  68 100 127 179 233 284 342 416
#     4  10  21  42  69  98 136 183 233 287 348 423
#     4  10  21  37  63  96 134 169 227 287 336 411
#     4  11  23  39  65  99 138 177 229 291 360 408
#
# _framework density 21.064578999999998
#
# number of rings (size 3 to 8) (size 9 to 14) (size 15 to 20)
#    0.000    1.714    1.429    3.000    2.000    6.857 
#    2.571    0.000    0.000    0.000    0.000    0.000 
#    0.000    0.000    0.000    0.000    0.000    0.000 
#
# Total GULP energy -156102.102400 kJ/mol
# GULP energy per Si atom -5575.075086 kJ/mol
# Density = 2.101663 g / cm^3
# Si number density = 21.064579 Si / 1000 Ang^3
#
#
#
# Elastic Constant Matrix: (Units=GPa)
#
#
# Indices 1 2 3 4 5 6 
#
# 1 129.9891 63.9925 47.8847 0.0000 -6.1322 0.0000
# 2 63.9925 141.5504 30.2112 0.0000 6.2221 0.0000
# 3 47.8847 30.2112 58.9178 0.0000 -2.4854 0.0000
# 4 0.0000 0.0000 0.0000 9.2271 0.0000 -0.0763
# 5 -6.1322 6.2221 -2.4854 0.0000 34.1160 0.0000
# 6 0.0000 0.0000 0.0000 -0.0763 0.0000 45.7581
#
#
#
# Elastic Compliance Matrix: (Units=1/GPa)
#
#
# Indices 1 2 3 4 5 6 
#
# 1 0.012905 -0.004185 -0.008238 0.000000 0.002483 0.000000
# 2 -0.004185 0.009395 -0.001525 0.000000 -0.002577 0.000000
# 3 -0.008238 -0.001525 0.024474 0.000000 0.000580 0.000000
# 4 0.000000 0.000000 0.000000 0.108378 0.000000 0.000181
# 5 0.002483 -0.002577 0.000580 0.000000 0.030270 0.000000
# 6 0.000000 0.000000 0.000000 0.000181 0.000000 0.021854
#
#
# Mechanical properties :
#
#
# Convention : Reuss Voigt Hill
#
# Bulk Modulus (GPa) = 52.96831 68.29267 60.63049
# Shear Modulus (GPa) = 20.70692 30.37818 25.54255
#
# Velocity S-wave (km/s) = 3.13872 3.80168 3.48599
# Velocity P-wave (km/s) = 6.19158 7.19454 6.71182
#
# Compressibility (1/GPa) = 0.01887921
#
# Stress axis : x y z
#
# Youngs Moduli (GPa) = 77.49038 106.43550 40.85935
#
# Poissons Ratio (x) = 0.44544 0.33658
# Poissons Ratio (y) = 0.32430 0.06231
# Poissons Ratio (z) = 0.63833 0.16232
#
# Static dielectric constant tensor:
#      x y z
#    x 1.898190 0.000000 0.074730 
#    y 0.000000 1.804910 0.000000 
#    z 0.074730 0.000000 1.828650 
# 
# From -- ./inp_files/298209.got.cif
#   From: 2010.05.17/outbox.cif.g08.bks.cpg/sg15_150_cif.got.tgz:298209.got - 2010.06.03 18:47:42.
