data_PCOD9275250
_publ_section_title
;
Structure prediction by ZEFSAII (Michael W. Deem and Ramdas Pophale) SiO2 
 PCOD9275250
Probable space group: C 2/C
;
_chemical_formula_sum "Si O2"
_cell_formula_units_Z 44
_cell_length_a 12.406793
_cell_length_b 30.162845
_cell_length_c 10.726992
_cell_angle_alpha 90.000000
_cell_angle_beta 28.218758
_cell_angle_gamma 90.000000
_cell_volume 1898.118544
_symmetry_space_group_name_H-M "C 2/C"
_symmetry_group_IT_number 15
_symmetry_cell_setting 'monoclinic'
loop_
_space_group_symop_operation_xyz
x,y,z
-x,y,1/2-z
-x,-y,-z
x,-y,1/2+z
1/2+x,1/2+y,z
1/2-x,1/2+y,1/2-z
1/2-x,1/2-y,-z
1/2+x,1/2-y,1/2+z
loop_
_atom_site_type_symbol
_atom_site_label
_atom_site_fract_x
_atom_site_fract_y
_atom_site_fract_z
Si Si1 0.352282 0.648456 0.239409
Si Si2 0.497039 0.259865 0.502258
Si Si3 0.500000 0.799470 0.250000
Si Si4 0.318059 0.521381 0.045847
Si Si5 0.969068 0.608554 0.149166
Si Si6 0.359974 0.568263 0.590637
O O1 0.501298 0.688545 0.033302
O O2 0.208960 0.668971 0.499156
O O3 0.179424 0.633877 0.303697
O O4 0.501452 0.606031 0.119829
O O5 0.747253 0.247657 0.192552
O O6 0.470513 0.231296 0.658122
O O7 0.500000 0.517899 0.750000
O O8 0.447641 0.540665 0.033791
O O9 0.148271 0.561637 0.196800
O O10 0.222983 0.471508 0.162441
O O11 0.000000 0.633013 0.250000
O O12 0.203728 0.594725 0.845879
#
# Coordination Sequence:
#
# PCOD9275250 Si02
#       6
#     8   8   4   8   8   8
#     4  10  23  37  62  97 123 164 217 263 327 396
#     4  10  21  40  66  94 134 177 204 256 340 419
#     4  10  22  44  66  98 138 170 202 266 352 412
#     4  10  20  39  58  85 119 168 208 261 334 385
#     4  11  22  40  63  84 125 173 220 269 320 388
#     4  10  22  37  60  88 120 159 221 269 311 386
#
# _framework density 23.180848999999998
#
# number of rings (size 3 to 8) (size 9 to 14) (size 15 to 20)
#    0.000    1.818    1.818    2.727    5.091    1.455 
#    1.636    0.000    0.000    4.364    0.000    0.000 
#    0.000    0.000    0.000    0.000    0.000    0.000 
#
# Total GULP energy -122763.893019 kJ/mol
# GULP energy per Si atom -5580.176955 kJ/mol
# Density = 2.312809 g / cm^3
# Si number density = 23.180849 Si / 1000 Ang^3
#
#
#
# Elastic Constant Matrix: (Units=GPa)
#
#
# Indices 1 2 3 4 5 6 
#
# 1 67.1695 25.5382 13.8835 0.0000 -7.5472 0.0000
# 2 25.5382 129.9522 22.3724 0.0000 4.2202 0.0000
# 3 13.8835 22.3724 64.5639 0.0000 -9.3986 0.0000
# 4 0.0000 0.0000 0.0000 -35.7000 0.0000 29.3073
# 5 -7.5472 4.2202 -9.3986 0.0000 25.2198 0.0000
# 6 0.0000 0.0000 0.0000 29.3073 0.0000 3.5575
#
#
#
# Elastic Compliance Matrix: (Units=1/GPa)
#
#
# Indices 1 2 3 4 5 6 
#
# 1 0.017037 -0.003193 -0.001837 0.000000 0.004948 0.000000
# 2 -0.003193 0.008942 -0.002928 0.000000 -0.003543 0.000000
# 3 -0.001837 -0.002928 0.017858 0.000000 0.006595 0.000000
# 4 0.000000 0.000000 0.000000 -0.003608 0.000000 0.029726
# 5 0.004948 -0.003543 0.006595 0.000000 0.044183 0.000000
# 6 0.000000 0.000000 0.000000 0.029726 0.000000 0.036210
#
#
# Mechanical properties :
#
#
# Convention : Reuss Voigt Hill
#
# Bulk Modulus (GPa) = 35.81336 42.80819 39.31077
# Shear Modulus (GPa) = 34.28338 11.94155 23.11246
#
# Velocity S-wave (km/s) = 3.84989 2.27215 3.16104
# Velocity P-wave (km/s) = 5.93677 5.03892 5.50618
#
# Compressibility (1/GPa) = 0.02792254
#
# Stress axis : x y z
#
# Youngs Moduli (GPa) = 58.69493 111.83674 55.99698
#
# Poissons Ratio (x) = 0.35705 0.10287
# Poissons Ratio (y) = 0.18739 0.16394
# Poissons Ratio (z) = 0.10782 0.32741
#
# Static dielectric constant tensor:
#      x y z
#    x 1.954010 0.000000 -0.026200 
#    y 0.000000 1.889560 0.000000 
#    z -0.026200 0.000000 1.783370 
# 
# From -- ./inp_files/101036.got.cif
#   From: 2010.05.17/outbox.cif.g08.bks.cpg/sg15_51_cif.got.tgz:101036.got - 2010.06.03 18:47:42.
