data_PCOD9275071
_publ_section_title
;
Structure prediction by ZEFSAII (Michael W. Deem and Ramdas Pophale) SiO2 
 PCOD9275071
Probable space group: C 2/C
;
_chemical_formula_sum "Si O2"
_cell_formula_units_Z 52
_cell_length_a 8.234683
_cell_length_b 28.866282
_cell_length_c 16.609197
_cell_angle_alpha 90.000000
_cell_angle_beta 139.228690
_cell_angle_gamma 90.000000
_cell_volume 2578.262497
_symmetry_space_group_name_H-M "C 2/C"
_symmetry_group_IT_number 15
_symmetry_cell_setting 'monoclinic'
loop_
_space_group_symop_operation_xyz
x,y,z
-x,y,1/2-z
-x,-y,-z
x,-y,1/2+z
1/2+x,1/2+y,z
1/2-x,1/2+y,1/2-z
1/2-x,1/2-y,-z
1/2+x,1/2-y,1/2+z
loop_
_atom_site_type_symbol
_atom_site_label
_atom_site_fract_x
_atom_site_fract_y
_atom_site_fract_z
Si Si1 0.558394 0.347825 0.583552
Si Si2 0.405611 0.263191 0.804933
Si Si3 0.129027 0.700591 0.437087
Si Si4 0.699239 0.004723 0.396959
Si Si5 0.298042 0.170104 0.860628
Si Si6 0.000000 0.590022 0.250000
Si Si7 0.925863 0.407518 0.127875
O O1 0.455115 0.304589 0.596356
O O2 0.690150 0.326297 0.554846
O O3 0.779058 0.379244 0.703947
O O4 0.334462 0.381217 0.478277
O O5 0.500000 0.256362 0.750000
O O6 0.393494 0.214801 0.846656
O O7 0.131186 0.285484 0.699556
O O8 0.250000 0.750000 0.500000
O O9 0.102998 0.674142 0.511351
O O10 0.500000 0.995337 0.250000
O O11 0.618517 0.960459 0.419956
O O12 0.630222 0.059432 0.370890
O O13 0.000000 0.000000 0.500000
O O14 0.380004 0.122497 0.849914
O O15 0.000000 0.173448 0.750000
O O16 0.000000 0.404862 0.250000
#
# Coordination Sequence:
#
# PCOD9275071 Si02
#       7
#     8   8   8   8   8   4   8
#     4  12  22  42  65  92 124 172 219 255 322 390
#     4  12  25  39  59  90 128 168 216 262 311 383
#     4  12  23  39  59  85 126 175 210 256 309 378
#     4   9  18  36  61  96 123 155 210 270 318 379
#     4  12  24  40  58  87 133 170 208 262 320 380
#     4  10  20  38  68  92 124 168 212 260 314 390
#     4  11  23  37  64  98 121 160 214 266 325 382
#
# _framework density 20.168621000000002
#
# number of rings (size 3 to 8) (size 9 to 14) (size 15 to 20)
#    0.462    0.308    6.154    2.308    2.154    1.231 
#    0.000    0.000    0.000    1.846    0.000    0.000 
#    0.000    0.000    0.000    0.000    0.000    0.000 
#
# Total GULP energy -144804.728816 kJ/mol
# GULP energy per Si atom -5569.412647 kJ/mol
# Density = 2.012272 g / cm^3
# Si number density = 20.168621 Si / 1000 Ang^3
#
#
#
# Elastic Constant Matrix: (Units=GPa)
#
#
# Indices 1 2 3 4 5 6 
#
# 1 81.2672 36.1354 18.2268 0.0000 -5.5430 0.0000
# 2 36.1354 126.1521 16.2599 0.0000 4.0718 0.0000
# 3 18.2268 16.2599 70.3930 0.0000 21.5876 0.0000
# 4 0.0000 0.0000 0.0000 20.7232 0.0000 -5.8773
# 5 -5.5430 4.0718 21.5876 0.0000 38.7422 0.0000
# 6 0.0000 0.0000 0.0000 -5.8773 0.0000 21.8708
#
#
#
# Elastic Compliance Matrix: (Units=1/GPa)
#
#
# Indices 1 2 3 4 5 6 
#
# 1 0.015498 -0.004003 -0.004700 0.000000 0.005257 0.000000
# 2 -0.004003 0.009206 -0.000745 0.000000 -0.001125 0.000000
# 3 -0.004700 -0.000745 0.019029 0.000000 -0.011197 0.000000
# 4 0.000000 0.000000 0.000000 0.052236 0.000000 0.014037
# 5 0.005257 -0.001125 -0.011197 0.000000 0.032921 0.000000
# 6 0.000000 0.000000 0.000000 0.014037 0.000000 0.049495
#
#
# Mechanical properties :
#
#
# Convention : Reuss Voigt Hill
#
# Bulk Modulus (GPa) = 40.26401 46.56182 43.41292
# Shear Modulus (GPa) = 24.32369 30.07995 27.20182
#
# Velocity S-wave (km/s) = 3.47654 3.86608 3.67648
# Velocity P-wave (km/s) = 6.01017 6.56241 6.29235
#
# Compressibility (1/GPa) = 0.02483607
#
# Stress axis : x y z
#
# Youngs Moduli (GPa) = 64.52507 108.62577 52.55131
#
# Poissons Ratio (x) = 0.43484 0.24701
# Poissons Ratio (y) = 0.25830 0.03914
# Poissons Ratio (z) = 0.30329 0.08091
#
# Static dielectric constant tensor:
#      x y z
#    x 1.689580 0.000000 -0.012580 
#    y 0.000000 1.853480 0.000000 
#    z -0.012580 0.000000 1.845800 
# 
# From -- ./inp_files/193779.got.cif
#   From: 2010.05.17/outbox.cif.g08.bks.cpg/sg15_97_cif.got.tgz:193779.got - 2010.06.03 18:47:42.
