data_PCOD9275689
_publ_section_title
;
Structure prediction by ZEFSAII (Michael W. Deem and Ramdas Pophale) SiO2 
 PCOD9275689
Probable space group: C 2/C
;
_chemical_formula_sum "Si O2"
_cell_formula_units_Z 48
_cell_length_a 21.071398
_cell_length_b 7.968026
_cell_length_c 16.362529
_cell_angle_alpha 90.000000
_cell_angle_beta 129.960259
_cell_angle_gamma 90.000000
_cell_volume 2105.722191
_symmetry_space_group_name_H-M "C 2/C"
_symmetry_group_IT_number 15
_symmetry_cell_setting 'monoclinic'
loop_
_space_group_symop_operation_xyz
x,y,z
-x,y,1/2-z
-x,-y,-z
x,-y,1/2+z
1/2+x,1/2+y,z
1/2-x,1/2+y,1/2-z
1/2-x,1/2-y,-z
1/2+x,1/2-y,1/2+z
loop_
_atom_site_type_symbol
_atom_site_label
_atom_site_fract_x
_atom_site_fract_y
_atom_site_fract_z
Si Si1 0.514652 0.525594 0.669943
Si Si2 0.339905 0.111534 0.318410
Si Si3 0.935587 0.406285 0.756187
Si Si4 0.140491 0.820865 0.004672
Si Si5 0.802011 0.053334 0.699243
Si Si6 0.709647 0.970102 0.454951
O O1 0.500000 0.467435 0.750000
O O2 0.522191 0.729250 0.682214
O O3 0.435568 0.449963 0.559797
O O4 0.606573 0.473095 0.718411
O O5 0.405682 0.011795 0.316670
O O6 0.372191 0.209560 0.424976
O O7 0.312000 0.255086 0.232908
O O8 0.262182 0.015306 0.288552
O O9 0.856382 0.395109 0.630303
O O10 0.000000 0.497401 0.750000
O O11 0.155788 0.689575 0.942409
O O12 0.227953 0.919809 0.066803
O O13 0.764534 0.025099 0.578122
#
# Coordination Sequence:
#
# PCOD9275689 Si02
#       6
#     8   8   8   8   8   8
#     4  10  20  39  63  96 127 163 218 260 310 385
#     4  10  22  41  61  94 131 166 216 261 321 377
#     4  10  23  42  60  93 130 165 215 265 317 379
#     4  10  21  40  67  95 129 169 213 263 320 382
#     4  10  21  40  64  93 130 170 212 261 313 385
#     4  10  21  41  65  94 130 173 212 255 326 387
#
# _framework density 22.795029
#
# number of rings (size 3 to 8) (size 9 to 14) (size 15 to 20)
#    0.000    2.000    1.667    1.000    0.000    6.000 
#   12.000    1.667    0.000    0.000    0.000    0.000 
#    0.000    0.000    0.000    0.000    0.000    0.000 
#
# Total GULP energy -133749.671260 kJ/mol
# GULP energy per Si atom -5572.902969 kJ/mol
# Density = 2.274315 g / cm^3
# Si number density = 22.795029 Si / 1000 Ang^3
#
#
#
# Elastic Constant Matrix: (Units=GPa)
#
#
# Indices 1 2 3 4 5 6 
#
# 1 195.7378 5.5598 46.7138 0.0000 -3.6526 0.0000
# 2 5.5598 42.6292 18.2979 0.0000 12.7908 0.0000
# 3 46.7138 18.2979 60.5033 0.0000 16.3007 0.0000
# 4 0.0000 0.0000 0.0000 15.6274 0.0000 10.9033
# 5 -3.6526 12.7908 16.3007 0.0000 34.4565 0.0000
# 6 0.0000 0.0000 0.0000 10.9033 0.0000 24.0809
#
#
#
# Elastic Compliance Matrix: (Units=1/GPa)
#
#
# Indices 1 2 3 4 5 6 
#
# 1 0.006650 0.000820 -0.006293 0.000000 0.003377 0.000000
# 2 0.000820 0.028640 -0.007397 0.000000 -0.007045 0.000000
# 3 -0.006293 -0.007397 0.026432 0.000000 -0.010426 0.000000
# 4 0.000000 0.000000 0.000000 0.093540 0.000000 -0.042353
# 5 0.003377 -0.007045 -0.010426 0.000000 0.036928 0.000000
# 6 0.000000 0.000000 0.000000 -0.042353 0.000000 0.060703
#
#
# Mechanical properties :
#
#
# Convention : Reuss Voigt Hill
#
# Bulk Modulus (GPa) = 27.78965 48.89037 38.34001
# Shear Modulus (GPa) = 17.20423 30.05288 23.62855
#
# Velocity S-wave (km/s) = 2.75023 3.63491 3.22307
# Velocity P-wave (km/s) = 4.72256 6.25389 5.54138
#
# Compressibility (1/GPa) = 0.03598462
#
# Stress axis : x y z
#
# Youngs Moduli (GPa) = 150.36739 34.91625 37.83236
#
# Poissons Ratio (x) = -0.02864 0.23807
# Poissons Ratio (y) = -0.12334 0.27983
# Poissons Ratio (z) = 0.94621 0.25826
#
# Static dielectric constant tensor:
#      x y z
#    x 2.052760 0.000000 0.031470 
#    y 0.000000 1.897790 0.000000 
#    z 0.031470 0.000000 1.881000 
# 
# From -- ./inp_files/214075.got.cif
#   From: 2010.05.17/outbox.cif.g08.bks.cpg/sg15_108_cif.got.tgz:214075.got - 2010.06.03 18:47:42.
