data_PCOD9275776
_publ_section_title
;
Structure prediction by ZEFSAII (Michael W. Deem and Ramdas Pophale) SiO2 
 PCOD9275776
Probable space group: C 2/C
;
_chemical_formula_sum "Si O2"
_cell_formula_units_Z 64
_cell_length_a 9.967545
_cell_length_b 12.377412
_cell_length_c 23.107786
_cell_angle_alpha 90.000000
_cell_angle_beta 80.875888
_cell_angle_gamma 90.000000
_cell_volume 2814.791760
_symmetry_space_group_name_H-M "C 2/C"
_symmetry_group_IT_number 15
_symmetry_cell_setting 'monoclinic'
loop_
_space_group_symop_operation_xyz
x,y,z
-x,y,1/2-z
-x,-y,-z
x,-y,1/2+z
1/2+x,1/2+y,z
1/2-x,1/2+y,1/2-z
1/2-x,1/2-y,-z
1/2+x,1/2-y,1/2+z
loop_
_atom_site_type_symbol
_atom_site_label
_atom_site_fract_x
_atom_site_fract_y
_atom_site_fract_z
Si Si1 0.891131 0.391833 0.355979
Si Si2 0.653321 0.454111 0.921984
Si Si3 0.739443 0.734259 0.628982
Si Si4 0.224932 0.860749 0.256622
Si Si5 0.267225 0.281012 0.933199
Si Si6 0.111601 0.461664 0.792942
Si Si7 0.655673 0.525479 0.560708
Si Si8 0.564611 0.750135 0.852720
O O1 0.775761 0.476475 0.385155
O O2 0.843466 0.346656 0.296749
O O3 0.889336 0.289898 0.398348
O O4 0.031873 0.454518 0.339738
O O5 0.663367 0.330272 0.899009
O O6 0.506748 0.508222 0.918011
O O7 0.671005 0.454961 0.990619
O O8 0.745339 0.708126 0.697195
O O9 0.723813 0.623237 0.592471
O O10 0.588792 0.782863 0.630439
O O11 0.250949 0.983871 0.237471
O O12 0.088865 0.840354 0.302493
O O13 0.280989 0.409300 0.927694
O O14 0.136301 0.234841 0.908460
O O15 0.250000 0.250000 0.000000
O O16 0.143551 0.350121 0.819723
O O17 0.000000 0.442126 0.750000
#
# Coordination Sequence:
#
# PCOD9275776 Si02
#       8
#     8   8   8   8   8   8   8   8
#     4  10  21  43  66  95 130 180 223 270 346 407
#     4  11  24  44  71  96 138 182 221 285 349 403
#     4  12  24  44  68 104 135 180 232 280 350 423
#     4  10  23  37  65  97 132 171 219 279 338 409
#     4  11  23  43  66  92 132 176 226 286 338 400
#     4  10  20  39  64  93 133 170 220 273 328 414
#     4  11  25  44  67  99 137 177 230 287 338 415
#     4  11  23  41  66  95 132 178 221 278 343 414
#
# _framework density 22.737027000000001
#
# number of rings (size 3 to 8) (size 9 to 14) (size 15 to 20)
#    0.000    1.250    2.500    3.750    5.250    0.000 
#    0.000    1.250    0.000    0.000    0.000    0.000 
#    0.000    0.000    0.000    0.000    0.000    0.000 
#
# Total GULP energy -178753.258740 kJ/mol
# GULP energy per Si atom -5586.039336 kJ/mol
# Density = 2.268528 g / cm^3
# Si number density = 22.737027 Si / 1000 Ang^3
#
#
#
# Elastic Constant Matrix: (Units=GPa)
#
#
# Indices 1 2 3 4 5 6 
#
# 1 71.1358 24.6091 33.1856 0.0000 0.9328 0.0000
# 2 24.6091 135.8659 53.8184 0.0000 7.9981 0.0000
# 3 33.1856 53.8184 136.2932 0.0000 24.0313 0.0000
# 4 0.0000 0.0000 0.0000 37.6935 0.0000 -5.8126
# 5 0.9328 7.9981 24.0313 0.0000 25.7920 0.0000
# 6 0.0000 0.0000 0.0000 -5.8126 0.0000 32.0896
#
#
#
# Elastic Compliance Matrix: (Units=1/GPa)
#
#
# Indices 1 2 3 4 5 6 
#
# 1 0.016435 -0.001602 -0.004011 0.000000 0.003639 0.000000
# 2 -0.001602 0.008889 -0.003164 0.000000 0.000249 0.000000
# 3 -0.004011 -0.003164 0.011205 0.000000 -0.009314 0.000000
# 4 0.000000 0.000000 0.000000 0.027292 0.000000 0.004944
# 5 0.003639 0.000249 -0.009314 0.000000 0.047241 0.000000
# 6 0.000000 0.000000 0.000000 0.004944 0.000000 0.032058
#
#
# Mechanical properties :
#
#
# Convention : Reuss Voigt Hill
#
# Bulk Modulus (GPa) = 52.69916 62.94678 57.82297
# Shear Modulus (GPa) = 29.94012 34.56049 32.25030
#
# Velocity S-wave (km/s) = 3.63271 3.90296 3.77026
# Velocity P-wave (km/s) = 6.38932 6.93221 6.66630
#
# Compressibility (1/GPa) = 0.01897563
#
# Stress axis : x y z
#
# Youngs Moduli (GPa) = 60.84468 112.49862 89.24370
#
# Poissons Ratio (x) = 0.18027 0.35793
# Poissons Ratio (y) = 0.09750 0.28235
# Poissons Ratio (z) = 0.24403 0.35592
#
# Static dielectric constant tensor:
#      x y z
#    x 1.883950 0.000000 -0.009910 
#    y 0.000000 1.908800 0.000000 
#    z -0.009910 0.000000 1.882580 
# 
# From -- ./inp_files/269258.got.cif
#   From: 2010.05.17/outbox.cif.g08.bks.cpg/sg15_135_cif.got.tgz:269258.got - 2010.06.03 18:47:42.
