data_PCOD9275741
_publ_section_title
;
Structure prediction by ZEFSAII (Michael W. Deem and Ramdas Pophale) SiO2 
 PCOD9275741
Probable space group: C 2/C
;
_chemical_formula_sum "Si O2"
_cell_formula_units_Z 52
_cell_length_a 8.048898
_cell_length_b 20.546042
_cell_length_c 15.067823
_cell_angle_alpha 90.000000
_cell_angle_beta 71.576003
_cell_angle_gamma 90.000000
_cell_volume 2364.090089
_symmetry_space_group_name_H-M "C 2/C"
_symmetry_group_IT_number 15
_symmetry_cell_setting 'monoclinic'
loop_
_space_group_symop_operation_xyz
x,y,z
-x,y,1/2-z
-x,-y,-z
x,-y,1/2+z
1/2+x,1/2+y,z
1/2-x,1/2+y,1/2-z
1/2-x,1/2-y,-z
1/2+x,1/2-y,1/2+z
loop_
_atom_site_type_symbol
_atom_site_label
_atom_site_fract_x
_atom_site_fract_y
_atom_site_fract_z
Si Si1 0.500000 0.896838 0.750000
Si Si2 0.390010 0.436732 0.048521
Si Si3 0.419575 0.183540 0.408086
Si Si4 0.494521 0.006513 0.893518
Si Si5 0.793712 0.675418 0.013950
Si Si6 0.876279 0.164718 0.898931
Si Si7 0.903036 0.638753 0.674776
O O1 0.628895 0.846172 0.678956
O O2 0.536905 0.944928 0.825875
O O3 0.198716 0.466893 0.100703
O O4 0.351060 0.379523 0.982246
O O5 0.485898 0.393285 0.107957
O O6 0.500000 0.500000 0.000000
O O7 0.616451 0.166268 0.406228
O O8 0.277596 0.154678 0.500960
O O9 0.429757 0.261444 0.409476
O O10 0.624212 0.062823 0.840600
O O11 0.500000 0.000000 0.000000
O O12 0.953134 0.661806 0.919919
O O13 0.750000 0.750000 0.000000
O O14 0.782937 0.168639 0.818747
O O15 0.000000 0.650398 0.750000
#
# Coordination Sequence:
#
# PCOD9275741 Si02
#       7
#     4   8   8   8   8   8   8
#     4  12  22  40  66  94 130 178 240 266 344 426
#     4  11  21  37  68  98 128 173 230 281 344 409
#     4  10  22  39  65  95 129 179 224 286 338 419
#     4  11  23  43  67  93 132 180 220 281 349 415
#     4  10  20  39  64  89 129 176 219 269 342 407
#     4  10  21  41  66  95 131 175 231 277 350 405
#     4  10  21  39  62  90 126 174 211 267 337 401
#
# _framework density 21.995777
#
# number of rings (size 3 to 8) (size 9 to 14) (size 15 to 20)
#    0.000    1.538    2.308    4.615    0.000    1.231 
#    0.000    0.000    0.000    5.538    0.000    0.000 
#    0.000    0.000    0.000    0.000    0.000    0.000 
#
# Total GULP energy -144781.288809 kJ/mol
# GULP energy per Si atom -5568.511108 kJ/mol
# Density = 2.194571 g / cm^3
# Si number density = 21.995777 Si / 1000 Ang^3
#
#
#
# Elastic Constant Matrix: (Units=GPa)
#
#
# Indices 1 2 3 4 5 6 
#
# 1 81.6354 39.2822 30.7125 0.0000 34.9981 0.0000
# 2 39.2822 133.8819 25.6093 0.0000 11.3177 0.0000
# 3 30.7125 25.6093 102.6141 0.0000 24.7286 0.0000
# 4 0.0000 0.0000 0.0000 33.8775 0.0000 2.8275
# 5 34.9981 11.3177 24.7286 0.0000 31.0669 0.0000
# 6 0.0000 0.0000 0.0000 2.8275 0.0000 29.1576
#
#
#
# Elastic Compliance Matrix: (Units=1/GPa)
#
#
# Indices 1 2 3 4 5 6 
#
# 1 0.027189 -0.005583 0.000182 0.000000 -0.028740 0.000000
# 2 -0.005583 0.009055 -0.001620 0.000000 0.004280 0.000000
# 3 0.000182 -0.001620 0.012376 0.000000 -0.009466 0.000000
# 4 0.000000 0.000000 0.000000 0.029759 0.000000 -0.002886
# 5 -0.028740 0.004280 -0.009466 0.000000 0.070541 0.000000
# 6 0.000000 0.000000 0.000000 -0.002886 0.000000 0.034576
#
#
# Mechanical properties :
#
#
# Convention : Reuss Voigt Hill
#
# Bulk Modulus (GPa) = 28.92053 56.59326 42.75689
# Shear Modulus (GPa) = 23.91596 33.65557 28.78577
#
# Velocity S-wave (km/s) = 3.30100 3.91588 3.62151
# Velocity P-wave (km/s) = 5.26361 6.79930 6.08013
#
# Compressibility (1/GPa) = 0.03457752
#
# Stress axis : x y z
#
# Youngs Moduli (GPa) = 36.77985 110.43108 80.79905
#
# Poissons Ratio (x) = 0.61650 -0.01467
# Poissons Ratio (y) = 0.20533 0.13093
# Poissons Ratio (z) = -0.00668 0.17895
#
# Static dielectric constant tensor:
#      x y z
#    x 1.884230 0.000000 0.056600 
#    y 0.000000 0.996900 0.000000 
#    z 0.056600 0.000000 1.927840 
# 
# From -- ./inp_files/136063.got.cif
#   From: 2010.05.17/outbox.cif.g08.bks.cpg/sg15_69_cif.got.tgz:136063.got - 2010.06.03 18:47:42.
