data_PCOD9275061
_publ_section_title
;
Structure prediction by ZEFSAII (Michael W. Deem and Ramdas Pophale) SiO2 
 PCOD9275061
Probable space group: C 2/C
;
_chemical_formula_sum "Si O2"
_cell_formula_units_Z 60
_cell_length_a 13.541722
_cell_length_b 9.321874
_cell_length_c 23.092931
_cell_angle_alpha 90.000000
_cell_angle_beta 97.630721
_cell_angle_gamma 90.000000
_cell_volume 2889.303400
_symmetry_space_group_name_H-M "C 2/C"
_symmetry_group_IT_number 15
_symmetry_cell_setting 'monoclinic'
loop_
_space_group_symop_operation_xyz
x,y,z
-x,y,1/2-z
-x,-y,-z
x,-y,1/2+z
1/2+x,1/2+y,z
1/2-x,1/2+y,1/2-z
1/2-x,1/2-y,-z
1/2+x,1/2-y,1/2+z
loop_
_atom_site_type_symbol
_atom_site_label
_atom_site_fract_x
_atom_site_fract_y
_atom_site_fract_z
Si Si1 0.389732 0.705244 0.635984
Si Si2 0.469025 0.776249 0.415884
Si Si3 0.858722 0.807946 0.500795
Si Si4 0.682199 0.083918 0.216530
Si Si5 0.000000 0.773219 0.250000
Si Si6 0.158404 0.862851 0.493877
Si Si7 0.187725 0.254366 0.192228
Si Si8 0.062649 0.387185 0.596840
O O1 0.456219 0.638191 0.692743
O O2 0.374614 0.622179 0.575399
O O3 0.281062 0.741257 0.653795
O O4 0.461581 0.836222 0.621483
O O5 0.580471 0.722741 0.435273
O O6 0.414866 0.710232 0.466997
O O7 0.411226 0.728917 0.353283
O O8 0.456201 0.947684 0.419994
O O9 0.750000 0.750000 0.500000
O O10 0.912368 0.716975 0.454169
O O11 0.840733 0.973999 0.484545
O O12 0.591216 0.168409 0.240213
O O13 0.780565 0.143562 0.255400
O O14 0.657653 0.117237 0.147569
O O15 0.679270 0.912332 0.219830
O O16 0.250000 0.750000 0.500000
#
# Coordination Sequence:
#
# PCOD9275061 Si02
#       8
#     8   8   8   8   4   8   8   8
#     4  10  20  38  68  90 123 167 208 252 319 377
#     4  11  23  41  65  95 129 165 214 269 323 374
#     4  12  27  40  62  94 129 170 220 263 322 393
#     4   9  20  39  64  92 122 164 212 256 314 377
#     4   8  18  40  62  88 114 168 208 248 308 382
#     4  12  24  41  63  92 129 166 210 266 326 383
#     4  10  21  40  67  94 128 165 209 263 315 383
#     4  10  22  42  67  92 130 171 214 259 318 392
#
# _framework density 20.766251
#
# number of rings (size 3 to 8) (size 9 to 14) (size 15 to 20)
#    0.000    1.600    2.667    1.600    3.733    1.067 
#    4.800    0.000    0.000    0.000    0.000    0.000 
#    0.000    0.000    0.000    0.000    0.000    0.000 
#
# Total GULP energy -167169.312372 kJ/mol
# GULP energy per Si atom -5572.310412 kJ/mol
# Density = 2.071899 g / cm^3
# Si number density = 20.766251 Si / 1000 Ang^3
#
#
#
# Elastic Constant Matrix: (Units=GPa)
#
#
# Indices 1 2 3 4 5 6 
#
# 1 73.2298 27.1717 15.7613 0.0000 41.4023 0.0000
# 2 27.1717 74.7192 29.9678 0.0000 10.5939 0.0000
# 3 15.7613 29.9678 80.0405 0.0000 38.7417 0.0000
# 4 0.0000 0.0000 0.0000 25.7550 0.0000 4.2055
# 5 41.4023 10.5939 38.7417 0.0000 31.2647 0.0000
# 6 0.0000 0.0000 0.0000 4.2055 0.0000 15.7257
#
#
#
# Elastic Compliance Matrix: (Units=1/GPa)
#
#
# Indices 1 2 3 4 5 6 
#
# 1 -0.026810 0.013702 -0.036950 0.000000 0.076648 0.000000
# 2 0.013702 0.009055 0.010443 0.000000 -0.034153 0.000000
# 3 -0.036950 0.010443 -0.015270 0.000000 0.064316 0.000000
# 4 0.000000 0.000000 0.000000 0.040600 0.000000 -0.010858
# 5 0.076648 -0.034153 0.064316 0.000000 -0.137640 0.000000
# 6 0.000000 0.000000 0.000000 -0.010858 0.000000 0.066494
#
#
# Mechanical properties :
#
#
# Convention : Reuss Voigt Hill
#
# Bulk Modulus (GPa) = -17.05394 41.53233 12.23920
# Shear Modulus (GPa) = -86.94577 24.88834 -31.02872
#
# Velocity S-wave (km/s) = -6.47763 3.46569 -3.86967
# Velocity P-wave (km/s) = 8.01102 6.00483 3.74956
#
# Compressibility (1/GPa) = -0.05863749
#
# Stress axis : x y z
#
# Youngs Moduli (GPa) = -37.29884 110.43959 -65.48574
#
# Poissons Ratio (x) = -1.51325 -2.41973
# Poissons Ratio (y) = 0.51107 0.68385
# Poissons Ratio (z) = -1.37821 -1.15330
#
# Static dielectric constant tensor:
#      x y z
#    x 1.779080 0.000000 0.031690 
#    y 0.000000 1.692240 0.000000 
#    z 0.031690 0.000000 1.811320 
# 
# From -- ./inp_files/272789.got.cif
#   From: 2010.05.17/outbox.cif.g08.bks.cpg/sg15_137_cif.got.tgz:272789.got - 2010.06.03 18:47:42.
