data_PCOD9275302
_publ_section_title
;
Structure prediction by ZEFSAII (Michael W. Deem and Ramdas Pophale) SiO2 
 PCOD9275302
Probable space group: C 2/C
;
_chemical_formula_sum "Si O2"
_cell_formula_units_Z 56
_cell_length_a 19.354792
_cell_length_b 18.321655
_cell_length_c 9.933240
_cell_angle_alpha 90.000000
_cell_angle_beta 124.968507
_cell_angle_gamma 90.000000
_cell_volume 2886.527560
_symmetry_space_group_name_H-M "C 2/C"
_symmetry_group_IT_number 15
_symmetry_cell_setting 'monoclinic'
loop_
_space_group_symop_operation_xyz
x,y,z
-x,y,1/2-z
-x,-y,-z
x,-y,1/2+z
1/2+x,1/2+y,z
1/2-x,1/2+y,1/2-z
1/2-x,1/2-y,-z
1/2+x,1/2-y,1/2+z
loop_
_atom_site_type_symbol
_atom_site_label
_atom_site_fract_x
_atom_site_fract_y
_atom_site_fract_z
Si Si1 0.835077 0.480253 0.878565
Si Si2 0.395810 0.427463 0.244165
Si Si3 0.593784 0.926371 0.810054
Si Si4 0.321241 0.783757 0.482815
Si Si5 0.761451 0.121812 0.814080
Si Si6 0.077998 0.149149 0.979537
Si Si7 0.831069 0.911210 0.681751
O O1 0.893309 0.441493 0.833237
O O2 0.802901 0.554085 0.769470
O O3 0.753185 0.434292 0.831017
O O4 0.879143 0.505566 0.065595
O O5 0.332787 0.397584 0.284570
O O6 0.370520 0.403102 0.065724
O O7 0.485009 0.386964 0.371324
O O8 0.388355 0.514986 0.235570
O O9 0.500000 0.908112 0.750000
O O10 0.651458 0.858871 0.917739
O O11 0.250000 0.750000 0.500000
O O12 0.282846 0.805906 0.294190
O O13 0.400456 0.729206 0.552837
O O14 0.802519 0.120161 0.006696
O O15 0.115223 0.143713 0.168981
#
# Coordination Sequence:
#
# PCOD9275302 Si02
#       7
#     8   8   8   8   8   8   8
#     4  10  20  39  59  95 119 152 205 261 306 368
#     4  10  21  37  61  89 124 158 211 262 308 364
#     4  11  23  38  66  89 122 157 202 260 314 365
#     4  11  23  40  63  88 122 172 213 245 313 391
#     4  10  21  37  63  89 123 162 209 257 313 382
#     4  11  23  37  59  90 127 162 209 257 308 382
#     4  11  21  37  63  91 125 160 206 263 321 354
#
# _framework density 19.400473000000002
#
# number of rings (size 3 to 8) (size 9 to 14) (size 15 to 20)
#    0.000    1.429    2.857    3.429    4.000    2.286 
#    0.000    0.000    0.000    1.714    0.000    0.000 
#    0.000    0.000    0.000    0.000    0.000    0.000 
#
# Total GULP energy -156177.692256 kJ/mol
# GULP energy per Si atom -5577.774723 kJ/mol
# Density = 1.935632 g / cm^3
# Si number density = 19.400473 Si / 1000 Ang^3
#
#
#
# Elastic Constant Matrix: (Units=GPa)
#
#
# Indices 1 2 3 4 5 6 
#
# 1 96.7903 36.2227 29.2776 0.0000 -6.3205 0.0000
# 2 36.2227 58.0987 7.5501 0.0000 -4.1745 0.0000
# 3 29.2776 7.5501 78.1304 0.0000 -8.4475 0.0000
# 4 0.0000 0.0000 0.0000 23.4510 0.0000 6.3531
# 5 -6.3205 -4.1745 -8.4475 0.0000 26.1166 0.0000
# 6 0.0000 0.0000 0.0000 6.3531 0.0000 13.2425
#
#
#
# Elastic Compliance Matrix: (Units=1/GPa)
#
#
# Indices 1 2 3 4 5 6 
#
# 1 0.015078 -0.008734 -0.004728 0.000000 0.000724 0.000000
# 2 -0.008734 0.022627 0.001294 0.000000 0.001922 0.000000
# 3 -0.004728 0.001294 0.014864 0.000000 0.003871 0.000000
# 4 0.000000 0.000000 0.000000 0.049012 0.000000 -0.023514
# 5 0.000724 0.001922 0.003871 0.000000 0.040024 0.000000
# 6 0.000000 0.000000 0.000000 -0.023514 0.000000 0.086795
#
#
# Mechanical properties :
#
#
# Convention : Reuss Voigt Hill
#
# Bulk Modulus (GPa) = 35.41863 42.12446 38.77155
# Shear Modulus (GPa) = 19.07327 23.22661 21.14994
#
# Velocity S-wave (km/s) = 3.13890 3.46384 3.30536
# Velocity P-wave (km/s) = 5.60653 6.14474 5.88179
#
# Compressibility (1/GPa) = 0.02823373
#
# Stress axis : x y z
#
# Youngs Moduli (GPa) = 66.32396 44.19434 67.27596
#
# Poissons Ratio (x) = 0.38599 0.31806
# Poissons Ratio (y) = 0.57927 -0.08706
# Poissons Ratio (z) = 0.31356 -0.05719
#
# Static dielectric constant tensor:
#      x y z
#    x 1.692480 0.000000 0.029320 
#    y 0.000000 1.691590 0.000000 
#    z 0.029320 0.000000 1.712230 
# 
# From -- ./inp_files/57578.got.cif
#   From: 2010.05.17/outbox.cif.g08.bks.cpg/sg15_29_cif.got.tgz:57578.got - 2010.06.03 18:47:42.
