data_PCOD9275931
_publ_section_title
;
Structure prediction by ZEFSAII (Michael W. Deem and Ramdas Pophale) SiO2 
 PCOD9275931
Probable space group: C 2/C
;
_chemical_formula_sum "Si O2"
_cell_formula_units_Z 48
_cell_length_a 7.772029
_cell_length_b 17.838614
_cell_length_c 18.946114
_cell_angle_alpha 90.000000
_cell_angle_beta 125.901877
_cell_angle_gamma 90.000000
_cell_volume 2127.711358
_symmetry_space_group_name_H-M "C 2/C"
_symmetry_group_IT_number 15
_symmetry_cell_setting 'monoclinic'
loop_
_space_group_symop_operation_xyz
x,y,z
-x,y,1/2-z
-x,-y,-z
x,-y,1/2+z
1/2+x,1/2+y,z
1/2-x,1/2+y,1/2-z
1/2-x,1/2-y,-z
1/2+x,1/2-y,1/2+z
loop_
_atom_site_type_symbol
_atom_site_label
_atom_site_fract_x
_atom_site_fract_y
_atom_site_fract_z
Si Si1 0.560313 0.428560 0.584989
Si Si2 0.193613 0.063268 0.963509
Si Si3 0.944284 0.342690 0.878925
Si Si4 0.606814 0.282887 0.901991
Si Si5 0.500000 0.176347 0.750000
Si Si6 0.500000 0.925077 0.750000
Si Si7 0.028209 0.180313 0.674200
O O1 0.361377 0.476969 0.565095
O O2 0.544224 0.424760 0.496443
O O3 0.558632 0.341790 0.606616
O O4 0.786213 0.462942 0.666008
O O5 0.134545 0.115378 0.884743
O O6 0.409628 0.097508 0.045398
O O7 0.743857 0.330493 0.879563
O O8 0.911496 0.377334 0.794182
O O9 0.019740 0.256739 0.881488
O O10 0.513572 0.220678 0.827934
O O11 0.750000 0.250000 0.000000
O O12 0.258134 0.147942 0.703332
O O13 0.000000 0.196875 0.750000
#
# Coordination Sequence:
#
# PCOD9275931 Si02
#       7
#     8   8   8   8   4   4   8
#     4  10  21  41  62  89 129 159 211 252 322 383
#     4  10  23  39  61  92 121 168 202 260 320 385
#     4  10  21  39  64  88 122 164 214 254 319 378
#     4  11  23  39  64  94 124 165 211 269 318 375
#     4  10  24  39  60  95 124 164 216 266 326 373
#     4  10  20  39  66  87 122 172 204 262 312 381
#     4  11  22  39  62  92 128 164 215 266 314 380
#
# _framework density 22.559452
#
# number of rings (size 3 to 8) (size 9 to 14) (size 15 to 20)
#    0.000    1.667    0.833    4.500    4.667    1.333 
#    4.500    1.667    0.000    0.000    0.000    0.000 
#    0.000    0.000    0.000    0.000    0.000    0.000 
#
# Total GULP energy -133608.873582 kJ/mol
# GULP energy per Si atom -5567.036399 kJ/mol
# Density = 2.250811 g / cm^3
# Si number density = 22.559452 Si / 1000 Ang^3
#
#
#
# Elastic Constant Matrix: (Units=GPa)
#
#
# Indices 1 2 3 4 5 6 
#
# 1 51.3997 0.6228 6.8279 0.0000 -5.7235 0.0000
# 2 0.6228 23.4755 14.2409 0.0000 0.5944 0.0000
# 3 6.8279 14.2409 112.7971 0.0000 5.7951 0.0000
# 4 0.0000 0.0000 0.0000 23.8196 0.0000 19.0494
# 5 -5.7235 0.5944 5.7951 0.0000 32.8285 0.0000
# 6 0.0000 0.0000 0.0000 19.0494 0.0000 54.2862
#
#
#
# Elastic Compliance Matrix: (Units=1/GPa)
#
#
# Indices 1 2 3 4 5 6 
#
# 1 0.020061 0.000245 -0.001438 0.000000 0.003747 0.000000
# 2 0.000245 0.046135 -0.005852 0.000000 0.000240 0.000000
# 3 -0.001438 -0.005852 0.009788 0.000000 -0.001872 0.000000
# 4 0.000000 0.000000 0.000000 0.058360 0.000000 -0.020479
# 5 0.003747 0.000240 -0.001872 0.000000 0.031441 0.000000
# 6 0.000000 0.000000 0.000000 -0.020479 0.000000 0.025607
#
#
# Mechanical properties :
#
#
# Convention : Reuss Voigt Hill
#
# Bulk Modulus (GPa) = 16.15661 25.67282 20.91471
# Shear Modulus (GPa) = 22.11302 33.25223 27.68263
#
# Velocity S-wave (km/s) = 3.13423 3.84341 3.50679
# Velocity P-wave (km/s) = 4.50280 5.57679 5.06832
#
# Compressibility (1/GPa) = 0.06189418
#
# Stress axis : x y z
#
# Youngs Moduli (GPa) = 49.84890 21.67552 102.17096
#
# Poissons Ratio (x) = -0.00531 0.14690
# Poissons Ratio (y) = -0.01222 0.59789
# Poissons Ratio (z) = 0.07167 0.12684
#
# Static dielectric constant tensor:
#      x y z
#    x 1.616690 0.000000 -0.070170 
#    y 0.000000 1.932380 0.000000 
#    z -0.070170 0.000000 1.720650 
# 
# From -- ./inp_files/190670.got.cif
#   From: 2010.05.17/outbox.cif.g08.bks.cpg/sg15_96_cif.got.tgz:190670.got - 2010.06.03 18:47:42.
