data_PCOD9275720
_publ_section_title
;
Structure prediction by ZEFSAII (Michael W. Deem and Ramdas Pophale) SiO2 
 PCOD9275720
Probable space group: C 2/C
;
_chemical_formula_sum "Si O2"
_cell_formula_units_Z 48
_cell_length_a 5.161900
_cell_length_b 29.516266
_cell_length_c 13.746370
_cell_angle_alpha 90.000000
_cell_angle_beta 68.843550
_cell_angle_gamma 90.000000
_cell_volume 1953.231400
_symmetry_space_group_name_H-M "C 2/C"
_symmetry_group_IT_number 15
_symmetry_cell_setting 'monoclinic'
loop_
_space_group_symop_operation_xyz
x,y,z
-x,y,1/2-z
-x,-y,-z
x,-y,1/2+z
1/2+x,1/2+y,z
1/2-x,1/2+y,1/2-z
1/2-x,1/2-y,-z
1/2+x,1/2-y,1/2+z
loop_
_atom_site_type_symbol
_atom_site_label
_atom_site_fract_x
_atom_site_fract_y
_atom_site_fract_z
Si Si1 0.500000 0.082301 0.750000
Si Si2 0.254673 0.001167 0.667601
Si Si3 0.760911 0.948597 0.527682
Si Si4 0.989097 0.805703 0.555583
Si Si5 0.000000 0.301972 0.750000
Si Si6 0.280577 0.771393 0.349496
Si Si7 0.696629 0.891034 0.017911
O O1 0.295021 0.047211 0.723493
O O2 0.363602 0.109191 0.857892
O O3 0.178533 0.015850 0.567856
O O4 0.000000 0.974868 0.750000
O O5 0.546833 0.974922 0.626583
O O6 0.565324 0.911565 0.501454
O O7 0.034355 0.923670 0.528506
O O8 0.024652 0.797342 0.434910
O O9 0.042812 0.755939 0.593149
O O10 0.232021 0.842316 0.535503
O O11 0.725766 0.825376 0.649491
O O12 0.839940 0.269238 0.697900
O O13 0.500000 0.796592 0.250000
#
# Coordination Sequence:
#
# PCOD9275720 Si02
#       7
#     4   8   8   8   4   8   8
#     4  10  22  38  67  90 126 154 218 262 334 363
#     4  10  20  39  64  87 121 163 207 264 307 390
#     4  10  24  40  62  89 124 161 211 251 327 378
#     4  10  22  39  65  87 137 161 215 263 327 380
#     4  10  20  40  63  88 122 166 220 254 310 385
#     4   9  20  40  64  97 117 174 214 258 314 392
#     4  11  24  42  60  97 128 165 204 274 324 384
#
# _framework density 24.574660000000002
#
# number of rings (size 3 to 8) (size 9 to 14) (size 15 to 20)
#    0.000    2.000    1.667    0.500    5.833    2.000 
#    3.000    0.000    0.000    0.000    0.000    0.000 
#    0.000    0.000    0.000    0.000    0.000    0.000 
#
# Total GULP energy -133974.283384 kJ/mol
# GULP energy per Si atom -5582.261808 kJ/mol
# Density = 2.451873 g / cm^3
# Si number density = 24.574660 Si / 1000 Ang^3
#
#
#
# Elastic Constant Matrix: (Units=GPa)
#
#
# Indices 1 2 3 4 5 6 
#
# 1 48.7873 4.7008 26.4970 0.0000 -11.8375 0.0000
# 2 4.7008 67.7099 33.4145 0.0000 -15.0195 0.0000
# 3 26.4970 33.4145 176.2864 0.0000 -52.0103 0.0000
# 4 0.0000 0.0000 0.0000 13.2717 0.0000 0.6332
# 5 -11.8375 -15.0195 -52.0103 0.0000 44.8381 0.0000
# 6 0.0000 0.0000 0.0000 0.6332 0.0000 17.7784
#
#
#
# Elastic Compliance Matrix: (Units=1/GPa)
#
#
# Indices 1 2 3 4 5 6 
#
# 1 0.022604 0.000383 -0.002541 0.000000 0.003148 0.000000
# 2 0.000383 0.016543 -0.002324 0.000000 0.002947 0.000000
# 3 -0.002541 -0.002324 0.009224 0.000000 0.009250 0.000000
# 4 0.000000 0.000000 0.000000 0.075477 0.000000 -0.002688
# 5 0.003148 0.002947 0.009250 0.000000 0.034851 0.000000
# 6 0.000000 0.000000 0.000000 -0.002688 0.000000 0.056344
#
#
# Mechanical properties :
#
#
# Convention : Reuss Voigt Hill
#
# Bulk Modulus (GPa) = 25.37600 46.88980 36.13290
# Shear Modulus (GPa) = 21.08437 30.38904 25.73670
#
# Velocity S-wave (km/s) = 2.93229 3.52035 3.23969
# Velocity P-wave (km/s) = 4.67044 5.97041 5.35998
#
# Compressibility (1/GPa) = 0.03940731
#
# Stress axis : x y z
#
# Youngs Moduli (GPa) = 44.23927 60.44934 108.41069
#
# Poissons Ratio (x) = -0.02316 0.27552
# Poissons Ratio (y) = -0.01695 0.25192
# Poissons Ratio (z) = 0.11243 0.14047
#
# Static dielectric constant tensor:
#      x y z
#    x 2.000730 0.000000 -0.003650 
#    y 0.000000 1.943440 0.000000 
#    z -0.003650 0.000000 2.063720 
# 
# From -- ./inp_files/130339.got.cif
#   From: 2010.05.17/outbox.cif.g08.bks.cpg/sg15_66_cif.got.tgz:130339.got - 2010.06.03 18:47:42.
