data_PCOD9275186
_publ_section_title
;
Structure prediction by ZEFSAII (Michael W. Deem and Ramdas Pophale) SiO2 
 PCOD9275186
Probable space group: C 2/C
;
_chemical_formula_sum "Si O2"
_cell_formula_units_Z 48
_cell_length_a 16.305270
_cell_length_b 21.669600
_cell_length_c 6.341641
_cell_angle_alpha 90.000000
_cell_angle_beta 64.871588
_cell_angle_gamma 90.000000
_cell_volume 2028.621605
_symmetry_space_group_name_H-M "C 2/C"
_symmetry_group_IT_number 15
_symmetry_cell_setting 'monoclinic'
loop_
_space_group_symop_operation_xyz
x,y,z
-x,y,1/2-z
-x,-y,-z
x,-y,1/2+z
1/2+x,1/2+y,z
1/2-x,1/2+y,1/2-z
1/2-x,1/2-y,-z
1/2+x,1/2-y,1/2+z
loop_
_atom_site_type_symbol
_atom_site_label
_atom_site_fract_x
_atom_site_fract_y
_atom_site_fract_z
Si Si1 0.429654 0.976728 0.960814
Si Si2 0.096125 0.102235 0.055844
Si Si3 0.260642 0.942821 0.611901
Si Si4 0.840768 0.225973 0.279720
Si Si5 0.862966 0.644508 0.691272
Si Si6 0.694513 0.361715 0.060471
O O1 0.450362 0.989894 0.678323
O O2 0.429235 0.903939 0.011241
O O3 0.323193 0.998087 0.071171
O O4 0.174886 0.056172 0.049881
O O5 0.117062 0.168997 0.139507
O O6 0.000000 0.081607 0.250000
O O7 0.110434 0.115083 0.793270
O O8 0.327886 0.890631 0.438753
O O9 0.224401 0.914891 0.867553
O O10 0.750000 0.250000 0.500000
O O11 0.899637 0.287861 0.197422
O O12 0.822907 0.197386 0.068295
O O13 0.776332 0.651623 0.632463
#
# Coordination Sequence:
#
# PCOD9275186 Si02
#       6
#     8   8   8   8   8   8
#     4  12  24  43  65  98 143 182 228 280 340 412
#     4  10  23  43  68 100 134 176 226 294 349 411
#     4  10  22  41  66  94 131 178 230 282 339 408
#     4  11  20  39  62  99 132 175 229 282 333 414
#     4  11  22  39  62  97 133 178 224 271 341 404
#     4  10  20  38  71  93 131 179 225 278 354 399
#
# _framework density 23.661386
#
# number of rings (size 3 to 8) (size 9 to 14) (size 15 to 20)
#    0.000    1.333    6.667    1.500    0.000    2.667 
#    6.000    0.000    0.000    4.000    0.000    0.000 
#    0.000    0.000    0.000    0.000    0.000    0.000 
#
# Total GULP energy -134163.429956 kJ/mol
# GULP energy per Si atom -5590.142915 kJ/mol
# Density = 2.360753 g / cm^3
# Si number density = 23.661386 Si / 1000 Ang^3
#
#
#
# Elastic Constant Matrix: (Units=GPa)
#
#
# Indices 1 2 3 4 5 6 
#
# 1 81.6288 33.6393 43.2524 0.0000 -18.7772 0.0000
# 2 33.6393 126.7417 32.1146 0.0000 -7.4669 0.0000
# 3 43.2524 32.1146 189.5892 0.0000 -8.9351 0.0000
# 4 0.0000 0.0000 0.0000 37.7256 0.0000 -2.9340
# 5 -18.7772 -7.4669 -8.9351 0.0000 39.6626 0.0000
# 6 0.0000 0.0000 0.0000 -2.9340 0.0000 26.9798
#
#
#
# Elastic Compliance Matrix: (Units=1/GPa)
#
#
# Indices 1 2 3 4 5 6 
#
# 1 0.016687 -0.003295 -0.002937 0.000000 0.006618 0.000000
# 2 -0.003295 0.008956 -0.000768 0.000000 -0.000047 0.000000
# 3 -0.002937 -0.000768 0.006067 0.000000 -0.000168 0.000000
# 4 0.000000 0.000000 0.000000 0.026733 0.000000 0.002907
# 5 0.006618 -0.000047 -0.000168 0.000000 0.028299 0.000000
# 6 0.000000 0.000000 0.000000 0.002907 0.000000 0.037381
#
#
# Mechanical properties :
#
#
# Convention : Reuss Voigt Hill
#
# Bulk Modulus (GPa) = 56.46176 68.44137 62.45156
# Shear Modulus (GPa) = 34.71597 40.13715 37.42656
#
# Velocity S-wave (km/s) = 3.83456 4.12310 3.98145
# Velocity P-wave (km/s) = 6.59692 7.18712 6.89834
#
# Compressibility (1/GPa) = 0.01771110
#
# Stress axis : x y z
#
# Youngs Moduli (GPa) = 59.92706 111.65269 164.83484
#
# Poissons Ratio (x) = 0.36789 0.48410
# Poissons Ratio (y) = 0.19745 0.12653
# Poissons Ratio (z) = 0.17600 0.08571
#
# Static dielectric constant tensor:
#      x y z
#    x 1.911480 0.000000 0.019660 
#    y 0.000000 1.885730 0.000000 
#    z 0.019660 0.000000 1.955830 
# 
# From -- ./inp_files/11076.got.cif
#   From: 2010.05.17/outbox.cif.g08.bks.cpg/sg15_6_cif.got.tgz:11076.got - 2010.06.03 18:47:42.
