data_PCOD9275089
_publ_section_title
;
Structure prediction by ZEFSAII (Michael W. Deem and Ramdas Pophale) SiO2 
 PCOD9275089
Probable space group: C 2/C
;
_chemical_formula_sum "Si O2"
_cell_formula_units_Z 36
_cell_length_a 14.298341
_cell_length_b 19.022426
_cell_length_c 5.199263
_cell_angle_alpha 90.000000
_cell_angle_beta 76.998263
_cell_angle_gamma 90.000000
_cell_volume 1377.889000
_symmetry_space_group_name_H-M "C 2/C"
_symmetry_group_IT_number 15
_symmetry_cell_setting 'monoclinic'
loop_
_space_group_symop_operation_xyz
x,y,z
-x,y,1/2-z
-x,-y,-z
x,-y,1/2+z
1/2+x,1/2+y,z
1/2-x,1/2+y,1/2-z
1/2-x,1/2-y,-z
1/2+x,1/2-y,1/2+z
loop_
_atom_site_type_symbol
_atom_site_label
_atom_site_fract_x
_atom_site_fract_y
_atom_site_fract_z
Si Si1 0.648860 0.835000 0.016124
Si Si2 0.000000 0.267648 0.750000
Si Si3 0.096720 0.044442 0.784961
Si Si4 0.185248 0.547374 0.865520
Si Si5 0.178624 0.790562 0.853756
O O1 0.562000 0.822694 0.879615
O O2 0.750893 0.850637 0.808807
O O3 0.632935 0.887030 0.264756
O O4 0.657137 0.756970 0.122031
O O5 0.076381 0.216387 0.559192
O O6 0.203240 0.073632 0.690492
O O7 0.000000 0.082003 0.750000
O O8 0.093746 0.979574 0.582218
O O9 0.168050 0.486969 0.655728
O O10 0.250000 0.750000 0.000000
#
# Coordination Sequence:
#
# PCOD9275089 Si02
#       5
#     8   4   8   8   8
#     4  10  21  39  66  96 133 171 221 278 338 401
#     4  10  20  38  68  96 128 170 220 280 346 398
#     4   8  14  28  51  74 106 153 204 250 299 362
#     4  10  22  37  62  95 133 182 221 264 333 403
#     4   9  20  38  67  92 123 167 219 284 343 388
#
# _framework density 26.126920999999999
#
# number of rings (size 3 to 8) (size 9 to 14) (size 15 to 20)
#    0.000    2.667    0.000    0.667    6.222    0.000 
#    0.000    1.111   26.889   16.000    0.000    0.000 
#    0.000    0.000    0.000    0.000    0.000    0.000 
#
# Total GULP energy -100280.245168 kJ/mol
# GULP energy per Si atom -5571.124732 kJ/mol
# Density = 2.606746 g / cm^3
# Si number density = 26.126921 Si / 1000 Ang^3
#
#
#
# Elastic Constant Matrix: (Units=GPa)
#
#
# Indices 1 2 3 4 5 6 
#
# 1 146.0016 45.5940 62.0178 0.0000 11.0040 0.0000
# 2 45.5940 54.7305 10.7509 0.0000 7.7314 0.0000
# 3 62.0178 10.7509 130.1949 0.0000 4.5165 0.0000
# 4 0.0000 0.0000 0.0000 29.8241 0.0000 -1.2944
# 5 11.0040 7.7314 4.5165 0.0000 72.5579 0.0000
# 6 0.0000 0.0000 0.0000 -1.2944 0.0000 15.3154
#
#
#
# Elastic Compliance Matrix: (Units=1/GPa)
#
#
# Indices 1 2 3 4 5 6 
#
# 1 0.011644 -0.008678 -0.004811 0.000000 -0.000542 0.000000
# 2 -0.008678 0.025303 0.002097 0.000000 -0.001510 0.000000
# 3 -0.004811 0.002097 0.009803 0.000000 -0.000104 0.000000
# 4 0.000000 0.000000 0.000000 0.033653 0.000000 0.002844
# 5 -0.000542 -0.001510 -0.000104 0.000000 0.014032 0.000000
# 6 0.000000 0.000000 0.000000 0.002844 0.000000 0.065534
#
#
# Mechanical properties :
#
#
# Convention : Reuss Voigt Hill
#
# Bulk Modulus (GPa) = 41.72892 63.07249 52.40071
# Shear Modulus (GPa) = 26.21344 37.71043 31.96194
#
# Velocity S-wave (km/s) = 3.17095 3.80327 3.50141
# Velocity P-wave (km/s) = 5.42336 6.59392 6.03708
#
# Compressibility (1/GPa) = 0.02396420
#
# Stress axis : x y z
#
# Youngs Moduli (GPa) = 85.88229 39.52175 102.00987
#
# Poissons Ratio (x) = 0.34299 0.49078
# Poissons Ratio (y) = 0.74533 -0.21391
# Poissons Ratio (z) = 0.41319 -0.08288
#
# Static dielectric constant tensor:
#      x y z
#    x 3.363990 0.000000 0.203790 
#    y 0.000000 2.098450 0.000000 
#    z 0.203790 0.000000 2.218730 
# 
# From -- ./inp_files/6901.got.cif
#   From: 2010.05.17/outbox.cif.g08.bks.cpg/sg15_4_cif.got.tgz:6901.got - 2010.06.03 18:47:42.
