data_PCOD9275469
_publ_section_title
;
Structure prediction by ZEFSAII (Michael W. Deem and Ramdas Pophale) SiO2 
 PCOD9275469
Probable space group: C 2/C
;
_chemical_formula_sum "Si O2"
_cell_formula_units_Z 56
_cell_length_a 8.888927
_cell_length_b 16.186486
_cell_length_c 22.535022
_cell_angle_alpha 90.000000
_cell_angle_beta 120.406675
_cell_angle_gamma 90.000000
_cell_volume 2796.380083
_symmetry_space_group_name_H-M "C 2/C"
_symmetry_group_IT_number 15
_symmetry_cell_setting 'monoclinic'
loop_
_space_group_symop_operation_xyz
x,y,z
-x,y,1/2-z
-x,-y,-z
x,-y,1/2+z
1/2+x,1/2+y,z
1/2-x,1/2+y,1/2-z
1/2-x,1/2-y,-z
1/2+x,1/2-y,1/2+z
loop_
_atom_site_type_symbol
_atom_site_label
_atom_site_fract_x
_atom_site_fract_y
_atom_site_fract_z
Si Si1 0.658148 0.342711 0.235885
Si Si2 0.905360 0.978356 0.795761
Si Si3 0.636557 0.542861 0.458271
Si Si4 0.172529 0.121896 0.027654
Si Si5 0.575362 0.704928 0.198864
Si Si6 0.448614 0.252644 0.091521
Si Si7 0.774482 0.694550 0.447489
O O1 0.500000 0.350851 0.250000
O O2 0.706910 0.437090 0.227994
O O3 0.808702 0.284616 0.291756
O O4 0.576490 0.290902 0.165488
O O5 0.829905 0.884985 0.787226
O O6 0.000000 0.974318 0.750000
O O7 0.034317 0.987897 0.878656
O O8 0.500270 0.602318 0.467546
O O9 0.710415 0.470941 0.514325
O O10 0.793410 0.600193 0.469887
O O11 0.316209 0.180934 0.087251
O O12 0.145553 0.171759 0.960716
O O13 0.500000 0.714456 0.250000
O O14 0.405568 0.700579 0.124378
O O15 0.567850 0.217427 0.062942
O O16 0.750000 0.750000 0.500000
#
# Coordination Sequence:
#
# PCOD9275469 Si02
#       7
#     8   8   8   8   8   8   8
#     4  11  23  39  63  88 118 161 207 253 300 364
#     4   9  20  38  59  83 117 160 202 240 300 371
#     4  10  20  39  62  86 120 164 199 242 316 357
#     4  10  22  37  63  90 121 159 196 254 299 361
#     4  10  21  40  63  83 120 162 197 247 312 355
#     4  11  22  39  59  92 124 153 207 250 297 363
#     4  11  22  38  62  89 120 160 201 247 304 365
#
# _framework density 20.02589
#
# number of rings (size 3 to 8) (size 9 to 14) (size 15 to 20)
#    0.000    1.714    4.286    0.000    4.000    0.571 
#    0.000    2.143    0.000    0.000    0.000    0.000 
#    0.000    0.000    0.000    0.000    0.000    0.000 
#
# Total GULP energy -155921.827327 kJ/mol
# GULP energy per Si atom -5568.636690 kJ/mol
# Density = 1.998031 g / cm^3
# Si number density = 20.025890 Si / 1000 Ang^3
#
#
#
# Elastic Constant Matrix: (Units=GPa)
#
#
# Indices 1 2 3 4 5 6 
#
# 1 38.5914 34.0752 -6.8885 0.0000 -3.2301 0.0000
# 2 34.0752 133.1763 -1.3046 0.0000 11.7140 0.0000
# 3 -6.8885 -1.3046 32.3720 0.0000 -9.5015 0.0000
# 4 0.0000 0.0000 0.0000 31.0682 0.0000 -0.7129
# 5 -3.2301 11.7140 -9.5015 0.0000 25.4398 0.0000
# 6 0.0000 0.0000 0.0000 -0.7129 0.0000 25.0130
#
#
#
# Elastic Compliance Matrix: (Units=1/GPa)
#
#
# Indices 1 2 3 4 5 6 
#
# 1 0.039219 -0.011208 0.012208 0.000000 0.014700 0.000000
# 2 -0.011208 0.011049 -0.004325 0.000000 -0.008126 0.000000
# 3 0.012208 -0.004325 0.038584 0.000000 0.017952 0.000000
# 4 0.000000 0.000000 0.000000 0.032208 0.000000 0.000918
# 5 0.014700 -0.008126 0.017952 0.000000 0.051622 0.000000
# 6 0.000000 0.000000 0.000000 0.000918 0.000000 0.040005
#
#
# Mechanical properties :
#
#
# Convention : Reuss Voigt Hill
#
# Bulk Modulus (GPa) = 12.16515 28.43377 20.29946
# Shear Modulus (GPa) = 20.26457 28.18805 24.22631
#
# Velocity S-wave (km/s) = 3.18452 3.75584 3.48192
# Velocity P-wave (km/s) = 4.42825 5.74785 5.13066
#
# Compressibility (1/GPa) = 0.08220206
#
# Stress axis : x y z
#
# Youngs Moduli (GPa) = 25.49815 90.50598 25.91777
#
# Poissons Ratio (x) = 1.01440 -0.31641
# Poissons Ratio (y) = 0.28579 0.11209
# Poissons Ratio (z) = -0.31129 0.39142
#
# Static dielectric constant tensor:
#      x y z
#    x 1.714930 0.000000 -0.004560 
#    y 0.000000 1.776900 0.000000 
#    z -0.004560 0.000000 1.785210 
# 
# From -- ./inp_files/264791.got.cif
#   From: 2010.05.17/outbox.cif.g08.bks.cpg/sg15_133_cif.got.tgz:264791.got - 2010.06.03 18:47:42.
