data_PCOD9275758
_publ_section_title
;
Structure prediction by ZEFSAII (Michael W. Deem and Ramdas Pophale) SiO2 
 PCOD9275758
Probable space group: C 2/C
;
_chemical_formula_sum "Si O2"
_cell_formula_units_Z 60
_cell_length_a 18.340793
_cell_length_b 17.344449
_cell_length_c 17.679927
_cell_angle_alpha 90.000000
_cell_angle_beta 148.612565
_cell_angle_gamma 90.000000
_cell_volume 2929.198265
_symmetry_space_group_name_H-M "C 2/C"
_symmetry_group_IT_number 15
_symmetry_cell_setting 'monoclinic'
loop_
_space_group_symop_operation_xyz
x,y,z
-x,y,1/2-z
-x,-y,-z
x,-y,1/2+z
1/2+x,1/2+y,z
1/2-x,1/2+y,1/2-z
1/2-x,1/2-y,-z
1/2+x,1/2-y,1/2+z
loop_
_atom_site_type_symbol
_atom_site_label
_atom_site_fract_x
_atom_site_fract_y
_atom_site_fract_z
Si Si1 0.110111 0.093474 0.030891
Si Si2 0.403392 0.298721 0.283921
Si Si3 0.000000 0.677414 0.250000
Si Si4 0.052067 0.074550 0.462056
Si Si5 0.629248 0.839877 0.645073
Si Si6 0.250137 0.574069 0.115747
Si Si7 0.850100 0.177773 0.076977
Si Si8 0.360646 0.903488 0.488029
O O1 0.245572 0.126951 0.191814
O O2 0.986571 0.087697 0.984815
O O3 0.046572 0.151925 0.913620
O O4 0.134199 0.005940 0.026044
O O5 0.412958 0.234137 0.227417
O O6 0.386906 0.249312 0.346461
O O7 0.275703 0.355464 0.156510
O O8 0.092502 0.625123 0.387454
O O9 0.122477 0.146922 0.483156
O O10 0.902372 0.061910 0.288552
O O11 0.670809 0.862844 0.597156
O O12 0.486294 0.880870 0.543160
O O13 0.279419 0.607399 0.059460
O O14 0.170657 0.493610 0.043723
O O15 0.000000 0.192857 0.250000
O O16 0.750000 0.250000 0.000000
#
# Coordination Sequence:
#
# PCOD9275758 Si02
#       8
#     8   8   4   8   8   8   8   8
#     4  10  20  39  64  92 120 161 209 251 315 368
#     4  11  22  39  64  91 121 166 202 252 320 376
#     4  10  24  38  58  92 130 154 208 262 304 378
#     4   9  20  40  66  87 120 162 211 256 298 382
#     4  10  22  37  59  94 127 153 204 262 304 370
#     4  10  21  41  63  87 124 166 205 251 311 374
#     4  10  23  43  61  89 124 163 210 257 309 367
#     4  11  22  41  61  90 126 164 205 252 319 369
#
# _framework density 20.483421
#
# number of rings (size 3 to 8) (size 9 to 14) (size 15 to 20)
#    0.000    1.867    1.333    2.400    1.867    4.267 
#    6.000    0.000    0.000    0.000    0.000    0.000 
#    0.000    0.000    0.000    0.000    0.000    0.000 
#
# Total GULP energy -167606.981654 kJ/mol
# GULP energy per Si atom -5586.899388 kJ/mol
# Density = 2.043680 g / cm^3
# Si number density = 20.483421 Si / 1000 Ang^3
#
#
#
# Elastic Constant Matrix: (Units=GPa)
#
#
# Indices 1 2 3 4 5 6 
#
# 1 63.4450 11.9497 9.1389 0.0013 -2.4261 0.0006
# 2 11.9497 93.4024 14.7191 0.0006 4.6228 0.0002
# 3 9.1389 14.7191 45.0564 0.0016 12.4570 0.0006
# 4 0.0013 0.0006 0.0016 62.5229 0.0012 18.4276
# 5 -2.4261 4.6228 12.4570 0.0012 21.2380 0.0006
# 6 0.0006 0.0002 0.0006 18.4276 0.0006 30.2248
#
#
#
# Elastic Compliance Matrix: (Units=1/GPa)
#
#
# Indices 1 2 3 4 5 6 
#
# 1 0.016871 -0.001737 -0.004168 0.000000 0.004750 0.000000
# 2 -0.001737 0.011468 -0.003162 0.000000 -0.000840 0.000000
# 3 -0.004168 -0.003162 0.028662 0.000000 -0.016599 0.000000
# 4 0.000000 0.000000 0.000000 0.019498 -0.000001 -0.011887
# 5 0.004750 -0.000840 -0.016599 -0.000001 0.057547 -0.000001
# 6 0.000000 0.000000 0.000000 -0.011887 -0.000001 0.040333
#
#
# Mechanical properties :
#
#
# Convention : Reuss Voigt Hill
#
# Bulk Modulus (GPa) = 25.72798 30.39104 28.05951
# Shear Modulus (GPa) = 24.33468 33.87023 29.10246
#
# Velocity S-wave (km/s) = 3.45050 4.07079 3.77341
# Velocity P-wave (km/s) = 5.33501 6.07982 5.71955
#
# Compressibility (1/GPa) = 0.03886820
#
# Stress axis : x y z
#
# Youngs Moduli (GPa) = 59.27413 87.19599 34.88937
#
# Poissons Ratio (x) = 0.15143 0.14541
# Poissons Ratio (y) = 0.10294 0.11032
# Poissons Ratio (z) = 0.24704 0.27571
#
# Static dielectric constant tensor:
#      x y z
#    x 1.764580 0.000000 -0.005430 
#    y 0.000000 1.719610 0.000000 
#    z -0.005430 0.000000 1.702480 
# 
# From -- ./inp_files/211780.got.cif
#   From: 2010.05.17/outbox.cif.g08.bks.cpg/sg15_106_cif.got.tgz:211780.got - 2010.06.03 18:47:42.
