data_PCOD9275284
_publ_section_title
;
Structure prediction by ZEFSAII (Michael W. Deem and Ramdas Pophale) SiO2 
 PCOD9275284
Probable space group: C 2/C
;
_chemical_formula_sum "Si O2"
_cell_formula_units_Z 64
_cell_length_a 28.083602
_cell_length_b 21.872534
_cell_length_c 11.979226
_cell_angle_alpha 90.000000
_cell_angle_beta 29.253406
_cell_angle_gamma 90.000000
_cell_volume 3595.829637
_symmetry_space_group_name_H-M "C 2/C"
_symmetry_group_IT_number 15
_symmetry_cell_setting 'monoclinic'
loop_
_space_group_symop_operation_xyz
x,y,z
-x,y,1/2-z
-x,-y,-z
x,-y,1/2+z
1/2+x,1/2+y,z
1/2-x,1/2+y,1/2-z
1/2-x,1/2-y,-z
1/2+x,1/2-y,1/2+z
loop_
_atom_site_type_symbol
_atom_site_label
_atom_site_fract_x
_atom_site_fract_y
_atom_site_fract_z
Si Si1 0.891530 0.983448 0.254146
Si Si2 0.277628 0.394094 0.335825
Si Si3 0.400086 0.149387 0.140355
Si Si4 0.931605 0.560677 0.646675
Si Si5 0.603480 0.365588 0.097910
Si Si6 0.769418 0.546605 0.796988
Si Si7 0.643711 0.719239 0.725269
Si Si8 0.805643 0.412261 0.623199
O O1 0.830123 0.953965 0.278376
O O2 0.901287 0.928660 0.323068
O O3 0.830162 0.039909 0.428715
O O4 0.000000 0.000000 0.000000
O O5 0.189123 0.375414 0.599357
O O6 0.242786 0.409675 0.283836
O O7 0.350181 0.336457 0.199702
O O8 0.417227 0.221825 0.114999
O O9 0.371135 0.127782 0.074841
O O10 0.493770 0.115674 0.994850
O O11 0.861020 0.563333 0.685319
O O12 0.000000 0.500000 0.500000
O O13 0.862065 0.568039 0.896606
O O14 0.500000 0.356590 0.250000
O O15 0.619823 0.311840 0.155307
O O16 0.702086 0.376403 0.823067
O O17 0.786740 0.476958 0.722017
O O18 0.750000 0.750000 0.500000
#
# Coordination Sequence:
#
# PCOD9275284 Si02
#       8
#     8   8   8   8   8   8   8   8
#     4  10  21  35  58  85 121 158 195 241 314 380
#     4  10  20  39  59  88 119 153 203 249 301 365
#     4  11  20  40  64  85 113 171 207 244 307 371
#     4  12  24  37  58  94 132 161 200 257 316 374
#     4  10  21  37  63  93 112 161 212 262 308 360
#     4  11  22  36  56  91 127 152 193 255 310 367
#     4   9  18  41  64  82 115 156 215 252 295 368
#     4  11  21  38  62  88 125 163 202 245 308 386
#
# _framework density 17.798396
#
# number of rings (size 3 to 8) (size 9 to 14) (size 15 to 20)
#    0.000    1.500    6.250    1.875    5.250    1.500 
#    4.500    0.000   11.000    1.500    0.000    0.000 
#    0.000    0.000    0.000    0.000    0.000    0.000 
#
# Total GULP energy -178383.297091 kJ/mol
# GULP energy per Si atom -5574.478034 kJ/mol
# Density = 1.775789 g / cm^3
# Si number density = 17.798396 Si / 1000 Ang^3
#
#
#
# Elastic Constant Matrix: (Units=GPa)
#
#
# Indices 1 2 3 4 5 6 
#
# 1 155.2744 51.0901 57.1975 0.0000 -14.6534 0.0000
# 2 51.0901 68.6474 25.5448 0.0000 5.1666 0.0000
# 3 57.1975 25.5448 78.2422 0.0000 -5.5637 0.0000
# 4 0.0000 0.0000 0.0000 23.7546 0.0000 -4.7765
# 5 -14.6534 5.1666 -5.5637 0.0000 24.3371 0.0000
# 6 0.0000 0.0000 0.0000 -4.7765 0.0000 17.3221
#
#
#
# Elastic Compliance Matrix: (Units=1/GPa)
#
#
# Indices 1 2 3 4 5 6 
#
# 1 0.011475 -0.006991 -0.005600 0.000000 0.007113 0.000000
# 2 -0.006991 0.021421 -0.002547 0.000000 -0.009339 0.000000
# 3 -0.005600 -0.002547 0.017794 0.000000 0.001237 0.000000
# 4 0.000000 0.000000 0.000000 0.044568 0.000000 0.012289
# 5 0.007113 -0.009339 0.001237 0.000000 0.047638 0.000000
# 6 0.000000 0.000000 0.000000 0.012289 0.000000 0.061118
#
#
# Mechanical properties :
#
#
# Convention : Reuss Voigt Hill
#
# Bulk Modulus (GPa) = 48.98738 63.31431 56.15085
# Shear Modulus (GPa) = 20.73872 24.30488 22.52180
#
# Velocity S-wave (km/s) = 3.41721 3.69937 3.56108
# Velocity P-wave (km/s) = 6.56909 7.34148 6.96600
#
# Compressibility (1/GPa) = 0.02041342
#
# Stress axis : x y z
#
# Youngs Moduli (GPa) = 87.14827 46.68288 56.19869
#
# Poissons Ratio (x) = 0.32638 0.31471
# Poissons Ratio (y) = 0.60929 0.14313
# Poissons Ratio (z) = 0.48803 0.11889
#
# Static dielectric constant tensor:
#      x y z
#    x 1.748680 0.000000 0.399090 
#    y 0.000000 1.614610 0.000000 
#    z 0.399090 0.000000 2.833280 
# 
# From -- ./inp_files/124266.got.cif
#   From: 2010.05.17/outbox.cif.g08.bks.cpg/sg15_63_cif.got.tgz:124266.got - 2010.06.03 18:47:42.
