data_PCOD9275986
_publ_section_title
;
Structure prediction by ZEFSAII (Michael W. Deem and Ramdas Pophale) SiO2 
 PCOD9275986
Probable space group: C 2/C
;
_chemical_formula_sum "Si O2"
_cell_formula_units_Z 48
_cell_length_a 9.091014
_cell_length_b 11.924114
_cell_length_c 16.590870
_cell_angle_alpha 90.000000
_cell_angle_beta 80.600103
_cell_angle_gamma 90.000000
_cell_volume 1774.338975
_symmetry_space_group_name_H-M "C 2/C"
_symmetry_group_IT_number 15
_symmetry_cell_setting 'monoclinic'
loop_
_space_group_symop_operation_xyz
x,y,z
-x,y,1/2-z
-x,-y,-z
x,-y,1/2+z
1/2+x,1/2+y,z
1/2-x,1/2+y,1/2-z
1/2-x,1/2-y,-z
1/2+x,1/2-y,1/2+z
loop_
_atom_site_type_symbol
_atom_site_label
_atom_site_fract_x
_atom_site_fract_y
_atom_site_fract_z
Si Si1 0.082471 0.617921 0.820098
Si Si2 0.046788 0.034514 0.405100
Si Si3 0.664280 0.254178 0.593239
Si Si4 0.660888 0.646073 0.607172
Si Si5 0.106363 0.627323 0.314313
Si Si6 0.346912 0.109043 0.446808
O O1 0.943516 0.645577 0.893141
O O2 0.155692 0.498326 0.785017
O O3 0.000000 0.665868 0.750000
O O4 0.230096 0.683894 0.832464
O O5 0.951039 0.142748 0.392977
O O6 0.218977 0.066683 0.396649
O O7 0.981499 0.929169 0.361479
O O8 0.000000 0.000000 0.500000
O O9 0.750000 0.250000 0.500000
O O10 0.781889 0.285559 0.653962
O O11 0.626453 0.755562 0.558605
O O12 0.779172 0.578496 0.539456
O O13 0.003975 0.578998 0.396673
O O14 0.000000 0.669106 0.250000
#
# Coordination Sequence:
#
# PCOD9275986 Si02
#       6
#     8   8   8   8   8   8
#     4  11  25  44  67  96 141 183 225 283 355 413
#     4  10  22  39  64  98 130 165 222 281 340 401
#     4  12  26  42  71 104 133 180 237 284 344 419
#     4  10  20  39  66  95 129 170 221 281 336 406
#     4  11  27  45  65  98 141 182 232 283 350 421
#     4  10  22  39  67  94 128 174 220 281 340 395
#
# _framework density 27.052329
#
# number of rings (size 3 to 8) (size 9 to 14) (size 15 to 20)
#    0.000    1.333    3.333    1.000   11.667    1.333 
#    0.000    0.000    0.000    0.000    0.000    0.000 
#    0.000    0.000    0.000    0.000    0.000    0.000 
#
# Total GULP energy -133824.039674 kJ/mol
# GULP energy per Si atom -5576.001653 kJ/mol
# Density = 2.699076 g / cm^3
# Si number density = 27.052329 Si / 1000 Ang^3
#
#
#
# Elastic Constant Matrix: (Units=GPa)
#
#
# Indices 1 2 3 4 5 6 
#
# 1 133.1790 57.0063 13.1400 0.0000 24.9448 0.0000
# 2 57.0063 102.5121 12.5398 0.0000 15.8927 0.0000
# 3 13.1400 12.5398 61.0473 0.0000 12.8549 0.0000
# 4 0.0000 0.0000 0.0000 12.1998 0.0000 16.2432
# 5 24.9448 15.8927 12.8549 0.0000 40.3373 0.0000
# 6 0.0000 0.0000 0.0000 16.2432 0.0000 54.7833
#
#
#
# Elastic Compliance Matrix: (Units=1/GPa)
#
#
# Indices 1 2 3 4 5 6 
#
# 1 0.010572 -0.005160 -0.000286 0.000000 -0.004414 0.000000
# 2 -0.005160 0.013015 -0.001238 0.000000 -0.001542 0.000000
# 3 -0.000286 -0.001238 0.017748 0.000000 -0.004991 0.000000
# 4 0.000000 0.000000 0.000000 0.135433 0.000000 -0.040156
# 5 -0.004414 -0.001542 -0.004991 0.000000 0.029719 0.000000
# 6 0.000000 0.000000 0.000000 -0.040156 0.000000 0.030160
#
#
# Mechanical properties :
#
#
# Convention : Reuss Voigt Hill
#
# Bulk Modulus (GPa) = 35.75711 51.34564 43.55137
# Shear Modulus (GPa) = 19.27992 35.73423 27.50708
#
# Velocity S-wave (km/s) = 2.67252 3.63840 3.19221
# Velocity P-wave (km/s) = 4.77175 6.05574 5.45168
#
# Compressibility (1/GPa) = 0.02796647
#
# Stress axis : x y z
#
# Youngs Moduli (GPa) = 94.58675 76.83509 56.34548
#
# Poissons Ratio (x) = 0.39646 0.01613
# Poissons Ratio (y) = 0.48806 0.06976
# Poissons Ratio (z) = 0.02708 0.09512
#
# Static dielectric constant tensor:
#      x y z
#    x 2.193080 0.000000 -0.022940 
#    y 0.000000 2.977590 0.000000 
#    z -0.022940 0.000000 2.483090 
# 
# From -- ./inp_files/189210.got.cif
#   From: 2010.05.17/outbox.cif.g08.bks.cpg/sg15_95_cif.got.tgz:189210.got - 2010.06.03 18:47:42.
