data_PCOD9275322
_publ_section_title
;
Structure prediction by ZEFSAII (Michael W. Deem and Ramdas Pophale) SiO2 
 PCOD9275322
Probable space group: C 2/C
;
_chemical_formula_sum "Si O2"
_cell_formula_units_Z 60
_cell_length_a 9.167316
_cell_length_b 11.223819
_cell_length_c 27.966516
_cell_angle_alpha 90.000000
_cell_angle_beta 100.348075
_cell_angle_gamma 90.000000
_cell_volume 2830.734891
_symmetry_space_group_name_H-M "C 2/C"
_symmetry_group_IT_number 15
_symmetry_cell_setting 'monoclinic'
loop_
_space_group_symop_operation_xyz
x,y,z
-x,y,1/2-z
-x,-y,-z
x,-y,1/2+z
1/2+x,1/2+y,z
1/2-x,1/2+y,1/2-z
1/2-x,1/2-y,-z
1/2+x,1/2-y,1/2+z
loop_
_atom_site_type_symbol
_atom_site_label
_atom_site_fract_x
_atom_site_fract_y
_atom_site_fract_z
Si Si1 0.130842 0.909576 0.995961
Si Si2 0.500000 0.027193 0.250000
Si Si3 0.280934 0.302634 0.782112
Si Si4 0.874509 0.167613 0.186164
Si Si5 0.008541 0.534308 0.578024
Si Si6 0.852099 0.369298 0.506513
Si Si7 0.200700 0.560347 0.678767
Si Si8 0.290044 0.233484 0.581913
O O1 0.130603 0.831963 0.947630
O O2 0.261392 0.006194 0.999244
O O3 0.155768 0.815691 0.040776
O O4 0.000000 0.000000 0.000000
O O5 0.356069 0.105706 0.225886
O O6 0.435489 0.956158 0.291798
O O7 0.447838 0.334874 0.809772
O O8 0.315275 0.262382 0.729298
O O9 0.237111 0.191261 0.811698
O O10 0.825853 0.034899 0.197078
O O11 0.787594 0.210831 0.134206
O O12 0.052394 0.617603 0.535619
O O13 0.141952 0.533558 0.622642
O O14 0.956733 0.403166 0.557862
O O15 0.880250 0.610878 0.594991
O O16 0.750000 0.250000 0.500000
#
# Coordination Sequence:
#
# PCOD9275322 Si02
#       8
#     8   4   8   8   8   8   8   8
#     4  10  21  37  58  88 122 165 206 263 312 369
#     4  10  24  40  62  92 122 164 202 266 314 386
#     4  10  22  42  62  90 128 157 211 258 321 375
#     4  10  21  40  65  91 120 170 202 264 318 381
#     4  10  21  37  61  87 119 167 205 258 317 374
#     4  10  21  37  58  87 124 163 209 261 314 372
#     4  11  22  40  65  90 124 164 209 257 324 378
#     4  10  20  39  60  85 124 161 212 253 316 381
#
# _framework density 21.195907999999999
#
# number of rings (size 3 to 8) (size 9 to 14) (size 15 to 20)
#    0.000    1.867    1.333    2.400    0.000    6.400 
#    4.800    5.333    0.000    0.000    0.000    0.000 
#    0.000    0.000    0.000    0.000    0.000    0.000 
#
# Total GULP energy -167100.791366 kJ/mol
# GULP energy per Si atom -5570.026379 kJ/mol
# Density = 2.114767 g / cm^3
# Si number density = 21.195908 Si / 1000 Ang^3
#
#
#
# Elastic Constant Matrix: (Units=GPa)
#
#
# Indices 1 2 3 4 5 6 
#
# 1 32.8973 17.6003 -3.7560 0.0000 0.1334 0.0000
# 2 17.6003 88.0588 17.8569 0.0000 7.4690 0.0000
# 3 -3.7560 17.8569 87.8249 0.0000 10.8644 0.0000
# 4 0.0000 0.0000 0.0000 26.2328 0.0000 0.1261
# 5 0.1334 7.4690 10.8644 0.0000 15.0555 0.0000
# 6 0.0000 0.0000 0.0000 0.1261 0.0000 42.7081
#
#
#
# Elastic Compliance Matrix: (Units=1/GPa)
#
#
# Indices 1 2 3 4 5 6 
#
# 1 0.034819 -0.007662 0.002871 0.000000 0.001421 0.000000
# 2 -0.007662 0.013820 -0.002523 0.000000 -0.004968 0.000000
# 3 0.002871 -0.002523 0.013034 0.000000 -0.008179 0.000000
# 4 0.000000 0.000000 0.000000 0.038121 0.000000 -0.000113
# 5 0.001421 -0.004968 -0.008179 0.000000 0.074775 0.000000
# 6 0.000000 0.000000 0.000000 -0.000113 0.000000 0.023415
#
#
# Mechanical properties :
#
#
# Convention : Reuss Voigt Hill
#
# Bulk Modulus (GPa) = 21.25605 30.24260 25.74933
# Shear Modulus (GPa) = 21.90158 28.60460 25.25309
#
# Velocity S-wave (km/s) = 3.21797 3.67759 3.45543
# Velocity P-wave (km/s) = 4.88439 5.68612 5.30044
#
# Compressibility (1/GPa) = 0.04704543
#
# Stress axis : x y z
#
# Youngs Moduli (GPa) = 28.71997 72.35647 76.72284
#
# Poissons Ratio (x) = 0.55440 -0.22029
# Poissons Ratio (y) = 0.22005 0.19359
# Poissons Ratio (z) = -0.08246 0.18257
#
# Static dielectric constant tensor:
#      x y z
#    x 1.555490 0.000000 -0.064350 
#    y 0.000000 220.004190 0.000000 
#    z -0.064350 0.000000 1.776390 
# 
# From -- ./inp_files/307505.got.cif
#   From: 2010.05.17/outbox.cif.g08.bks.cpg/sg15_154_cif.got.tgz:307505.got - 2010.06.03 18:47:42.
