data_PCOD9275242
_publ_section_title
;
Structure prediction by ZEFSAII (Michael W. Deem and Ramdas Pophale) SiO2 
 PCOD9275242
Probable space group: C 2/C
;
_chemical_formula_sum "Si O2"
_cell_formula_units_Z 60
_cell_length_a 18.105612
_cell_length_b 22.170047
_cell_length_c 11.422513
_cell_angle_alpha 90.000000
_cell_angle_beta 149.266094
_cell_angle_gamma 90.000000
_cell_volume 2343.183449
_symmetry_space_group_name_H-M "C 2/C"
_symmetry_group_IT_number 15
_symmetry_cell_setting 'monoclinic'
loop_
_space_group_symop_operation_xyz
x,y,z
-x,y,1/2-z
-x,-y,-z
x,-y,1/2+z
1/2+x,1/2+y,z
1/2-x,1/2+y,1/2-z
1/2-x,1/2-y,-z
1/2+x,1/2-y,1/2+z
loop_
_atom_site_type_symbol
_atom_site_label
_atom_site_fract_x
_atom_site_fract_y
_atom_site_fract_z
Si Si1 0.000000 0.533961 0.750000
Si Si2 0.071733 0.044041 0.457321
Si Si3 0.425141 0.852533 0.304119
Si Si4 0.654385 0.256495 0.524060
Si Si5 0.222562 0.684591 0.108956
Si Si6 0.371572 0.917642 0.464005
Si Si7 0.408094 0.579272 0.450117
Si Si8 0.704482 0.649340 0.904350
O O1 0.926408 0.581717 0.739118
O O2 0.924272 0.485710 0.558571
O O3 0.209729 0.077288 0.692488
O O4 0.000000 0.074569 0.250000
O O5 0.945539 0.045865 0.380020
O O6 0.118898 0.974902 0.496805
O O7 0.564166 0.813478 0.452771
O O8 0.434910 0.870961 0.454278
O O9 0.294338 0.820066 0.054205
O O10 0.667577 0.268144 0.680333
O O11 0.703445 0.318531 0.527662
O O12 0.768827 0.205460 0.646087
O O13 0.500000 0.243169 0.250000
O O14 0.279728 0.621091 0.236915
O O15 0.339323 0.892595 0.551777
O O16 0.550646 0.616905 0.679837
#
# Coordination Sequence:
#
# PCOD9275242 Si02
#       8
#     4   8   8   8   8   8   8   8
#     4  10  22  38  58  94 130 176 216 248 316 382
#     4  10  21  34  60  88 130 165 205 250 316 383
#     4  10  23  42  63  94 134 176 215 264 314 384
#     4  11  23  43  69  95 125 165 214 284 331 388
#     4  10  21  40  67  87 126 174 219 260 323 387
#     4  11  23  40  63  97 133 172 212 269 319 379
#     4  10  20  39  57  94 122 164 210 261 312 382
#     4  10  25  40  64 100 126 161 218 271 339 372
#
# _framework density 25.606189000000001
#
# number of rings (size 3 to 8) (size 9 to 14) (size 15 to 20)
#    0.000    1.867    1.333    2.800    4.667    3.200 
#    0.000    0.667   14.667    0.000    0.000    0.000 
#    0.000    0.000    0.000    0.000    0.000    0.000 
#
# Total GULP energy -167286.238612 kJ/mol
# GULP energy per Si atom -5576.207954 kJ/mol
# Density = 2.554791 g / cm^3
# Si number density = 25.606189 Si / 1000 Ang^3
#
#
#
# Elastic Constant Matrix: (Units=GPa)
#
#
# Indices 1 2 3 4 5 6 
#
# 1 58.6516 -0.2586 26.8838 0.0000 -16.8690 0.0000
# 2 -0.2586 60.0524 25.6387 0.0000 -6.9190 0.0000
# 3 26.8838 25.6387 92.2039 0.0000 -25.8622 0.0000
# 4 0.0000 0.0000 0.0000 31.3129 0.0000 -1.9863
# 5 -16.8690 -6.9190 -25.8622 0.0000 36.0655 0.0000
# 6 0.0000 0.0000 0.0000 -1.9863 0.0000 31.4082
#
#
#
# Elastic Compliance Matrix: (Units=1/GPa)
#
#
# Indices 1 2 3 4 5 6 
#
# 1 0.021419 0.003095 -0.005169 0.000000 0.006906 0.000000
# 2 0.003095 0.019343 -0.006051 0.000000 0.000819 0.000000
# 3 -0.005169 -0.006051 0.016312 0.000000 0.008119 0.000000
# 4 0.000000 0.000000 0.000000 0.032064 0.000000 0.002028
# 5 0.006906 0.000819 0.008119 0.000000 0.036937 0.000000
# 6 0.000000 0.000000 0.000000 0.002028 0.000000 0.031967
#
#
# Mechanical properties :
#
#
# Convention : Reuss Voigt Hill
#
# Bulk Modulus (GPa) = 24.49540 35.04839 29.77189
# Shear Modulus (GPa) = 26.60975 30.33357 28.47166
#
# Velocity S-wave (km/s) = 3.22715 3.44556 3.33814
# Velocity P-wave (km/s) = 4.84489 5.43566 5.14875
#
# Compressibility (1/GPa) = 0.04082399
#
# Stress axis : x y z
#
# Youngs Moduli (GPa) = 46.68816 51.69745 61.30276
#
# Poissons Ratio (x) = -0.15998 0.31685
# Poissons Ratio (y) = -0.14448 0.37096
# Poissons Ratio (z) = 0.24131 0.31283
#
# Static dielectric constant tensor:
#      x y z
#    x 2.093320 0.000000 -0.064810 
#    y 0.000000 2.078040 0.000000 
#    z -0.064810 0.000000 2.168350 
# 
# From -- ./inp_files/114845.got.cif
#   From: 2010.05.17/outbox.cif.g08.bks.cpg/sg15_58_cif.got.tgz:114845.got - 2010.06.03 18:47:42.
