data_PCOD9275796
_publ_section_title
;
Structure prediction by ZEFSAII (Michael W. Deem and Ramdas Pophale) SiO2 
 PCOD9275796
Probable space group: C 2/C
;
_chemical_formula_sum "Si O2"
_cell_formula_units_Z 40
_cell_length_a 7.933104
_cell_length_b 13.825630
_cell_length_c 14.235656
_cell_angle_alpha 90.000000
_cell_angle_beta 86.581484
_cell_angle_gamma 90.000000
_cell_volume 1558.590753
_symmetry_space_group_name_H-M "C 2/C"
_symmetry_group_IT_number 15
_symmetry_cell_setting 'monoclinic'
loop_
_space_group_symop_operation_xyz
x,y,z
-x,y,1/2-z
-x,-y,-z
x,-y,1/2+z
1/2+x,1/2+y,z
1/2-x,1/2+y,1/2-z
1/2-x,1/2-y,-z
1/2+x,1/2-y,1/2+z
loop_
_atom_site_type_symbol
_atom_site_label
_atom_site_fract_x
_atom_site_fract_y
_atom_site_fract_z
Si Si1 0.927089 0.499927 0.845426
Si Si2 0.739832 0.514830 0.535012
Si Si3 0.591046 0.302772 0.552792
Si Si4 0.096070 0.793750 0.108783
Si Si5 0.727382 0.207165 0.714607
O O1 0.844476 0.599091 0.806140
O O2 0.000000 0.446278 0.750000
O O3 0.089860 0.511064 0.907613
O O4 0.791550 0.459365 0.925342
O O5 0.638177 0.414742 0.539271
O O6 0.630023 0.593939 0.590198
O O7 0.750000 0.250000 0.500000
O O8 0.435854 0.259315 0.497256
O O9 0.604194 0.275675 0.660423
O O10 0.236619 0.764909 0.179212
O O11 0.913588 0.784090 0.163074
#
# Coordination Sequence:
#
# PCOD9275796 Si02
#       5
#     8   8   8   8   8
#     4  11  22  40  64  91 131 169 216 270 324 381
#     4  11  22  39  70  92 126 176 220 264 325 395
#     4  10  20  39  64  95 128 167 211 271 328 383
#     4  10  20  39  68  94 125 177 217 261 320 395
#     4  10  21  41  66  93 134 170 213 270 333 376
#
# _framework density 25.664209
#
# number of rings (size 3 to 8) (size 9 to 14) (size 15 to 20)
#    0.000    1.600    6.000    0.600    0.000    0.000 
#    7.200    1.000    8.800    0.000    0.000    0.000 
#    0.000    0.000    0.000    0.000    0.000    0.000 
#
# Total GULP energy -111664.730444 kJ/mol
# GULP energy per Si atom -5583.236522 kJ/mol
# Density = 2.560580 g / cm^3
# Si number density = 25.664209 Si / 1000 Ang^3
#
#
#
# Elastic Constant Matrix: (Units=GPa)
#
#
# Indices 1 2 3 4 5 6 
#
# 1 132.2835 6.1386 80.5268 0.0000 40.2041 0.0000
# 2 6.1386 46.3324 29.0497 0.0000 3.9431 0.0000
# 3 80.5268 29.0497 262.6024 0.0000 34.9134 0.0000
# 4 0.0000 0.0000 0.0000 27.2936 0.0000 7.7656
# 5 40.2041 3.9431 34.9134 0.0000 68.5535 0.0000
# 6 0.0000 0.0000 0.0000 7.7656 0.0000 13.4624
#
#
#
# Elastic Compliance Matrix: (Units=1/GPa)
#
#
# Indices 1 2 3 4 5 6 
#
# 1 0.010662 0.000694 -0.002692 0.000000 -0.004922 0.000000
# 2 0.000694 0.023237 -0.002737 0.000000 -0.000350 0.000000
# 3 -0.002692 -0.002737 0.005047 0.000000 -0.000834 0.000000
# 4 0.000000 0.000000 0.000000 0.043833 0.000000 -0.025284
# 5 -0.004922 -0.000350 -0.000834 0.000000 0.017919 0.000000
# 6 0.000000 0.000000 0.000000 -0.025284 0.000000 0.088866
#
#
# Mechanical properties :
#
#
# Convention : Reuss Voigt Hill
#
# Bulk Modulus (GPa) = 33.92525 74.73872 54.33198
# Shear Modulus (GPa) = 23.93973 43.56211 33.75092
#
# Velocity S-wave (km/s) = 3.05750 4.12441 3.63036
# Velocity P-wave (km/s) = 5.07070 7.20180 6.22808
#
# Compressibility (1/GPa) = 0.02947657
#
# Stress axis : x y z
#
# Youngs Moduli (GPa) = 93.79275 43.03494 198.13041
#
# Poissons Ratio (x) = -0.02987 0.53334
# Poissons Ratio (y) = -0.06510 0.54225
# Poissons Ratio (z) = 0.25248 0.11778
#
# Static dielectric constant tensor:
#      x y z
#    x 2.018500 0.000000 0.029460 
#    y 0.000000 1.997180 0.000000 
#    z 0.029460 0.000000 2.131420 
# 
# From -- ./inp_files/133178.got.cif
#   From: 2010.05.17/outbox.cif.g08.bks.cpg/sg15_67_cif.got.tgz:133178.got - 2010.06.03 18:47:42.
