data_PCOD9275755
_publ_section_title
;
Structure prediction by ZEFSAII (Michael W. Deem and Ramdas Pophale) SiO2 
 PCOD9275755
Probable space group: C 2/C
;
_chemical_formula_sum "Si O2"
_cell_formula_units_Z 36
_cell_length_a 8.009753
_cell_length_b 22.661278
_cell_length_c 14.822752
_cell_angle_alpha 90.000000
_cell_angle_beta 40.829773
_cell_angle_gamma 90.000000
_cell_volume 1759.083682
_symmetry_space_group_name_H-M "C 2/C"
_symmetry_group_IT_number 15
_symmetry_cell_setting 'monoclinic'
loop_
_space_group_symop_operation_xyz
x,y,z
-x,y,1/2-z
-x,-y,-z
x,-y,1/2+z
1/2+x,1/2+y,z
1/2-x,1/2+y,1/2-z
1/2-x,1/2-y,-z
1/2+x,1/2-y,1/2+z
loop_
_atom_site_type_symbol
_atom_site_label
_atom_site_fract_x
_atom_site_fract_y
_atom_site_fract_z
Si Si1 0.572110 0.711605 0.827653
Si Si2 0.907437 0.606730 0.693315
Si Si3 0.727547 0.919294 0.893768
Si Si4 0.063022 0.340451 0.619452
Si Si5 0.000000 0.964954 0.250000
O O1 0.500000 0.709229 0.750000
O O2 0.825502 0.674387 0.736505
O O3 0.587553 0.780374 0.845622
O O4 0.351451 0.679621 0.977135
O O5 0.655276 0.574283 0.757243
O O6 0.000000 0.581569 0.750000
O O7 0.129810 0.601172 0.529753
O O8 0.522499 0.895767 0.905551
O O9 0.000000 0.893865 0.750000
O O10 0.788724 0.989092 0.873417
O O11 0.000000 0.351859 0.750000
#
# Coordination Sequence:
#
# PCOD9275755 Si02
#       5
#     8   8   8   8   4
#     4  10  20  39  64  91 129 169 208 263 316 374
#     4  12  24  42  68  96 125 171 217 259 321 379
#     4  10  24  42  60  93 131 166 207 270 313 373
#     4  10  21  38  65  93 126 172 210 256 321 380
#     4  10  24  44  68  88 134 166 210 270 314 372
#
# _framework density 20.465201
#
# number of rings (size 3 to 8) (size 9 to 14) (size 15 to 20)
#    0.667    0.889    3.333    0.667    3.111    2.667 
#    0.000    2.222    0.000    0.000    0.000    0.000 
#    0.000    0.000    0.000    0.000    0.000    0.000 
#
# Total GULP energy -100380.098968 kJ/mol
# GULP energy per Si atom -5576.672165 kJ/mol
# Density = 2.041862 g / cm^3
# Si number density = 20.465201 Si / 1000 Ang^3
#
#
#
# Elastic Constant Matrix: (Units=GPa)
#
#
# Indices 1 2 3 4 5 6 
#
# 1 97.1459 27.4073 33.9255 0.0000 16.2887 0.0000
# 2 27.4073 80.1664 32.4321 0.0000 -5.1201 0.0000
# 3 33.9255 32.4321 131.7878 0.0000 25.6725 0.0000
# 4 0.0000 0.0000 0.0000 15.0857 0.0000 -7.6939
# 5 16.2887 -5.1201 25.6725 0.0000 27.1694 0.0000
# 6 0.0000 0.0000 0.0000 -7.6939 0.0000 62.8852
#
#
#
# Elastic Compliance Matrix: (Units=1/GPa)
#
#
# Indices 1 2 3 4 5 6 
#
# 1 0.013252 -0.004809 -0.000617 0.000000 -0.008268 0.000000
# 2 -0.004809 0.016832 -0.005005 0.000000 0.010784 0.000000
# 3 -0.000617 -0.005005 0.011141 0.000000 -0.011100 0.000000
# 4 0.000000 0.000000 0.000000 0.070700 0.000000 0.008650
# 5 -0.008268 0.010784 -0.011100 0.000000 0.054284 0.000000
# 6 0.000000 0.000000 0.000000 0.008650 0.000000 0.016960
#
#
# Mechanical properties :
#
#
# Convention : Reuss Voigt Hill
#
# Bulk Modulus (GPa) = 49.11060 55.18109 52.14585
# Shear Modulus (GPa) = 23.71697 35.38372 29.55035
#
# Velocity S-wave (km/s) = 3.40794 4.16260 3.80403
# Velocity P-wave (km/s) = 6.28766 7.07989 6.69550
#
# Compressibility (1/GPa) = 0.02036220
#
# Stress axis : x y z
#
# Youngs Moduli (GPa) = 75.45749 59.41138 89.75911
#
# Poissons Ratio (x) = 0.28571 0.05542
# Poissons Ratio (y) = 0.36288 0.44925
# Poissons Ratio (z) = 0.04659 0.29736
#
# Static dielectric constant tensor:
#      x y z
#    x 1.749470 0.000000 -0.003000 
#    y 0.000000 1.750290 0.000000 
#    z -0.003000 0.000000 1.746970 
# 
# From -- ./inp_files/136750.got.cif
#   From: 2010.05.17/outbox.cif.g08.bks.cpg/sg15_69_cif.got.tgz:136750.got - 2010.06.03 18:47:42.
