data_PCOD9275586
_publ_section_title
;
Structure prediction by ZEFSAII (Michael W. Deem and Ramdas Pophale) SiO2 
 PCOD9275586
Probable space group: C 2/C
;
_chemical_formula_sum "Si O2"
_cell_formula_units_Z 40
_cell_length_a 8.277549
_cell_length_b 11.359280
_cell_length_c 18.860921
_cell_angle_alpha 90.000000
_cell_angle_beta 65.269606
_cell_angle_gamma 90.000000
_cell_volume 1610.787548
_symmetry_space_group_name_H-M "C 2/C"
_symmetry_group_IT_number 15
_symmetry_cell_setting 'monoclinic'
loop_
_space_group_symop_operation_xyz
x,y,z
-x,y,1/2-z
-x,-y,-z
x,-y,1/2+z
1/2+x,1/2+y,z
1/2-x,1/2+y,1/2-z
1/2-x,1/2-y,-z
1/2+x,1/2-y,1/2+z
loop_
_atom_site_type_symbol
_atom_site_label
_atom_site_fract_x
_atom_site_fract_y
_atom_site_fract_z
Si Si1 0.613815 0.662516 0.791960
Si Si2 0.675414 0.928921 0.126988
Si Si3 0.416845 0.155053 0.430056
Si Si4 0.441186 0.694906 0.186423
Si Si5 0.995239 0.826564 0.517191
O O1 0.500000 0.610976 0.750000
O O2 0.728566 0.565571 0.813512
O O3 0.490558 0.737355 0.868523
O O4 0.741635 0.760042 0.732990
O O5 0.557693 0.813763 0.158545
O O6 0.556367 0.034023 0.117879
O O7 0.839235 0.895360 0.045208
O O8 0.202694 0.149010 0.476152
O O9 0.508837 0.188240 0.488794
O O10 0.500000 0.639334 0.250000
O O11 0.478533 0.642269 0.102690
#
# Coordination Sequence:
#
# PCOD9275586 Si02
#       5
#     8   8   8   8   8
#     4  10  20  39  63  86 131 173 204 262 329 373
#     4  10  22  38  65  95 122 163 222 265 306 389
#     4  10  21  38  67  90 121 172 213 258 321 382
#     4  10  21  39  60  88 128 164 204 266 322 374
#     4  10  20  39  63  91 127 165 209 264 323 376
#
# _framework density 24.832571999999999
#
# number of rings (size 3 to 8) (size 9 to 14) (size 15 to 20)
#    0.000    2.000    2.000    1.200    0.000    3.200 
#    0.000    1.000    0.000    0.000    0.000    0.000 
#    0.000    0.000    0.000    0.000    0.000    0.000 
#
# Total GULP energy -111572.848263 kJ/mol
# GULP energy per Si atom -5578.642413 kJ/mol
# Density = 2.477605 g / cm^3
# Si number density = 24.832572 Si / 1000 Ang^3
#
#
#
# Elastic Constant Matrix: (Units=GPa)
#
#
# Indices 1 2 3 4 5 6 
#
# 1 51.4830 15.7694 21.1140 0.0000 6.5828 0.0000
# 2 15.7694 92.1038 11.9691 0.0000 3.5787 0.0000
# 3 21.1140 11.9691 151.9373 0.0000 1.2825 0.0000
# 4 0.0000 0.0000 0.0000 1.9250 0.0000 -11.7447
# 5 6.5828 3.5787 1.2825 0.0000 49.2478 0.0000
# 6 0.0000 0.0000 0.0000 -11.7447 0.0000 16.2090
#
#
#
# Elastic Compliance Matrix: (Units=1/GPa)
#
#
# Indices 1 2 3 4 5 6 
#
# 1 0.021898 -0.003289 -0.002762 0.000000 -0.002616 0.000000
# 2 -0.003289 0.011493 -0.000445 0.000000 -0.000384 0.000000
# 3 -0.002762 -0.000445 0.006999 0.000000 0.000219 0.000000
# 4 0.000000 0.000000 0.000000 -0.151862 0.000000 -0.110035
# 5 -0.002616 -0.000384 0.000219 0.000000 0.020677 0.000000
# 6 0.000000 0.000000 0.000000 -0.110035 0.000000 -0.018035
#
#
# Mechanical properties :
#
#
# Convention : Reuss Voigt Hill
#
# Bulk Modulus (GPa) = 36.49816 43.69214 40.09515
# Shear Modulus (GPa) = -57.66705 29.92115 -13.87295
#
# Velocity S-wave (km/s) = -4.82418 3.47495 -2.36616
# Velocity P-wave (km/s) = 4.03742 5.80804 2.95233
#
# Compressibility (1/GPa) = 0.02739864
#
# Stress axis : x y z
#
# Youngs Moduli (GPa) = 45.66530 87.00828 142.88382
#
# Poissons Ratio (x) = 0.28615 0.39464
# Poissons Ratio (y) = 0.15018 0.06360
# Poissons Ratio (z) = 0.12613 0.03873
#
# Static dielectric constant tensor:
#      x y z
#    x 2.000320 0.000000 0.090210 
#    y 0.000000 2.104850 0.000000 
#    z 0.090210 0.000000 2.096330 
# 
# From -- ./inp_files/229799.got.cif
#   From: 2010.05.17/outbox.cif.g08.bks.cpg/sg15_115_cif.got.tgz:229799.got - 2010.06.03 18:47:42.
