data_PCOD9275528
_publ_section_title
;
Structure prediction by ZEFSAII (Michael W. Deem and Ramdas Pophale) SiO2 
 PCOD9275528
Probable space group: C 2/C
;
_chemical_formula_sum "Si O2"
_cell_formula_units_Z 56
_cell_length_a 25.420630
_cell_length_b 18.491748
_cell_length_c 16.469243
_cell_angle_alpha 90.000000
_cell_angle_beta 161.945464
_cell_angle_gamma 90.000000
_cell_volume 2399.332633
_symmetry_space_group_name_H-M "C 2/C"
_symmetry_group_IT_number 15
_symmetry_cell_setting 'monoclinic'
loop_
_space_group_symop_operation_xyz
x,y,z
-x,y,1/2-z
-x,-y,-z
x,-y,1/2+z
1/2+x,1/2+y,z
1/2-x,1/2+y,1/2-z
1/2-x,1/2-y,-z
1/2+x,1/2-y,1/2+z
loop_
_atom_site_type_symbol
_atom_site_label
_atom_site_fract_x
_atom_site_fract_y
_atom_site_fract_z
Si Si1 0.000000 0.222546 0.750000
Si Si2 0.500000 0.951962 0.750000
Si Si3 0.452677 0.290762 0.901049
Si Si4 0.830503 0.475763 0.856586
Si Si5 0.313940 0.550543 0.517660
Si Si6 0.282743 0.192064 0.302292
Si Si7 0.758885 0.336548 0.460688
Si Si8 0.485121 0.452940 0.895253
O O1 0.104610 0.274293 0.842008
O O2 0.855298 0.194993 0.473981
O O3 0.339059 0.900323 0.524020
O O4 0.471780 0.994268 0.624818
O O5 0.544990 0.231411 0.978263
O O6 0.592978 0.309932 0.173815
O O7 0.289743 0.273524 0.719470
O O8 0.436935 0.369109 0.834323
O O9 0.830954 0.465894 0.760112
O O10 0.799504 0.393836 0.842408
O O11 0.670111 0.530438 0.629232
O O12 0.500000 0.559087 0.750000
O O13 0.275720 0.625673 0.505528
O O14 0.348367 0.490202 0.635731
O O15 0.500000 0.500000 0.000000
#
# Coordination Sequence:
#
# PCOD9275528 Si02
#       8
#     4   4   8   8   8   8   8   8
#     4   9  24  36  58  92 137 176 202 276 347 402
#     4  11  22  42  66  90 129 174 226 282 339 396
#     4  11  22  41  66  99 135 183 223 277 343 411
#     4  11  23  38  65  99 129 172 224 287 336 403
#     4  10  21  34  62 100 126 155 221 279 327 393
#     4  11  25  38  64  99 137 178 228 273 346 414
#     4  10  20  39  62  91 131 170 216 273 346 393
#     4  11  18  38  68  95 129 174 226 271 339 403
#
# _framework density 23.339822999999999
#
# number of rings (size 3 to 8) (size 9 to 14) (size 15 to 20)
#    0.000    1.429    4.286    0.857    7.000    1.714 
#    0.000    2.857    4.714    0.857    0.000    0.000 
#    0.000    0.000    0.000    0.000    0.000    0.000 
#
# Total GULP energy -156282.204319 kJ/mol
# GULP energy per Si atom -5581.507297 kJ/mol
# Density = 2.328670 g / cm^3
# Si number density = 23.339823 Si / 1000 Ang^3
#
#
#
# Elastic Constant Matrix: (Units=GPa)
#
#
# Indices 1 2 3 4 5 6 
#
# 1 102.4403 34.2302 14.9668 0.0000 14.1006 0.0000
# 2 34.2302 90.8813 17.7403 0.0000 -2.6365 0.0000
# 3 14.9668 17.7403 42.6762 0.0000 0.0289 0.0000
# 4 0.0000 0.0000 0.0000 14.6392 0.0000 -1.7014
# 5 14.1006 -2.6365 0.0289 0.0000 34.9698 0.0000
# 6 0.0000 0.0000 0.0000 -1.7014 0.0000 45.1503
#
#
#
# Elastic Compliance Matrix: (Units=1/GPa)
#
#
# Indices 1 2 3 4 5 6 
#
# 1 0.012290 -0.004290 -0.002524 0.000000 -0.005277 0.000000
# 2 -0.004290 0.013501 -0.004110 0.000000 0.002751 0.000000
# 3 -0.002524 -0.004110 0.026025 0.000000 0.000686 0.000000
# 4 0.000000 0.000000 0.000000 0.068610 0.000000 0.002585
# 5 -0.005277 0.002751 0.000686 0.000000 0.030931 0.000000
# 6 0.000000 0.000000 0.000000 0.002585 0.000000 0.022246
#
#
# Mechanical properties :
#
#
# Convention : Reuss Voigt Hill
#
# Bulk Modulus (GPa) = 33.36592 41.09694 37.23143
# Shear Modulus (GPa) = 24.33808 30.22255 27.28031
#
# Velocity S-wave (km/s) = 3.23270 3.60236 3.42253
# Velocity P-wave (km/s) = 5.31606 5.91177 5.62181
#
# Compressibility (1/GPa) = 0.02997070
#
# Stress axis : x y z
#
# Youngs Moduli (GPa) = 81.36574 74.06816 38.42423
#
# Poissons Ratio (x) = 0.31772 0.09696
# Poissons Ratio (y) = 0.34902 0.15792
# Poissons Ratio (z) = 0.20533 0.30441
#
# Static dielectric constant tensor:
#      x y z
#    x 2.040980 0.000000 0.096030 
#    y 0.000000 1.923740 0.000000 
#    z 0.096030 0.000000 1.901230 
# 
# From -- ./inp_files/223003.got.cif
#   From: 2010.05.17/outbox.cif.g08.bks.cpg/sg15_112_cif.got.tgz:223003.got - 2010.06.03 18:47:42.
