data_PCOD9275728
_publ_section_title
;
Structure prediction by ZEFSAII (Michael W. Deem and Ramdas Pophale) SiO2 
 PCOD9275728
Probable space group: C 2/C
;
_chemical_formula_sum "Si O2"
_cell_formula_units_Z 56
_cell_length_a 18.852742
_cell_length_b 10.072597
_cell_length_c 14.368540
_cell_angle_alpha 90.000000
_cell_angle_beta 115.984994
_cell_angle_gamma 90.000000
_cell_volume 2452.699084
_symmetry_space_group_name_H-M "C 2/C"
_symmetry_group_IT_number 15
_symmetry_cell_setting 'monoclinic'
loop_
_space_group_symop_operation_xyz
x,y,z
-x,y,1/2-z
-x,-y,-z
x,-y,1/2+z
1/2+x,1/2+y,z
1/2-x,1/2+y,1/2-z
1/2-x,1/2-y,-z
1/2+x,1/2-y,1/2+z
loop_
_atom_site_type_symbol
_atom_site_label
_atom_site_fract_x
_atom_site_fract_y
_atom_site_fract_z
Si Si1 0.773640 0.684604 0.792847
Si Si2 0.120710 0.770715 0.091501
Si Si3 0.525085 0.394126 0.889073
Si Si4 0.698945 0.643082 0.026604
Si Si5 0.267899 0.049403 0.424370
Si Si6 0.879779 0.798368 0.732110
Si Si7 0.018090 0.800905 0.363977
O O1 0.684646 0.683924 0.704039
O O2 0.786045 0.823374 0.856688
O O3 0.796440 0.573530 0.879466
O O4 0.829949 0.672300 0.735429
O O5 0.166709 0.665485 0.050860
O O6 0.041365 0.725867 0.100266
O O7 0.084353 0.889152 0.008885
O O8 0.442673 0.318742 0.850628
O O9 0.571198 0.317158 0.833706
O O10 0.497155 0.541872 0.850073
O O11 0.750000 0.750000 0.000000
O O12 0.734511 0.505191 0.004129
O O13 0.609468 0.682486 0.945854
O O14 0.189790 0.097580 0.325677
O O15 0.000000 0.749234 0.250000
#
# Coordination Sequence:
#
# PCOD9275728 Si02
#       7
#     8   8   8   8   8   8   8
#     4  10  22  39  63  89 133 172 217 261 337 396
#     4  11  25  38  64 101 128 165 226 276 325 396
#     4  11  21  39  63  94 127 163 214 278 326 378
#     4  10  20  39  64  88 122 176 211 260 324 398
#     4  10  21  43  60  94 130 169 214 270 326 399
#     4  10  20  40  62  92 125 162 215 269 328 385
#     4  12  21  40  68  95 130 166 224 274 324 387
#
# _framework density 22.831989
#
# number of rings (size 3 to 8) (size 9 to 14) (size 15 to 20)
#    0.000    1.429    2.857    3.857    0.000    4.571 
#    5.143    6.429    3.143    0.000    0.000    0.000 
#    0.000    0.000    0.000    0.000    0.000    0.000 
#
# Total GULP energy -155896.812281 kJ/mol
# GULP energy per Si atom -5567.743296 kJ/mol
# Density = 2.278002 g / cm^3
# Si number density = 22.831989 Si / 1000 Ang^3
#
#
#
# Elastic Constant Matrix: (Units=GPa)
#
#
# Indices 1 2 3 4 5 6 
#
# 1 144.3772 13.8361 25.2129 0.0000 13.2290 0.0000
# 2 13.8361 31.6824 8.0111 0.0000 6.3321 0.0000
# 3 25.2129 8.0111 102.4625 0.0000 10.9782 0.0000
# 4 0.0000 0.0000 0.0000 30.7801 0.0000 -2.7872
# 5 13.2290 6.3321 10.9782 0.0000 34.1032 0.0000
# 6 0.0000 0.0000 0.0000 -2.7872 0.0000 -11.0425
#
#
#
# Elastic Compliance Matrix: (Units=1/GPa)
#
#
# Indices 1 2 3 4 5 6 
#
# 1 0.007610 -0.002553 -0.001458 0.000000 -0.002009 0.000000
# 2 -0.002553 0.034028 -0.001514 0.000000 -0.004841 0.000000
# 3 -0.001458 -0.001514 0.010508 0.000000 -0.002536 0.000000
# 4 0.000000 0.000000 0.000000 0.031762 0.000000 -0.008017
# 5 -0.002009 -0.004841 -0.002536 0.000000 0.031817 0.000000
# 6 0.000000 0.000000 0.000000 -0.008017 0.000000 -0.088536
#
#
# Mechanical properties :
#
#
# Convention : Reuss Voigt Hill
#
# Bulk Modulus (GPa) = 24.33236 41.40468 32.86852
# Shear Modulus (GPa) = 96.26757 26.19898 61.23327
#
# Velocity S-wave (km/s) = 6.50038 3.39110 5.18433
# Velocity P-wave (km/s) = 8.18659 5.78849 7.08967
#
# Compressibility (1/GPa) = 0.04109753
#
# Stress axis : x y z
#
# Youngs Moduli (GPa) = 131.41338 29.38714 95.16152
#
# Poissons Ratio (x) = 0.07503 0.13871
# Poissons Ratio (y) = 0.33553 0.14404
# Poissons Ratio (z) = 0.19156 0.04448
#
# Static dielectric constant tensor:
#      x y z
#    x 1.938150 0.000000 -0.081470 
#    y 0.000000 1.947400 0.000000 
#    z -0.081470 0.000000 1.916960 
# 
# From -- ./inp_files/161404.got.cif
#   From: 2010.05.17/outbox.cif.g08.bks.cpg/sg15_81_cif.got.tgz:161404.got - 2010.06.03 18:47:42.
