data_PCOD9275560
_publ_section_title
;
Structure prediction by ZEFSAII (Michael W. Deem and Ramdas Pophale) SiO2 
 PCOD9275560
Probable space group: C 2/C
;
_chemical_formula_sum "Si O2"
_cell_formula_units_Z 52
_cell_length_a 24.012146
_cell_length_b 13.022635
_cell_length_c 9.691860
_cell_angle_alpha 90.000000
_cell_angle_beta 134.039336
_cell_angle_gamma 90.000000
_cell_volume 2178.627275
_symmetry_space_group_name_H-M "C 2/C"
_symmetry_group_IT_number 15
_symmetry_cell_setting 'monoclinic'
loop_
_space_group_symop_operation_xyz
x,y,z
-x,y,1/2-z
-x,-y,-z
x,-y,1/2+z
1/2+x,1/2+y,z
1/2-x,1/2+y,1/2-z
1/2-x,1/2-y,-z
1/2+x,1/2-y,1/2+z
loop_
_atom_site_type_symbol
_atom_site_label
_atom_site_fract_x
_atom_site_fract_y
_atom_site_fract_z
Si Si1 0.500000 0.304216 0.750000
Si Si2 0.892520 0.883767 0.787003
Si Si3 0.282504 0.283061 0.376146
Si Si4 0.372492 0.257867 0.011806
Si Si5 0.612707 0.117334 0.988266
Si Si6 0.121104 0.564635 0.309016
Si Si7 0.193033 0.097846 0.857934
O O1 0.466727 0.371074 0.816699
O O2 0.434735 0.222131 0.597337
O O3 0.822880 0.824791 0.583113
O O4 0.911963 0.832283 0.968096
O O5 0.860705 0.998295 0.740701
O O6 0.191452 0.298026 0.195990
O O7 0.301001 0.162171 0.387607
O O8 0.315602 0.343812 0.301255
O O9 0.409962 0.165167 0.162975
O O10 0.331550 0.328119 0.058446
O O11 0.600464 0.066948 0.114100
O O12 0.593881 0.037652 0.837195
O O13 0.215553 0.570846 0.473696
#
# Coordination Sequence:
#
# PCOD9275560 Si02
#       7
#     4   8   8   8   8   8   8
#     4  10  28  50  62  88 140 178 236 274 304 380
#     4  11  24  40  68  90 128 184 230 260 324 396
#     4  10  20  39  62  97 144 159 204 282 335 391
#     4  11  21  40  64 105 133 167 210 272 346 396
#     4  11  23  44  65  94 131 181 217 271 327 382
#     4  11  24  38  70 102 137 163 216 275 344 394
#     4  11  21  40  66 106 136 167 208 278 346 395
#
# _framework density 23.868241999999999
#
# number of rings (size 3 to 8) (size 9 to 14) (size 15 to 20)
#    0.000    1.231    3.077    3.231    8.615    0.615 
#    0.000    6.923    0.000    0.000    0.000    0.000 
#    0.000    0.000    0.000    0.000    0.000    0.000 
#
# Total GULP energy -145397.692951 kJ/mol
# GULP energy per Si atom -5592.218960 kJ/mol
# Density = 2.381392 g / cm^3
# Si number density = 23.868242 Si / 1000 Ang^3
#
#
#
# Elastic Constant Matrix: (Units=GPa)
#
#
# Indices 1 2 3 4 5 6 
#
# 1 95.5335 34.6420 16.7993 0.0000 -28.9319 0.0000
# 2 34.6420 100.0658 12.0144 0.0000 -16.9465 0.0000
# 3 16.7993 12.0144 57.8536 0.0000 -34.1725 0.0000
# 4 0.0000 0.0000 0.0000 15.2628 0.0000 -7.5463
# 5 -28.9319 -16.9465 -34.1725 0.0000 37.7610 0.0000
# 6 0.0000 0.0000 0.0000 -7.5463 0.0000 31.9897
#
#
#
# Elastic Compliance Matrix: (Units=1/GPa)
#
#
# Indices 1 2 3 4 5 6 
#
# 1 0.015260 -0.003399 0.004898 0.000000 0.014599 0.000000
# 2 -0.003399 0.011620 0.000249 0.000000 0.002837 0.000000
# 3 0.004898 0.000249 0.038873 0.000000 0.039043 0.000000
# 4 0.000000 0.000000 0.000000 0.074170 0.000000 0.017496
# 5 0.014599 0.002837 0.039043 0.000000 0.074274 0.000000
# 6 0.000000 0.000000 0.000000 0.017496 0.000000 0.035387
#
#
# Mechanical properties :
#
#
# Convention : Reuss Voigt Hill
#
# Bulk Modulus (GPa) = 14.44033 42.26272 28.35153
# Shear Modulus (GPa) = 18.57562 29.66918 24.12240
#
# Velocity S-wave (km/s) = 2.79275 3.52950 3.18252
# Velocity P-wave (km/s) = 4.05739 5.86131 5.04070
#
# Compressibility (1/GPa) = 0.06925049
#
# Stress axis : x y z
#
# Youngs Moduli (GPa) = 65.53119 86.05521 25.72500
#
# Poissons Ratio (x) = 0.29246 -0.12600
# Poissons Ratio (y) = 0.22271 -0.00641
# Poissons Ratio (z) = -0.32098 -0.02144
#
# Static dielectric constant tensor:
#      x y z
#    x 2.070200 0.000000 0.105540 
#    y 0.000000 1.899260 0.000000 
#    z 0.105540 0.000000 1.913550 
# 
# From -- ./inp_files/65597.got.cif
#   From: 2010.05.17/outbox.cif.g08.bks.cpg/sg15_33_cif.got.tgz:65597.got - 2010.06.03 18:47:42.
