data_PCOD9275337
_publ_section_title
;
Structure prediction by ZEFSAII (Michael W. Deem and Ramdas Pophale) SiO2 
 PCOD9275337
Probable space group: C 2/C
;
_chemical_formula_sum "Si O2"
_cell_formula_units_Z 64
_cell_length_a 28.099758
_cell_length_b 15.938161
_cell_length_c 11.348302
_cell_angle_alpha 90.000000
_cell_angle_beta 144.857392
_cell_angle_gamma 90.000000
_cell_volume 2925.517177
_symmetry_space_group_name_H-M "C 2/C"
_symmetry_group_IT_number 15
_symmetry_cell_setting 'monoclinic'
loop_
_space_group_symop_operation_xyz
x,y,z
-x,y,1/2-z
-x,-y,-z
x,-y,1/2+z
1/2+x,1/2+y,z
1/2-x,1/2+y,1/2-z
1/2-x,1/2-y,-z
1/2+x,1/2-y,1/2+z
loop_
_atom_site_type_symbol
_atom_site_label
_atom_site_fract_x
_atom_site_fract_y
_atom_site_fract_z
Si Si1 0.805751 0.278145 0.804507
Si Si2 0.829680 0.123800 0.198213
Si Si3 0.277128 0.034517 0.340208
Si Si4 0.126283 0.256227 0.014989
Si Si5 0.923089 0.276005 0.829834
Si Si6 0.909331 0.526076 0.279467
Si Si7 0.441597 0.310922 0.738001
Si Si8 0.686609 0.096093 0.752084
O O1 0.787322 0.377122 0.791715
O O2 0.718482 0.234157 0.647299
O O3 0.846011 0.256404 0.760287
O O4 0.870487 0.245096 0.032964
O O5 0.793140 0.047760 0.202189
O O6 0.864994 0.187813 0.366104
O O7 0.898544 0.120787 0.235810
O O8 0.744339 0.149008 0.957567
O O9 0.367187 0.012603 0.577774
O O10 0.255638 0.951417 0.224205
O O11 0.114785 0.345617 0.054420
O O12 0.072800 0.235611 0.792073
O O13 0.911259 0.374254 0.781565
O O14 0.002251 0.249395 0.066322
O O15 0.852535 0.483375 0.262829
O O16 0.000000 0.500000 0.500000
O O17 0.500000 0.343208 0.750000
#
# Coordination Sequence:
#
# PCOD9275337 Si02
#       8
#     8   8   8   8   8   8   8   8
#     4  10  20  39  60  87 124 172 215 260 314 384
#     4  10  23  40  65  90 122 173 221 271 311 389
#     4  10  21  37  61  91 122 167 222 263 315 381
#     4  11  22  37  61  94 123 167 220 268 315 372
#     4  11  22  37  56  93 131 163 209 266 326 385
#     4  11  23  35  52  86 136 173 204 247 321 395
#     4  10  22  39  63  90 126 174 215 260 333 388
#     4  11  21  39  62  89 124 169 221 258 319 382
#
# _framework density 21.876474000000002
#
# number of rings (size 3 to 8) (size 9 to 14) (size 15 to 20)
#    0.000    1.500    3.750    1.500    5.250    1.000 
#    0.000    0.000    0.000    0.750    0.000    0.000 
#    0.000    0.000    0.000    0.000    0.000    0.000 
#
# Total GULP energy -178437.032801 kJ/mol
# GULP energy per Si atom -5576.157275 kJ/mol
# Density = 2.182668 g / cm^3
# Si number density = 21.876474 Si / 1000 Ang^3
#
#
#
# Elastic Constant Matrix: (Units=GPa)
#
#
# Indices 1 2 3 4 5 6 
#
# 1 98.4732 21.8275 26.7129 0.0000 -15.1839 0.0000
# 2 21.8275 48.4468 16.8152 0.0000 -5.6098 0.0000
# 3 26.7129 16.8152 79.7782 0.0000 -20.2087 0.0000
# 4 0.0000 0.0000 0.0000 21.7282 0.0000 -4.3449
# 5 -15.1839 -5.6098 -20.2087 0.0000 36.6635 0.0000
# 6 0.0000 0.0000 0.0000 -4.3449 0.0000 25.3250
#
#
#
# Elastic Compliance Matrix: (Units=1/GPa)
#
#
# Indices 1 2 3 4 5 6 
#
# 1 0.012241 -0.004323 -0.002407 0.000000 0.003081 0.000000
# 2 -0.004323 0.023826 -0.003608 0.000000 -0.000134 0.000000
# 3 -0.002407 -0.003608 0.015934 0.000000 0.007233 0.000000
# 4 0.000000 0.000000 0.000000 0.047658 0.000000 0.008176
# 5 0.003081 -0.000134 0.007233 0.000000 0.032518 0.000000
# 6 0.000000 0.000000 0.000000 0.008176 0.000000 0.040889
#
#
# Mechanical properties :
#
#
# Convention : Reuss Voigt Hill
#
# Bulk Modulus (GPa) = 31.92436 39.71216 35.81826
# Shear Modulus (GPa) = 24.48768 27.49952 25.99360
#
# Velocity S-wave (km/s) = 3.34932 3.54932 3.45077
# Velocity P-wave (km/s) = 5.43893 5.91517 5.68204
#
# Compressibility (1/GPa) = 0.03132404
#
# Stress axis : x y z
#
# Youngs Moduli (GPa) = 81.68991 41.97131 62.76045
#
# Poissons Ratio (x) = 0.18144 0.15107
# Poissons Ratio (y) = 0.35315 0.22645
# Poissons Ratio (z) = 0.19664 0.15144
#
# Static dielectric constant tensor:
#      x y z
#    x 1.943580 0.000000 -0.055560 
#    y 0.000000 1.783410 0.000000 
#    z -0.055560 0.000000 1.844820 
# 
# From -- ./inp_files/127316.got.cif
#   From: 2010.05.17/outbox.cif.g08.bks.cpg/sg15_64_cif.got.tgz:127316.got - 2010.06.03 18:47:42.
