data_PCOD9275646
_publ_section_title
;
Structure prediction by ZEFSAII (Michael W. Deem and Ramdas Pophale) SiO2 
 PCOD9275646
Probable space group: C 2/C
;
_chemical_formula_sum "Si O2"
_cell_formula_units_Z 52
_cell_length_a 12.405024
_cell_length_b 7.677203
_cell_length_c 23.501710
_cell_angle_alpha 90.000000
_cell_angle_beta 79.611266
_cell_angle_gamma 90.000000
_cell_volume 2201.515176
_symmetry_space_group_name_H-M "C 2/C"
_symmetry_group_IT_number 15
_symmetry_cell_setting 'monoclinic'
loop_
_space_group_symop_operation_xyz
x,y,z
-x,y,1/2-z
-x,-y,-z
x,-y,1/2+z
1/2+x,1/2+y,z
1/2-x,1/2+y,1/2-z
1/2-x,1/2-y,-z
1/2+x,1/2-y,1/2+z
loop_
_atom_site_type_symbol
_atom_site_label
_atom_site_fract_x
_atom_site_fract_y
_atom_site_fract_z
Si Si1 0.228620 0.425861 0.215991
Si Si2 0.276642 0.809359 0.405937
Si Si3 0.672213 0.201233 0.059964
Si Si4 0.512848 0.659515 0.371685
Si Si5 0.953321 0.142500 0.548759
Si Si6 0.000000 0.753446 0.750000
Si Si7 0.262535 0.811650 0.164262
O O1 0.253832 0.301171 0.158957
O O2 0.103216 0.373445 0.238057
O O3 0.244852 0.618109 0.191180
O O4 0.272902 0.420168 0.276707
O O5 0.392122 0.712817 0.404940
O O6 0.164215 0.768301 0.450022
O O7 0.301146 0.008682 0.421016
O O8 0.548251 0.220757 0.051409
O O9 0.695255 0.326539 0.112262
O O10 0.750000 0.250000 0.000000
O O11 0.556638 0.486680 0.396593
O O12 0.502172 0.632655 0.305772
O O13 0.608283 0.808274 0.366849
O O14 0.000000 0.000000 0.500000
#
# Coordination Sequence:
#
# PCOD9275646 Si02
#       7
#     8   8   8   8   8   4   8
#     4   9  18  37  60  89 126 161 202 259 308 375
#     4  10  22  44  63  91 130 161 208 260 315 371
#     4  11  22  43  65  91 128 168 208 264 314 372
#     4  10  20  41  66  89 126 165 201 264 312 372
#     4  12  23  43  67  89 126 165 213 263 311 373
#     4   8  18  34  62  90 122 164 200 250 316 374
#     4  10  20  39  63  91 128 164 207 259 319 375
#
# _framework density 23.620097000000001
#
# number of rings (size 3 to 8) (size 9 to 14) (size 15 to 20)
#    0.000    1.846    4.615    0.000    0.000    4.308 
#   13.846    1.538    0.000    0.000    0.000    0.000 
#    0.000    0.000    0.000    0.000    0.000    0.000 
#
# Total GULP energy -145069.725730 kJ/mol
# GULP energy per Si atom -5579.604836 kJ/mol
# Density = 2.356634 g / cm^3
# Si number density = 23.620097 Si / 1000 Ang^3
#
#
#
# Elastic Constant Matrix: (Units=GPa)
#
#
# Indices 1 2 3 4 5 6 
#
# 1 97.1920 -2.5382 27.6184 0.0000 -23.6555 0.0000
# 2 -2.5382 27.0649 12.4446 0.0000 1.7886 0.0000
# 3 27.6184 12.4446 75.8507 0.0000 -8.0926 0.0000
# 4 0.0000 0.0000 0.0000 29.2711 0.0000 -0.4323
# 5 -23.6555 1.7886 -8.0926 0.0000 40.0580 0.0000
# 6 0.0000 0.0000 0.0000 -0.4323 0.0000 38.4607
#
#
#
# Elastic Compliance Matrix: (Units=1/GPa)
#
#
# Indices 1 2 3 4 5 6 
#
# 1 0.013332 0.002918 -0.004606 0.000000 0.006812 0.000000
# 2 0.002918 0.041001 -0.007973 0.000000 -0.001718 0.000000
# 3 -0.004606 -0.007973 0.016268 0.000000 0.000922 0.000000
# 4 0.000000 0.000000 0.000000 0.034169 0.000000 0.000384
# 5 0.006812 -0.001718 0.000922 0.000000 0.029250 0.000000
# 6 0.000000 0.000000 0.000000 0.000384 0.000000 0.026005
#
#
# Mechanical properties :
#
#
# Convention : Reuss Voigt Hill
#
# Bulk Modulus (GPa) = 19.50120 30.57303 25.03711
# Shear Modulus (GPa) = 25.45312 32.39682 28.92497
#
# Velocity S-wave (km/s) = 3.28625 3.70750 3.50321
# Velocity P-wave (km/s) = 4.76166 5.59457 5.19483
#
# Compressibility (1/GPa) = 0.05127889
#
# Stress axis : x y z
#
# Youngs Moduli (GPa) = 75.00690 24.38944 61.47217
#
# Poissons Ratio (x) = -0.07117 0.28317
# Poissons Ratio (y) = -0.21888 0.49011
# Poissons Ratio (z) = 0.34551 0.19445
#
# Static dielectric constant tensor:
#      x y z
#    x 1.978820 0.000000 0.060720 
#    y 0.000000 1.897290 0.000000 
#    z 0.060720 0.000000 2.077990 
# 
# From -- ./inp_files/291129.got.cif
#   From: 2010.05.17/outbox.cif.g08.bks.cpg/sg15_146_cif.got.tgz:291129.got - 2010.06.03 18:47:42.
