data_PCOD9275821
_publ_section_title
;
Structure prediction by ZEFSAII (Michael W. Deem and Ramdas Pophale) SiO2 
 PCOD9275821
Probable space group: C 2/C
;
_chemical_formula_sum "Si O2"
_cell_formula_units_Z 48
_cell_length_a 17.457402
_cell_length_b 15.690393
_cell_length_c 14.018804
_cell_angle_alpha 90.000000
_cell_angle_beta 137.110230
_cell_angle_gamma 90.000000
_cell_volume 2613.424770
_symmetry_space_group_name_H-M "C 2/C"
_symmetry_group_IT_number 15
_symmetry_cell_setting 'monoclinic'
loop_
_space_group_symop_operation_xyz
x,y,z
-x,y,1/2-z
-x,-y,-z
x,-y,1/2+z
1/2+x,1/2+y,z
1/2-x,1/2+y,1/2-z
1/2-x,1/2-y,-z
1/2+x,1/2-y,1/2+z
loop_
_atom_site_type_symbol
_atom_site_label
_atom_site_fract_x
_atom_site_fract_y
_atom_site_fract_z
Si Si1 0.559558 0.973577 0.704770
Si Si2 0.966845 0.807838 0.983462
Si Si3 0.845543 0.883859 0.224554
Si Si4 0.493435 0.545324 0.133618
Si Si5 0.099904 0.380421 0.091728
Si Si6 0.304477 0.405062 0.965477
O O1 0.500000 0.993461 0.750000
O O2 0.476202 0.918843 0.562645
O O3 0.674755 0.923785 0.830496
O O4 0.588355 0.057953 0.671371
O O5 0.994741 0.876165 0.926665
O O6 0.945512 0.713493 0.927660
O O7 0.855509 0.838281 0.937846
O O8 0.067943 0.815949 0.152234
O O9 0.727814 0.879802 0.171289
O O10 0.907918 0.975560 0.294557
O O11 0.827667 0.875010 0.094898
O O12 0.500000 0.572225 0.250000
O O13 0.378504 0.491205 0.017403
#
# Coordination Sequence:
#
# PCOD9275821 Si02
#       6
#     8   8   8   8   8   8
#     4  11  23  43  60  81 117 163 199 233 292 360
#     4  11  22  36  60  93 120 146 190 254 294 341
#     4  10  20  40  60  89 115 153 199 235 293 347
#     4   9  19  37  64  86 112 153 200 240 283 339
#     4  11  25  38  59  87 121 156 192 241 298 355
#     4  10  20  39  65  84 113 156 197 244 286 344
#
# _framework density 18.366705
#
# number of rings (size 3 to 8) (size 9 to 14) (size 15 to 20)
#    0.000    1.667    1.667    5.500    2.333    2.667 
#    0.000    0.000    0.000    5.000    0.000    0.000 
#    0.000    0.000    0.000    0.000    0.000    0.000 
#
# Total GULP energy -134116.622674 kJ/mol
# GULP energy per Si atom -5588.192611 kJ/mol
# Density = 1.832490 g / cm^3
# Si number density = 18.366705 Si / 1000 Ang^3
#
#
#
# Elastic Constant Matrix: (Units=GPa)
#
#
# Indices 1 2 3 4 5 6 
#
# 1 60.7492 -2.9605 31.8716 0.0000 16.1732 0.0000
# 2 -2.9605 26.3484 4.5950 0.0000 8.3355 0.0000
# 3 31.8716 4.5950 88.2733 0.0000 14.0195 0.0000
# 4 0.0000 0.0000 0.0000 1.9484 0.0000 0.8900
# 5 16.1732 8.3355 14.0195 0.0000 34.1000 0.0000
# 6 0.0000 0.0000 0.0000 0.8900 0.0000 1.4472
#
#
#
# Elastic Compliance Matrix: (Units=1/GPa)
#
#
# Indices 1 2 3 4 5 6 
#
# 1 0.023152 0.006929 -0.007176 0.000000 -0.009725 0.000000
# 2 0.006929 0.043236 -0.002730 0.000000 -0.012733 0.000000
# 3 -0.007176 -0.002730 0.014352 0.000000 -0.001830 0.000000
# 4 0.000000 0.000000 0.000000 0.713734 0.000000 -0.438925
# 5 -0.009725 -0.012733 -0.001830 0.000000 0.037802 0.000000
# 6 0.000000 0.000000 0.000000 -0.438925 0.000000 0.960938
#
#
# Mechanical properties :
#
#
# Convention : Reuss Voigt Hill
#
# Bulk Modulus (GPa) = 13.37132 26.93145 20.15138
# Shear Modulus (GPa) = 2.74108 16.95676 9.84892
#
# Velocity S-wave (km/s) = 1.22297 3.04177 2.31819
# Velocity P-wave (km/s) = 3.04798 5.19919 4.26156
#
# Compressibility (1/GPa) = 0.07478694
#
# Stress axis : x y z
#
# Youngs Moduli (GPa) = 43.19215 23.12902 69.67689
#
# Poissons Ratio (x) = -0.16027 0.49997
# Poissons Ratio (y) = -0.29929 0.19023
# Poissons Ratio (z) = 0.30993 0.06315
#
# Static dielectric constant tensor:
#      x y z
#    x 1.608600 0.000000 -0.003620 
#    y 0.000000 1.610300 0.000000 
#    z -0.003620 0.000000 1.631660 
# 
# From -- ./inp_files/96841.got.cif
#   From: 2010.05.17/outbox.cif.g08.bks.cpg/sg15_49_cif.got.tgz:96841.got - 2010.06.03 18:47:42.
