data_PCOD9275407
_publ_section_title
;
Structure prediction by ZEFSAII (Michael W. Deem and Ramdas Pophale) SiO2 
 PCOD9275407
Probable space group: C 2/C
;
_chemical_formula_sum "Si O2"
_cell_formula_units_Z 48
_cell_length_a 13.458864
_cell_length_b 5.550022
_cell_length_c 30.082646
_cell_angle_alpha 90.000000
_cell_angle_beta 62.234165
_cell_angle_gamma 90.000000
_cell_volume 1988.351567
_symmetry_space_group_name_H-M "C 2/C"
_symmetry_group_IT_number 15
_symmetry_cell_setting 'monoclinic'
loop_
_space_group_symop_operation_xyz
x,y,z
-x,y,1/2-z
-x,-y,-z
x,-y,1/2+z
1/2+x,1/2+y,z
1/2-x,1/2+y,1/2-z
1/2-x,1/2-y,-z
1/2+x,1/2-y,1/2+z
loop_
_atom_site_type_symbol
_atom_site_label
_atom_site_fract_x
_atom_site_fract_y
_atom_site_fract_z
Si Si1 0.193682 0.605360 0.360465
Si Si2 0.685904 0.033726 0.267850
Si Si3 0.905809 0.221862 0.794738
Si Si4 0.380103 0.831161 0.468270
Si Si5 0.677298 0.996969 0.111247
Si Si6 0.104505 0.712241 0.958662
O O1 0.132811 0.616332 0.325976
O O2 0.295747 0.436404 0.324135
O O3 0.126881 0.483810 0.414578
O O4 0.253360 0.838751 0.367745
O O5 0.777745 0.252705 0.241672
O O6 0.610773 0.080483 0.240467
O O7 0.906658 0.341215 0.842759
O O8 0.000000 0.065241 0.750000
O O9 0.250000 0.750000 0.500000
O O10 0.483764 0.677944 0.467985
O O11 0.389006 0.858213 0.413443
O O12 0.395887 0.074728 0.494169
O O13 0.781097 0.135252 0.066090
#
# Coordination Sequence:
#
# PCOD9275407 Si02
#       6
#     8   8   8   8   8   8
#     4  10  21  42  61  90 131 175 226 281 347 418
#     4  10  20  39  61  87 129 178 223 282 345 411
#     4  10  23  40  60  95 129 177 230 283 346 415
#     4  11  23  44  69 101 135 173 225 284 347 424
#     4  11  22  44  67  97 134 176 229 281 341 424
#     4  10  24  44  66  98 137 175 218 283 351 413
#
# _framework density 24.140599999999999
#
# number of rings (size 3 to 8) (size 9 to 14) (size 15 to 20)
#    0.000    1.667    3.333    0.500    2.333    1.333 
#    6.000    0.000    0.000    0.000    0.000    0.000 
#    0.000    0.000    0.000    0.000    0.000    0.000 
#
# Total GULP energy -133633.680294 kJ/mol
# GULP energy per Si atom -5568.070012 kJ/mol
# Density = 2.408566 g / cm^3
# Si number density = 24.140600 Si / 1000 Ang^3
#
#
#
# Elastic Constant Matrix: (Units=GPa)
#
#
# Indices 1 2 3 4 5 6 
#
# 1 145.0887 23.5220 26.3504 -0.0002 -8.8657 0.0003
# 2 23.5220 39.7201 10.2140 -0.0003 0.2561 0.0013
# 3 26.3504 10.2140 105.6954 -0.0002 -5.0891 0.0002
# 4 -0.0002 -0.0003 -0.0002 21.1264 -0.0001 31.1560
# 5 -8.8657 0.2561 -5.0891 -0.0001 30.3125 0.0001
# 6 0.0003 0.0013 0.0002 31.1560 0.0001 -15.4402
#
#
#
# Elastic Compliance Matrix: (Units=1/GPa)
#
#
# Indices 1 2 3 4 5 6 
#
# 1 0.007998 -0.004372 -0.001469 0.000000 0.002130 0.000000
# 2 -0.004372 0.028221 -0.001724 -0.000001 -0.001807 0.000001
# 3 -0.001469 -0.001724 0.010055 0.000000 0.001273 0.000000
# 4 0.000000 -0.000001 0.000000 0.011906 0.000000 0.024024
# 5 0.002130 -0.001807 0.001273 0.000000 0.033842 0.000000
# 6 0.000000 0.000001 0.000000 0.024024 0.000000 -0.016290
#
#
# Mechanical properties :
#
#
# Convention : Reuss Voigt Hill
#
# Bulk Modulus (GPa) = 32.10982 45.63078 38.87030
# Shear Modulus (GPa) = 49.38624 22.56092 35.97358
#
# Velocity S-wave (km/s) = 4.52793 3.06038 3.86446
# Velocity P-wave (km/s) = 6.37701 5.60634 6.00405
#
# Compressibility (1/GPa) = 0.03114312
#
# Stress axis : x y z
#
# Youngs Moduli (GPa) = 125.02956 35.43520 99.45049
#
# Poissons Ratio (x) = 0.15494 0.14608
# Poissons Ratio (y) = 0.54669 0.17146
# Poissons Ratio (z) = 0.18366 0.06109
#
# Static dielectric constant tensor:
#      x y z
#    x 2.208370 0.000000 -0.047850 
#    y 0.000000 1.983960 0.000000 
#    z -0.047850 0.000000 2.073810 
# 
# From -- ./inp_files/312264.got.cif
#   From: 2010.05.17/outbox.cif.g08.bks.cpg/sg15_157_cif.got.tgz:312264.got - 2010.06.03 18:47:42.
