data_PCOD9275936
_publ_section_title
;
Structure prediction by ZEFSAII (Michael W. Deem and Ramdas Pophale) SiO2 
 PCOD9275936
Probable space group: C 2/C
;
_chemical_formula_sum "Si O2"
_cell_formula_units_Z 64
_cell_length_a 17.708311
_cell_length_b 21.488754
_cell_length_c 18.164851
_cell_angle_alpha 90.000000
_cell_angle_beta 149.660919
_cell_angle_gamma 90.000000
_cell_volume 3491.497236
_symmetry_space_group_name_H-M "C 2/C"
_symmetry_group_IT_number 15
_symmetry_cell_setting 'monoclinic'
loop_
_space_group_symop_operation_xyz
x,y,z
-x,y,1/2-z
-x,-y,-z
x,-y,1/2+z
1/2+x,1/2+y,z
1/2-x,1/2+y,1/2-z
1/2-x,1/2-y,-z
1/2+x,1/2-y,1/2+z
loop_
_atom_site_type_symbol
_atom_site_label
_atom_site_fract_x
_atom_site_fract_y
_atom_site_fract_z
Si Si1 0.986176 0.068678 0.520433
Si Si2 0.895016 0.745655 0.457270
Si Si3 0.133758 0.924477 0.415564
Si Si4 0.263271 0.379207 0.356145
Si Si5 0.160547 0.932599 0.921883
Si Si6 0.802658 0.185413 0.332296
Si Si7 0.678017 0.193946 0.392873
Si Si8 0.945698 0.354309 0.121266
O O1 0.938585 0.067888 0.564725
O O2 0.865562 0.114799 0.380779
O O3 0.146779 0.099443 0.639727
O O4 0.000000 0.000000 0.500000
O O5 0.792943 0.805668 0.388075
O O6 0.814751 0.702875 0.329284
O O7 0.919463 0.706747 0.551522
O O8 0.051778 0.771433 0.558074
O O9 0.259728 0.871976 0.524823
O O10 0.000000 0.903827 0.250000
O O11 0.186650 0.993359 0.437196
O O12 0.333416 0.412795 0.486929
O O13 0.087018 0.390791 0.205759
O O14 0.000000 0.918792 0.750000
O O15 0.295155 0.894372 0.998510
O O16 0.732596 0.196981 0.353815
O O17 0.500000 0.197045 0.250000
O O18 0.750000 0.250000 0.500000
O O19 0.000000 0.340261 0.250000
#
# Coordination Sequence:
#
# PCOD9275936 Si02
#       8
#     8   8   8   8   8   8   8   8
#     4  10  20  39  66  88 120 160 210 248 309 366
#     4  11  21  39  59  87 129 156 206 246 307 355
#     4  10  22  41  63  91 121 160 205 255 301 367
#     4  10  21  37  59  89 117 166 194 255 298 358
#     4  10  22  37  62  87 123 163 209 244 296 361
#     4  10  23  38  62  91 118 164 197 255 310 369
#     4  11  23  41  65  92 120 156 203 258 316 370
#     4  10  23  38  56  90 125 161 202 249 300 353
#
# _framework density 18.330245000000001
#
# number of rings (size 3 to 8) (size 9 to 14) (size 15 to 20)
#    0.000    1.750    2.500    1.125    3.500    6.000 
#    2.250    0.000    0.000    3.750    0.000    0.000 
#    0.000    0.000    0.000    0.000    0.000    0.000 
#
# Total GULP energy -178615.262570 kJ/mol
# GULP energy per Si atom -5581.726955 kJ/mol
# Density = 1.828852 g / cm^3
# Si number density = 18.330245 Si / 1000 Ang^3
#
#
#
# Elastic Constant Matrix: (Units=GPa)
#
#
# Indices 1 2 3 4 5 6 
#
# 1 79.1538 54.0639 46.3668 0.0000 31.5590 0.0000
# 2 54.0639 115.5379 73.5408 0.0006 8.9842 0.0003
# 3 46.3668 73.5408 122.4091 0.0010 17.6085 0.0005
# 4 0.0000 0.0006 0.0010 22.6799 0.0004 -4.7898
# 5 31.5590 8.9842 17.6085 0.0004 26.2643 0.0001
# 6 0.0000 0.0003 0.0005 -4.7898 0.0001 30.2553
#
#
#
# Elastic Compliance Matrix: (Units=1/GPa)
#
#
# Indices 1 2 3 4 5 6 
#
# 1 0.040688 -0.015921 0.000446 0.000001 -0.043743 0.000001
# 2 -0.015921 0.020265 -0.008742 -0.000001 0.018060 0.000000
# 3 0.000446 -0.008742 0.014276 0.000000 -0.007116 0.000000
# 4 0.000001 -0.000001 0.000000 0.045617 -0.000002 0.007222
# 5 -0.043743 0.018060 -0.007116 -0.000002 0.089229 -0.000001
# 6 0.000001 0.000000 0.000000 0.007222 -0.000001 0.034195
#
#
# Mechanical properties :
#
#
# Convention : Reuss Voigt Hill
#
# Bulk Modulus (GPa) = 37.32214 73.89376 55.60795
# Shear Modulus (GPa) = 16.57619 25.38185 20.97902
#
# Velocity S-wave (km/s) = 3.01043 3.72519 3.38672
# Velocity P-wave (km/s) = 5.69989 7.67481 6.75986
#
# Compressibility (1/GPa) = 0.02679375
#
# Stress axis : x y z
#
# Youngs Moduli (GPa) = 24.57750 49.34518 70.04602
#
# Poissons Ratio (x) = 0.78564 -0.03122
# Poissons Ratio (y) = 0.39131 0.61235
# Poissons Ratio (z) = -0.01095 0.43138
#
# Static dielectric constant tensor:
#      x y z
#    x 1.632370 0.000000 0.007030 
#    y 0.000000 1.634560 0.000000 
#    z 0.007030 0.000000 1.621310 
# 
# From -- ./inp_files/211978.got.cif
#   From: 2010.05.17/outbox.cif.g08.bks.cpg/sg15_106_cif.got.tgz:211978.got - 2010.06.03 18:47:42.
