data_PCOD9275338
_publ_section_title
;
Structure prediction by ZEFSAII (Michael W. Deem and Ramdas Pophale) SiO2 
 PCOD9275338
Probable space group: C 2/C
;
_chemical_formula_sum "Si O2"
_cell_formula_units_Z 64
_cell_length_a 14.026658
_cell_length_b 18.095090
_cell_length_c 23.299824
_cell_angle_alpha 90.000000
_cell_angle_beta 149.052914
_cell_angle_gamma 90.000000
_cell_volume 3041.156166
_symmetry_space_group_name_H-M "C 2/C"
_symmetry_group_IT_number 15
_symmetry_cell_setting 'monoclinic'
loop_
_space_group_symop_operation_xyz
x,y,z
-x,y,1/2-z
-x,-y,-z
x,-y,1/2+z
1/2+x,1/2+y,z
1/2-x,1/2+y,1/2-z
1/2-x,1/2-y,-z
1/2+x,1/2-y,1/2+z
loop_
_atom_site_type_symbol
_atom_site_label
_atom_site_fract_x
_atom_site_fract_y
_atom_site_fract_z
Si Si1 0.440379 0.634724 0.786165
Si Si2 0.909152 0.309161 0.145288
Si Si3 0.652836 0.436642 0.626961
Si Si4 0.533262 0.063674 0.563185
Si Si5 0.120386 0.949708 0.482964
Si Si6 0.844613 0.709632 0.218700
Si Si7 0.968610 0.723267 0.546015
Si Si8 0.512203 0.022298 0.832879
O O1 0.500000 0.633792 0.750000
O O2 0.243445 0.592635 0.681725
O O3 0.565405 0.596154 0.898864
O O4 0.428195 0.721411 0.796955
O O5 0.923710 0.397530 0.154548
O O6 0.000000 0.278640 0.250000
O O7 0.004707 0.287148 0.133713
O O8 0.700095 0.279952 0.040058
O O9 0.570591 0.420109 0.521008
O O10 0.485023 0.471191 0.576455
O O11 0.769717 0.365822 0.707972
O O12 0.807904 0.501338 0.706669
O O13 0.422711 0.141072 0.498985
O O14 0.480576 0.027249 0.595444
O O15 0.500000 0.000000 0.500000
O O16 0.338362 0.960256 0.603448
O O17 0.644048 0.747088 0.100433
O O18 0.000000 0.694067 0.250000
#
# Coordination Sequence:
#
# PCOD9275338 Si02
#       8
#     8   8   8   8   8   8   8   8
#     4  10  21  41  63  89 126 170 211 256 314 383
#     4  10  20  39  65  92 123 164 206 262 324 376
#     4  11  23  40  62  95 129 161 213 265 313 383
#     4  10  20  39  60  87 125 163 207 259 310 375
#     4  11  22  38  65  95 122 164 210 262 322 368
#     4  10  21  41  62  86 132 167 205 256 311 383
#     4   9  21  40  61  90 126 164 208 259 314 378
#     4  11  21  38  62  92 125 157 207 262 317 372
#
# _framework density 21.044627999999999
#
# number of rings (size 3 to 8) (size 9 to 14) (size 15 to 20)
#    0.000    1.750    1.250    3.375    0.000    1.000 
#    2.250   10.000    0.000    0.000    0.000    0.000 
#    0.000    0.000    0.000    0.000    0.000    0.000 
#
# Total GULP energy -178166.639276 kJ/mol
# GULP energy per Si atom -5567.707477 kJ/mol
# Density = 2.099673 g / cm^3
# Si number density = 21.044628 Si / 1000 Ang^3
#
#
#
# Elastic Constant Matrix: (Units=GPa)
#
#
# Indices 1 2 3 4 5 6 
#
# 1 62.9728 19.9616 13.6591 0.0001 -5.0146 0.0000
# 2 19.9616 77.6529 9.6638 0.0003 -14.5241 0.0000
# 3 13.6591 9.6638 58.2900 0.0003 -6.2519 -0.0001
# 4 0.0001 0.0003 0.0003 20.2046 0.0001 4.2860
# 5 -5.0146 -14.5241 -6.2519 0.0001 33.3237 -0.0001
# 6 0.0000 0.0000 -0.0001 4.2860 -0.0001 18.8221
#
#
#
# Elastic Compliance Matrix: (Units=1/GPa)
#
#
# Indices 1 2 3 4 5 6 
#
# 1 0.017970 -0.004138 -0.003499 0.000000 0.000244 0.000000
# 2 -0.004138 0.015142 -0.000918 0.000000 0.005804 0.000000
# 3 -0.003499 -0.000918 0.018398 0.000000 0.002525 0.000000
# 4 0.000000 0.000000 0.000000 0.052006 0.000000 -0.011842
# 5 0.000244 0.005804 0.002525 0.000000 0.033049 0.000000
# 6 0.000000 0.000000 0.000000 -0.011842 0.000000 0.055826
#
#
# Mechanical properties :
#
#
# Convention : Reuss Voigt Hill
#
# Bulk Modulus (GPa) = 29.06973 31.72052 30.39512
# Shear Modulus (GPa) = 22.62780 24.84550 23.73665
#
# Velocity S-wave (km/s) = 3.28263 3.43973 3.36210
# Velocity P-wave (km/s) = 5.31139 5.55710 5.43563
#
# Compressibility (1/GPa) = 0.03440005
#
# Stress axis : x y z
#
# Youngs Moduli (GPa) = 55.64834 66.04352 54.35239
#
# Poissons Ratio (x) = 0.27331 0.19016
# Poissons Ratio (y) = 0.23029 0.04989
# Poissons Ratio (z) = 0.19469 0.06063
#
# Static dielectric constant tensor:
#      x y z
#    x 1.846900 0.000000 0.028270 
#    y 0.000000 1.806830 0.000000 
#    z 0.028270 0.000000 1.744800 
# 
# From -- ./inp_files/274862.got.cif
#   From: 2010.05.17/outbox.cif.g08.bks.cpg/sg15_138_cif.got.tgz:274862.got - 2010.06.03 18:47:42.
