data_PCOD9275269
_publ_section_title
;
Structure prediction by ZEFSAII (Michael W. Deem and Ramdas Pophale) SiO2 
 PCOD9275269
Probable space group: C 2/C
;
_chemical_formula_sum "Si O2"
_cell_formula_units_Z 64
_cell_length_a 21.049219
_cell_length_b 8.898134
_cell_length_c 18.961169
_cell_angle_alpha 90.000000
_cell_angle_beta 135.563154
_cell_angle_gamma 90.000000
_cell_volume 2486.418180
_symmetry_space_group_name_H-M "C 2/C"
_symmetry_group_IT_number 15
_symmetry_cell_setting 'monoclinic'
loop_
_space_group_symop_operation_xyz
x,y,z
-x,y,1/2-z
-x,-y,-z
x,-y,1/2+z
1/2+x,1/2+y,z
1/2-x,1/2+y,1/2-z
1/2-x,1/2-y,-z
1/2+x,1/2-y,1/2+z
loop_
_atom_site_type_symbol
_atom_site_label
_atom_site_fract_x
_atom_site_fract_y
_atom_site_fract_z
Si Si1 0.455878 0.410534 0.903056
Si Si2 0.654557 0.335814 0.213102
Si Si3 0.180882 0.875020 0.477352
Si Si4 0.538864 0.796197 0.376178
Si Si5 0.636591 0.350839 0.842486
Si Si6 0.854792 0.305693 0.419576
Si Si7 0.752274 0.374646 0.143578
Si Si8 0.925355 0.485731 0.860073
O O1 0.408245 0.526935 0.813008
O O2 0.537926 0.306417 0.943539
O O3 0.376786 0.313179 0.875197
O O4 0.500000 0.500000 0.000000
O O5 0.746350 0.328882 0.331613
O O6 0.688667 0.364774 0.160951
O O7 0.593729 0.188607 0.160481
O O8 0.250000 0.750000 0.500000
O O9 0.122362 0.773450 0.487351
O O10 0.139024 0.984686 0.382212
O O11 0.223697 0.002682 0.562702
O O12 0.452584 0.709728 0.271054
O O13 0.625983 0.769585 0.399114
O O14 0.510900 0.957982 0.381387
O O15 0.722794 0.290847 0.867098
O O16 0.909086 0.446481 0.426685
O O17 0.843750 0.441034 0.250398
#
# Coordination Sequence:
#
# PCOD9275269 Si02
#       8
#     8   8   8   8   8   8   8   8
#     4  11  22  39  66  91 128 168 210 280 329 391
#     4  11  20  37  70  92 122 163 214 279 330 377
#     4  12  24  36  57  91 130 160 211 263 314 381
#     4   9  21  40  62  87 124 170 217 240 324 403
#     4  10  22  40  61  85 127 178 202 254 317 397
#     4  10  20  39  58  93 128 160 214 270 322 383
#     4  10  21  39  61  93 124 161 213 261 324 383
#     4   9  19  36  66  93 115 160 212 273 314 376
#
# _framework density 25.739837999999999
#
# number of rings (size 3 to 8) (size 9 to 14) (size 15 to 20)
#    0.000    1.750    2.500    2.625    3.500    0.000 
#    0.000    5.000    0.000    3.000    0.000    0.000 
#    0.000    0.000    0.000    0.000    0.000    0.000 
#
# Total GULP energy -178524.810579 kJ/mol
# GULP energy per Si atom -5578.900331 kJ/mol
# Density = 2.568125 g / cm^3
# Si number density = 25.739838 Si / 1000 Ang^3
#
#
#
# Elastic Constant Matrix: (Units=GPa)
#
#
# Indices 1 2 3 4 5 6 
#
# 1 82.3097 34.6551 -9.7192 0.0000 -14.3292 0.0000
# 2 34.6551 133.2603 6.2028 0.0000 4.3046 0.0000
# 3 -9.7192 6.2028 88.4685 0.0000 -9.5715 0.0000
# 4 0.0000 0.0000 0.0000 34.9216 0.0000 -4.8019
# 5 -14.3292 4.3046 -9.5715 0.0000 21.6489 0.0000
# 6 0.0000 0.0000 0.0000 -4.8019 0.0000 39.8388
#
#
#
# Elastic Compliance Matrix: (Units=1/GPa)
#
#
# Indices 1 2 3 4 5 6 
#
# 1 0.017188 -0.005099 0.003766 0.000000 0.014056 0.000000
# 2 -0.005099 0.009110 -0.001848 0.000000 -0.006004 0.000000
# 3 0.003766 -0.001848 0.012767 0.000000 0.008505 0.000000
# 4 0.000000 0.000000 0.000000 0.029118 0.000000 0.003510
# 5 0.014056 -0.006004 0.008505 0.000000 0.060449 0.000000
# 6 0.000000 0.000000 0.000000 0.003510 0.000000 0.025524
#
#
# Mechanical properties :
#
#
# Convention : Reuss Voigt Hill
#
# Bulk Modulus (GPa) = 30.57852 40.70176 35.64014
# Shear Modulus (GPa) = 29.16819 37.47518 33.32168
#
# Velocity S-wave (km/s) = 3.36994 3.81979 3.60190
# Velocity P-wave (km/s) = 5.20074 5.94151 5.58342
#
# Compressibility (1/GPa) = 0.03270270
#
# Stress axis : x y z
#
# Youngs Moduli (GPa) = 58.18080 109.76780 78.32673
#
# Poissons Ratio (x) = 0.55972 -0.29502
# Poissons Ratio (y) = 0.29667 0.14479
# Poissons Ratio (z) = -0.21914 0.20290
#
# Static dielectric constant tensor:
#      x y z
#    x 2.357460 0.000000 -0.069730 
#    y 0.000000 1.540650 0.000000 
#    z -0.069730 0.000000 2.393000 
# 
# From -- ./inp_files/255057.got.cif
#   From: 2010.05.17/outbox.cif.g08.bks.cpg/sg15_128_cif.got.tgz:255057.got - 2010.06.03 18:47:42.
