data_PCOD9275336
_publ_section_title
;
Structure prediction by ZEFSAII (Michael W. Deem and Ramdas Pophale) SiO2 
 PCOD9275336
Probable space group: C 2/C
;
_chemical_formula_sum "Si O2"
_cell_formula_units_Z 44
_cell_length_a 12.535658
_cell_length_b 22.526970
_cell_length_c 8.453585
_cell_angle_alpha 90.000000
_cell_angle_beta 68.458248
_cell_angle_gamma 90.000000
_cell_volume 2220.465070
_symmetry_space_group_name_H-M "C 2/C"
_symmetry_group_IT_number 15
_symmetry_cell_setting 'monoclinic'
loop_
_space_group_symop_operation_xyz
x,y,z
-x,y,1/2-z
-x,-y,-z
x,-y,1/2+z
1/2+x,1/2+y,z
1/2-x,1/2+y,1/2-z
1/2-x,1/2-y,-z
1/2+x,1/2-y,1/2+z
loop_
_atom_site_type_symbol
_atom_site_label
_atom_site_fract_x
_atom_site_fract_y
_atom_site_fract_z
Si Si1 0.285090 0.754985 0.219518
Si Si2 0.153792 0.327758 0.004956
Si Si3 0.628984 0.453743 0.154064
Si Si4 0.000000 0.407702 0.250000
Si Si5 0.248547 0.559543 0.585897
Si Si6 0.616717 0.676612 0.589374
O O1 0.186419 0.709863 0.335585
O O2 0.336978 0.785682 0.346227
O O3 0.223628 0.802447 0.139654
O O4 0.375449 0.716984 0.070203
O O5 0.247375 0.379997 0.984098
O O6 0.034993 0.364086 0.085363
O O7 0.500000 0.476579 0.250000
O O8 0.675634 0.435086 0.299881
O O9 0.625294 0.393638 0.053127
O O10 0.708101 0.503805 0.035889
O O11 0.884909 0.444682 0.287940
O O12 0.500000 0.685897 0.750000
#
# Coordination Sequence:
#
# PCOD9275336 Si02
#       6
#     8   8   8   4   8   8
#     4  10  20  39  60  87 123 159 191 249 300 366
#     4   9  20  39  61  90 120 155 202 242 302 365
#     4  11  23  41  60  85 124 158 210 255 295 367
#     4   8  20  38  64  92 124 150 200 262 292 368
#     4  10  22  40  61  87 121 158 205 253 308 355
#     4  10  22  36  60  87 119 155 198 246 301 354
#
# _framework density 19.815669
#
# number of rings (size 3 to 8) (size 9 to 14) (size 15 to 20)
#    1.091    1.091    1.818    0.545    5.091    0.727 
#    0.000    0.000    2.000    0.000    0.000    0.000 
#    0.000    0.000    0.000    0.000    0.000    0.000 
#
# Total GULP energy -122592.413795 kJ/mol
# GULP energy per Si atom -5572.382445 kJ/mol
# Density = 1.977057 g / cm^3
# Si number density = 19.815669 Si / 1000 Ang^3
#
#
#
# Elastic Constant Matrix: (Units=GPa)
#
#
# Indices 1 2 3 4 5 6 
#
# 1 49.4091 1.1793 4.5103 0.0000 -17.3667 0.0000
# 2 1.1793 104.8983 50.5202 0.0000 -16.8746 0.0000
# 3 4.5103 50.5202 63.3645 0.0000 -20.0800 0.0000
# 4 0.0000 0.0000 0.0000 -238.0781 0.0000 31.1884
# 5 -17.3667 -16.8746 -20.0800 0.0000 26.6376 0.0000
# 6 0.0000 0.0000 0.0000 31.1884 0.0000 14.0644
#
#
#
# Elastic Compliance Matrix: (Units=1/GPa)
#
#
# Indices 1 2 3 4 5 6 
#
# 1 0.027464 0.001317 0.003854 0.000000 0.021645 0.000000
# 2 0.001317 0.015547 -0.011951 0.000000 0.001698 0.000000
# 3 0.003854 -0.011951 0.030788 0.000000 0.018151 0.000000
# 4 0.000000 0.000000 0.000000 -0.003255 0.000000 0.007218
# 5 0.021645 0.001698 0.018151 0.000000 0.066411 0.000000
# 6 0.000000 0.000000 0.000000 0.007218 0.000000 0.055096
#
#
# Mechanical properties :
#
#
# Convention : Reuss Voigt Hill
#
# Bulk Modulus (GPa) = 16.60046 36.67682 26.63864
# Shear Modulus (GPa) = 22.15418 -28.71107 -3.27845
#
# Velocity S-wave (km/s) = 3.34730 -3.81058 -1.28766
# Velocity P-wave (km/s) = 4.83061 0.90085 3.35584
#
# Compressibility (1/GPa) = 0.06023929
#
# Stress axis : x y z
#
# Youngs Moduli (GPa) = 36.41135 64.31964 32.48025
#
# Poissons Ratio (x) = -0.08470 -0.12519
# Poissons Ratio (y) = -0.04795 0.38818
# Poissons Ratio (z) = -0.14035 0.76871
#
# Static dielectric constant tensor:
#      x y z
#    x 1.718380 0.000000 -0.007800 
#    y 0.000000 1.723410 0.000000 
#    z -0.007800 0.000000 1.693710 
# 
# From -- ./inp_files/41633.got.cif
#   From: 2010.05.17/outbox.cif.g08.bks.cpg/sg15_21_cif.got.tgz:41633.got - 2010.06.03 18:47:42.
