data_PCOD9275461
_publ_section_title
;
Structure prediction by ZEFSAII (Michael W. Deem and Ramdas Pophale) SiO2 
 PCOD9275461
Probable space group: C 2/C
;
_chemical_formula_sum "Si O2"
_cell_formula_units_Z 56
_cell_length_a 12.112774
_cell_length_b 16.782809
_cell_length_c 14.952933
_cell_angle_alpha 90.000000
_cell_angle_beta 124.953474
_cell_angle_gamma 90.000000
_cell_volume 2491.413972
_symmetry_space_group_name_H-M "C 2/C"
_symmetry_group_IT_number 15
_symmetry_cell_setting 'monoclinic'
loop_
_space_group_symop_operation_xyz
x,y,z
-x,y,1/2-z
-x,-y,-z
x,-y,1/2+z
1/2+x,1/2+y,z
1/2-x,1/2+y,1/2-z
1/2-x,1/2-y,-z
1/2+x,1/2-y,1/2+z
loop_
_atom_site_type_symbol
_atom_site_label
_atom_site_fract_x
_atom_site_fract_y
_atom_site_fract_z
Si Si1 0.970475 0.054173 0.830616
Si Si2 0.569145 0.157187 0.685273
Si Si3 0.794879 0.482542 0.737133
Si Si4 0.347998 0.271934 0.264295
Si Si5 0.616327 0.204335 0.413542
Si Si6 0.600187 0.075379 0.035307
Si Si7 0.768273 0.546070 0.023923
O O1 0.000000 0.013189 0.750000
O O2 0.895203 0.136623 0.769247
O O3 0.111481 0.068626 0.944815
O O4 0.863818 0.001583 0.833319
O O5 0.500000 0.172519 0.750000
O O6 0.694416 0.217713 0.725582
O O7 0.464809 0.146572 0.553759
O O8 0.631828 0.067732 0.717393
O O9 0.835095 0.421535 0.834876
O O10 0.822992 0.458455 0.649500
O O11 0.475207 0.240419 0.380705
O O12 0.366092 0.216445 0.185682
O O13 0.750000 0.250000 0.500000
O O14 0.640990 0.118669 0.469359
O O15 0.500000 0.000000 0.000000
O O16 0.710621 0.035108 0.019804
#
# Coordination Sequence:
#
# PCOD9275461 Si02
#       7
#     8   8   8   8   8   8   8
#     4  11  18  36  61  87 129 165 206 249 326 395
#     4  10  20  39  62  85 123 168 219 252 319 393
#     4  10  22  36  58  94 127 165 202 264 325 383
#     4  10  22  37  58  92 119 167 212 257 317 375
#     4  11  22  38  62  94 126 162 212 268 315 379
#     4  10  22  34  56  91 127 160 200 263 322 373
#     4  12  22  38  62  95 128 162 211 264 322 383
#
# _framework density 22.477195999999999
#
# number of rings (size 3 to 8) (size 9 to 14) (size 15 to 20)
#    0.000    1.429    5.714    0.429    4.000    4.571 
#    0.000    0.000    0.000    1.714    3.714    0.000 
#    0.000    0.000    0.000    0.000    0.000    0.000 
#
# Total GULP energy -156012.494162 kJ/mol
# GULP energy per Si atom -5571.874792 kJ/mol
# Density = 2.242604 g / cm^3
# Si number density = 22.477196 Si / 1000 Ang^3
#
#
#
# Elastic Constant Matrix: (Units=GPa)
#
#
# Indices 1 2 3 4 5 6 
#
# 1 110.3649 23.0855 33.1594 0.0000 12.2036 0.0000
# 2 23.0855 37.4694 11.2097 0.0000 8.6101 0.0000
# 3 33.1594 11.2097 124.1183 0.0000 -0.4248 0.0000
# 4 0.0000 0.0000 0.0000 26.7132 0.0000 1.5445
# 5 12.2036 8.6101 -0.4248 0.0000 41.3397 0.0000
# 6 0.0000 0.0000 0.0000 1.5445 0.0000 27.1150
#
#
#
# Elastic Compliance Matrix: (Units=1/GPa)
#
#
# Indices 1 2 3 4 5 6 
#
# 1 0.011238 -0.005681 -0.002497 0.000000 -0.002160 0.000000
# 2 -0.005681 0.031734 -0.001365 0.000000 -0.004946 0.000000
# 3 -0.002497 -0.001365 0.008851 0.000000 0.001112 0.000000
# 4 0.000000 0.000000 0.000000 0.037558 0.000000 -0.002139
# 5 -0.002160 -0.004946 0.001112 0.000000 0.025869 0.000000
# 6 0.000000 0.000000 0.000000 -0.002139 0.000000 0.037002
#
#
# Mechanical properties :
#
#
# Convention : Reuss Voigt Hill
#
# Bulk Modulus (GPa) = 30.54630 45.20689 37.87660
# Shear Modulus (GPa) = 27.43490 32.66677 30.05084
#
# Velocity S-wave (km/s) = 3.49745 3.81639 3.66040
# Velocity P-wave (km/s) = 5.47074 6.29093 5.89511
#
# Compressibility (1/GPa) = 0.03273718
#
# Stress axis : x y z
#
# Youngs Moduli (GPa) = 88.98308 31.51243 112.98204
#
# Poissons Ratio (x) = 0.17901 0.28208
# Poissons Ratio (y) = 0.50549 0.15425
# Poissons Ratio (z) = 0.22216 0.04302
#
# Static dielectric constant tensor:
#      x y z
#    x 1.943460 0.000000 0.034510 
#    y 0.000000 1.860300 0.000000 
#    z 0.034510 0.000000 1.844330 
# 
# From -- ./inp_files/146165.got.cif
#   From: 2010.05.17/outbox.cif.g08.bks.cpg/sg15_74_cif.got.tgz:146165.got - 2010.06.03 18:47:42.
