data_PCOD9275107
_publ_section_title
;
Structure prediction by ZEFSAII (Michael W. Deem and Ramdas Pophale) SiO2 
 PCOD9275107
Probable space group: C 2/C
;
_chemical_formula_sum "Si O2"
_cell_formula_units_Z 44
_cell_length_a 13.047761
_cell_length_b 19.388427
_cell_length_c 8.186563
_cell_angle_alpha 90.000000
_cell_angle_beta 67.806743
_cell_angle_gamma 90.000000
_cell_volume 1917.570405
_symmetry_space_group_name_H-M "C 2/C"
_symmetry_group_IT_number 15
_symmetry_cell_setting 'monoclinic'
loop_
_space_group_symop_operation_xyz
x,y,z
-x,y,1/2-z
-x,-y,-z
x,-y,1/2+z
1/2+x,1/2+y,z
1/2-x,1/2+y,1/2-z
1/2-x,1/2-y,-z
1/2+x,1/2-y,1/2+z
loop_
_atom_site_type_symbol
_atom_site_label
_atom_site_fract_x
_atom_site_fract_y
_atom_site_fract_z
Si Si1 0.716187 0.156160 0.869824
Si Si2 0.163705 0.192252 0.374465
Si Si3 0.238996 0.934404 0.643220
Si Si4 0.620998 0.033970 0.753288
Si Si5 0.546051 0.610781 0.895094
Si Si6 0.500000 0.480036 0.750000
O O1 0.667785 0.227604 0.830772
O O2 0.636718 0.091151 0.886548
O O3 0.835046 0.140190 0.716081
O O4 0.747227 0.172829 0.038573
O O5 0.194008 0.141378 0.209442
O O6 0.044833 0.169977 0.518972
O O7 0.296417 0.940228 0.435891
O O8 0.135877 0.986008 0.724442
O O9 0.332520 0.961659 0.711153
O O10 0.500000 0.030643 0.750000
O O11 0.500000 0.572515 0.750000
O O12 0.534460 0.563298 0.060514
#
# Coordination Sequence:
#
# PCOD9275107 Si02
#       6
#     8   8   8   8   8   4
#     4  10  21  43  64  91 133 176 220 265 326 398
#     4  10  22  39  68  98 127 170 222 272 334 394
#     4  12  25  41  68 100 127 175 222 277 336 384
#     4  12  26  45  65  92 139 180 220 272 322 404
#     4   8  16  36  60  90 124 160 206 268 319 376
#     4  10  20  38  68  98 128 156 214 286 324 386
#
# _framework density 22.945703999999999
#
# number of rings (size 3 to 8) (size 9 to 14) (size 15 to 20)
#    0.545    1.091    1.818    2.727    2.545    3.636 
#    1.636    4.545    0.000    0.000    0.000    0.000 
#    0.000    0.000    0.000    0.000    0.000    0.000 
#
# Total GULP energy -122937.576751 kJ/mol
# GULP energy per Si atom -5588.071670 kJ/mol
# Density = 2.289348 g / cm^3
# Si number density = 22.945704 Si / 1000 Ang^3
#
#
#
# Elastic Constant Matrix: (Units=GPa)
#
#
# Indices 1 2 3 4 5 6 
#
# 1 117.8604 20.3731 -1.2405 0.0000 -4.7259 0.0000
# 2 20.3731 108.4772 11.2771 0.0000 -7.9956 0.0000
# 3 -1.2405 11.2771 94.9913 0.0000 3.8706 0.0000
# 4 0.0000 0.0000 0.0000 23.4573 0.0000 -0.3231
# 5 -4.7259 -7.9956 3.8706 0.0000 25.4716 0.0000
# 6 0.0000 0.0000 0.0000 -0.3231 0.0000 38.7565
#
#
#
# Elastic Compliance Matrix: (Units=1/GPa)
#
#
# Indices 1 2 3 4 5 6 
#
# 1 0.008808 -0.001601 0.000261 0.000000 0.001092 0.000000
# 2 -0.001601 0.009877 -0.001316 0.000000 0.003003 0.000000
# 3 0.000261 -0.001316 0.010768 0.000000 -0.002001 0.000000
# 4 0.000000 0.000000 0.000000 0.042635 0.000000 0.000355
# 5 0.001092 0.003003 -0.002001 0.000000 0.040709 0.000000
# 6 0.000000 0.000000 0.000000 0.000355 0.000000 0.025805
#
#
# Mechanical properties :
#
#
# Convention : Reuss Voigt Hill
#
# Bulk Modulus (GPa) = 41.42265 42.46094 41.94180
# Shear Modulus (GPa) = 32.90286 36.93170 34.91728
#
# Velocity S-wave (km/s) = 3.79085 4.01624 3.90517
# Velocity P-wave (km/s) = 6.10348 6.32867 6.21709
#
# Compressibility (1/GPa) = 0.02414138
#
# Stress axis : x y z
#
# Youngs Moduli (GPa) = 113.53495 101.24177 92.86398
#
# Poissons Ratio (x) = 0.16207 -0.02420
# Poissons Ratio (y) = 0.18175 0.12220
# Poissons Ratio (z) = -0.02958 0.13322
#
# Static dielectric constant tensor:
#      x y z
#    x 1.951990 0.000000 0.082690 
#    y 0.000000 1.876110 0.000000 
#    z 0.082690 0.000000 1.874800 
# 
# From -- ./inp_files/30750.got.cif
#   From: 2010.05.17/outbox.cif.g08.bks.cpg/sg15_16_cif.got.tgz:30750.got - 2010.06.03 18:47:42.
