data_PCOD9275143
_publ_section_title
;
Structure prediction by ZEFSAII (Michael W. Deem and Ramdas Pophale) SiO2 
 PCOD9275143
Probable space group: C 2/C
;
_chemical_formula_sum "Si O2"
_cell_formula_units_Z 52
_cell_length_a 12.629950
_cell_length_b 18.858192
_cell_length_c 10.960370
_cell_angle_alpha 90.000000
_cell_angle_beta 113.321470
_cell_angle_gamma 90.000000
_cell_volume 2397.234858
_symmetry_space_group_name_H-M "C 2/C"
_symmetry_group_IT_number 15
_symmetry_cell_setting 'monoclinic'
loop_
_space_group_symop_operation_xyz
x,y,z
-x,y,1/2-z
-x,-y,-z
x,-y,1/2+z
1/2+x,1/2+y,z
1/2-x,1/2+y,1/2-z
1/2-x,1/2-y,-z
1/2+x,1/2-y,1/2+z
loop_
_atom_site_type_symbol
_atom_site_label
_atom_site_fract_x
_atom_site_fract_y
_atom_site_fract_z
Si Si1 0.831533 0.750811 0.290904
Si Si2 0.537280 0.463047 0.890807
Si Si3 0.000000 0.445777 0.250000
Si Si4 0.416852 0.247782 0.051478
Si Si5 0.831808 0.868459 0.849418
Si Si6 0.220513 0.484262 0.967270
Si Si7 0.815860 0.374651 0.339154
O O1 0.878825 0.741867 0.173741
O O2 0.741178 0.686709 0.265683
O O3 0.779337 0.829536 0.278024
O O4 0.948505 0.743693 0.417511
O O5 0.500000 0.504798 0.750000
O O6 0.449168 0.397070 0.844489
O O7 0.500000 0.500000 0.000000
O O8 0.675942 0.458761 0.965795
O O9 0.907422 0.489015 0.124802
O O10 0.917572 0.400061 0.298701
O O11 0.370246 0.322191 0.982824
O O12 0.359697 0.184427 0.952856
O O13 0.758015 0.933412 0.870897
O O14 0.222140 0.439807 0.093679
#
# Coordination Sequence:
#
# PCOD9275143 Si02
#       7
#     8   8   4   8   8   8   8
#     4  10  20  38  72  94 127 165 222 289 340 400
#     4  10  25  43  68 100 138 182 227 277 343 414
#     4  12  30  40  62  96 132 192 222 282 346 414
#     4  10  20  38  69  99 120 175 216 286 337 404
#     4  10  20  40  62 102 126 165 225 272 338 402
#     4  11  24  42  66  90 140 177 225 276 339 410
#     4  11  23  44  61  92 131 166 233 276 343 411
#
# _framework density 21.691658
#
# number of rings (size 3 to 8) (size 9 to 14) (size 15 to 20)
#    0.000    1.538    3.077    1.385    8.615    2.462 
#    5.538    0.769    0.000    0.000    0.000    0.000 
#    0.000    0.000    0.000    0.000    0.000    0.000 
#
# Total GULP energy -145042.227100 kJ/mol
# GULP energy per Si atom -5578.547196 kJ/mol
# Density = 2.164229 g / cm^3
# Si number density = 21.691658 Si / 1000 Ang^3
#
#
#
# Elastic Constant Matrix: (Units=GPa)
#
#
# Indices 1 2 3 4 5 6 
#
# 1 130.3929 55.1628 22.1140 0.0000 21.8209 0.0000
# 2 55.1628 61.1425 6.2607 0.0000 5.4724 0.0000
# 3 22.1140 6.2607 41.8785 0.0000 11.9641 0.0000
# 4 0.0000 0.0000 0.0000 -1.5452 0.0000 -1.6731
# 5 21.8209 5.4724 11.9641 0.0000 51.2073 0.0000
# 6 0.0000 0.0000 0.0000 -1.6731 0.0000 47.1378
#
#
#
# Elastic Compliance Matrix: (Units=1/GPa)
#
#
# Indices 1 2 3 4 5 6 
#
# 1 0.014114 -0.011932 -0.004624 0.000000 -0.003659 0.000000
# 2 -0.011932 0.026776 0.001782 0.000000 0.001807 0.000000
# 3 -0.004624 0.001782 0.027372 0.000000 -0.004615 0.000000
# 4 0.000000 0.000000 0.000000 -0.623200 0.000000 -0.022119
# 5 -0.003659 0.001807 -0.004615 0.000000 0.021973 0.000000
# 6 0.000000 0.000000 0.000000 -0.022119 0.000000 0.020429
#
#
# Mechanical properties :
#
#
# Convention : Reuss Voigt Hill
#
# Bulk Modulus (GPa) = 25.83056 44.49878 35.16467
# Shear Modulus (GPa) = -10.63643 29.35172 9.35765
#
# Velocity S-wave (km/s) = -2.21678 3.68249 2.07926
# Velocity P-wave (km/s) = 2.31986 6.21609 4.69156
#
# Compressibility (1/GPa) = 0.03871383
#
# Stress axis : x y z
#
# Youngs Moduli (GPa) = 70.85394 37.34624 36.53327
#
# Poissons Ratio (x) = 0.44563 0.16891
# Poissons Ratio (y) = 0.84545 -0.06509
# Poissons Ratio (z) = 0.32760 -0.06654
#
# Static dielectric constant tensor:
#      x y z
#    x 1.816300 0.000000 0.035740 
#    y 0.000000 1.835580 0.000000 
#    z 0.035740 0.000000 1.870810 
# 
# From -- ./inp_files/89104.got.cif
#   From: 2010.05.17/outbox.cif.g08.bks.cpg/sg15_45_cif.got.tgz:89104.got - 2010.06.03 18:47:42.
