data_PCOD9275995
_publ_section_title
;
Structure prediction by ZEFSAII (Michael W. Deem and Ramdas Pophale) SiO2 
 PCOD9275995
Probable space group: C 2/C
;
_chemical_formula_sum "Si O2"
_cell_formula_units_Z 48
_cell_length_a 17.352451
_cell_length_b 5.313048
_cell_length_c 23.751222
_cell_angle_alpha 90.000000
_cell_angle_beta 94.349636
_cell_angle_gamma 90.000000
_cell_volume 2183.422932
_symmetry_space_group_name_H-M "C 2/C"
_symmetry_group_IT_number 15
_symmetry_cell_setting 'monoclinic'
loop_
_space_group_symop_operation_xyz
x,y,z
-x,y,1/2-z
-x,-y,-z
x,-y,1/2+z
1/2+x,1/2+y,z
1/2-x,1/2+y,1/2-z
1/2-x,1/2-y,-z
1/2+x,1/2-y,1/2+z
loop_
_atom_site_type_symbol
_atom_site_label
_atom_site_fract_x
_atom_site_fract_y
_atom_site_fract_z
Si Si1 0.549531 0.006978 0.404988
Si Si2 0.531204 0.497298 0.565158
Si Si3 0.801487 0.045871 0.254051
Si Si4 0.691177 0.256741 0.445560
Si Si5 0.838052 0.160321 0.139261
Si Si6 0.691777 0.476370 0.122365
O O1 0.491987 0.779712 0.414706
O O2 0.603422 0.897397 0.358022
O O3 0.503617 0.268743 0.400839
O O4 0.619567 0.068557 0.452950
O O5 0.500000 0.500000 0.500000
O O6 0.623000 0.535079 0.574446
O O7 0.760449 0.318902 0.250238
O O8 0.849693 0.022488 0.199228
O O9 0.841044 0.029839 0.317339
O O10 0.750000 0.250000 0.500000
O O11 0.651374 0.507087 0.418359
O O12 0.745500 0.176014 0.396180
O O13 0.747836 0.236954 0.130492
#
# Coordination Sequence:
#
# PCOD9275995 Si02
#       6
#     8   8   8   8   8   8
#     4  11  25  43  63  90 133 174 208 262 326 381
#     4  12  26  43  64  94 137 173 212 261 325 395
#     4  10  20  39  66  97 126 160 217 280 319 371
#     4  11  22  40  68  99 130 168 218 266 325 386
#     4  10  22  42  69  93 128 167 223 270 323 380
#     4  10  24  38  68  98 125 170 219 266 321 382
#
# _framework density 21.983832
#
# number of rings (size 3 to 8) (size 9 to 14) (size 15 to 20)
#    0.000    1.333    3.333    1.500    4.667    1.333 
#    0.000    0.833    3.667    0.000    0.000    0.000 
#    0.000    0.000    0.000    0.000    0.000    0.000 
#
# Total GULP energy -133644.009544 kJ/mol
# GULP energy per Si atom -5568.500398 kJ/mol
# Density = 2.193380 g / cm^3
# Si number density = 21.983832 Si / 1000 Ang^3
#
#
#
# Elastic Constant Matrix: (Units=GPa)
#
#
# Indices 1 2 3 4 5 6 
#
# 1 74.0925 21.0040 -12.9228 0.0000 2.9019 0.0000
# 2 21.0040 101.6170 11.9921 0.0000 -7.8143 0.0000
# 3 -12.9228 11.9921 78.2382 0.0000 -5.2854 0.0000
# 4 0.0000 0.0000 0.0000 21.7815 0.0000 -5.1781
# 5 2.9019 -7.8143 -5.2854 0.0000 18.1202 0.0000
# 6 0.0000 0.0000 0.0000 -5.1781 0.0000 30.2053
#
#
#
# Elastic Compliance Matrix: (Units=1/GPa)
#
#
# Indices 1 2 3 4 5 6 
#
# 1 0.015176 -0.003720 0.002861 0.000000 -0.003200 0.000000
# 2 -0.003720 0.011220 -0.002007 0.000000 0.004849 0.000000
# 3 0.002861 -0.002007 0.013743 0.000000 0.002685 0.000000
# 4 0.000000 0.000000 0.000000 0.047861 0.000000 0.008205
# 5 -0.003200 0.004849 0.002685 0.000000 0.058574 0.000000
# 6 0.000000 0.000000 0.000000 0.008205 0.000000 0.034513
#
#
# Mechanical properties :
#
#
# Convention : Reuss Voigt Hill
#
# Bulk Modulus (GPa) = 29.06534 32.67714 30.87124
# Shear Modulus (GPa) = 25.21587 29.61302 27.41444
#
# Velocity S-wave (km/s) = 3.39044 3.67418 3.53516
# Velocity P-wave (km/s) = 5.34572 5.73550 5.54403
#
# Compressibility (1/GPa) = 0.03440524
#
# Stress axis : x y z
#
# Youngs Moduli (GPa) = 65.89509 89.12993 72.76454
#
# Poissons Ratio (x) = 0.33161 -0.20816
# Poissons Ratio (y) = 0.24516 0.14601
# Poissons Ratio (z) = -0.18850 0.17885
#
# Static dielectric constant tensor:
#      x y z
#    x 1.823050 0.000000 -0.086340 
#    y 0.000000 1.920310 0.000000 
#    z -0.086340 0.000000 1.862030 
# 
# From -- ./inp_files/297321.got.cif
#   From: 2010.05.17/outbox.cif.g08.bks.cpg/sg15_149_cif.got.tgz:297321.got - 2010.06.03 18:47:42.
