data_PCOD9275805
_publ_section_title
;
Structure prediction by ZEFSAII (Michael W. Deem and Ramdas Pophale) SiO2 
 PCOD9275805
Probable space group: C 2/C
;
_chemical_formula_sum "Si O2"
_cell_formula_units_Z 48
_cell_length_a 8.670626
_cell_length_b 11.757162
_cell_length_c 19.889263
_cell_angle_alpha 90.000000
_cell_angle_beta 84.092058
_cell_angle_gamma 90.000000
_cell_volume 2016.781130
_symmetry_space_group_name_H-M "C 2/C"
_symmetry_group_IT_number 15
_symmetry_cell_setting 'monoclinic'
loop_
_space_group_symop_operation_xyz
x,y,z
-x,y,1/2-z
-x,-y,-z
x,-y,1/2+z
1/2+x,1/2+y,z
1/2-x,1/2+y,1/2-z
1/2-x,1/2-y,-z
1/2+x,1/2-y,1/2+z
loop_
_atom_site_type_symbol
_atom_site_label
_atom_site_fract_x
_atom_site_fract_y
_atom_site_fract_z
Si Si1 0.375119 0.512567 0.210892
Si Si2 0.901659 0.238519 0.150972
Si Si3 0.322448 0.931607 0.892893
Si Si4 0.355404 0.024443 0.668332
Si Si5 0.417604 0.307620 0.984053
Si Si6 0.335532 0.434953 0.456756
O O1 0.500000 0.442924 0.250000
O O2 0.466008 0.626545 0.184439
O O3 0.290026 0.479764 0.144381
O O4 0.234598 0.537596 0.268284
O O5 0.735948 0.187258 0.135656
O O6 0.899110 0.351001 0.193792
O O7 0.996553 0.260914 0.078571
O O8 0.497387 0.959356 0.867488
O O9 0.279167 0.929762 0.973269
O O10 0.248409 0.060088 0.610391
O O11 0.538869 0.333385 0.039052
O O12 0.250000 0.250000 0.000000
O O13 0.403352 0.437459 0.959118
#
# Coordination Sequence:
#
# PCOD9275805 Si02
#       6
#     8   8   8   8   8   8
#     4  10  23  44  61  89 136 176 230 284 329 427
#     4   9  23  41  61  99 133 176 227 282 346 429
#     4   9  22  42  64  94 142 166 234 282 349 428
#     4  12  22  41  72  95 132 186 221 292 357 406
#     4  10  20  39  64  96 138 178 220 277 362 418
#     4  10  22  37  67 101 135 170 228 293 341 421
#
# _framework density 23.800304000000001
#
# number of rings (size 3 to 8) (size 9 to 14) (size 15 to 20)
#    1.000    1.000    0.000    3.000    2.333    5.333 
#    3.000    1.667    0.000    0.000    0.000    0.000 
#    0.000    0.000    0.000    0.000    0.000    0.000 
#
# Total GULP energy -133705.638165 kJ/mol
# GULP energy per Si atom -5571.068257 kJ/mol
# Density = 2.374613 g / cm^3
# Si number density = 23.800304 Si / 1000 Ang^3
#
#
#
# Elastic Constant Matrix: (Units=GPa)
#
#
# Indices 1 2 3 4 5 6 
#
# 1 103.9707 21.2087 51.7110 0.0000 -3.5355 0.0000
# 2 21.2087 51.7124 9.4122 0.0000 -10.5843 0.0000
# 3 51.7110 9.4122 133.1141 0.0000 5.7951 0.0000
# 4 0.0000 0.0000 0.0000 10.8644 0.0000 -3.3576
# 5 -3.5355 -10.5843 5.7951 0.0000 54.0129 0.0000
# 6 0.0000 0.0000 0.0000 -3.3576 0.0000 32.5133
#
#
#
# Elastic Compliance Matrix: (Units=1/GPa)
#
#
# Indices 1 2 3 4 5 6 
#
# 1 0.012859 -0.004313 -0.004712 0.000000 0.000502 0.000000
# 2 -0.004313 0.021939 -0.000051 0.000000 0.004022 0.000000
# 3 -0.004712 -0.000051 0.009404 0.000000 -0.001327 0.000000
# 4 0.000000 0.000000 0.000000 0.095079 0.000000 0.009819
# 5 0.000502 0.004022 -0.001327 0.000000 0.019478 0.000000
# 6 0.000000 0.000000 0.000000 0.009819 0.000000 0.031771
#
#
# Mechanical properties :
#
#
# Convention : Reuss Voigt Hill
#
# Bulk Modulus (GPa) = 38.38804 50.38455 44.38630
# Shear Modulus (GPa) = 23.00286 33.24247 28.12266
#
# Velocity S-wave (km/s) = 3.11222 3.74133 3.44118
# Velocity P-wave (km/s) = 5.39248 6.31499 5.87188
#
# Compressibility (1/GPa) = 0.02604978
#
# Stress axis : x y z
#
# Youngs Moduli (GPa) = 77.76884 45.58047 106.33509
#
# Poissons Ratio (x) = 0.19660 0.50106
# Poissons Ratio (y) = 0.33544 0.00540
# Poissons Ratio (z) = 0.36645 0.00231
#
# Static dielectric constant tensor:
#      x y z
#    x 2.073130 0.000000 0.064460 
#    y 0.000000 1.963070 0.000000 
#    z 0.064460 0.000000 1.957850 
# 
# From -- ./inp_files/263115.got.cif
#   From: 2010.05.17/outbox.cif.g08.bks.cpg/sg15_132_cif.got.tgz:263115.got - 2010.06.03 18:47:42.
