data_PCOD9275103
_publ_section_title
;
Structure prediction by ZEFSAII (Michael W. Deem and Ramdas Pophale) SiO2 
 PCOD9275103
Probable space group: C 2/C
;
_chemical_formula_sum "Si O2"
_cell_formula_units_Z 60
_cell_length_a 8.522735
_cell_length_b 20.594056
_cell_length_c 18.327629
_cell_angle_alpha 90.000000
_cell_angle_beta 67.350688
_cell_angle_gamma 90.000000
_cell_volume 2968.738767
_symmetry_space_group_name_H-M "C 2/C"
_symmetry_group_IT_number 15
_symmetry_cell_setting 'monoclinic'
loop_
_space_group_symop_operation_xyz
x,y,z
-x,y,1/2-z
-x,-y,-z
x,-y,1/2+z
1/2+x,1/2+y,z
1/2-x,1/2+y,1/2-z
1/2-x,1/2-y,-z
1/2+x,1/2-y,1/2+z
loop_
_atom_site_type_symbol
_atom_site_label
_atom_site_fract_x
_atom_site_fract_y
_atom_site_fract_z
Si Si1 0.000000 0.004990 0.750000
Si Si2 0.465688 0.218458 0.560949
Si Si3 0.945982 0.891063 0.148843
Si Si4 0.106891 0.245332 0.665983
Si Si5 0.829569 0.167741 0.526213
Si Si6 0.578499 0.134160 0.067001
Si Si7 0.670462 0.530659 0.505965
Si Si8 0.270729 0.422946 0.903472
O O1 0.109872 0.056922 0.779461
O O2 0.102207 0.958148 0.675839
O O3 0.306001 0.230081 0.641770
O O4 0.647734 0.202944 0.563506
O O5 0.514320 0.281372 0.502701
O O6 0.418081 0.158246 0.517631
O O7 0.835066 0.877885 0.096278
O O8 0.004759 0.821029 0.166967
O O9 0.107082 0.925751 0.084142
O O10 0.106561 0.299656 0.604486
O O11 0.000000 0.275929 0.750000
O O12 0.844244 0.132566 0.444604
O O13 0.717350 0.079514 0.061434
O O14 0.390639 0.105030 0.109661
O O15 0.500000 0.500000 0.500000
O O16 0.780555 0.475309 0.525062
#
# Coordination Sequence:
#
# PCOD9275103 Si02
#       8
#     4   8   8   8   8   8   8   8
#     4  10  24  40  64  82 140 180 200 250 330 392
#     4  10  21  38  66  95 124 159 206 277 326 369
#     4  11  20  40  64  90 118 168 218 255 318 382
#     4  12  24  40  63  92 130 172 207 260 336 390
#     4  10  20  38  68  98 120 154 226 271 310 370
#     4  11  22  40  64  92 127 160 218 270 313 372
#     4  11  21  37  65  92 117 161 215 265 303 373
#     4  10  23  40  62  95 125 171 209 263 317 380
#
# _framework density 20.210602999999999
#
# number of rings (size 3 to 8) (size 9 to 14) (size 15 to 20)
#    0.000    1.333    4.667    1.600    0.000    1.067 
#    2.400    0.667    2.933    0.000    0.000    0.000 
#    0.000    0.000    0.000    0.000    0.000    0.000 
#
# Total GULP energy -167003.759956 kJ/mol
# GULP energy per Si atom -5566.791999 kJ/mol
# Density = 2.016460 g / cm^3
# Si number density = 20.210603 Si / 1000 Ang^3
#
#
#
# Elastic Constant Matrix: (Units=GPa)
#
#
# Indices 1 2 3 4 5 6 
#
# 1 80.0476 37.5596 39.3517 0.0000 -10.8410 0.0000
# 2 37.5596 96.4800 21.3441 0.0000 -3.1976 0.0000
# 3 39.3517 21.3441 75.2833 0.0000 -7.2500 0.0000
# 4 0.0000 0.0000 0.0000 26.9575 0.0000 -2.3188
# 5 -10.8410 -3.1976 -7.2500 0.0000 20.7377 0.0000
# 6 0.0000 0.0000 0.0000 -2.3188 0.0000 26.6705
#
#
#
# Elastic Compliance Matrix: (Units=1/GPa)
#
#
# Indices 1 2 3 4 5 6 
#
# 1 0.020196 -0.005811 -0.008257 0.000000 0.006775 0.000000
# 2 -0.005811 0.012738 -0.000701 0.000000 -0.001319 0.000000
# 3 -0.008257 -0.000701 0.017977 0.000000 0.001860 0.000000
# 4 0.000000 0.000000 0.000000 0.037375 0.000000 0.003249
# 5 0.006775 -0.001319 0.001860 0.000000 0.052210 0.000000
# 6 0.000000 0.000000 0.000000 0.003249 0.000000 0.037777
#
#
# Mechanical properties :
#
#
# Convention : Reuss Voigt Hill
#
# Bulk Modulus (GPa) = 46.78640 49.81351 48.29996
# Shear Modulus (GPa) = 23.26279 25.11018 24.18648
#
# Velocity S-wave (km/s) = 3.39635 3.52863 3.46312
# Velocity P-wave (km/s) = 6.21127 6.42669 6.31990
#
# Compressibility (1/GPa) = 0.02137373
#
# Stress axis : x y z
#
# Youngs Moduli (GPa) = 49.51530 78.50236 55.62683
#
# Poissons Ratio (x) = 0.45618 0.45929
# Poissons Ratio (y) = 0.28774 0.03900
# Poissons Ratio (z) = 0.40883 0.05503
#
# Static dielectric constant tensor:
#      x y z
#    x 1.739660 0.000000 0.025050 
#    y 0.000000 1.811100 0.000000 
#    z 0.025050 0.000000 1.747220 
# 
# From -- ./inp_files/192514.got.cif
#   From: 2010.05.17/outbox.cif.g08.bks.cpg/sg15_97_cif.got.tgz:192514.got - 2010.06.03 18:47:42.
