data_PCOD9275524
_publ_section_title
;
Structure prediction by ZEFSAII (Michael W. Deem and Ramdas Pophale) SiO2 
 PCOD9275524
Probable space group: C 2/C
;
_chemical_formula_sum "Si O2"
_cell_formula_units_Z 60
_cell_length_a 18.980485
_cell_length_b 30.320852
_cell_length_c 8.282714
_cell_angle_alpha 90.000000
_cell_angle_beta 36.815470
_cell_angle_gamma 90.000000
_cell_volume 2856.419602
_symmetry_space_group_name_H-M "C 2/C"
_symmetry_group_IT_number 15
_symmetry_cell_setting 'monoclinic'
loop_
_space_group_symop_operation_xyz
x,y,z
-x,y,1/2-z
-x,-y,-z
x,-y,1/2+z
1/2+x,1/2+y,z
1/2-x,1/2+y,1/2-z
1/2-x,1/2-y,-z
1/2+x,1/2-y,1/2+z
loop_
_atom_site_type_symbol
_atom_site_label
_atom_site_fract_x
_atom_site_fract_y
_atom_site_fract_z
Si Si1 0.500000 0.847333 0.250000
Si Si2 0.692920 0.100373 0.193843
Si Si3 0.401347 0.947012 0.074234
Si Si4 0.215608 0.699126 0.549966
Si Si5 0.604116 0.366222 0.944161
Si Si6 0.863335 0.355783 0.033364
Si Si7 0.804176 0.504753 0.476539
Si Si8 0.562005 0.457564 0.961291
O O1 0.422791 0.879806 0.506265
O O2 0.403313 0.816710 0.331144
O O3 0.801494 0.110019 0.110563
O O4 0.697011 0.127392 0.018643
O O5 0.692778 0.049141 0.139141
O O6 0.362380 0.896999 0.160277
O O7 0.306327 0.975561 0.152476
O O8 0.411006 0.972637 0.224335
O O9 0.500000 0.945825 0.750000
O O10 0.250000 0.750000 0.500000
O O11 0.323830 0.671456 0.277293
O O12 0.196351 0.683936 0.768746
O O13 0.554876 0.406143 0.922051
O O14 0.500000 0.349216 0.250000
O O15 0.000000 0.346089 0.750000
O O16 0.695447 0.471868 0.683991
O O17 0.500000 0.455753 0.250000
O O18 0.500000 0.500000 0.000000
#
# Coordination Sequence:
#
# PCOD9275524 Si02
#       8
#     4   8   8   8   8   8   8   8
#     4  10  22  44  68  96 130 168 210 266 346 398
#     4  10  21  38  65  91 130 176 212 266 327 389
#     4  10  21  32  50  81 123 159 199 249 302 366
#     4  11  24  44  71  98 128 166 215 277 341 410
#     4  10  22  43  62  92 132 174 224 272 332 391
#     4  10  20  39  62  91 128 166 211 264 334 386
#     4  11  20  33  52  86 118 161 215 247 301 364
#     4  11  22  38  61  85 125 178 223 271 313 375
#
# _framework density 21.005317000000002
#
# number of rings (size 3 to 8) (size 9 to 14) (size 15 to 20)
#    0.000    1.600    1.333    4.400    0.933    2.667 
#    2.400    1.333    0.000    0.000    0.000    0.000 
#    0.000    0.000    0.000    0.000    0.000    0.000 
#
# Total GULP energy -167187.905698 kJ/mol
# GULP energy per Si atom -5572.930190 kJ/mol
# Density = 2.095751 g / cm^3
# Si number density = 21.005317 Si / 1000 Ang^3
#
#
#
# Elastic Constant Matrix: (Units=GPa)
#
#
# Indices 1 2 3 4 5 6 
#
# 1 33.4122 25.8270 16.5805 0.0000 8.6700 0.0000
# 2 25.8270 172.3810 80.3522 0.0000 15.5786 0.0000
# 3 16.5805 80.3522 120.5870 0.0000 -7.8244 0.0000
# 4 0.0000 0.0000 0.0000 29.8787 0.0000 3.0742
# 5 8.6700 15.5786 -7.8244 0.0000 23.2010 0.0000
# 6 0.0000 0.0000 0.0000 3.0742 0.0000 23.1725
#
#
#
# Elastic Compliance Matrix: (Units=1/GPa)
#
#
# Indices 1 2 3 4 5 6 
#
# 1 0.037588 -0.002203 -0.004617 0.000000 -0.014124 0.000000
# 2 -0.002203 0.010150 -0.007003 0.000000 -0.008354 0.000000
# 3 -0.004617 -0.007003 0.014324 0.000000 0.011258 0.000000
# 4 0.000000 0.000000 0.000000 0.033932 0.000000 -0.004502
# 5 -0.014124 -0.008354 0.011258 0.000000 0.057786 0.000000
# 6 0.000000 0.000000 0.000000 -0.004502 0.000000 0.043752
#
#
# Mechanical properties :
#
#
# Convention : Reuss Voigt Hill
#
# Bulk Modulus (GPa) = 29.05495 63.54440 46.29967
# Shear Modulus (GPa) = 21.12827 28.82514 24.97671
#
# Velocity S-wave (km/s) = 3.17496 3.70845 3.45202
# Velocity P-wave (km/s) = 5.22520 6.97524 6.16266
#
# Compressibility (1/GPa) = 0.03441755
#
# Stress axis : x y z
#
# Youngs Moduli (GPa) = 26.60412 98.51874 69.81174
#
# Poissons Ratio (x) = 0.21706 0.32229
# Poissons Ratio (y) = 0.05862 0.48887
# Poissons Ratio (z) = 0.12282 0.68990
#
# Static dielectric constant tensor:
#      x y z
#    x 1.918540 0.000000 -0.110190 
#    y 0.000000 1.776800 0.000000 
#    z -0.110190 0.000000 2.035990 
# 
# From -- ./inp_files/64191.got.cif
#   From: 2010.05.17/outbox.cif.g08.bks.cpg/sg15_33_cif.got.tgz:64191.got - 2010.06.03 18:47:42.
