data_PCOD9275854
_publ_section_title
;
Structure prediction by ZEFSAII (Michael W. Deem and Ramdas Pophale) SiO2 
 PCOD9275854
Probable space group: C 2/C
;
_chemical_formula_sum "Si O2"
_cell_formula_units_Z 56
_cell_length_a 23.982941
_cell_length_b 14.090465
_cell_length_c 19.771006
_cell_angle_alpha 90.000000
_cell_angle_beta 156.360196
_cell_angle_gamma 90.000000
_cell_volume 2679.077318
_symmetry_space_group_name_H-M "C 2/C"
_symmetry_group_IT_number 15
_symmetry_cell_setting 'monoclinic'
loop_
_space_group_symop_operation_xyz
x,y,z
-x,y,1/2-z
-x,-y,-z
x,-y,1/2+z
1/2+x,1/2+y,z
1/2-x,1/2+y,1/2-z
1/2-x,1/2-y,-z
1/2+x,1/2-y,1/2+z
loop_
_atom_site_type_symbol
_atom_site_label
_atom_site_fract_x
_atom_site_fract_y
_atom_site_fract_z
Si Si1 0.474770 0.728830 0.108752
Si Si2 0.863513 0.484375 0.774349
Si Si3 0.739679 0.860891 0.435173
Si Si4 0.820550 0.062838 0.172565
Si Si5 0.369240 0.108541 0.412772
Si Si6 0.910882 0.660809 0.216583
Si Si7 0.111162 0.874716 0.319396
O O1 0.596285 0.801741 0.267791
O O2 0.551815 0.633531 0.171113
O O3 0.365967 0.702758 0.046929
O O4 0.392925 0.781242 0.956962
O O5 0.763049 0.546735 0.616023
O O6 0.799222 0.427106 0.765744
O O7 0.937497 0.406962 0.808900
O O8 0.978423 0.561476 0.923860
O O9 0.760458 0.897699 0.534256
O O10 0.710343 0.070208 0.110043
O O11 0.863928 0.954945 0.207903
O O12 0.936174 0.771639 0.259890
O O13 0.000000 0.634063 0.250000
O O14 0.752249 0.645714 0.017397
O O15 0.000000 0.910769 0.250000
#
# Coordination Sequence:
#
# PCOD9275854 Si02
#       7
#     8   8   8   8   8   8   8
#     4  11  23  40  62  97 130 166 209 262 314 384
#     4  10  22  43  65  88 126 168 212 259 310 382
#     4  11  23  38  69  94 131 164 217 265 316 375
#     4  12  22  38  64  97 130 166 208 264 324 376
#     4  10  24  42  62  91 128 171 210 249 316 391
#     4  10  20  39  65  91 115 159 213 262 310 364
#     4  10  21  37  60  94 125 151 204 271 314 361
#
# _framework density 20.902719000000001
#
# number of rings (size 3 to 8) (size 9 to 14) (size 15 to 20)
#    0.000    1.429    2.857    2.571    2.000    1.143 
#    2.571    5.000    0.000    0.000    0.000    0.000 
#    0.000    0.000    0.000    0.000    0.000    0.000 
#
# Total GULP energy -156377.248378 kJ/mol
# GULP energy per Si atom -5584.901728 kJ/mol
# Density = 2.085514 g / cm^3
# Si number density = 20.902719 Si / 1000 Ang^3
#
#
#
# Elastic Constant Matrix: (Units=GPa)
#
#
# Indices 1 2 3 4 5 6 
#
# 1 121.2138 37.1095 34.2750 0.0000 -4.3297 0.0000
# 2 37.1095 84.2307 10.2198 0.0000 -23.0125 0.0000
# 3 34.2750 10.2198 32.5969 0.0001 8.8135 0.0000
# 4 0.0000 0.0000 0.0001 23.2772 0.0000 0.1461
# 5 -4.3297 -23.0125 8.8135 0.0000 28.3406 0.0000
# 6 0.0000 0.0000 0.0000 0.1461 0.0000 32.3198
#
#
#
# Elastic Compliance Matrix: (Units=1/GPa)
#
#
# Indices 1 2 3 4 5 6 
#
# 1 0.013321 -0.003091 -0.014095 0.000000 0.003909 0.000000
# 2 -0.003091 0.018757 -0.007229 0.000000 0.017007 0.000000
# 3 -0.014095 -0.007229 0.054518 0.000000 -0.024977 0.000000
# 4 0.000000 0.000000 0.000000 0.042962 0.000000 -0.000194
# 5 0.003909 0.017007 -0.024977 0.000000 0.057459 0.000000
# 6 0.000000 0.000000 0.000000 -0.000194 0.000000 0.030942
#
#
# Mechanical properties :
#
#
# Convention : Reuss Voigt Hill
#
# Bulk Modulus (GPa) = 26.47807 44.58334 35.53070
# Shear Modulus (GPa) = 17.89691 27.21665 22.55678
#
# Velocity S-wave (km/s) = 2.92926 3.61233 3.28858
# Velocity P-wave (km/s) = 4.91280 6.22686 5.60845
#
# Compressibility (1/GPa) = 0.03776710
#
# Stress axis : x y z
#
# Youngs Moduli (GPa) = 75.06773 53.31216 18.34262
#
# Poissons Ratio (x) = 0.16479 0.25853
# Poissons Ratio (y) = 0.23203 0.13260
# Poissons Ratio (z) = 1.05806 0.38539
#
# Static dielectric constant tensor:
#      x y z
#    x 1.737380 0.000000 -0.007260 
#    y 0.000000 1.793800 0.000000 
#    z -0.007260 0.000000 1.815410 
# 
# From -- ./inp_files/215780.got.cif
#   From: 2010.05.17/outbox.cif.g08.bks.cpg/sg15_108_cif.got.tgz:215780.got - 2010.06.03 18:47:42.
