data_PCOD9275785
_publ_section_title
;
Structure prediction by ZEFSAII (Michael W. Deem and Ramdas Pophale) SiO2 
 PCOD9275785
Probable space group: C 2/C
;
_chemical_formula_sum "Si O2"
_cell_formula_units_Z 60
_cell_length_a 11.851639
_cell_length_b 17.166504
_cell_length_c 12.019317
_cell_angle_alpha 90.000000
_cell_angle_beta 111.409231
_cell_angle_gamma 90.000000
_cell_volume 2276.608499
_symmetry_space_group_name_H-M "C 2/C"
_symmetry_group_IT_number 15
_symmetry_cell_setting 'monoclinic'
loop_
_space_group_symop_operation_xyz
x,y,z
-x,y,1/2-z
-x,-y,-z
x,-y,1/2+z
1/2+x,1/2+y,z
1/2-x,1/2+y,1/2-z
1/2-x,1/2-y,-z
1/2+x,1/2-y,1/2+z
loop_
_atom_site_type_symbol
_atom_site_label
_atom_site_fract_x
_atom_site_fract_y
_atom_site_fract_z
Si Si1 0.615756 0.953756 0.501275
Si Si2 0.000000 0.509982 0.250000
Si Si3 0.690246 0.126179 0.316262
Si Si4 0.646182 0.513283 0.978484
Si Si5 0.107764 0.262769 0.961243
Si Si6 0.751538 0.724023 0.689973
Si Si7 0.432873 0.385494 0.373236
Si Si8 0.418407 0.216974 0.555524
O O1 0.621639 0.862853 0.516423
O O2 0.500000 0.000000 0.500000
O O3 0.585084 0.959015 0.357607
O O4 0.743232 0.994926 0.563628
O O5 0.896653 0.562937 0.272723
O O6 0.800050 0.078959 0.415308
O O7 0.600944 0.162038 0.379688
O O8 0.731748 0.198647 0.256171
O O9 0.611898 0.434142 0.031904
O O10 0.530504 0.547951 0.875212
O O11 0.025608 0.189842 0.895368
O O12 0.250000 0.250000 0.000000
O O13 0.058807 0.277248 0.068690
O O14 0.691770 0.647871 0.726674
O O15 0.658241 0.723334 0.548277
O O16 0.876083 0.722685 0.666548
#
# Coordination Sequence:
#
# PCOD9275785 Si02
#       8
#     8   4   8   8   8   8   8   8
#     4  11  21  38  64  95 129 171 212 269 340 397
#     4  10  22  38  60  94 128 166 218 274 320 396
#     4  11  21  41  68  95 127 176 228 275 319 405
#     4  10  21  38  66  96 133 170 218 277 338 397
#     4  11  22  40  67  95 124 169 229 269 330 403
#     4  10  21  40  69  91 127 173 221 267 334 389
#     4  10  20  39  64  94 131 173 211 277 333 400
#     4  10  21  39  63  93 123 167 217 261 328 401
#
# _framework density 26.354991999999999
#
# number of rings (size 3 to 8) (size 9 to 14) (size 15 to 20)
#    0.000    1.600    2.667    4.000    0.000    0.000 
#    2.400    0.000   11.733    0.000    0.000    0.000 
#    0.000    0.000    0.000    0.000    0.000    0.000 
#
# Total GULP energy -167164.181262 kJ/mol
# GULP energy per Si atom -5572.139375 kJ/mol
# Density = 2.629501 g / cm^3
# Si number density = 26.354992 Si / 1000 Ang^3
#
#
#
# Elastic Constant Matrix: (Units=GPa)
#
#
# Indices 1 2 3 4 5 6 
#
# 1 215.8863 34.9336 33.8881 0.0000 -25.5261 0.0000
# 2 34.9336 135.2009 33.5816 0.0000 -9.0309 0.0000
# 3 33.8881 33.5816 67.3183 0.0000 -12.0803 0.0000
# 4 0.0000 0.0000 0.0000 35.2515 0.0000 1.0128
# 5 -25.5261 -9.0309 -12.0803 0.0000 41.4651 0.0000
# 6 0.0000 0.0000 0.0000 1.0128 0.0000 26.2743
#
#
#
# Elastic Compliance Matrix: (Units=1/GPa)
#
#
# Indices 1 2 3 4 5 6 
#
# 1 0.005351 -0.000749 -0.001855 0.000000 0.002590 0.000000
# 2 -0.000749 0.008564 -0.003844 0.000000 0.000284 0.000000
# 3 -0.001855 -0.003844 0.018308 0.000000 0.003355 0.000000
# 4 0.000000 0.000000 0.000000 0.028399 0.000000 -0.001095
# 5 0.002590 0.000284 0.003355 0.000000 0.026751 0.000000
# 6 0.000000 0.000000 0.000000 -0.001095 0.000000 0.038102
#
#
# Mechanical properties :
#
#
# Convention : Reuss Voigt Hill
#
# Bulk Modulus (GPa) = 51.74180 69.24578 60.49379
# Shear Modulus (GPa) = 34.52736 41.66498 38.09617
#
# Velocity S-wave (km/s) = 3.62344 3.98038 3.80610
# Velocity P-wave (km/s) = 6.09762 6.88883 6.50526
#
# Compressibility (1/GPa) = 0.01932673
#
# Stress axis : x y z
#
# Youngs Moduli (GPa) = 186.89078 116.77285 54.62003
#
# Poissons Ratio (x) = 0.08743 0.10133
# Poissons Ratio (y) = 0.13993 0.20996
# Poissons Ratio (z) = 0.34672 0.44888
#
# Static dielectric constant tensor:
#      x y z
#    x 2.318420 0.000000 -0.211720 
#    y 0.000000 2.175630 0.000000 
#    z -0.211720 0.000000 2.500910 
# 
# From -- ./inp_files/145709.got.cif
#   From: 2010.05.17/outbox.cif.g08.bks.cpg/sg15_73_cif.got.tgz:145709.got - 2010.06.03 18:47:42.
