data_PCOD9275118
_publ_section_title
;
Structure prediction by ZEFSAII (Michael W. Deem and Ramdas Pophale) SiO2 
 PCOD9275118
Probable space group: C 2/C
;
_chemical_formula_sum "Si O2"
_cell_formula_units_Z 60
_cell_length_a 19.498183
_cell_length_b 11.301000
_cell_length_c 14.544804
_cell_angle_alpha 90.000000
_cell_angle_beta 121.015506
_cell_angle_gamma 90.000000
_cell_volume 2746.716539
_symmetry_space_group_name_H-M "C 2/C"
_symmetry_group_IT_number 15
_symmetry_cell_setting 'monoclinic'
loop_
_space_group_symop_operation_xyz
x,y,z
-x,y,1/2-z
-x,-y,-z
x,-y,1/2+z
1/2+x,1/2+y,z
1/2-x,1/2+y,1/2-z
1/2-x,1/2-y,-z
1/2+x,1/2-y,1/2+z
loop_
_atom_site_type_symbol
_atom_site_label
_atom_site_fract_x
_atom_site_fract_y
_atom_site_fract_z
Si Si1 0.130165 0.607866 0.604399
Si Si2 0.126113 0.012517 0.546421
Si Si3 0.342754 0.287640 0.040468
Si Si4 0.321805 0.115915 0.485515
Si Si5 0.498742 0.834017 0.147743
Si Si6 0.957166 0.924847 0.849031
Si Si7 0.000000 0.140644 0.750000
Si Si8 0.270103 0.171752 0.647278
O O1 0.130412 0.708643 0.527315
O O2 0.163240 0.494224 0.571883
O O3 0.045550 0.597607 0.599336
O O4 0.183812 0.648222 0.727545
O O5 0.183940 0.118065 0.605606
O O6 0.041039 0.065273 0.460229
O O7 0.157771 0.925238 0.489572
O O8 0.114351 0.935492 0.629317
O O9 0.422262 0.284851 0.161801
O O10 0.250000 0.250000 0.000000
O O11 0.407960 0.179945 0.551997
O O12 0.304168 0.100350 0.582410
O O13 0.247873 0.194410 0.396922
O O14 0.500000 0.892682 0.250000
O O15 0.541433 0.705826 0.192348
O O16 0.960444 0.044581 0.792351
#
# Coordination Sequence:
#
# PCOD9275118 Si02
#       8
#     8   8   8   8   8   8   4   8
#     4  12  27  46  71 108 148 192 244 301 373 445
#     4  10  21  40  67  96 136 174 239 302 362 420
#     4  11  25  46  67 110 152 190 241 307 381 450
#     4  11  26  48  72 105 142 195 243 293 370 442
#     4  12  22  46  71 102 141 186 246 298 353 443
#     4  10  20  38  69 101 130 182 240 299 361 427
#     4  10  24  42  70 108 148 196 238 312 376 434
#     4  11  25  46  75 104 140 190 244 308 358 441
#
# _framework density 21.844263000000002
#
# number of rings (size 3 to 8) (size 9 to 14) (size 15 to 20)
#    0.000    1.067    4.667    1.200    3.733    0.000 
#    1.200    0.000    0.000    0.000    0.000    0.000 
#    0.000    0.000    0.000    0.000    0.000    0.000 
#
# Total GULP energy -167155.265883 kJ/mol
# GULP energy per Si atom -5571.842196 kJ/mol
# Density = 2.179454 g / cm^3
# Si number density = 21.844263 Si / 1000 Ang^3
#
#
#
# Elastic Constant Matrix: (Units=GPa)
#
#
# Indices 1 2 3 4 5 6 
#
# 1 101.0391 23.3649 51.6600 0.0000 -8.2186 0.0000
# 2 23.3649 50.5400 31.4307 0.0000 -8.2410 0.0000
# 3 51.6600 31.4307 138.9361 0.0000 0.1135 0.0000
# 4 0.0000 0.0000 0.0000 26.4544 0.0000 0.5456
# 5 -8.2186 -8.2410 0.1135 0.0000 32.2435 0.0000
# 6 0.0000 0.0000 0.0000 0.5456 0.0000 25.3377
#
#
#
# Elastic Compliance Matrix: (Units=1/GPa)
#
#
# Indices 1 2 3 4 5 6 
#
# 1 0.012903 -0.002986 -0.004124 0.000000 0.002540 0.000000
# 2 -0.002986 0.024898 -0.004527 0.000000 0.005618 0.000000
# 3 -0.004124 -0.004527 0.009757 0.000000 -0.002243 0.000000
# 4 0.000000 0.000000 0.000000 0.037818 0.000000 -0.000814
# 5 0.002540 0.005618 -0.002243 0.000000 0.033105 0.000000
# 6 0.000000 0.000000 0.000000 -0.000814 0.000000 0.039484
#
#
# Mechanical properties :
#
#
# Convention : Reuss Voigt Hill
#
# Bulk Modulus (GPa) = 41.17974 55.93627 48.55801
# Shear Modulus (GPa) = 26.40830 29.07775 27.74303
#
# Velocity S-wave (km/s) = 3.48075 3.65244 3.56762
# Velocity P-wave (km/s) = 5.92001 6.59162 6.26482
#
# Compressibility (1/GPa) = 0.02428379
#
# Stress axis : x y z
#
# Youngs Moduli (GPa) = 77.50164 40.16364 102.49109
#
# Poissons Ratio (x) = 0.11993 0.42269
# Poissons Ratio (y) = 0.23143 0.46396
# Poissons Ratio (z) = 0.31963 0.18181
#
# Static dielectric constant tensor:
#      x y z
#    x 1.838800 0.000000 -0.001890 
#    y 0.000000 1.847850 0.000000 
#    z -0.001890 0.000000 1.717350 
# 
# From -- ./inp_files/167690.got.cif
#   From: 2010.05.17/outbox.cif.g08.bks.cpg/sg15_84_cif.got.tgz:167690.got - 2010.06.03 18:47:42.
