data_PCOD9275038
_publ_section_title
;
Structure prediction by ZEFSAII (Michael W. Deem and Ramdas Pophale) SiO2 
 PCOD9275038
Probable space group: C 2/C
;
_chemical_formula_sum "Si O2"
_cell_formula_units_Z 36
_cell_length_a 12.978554
_cell_length_b 17.336694
_cell_length_c 9.163155
_cell_angle_alpha 90.000000
_cell_angle_beta 51.577802
_cell_angle_gamma 90.000000
_cell_volume 1615.289736
_symmetry_space_group_name_H-M "C 2/C"
_symmetry_group_IT_number 15
_symmetry_cell_setting 'monoclinic'
loop_
_space_group_symop_operation_xyz
x,y,z
-x,y,1/2-z
-x,-y,-z
x,-y,1/2+z
1/2+x,1/2+y,z
1/2-x,1/2+y,1/2-z
1/2-x,1/2-y,-z
1/2+x,1/2-y,1/2+z
loop_
_atom_site_type_symbol
_atom_site_label
_atom_site_fract_x
_atom_site_fract_y
_atom_site_fract_z
Si Si1 0.000000 0.914694 0.250000
Si Si2 0.269452 0.600709 0.740139
Si Si3 0.282481 0.569778 0.165968
Si Si4 0.858328 0.683840 0.420621
Si Si5 0.153357 0.179083 0.120097
O O1 0.890613 0.877403 0.241114
O O2 0.906570 0.953261 0.453724
O O3 0.239796 0.509901 0.777315
O O4 0.312645 0.620831 0.540662
O O5 0.150177 0.651666 0.907243
O O6 0.178615 0.611986 0.152122
O O7 0.321275 0.633836 0.251255
O O8 0.750000 0.750000 0.500000
O O9 0.000000 0.713280 0.250000
O O10 0.000000 0.201555 0.250000
O O11 0.250000 0.250000 0.000000
#
# Coordination Sequence:
#
# PCOD9275038 Si02
#       5
#     4   8   8   8   8
#     4  10  20  38  68 102 136 174 232 284 340 410
#     4  11  24  42  72 105 135 182 238 293 347 414
#     4  11  24  42  72 105 135 182 238 293 347 414
#     4  11  27  47  71  99 140 191 242 285 347 422
#     4  12  26  43  67 102 147 181 226 290 357 412
#
# _framework density 22.287022
#
# number of rings (size 3 to 8) (size 9 to 14) (size 15 to 20)
#    0.000    0.889    2.222    4.667    9.333    6.222 
#    0.000    2.222    0.000    0.000    0.000    0.000 
#    0.000    0.000    0.000    0.000    0.000    0.000 
#
# Total GULP energy -100516.096656 kJ/mol
# GULP energy per Si atom -5584.227592 kJ/mol
# Density = 2.223630 g / cm^3
# Si number density = 22.287022 Si / 1000 Ang^3
#
#
#
# Elastic Constant Matrix: (Units=GPa)
#
#
# Indices 1 2 3 4 5 6 
#
# 1 51.1605 23.3367 30.6638 0.0000 -3.2437 0.0000
# 2 23.3367 134.7787 41.7316 0.0000 -17.7958 0.0000
# 3 30.6638 41.7316 137.3601 0.0000 -8.3066 0.0000
# 4 0.0000 0.0000 0.0000 14.3164 0.0000 8.2341
# 5 -3.2437 -17.7958 -8.3066 0.0000 47.5038 0.0000
# 6 0.0000 0.0000 0.0000 8.2341 0.0000 23.0549
#
#
#
# Elastic Compliance Matrix: (Units=1/GPa)
#
#
# Indices 1 2 3 4 5 6 
#
# 1 0.023418 -0.002713 -0.004415 0.000000 -0.000189 0.000000
# 2 -0.002713 0.008851 -0.001914 0.000000 0.002796 0.000000
# 3 -0.004415 -0.001914 0.008880 0.000000 0.000534 0.000000
# 4 0.000000 0.000000 0.000000 0.087907 0.000000 -0.031396
# 5 -0.000189 0.002796 0.000534 0.000000 0.022179 0.000000
# 6 0.000000 0.000000 0.000000 -0.031396 0.000000 0.054588
#
#
# Mechanical properties :
#
#
# Convention : Reuss Voigt Hill
#
# Bulk Modulus (GPa) = 43.35686 57.19596 50.27641
# Shear Modulus (GPa) = 21.58938 32.14619 26.86778
#
# Velocity S-wave (km/s) = 3.11577 3.80198 3.47585
# Velocity P-wave (km/s) = 5.69562 6.70764 6.22224
#
# Compressibility (1/GPa) = 0.02306440
#
# Stress axis : x y z
#
# Youngs Moduli (GPa) = 42.70231 112.97911 112.61698
#
# Poissons Ratio (x) = 0.30648 0.49721
# Poissons Ratio (y) = 0.11584 0.21560
# Poissons Ratio (z) = 0.18853 0.21629
#
# Static dielectric constant tensor:
#      x y z
#    x 1.822100 0.000000 -0.023120 
#    y 0.000000 1.833460 0.000000 
#    z -0.023120 0.000000 1.846250 
# 
# From -- ./inp_files/38877.got.cif
#   From: 2010.05.17/outbox.cif.g08.bks.cpg/sg15_20_cif.got.tgz:38877.got - 2010.06.03 18:47:42.
