data_PCOD9275243
_publ_section_title
;
Structure prediction by ZEFSAII (Michael W. Deem and Ramdas Pophale) SiO2 
 PCOD9275243
Probable space group: C 2/C
;
_chemical_formula_sum "Si O2"
_cell_formula_units_Z 56
_cell_length_a 33.836585
_cell_length_b 17.896973
_cell_length_c 5.575649
_cell_angle_alpha 90.000000
_cell_angle_beta 72.638847
_cell_angle_gamma 90.000000
_cell_volume 3222.637585
_symmetry_space_group_name_H-M "C 2/C"
_symmetry_group_IT_number 15
_symmetry_cell_setting 'monoclinic'
loop_
_space_group_symop_operation_xyz
x,y,z
-x,y,1/2-z
-x,-y,-z
x,-y,1/2+z
1/2+x,1/2+y,z
1/2-x,1/2+y,1/2-z
1/2-x,1/2-y,-z
1/2+x,1/2-y,1/2+z
loop_
_atom_site_type_symbol
_atom_site_label
_atom_site_fract_x
_atom_site_fract_y
_atom_site_fract_z
Si Si1 0.676463 0.462116 0.019774
Si Si2 0.419334 0.091544 0.902571
Si Si3 0.770876 0.698322 0.761305
Si Si4 0.223537 0.461774 0.658820
Si Si5 0.170721 0.339434 0.955786
Si Si6 0.451328 0.923242 0.844636
Si Si7 0.189214 0.810021 0.190351
O O1 0.663432 0.512007 0.275593
O O2 0.664695 0.377423 0.115139
O O3 0.726730 0.462471 0.915504
O O4 0.440616 0.116539 0.614710
O O5 0.426306 0.001736 0.892216
O O6 0.372199 0.117734 0.981223
O O7 0.439147 0.117148 0.119265
O O8 0.790454 0.757664 0.546635
O O9 0.729735 0.655011 0.750172
O O10 0.750000 0.750000 0.000000
O O11 0.807212 0.654307 0.826551
O O12 0.209941 0.497685 0.431539
O O13 0.203168 0.379846 0.718038
O O14 0.166651 0.251365 0.897844
O O15 0.500000 0.941445 0.750000
#
# Coordination Sequence:
#
# PCOD9275243 Si02
#       7
#     8   8   8   8   8   8   8
#     4  10  22  36  52  71  86 121 177 226 261 316
#     4  10  21  32  54  79 100 131 177 222 252 298
#     4   9  19  33  51  65  91 136 177 205 269 341
#     4  10  23  33  47  67 100 128 165 220 276 306
#     4  11  24  32  51  73 106 134 171 222 286 320
#     4  10  20  39  58  75 105 146 184 211 252 324
#     4  10  21  36  52  66  95 135 178 216 276 340
#
# _framework density 17.37707
#
# number of rings (size 3 to 8) (size 9 to 14) (size 15 to 20)
#    0.000    2.000    0.000    4.714   18.000    0.000 
#    0.000    0.000    0.000    0.000    0.000    0.000 
#    0.000    0.000    0.000    0.000    0.000   24.286 
#
# Total GULP energy -156011.550063 kJ/mol
# GULP energy per Si atom -5571.841074 kJ/mol
# Density = 1.733752 g / cm^3
# Si number density = 17.377070 Si / 1000 Ang^3
#
#
#
# Elastic Constant Matrix: (Units=GPa)
#
#
# Indices 1 2 3 4 5 6 
#
# 1 73.1130 8.4856 16.6113 0.0000 4.2678 0.0000
# 2 8.4856 49.2317 5.7173 0.0000 3.3962 0.0000
# 3 16.6113 5.7173 89.2541 0.0000 23.5764 0.0000
# 4 0.0000 0.0000 0.0000 21.1255 0.0000 2.3397
# 5 4.2678 3.3962 23.5764 0.0000 23.1150 0.0000
# 6 0.0000 0.0000 0.0000 2.3397 0.0000 21.7478
#
#
#
# Elastic Compliance Matrix: (Units=1/GPa)
#
#
# Indices 1 2 3 4 5 6 
#
# 1 0.014517 -0.002218 -0.002652 0.000000 0.000351 0.000000
# 2 -0.002218 0.020892 -0.000305 0.000000 -0.002349 0.000000
# 3 -0.002652 -0.000305 0.015845 0.000000 -0.015627 0.000000
# 4 0.000000 0.000000 0.000000 0.047907 0.000000 -0.005154
# 5 0.000351 -0.002349 -0.015627 0.000000 0.059481 0.000000
# 6 0.000000 0.000000 0.000000 -0.005154 0.000000 0.046536
#
#
# Mechanical properties :
#
#
# Convention : Reuss Voigt Hill
#
# Bulk Modulus (GPa) = 24.44843 30.35861 27.40352
# Shear Modulus (GPa) = 21.81848 25.24996 23.53422
#
# Velocity S-wave (km/s) = 3.54728 3.81604 3.68411
# Velocity P-wave (km/s) = 5.55675 6.07657 5.82246
#
# Compressibility (1/GPa) = 0.04090243
#
# Stress axis : x y z
#
# Youngs Moduli (GPa) = 68.88439 47.86541 63.11177
#
# Poissons Ratio (x) = 0.10618 0.16740
# Poissons Ratio (y) = 0.15281 0.01925
# Poissons Ratio (z) = 0.18271 0.01460
#
# Static dielectric constant tensor:
#      x y z
#    x 1.588450 0.000000 0.071430 
#    y 0.000000 1.656890 0.000000 
#    z 0.071430 0.000000 1.716470 
# 
# From -- ./inp_files/18342.got.cif
#   From: 2010.05.17/outbox.cif.g08.bks.cpg/sg15_10_cif.got.tgz:18342.got - 2010.06.03 18:47:42.
