data_PCOD9275650
_publ_section_title
;
Structure prediction by ZEFSAII (Michael W. Deem and Ramdas Pophale) SiO2 
 PCOD9275650
Probable space group: C 2/C
;
_chemical_formula_sum "Si O2"
_cell_formula_units_Z 52
_cell_length_a 17.703914
_cell_length_b 20.325009
_cell_length_c 15.947034
_cell_angle_alpha 90.000000
_cell_angle_beta 29.380073
_cell_angle_gamma 90.000000
_cell_volume 2815.192792
_symmetry_space_group_name_H-M "C 2/C"
_symmetry_group_IT_number 15
_symmetry_cell_setting 'monoclinic'
loop_
_space_group_symop_operation_xyz
x,y,z
-x,y,1/2-z
-x,-y,-z
x,-y,1/2+z
1/2+x,1/2+y,z
1/2-x,1/2+y,1/2-z
1/2-x,1/2-y,-z
1/2+x,1/2-y,1/2+z
loop_
_atom_site_type_symbol
_atom_site_label
_atom_site_fract_x
_atom_site_fract_y
_atom_site_fract_z
Si Si1 0.000000 0.727349 0.250000
Si Si2 0.479908 0.535552 0.109115
Si Si3 0.299373 0.662239 0.028533
Si Si4 0.500000 0.555197 0.750000
Si Si5 0.161283 0.872154 0.539232
Si Si6 0.181845 0.159648 0.294859
Si Si7 0.570078 0.244588 0.536107
Si Si8 0.000000 0.648169 0.750000
O O1 0.872289 0.683764 0.328195
O O2 0.908985 0.775512 0.401326
O O3 0.453019 0.487100 0.213714
O O4 0.630094 0.577070 0.993551
O O5 0.350250 0.591617 0.222374
O O6 0.500000 0.500000 0.000000
O O7 0.313799 0.645103 0.111499
O O8 0.361113 0.602306 0.913023
O O9 0.160783 0.797595 0.505426
O O10 0.329507 0.885835 0.416612
O O11 0.000000 0.876447 0.750000
O O12 0.044386 0.209708 0.405322
O O13 0.328666 0.199632 0.121965
O O14 0.494741 0.194245 0.673562
#
# Coordination Sequence:
#
# PCOD9275650 Si02
#       8
#     4   8   8   4   8   8   8   4
#     4   9  20  38  65  91 120 155 206 262 332 373
#     4  11  23  42  64  89 122 172 224 253 310 385
#     4  10  20  39  63  92 120 162 205 266 321 375
#     4  11  22  41  66  86 119 173 214 256 308 375
#     4  11  22  38  64  91 129 174 205 262 324 386
#     4  11  22  36  62  91 126 158 203 263 311 389
#     4  11  21  34  56  93 129 160 196 256 322 380
#     4  12  20  37  57  95 135 162 208 254 324 396
#
# _framework density 18.471204
#
# number of rings (size 3 to 8) (size 9 to 14) (size 15 to 20)
#    0.000    1.231    4.615    3.231    0.000    0.000 
#    0.000    0.769    0.000    4.615    0.000    0.000 
#    0.000    0.000    0.000    0.000    0.000    0.000 
#
# Total GULP energy -144929.440656 kJ/mol
# GULP energy per Si atom -5574.209256 kJ/mol
# Density = 1.842916 g / cm^3
# Si number density = 18.471204 Si / 1000 Ang^3
#
#
#
# Elastic Constant Matrix: (Units=GPa)
#
#
# Indices 1 2 3 4 5 6 
#
# 1 115.2463 46.9392 59.6024 0.0002 9.0508 -0.0027
# 2 46.9392 86.5839 34.9614 -0.0052 10.6088 0.0040
# 3 59.6024 34.9614 93.5408 -0.0044 -1.4971 0.0042
# 4 0.0002 -0.0052 -0.0044 26.6575 -0.0001 -0.2940
# 5 9.0508 10.6088 -1.4971 -0.0001 30.1852 0.0039
# 6 -0.0027 0.0040 0.0042 -0.2940 0.0039 52.1981
#
#
#
# Elastic Compliance Matrix: (Units=1/GPa)
#
#
# Indices 1 2 3 4 5 6 
#
# 1 0.014789 -0.004467 -0.007805 -0.000002 -0.003251 0.000002
# 2 -0.004467 0.015762 -0.003115 0.000003 -0.004355 -0.000001
# 3 -0.007805 -0.003115 0.016897 0.000002 0.004273 -0.000002
# 4 -0.000002 0.000003 0.000002 0.037515 0.000000 0.000211
# 5 -0.003251 -0.004355 0.004273 0.000000 0.035846 -0.000003
# 6 0.000002 -0.000001 -0.000002 0.000211 -0.000003 0.019159
#
#
# Mechanical properties :
#
#
# Convention : Reuss Voigt Hill
#
# Bulk Modulus (GPa) = 59.97665 64.26411 62.12038
# Shear Modulus (GPa) = 28.36073 32.06603 30.21338
#
# Velocity S-wave (km/s) = 3.92267 4.17106 4.04877
# Velocity P-wave (km/s) = 7.28405 7.61997 7.45390
#
# Compressibility (1/GPa) = 0.01667316
#
# Stress axis : x y z
#
# Youngs Moduli (GPa) = 67.61948 63.44185 59.18380
#
# Poissons Ratio (x) = 0.28340 0.46196
# Poissons Ratio (y) = 0.30207 0.18433
# Poissons Ratio (z) = 0.52780 0.19760
#
# Static dielectric constant tensor:
#      x y z
#    x 1.651190 0.000000 -0.003180 
#    y 0.000000 1.636860 0.000000 
#    z -0.003180 0.000000 1.660810 
# 
# From -- ./inp_files/48487.got.cif
#   From: 2010.05.17/outbox.cif.g08.bks.cpg/sg15_25_cif.got.tgz:48487.got - 2010.06.03 18:47:42.
