data_PCOD9275261
_publ_section_title
;
Structure prediction by ZEFSAII (Michael W. Deem and Ramdas Pophale) SiO2 
 PCOD9275261
Probable space group: C 2/C
;
_chemical_formula_sum "Si O2"
_cell_formula_units_Z 56
_cell_length_a 16.008316
_cell_length_b 22.264158
_cell_length_c 9.527098
_cell_angle_alpha 90.000000
_cell_angle_beta 124.500666
_cell_angle_gamma 90.000000
_cell_volume 2798.354960
_symmetry_space_group_name_H-M "C 2/C"
_symmetry_group_IT_number 15
_symmetry_cell_setting 'monoclinic'
loop_
_space_group_symop_operation_xyz
x,y,z
-x,y,1/2-z
-x,-y,-z
x,-y,1/2+z
1/2+x,1/2+y,z
1/2-x,1/2+y,1/2-z
1/2-x,1/2-y,-z
1/2+x,1/2-y,1/2+z
loop_
_atom_site_type_symbol
_atom_site_label
_atom_site_fract_x
_atom_site_fract_y
_atom_site_fract_z
Si Si1 0.383879 0.268537 0.157238
Si Si2 0.218887 0.681561 0.950355
Si Si3 0.630237 0.155314 0.561714
Si Si4 0.735158 0.389267 0.528940
Si Si5 0.380425 0.512267 0.409527
Si Si6 0.894448 0.666973 0.383759
Si Si7 0.877306 0.919571 0.626506
O O1 0.500000 0.284915 0.250000
O O2 0.375294 0.233268 0.296915
O O3 0.360011 0.216942 0.020093
O O4 0.324235 0.328924 0.070808
O O5 0.179921 0.666667 0.758631
O O6 0.250000 0.750000 0.000000
O O7 0.130213 0.667811 0.976848
O O8 0.316759 0.641702 0.081051
O O9 0.689339 0.103172 0.532437
O O10 0.508992 0.147230 0.458695
O O11 0.654924 0.437761 0.509776
O O12 0.812658 0.374941 0.728925
O O13 0.500000 0.500000 0.500000
O O14 0.346198 0.450667 0.450062
O O15 0.346326 0.536973 0.226354
O O16 0.000000 0.911925 0.750000
#
# Coordination Sequence:
#
# PCOD9275261 Si02
#       7
#     8   8   8   8   8   8   8
#     4   9  19  35  56  91 128 165 216 259 321 393
#     4  12  23  39  62  94 134 174 217 273 341 389
#     4  10  22  35  59  93 125 172 218 263 326 388
#     4  11  19  38  65  88 124 169 216 269 326 383
#     4  10  23  43  67  91 128 165 215 266 325 393
#     4  10  20  39  58  88 132 171 217 275 315 388
#     4  10  24  45  65  95 129 169 217 264 331 400
#
# _framework density 20.011756999999999
#
# number of rings (size 3 to 8) (size 9 to 14) (size 15 to 20)
#    0.000    1.714    1.429    5.143    2.000    2.857 
#   10.286    0.000    0.000    5.143    0.000    0.000 
#    0.000    0.000    0.000    0.000    0.000    0.000 
#
# Total GULP energy -156136.363786 kJ/mol
# GULP energy per Si atom -5576.298707 kJ/mol
# Density = 1.996621 g / cm^3
# Si number density = 20.011757 Si / 1000 Ang^3
#
#
#
# Elastic Constant Matrix: (Units=GPa)
#
#
# Indices 1 2 3 4 5 6 
#
# 1 130.4716 56.5527 27.3064 0.0000 -4.4291 0.0000
# 2 56.5527 73.3214 19.8110 0.0000 8.6887 0.0000
# 3 27.3064 19.8110 81.2445 0.0000 -5.8354 0.0000
# 4 0.0000 0.0000 0.0000 16.8106 0.0000 6.8122
# 5 -4.4291 8.6887 -5.8354 0.0000 36.9943 0.0000
# 6 0.0000 0.0000 0.0000 6.8122 0.0000 27.0171
#
#
#
# Elastic Compliance Matrix: (Units=1/GPa)
#
#
# Indices 1 2 3 4 5 6 
#
# 1 0.012167 -0.009367 -0.001560 0.000000 0.003411 0.000000
# 2 -0.009367 0.022433 -0.002813 0.000000 -0.006834 0.000000
# 3 -0.001560 -0.002813 0.013708 0.000000 0.002636 0.000000
# 4 0.000000 0.000000 0.000000 0.066256 0.000000 -0.016706
# 5 0.003411 -0.006834 0.002636 0.000000 0.029460 0.000000
# 6 0.000000 0.000000 0.000000 -0.016706 0.000000 0.041226
#
#
# Mechanical properties :
#
#
# Convention : Reuss Voigt Hill
#
# Bulk Modulus (GPa) = 48.01183 54.70862 51.36022
# Shear Modulus (GPa) = 22.76110 28.25556 25.50833
#
# Velocity S-wave (km/s) = 3.37617 3.76167 3.57412
# Velocity P-wave (km/s) = 6.26434 6.80180 6.53859
#
# Compressibility (1/GPa) = 0.02082820
#
# Stress axis : x y z
#
# Youngs Moduli (GPa) = 82.19027 44.57703 72.94921
#
# Poissons Ratio (x) = 0.41755 0.11382
# Poissons Ratio (y) = 0.76987 0.20519
# Poissons Ratio (z) = 0.12824 0.12539
#
# Static dielectric constant tensor:
#      x y z
#    x 1.769620 0.000000 -0.006220 
#    y 0.000000 1.714220 0.000000 
#    z -0.006220 0.000000 1.719240 
# 
# From -- ./inp_files/42727.got.cif
#   From: 2010.05.17/outbox.cif.g08.bks.cpg/sg15_22_cif.got.tgz:42727.got - 2010.06.03 18:47:42.
