data_PCOD9275990
_publ_section_title
;
Structure prediction by ZEFSAII (Michael W. Deem and Ramdas Pophale) SiO2 
 PCOD9275990
Probable space group: C 2/C
;
_chemical_formula_sum "Si O2"
_cell_formula_units_Z 48
_cell_length_a 13.494550
_cell_length_b 28.329351
_cell_length_c 9.819545
_cell_angle_alpha 90.000000
_cell_angle_beta 152.946299
_cell_angle_gamma 90.000000
_cell_volume 1707.383622
_symmetry_space_group_name_H-M "C 2/C"
_symmetry_group_IT_number 15
_symmetry_cell_setting 'monoclinic'
loop_
_space_group_symop_operation_xyz
x,y,z
-x,y,1/2-z
-x,-y,-z
x,-y,1/2+z
1/2+x,1/2+y,z
1/2-x,1/2+y,1/2-z
1/2-x,1/2-y,-z
1/2+x,1/2-y,1/2+z
loop_
_atom_site_type_symbol
_atom_site_label
_atom_site_fract_x
_atom_site_fract_y
_atom_site_fract_z
Si Si1 0.451872 0.155264 0.843072
Si Si2 0.241024 0.532000 0.422891
Si Si3 0.686037 0.538086 0.273095
Si Si4 0.039559 0.756069 0.553481
Si Si5 0.198043 0.362472 0.913081
Si Si6 0.027802 0.859704 0.995674
O O1 0.500000 0.137552 0.750000
O O2 0.239180 0.134537 0.657086
O O3 0.417042 0.211307 0.800365
O O4 0.644573 0.146266 0.189747
O O5 0.162511 0.535242 0.173075
O O6 0.212617 0.483755 0.468350
O O7 0.178921 0.581556 0.409968
O O8 0.500000 0.537724 0.750000
O O9 0.500000 0.500000 0.000000
O O10 0.590823 0.590285 0.167401
O O11 0.070396 0.808006 0.654607
O O12 0.253901 0.749337 0.702876
O O13 0.000000 0.337359 0.750000
O O14 0.401854 0.351557 0.259280
#
# Coordination Sequence:
#
# PCOD9275990 Si02
#       6
#     8   8   8   8   8   8
#     4  10  24  46  69 108 151 196 262 332 407 489
#     4  10  20  39  66  96 137 185 250 321 393 472
#     4  10  20  40  66 101 143 192 259 322 398 482
#     4  10  24  46  80 120 167 214 272 342 412 500
#     4  10  21  41  70  96 144 197 255 325 397 479
#     4  10  21  43  73 107 146 208 259 326 407 487
#
# _framework density 28.113189999999999
#
# number of rings (size 3 to 8) (size 9 to 14) (size 15 to 20)
#    0.000    2.000    3.333    0.000    2.333    3.333 
#   12.000    5.000    0.000    0.000    0.000    0.000 
#    0.000    0.000    0.000    0.000    0.000    0.000 
#
# Total GULP energy -133655.227004 kJ/mol
# GULP energy per Si atom -5568.967792 kJ/mol
# Density = 2.804920 g / cm^3
# Si number density = 28.113190 Si / 1000 Ang^3
#
#
#
# Elastic Constant Matrix: (Units=GPa)
#
#
# Indices 1 2 3 4 5 6 
#
# 1 138.2038 27.3653 94.7034 0.0000 -1.0393 0.0000
# 2 27.3653 187.1849 89.7373 0.0000 8.6764 0.0000
# 3 94.7034 89.7373 170.9006 -0.0001 -7.0109 -0.0001
# 4 0.0000 0.0000 -0.0001 -217.4843 -0.0001 -100.0558
# 5 -1.0393 8.6764 -7.0109 -0.0001 56.9542 0.0000
# 6 0.0000 0.0000 -0.0001 -100.0558 0.0000 -17.6272
#
#
#
# Elastic Compliance Matrix: (Units=1/GPa)
#
#
# Indices 1 2 3 4 5 6 
#
# 1 0.012234 0.002047 -0.007898 0.000000 -0.001061 0.000000
# 2 0.002047 0.007622 -0.005209 0.000000 -0.001765 0.000000
# 3 -0.007898 -0.005209 0.013056 0.000000 0.002257 0.000000
# 4 0.000000 0.000000 0.000000 0.002853 0.000000 -0.016197
# 5 -0.001061 -0.001765 0.002257 0.000000 0.018085 0.000000
# 6 0.000000 0.000000 0.000000 -0.016197 0.000000 0.035206
#
#
# Mechanical properties :
#
#
# Convention : Reuss Voigt Hill
#
# Bulk Modulus (GPa) = 92.65945 102.21127 97.43536
# Shear Modulus (GPa) = 43.56394 -16.66591 13.44901
#
# Velocity S-wave (km/s) = 3.94075 -2.43742 2.18958
# Velocity P-wave (km/s) = 7.33056 5.33991 6.41294
#
# Compressibility (1/GPa) = 0.01079221
#
# Stress axis : x y z
#
# Youngs Moduli (GPa) = 81.73658 131.19846 76.59547
#
# Poissons Ratio (x) = -0.26855 0.60494
# Poissons Ratio (y) = -0.16730 0.39898
# Poissons Ratio (z) = 0.64555 0.68340
#
# Static dielectric constant tensor:
#      x y z
#    x 2.303420 0.000000 0.199480 
#    y 0.000000 2.678620 0.000000 
#    z 0.199480 0.000000 2.405260 
# 
# From -- ./inp_files/101414.got.cif
#   From: 2010.05.17/outbox.cif.g08.bks.cpg/sg15_51_cif.got.tgz:101414.got - 2010.06.03 18:47:42.
