data_PCOD9275665
_publ_section_title
;
Structure prediction by ZEFSAII (Michael W. Deem and Ramdas Pophale) SiO2 
 PCOD9275665
Probable space group: C 2/C
;
_chemical_formula_sum "Si O2"
_cell_formula_units_Z 64
_cell_length_a 12.787923
_cell_length_b 16.699083
_cell_length_c 14.495390
_cell_angle_alpha 90.000000
_cell_angle_beta 95.456731
_cell_angle_gamma 90.000000
_cell_volume 3081.413447
_symmetry_space_group_name_H-M "C 2/C"
_symmetry_group_IT_number 15
_symmetry_cell_setting 'monoclinic'
loop_
_space_group_symop_operation_xyz
x,y,z
-x,y,1/2-z
-x,-y,-z
x,-y,1/2+z
1/2+x,1/2+y,z
1/2-x,1/2+y,1/2-z
1/2-x,1/2-y,-z
1/2+x,1/2-y,1/2+z
loop_
_atom_site_type_symbol
_atom_site_label
_atom_site_fract_x
_atom_site_fract_y
_atom_site_fract_z
Si Si1 0.737738 0.963529 0.094641
Si Si2 0.387126 0.358496 0.192954
Si Si3 0.013930 0.818132 0.492656
Si Si4 0.397344 0.150606 0.032751
Si Si5 0.405386 0.597611 0.314635
Si Si6 0.696877 0.808098 0.777863
Si Si7 0.611994 0.535598 0.544967
Si Si8 0.943457 0.566281 0.333737
O O1 0.821622 0.938694 0.178402
O O2 0.650105 0.016425 0.133616
O O3 0.679743 0.884797 0.049848
O O4 0.797715 0.009312 0.017744
O O5 0.500000 0.364030 0.250000
O O6 0.411174 0.340870 0.086932
O O7 0.319708 0.286896 0.232246
O O8 0.908451 0.868737 0.458748
O O9 0.027088 0.722503 0.493931
O O10 0.053107 0.850593 0.594144
O O11 0.328469 0.175685 0.116147
O O12 0.472172 0.082522 0.080341
O O13 0.500000 0.587853 0.250000
O O14 0.306883 0.648134 0.266579
O O15 0.372180 0.513186 0.359094
O O16 0.606463 0.851195 0.710194
O O17 0.500000 0.500000 0.500000
O O18 0.000000 0.527734 0.250000
#
# Coordination Sequence:
#
# PCOD9275665 Si02
#       8
#     8   8   8   8   8   8   8   8
#     4  12  22  41  70  92 130 174 229 267 340 403
#     4  11  22  39  67  98 127 168 220 275 326 403
#     4  10  21  40  63  92 134 162 220 271 323 392
#     4  10  20  43  69  87 120 181 225 274 319 404
#     4  11  22  36  63  98 138 173 212 275 338 401
#     4  10  20  39  63  93 124 169 224 265 333 394
#     4  10  21  39  56 100 132 162 215 275 328 401
#     4  10  24  42  63  94 126 171 228 283 322 391
#
# _framework density 20.769689
#
# number of rings (size 3 to 8) (size 9 to 14) (size 15 to 20)
#    0.000    1.500    3.750    3.000    3.500    3.500 
#    0.000    3.125    2.750    0.000    0.000    0.000 
#    0.000    0.000    0.000    0.000    0.000    0.000 
#
# Total GULP energy -178627.013726 kJ/mol
# GULP energy per Si atom -5582.094179 kJ/mol
# Density = 2.072242 g / cm^3
# Si number density = 20.769689 Si / 1000 Ang^3
#
#
#
# Elastic Constant Matrix: (Units=GPa)
#
#
# Indices 1 2 3 4 5 6 
#
# 1 131.5896 52.8277 43.8212 0.0000 -15.2770 0.0000
# 2 52.8277 77.4765 27.0245 0.0000 -10.6200 0.0000
# 3 43.8212 27.0245 85.9579 0.0000 0.3351 0.0000
# 4 0.0000 0.0000 0.0000 14.1460 0.0000 -2.7055
# 5 -15.2770 -10.6200 0.3351 0.0000 35.2364 0.0000
# 6 0.0000 0.0000 0.0000 -2.7055 0.0000 26.5359
#
#
#
# Elastic Compliance Matrix: (Units=1/GPa)
#
#
# Indices 1 2 3 4 5 6 
#
# 1 0.011831 -0.006184 -0.004100 0.000000 0.003305 0.000000
# 2 -0.006184 0.018449 -0.002659 0.000000 0.002905 0.000000
# 3 -0.004100 -0.002659 0.014570 0.000000 -0.002718 0.000000
# 4 0.000000 0.000000 0.000000 0.072097 0.000000 0.007351
# 5 0.003305 0.002905 -0.002718 0.000000 0.030714 0.000000
# 6 0.000000 0.000000 0.000000 0.007351 0.000000 0.038434
#
#
# Mechanical properties :
#
#
# Convention : Reuss Voigt Hill
#
# Bulk Modulus (GPa) = 52.73009 60.26341 56.49675
# Shear Modulus (GPa) = 22.90386 26.60704 24.75545
#
# Velocity S-wave (km/s) = 3.32438 3.58306 3.45614
# Velocity P-wave (km/s) = 6.33865 6.79675 6.57169
#
# Compressibility (1/GPa) = 0.01896451
#
# Stress axis : x y z
#
# Youngs Moduli (GPa) = 84.52367 54.20253 68.63210
#
# Poissons Ratio (x) = 0.33518 0.28140
# Poissons Ratio (y) = 0.52268 0.18250
# Poissons Ratio (z) = 0.34656 0.14413
#
# Static dielectric constant tensor:
#      x y z
#    x 1.749250 0.000000 0.034840 
#    y 0.000000 1.815090 0.000000 
#    z 0.034840 0.000000 1.754600 
# 
# From -- ./inp_files/146084.got.cif
#   From: 2010.05.17/outbox.cif.g08.bks.cpg/sg15_74_cif.got.tgz:146084.got - 2010.06.03 18:47:42.
