data_PCOD9275228
_publ_section_title
;
Structure prediction by ZEFSAII (Michael W. Deem and Ramdas Pophale) SiO2 
 PCOD9275228
Probable space group: C 2/C
;
_chemical_formula_sum "Si O2"
_cell_formula_units_Z 48
_cell_length_a 9.504049
_cell_length_b 6.865275
_cell_length_c 29.093743
_cell_angle_alpha 90.000000
_cell_angle_beta 86.745029
_cell_angle_gamma 90.000000
_cell_volume 1895.243479
_symmetry_space_group_name_H-M "C 2/C"
_symmetry_group_IT_number 15
_symmetry_cell_setting 'monoclinic'
loop_
_space_group_symop_operation_xyz
x,y,z
-x,y,1/2-z
-x,-y,-z
x,-y,1/2+z
1/2+x,1/2+y,z
1/2-x,1/2+y,1/2-z
1/2-x,1/2-y,-z
1/2+x,1/2-y,1/2+z
loop_
_atom_site_type_symbol
_atom_site_label
_atom_site_fract_x
_atom_site_fract_y
_atom_site_fract_z
Si Si1 0.975185 0.060943 0.896724
Si Si2 0.594117 0.130594 0.707110
Si Si3 0.430166 0.559048 0.705290
Si Si4 0.196781 0.578916 0.943513
Si Si5 0.680530 0.488482 0.467763
Si Si6 0.063648 0.594053 0.604778
O O1 0.045681 0.127015 0.847925
O O2 0.815602 0.130135 0.904180
O O3 0.046765 0.102090 0.944866
O O4 0.966261 0.825442 0.894878
O O5 0.500000 0.049440 0.750000
O O6 0.518546 0.348134 0.702935
O O7 0.760574 0.094236 0.715368
O O8 0.578186 0.037220 0.657290
O O9 0.500000 0.646215 0.750000
O O10 0.149794 0.779010 0.968275
O O11 0.067323 0.495638 0.917992
O O12 0.262988 0.446520 0.982290
O O13 0.801887 0.447663 0.428537
#
# Coordination Sequence:
#
# PCOD9275228 Si02
#       6
#     8   8   8   8   8   8
#     4  10  21  38  60  87 124 165 218 265 332 396
#     4  10  22  43  69  96 135 176 222 281 345 409
#     4  10  22  43  68  97 135 173 225 281 343 411
#     4  10  22  35  59  89 121 166 215 271 331 396
#     4  10  20  39  56  86 125 163 213 276 327 395
#     4  10  21  38  60  85 127 164 215 269 330 396
#
# _framework density 25.326561000000002
#
# number of rings (size 3 to 8) (size 9 to 14) (size 15 to 20)
#    0.000    2.000    1.667    1.000    2.333    2.000 
#    0.000    3.333    0.000    0.000    0.000    0.000 
#    0.000    0.000    0.000    0.000    0.000    0.000 
#
# Total GULP energy -133842.729442 kJ/mol
# GULP energy per Si atom -5576.780393 kJ/mol
# Density = 2.526892 g / cm^3
# Si number density = 25.326561 Si / 1000 Ang^3
#
#
#
# Elastic Constant Matrix: (Units=GPa)
#
#
# Indices 1 2 3 4 5 6 
#
# 1 172.5601 30.2412 61.6370 0.0000 5.0837 0.0000
# 2 30.2412 96.9355 18.6617 0.0000 16.5686 0.0000
# 3 61.6370 18.6617 202.3836 0.0000 4.6819 0.0000
# 4 0.0000 0.0000 0.0000 -22.2390 0.0000 -12.8600
# 5 5.0837 16.5686 4.6819 0.0000 55.6542 0.0000
# 6 0.0000 0.0000 0.0000 -12.8600 0.0000 18.6720
#
#
#
# Elastic Compliance Matrix: (Units=1/GPa)
#
#
# Indices 1 2 3 4 5 6 
#
# 1 0.006782 -0.001760 -0.001905 0.000000 0.000065 0.000000
# 2 -0.001760 0.011503 -0.000450 0.000000 -0.003226 0.000000
# 3 -0.001905 -0.000450 0.005566 0.000000 -0.000160 0.000000
# 4 0.000000 0.000000 0.000000 -0.032158 0.000000 -0.022149
# 5 0.000065 -0.003226 -0.000160 0.000000 0.018936 0.000000
# 6 0.000000 0.000000 0.000000 -0.022149 0.000000 0.038302
#
#
# Mechanical properties :
#
#
# Convention : Reuss Voigt Hill
#
# Bulk Modulus (GPa) = 64.01256 76.99543 70.50399
# Shear Modulus (GPa) = 80.16912 34.50673 57.33793
#
# Velocity S-wave (km/s) = 5.63231 3.69517 4.76325
# Velocity P-wave (km/s) = 8.22356 6.97659 7.62561
#
# Compressibility (1/GPa) = 0.01562194
#
# Stress axis : x y z
#
# Youngs Moduli (GPa) = 147.44948 86.93158 179.64941
#
# Poissons Ratio (x) = 0.15302 0.34217
# Poissons Ratio (y) = 0.25954 0.08084
# Poissons Ratio (z) = 0.28084 0.03912
#
# Static dielectric constant tensor:
#      x y z
#    x 2.001510 0.000000 0.041930 
#    y 0.000000 2.171480 0.000000 
#    z 0.041930 0.000000 1.936910 
# 
# From -- ./inp_files/306641.got.cif
#   From: 2010.05.17/outbox.cif.g08.bks.cpg/sg15_154_cif.got.tgz:306641.got - 2010.06.03 18:47:42.
