data_PCOD9275419
_publ_section_title
;
Structure prediction by ZEFSAII (Michael W. Deem and Ramdas Pophale) SiO2 
 PCOD9275419
Probable space group: C 2/C
;
_chemical_formula_sum "Si O2"
_cell_formula_units_Z 48
_cell_length_a 15.801523
_cell_length_b 30.302097
_cell_length_c 9.335108
_cell_angle_alpha 90.000000
_cell_angle_beta 143.789154
_cell_angle_gamma 90.000000
_cell_volume 2640.589511
_symmetry_space_group_name_H-M "C 2/C"
_symmetry_group_IT_number 15
_symmetry_cell_setting 'monoclinic'
loop_
_space_group_symop_operation_xyz
x,y,z
-x,y,1/2-z
-x,-y,-z
x,-y,1/2+z
1/2+x,1/2+y,z
1/2-x,1/2+y,1/2-z
1/2-x,1/2-y,-z
1/2+x,1/2-y,1/2+z
loop_
_atom_site_type_symbol
_atom_site_label
_atom_site_fract_x
_atom_site_fract_y
_atom_site_fract_z
Si Si1 0.597994 0.130781 0.693633
Si Si2 0.206139 0.610217 0.158356
Si Si3 0.945667 0.814552 0.014397
Si Si4 0.398766 0.380707 0.469021
Si Si5 0.594652 0.235181 0.738300
Si Si6 0.964959 0.044929 0.535453
O O1 0.439360 0.111886 0.447364
O O2 0.731436 0.119719 0.775174
O O3 0.584166 0.183621 0.688371
O O4 0.651583 0.113383 0.921083
O O5 0.304117 0.654088 0.315058
O O6 0.306723 0.567337 0.312068
O O7 0.000000 0.816141 0.250000
O O8 0.053869 0.836820 0.048947
O O9 0.932298 0.765219 0.937271
O O10 0.437555 0.419144 0.411707
O O11 0.500000 0.384769 0.750000
O O12 0.500000 0.244115 0.750000
O O13 0.750000 0.250000 0.000000
O O14 0.000000 0.039816 0.750000
O O15 0.000000 0.000000 0.500000
#
# Coordination Sequence:
#
# PCOD9275419 Si02
#       6
#     8   8   8   8   8   8
#     4  11  20  36  64  91 121 167 204 257 312 368
#     4  10  20  39  61  89 127 158 201 258 320 359
#     4  11  22  37  56  86 128 169 221 267 301 358
#     4  11  19  38  65  91 118 165 211 247 308 373
#     4  12  20  36  58  87 118 169 227 259 297 366
#     4  11  24  43  69  96 120 152 202 252 305 384
#
# _framework density 18.177759999999999
#
# number of rings (size 3 to 8) (size 9 to 14) (size 15 to 20)
#    0.000    1.000    6.667    4.000    0.000    0.000 
#    0.000   13.333    0.000    0.000    0.000    0.000 
#    0.000    0.000    0.000    0.000    0.000    0.000 
#
# Total GULP energy -133853.480189 kJ/mol
# GULP energy per Si atom -5577.228341 kJ/mol
# Density = 1.813639 g / cm^3
# Si number density = 18.177760 Si / 1000 Ang^3
#
#
#
# Elastic Constant Matrix: (Units=GPa)
#
#
# Indices 1 2 3 4 5 6 
#
# 1 143.9071 34.8688 74.6912 0.0000 24.7988 0.0000
# 2 34.8688 103.4913 52.0837 0.0000 1.6355 0.0000
# 3 74.6912 52.0837 95.8280 0.0000 11.9292 0.0000
# 4 0.0000 0.0000 0.0000 7.6094 0.0000 -21.4421
# 5 24.7988 1.6355 11.9292 0.0000 52.5385 0.0000
# 6 0.0000 0.0000 0.0000 -21.4421 0.0000 3.4936
#
#
#
# Elastic Compliance Matrix: (Units=1/GPa)
#
#
# Indices 1 2 3 4 5 6 
#
# 1 0.012385 0.000705 -0.009577 0.000000 -0.003693 0.000000
# 2 0.000705 0.013423 -0.007977 0.000000 0.001061 0.000000
# 3 -0.009577 -0.007977 0.022271 0.000000 -0.000288 0.000000
# 4 0.000000 0.000000 0.000000 -0.008065 0.000000 -0.049499
# 5 -0.003693 0.001061 -0.000288 0.000000 0.020809 0.000000
# 6 0.000000 0.000000 0.000000 -0.049499 0.000000 -0.017567
#
#
# Mechanical properties :
#
#
# Convention : Reuss Voigt Hill
#
# Bulk Modulus (GPa) = 69.53237 74.05707 71.79472
# Shear Modulus (GPa) = 61.16286 24.83383 42.99835
#
# Velocity S-wave (km/s) = 5.80690 3.70018 4.86885
# Velocity P-wave (km/s) = 9.12659 7.68661 8.43737
#
# Compressibility (1/GPa) = 0.01438179
#
# Stress axis : x y z
#
# Youngs Moduli (GPa) = 80.74204 74.49926 44.90058
#
# Poissons Ratio (x) = -0.05254 0.43001
# Poissons Ratio (y) = -0.05694 0.35818
# Poissons Ratio (z) = 0.77325 0.59430
#
# Static dielectric constant tensor:
#      x y z
#    x 1.632670 0.000000 0.041080 
#    y 0.000000 1.652340 0.000000 
#    z 0.041080 0.000000 1.632580 
# 
# From -- ./inp_files/43903.got.cif
#   From: 2010.05.17/outbox.cif.g08.bks.cpg/sg15_22_cif.got.tgz:43903.got - 2010.06.03 18:47:42.
