data_PCOD9275072
_publ_section_title
;
Structure prediction by ZEFSAII (Michael W. Deem and Ramdas Pophale) SiO2 
 PCOD9275072
Probable space group: C 2/C
;
_chemical_formula_sum "Si O2"
_cell_formula_units_Z 48
_cell_length_a 11.812028
_cell_length_b 20.291252
_cell_length_c 27.626720
_cell_angle_alpha 90.000000
_cell_angle_beta 158.740604
_cell_angle_gamma 90.000000
_cell_volume 2400.930054
_symmetry_space_group_name_H-M "C 2/C"
_symmetry_group_IT_number 15
_symmetry_cell_setting 'monoclinic'
loop_
_space_group_symop_operation_xyz
x,y,z
-x,y,1/2-z
-x,-y,-z
x,-y,1/2+z
1/2+x,1/2+y,z
1/2-x,1/2+y,1/2-z
1/2-x,1/2-y,-z
1/2+x,1/2-y,1/2+z
loop_
_atom_site_type_symbol
_atom_site_label
_atom_site_fract_x
_atom_site_fract_y
_atom_site_fract_z
Si Si1 0.385416 0.813348 0.620689
Si Si2 0.098778 0.684174 0.484819
Si Si3 0.000000 0.493877 0.250000
Si Si4 0.734087 0.059630 0.103035
Si Si5 0.283350 0.620048 0.926804
Si Si6 0.435723 0.404689 0.865258
Si Si7 0.000000 0.276731 0.250000
O O1 0.348249 0.734170 0.607931
O O2 0.320801 0.832216 0.538676
O O3 0.716847 0.841351 0.768902
O O4 0.120762 0.850639 0.546102
O O5 0.984802 0.620704 0.468009
O O6 0.795553 0.731001 0.361067
O O7 0.795677 0.446018 0.134266
O O8 0.782118 0.539327 0.196906
O O9 0.000000 0.048518 0.250000
O O10 0.920096 0.074836 0.128069
O O11 0.500000 0.000000 0.000000
O O12 0.043548 0.675240 0.812933
O O13 0.295909 0.608835 0.988629
#
# Coordination Sequence:
#
# PCOD9275072 Si02
#       7
#     8   8   4   8   8   8   4
#     4  10  20  38  68  92 124 171 219 276 327 403
#     4  10  20  42  66  91 127 182 218 265 347 395
#     4  11  24  36  64  92 133 174 212 280 331 396
#     4  12  28  47  70  97 141 187 228 273 343 418
#     4  10  22  37  59  99 126 163 224 274 340 383
#     4  12  23  40  66  96 136 168 225 276 337 395
#     4   9  18  40  62  88 127 170 216 268 337 406
#
# _framework density 19.992252000000001
#
# number of rings (size 3 to 8) (size 9 to 14) (size 15 to 20)
#    0.000    1.333    4.167    0.500    4.667    0.000 
#    0.000   12.500    0.000    0.000    0.000    0.000 
#    0.000    0.000    0.000    0.000    0.000    0.000 
#
# Total GULP energy -134081.311181 kJ/mol
# GULP energy per Si atom -5586.721299 kJ/mol
# Density = 1.994675 g / cm^3
# Si number density = 19.992252 Si / 1000 Ang^3
#
#
#
# Elastic Constant Matrix: (Units=GPa)
#
#
# Indices 1 2 3 4 5 6 
#
# 1 126.6338 54.8982 37.3356 0.0115 -21.8822 0.0000
# 2 54.8982 136.6688 64.0308 -0.0062 -7.9198 0.0118
# 3 37.3356 64.0308 91.4756 -0.0054 -24.7815 0.0317
# 4 0.0115 -0.0062 -0.0054 28.5887 0.0095 1.5773
# 5 -21.8822 -7.9198 -24.7815 0.0095 32.2437 -0.0002
# 6 0.0000 0.0118 0.0317 1.5773 -0.0002 11.5480
#
#
#
# Elastic Compliance Matrix: (Units=1/GPa)
#
#
# Indices 1 2 3 4 5 6 
#
# 1 0.010688 -0.004004 0.000176 -0.000008 0.006405 0.000005
# 2 -0.004004 0.012817 -0.009119 0.000004 -0.006578 0.000011
# 3 0.000176 -0.009119 0.021052 0.000000 0.014060 -0.000048
# 4 -0.000008 0.000004 0.000000 0.035244 -0.000015 -0.004814
# 5 0.006405 -0.006578 0.014060 -0.000015 0.044550 -0.000029
# 6 0.000005 0.000011 -0.000048 -0.004814 -0.000029 0.087253
#
#
# Mechanical properties :
#
#
# Convention : Reuss Voigt Hill
#
# Bulk Modulus (GPa) = 53.58659 74.14527 63.86593
# Shear Modulus (GPa) = 20.51541 27.71033 24.11287
#
# Velocity S-wave (km/s) = 3.20686 3.72701 3.47668
# Velocity P-wave (km/s) = 6.36976 7.46246 6.93766
#
# Compressibility (1/GPa) = 0.01866139
#
# Stress axis : x y z
#
# Youngs Moduli (GPa) = 93.56609 78.02355 47.50131
#
# Poissons Ratio (x) = 0.31244 -0.00836
# Poissons Ratio (y) = 0.37467 0.43317
# Poissons Ratio (z) = -0.01646 0.71150
#
# Static dielectric constant tensor:
#      x y z
#    x 1.711150 0.000000 0.019190 
#    y 0.000000 1.713690 -0.000020 
#    z 0.019190 -0.000020 1.743810 
# 
# From -- ./inp_files/293837.got.cif
#   From: 2010.05.17/outbox.cif.g08.bks.cpg/sg15_147_cif.got.tgz:293837.got - 2010.06.03 18:47:42.
