data_PCOD9275359
_publ_section_title
;
Structure prediction by ZEFSAII (Michael W. Deem and Ramdas Pophale) SiO2 
 PCOD9275359
Probable space group: C 2/C
;
_chemical_formula_sum "Si O2"
_cell_formula_units_Z 44
_cell_length_a 7.911579
_cell_length_b 16.608430
_cell_length_c 21.067144
_cell_angle_alpha 90.000000
_cell_angle_beta 48.113707
_cell_angle_gamma 90.000000
_cell_volume 2060.845188
_symmetry_space_group_name_H-M "C 2/C"
_symmetry_group_IT_number 15
_symmetry_cell_setting 'monoclinic'
loop_
_space_group_symop_operation_xyz
x,y,z
-x,y,1/2-z
-x,-y,-z
x,-y,1/2+z
1/2+x,1/2+y,z
1/2-x,1/2+y,1/2-z
1/2-x,1/2-y,-z
1/2+x,1/2-y,1/2+z
loop_
_atom_site_type_symbol
_atom_site_label
_atom_site_fract_x
_atom_site_fract_y
_atom_site_fract_z
Si Si1 0.590136 0.666553 0.905721
Si Si2 0.000000 0.560851 0.750000
Si Si3 0.723025 0.996047 0.318619
Si Si4 0.304756 0.665453 0.852355
Si Si5 0.300399 0.342589 0.851434
Si Si6 0.965346 0.809773 0.942009
O O1 0.813689 0.617478 0.830101
O O2 0.408872 0.653121 0.895733
O O3 0.652593 0.761591 0.890338
O O4 0.516635 0.645113 0.995596
O O5 0.873561 0.510035 0.727772
O O6 0.658262 0.913205 0.370426
O O7 0.000000 0.997420 0.250000
O O8 0.657326 0.079376 0.367730
O O9 0.500000 0.669776 0.750000
O O10 0.173039 0.748826 0.882122
O O11 0.500000 0.328827 0.750000
O O12 0.419681 0.358439 0.889360
O O13 0.750000 0.750000 0.000000
#
# Coordination Sequence:
#
# PCOD9275359 Si02
#       6
#     8   4   8   8   8   8
#     4  11  21  38  65  91 123 163 215 254 308 369
#     4  12  20  42  64  90 122 178 208 254 316 378
#     4  10  21  38  61  89 125 162 213 252 308 379
#     4  11  20  39  63  93 123 166 213 250 306 381
#     4  10  20  39  60  90 124 161 208 257 309 368
#     4  10  22  38  62  93 125 163 206 259 308 367
#
# _framework density 21.350463999999999
#
# number of rings (size 3 to 8) (size 9 to 14) (size 15 to 20)
#    0.000    1.455    4.545    3.818    0.000    0.000 
#    8.182    9.091    0.000    0.000    0.000    0.000 
#    0.000    0.000    0.000    0.000    0.000    0.000 
#
# Total GULP energy -122915.236584 kJ/mol
# GULP energy per Si atom -5587.056208 kJ/mol
# Density = 2.130187 g / cm^3
# Si number density = 21.350464 Si / 1000 Ang^3
#
#
#
# Elastic Constant Matrix: (Units=GPa)
#
#
# Indices 1 2 3 4 5 6 
#
# 1 130.3671 36.8603 39.2505 0.0009 54.6471 -0.0029
# 2 36.8603 65.7629 32.9882 -0.0006 22.0637 -0.0001
# 3 39.2505 32.9882 96.2248 0.0022 46.2201 -0.0024
# 4 0.0009 -0.0006 0.0022 -20.5615 -0.0016 28.3243
# 5 54.6471 22.0637 46.2201 -0.0016 51.1175 0.0028
# 6 -0.0029 -0.0001 -0.0024 28.3243 0.0028 -4.1422
#
#
#
# Elastic Compliance Matrix: (Units=1/GPa)
#
#
# Indices 1 2 3 4 5 6 
#
# 1 0.015289 -0.004521 0.003937 0.000004 -0.017953 0.000001
# 2 -0.004521 0.020163 -0.005674 -0.000001 0.001260 0.000000
# 3 0.003937 -0.005674 0.020465 0.000004 -0.020264 0.000000
# 4 0.000004 -0.000001 0.000004 0.005776 -0.000009 0.039499
# 5 -0.017953 0.001260 -0.020264 -0.000009 0.056535 -0.000001
# 6 0.000001 0.000000 0.000000 0.039499 -0.000001 0.028673
#
#
# Mechanical properties :
#
#
# Convention : Reuss Voigt Hill
#
# Bulk Modulus (GPa) = 23.04034 56.72811 39.88422
# Shear Modulus (GPa) = 28.75459 17.49981 23.12720
#
# Velocity S-wave (km/s) = 3.67384 2.86605 3.29480
# Velocity P-wave (km/s) = 5.36760 6.13025 5.76156
#
# Compressibility (1/GPa) = 0.04340214
#
# Stress axis : x y z
#
# Youngs Moduli (GPa) = 65.40532 49.59462 48.86345
#
# Poissons Ratio (x) = 0.22423 -0.19238
# Poissons Ratio (y) = 0.29571 0.27724
# Poissons Ratio (z) = -0.25750 0.28139
#
# Static dielectric constant tensor:
#      x y z
#    x 1.767650 0.000000 0.010360 
#    y 0.000000 1.812820 0.000000 
#    z 0.010360 0.000000 1.806100 
# 
# From -- ./inp_files/231010.got.cif
#   From: 2010.05.17/outbox.cif.g08.bks.cpg/sg15_116_cif.got.tgz:231010.got - 2010.06.03 18:47:42.
