data_PCOD9275572
_publ_section_title
;
Structure prediction by ZEFSAII (Michael W. Deem and Ramdas Pophale) SiO2 
 PCOD9275572
Probable space group: C 2/C
;
_chemical_formula_sum "Si O2"
_cell_formula_units_Z 60
_cell_length_a 16.186640
_cell_length_b 16.780495
_cell_length_c 24.698962
_cell_angle_alpha 90.000000
_cell_angle_beta 151.060112
_cell_angle_gamma 90.000000
_cell_volume 3246.298045
_symmetry_space_group_name_H-M "C 2/C"
_symmetry_group_IT_number 15
_symmetry_cell_setting 'monoclinic'
loop_
_space_group_symop_operation_xyz
x,y,z
-x,y,1/2-z
-x,-y,-z
x,-y,1/2+z
1/2+x,1/2+y,z
1/2-x,1/2+y,1/2-z
1/2-x,1/2-y,-z
1/2+x,1/2-y,1/2+z
loop_
_atom_site_type_symbol
_atom_site_label
_atom_site_fract_x
_atom_site_fract_y
_atom_site_fract_z
Si Si1 0.199905 0.521658 0.850116
Si Si2 0.000000 0.735024 0.250000
Si Si3 0.250041 0.362085 0.818550
Si Si4 0.143996 0.981546 0.791475
Si Si5 0.404374 0.665767 0.920079
Si Si6 0.572333 0.559191 0.926609
Si Si7 0.344769 0.158591 0.356505
Si Si8 0.258500 0.871306 0.432243
O O1 0.231473 0.455212 0.822076
O O2 0.270893 0.605039 0.869852
O O3 0.000000 0.523289 0.750000
O O4 0.319299 0.492312 0.968359
O O5 0.908505 0.681344 0.242693
O O6 0.854920 0.793449 0.143817
O O7 0.249173 0.346888 0.754785
O O8 0.424877 0.331836 0.945629
O O9 0.279013 0.912877 0.856490
O O10 0.000000 0.949597 0.750000
O O11 0.213594 0.060337 0.862175
O O12 0.055797 0.009292 0.684890
O O13 0.469522 0.626571 0.900925
O O14 0.326806 0.752954 0.869398
O O15 0.704700 0.597498 0.960254
O O16 0.544192 0.147252 0.458856
#
# Coordination Sequence:
#
# PCOD9275572 Si02
#       8
#     8   4   8   8   8   8   8   8
#     4  11  22  40  60  86 120 159 203 241 291 355
#     4  12  20  38  62  92 124 142 186 254 300 346
#     4  11  23  40  60  92 122 150 196 247 303 365
#     4  10  22  42  61  84 120 161 201 245 292 354
#     4  11  24  38  59  87 124 157 194 251 290 352
#     4  10  20  39  63  85 117 159 189 245 316 345
#     4  12  24  37  62  90 117 162 203 238 298 351
#     4  11  22  38  62  92 122 150 192 253 300 354
#
# _framework density 18.482590999999999
#
# number of rings (size 3 to 8) (size 9 to 14) (size 15 to 20)
#    0.000    1.067    4.000    5.200    1.867    1.600 
#    0.000    2.667    0.000    5.600    0.000    0.000 
#    0.000    0.000    0.000    0.000    0.000    0.000 
#
# Total GULP energy -167700.375785 kJ/mol
# GULP energy per Si atom -5590.012526 kJ/mol
# Density = 1.844052 g / cm^3
# Si number density = 18.482591 Si / 1000 Ang^3
#
#
#
# Elastic Constant Matrix: (Units=GPa)
#
#
# Indices 1 2 3 4 5 6 
#
# 1 13.4003 5.8512 8.3271 0.0004 -6.0363 -0.0041
# 2 5.8512 83.7479 20.3636 0.0010 -3.1069 -0.0025
# 3 8.3271 20.3636 64.5990 0.0028 -3.2534 -0.0031
# 4 0.0004 0.0010 0.0028 19.0195 0.0010 9.6748
# 5 -6.0363 -3.1069 -3.2534 0.0010 17.1966 -0.0013
# 6 -0.0041 -0.0025 -0.0031 9.6748 -0.0013 45.6325
#
#
#
# Elastic Compliance Matrix: (Units=1/GPa)
#
#
# Indices 1 2 3 4 5 6 
#
# 1 0.096239 -0.003171 -0.009827 -0.000007 0.031349 0.000010
# 2 -0.003171 0.013079 -0.003686 0.000000 0.000552 0.000000
# 3 -0.009827 -0.003686 0.017872 -0.000003 -0.000734 0.000001
# 4 -0.000007 0.000000 -0.000003 0.058933 -0.000007 -0.012495
# 5 0.031349 0.000552 -0.000734 -0.000007 0.069116 0.000006
# 6 0.000010 0.000000 0.000001 -0.012495 0.000006 0.024563
#
#
# Mechanical properties :
#
#
# Convention : Reuss Voigt Hill
#
# Bulk Modulus (GPa) = 10.65871 25.64790 18.15330
# Shear Modulus (GPa) = 14.51612 24.85008 19.68310
#
# Velocity S-wave (km/s) = 2.80553 3.67074 3.26690
# Velocity P-wave (km/s) = 4.03411 5.64559 4.90646
#
# Compressibility (1/GPa) = 0.09382000
#
# Stress axis : x y z
#
# Youngs Moduli (GPa) = 10.39085 76.45846 55.95378
#
# Poissons Ratio (x) = 0.24248 0.54986
# Poissons Ratio (y) = 0.03295 0.20626
# Poissons Ratio (z) = 0.10211 0.28185
#
# Static dielectric constant tensor:
#      x y z
#    x 1.615850 0.000000 -0.001640 
#    y 0.000000 1.629190 0.000000 
#    z -0.001640 0.000000 1.636090 
# 
# From -- ./inp_files/244707.got.cif
#   From: 2010.05.17/outbox.cif.g08.bks.cpg/sg15_123_cif.got.tgz:244707.got - 2010.06.03 18:47:42.
