data_PCOD9275314
_publ_section_title
;
Structure prediction by ZEFSAII (Michael W. Deem and Ramdas Pophale) SiO2 
 PCOD9275314
Probable space group: C 2/C
;
_chemical_formula_sum "Si O2"
_cell_formula_units_Z 64
_cell_length_a 8.974602
_cell_length_b 11.306145
_cell_length_c 29.437977
_cell_angle_alpha 90.000000
_cell_angle_beta 85.751187
_cell_angle_gamma 90.000000
_cell_volume 2978.807952
_symmetry_space_group_name_H-M "C 2/C"
_symmetry_group_IT_number 15
_symmetry_cell_setting 'monoclinic'
loop_
_space_group_symop_operation_xyz
x,y,z
-x,y,1/2-z
-x,-y,-z
x,-y,1/2+z
1/2+x,1/2+y,z
1/2-x,1/2+y,1/2-z
1/2-x,1/2-y,-z
1/2+x,1/2-y,1/2+z
loop_
_atom_site_type_symbol
_atom_site_label
_atom_site_fract_x
_atom_site_fract_y
_atom_site_fract_z
Si Si1 0.024747 0.352245 0.106197
Si Si2 0.616287 0.387150 0.054673
Si Si3 0.451399 0.515707 0.139585
Si Si4 0.762835 0.728148 0.372862
Si Si5 0.035497 0.211167 0.801905
Si Si6 0.429592 0.751191 0.490199
Si Si7 0.897729 0.558027 0.059442
Si Si8 0.231085 0.187933 0.144105
O O1 0.161445 0.315932 0.133873
O O2 0.867838 0.325233 0.133739
O O3 0.016305 0.478994 0.083764
O O4 0.032594 0.261693 0.063268
O O5 0.504622 0.447138 0.093198
O O6 0.677257 0.269150 0.079021
O O7 0.523572 0.351199 0.012397
O O8 0.758184 0.474990 0.046741
O O9 0.315090 0.602105 0.131001
O O10 0.428071 0.419296 0.179303
O O11 0.592813 0.598236 0.150380
O O12 0.893517 0.745463 0.334118
O O13 0.169417 0.297897 0.813809
O O14 0.000000 0.210346 0.750000
O O15 0.250000 0.750000 0.500000
O O16 0.467777 0.870778 0.516515
O O17 0.830177 0.647112 0.098777
#
# Coordination Sequence:
#
# PCOD9275314 Si02
#       8
#     8   8   8   8   8   8   8   8
#     4  10  22  40  60  87 121 163 207 246 295 349
#     4   9  21  39  58  86 124 159 205 253 284 343
#     4   9  20  41  66  88 117 163 197 237 304 360
#     4   9  20  41  63  88 118 158 201 240 298 359
#     4  11  24  41  65  95 120 147 192 247 304 370
#     4  12  23  37  54  89 127 158 210 255 287 335
#     4  10  20  39  60  84 119 164 205 249 291 342
#     4  10  21  42  62  88 124 154 196 251 292 359
#
# _framework density 21.485104
#
# number of rings (size 3 to 8) (size 9 to 14) (size 15 to 20)
#    0.000    2.000    1.250    2.625    0.000    5.500 
#    2.250    1.875    0.000    0.000    0.000    0.000 
#    0.000    0.000    0.000    0.000    0.000    0.000 
#
# Total GULP energy -178927.801555 kJ/mol
# GULP energy per Si atom -5591.493799 kJ/mol
# Density = 2.143620 g / cm^3
# Si number density = 21.485104 Si / 1000 Ang^3
#
#
#
# Elastic Constant Matrix: (Units=GPa)
#
#
# Indices 1 2 3 4 5 6 
#
# 1 77.2588 40.2017 40.9759 0.0000 17.3370 0.0000
# 2 40.2017 73.7605 9.1059 0.0000 16.0349 0.0000
# 3 40.9759 9.1059 58.9446 0.0000 25.3141 0.0000
# 4 0.0000 0.0000 0.0000 16.9585 0.0000 5.2604
# 5 17.3370 16.0349 25.3141 0.0000 21.8703 0.0000
# 6 0.0000 0.0000 0.0000 5.2604 0.0000 34.9293
#
#
#
# Elastic Compliance Matrix: (Units=1/GPa)
#
#
# Indices 1 2 3 4 5 6 
#
# 1 0.034497 -0.019976 -0.030702 0.000000 0.022836 0.000000
# 2 -0.019976 0.028520 0.023185 0.000000 -0.031910 0.000000
# 3 -0.030702 0.023185 0.062782 0.000000 -0.065328 0.000000
# 4 0.000000 0.000000 0.000000 0.061857 0.000000 -0.009316
# 5 0.022836 -0.031910 -0.065328 0.000000 0.126632 0.000000
# 6 0.000000 0.000000 0.000000 -0.009316 0.000000 0.030032
#
#
# Mechanical properties :
#
#
# Convention : Reuss Voigt Hill
#
# Bulk Modulus (GPa) = 14.12192 43.39233 28.75713
# Shear Modulus (GPa) = 11.82278 22.73030 17.27654
#
# Velocity S-wave (km/s) = 2.34835 3.25615 2.83877
# Velocity P-wave (km/s) = 3.73365 5.86319 4.91514
#
# Compressibility (1/GPa) = 0.07081188
#
# Stress axis : x y z
#
# Youngs Moduli (GPa) = 28.98776 35.06327 15.92814
#
# Poissons Ratio (x) = 0.70043 0.48903
# Poissons Ratio (y) = 0.57907 -0.36929
# Poissons Ratio (z) = 0.88999 -0.81294
#
# Static dielectric constant tensor:
#      x y z
#    x 1.824360 0.000000 0.020880 
#    y 0.000000 1.853840 0.000000 
#    z 0.020880 0.000000 1.708050 
# 
# From -- ./inp_files/307496.got.cif
#   From: 2010.05.17/outbox.cif.g08.bks.cpg/sg15_154_cif.got.tgz:307496.got - 2010.06.03 18:47:42.
