data_PCOD9275618
_publ_section_title
;
Structure prediction by ZEFSAII (Michael W. Deem and Ramdas Pophale) SiO2 
 PCOD9275618
Probable space group: C 2/C
;
_chemical_formula_sum "Si O2"
_cell_formula_units_Z 64
_cell_length_a 11.795256
_cell_length_b 25.682170
_cell_length_c 11.088686
_cell_angle_alpha 90.000000
_cell_angle_beta 68.969099
_cell_angle_gamma 90.000000
_cell_volume 3135.313176
_symmetry_space_group_name_H-M "C 2/C"
_symmetry_group_IT_number 15
_symmetry_cell_setting 'monoclinic'
loop_
_space_group_symop_operation_xyz
x,y,z
-x,y,1/2-z
-x,-y,-z
x,-y,1/2+z
1/2+x,1/2+y,z
1/2-x,1/2+y,1/2-z
1/2-x,1/2-y,-z
1/2+x,1/2-y,1/2+z
loop_
_atom_site_type_symbol
_atom_site_label
_atom_site_fract_x
_atom_site_fract_y
_atom_site_fract_z
Si Si1 0.190087 0.661384 0.207527
Si Si2 0.044382 0.211124 0.370823
Si Si3 0.936079 0.897523 0.958666
Si Si4 0.897522 0.511365 0.389060
Si Si5 0.940749 0.581736 0.587094
Si Si6 0.285230 0.459666 0.193951
Si Si7 0.532262 0.186807 0.038251
Si Si8 0.181336 0.067283 0.236184
O O1 0.318704 0.688790 0.182296
O O2 0.141894 0.673222 0.090450
O O3 0.212847 0.600813 0.238270
O O4 0.087795 0.684285 0.334343
O O5 0.042603 0.260020 0.460723
O O6 0.000000 0.221610 0.250000
O O7 0.962158 0.163869 0.454207
O O8 0.841062 0.907823 0.886569
O O9 0.060601 0.923063 0.862171
O O10 0.889994 0.924356 0.098695
O O11 0.892428 0.558843 0.480512
O O12 0.766686 0.497171 0.390129
O O13 0.000000 0.523033 0.250000
O O14 0.950212 0.458039 0.426835
O O15 0.830787 0.574119 0.721991
O O16 0.976760 0.640503 0.555362
O O17 0.308310 0.504890 0.283056
#
# Coordination Sequence:
#
# PCOD9275618 Si02
#       8
#     8   8   8   8   8   8   8   8
#     4  10  23  43  66  92 124 168 216 268 323 388
#     4  11  23  46  66  91 125 173 216 275 322 380
#     4  10  21  40  62  88 124 165 224 261 319 380
#     4   9  20  34  54  80 127 167 199 251 323 383
#     4  10  22  35  51  91 126 159 206 258 314 389
#     4  11  21  33  60  91 125 164 201 272 318 373
#     4  11  25  39  67  95 124 169 222 267 323 382
#     4  10  20  39  63  89 124 168 216 257 322 400
#
# _framework density 20.412634000000001
#
# number of rings (size 3 to 8) (size 9 to 14) (size 15 to 20)
#    0.000    1.750    2.500    2.250    8.750    3.000 
#    0.000    1.250    0.000    0.000    0.000    0.000 
#    0.000    0.000    0.000    0.000    0.000    0.000 
#
# Total GULP energy -178586.050399 kJ/mol
# GULP energy per Si atom -5580.814075 kJ/mol
# Density = 2.036617 g / cm^3
# Si number density = 20.412634 Si / 1000 Ang^3
#
#
#
# Elastic Constant Matrix: (Units=GPa)
#
#
# Indices 1 2 3 4 5 6 
#
# 1 73.1094 29.4097 17.3819 0.0000 9.1959 0.0000
# 2 29.4097 140.6150 49.0265 0.0000 -0.6765 0.0000
# 3 17.3819 49.0265 51.8358 0.0000 6.0444 0.0000
# 4 0.0000 0.0000 0.0000 27.7267 0.0000 -3.8661
# 5 9.1959 -0.6765 6.0444 0.0000 20.3224 0.0000
# 6 0.0000 0.0000 0.0000 -3.8661 0.0000 21.5883
#
#
#
# Elastic Compliance Matrix: (Units=1/GPa)
#
#
# Indices 1 2 3 4 5 6 
#
# 1 0.016098 -0.002674 -0.002082 0.000000 -0.006754 0.000000
# 2 -0.002674 0.011294 -0.010329 0.000000 0.004658 0.000000
# 3 -0.002082 -0.010329 0.030756 0.000000 -0.008549 0.000000
# 4 0.000000 0.000000 0.000000 0.036990 0.000000 0.006624
# 5 -0.006754 0.004658 -0.008549 0.000000 0.054961 0.000000
# 6 0.000000 0.000000 0.000000 0.006624 0.000000 0.047508
#
#
# Mechanical properties :
#
#
# Convention : Reuss Voigt Hill
#
# Bulk Modulus (GPa) = 35.74022 50.79959 43.26990
# Shear Modulus (GPa) = 21.08793 25.24363 23.16578
#
# Velocity S-wave (km/s) = 3.21765 3.52044 3.37244
# Velocity P-wave (km/s) = 5.59922 6.43934 6.03392
#
# Compressibility (1/GPa) = 0.02797968
#
# Stress axis : x y z
#
# Youngs Moduli (GPa) = 62.11890 88.53877 32.51411
#
# Poissons Ratio (x) = 0.23672 0.06769
# Poissons Ratio (y) = 0.16608 0.33584
# Poissons Ratio (z) = 0.12932 0.91452
#
# Static dielectric constant tensor:
#      x y z
#    x 1.776510 0.000000 0.061070 
#    y 0.000000 1.748920 0.000000 
#    z 0.061070 0.000000 1.756710 
# 
# From -- ./inp_files/91237.got.cif
#   From: 2010.05.17/outbox.cif.g08.bks.cpg/sg15_46_cif.got.tgz:91237.got - 2010.06.03 18:47:42.
