data_PCOD9275660
_publ_section_title
;
Structure prediction by ZEFSAII (Michael W. Deem and Ramdas Pophale) SiO2 
 PCOD9275660
Probable space group: C 2/C
;
_chemical_formula_sum "Si O2"
_cell_formula_units_Z 60
_cell_length_a 21.650499
_cell_length_b 14.088230
_cell_length_c 22.090288
_cell_angle_alpha 90.000000
_cell_angle_beta 156.954909
_cell_angle_gamma 90.000000
_cell_volume 2637.594604
_symmetry_space_group_name_H-M "C 2/C"
_symmetry_group_IT_number 15
_symmetry_cell_setting 'monoclinic'
loop_
_space_group_symop_operation_xyz
x,y,z
-x,y,1/2-z
-x,-y,-z
x,-y,1/2+z
1/2+x,1/2+y,z
1/2-x,1/2+y,1/2-z
1/2-x,1/2-y,-z
1/2+x,1/2-y,1/2+z
loop_
_atom_site_type_symbol
_atom_site_label
_atom_site_fract_x
_atom_site_fract_y
_atom_site_fract_z
Si Si1 0.472232 0.220432 0.500843
Si Si2 0.156481 0.875018 0.383156
Si Si3 0.719587 0.176981 0.055938
Si Si4 0.215035 0.516812 0.602601
Si Si5 0.000000 0.299610 0.250000
Si Si6 0.631682 0.166326 0.321011
Si Si7 0.866373 0.432294 0.807178
Si Si8 0.304632 0.610716 0.801931
O O1 0.387648 0.226888 0.489736
O O2 0.381788 0.146468 0.374070
O O3 0.452023 0.325104 0.454026
O O4 0.649506 0.179626 0.666661
O O5 0.284837 0.926060 0.459341
O O6 0.210913 0.850630 0.499001
O O7 0.115243 0.780195 0.307971
O O8 0.000000 0.936493 0.250000
O O9 0.864734 0.237485 0.161346
O O10 0.781937 0.084918 0.146897
O O11 0.601132 0.148659 0.893807
O O12 0.311044 0.574160 0.739032
O O13 0.034298 0.512076 0.460822
O O14 0.500000 0.130519 0.250000
O O15 0.640221 0.121120 0.263028
O O16 0.735298 0.513867 0.697605
#
# Coordination Sequence:
#
# PCOD9275660 Si02
#       8
#     8   8   8   8   4   8   8   8
#     4  11  22  43  69  93 136 169 214 273 322 387
#     4  10  22  38  60  93 130 168 207 273 326 382
#     4  11  22  44  66  94 129 171 220 271 323 380
#     4  11  21  40  65  93 128 166 216 264 322 389
#     4  10  26  42  68  94 128 178 220 268 330 382
#     4  10  20  39  63  92 129 170 219 261 319 398
#     4  11  21  41  67  98 122 178 222 259 320 399
#     4  11  23  43  69  97 126 174 215 269 326 387
#
# _framework density 22.747999
#
# number of rings (size 3 to 8) (size 9 to 14) (size 15 to 20)
#    0.000    1.333    4.000    2.400    0.933    1.067 
#    4.800    2.000    0.000    0.000    0.000    0.000 
#    0.000    0.000    0.000    0.000    0.000    0.000 
#
# Total GULP energy -167458.220608 kJ/mol
# GULP energy per Si atom -5581.940687 kJ/mol
# Density = 2.269622 g / cm^3
# Si number density = 22.747999 Si / 1000 Ang^3
#
#
#
# Elastic Constant Matrix: (Units=GPa)
#
#
# Indices 1 2 3 4 5 6 
#
# 1 92.9305 16.4556 14.3142 -0.0022 -18.5898 -0.0037
# 2 16.4556 51.3653 -4.9044 0.0015 -3.8060 0.0011
# 3 14.3142 -4.9044 46.2684 0.0032 -3.7665 0.0109
# 4 -0.0022 0.0015 0.0032 23.6278 0.0010 -2.2820
# 5 -18.5898 -3.8060 -3.7665 0.0010 30.5905 0.0035
# 6 -0.0037 0.0011 0.0109 -2.2820 0.0035 23.2289
#
#
#
# Elastic Compliance Matrix: (Units=1/GPa)
#
#
# Indices 1 2 3 4 5 6 
#
# 1 0.013575 -0.004201 -0.004057 0.000002 0.007228 0.000003
# 2 -0.004201 0.021196 0.003589 -0.000003 0.000526 -0.000004
# 3 -0.004057 0.003589 0.023318 -0.000005 0.000852 -0.000012
# 4 0.000002 -0.000003 -0.000005 0.042729 -0.000002 0.004198
# 5 0.007228 0.000526 0.000852 -0.000002 0.037252 -0.000005
# 6 0.000003 -0.000004 -0.000012 0.004198 -0.000005 0.043462
#
#
# Mechanical properties :
#
#
# Convention : Reuss Voigt Hill
#
# Bulk Modulus (GPa) = 20.51186 26.92168 23.71677
# Shear Modulus (GPa) = 24.14062 26.46934 25.30498
#
# Velocity S-wave (km/s) = 3.26117 3.41484 3.33889
# Velocity P-wave (km/s) = 4.81839 5.23533 5.03118
#
# Compressibility (1/GPa) = 0.04875229
#
# Stress axis : x y z
#
# Youngs Moduli (GPa) = 73.66354 47.17895 42.88549
#
# Poissons Ratio (x) = 0.19819 0.17398
# Poissons Ratio (y) = 0.30945 -0.15392
# Poissons Ratio (z) = 0.29883 -0.16933
#
# Static dielectric constant tensor:
#      x y z
#    x 1.875490 0.000000 0.040970 
#    y 0.000000 1.873430 0.000000 
#    z 0.040970 0.000000 1.891300 
# 
# From -- ./inp_files/253062.got.cif
#   From: 2010.05.17/outbox.cif.g08.bks.cpg/sg15_127_cif.got.tgz:253062.got - 2010.06.03 18:47:42.
