data_PCOD9275932
_publ_section_title
;
Structure prediction by ZEFSAII (Michael W. Deem and Ramdas Pophale) SiO2 
 PCOD9275932
Probable space group: C 2/C
;
_chemical_formula_sum "Si O2"
_cell_formula_units_Z 64
_cell_length_a 18.607396
_cell_length_b 28.549735
_cell_length_c 8.000034
_cell_angle_alpha 90.000000
_cell_angle_beta 37.797357
_cell_angle_gamma 90.000000
_cell_volume 2604.643597
_symmetry_space_group_name_H-M "C 2/C"
_symmetry_group_IT_number 15
_symmetry_cell_setting 'monoclinic'
loop_
_space_group_symop_operation_xyz
x,y,z
-x,y,1/2-z
-x,-y,-z
x,-y,1/2+z
1/2+x,1/2+y,z
1/2-x,1/2+y,1/2-z
1/2-x,1/2-y,-z
1/2+x,1/2-y,1/2+z
loop_
_atom_site_type_symbol
_atom_site_label
_atom_site_fract_x
_atom_site_fract_y
_atom_site_fract_z
Si Si1 0.893347 0.324324 0.581352
Si Si2 0.881047 0.141379 0.574175
Si Si3 0.479394 0.267408 0.981190
Si Si4 0.718142 0.014403 0.019076
Si Si5 0.784988 0.424327 0.306451
Si Si6 0.467492 0.922735 0.503740
Si Si7 0.120124 0.918934 0.086229
Si Si8 0.366133 0.320670 0.576931
O O1 0.937303 0.283012 0.624507
O O2 0.765663 0.308813 0.744426
O O3 0.882388 0.377066 0.674431
O O4 0.000000 0.332377 0.250000
O O5 0.876994 0.193272 0.662013
O O6 0.784783 0.121301 0.624932
O O7 0.893488 0.109119 0.713703
O O8 0.000000 0.139858 0.250000
O O9 0.500000 0.257007 0.750000
O O10 0.600542 0.290170 0.823164
O O11 0.590615 0.031499 0.311550
O O12 0.744565 0.959273 0.984102
O O13 0.730648 0.040100 0.819873
O O14 0.794229 0.040750 0.018235
O O15 0.917091 0.410379 0.104408
O O16 0.500000 0.931370 0.250000
O O17 0.000000 0.941887 0.250000
O O18 0.142618 0.877215 0.911327
O O19 0.500000 0.312000 0.250000
#
# Coordination Sequence:
#
# PCOD9275932 Si02
#       8
#     8   8   8   8   8   8   8   8
#     4  10  24  41  67 102 134 176 235 274 336 408
#     4  10  22  40  64  93 130 169 219 272 332 403
#     4  10  22  40  66  97 135 177 222 280 339 403
#     4  11  23  43  63  92 129 171 217 278 337 409
#     4  11  25  41  65  95 130 169 221 276 344 398
#     4  11  23  41  65  92 128 174 222 274 335 408
#     4  10  20  39  66  87 124 174 215 266 338 396
#     4  11  21  42  66  93 131 178 221 273 346 395
#
# _framework density 24.571498999999999
#
# number of rings (size 3 to 8) (size 9 to 14) (size 15 to 20)
#    0.000    1.500    3.750    1.500    0.000   10.000 
#    0.000    3.750    0.000    0.000    0.000    0.000 
#    0.000    0.000    0.000    0.000    0.000    0.000 
#
# Total GULP energy -178324.317514 kJ/mol
# GULP energy per Si atom -5572.634922 kJ/mol
# Density = 2.451557 g / cm^3
# Si number density = 24.571499 Si / 1000 Ang^3
#
#
#
# Elastic Constant Matrix: (Units=GPa)
#
#
# Indices 1 2 3 4 5 6 
#
# 1 100.3357 -1.9614 7.1515 0.0000 -34.1706 0.0000
# 2 -1.9614 80.5878 6.8388 0.0000 -11.2908 0.0000
# 3 7.1515 6.8388 48.2447 0.0000 -12.8121 0.0000
# 4 0.0000 0.0000 0.0000 16.7425 0.0000 -1.2979
# 5 -34.1706 -11.2908 -12.8121 0.0000 48.1254 0.0000
# 6 0.0000 0.0000 0.0000 -1.2979 0.0000 23.4215
#
#
#
# Elastic Compliance Matrix: (Units=1/GPa)
#
#
# Indices 1 2 3 4 5 6 
#
# 1 0.013378 0.001691 0.000436 0.000000 0.010012 0.000000
# 2 0.001691 0.013099 -0.001046 0.000000 0.003995 0.000000
# 3 0.000436 -0.001046 0.022413 0.000000 0.006031 0.000000
# 4 0.000000 0.000000 0.000000 0.059986 0.000000 0.003324
# 5 0.010012 0.003995 0.006031 0.000000 0.030431 0.000000
# 6 0.000000 0.000000 0.000000 0.003324 0.000000 0.042880
#
#
# Mechanical properties :
#
#
# Convention : Reuss Voigt Hill
#
# Bulk Modulus (GPa) = 19.58812 28.13623 23.86217
# Shear Modulus (GPa) = 25.37532 32.13382 28.75457
#
# Velocity S-wave (km/s) = 3.21707 3.62023 3.42459
# Velocity P-wave (km/s) = 4.66783 5.38056 5.03681
#
# Compressibility (1/GPa) = 0.05105135
#
# Stress axis : x y z
#
# Youngs Moduli (GPa) = 74.74848 76.34416 44.61708
#
# Poissons Ratio (x) = -0.12912 -0.01945
# Poissons Ratio (y) = -0.12642 0.04669
# Poissons Ratio (z) = -0.03258 0.07989
#
# Static dielectric constant tensor:
#      x y z
#    x 2.027490 0.000000 0.081530 
#    y 0.000000 2.017600 0.000000 
#    z 0.081530 0.000000 2.119060 
# 
# From -- ./inp_files/52820.got.cif
#   From: 2010.05.17/outbox.cif.g08.bks.cpg/sg15_27_cif.got.tgz:52820.got - 2010.06.03 18:47:42.
