data_PCOD9275404
_publ_section_title
;
Structure prediction by ZEFSAII (Michael W. Deem and Ramdas Pophale) SiO2 
 PCOD9275404
Probable space group: C 2/C
;
_chemical_formula_sum "Si O2"
_cell_formula_units_Z 60
_cell_length_a 15.513874
_cell_length_b 10.766829
_cell_length_c 24.206158
_cell_angle_alpha 90.000000
_cell_angle_beta 136.185874
_cell_angle_gamma 90.000000
_cell_volume 2799.248839
_symmetry_space_group_name_H-M "C 2/C"
_symmetry_group_IT_number 15
_symmetry_cell_setting 'monoclinic'
loop_
_space_group_symop_operation_xyz
x,y,z
-x,y,1/2-z
-x,-y,-z
x,-y,1/2+z
1/2+x,1/2+y,z
1/2-x,1/2+y,1/2-z
1/2-x,1/2-y,-z
1/2+x,1/2-y,1/2+z
loop_
_atom_site_type_symbol
_atom_site_label
_atom_site_fract_x
_atom_site_fract_y
_atom_site_fract_z
Si Si1 0.349605 0.219256 0.289752
Si Si2 0.940255 0.905268 0.929235
Si Si3 0.386320 0.047903 0.514322
Si Si4 0.191045 0.123640 0.495740
Si Si5 0.023467 0.695413 0.040451
Si Si6 0.628384 0.917014 0.196951
Si Si7 0.693798 0.025109 0.840645
Si Si8 0.000000 0.674202 0.250000
O O1 0.416515 0.259968 0.378284
O O2 0.229051 0.310028 0.226828
O O3 0.433981 0.234851 0.273231
O O4 0.340264 0.067000 0.297242
O O5 0.804787 0.958222 0.857717
O O6 0.042554 0.887949 0.929017
O O7 0.936879 0.781449 0.963349
O O8 0.000000 0.000000 0.000000
O O9 0.258113 0.027148 0.486616
O O10 0.377074 0.137931 0.456930
O O11 0.496071 0.099702 0.605332
O O12 0.439627 0.918149 0.519860
O O13 0.250000 0.250000 0.500000
O O14 0.244415 0.101059 0.581772
O O15 0.618479 0.902850 0.258728
O O16 0.606711 0.916612 0.823693
#
# Coordination Sequence:
#
# PCOD9275404 Si02
#       8
#     8   8   8   8   8   8   8   4
#     4  10  21  40  65  91 124 165 208 255 306 371
#     4  10  21  36  60  87 123 158 196 254 313 356
#     4  10  22  37  62  91 120 163 210 246 305 371
#     4  11  20  34  58  90 123 151 203 262 295 358
#     4  10  20  39  61  87 123 165 200 244 311 375
#     4  10  22  38  67  87 122 170 208 250 310 374
#     4  10  21  39  60  88 121 161 211 247 311 367
#     4  10  22  40  66  88 116 162 212 250 288 386
#
# _framework density 21.434322999999999
#
# number of rings (size 3 to 8) (size 9 to 14) (size 15 to 20)
#    0.000    1.867    1.333    4.000    3.733    0.000 
#    0.000    7.333    0.000    4.800    0.000    0.000 
#    0.000    0.000    0.000    0.000    0.000    0.000 
#
# Total GULP energy -167103.420895 kJ/mol
# GULP energy per Si atom -5570.114030 kJ/mol
# Density = 2.138554 g / cm^3
# Si number density = 21.434323 Si / 1000 Ang^3
#
#
#
# Elastic Constant Matrix: (Units=GPa)
#
#
# Indices 1 2 3 4 5 6 
#
# 1 157.7623 37.7525 39.6431 0.0000 -0.2186 0.0000
# 2 37.7525 52.9686 2.9271 0.0000 -4.5377 0.0000
# 3 39.6431 2.9271 69.5577 0.0000 -12.1863 0.0000
# 4 0.0000 0.0000 0.0000 20.9220 0.0000 3.3208
# 5 -0.2186 -4.5377 -12.1863 0.0000 25.5765 0.0000
# 6 0.0000 0.0000 0.0000 3.3208 0.0000 33.9548
#
#
#
# Elastic Compliance Matrix: (Units=1/GPa)
#
#
# Indices 1 2 3 4 5 6 
#
# 1 0.009377 -0.006695 -0.005735 0.000000 -0.003840 0.000000
# 2 -0.006695 0.023954 0.003865 0.000000 0.006034 0.000000
# 3 -0.005735 0.003865 0.019196 0.000000 0.009783 0.000000
# 4 0.000000 0.000000 0.000000 0.048550 0.000000 -0.004748
# 5 -0.003840 0.006034 0.009783 0.000000 0.044798 0.000000
# 6 0.000000 0.000000 0.000000 -0.004748 0.000000 0.029915
#
#
# Mechanical properties :
#
#
# Convention : Reuss Voigt Hill
#
# Bulk Modulus (GPa) = 28.25115 48.99266 38.62190
# Shear Modulus (GPa) = 24.42363 29.42172 26.92268
#
# Velocity S-wave (km/s) = 3.37926 3.70894 3.54793
# Velocity P-wave (km/s) = 5.33243 6.42249 5.90268
#
# Compressibility (1/GPa) = 0.03539679
#
# Stress axis : x y z
#
# Youngs Moduli (GPa) = 106.64866 41.74625 52.09284
#
# Poissons Ratio (x) = 0.27949 0.29876
# Poissons Ratio (y) = 0.71402 -0.20133
# Poissons Ratio (z) = 0.61164 -0.16134
#
# Static dielectric constant tensor:
#      x y z
#    x 1.865200 0.000000 0.015650 
#    y 0.000000 1.945550 0.000000 
#    z 0.015650 0.000000 1.802400 
# 
# From -- ./inp_files/273863.got.cif
#   From: 2010.05.17/outbox.cif.g08.bks.cpg/sg15_137_cif.got.tgz:273863.got - 2010.06.03 18:47:42.
