data_PCOD9275674
_publ_section_title
;
Structure prediction by ZEFSAII (Michael W. Deem and Ramdas Pophale) SiO2 
 PCOD9275674
Probable space group: C 2/C
;
_chemical_formula_sum "Si O2"
_cell_formula_units_Z 36
_cell_length_a 8.423341
_cell_length_b 24.043335
_cell_length_c 14.163881
_cell_angle_alpha 90.000000
_cell_angle_beta 145.388724
_cell_angle_gamma 90.000000
_cell_volume 1629.348842
_symmetry_space_group_name_H-M "C 2/C"
_symmetry_group_IT_number 15
_symmetry_cell_setting 'monoclinic'
loop_
_space_group_symop_operation_xyz
x,y,z
-x,y,1/2-z
-x,-y,-z
x,-y,1/2+z
1/2+x,1/2+y,z
1/2-x,1/2+y,1/2-z
1/2-x,1/2-y,-z
1/2+x,1/2-y,1/2+z
loop_
_atom_site_type_symbol
_atom_site_label
_atom_site_fract_x
_atom_site_fract_y
_atom_site_fract_z
Si Si1 0.000000 0.941277 0.750000
Si Si2 0.043245 0.359519 0.618006
Si Si3 0.442547 0.348567 0.984285
Si Si4 0.695559 0.764783 0.580485
Si Si5 0.783509 0.960578 0.444501
O O1 0.744436 0.906913 0.674170
O O2 0.836805 0.969972 0.582429
O O3 0.230845 0.333626 0.794856
O O4 0.990604 0.313440 0.511982
O O5 0.751087 0.372935 0.526554
O O6 0.608804 0.292315 0.089598
O O7 0.643304 0.396227 0.042448
O O8 0.750000 0.750000 0.500000
O O9 0.000000 0.789124 0.750000
O O10 0.500000 0.973010 0.250000
O O11 0.000000 0.000000 0.500000
#
# Coordination Sequence:
#
# PCOD9275674 Si02
#       5
#     4   8   8   8   8
#     4  10  22  46  72  94 140 174 220 280 348 400
#     4  10  20  39  63  93 129 182 207 266 340 395
#     4  10  22  39  63  93 134 168 226 270 321 404
#     4  12  20  36  59  89 129 168 214 255 320 393
#     4  11  26  47  72 102 132 177 228 281 343 401
#
# _framework density 22.094716999999999
#
# number of rings (size 3 to 8) (size 9 to 14) (size 15 to 20)
#    0.000    1.333    3.333    2.667    6.222    0.889 
#    0.000    2.222    0.000    0.000    0.000    0.000 
#    0.000    0.000    0.000    0.000    0.000    0.000 
#
# Total GULP energy -100273.367385 kJ/mol
# GULP energy per Si atom -5570.742632 kJ/mol
# Density = 2.204443 g / cm^3
# Si number density = 22.094717 Si / 1000 Ang^3
#
#
#
# Elastic Constant Matrix: (Units=GPa)
#
#
# Indices 1 2 3 4 5 6 
#
# 1 128.9673 -2.1462 48.4992 0.0000 -16.4032 0.0000
# 2 -2.1462 20.8150 15.5279 0.0000 -4.1129 0.0000
# 3 48.4992 15.5279 101.2368 0.0000 -8.1744 0.0000
# 4 0.0000 0.0000 0.0000 3.4116 0.0000 1.0848
# 5 -16.4032 -4.1129 -8.1744 0.0000 38.1458 0.0000
# 6 0.0000 0.0000 0.0000 1.0848 0.0000 38.4158
#
#
#
# Elastic Compliance Matrix: (Units=1/GPa)
#
#
# Indices 1 2 3 4 5 6 
#
# 1 0.010474 0.006059 -0.005628 0.000000 0.003951 0.000000
# 2 0.006059 0.058404 -0.011338 0.000000 0.006473 0.000000
# 3 -0.005628 -0.011338 0.014266 0.000000 -0.000586 0.000000
# 4 0.000000 0.000000 0.000000 0.295770 0.000000 -0.008352
# 5 0.003951 0.006473 -0.000586 0.000000 0.028487 0.000000
# 6 0.000000 0.000000 0.000000 -0.008352 0.000000 0.026267
#
#
# Mechanical properties :
#
#
# Convention : Reuss Voigt Hill
#
# Bulk Modulus (GPa) = 16.30531 41.64232 28.97381
# Shear Modulus (GPa) = 10.50587 28.60387 19.55487
#
# Velocity S-wave (km/s) = 2.18294 3.60196 2.97820
# Velocity P-wave (km/s) = 3.70802 6.01556 4.99682
#
# Compressibility (1/GPa) = 0.06132970
#
# Stress axis : x y z
#
# Youngs Moduli (GPa) = 95.47730 17.12200 70.09774
#
# Poissons Ratio (x) = -0.10374 0.39450
# Poissons Ratio (y) = -0.57850 0.79479
# Poissons Ratio (z) = 0.53734 0.19413
#
# Static dielectric constant tensor:
#      x y z
#    x 1.873480 0.000000 -0.035490 
#    y 0.000000 1.848160 0.000000 
#    z -0.035490 0.000000 1.847720 
# 
# From -- ./inp_files/23179.got.cif
#   From: 2010.05.17/outbox.cif.g08.bks.cpg/sg15_12_cif.got.tgz:23179.got - 2010.06.03 18:47:42.
