data_PCOD9275364
_publ_section_title
;
Structure prediction by ZEFSAII (Michael W. Deem and Ramdas Pophale) SiO2 
 PCOD9275364
Probable space group: C 2/C
;
_chemical_formula_sum "Si O2"
_cell_formula_units_Z 44
_cell_length_a 22.764485
_cell_length_b 11.106019
_cell_length_c 17.711856
_cell_angle_alpha 90.000000
_cell_angle_beta 154.015634
_cell_angle_gamma 90.000000
_cell_volume 1961.910644
_symmetry_space_group_name_H-M "C 2/C"
_symmetry_group_IT_number 15
_symmetry_cell_setting 'monoclinic'
loop_
_space_group_symop_operation_xyz
x,y,z
-x,y,1/2-z
-x,-y,-z
x,-y,1/2+z
1/2+x,1/2+y,z
1/2-x,1/2+y,1/2-z
1/2-x,1/2-y,-z
1/2+x,1/2-y,1/2+z
loop_
_atom_site_type_symbol
_atom_site_label
_atom_site_fract_x
_atom_site_fract_y
_atom_site_fract_z
Si Si1 0.478642 0.638068 0.375364
Si Si2 0.306947 0.784194 0.950198
Si Si3 0.498173 0.614838 0.573947
Si Si4 0.000000 0.454234 0.250000
Si Si5 0.803629 0.454162 0.800495
Si Si6 0.492264 0.882355 0.594309
O O1 0.596883 0.670906 0.454454
O O2 0.525326 0.643674 0.517039
O O3 0.422002 0.500886 0.303348
O O4 0.351780 0.727615 0.220936
O O5 0.373422 0.866863 0.090805
O O6 0.322747 0.859178 0.890341
O O7 0.347435 0.563049 0.400119
O O8 0.505173 0.740802 0.624029
O O9 0.989464 0.538867 0.310434
O O10 0.898464 0.422555 0.840638
O O11 0.850872 0.581391 0.890791
#
# Coordination Sequence:
#
# PCOD9275364 Si02
#       6
#     8   8   8   4   8   8
#     4  10  22  37  65  95 127 160 211 265 320 361
#     4  10  21  41  61  93 126 168 207 261 305 386
#     4  10  21  36  63  98 121 155 212 276 307 368
#     4  10  24  40  60  88 132 172 212 244 318 382
#     4   9  20  34  64  89 122 161 213 254 326 353
#     4  10  20  39  60  91 124 169 207 260 312 380
#
# _framework density 22.427116000000002
#
# number of rings (size 3 to 8) (size 9 to 14) (size 15 to 20)
#    0.000    2.182    1.818    0.000    5.091    3.636 
#    0.000    4.545    0.000    0.000    0.000    0.000 
#    0.000    0.000    0.000    0.000    0.000    0.000 
#
# Total GULP energy -122896.506459 kJ/mol
# GULP energy per Si atom -5586.204839 kJ/mol
# Density = 2.237607 g / cm^3
# Si number density = 22.427116 Si / 1000 Ang^3
#
#
#
# Elastic Constant Matrix: (Units=GPa)
#
#
# Indices 1 2 3 4 5 6 
#
# 1 76.1194 35.0407 35.9762 0.0000 0.1886 0.0000
# 2 35.0407 119.6942 13.6183 0.0000 -10.3265 0.0000
# 3 35.9762 13.6183 69.2064 0.0000 8.3732 0.0000
# 4 0.0000 0.0000 0.0000 23.2596 0.0000 -3.3288
# 5 0.1886 -10.3265 8.3732 0.0000 26.0061 0.0000
# 6 0.0000 0.0000 0.0000 -3.3288 0.0000 31.3948
#
#
#
# Elastic Compliance Matrix: (Units=1/GPa)
#
#
# Indices 1 2 3 4 5 6 
#
# 1 0.019738 -0.004606 -0.009485 0.000000 0.001082 0.000000
# 2 -0.004606 0.010061 -0.000076 0.000000 0.004053 0.000000
# 3 -0.009485 -0.000076 0.020176 0.000000 -0.006458 0.000000
# 4 0.000000 0.000000 0.000000 0.043655 0.000000 0.004629
# 5 0.001082 0.004053 -0.006458 0.000000 0.042133 0.000000
# 6 0.000000 0.000000 0.000000 0.004629 0.000000 0.032343
#
#
# Mechanical properties :
#
#
# Convention : Reuss Voigt Hill
#
# Bulk Modulus (GPa) = 46.20648 48.25449 47.23048
# Shear Modulus (GPa) = 24.55138 28.15776 26.35457
#
# Velocity S-wave (km/s) = 3.31224 3.54718 3.43172
# Velocity P-wave (km/s) = 5.93933 6.19189 6.06692
#
# Compressibility (1/GPa) = 0.02164199
#
# Stress axis : x y z
#
# Youngs Moduli (GPa) = 50.66466 99.39101 49.56280
#
# Poissons Ratio (x) = 0.45777 0.47010
# Poissons Ratio (y) = 0.23335 0.00377
# Poissons Ratio (z) = 0.48055 0.00755
#
# Static dielectric constant tensor:
#      x y z
#    x 1.812270 0.000000 0.038970 
#    y 0.000000 1.924810 0.000000 
#    z 0.038970 0.000000 1.883110 
# 
# From -- ./inp_files/219204.got.cif
#   From: 2010.05.17/outbox.cif.g08.bks.cpg/sg15_110_cif.got.tgz:219204.got - 2010.06.03 18:47:42.
