data_PCOD9275191
_publ_section_title
;
Structure prediction by ZEFSAII (Michael W. Deem and Ramdas Pophale) SiO2 
 PCOD9275191
Probable space group: C 2/C
;
_chemical_formula_sum "Si O2"
_cell_formula_units_Z 40
_cell_length_a 25.078384
_cell_length_b 14.643859
_cell_length_c 14.119311
_cell_angle_alpha 90.000000
_cell_angle_beta 20.641487
_cell_angle_gamma 90.000000
_cell_volume 1827.896252
_symmetry_space_group_name_H-M "C 2/C"
_symmetry_group_IT_number 15
_symmetry_cell_setting 'monoclinic'
loop_
_space_group_symop_operation_xyz
x,y,z
-x,y,1/2-z
-x,-y,-z
x,-y,1/2+z
1/2+x,1/2+y,z
1/2-x,1/2+y,1/2-z
1/2-x,1/2-y,-z
1/2+x,1/2-y,1/2+z
loop_
_atom_site_type_symbol
_atom_site_label
_atom_site_fract_x
_atom_site_fract_y
_atom_site_fract_z
Si Si1 0.750000 0.250000 0.000000
Si Si2 0.734712 0.156925 0.234746
Si Si3 0.500000 0.516613 0.750000
Si Si4 0.902589 0.251388 0.114933
Si Si5 0.434878 0.927587 0.182489
Si Si6 0.887682 0.936811 0.745845
O O1 0.730397 0.203986 0.139020
O O2 0.564677 0.244006 0.294023
O O3 0.775202 0.227881 0.249609
O O4 0.573267 0.107918 0.515217
O O5 0.868189 0.081625 0.010559
O O6 0.428562 0.456340 0.786130
O O7 0.875392 0.342111 0.219752
O O8 0.910058 0.165716 0.173770
O O9 0.286888 0.965452 0.480512
O O10 0.500000 0.000000 0.000000
O O11 0.000000 0.000000 0.500000
#
# Coordination Sequence:
#
# PCOD9275191 Si02
#       6
#     4   8   4   8   8   8
#     4  10  20  38  72 100 136 190 244 296 358 432
#     4  11  21  44  69 105 148 193 242 303 367 447
#     4  12  22  44  72 104 150 186 242 304 370 438
#     4  11  24  43  73 106 148 195 245 305 376 449
#     4  11  26  46  72 108 152 189 250 317 365 448
#     4  12  25  45  74 108 147 200 245 306 382 445
#
# _framework density 21.88308
#
# number of rings (size 3 to 8) (size 9 to 14) (size 15 to 20)
#    0.000    0.800    6.000    0.600    2.800    4.000 
#    0.000    0.000    8.800    0.000    0.000    0.000 
#    0.000    0.000    0.000    0.000    0.000    0.000 
#
# Total GULP energy -111418.812772 kJ/mol
# GULP energy per Si atom -5570.940639 kJ/mol
# Density = 2.183327 g / cm^3
# Si number density = 21.883080 Si / 1000 Ang^3
#
#
#
# Elastic Constant Matrix: (Units=GPa)
#
#
# Indices 1 2 3 4 5 6 
#
# 1 89.5475 34.0834 12.3895 0.0000 -33.1307 0.0000
# 2 34.0834 96.2106 13.1051 -0.0003 0.0143 0.0002
# 3 12.3895 13.1051 163.3260 -0.0004 -27.0917 0.0003
# 4 0.0000 -0.0003 -0.0004 16.7191 0.0003 -13.6422
# 5 -33.1307 0.0143 -27.0917 0.0003 38.7802 -0.0001
# 6 0.0000 0.0002 0.0003 -13.6422 -0.0001 39.0951
#
#
#
# Elastic Compliance Matrix: (Units=1/GPa)
#
#
# Indices 1 2 3 4 5 6 
#
# 1 0.021054 -0.007771 0.002274 0.000000 0.019578 0.000000
# 2 -0.007771 0.013393 -0.001795 0.000000 -0.007898 0.000000
# 3 0.002274 -0.001795 0.007258 0.000000 0.007014 0.000000
# 4 0.000000 0.000000 0.000000 0.083621 -0.000001 0.029180
# 5 0.019578 -0.007898 0.007014 -0.000001 0.047415 0.000000
# 6 0.000000 0.000000 0.000000 0.029180 0.000000 0.035761
#
#
# Mechanical properties :
#
#
# Convention : Reuss Voigt Hill
#
# Bulk Modulus (GPa) = 36.87388 52.02667 44.45028
# Shear Modulus (GPa) = 21.53998 38.21928 29.87963
#
# Velocity S-wave (km/s) = 3.14079 4.18368 3.69917
# Velocity P-wave (km/s) = 5.48085 6.86760 6.21304
#
# Compressibility (1/GPa) = 0.02711947
#
# Stress axis : x y z
#
# Youngs Moduli (GPa) = 47.49662 74.66813 137.78583
#
# Poissons Ratio (x) = 0.58027 -0.31333
# Poissons Ratio (y) = 0.36911 0.24735
# Poissons Ratio (z) = -0.10801 0.13405
#
# Static dielectric constant tensor:
#      x y z
#    x 1.780830 0.000000 -0.000950 
#    y 0.000000 1.825010 0.000000 
#    z -0.000950 0.000000 1.866780 
# 
# From -- ./inp_files/178300.got.cif
#   From: 2010.05.17/outbox.cif.g08.bks.cpg/sg15_90_cif.got.tgz:178300.got - 2010.06.03 18:47:42.
