data_PCOD9275874
_publ_section_title
;
Structure prediction by ZEFSAII (Michael W. Deem and Ramdas Pophale) SiO2 
 PCOD9275874
Probable space group: C 2/C
;
_chemical_formula_sum "Si O2"
_cell_formula_units_Z 56
_cell_length_a 14.562271
_cell_length_b 14.969176
_cell_length_c 21.867627
_cell_angle_alpha 90.000000
_cell_angle_beta 33.531080
_cell_angle_gamma 90.000000
_cell_volume 2633.139539
_symmetry_space_group_name_H-M "C 2/C"
_symmetry_group_IT_number 15
_symmetry_cell_setting 'monoclinic'
loop_
_space_group_symop_operation_xyz
x,y,z
-x,y,1/2-z
-x,-y,-z
x,-y,1/2+z
1/2+x,1/2+y,z
1/2-x,1/2+y,1/2-z
1/2-x,1/2-y,-z
1/2+x,1/2-y,1/2+z
loop_
_atom_site_type_symbol
_atom_site_label
_atom_site_fract_x
_atom_site_fract_y
_atom_site_fract_z
Si Si1 0.520029 0.598404 0.014876
Si Si2 0.278424 0.120301 0.511955
Si Si3 0.280276 0.323309 0.741990
Si Si4 0.007315 0.765795 0.317744
Si Si5 0.996504 0.698150 0.490820
Si Si6 0.372056 0.961522 0.371235
Si Si7 0.568978 0.206275 0.592865
O O1 0.371678 0.606944 0.147239
O O2 0.500000 0.500000 0.000000
O O3 0.498986 0.690975 0.986455
O O4 0.707363 0.588684 0.936802
O O5 0.385152 0.191384 0.413797
O O6 0.338857 0.147619 0.547355
O O7 0.082896 0.141371 0.616648
O O8 0.319125 0.028800 0.454801
O O9 0.183743 0.254458 0.750183
O O10 0.144396 0.344211 0.867994
O O11 0.434475 0.277519 0.688825
O O12 0.000000 0.753376 0.250000
O O13 0.034934 0.685338 0.540508
O O14 0.500000 0.002299 0.250000
O O15 0.468800 0.881515 0.348820
O O16 0.750000 0.250000 0.500000
#
# Coordination Sequence:
#
# PCOD9275874 Si02
#       7
#     8   8   8   8   8   8   8
#     4  11  25  41  69 103 140 174 237 287 333 421
#     4  10  24  39  66 102 134 175 230 284 343 413
#     4  10  22  40  66  98 128 189 221 279 348 404
#     4  10  20  39  65  92 136 181 218 268 347 411
#     4  10  22  44  66  98 134 185 223 284 350 413
#     4  12  26  44  69 102 133 181 228 294 345 406
#     4  11  22  43  66  95 132 181 234 279 339 421
#
# _framework density 21.267388
#
# number of rings (size 3 to 8) (size 9 to 14) (size 15 to 20)
#    0.000    1.429    2.857    3.000   12.000    0.571 
#    0.000    1.429    0.000    0.000    0.000    0.000 
#    0.000    0.000    0.000    0.000    0.000    0.000 
#
# Total GULP energy -155904.565067 kJ/mol
# GULP energy per Si atom -5568.020181 kJ/mol
# Density = 2.121898 g / cm^3
# Si number density = 21.267388 Si / 1000 Ang^3
#
#
#
# Elastic Constant Matrix: (Units=GPa)
#
#
# Indices 1 2 3 4 5 6 
#
# 1 81.8521 11.4925 22.6773 0.0002 -4.2856 0.0000
# 2 11.4925 74.6225 -6.3827 0.0006 -6.4518 0.0000
# 3 22.6773 -6.3827 62.5128 0.0007 -17.7117 0.0002
# 4 0.0002 0.0006 0.0007 17.1103 0.0001 6.8576
# 5 -4.2856 -6.4518 -17.7117 0.0001 37.4001 -0.0001
# 6 0.0000 0.0000 0.0002 6.8576 -0.0001 27.6342
#
#
#
# Elastic Compliance Matrix: (Units=1/GPa)
#
#
# Indices 1 2 3 4 5 6 
#
# 1 0.014161 -0.002828 -0.005895 0.000000 -0.001657 0.000000
# 2 -0.002828 0.014480 0.003604 -0.000001 0.003881 0.000000
# 3 -0.005895 0.003604 0.021353 -0.000001 0.010058 0.000000
# 4 0.000000 -0.000001 -0.000001 0.064899 -0.000001 -0.016105
# 5 -0.001657 0.003881 0.010058 -0.000001 0.031981 0.000000
# 6 0.000000 0.000000 0.000000 -0.016105 0.000000 0.040184
#
#
# Mechanical properties :
#
#
# Convention : Reuss Voigt Hill
#
# Bulk Modulus (GPa) = 25.15428 30.50683 27.83056
# Shear Modulus (GPa) = 23.74748 29.17562 26.46155
#
# Velocity S-wave (km/s) = 3.34520 3.70786 3.53119
# Velocity P-wave (km/s) = 5.17434 5.71897 5.45346
#
# Compressibility (1/GPa) = 0.03975466
#
# Stress axis : x y z
#
# Youngs Moduli (GPa) = 70.61734 69.06005 46.83151
#
# Poissons Ratio (x) = 0.19533 0.27609
# Poissons Ratio (y) = 0.19973 -0.16878
# Poissons Ratio (z) = 0.41631 -0.24889
#
# Static dielectric constant tensor:
#      x y z
#    x 1.877650 0.000000 0.009560 
#    y 0.000000 1.837940 0.000000 
#    z 0.009560 0.000000 1.751660 
# 
# From -- ./inp_files/274445.got.cif
#   From: 2010.05.17/outbox.cif.g08.bks.cpg/sg15_138_cif.got.tgz:274445.got - 2010.06.03 18:47:42.
