data_PCOD9275789
_publ_section_title
;
Structure prediction by ZEFSAII (Michael W. Deem and Ramdas Pophale) SiO2 
 PCOD9275789
Probable space group: C 2/C
;
_chemical_formula_sum "Si O2"
_cell_formula_units_Z 48
_cell_length_a 14.232440
_cell_length_b 21.403913
_cell_length_c 8.731604
_cell_angle_alpha 90.000000
_cell_angle_beta 137.760987
_cell_angle_gamma 90.000000
_cell_volume 1788.056071
_symmetry_space_group_name_H-M "C 2/C"
_symmetry_group_IT_number 15
_symmetry_cell_setting 'monoclinic'
loop_
_space_group_symop_operation_xyz
x,y,z
-x,y,1/2-z
-x,-y,-z
x,-y,1/2+z
1/2+x,1/2+y,z
1/2-x,1/2+y,1/2-z
1/2-x,1/2-y,-z
1/2+x,1/2-y,1/2+z
loop_
_atom_site_type_symbol
_atom_site_label
_atom_site_fract_x
_atom_site_fract_y
_atom_site_fract_z
Si Si1 0.168082 0.145031 0.685631
Si Si2 0.358010 0.478053 0.512174
Si Si3 0.645251 0.228146 0.005608
Si Si4 0.835726 0.804023 0.018399
Si Si5 0.168695 0.539484 0.068797
Si Si6 0.044831 0.599636 0.471221
O O1 0.102337 0.083612 0.535524
O O2 0.100338 0.208561 0.543849
O O3 0.178568 0.138243 0.881383
O O4 0.329442 0.143924 0.826819
O O5 0.500000 0.501721 0.750000
O O6 0.297524 0.532506 0.336709
O O7 0.236682 0.456146 0.484165
O O8 0.752126 0.192027 0.255560
O O9 0.500000 0.204527 0.750000
O O10 0.750000 0.250000 0.000000
O O11 0.000000 0.788764 0.250000
O O12 0.750000 0.750000 0.000000
O O13 0.061854 0.587193 0.018520
O O14 0.101249 0.470081 0.999636
O O15 0.000000 0.624446 0.250000
#
# Coordination Sequence:
#
# PCOD9275789 Si02
#       6
#     8   8   8   8   8   8
#     4  10  24  41  64  98 139 178 233 303 351 448
#     4  11  22  41  64  95 140 190 250 297 373 439
#     4  11  23  44  70 101 137 183 234 294 377 442
#     4  10  22  45  75 102 143 193 235 298 378 447
#     4  10  21  39  65  92 131 190 235 310 357 420
#     4  10  20  39  64  94 134 177 245 295 369 414
#
# _framework density 26.844795000000001
#
# number of rings (size 3 to 8) (size 9 to 14) (size 15 to 20)
#    0.000    1.667    1.667    3.000    0.000    4.000 
#    9.000    1.667    0.000    0.000    0.000    0.000 
#    0.000    0.000    0.000    0.000    0.000    0.000 
#
# Total GULP energy -134035.899964 kJ/mol
# GULP energy per Si atom -5584.829165 kJ/mol
# Density = 2.678370 g / cm^3
# Si number density = 26.844795 Si / 1000 Ang^3
#
#
#
# Elastic Constant Matrix: (Units=GPa)
#
#
# Indices 1 2 3 4 5 6 
#
# 1 134.4777 22.6280 52.4400 0.0000 -14.1974 0.0000
# 2 22.6280 62.9069 39.5321 0.0000 -4.3884 0.0000
# 3 52.4400 39.5321 208.7931 0.0000 4.3352 0.0000
# 4 0.0000 0.0000 0.0000 37.3227 0.0000 -1.9253
# 5 -14.1974 -4.3884 4.3352 0.0000 58.0306 0.0000
# 6 0.0000 0.0000 0.0000 -1.9253 0.0000 28.5917
#
#
#
# Elastic Compliance Matrix: (Units=1/GPa)
#
#
# Indices 1 2 3 4 5 6 
#
# 1 0.008700 -0.001793 -0.001890 0.000000 0.002134 0.000000
# 2 -0.001793 0.018567 -0.003090 0.000000 0.001196 0.000000
# 3 -0.001890 -0.003090 0.005873 0.000000 -0.001135 0.000000
# 4 0.000000 0.000000 0.000000 0.026887 0.000000 0.001811
# 5 0.002134 0.001196 -0.001135 0.000000 0.017930 0.000000
# 6 0.000000 0.000000 0.000000 0.001811 0.000000 0.035097
#
#
# Mechanical properties :
#
#
# Convention : Reuss Voigt Hill
#
# Bulk Modulus (GPa) = 51.03611 70.59754 60.81683
# Shear Modulus (GPa) = 37.55732 44.22751 40.89242
#
# Velocity S-wave (km/s) = 3.74445 4.06338 3.90717
# Velocity P-wave (km/s) = 6.14389 6.95487 6.56192
#
# Compressibility (1/GPa) = 0.01959397
#
# Stress axis : x y z
#
# Youngs Moduli (GPa) = 114.94027 53.86009 170.27966
#
# Poissons Ratio (x) = 0.09657 0.32182
# Poissons Ratio (y) = 0.20608 0.52614
# Poissons Ratio (z) = 0.21723 0.16642
#
# Static dielectric constant tensor:
#      x y z
#    x 2.176340 0.000000 0.007080 
#    y 0.000000 2.083130 0.000000 
#    z 0.007080 0.000000 2.279010 
# 
# From -- ./inp_files/43921.got.cif
#   From: 2010.05.17/outbox.cif.g08.bks.cpg/sg15_22_cif.got.tgz:43921.got - 2010.06.03 18:47:42.
