data_PCOD9275832
_publ_section_title
;
Structure prediction by ZEFSAII (Michael W. Deem and Ramdas Pophale) SiO2 
 PCOD9275832
Probable space group: C 2/C
;
_chemical_formula_sum "Si O2"
_cell_formula_units_Z 36
_cell_length_a 11.558437
_cell_length_b 14.842317
_cell_length_c 7.764899
_cell_angle_alpha 90.000000
_cell_angle_beta 93.234265
_cell_angle_gamma 90.000000
_cell_volume 1329.977609
_symmetry_space_group_name_H-M "C 2/C"
_symmetry_group_IT_number 15
_symmetry_cell_setting 'monoclinic'
loop_
_space_group_symop_operation_xyz
x,y,z
-x,y,1/2-z
-x,-y,-z
x,-y,1/2+z
1/2+x,1/2+y,z
1/2-x,1/2+y,1/2-z
1/2-x,1/2-y,-z
1/2+x,1/2-y,1/2+z
loop_
_atom_site_type_symbol
_atom_site_label
_atom_site_fract_x
_atom_site_fract_y
_atom_site_fract_z
Si Si1 0.439110 0.806514 0.499310
Si Si2 0.339093 0.864995 0.172807
Si Si3 0.500000 0.031502 0.250000
Si Si4 0.894193 0.884408 0.000918
Si Si5 0.847742 0.925281 0.618188
O O1 0.332413 0.819660 0.358698
O O2 0.562051 0.802227 0.408687
O O3 0.464534 0.898103 0.601101
O O4 0.410569 0.713167 0.587516
O O5 0.394680 0.961345 0.231580
O O6 0.242473 0.883382 0.023983
O O7 0.828320 0.889187 0.810153
O O8 0.024753 0.905577 0.945190
O O9 0.847537 0.965131 0.115243
#
# Coordination Sequence:
#
# PCOD9275832 Si02
#       5
#     8   8   4   8   8
#     4  10  22  39  63  91 125 152 215 251 302 359
#     4  10  20  39  65  88 122 168 195 250 311 376
#     4  10  22  38  62  94 120 156 200 264 302 360
#     4  10  23  41  59  92 121 168 200 258 294 372
#     4  10  22  39  64  84 128 161 207 239 320 362
#
# _framework density 27.068124000000001
#
# number of rings (size 3 to 8) (size 9 to 14) (size 15 to 20)
#    0.000    2.222    0.000    5.333    6.222    7.111 
#    0.000    1.111    0.000    0.000    0.000    0.000 
#    0.000    0.000    0.000    0.000    0.000    0.000 
#
# Total GULP energy -100637.628304 kJ/mol
# GULP energy per Si atom -5590.979350 kJ/mol
# Density = 2.700652 g / cm^3
# Si number density = 27.068124 Si / 1000 Ang^3
#
#
#
# Elastic Constant Matrix: (Units=GPa)
#
#
# Indices 1 2 3 4 5 6 
#
# 1 86.1356 1.4553 31.0657 0.0000 26.7649 0.0000
# 2 1.4553 144.7077 28.7007 0.0000 4.5838 0.0000
# 3 31.0657 28.7007 138.3323 0.0000 47.8666 0.0000
# 4 0.0000 0.0000 0.0000 169.0173 0.0000 80.1494
# 5 26.7649 4.5838 47.8666 0.0000 46.2123 0.0000
# 6 0.0000 0.0000 0.0000 80.1494 0.0000 68.1166
#
#
#
# Elastic Compliance Matrix: (Units=1/GPa)
#
#
# Indices 1 2 3 4 5 6 
#
# 1 0.014189 0.000216 -0.000593 0.000000 -0.007625 0.000000
# 2 0.000216 0.007261 -0.001968 0.000000 0.001193 0.000000
# 3 -0.000593 -0.001968 0.011821 0.000000 -0.011705 0.000000
# 4 0.000000 0.000000 0.000000 0.013385 0.000000 -0.015750
# 5 -0.007625 0.001193 -0.011705 0.000000 0.038062 0.000000
# 6 0.000000 0.000000 0.000000 -0.015750 0.000000 0.033213
#
#
# Mechanical properties :
#
#
# Convention : Reuss Voigt Hill
#
# Bulk Modulus (GPa) = 34.98651 54.62434 44.80543
# Shear Modulus (GPa) = 37.83699 77.19952 57.51825
#
# Velocity S-wave (km/s) = 3.74283 5.34625 4.61471
# Velocity P-wave (km/s) = 5.62421 7.63767 6.70693
#
# Compressibility (1/GPa) = 0.02858245
#
# Stress axis : x y z
#
# Youngs Moduli (GPa) = 70.47620 137.72597 84.59730
#
# Poissons Ratio (x) = -0.02981 0.05015
# Poissons Ratio (y) = -0.01525 0.16646
# Poissons Ratio (z) = 0.04178 0.27101
#
# Static dielectric constant tensor:
#      x y z
#    x 2.236560 0.000000 -0.140540 
#    y 0.000000 2.105960 0.000000 
#    z -0.140540 0.000000 2.279470 
# 
# From -- ./inp_files/37647.got.cif
#   From: 2010.05.17/outbox.cif.g08.bks.cpg/sg15_19_cif.got.tgz:37647.got - 2010.06.03 18:47:42.
