data_PCOD9275584
_publ_section_title
;
Structure prediction by ZEFSAII (Michael W. Deem and Ramdas Pophale) SiO2 
 PCOD9275584
Probable space group: C 2/C
;
_chemical_formula_sum "Si O2"
_cell_formula_units_Z 60
_cell_length_a 23.719235
_cell_length_b 24.842194
_cell_length_c 8.713125
_cell_angle_alpha 90.000000
_cell_angle_beta 143.929349
_cell_angle_gamma 90.000000
_cell_volume 3022.869436
_symmetry_space_group_name_H-M "C 2/C"
_symmetry_group_IT_number 15
_symmetry_cell_setting 'monoclinic'
loop_
_space_group_symop_operation_xyz
x,y,z
-x,y,1/2-z
-x,-y,-z
x,-y,1/2+z
1/2+x,1/2+y,z
1/2-x,1/2+y,1/2-z
1/2-x,1/2-y,-z
1/2+x,1/2-y,1/2+z
loop_
_atom_site_type_symbol
_atom_site_label
_atom_site_fract_x
_atom_site_fract_y
_atom_site_fract_z
Si Si1 0.570858 0.486197 0.295307
Si Si2 0.550366 0.811931 0.116958
Si Si3 0.079073 0.433578 0.134346
Si Si4 0.666231 0.431610 0.244422
Si Si5 0.353234 0.318908 0.170850
Si Si6 0.128942 0.534483 0.401017
Si Si7 0.359342 0.793243 0.860014
Si Si8 0.500000 0.727986 0.750000
O O1 0.500000 0.452382 0.250000
O O2 0.655690 0.458531 0.389886
O O3 0.610605 0.534597 0.488957
O O4 0.500000 0.500000 0.000000
O O5 0.593029 0.869933 0.170378
O O6 0.603187 0.791322 0.384643
O O7 0.439914 0.820010 0.928354
O O8 0.552613 0.768746 0.984956
O O9 0.133354 0.470622 0.376398
O O10 0.110971 0.454899 0.039268
O O11 0.965299 0.444900 0.895765
O O12 0.625808 0.372128 0.184401
O O13 0.776468 0.434846 0.441417
O O14 0.353959 0.267003 0.282288
O O15 0.426600 0.306657 0.192771
O O16 0.243430 0.321593 0.871894
#
# Coordination Sequence:
#
# PCOD9275584 Si02
#       8
#     8   8   8   8   8   8   8   4
#     4   9  21  41  58  85 111 148 201 261 305 369
#     4  10  20  39  63  86 123 170 194 257 310 373
#     4  10  21  35  57  85 131 158 192 240 299 357
#     4  11  21  39  65  84 120 159 203 253 315 363
#     4  10  22  40  63  89 121 161 201 271 303 374
#     4  10  21  35  54  93 118 158 203 237 283 381
#     4   9  21  40  61  91 121 157 218 245 310 372
#     4  10  22  40  58  94 124 154 220 252 310 370
#
# _framework density 19.848690000000001
#
# number of rings (size 3 to 8) (size 9 to 14) (size 15 to 20)
#    0.000    2.133    0.000    2.400    0.933    9.067 
#   14.400    0.000    0.000    0.000    0.000    0.000 
#    0.000    0.000    0.000    0.000    0.000    0.000 
#
# Total GULP energy -167242.875029 kJ/mol
# GULP energy per Si atom -5574.762501 kJ/mol
# Density = 1.980351 g / cm^3
# Si number density = 19.848690 Si / 1000 Ang^3
#
#
#
# Elastic Constant Matrix: (Units=GPa)
#
#
# Indices 1 2 3 4 5 6 
#
# 1 101.3968 43.2918 30.1369 0.0000 -2.9546 0.0000
# 2 43.2918 96.2873 24.5120 0.0000 -10.2284 0.0000
# 3 30.1369 24.5120 53.8438 0.0000 -6.8245 0.0000
# 4 0.0000 0.0000 0.0000 15.4085 0.0000 -2.0491
# 5 -2.9546 -10.2284 -6.8245 0.0000 25.5319 0.0000
# 6 0.0000 0.0000 0.0000 -2.0491 0.0000 23.8960
#
#
#
# Elastic Compliance Matrix: (Units=1/GPa)
#
#
# Indices 1 2 3 4 5 6 
#
# 1 0.013551 -0.004865 -0.005608 0.000000 -0.001880 0.000000
# 2 -0.004865 0.013784 -0.003026 0.000000 0.004150 0.000000
# 3 -0.005608 -0.003026 0.023654 0.000000 0.004461 0.000000
# 4 0.000000 0.000000 0.000000 0.065648 0.000000 0.005629
# 5 -0.001880 0.004150 0.004461 0.000000 0.041804 0.000000
# 6 0.000000 0.000000 0.000000 0.005629 0.000000 0.042331
#
#
# Mechanical properties :
#
#
# Convention : Reuss Voigt Hill
#
# Bulk Modulus (GPa) = 41.68219 49.71213 45.69716
# Shear Modulus (GPa) = 21.20720 23.20642 22.20681
#
# Velocity S-wave (km/s) = 3.27225 3.42302 3.34848
# Velocity P-wave (km/s) = 5.94326 6.38143 6.16624
#
# Compressibility (1/GPa) = 0.02399106
#
# Stress axis : x y z
#
# Youngs Moduli (GPa) = 73.79282 72.54733 42.27532
#
# Poissons Ratio (x) = 0.35293 0.23710
# Poissons Ratio (y) = 0.35899 0.12793
# Poissons Ratio (z) = 0.41386 0.21954
#
# Static dielectric constant tensor:
#      x y z
#    x 1.718170 0.000000 0.036110 
#    y 0.000000 1.725810 0.000000 
#    z 0.036110 0.000000 1.722570 
# 
# From -- ./inp_files/63932.got.cif
#   From: 2010.05.17/outbox.cif.g08.bks.cpg/sg15_32_cif.got.tgz:63932.got - 2010.06.03 18:47:42.
