data_PCOD9275880
_publ_section_title
;
Structure prediction by ZEFSAII (Michael W. Deem and Ramdas Pophale) SiO2 
 PCOD9275880
Probable space group: C 2/C
;
_chemical_formula_sum "Si O2"
_cell_formula_units_Z 60
_cell_length_a 19.399077
_cell_length_b 14.438636
_cell_length_c 11.143787
_cell_angle_alpha 90.000000
_cell_angle_beta 112.988286
_cell_angle_gamma 90.000000
_cell_volume 2873.451020
_symmetry_space_group_name_H-M "C 2/C"
_symmetry_group_IT_number 15
_symmetry_cell_setting 'monoclinic'
loop_
_space_group_symop_operation_xyz
x,y,z
-x,y,1/2-z
-x,-y,-z
x,-y,1/2+z
1/2+x,1/2+y,z
1/2-x,1/2+y,1/2-z
1/2-x,1/2-y,-z
1/2+x,1/2-y,1/2+z
loop_
_atom_site_type_symbol
_atom_site_label
_atom_site_fract_x
_atom_site_fract_y
_atom_site_fract_z
Si Si1 0.446995 0.119644 0.038960
Si Si2 0.087737 0.014979 0.565569
Si Si3 0.194030 0.837925 0.080555
Si Si4 0.132543 0.925007 0.346216
Si Si5 0.213703 0.571421 0.658494
Si Si6 0.446566 0.083711 0.610848
Si Si7 0.208959 0.363046 0.575029
Si Si8 0.500000 0.278856 0.250000
O O1 0.471835 0.210193 0.126538
O O2 0.439309 0.027717 0.116492
O O3 0.365250 0.120103 0.921004
O O4 0.511871 0.101222 0.986305
O O5 0.113466 0.118914 0.549499
O O6 0.115933 0.002956 0.723065
O O7 0.121397 0.957727 0.475764
O O8 0.000000 0.000000 0.500000
O O9 0.252719 0.901596 0.191250
O O10 0.200550 0.734469 0.135578
O O11 0.218786 0.848248 0.959728
O O12 0.219512 0.899557 0.386859
O O13 0.071234 0.845768 0.278392
O O14 0.207236 0.459853 0.643400
O O15 0.500000 0.120090 0.750000
O O16 0.365799 0.129808 0.556612
#
# Coordination Sequence:
#
# PCOD9275880 Si02
#       8
#     8   8   8   8   8   8   8   4
#     4  10  23  40  64  95 131 172 225 277 346 406
#     4  11  21  43  67  98 134 183 222 280 336 418
#     4  10  22  40  66  97 137 172 228 273 344 405
#     4  11  24  42  71  97 138 179 229 277 353 402
#     4  10  22  44  63  97 132 177 220 286 341 410
#     4  10  20  39  65  93 125 173 216 278 342 394
#     4  10  21  40  66  94 129 174 221 276 336 405
#     4  12  24  44  66  96 134 176 232 288 334 422
#
# _framework density 20.880815999999999
#
# number of rings (size 3 to 8) (size 9 to 14) (size 15 to 20)
#    0.000    1.600    3.333    0.800    3.733    0.533 
#    4.800    2.667    0.000    0.000    0.000    0.000 
#    0.000    0.000    0.000    0.000    0.000    0.000 
#
# Total GULP energy -167220.764216 kJ/mol
# GULP energy per Si atom -5574.025474 kJ/mol
# Density = 2.083329 g / cm^3
# Si number density = 20.880816 Si / 1000 Ang^3
#
#
#
# Elastic Constant Matrix: (Units=GPa)
#
#
# Indices 1 2 3 4 5 6 
#
# 1 98.8114 28.0691 -1.1591 0.0000 6.2881 0.0000
# 2 28.0691 108.6537 31.2138 0.0000 4.2602 0.0000
# 3 -1.1591 31.2138 56.0029 0.0000 3.8453 0.0000
# 4 0.0000 0.0000 0.0000 28.1472 0.0000 3.6634
# 5 6.2881 4.2602 3.8453 0.0000 33.5740 0.0000
# 6 0.0000 0.0000 0.0000 3.6634 0.0000 31.5996
#
#
#
# Elastic Compliance Matrix: (Units=1/GPa)
#
#
# Indices 1 2 3 4 5 6 
#
# 1 0.011265 -0.003500 0.002316 0.000000 -0.001931 0.000000
# 2 -0.003500 0.012062 -0.006788 0.000000 -0.000098 0.000000
# 3 0.002316 -0.006788 0.021830 0.000000 -0.002073 0.000000
# 4 0.000000 0.000000 0.000000 0.036072 0.000000 -0.004182
# 5 -0.001931 -0.000098 -0.002073 0.000000 0.030396 0.000000
# 6 0.000000 0.000000 0.000000 -0.004182 0.000000 0.032131
#
#
# Mechanical properties :
#
#
# Convention : Reuss Voigt Hill
#
# Bulk Modulus (GPa) = 34.23184 42.19064 38.21124
# Shear Modulus (GPa) = 29.50959 32.35375 30.93167
#
# Velocity S-wave (km/s) = 3.76339 3.94057 3.85300
# Velocity P-wave (km/s) = 5.94253 6.39949 6.17524
#
# Compressibility (1/GPa) = 0.02921257
#
# Stress axis : x y z
#
# Youngs Moduli (GPa) = 88.77439 82.90732 45.80833
#
# Poissons Ratio (x) = 0.29016 -0.10611
# Poissons Ratio (y) = 0.31069 0.31097
# Poissons Ratio (z) = -0.20563 0.56281
#
# Static dielectric constant tensor:
#      x y z
#    x 1.774430 0.000000 -0.026520 
#    y 0.000000 1.777930 0.000000 
#    z -0.026520 0.000000 1.778480 
# 
# From -- ./inp_files/112770.got.cif
#   From: 2010.05.17/outbox.cif.g08.bks.cpg/sg15_57_cif.got.tgz:112770.got - 2010.06.03 18:47:42.
