data_PCOD9275432
_publ_section_title
;
Structure prediction by ZEFSAII (Michael W. Deem and Ramdas Pophale) SiO2 
 PCOD9275432
Probable space group: C 2/C
;
_chemical_formula_sum "Si O2"
_cell_formula_units_Z 56
_cell_length_a 9.637586
_cell_length_b 20.746067
_cell_length_c 14.807218
_cell_angle_alpha 90.000000
_cell_angle_beta 112.582967
_cell_angle_gamma 90.000000
_cell_volume 2733.580294
_symmetry_space_group_name_H-M "C 2/C"
_symmetry_group_IT_number 15
_symmetry_cell_setting 'monoclinic'
loop_
_space_group_symop_operation_xyz
x,y,z
-x,y,1/2-z
-x,-y,-z
x,-y,1/2+z
1/2+x,1/2+y,z
1/2-x,1/2+y,1/2-z
1/2-x,1/2-y,-z
1/2+x,1/2-y,1/2+z
loop_
_atom_site_type_symbol
_atom_site_label
_atom_site_fract_x
_atom_site_fract_y
_atom_site_fract_z
Si Si1 0.592715 0.628377 0.858917
Si Si2 0.120789 0.214233 0.030458
Si Si3 0.615205 0.629847 0.206316
Si Si4 0.925184 0.986421 0.576244
Si Si5 0.946143 0.348951 0.450625
Si Si6 0.584210 0.027821 0.933649
Si Si7 0.451063 0.902632 0.831223
O O1 0.500000 0.652017 0.750000
O O2 0.548778 0.665447 0.940081
O O3 0.571016 0.552278 0.866518
O O4 0.769822 0.639812 0.889440
O O5 0.250000 0.250000 0.000000
O O6 0.160213 0.173129 0.130040
O O7 0.022404 0.273242 0.043919
O O8 0.500000 0.662316 0.250000
O O9 0.515848 0.570284 0.146023
O O10 0.769865 0.601852 0.287851
O O11 0.755470 0.970741 0.506230
O O12 0.000000 0.000000 0.500000
O O13 0.031011 0.399050 0.407077
O O14 0.984457 0.369036 0.563353
O O15 0.532547 0.973101 0.850805
O O16 0.500000 0.000000 0.000000
O O17 0.500000 0.869925 0.750000
#
# Coordination Sequence:
#
# PCOD9275432 Si02
#       7
#     8   8   8   8   8   8   8
#     4  11  22  38  65  97 128 173 225 276 332 394
#     4  10  23  45  66  95 136 185 229 274 328 414
#     4  12  25  40  69 107 134 175 225 290 346 394
#     4  12  22  40  66  98 138 168 216 287 347 396
#     4  10  22  41  64  86 131 171 222 271 320 395
#     4  10  20  39  61  91 125 172 211 264 336 391
#     4  11  21  39  67  95 127 172 226 267 330 412
#
# _framework density 20.485952999999999
#
# number of rings (size 3 to 8) (size 9 to 14) (size 15 to 20)
#    0.000    1.143    4.286    4.714    2.000    2.857 
#    0.000    3.571    3.143    0.000    0.000    0.000 
#    0.000    0.000    0.000    0.000    0.000    0.000 
#
# Total GULP energy -156071.484303 kJ/mol
# GULP energy per Si atom -5573.981582 kJ/mol
# Density = 2.043933 g / cm^3
# Si number density = 20.485953 Si / 1000 Ang^3
#
#
#
# Elastic Constant Matrix: (Units=GPa)
#
#
# Indices 1 2 3 4 5 6 
#
# 1 83.5494 1.8782 36.3917 0.0000 31.2952 0.0000
# 2 1.8782 117.9696 31.8716 0.0000 16.7776 0.0000
# 3 36.3917 31.8716 142.9888 0.0000 24.8744 0.0000
# 4 0.0000 0.0000 0.0000 4.5930 0.0000 -4.6006
# 5 31.2952 16.7776 24.8744 0.0000 34.7411 0.0000
# 6 0.0000 0.0000 0.0000 -4.6006 0.0000 17.9580
#
#
#
# Elastic Compliance Matrix: (Units=1/GPa)
#
#
# Indices 1 2 3 4 5 6 
#
# 1 0.019396 0.002809 -0.002612 0.000000 -0.016958 0.000000
# 2 0.002809 0.009777 -0.001865 0.000000 -0.005917 0.000000
# 3 -0.002612 -0.001865 0.008576 0.000000 -0.002887 0.000000
# 4 0.000000 0.000000 0.000000 0.292881 0.000000 0.075032
# 5 -0.016958 -0.005917 -0.002887 0.000000 0.048984 0.000000
# 6 0.000000 0.000000 0.000000 0.075032 0.000000 0.074908
#
#
# Mechanical properties :
#
#
# Convention : Reuss Voigt Hill
#
# Bulk Modulus (GPa) = 29.05956 53.86563 41.46259
# Shear Modulus (GPa) = 10.65349 29.74951 20.20150
#
# Velocity S-wave (km/s) = 2.28291 3.81490 3.14365
# Velocity P-wave (km/s) = 4.60052 6.76429 5.78448
#
# Compressibility (1/GPa) = 0.03441209
#
# Stress axis : x y z
#
# Youngs Moduli (GPa) = 51.55806 102.27726 116.60087
#
# Poissons Ratio (x) = -0.28727 0.30461
# Poissons Ratio (y) = -0.14481 0.21745
# Poissons Ratio (z) = 0.13469 0.19074
#
# Static dielectric constant tensor:
#      x y z
#    x 1.753810 0.000000 -0.025230 
#    y 0.000000 1.805740 0.000000 
#    z -0.025230 0.000000 1.748590 
# 
# From -- ./inp_files/137957.got.cif
#   From: 2010.05.17/outbox.cif.g08.bks.cpg/sg15_69_cif.got.tgz:137957.got - 2010.06.03 18:47:42.
