data_PCOD9275026
_publ_section_title
;
Structure prediction by ZEFSAII (Michael W. Deem and Ramdas Pophale) SiO2 
 PCOD9275026
Probable space group: C 2/C
;
_chemical_formula_sum "Si O2"
_cell_formula_units_Z 44
_cell_length_a 21.396350
_cell_length_b 7.109498
_cell_length_c 18.344776
_cell_angle_alpha 90.000000
_cell_angle_beta 121.135337
_cell_angle_gamma 90.000000
_cell_volume 2388.573462
_symmetry_space_group_name_H-M "C 2/C"
_symmetry_group_IT_number 15
_symmetry_cell_setting 'monoclinic'
loop_
_space_group_symop_operation_xyz
x,y,z
-x,y,1/2-z
-x,-y,-z
x,-y,1/2+z
1/2+x,1/2+y,z
1/2-x,1/2+y,1/2-z
1/2-x,1/2-y,-z
1/2+x,1/2-y,1/2+z
loop_
_atom_site_type_symbol
_atom_site_label
_atom_site_fract_x
_atom_site_fract_y
_atom_site_fract_z
Si Si1 0.930440 0.926762 0.662009
Si Si2 0.500000 0.939007 0.250000
Si Si3 0.074835 0.642918 0.165236
Si Si4 0.676471 0.480582 0.276302
Si Si5 0.168094 0.307547 0.152679
Si Si6 0.450415 0.630354 0.521924
O O1 0.950720 0.705286 0.672529
O O2 0.000000 0.006651 0.750000
O O3 0.859987 0.963532 0.668898
O O4 0.929411 0.017766 0.582429
O O5 0.550108 0.060739 0.227981
O O6 0.122552 0.829876 0.205864
O O7 0.121490 0.483685 0.153548
O O8 0.002264 0.698443 0.077737
O O9 0.755007 0.383792 0.329988
O O10 0.680851 0.663049 0.227172
O O11 0.120072 0.201033 0.063595
O O12 0.500000 0.500000 0.500000
#
# Coordination Sequence:
#
# PCOD9275026 Si02
#       6
#     8   4   8   8   8   8
#     4  10  20  41  66  93 131 171 222 272 326 398
#     4  10  20  38  68 100 120 174 228 266 324 396
#     4  12  21  40  70  92 127 174 226 270 331 391
#     4  12  23  43  67  94 132 184 217 272 335 404
#     4  12  25  41  66  98 136 175 224 274 338 396
#     4  12  23  41  68 102 133 170 225 288 323 385
#
# _framework density 18.421037999999999
#
# number of rings (size 3 to 8) (size 9 to 14) (size 15 to 20)
#    0.545    0.000    7.273    2.727    0.000    0.727 
#    0.000    0.000    0.000    4.364    0.000    0.000 
#    0.000    0.000    0.000    0.000    0.000    0.000 
#
# Total GULP energy -122910.882926 kJ/mol
# GULP energy per Si atom -5586.858315 kJ/mol
# Density = 1.837911 g / cm^3
# Si number density = 18.421038 Si / 1000 Ang^3
#
#
#
# Elastic Constant Matrix: (Units=GPa)
#
#
# Indices 1 2 3 4 5 6 
#
# 1 130.8539 30.1509 29.8687 0.0000 0.4367 0.0000
# 2 30.1509 74.7328 3.3390 0.0000 0.4682 0.0000
# 3 29.8687 3.3390 50.5474 0.0000 6.7248 0.0000
# 4 0.0000 0.0000 0.0000 18.1742 0.0000 -0.2921
# 5 0.4367 0.4682 6.7248 0.0000 28.4032 0.0000
# 6 0.0000 0.0000 0.0000 -0.2921 0.0000 37.0848
#
#
#
# Elastic Compliance Matrix: (Units=1/GPa)
#
#
# Indices 1 2 3 4 5 6 
#
# 1 0.009795 -0.003705 -0.005711 0.000000 0.001263 0.000000
# 2 -0.003705 0.014822 0.001275 0.000000 -0.000489 0.000000
# 3 -0.005711 0.001275 0.023815 0.000000 -0.005572 0.000000
# 4 0.000000 0.000000 0.000000 0.055030 0.000000 0.000433
# 5 0.001263 -0.000489 -0.005572 0.000000 0.036515 0.000000
# 6 0.000000 0.000000 0.000000 0.000433 0.000000 0.026969
#
#
# Mechanical properties :
#
#
# Convention : Reuss Voigt Hill
#
# Bulk Modulus (GPa) = 31.10368 42.53904 36.82136
# Shear Modulus (GPa) = 25.78059 29.58413 27.68236
#
# Velocity S-wave (km/s) = 3.74507 4.01184 3.88075
# Velocity P-wave (km/s) = 5.96844 6.67851 6.33344
#
# Compressibility (1/GPa) = 0.03215054
#
# Stress axis : x y z
#
# Youngs Moduli (GPa) = 102.09136 67.46858 41.98992
#
# Poissons Ratio (x) = 0.24994 0.23982
# Poissons Ratio (y) = 0.37821 -0.05354
# Poissons Ratio (z) = 0.58307 -0.08603
#
# Static dielectric constant tensor:
#      x y z
#    x 1.611000 0.000000 0.005780 
#    y 0.000000 1.644880 0.000000 
#    z 0.005780 0.000000 1.618710 
# 
# From -- ./inp_files/217847.got.cif
#   From: 2010.05.17/outbox.cif.g08.bks.cpg/sg15_109_cif.got.tgz:217847.got - 2010.06.03 18:47:42.
