data_PCOD9275921
_publ_section_title
;
Structure prediction by ZEFSAII (Michael W. Deem and Ramdas Pophale) SiO2 
 PCOD9275921
Probable space group: C 2/C
;
_chemical_formula_sum "Si O2"
_cell_formula_units_Z 36
_cell_length_a 8.817812
_cell_length_b 16.987937
_cell_length_c 10.279914
_cell_angle_alpha 90.000000
_cell_angle_beta 90.677130
_cell_angle_gamma 90.000000
_cell_volume 1539.786930
_symmetry_space_group_name_H-M "C 2/C"
_symmetry_group_IT_number 15
_symmetry_cell_setting 'monoclinic'
loop_
_space_group_symop_operation_xyz
x,y,z
-x,y,1/2-z
-x,-y,-z
x,-y,1/2+z
1/2+x,1/2+y,z
1/2-x,1/2+y,1/2-z
1/2-x,1/2-y,-z
1/2+x,1/2-y,1/2+z
loop_
_atom_site_type_symbol
_atom_site_label
_atom_site_fract_x
_atom_site_fract_y
_atom_site_fract_z
Si Si1 0.000000 0.373293 0.750000
Si Si2 0.616163 0.438540 0.361472
Si Si3 0.843858 0.452816 0.960901
Si Si4 0.165585 0.342851 0.300417
Si Si5 0.865399 0.234898 0.615907
O O1 0.868762 0.424864 0.812647
O O2 0.952740 0.315366 0.633840
O O3 0.500000 0.467749 0.250000
O O4 0.685428 0.498218 0.466858
O O5 0.772204 0.412678 0.290975
O O6 0.558810 0.351183 0.406262
O O7 0.830417 0.378705 0.057427
O O8 0.000000 0.500000 0.000000
O O9 0.280742 0.275374 0.255090
O O10 0.000000 0.320367 0.250000
O O11 0.750000 0.250000 0.500000
#
# Coordination Sequence:
#
# PCOD9275921 Si02
#       5
#     4   8   8   8   8
#     4  12  24  42  70  96 130 188 230 272 360 400
#     4  10  22  41  64  98 144 175 222 286 356 396
#     4  12  22  40  69 102 135 181 230 283 338 422
#     4  10  20  39  65  99 132 177 234 274 331 422
#     4  10  21  42  64  93 133 185 221 276 340 411
#
# _framework density 23.379857999999999
#
# number of rings (size 3 to 8) (size 9 to 14) (size 15 to 20)
#    1.333    0.000    3.333    4.000    0.000    1.778 
#    0.000    3.333    0.000    0.000    0.000    0.000 
#    0.000    0.000    0.000    0.000    0.000    0.000 
#
# Total GULP energy -100231.510613 kJ/mol
# GULP energy per Si atom -5568.417256 kJ/mol
# Density = 2.332664 g / cm^3
# Si number density = 23.379858 Si / 1000 Ang^3
#
#
#
# Elastic Constant Matrix: (Units=GPa)
#
#
# Indices 1 2 3 4 5 6 
#
# 1 31.3452 18.4500 -9.1046 0.0000 13.5620 0.0000
# 2 18.4500 80.8151 20.9986 0.0000 5.5781 0.0000
# 3 -9.1046 20.9986 66.7719 0.0000 15.0169 0.0000
# 4 0.0000 0.0000 0.0000 27.1031 0.0000 9.0795
# 5 13.5620 5.5781 15.0169 0.0000 52.6025 0.0000
# 6 0.0000 0.0000 0.0000 9.0795 0.0000 37.6558
#
#
#
# Elastic Compliance Matrix: (Units=1/GPa)
#
#
# Indices 1 2 3 4 5 6 
#
# 1 0.052120 -0.014781 0.015414 0.000000 -0.016271 0.000000
# 2 -0.014781 0.017670 -0.008557 0.000000 0.004380 0.000000
# 3 0.015414 -0.008557 0.021863 0.000000 -0.009308 0.000000
# 4 0.000000 0.000000 0.000000 0.040138 0.000000 -0.009678
# 5 -0.016271 0.004380 -0.009308 0.000000 0.025398 0.000000
# 6 0.000000 0.000000 0.000000 -0.009678 0.000000 0.028890
#
#
# Mechanical properties :
#
#
# Convention : Reuss Voigt Hill
#
# Bulk Modulus (GPa) = 13.19183 26.62447 19.90815
# Shear Modulus (GPa) = 22.00750 33.37816 27.69283
#
# Velocity S-wave (km/s) = 3.07139 3.78252 3.44535
# Velocity P-wave (km/s) = 4.26996 5.52169 4.93567
#
# Compressibility (1/GPa) = 0.07580452
#
# Stress axis : x y z
#
# Youngs Moduli (GPa) = 19.18639 56.59428 45.74004
#
# Poissons Ratio (x) = 0.83653 -0.70506
# Poissons Ratio (y) = 0.28360 0.39141
# Poissons Ratio (z) = -0.29575 0.48430
#
# Static dielectric constant tensor:
#      x y z
#    x 1.874390 0.000000 0.004310 
#    y 0.000000 1.899460 0.000000 
#    z 0.004310 0.000000 1.888290 
# 
# From -- ./inp_files/30560.got.cif
#   From: 2010.05.17/outbox.cif.g08.bks.cpg/sg15_16_cif.got.tgz:30560.got - 2010.06.03 18:47:42.
