data_PCOD9275488
_publ_section_title
;
Structure prediction by ZEFSAII (Michael W. Deem and Ramdas Pophale) SiO2 
 PCOD9275488
Probable space group: C 2/C
;
_chemical_formula_sum "Si O2"
_cell_formula_units_Z 48
_cell_length_a 10.458138
_cell_length_b 10.382280
_cell_length_c 20.005128
_cell_angle_alpha 90.000000
_cell_angle_beta 88.207245
_cell_angle_gamma 90.000000
_cell_volume 2171.079923
_symmetry_space_group_name_H-M "C 2/C"
_symmetry_group_IT_number 15
_symmetry_cell_setting 'monoclinic'
loop_
_space_group_symop_operation_xyz
x,y,z
-x,y,1/2-z
-x,-y,-z
x,-y,1/2+z
1/2+x,1/2+y,z
1/2-x,1/2+y,1/2-z
1/2-x,1/2-y,-z
1/2+x,1/2-y,1/2+z
loop_
_atom_site_type_symbol
_atom_site_label
_atom_site_fract_x
_atom_site_fract_y
_atom_site_fract_z
Si Si1 0.349558 0.415042 0.768277
Si Si2 0.388307 0.533238 0.907248
Si Si3 0.307700 0.070187 0.984038
Si Si4 0.647939 0.460430 0.362853
Si Si5 0.531436 0.819420 0.552857
Si Si6 0.908965 0.697913 0.191286
O O1 0.500000 0.382064 0.750000
O O2 0.345210 0.516483 0.830251
O O3 0.294886 0.455169 0.696547
O O4 0.242214 0.315633 0.794066
O O5 0.532204 0.473897 0.905382
O O6 0.404507 0.680390 0.934158
O O7 0.294475 0.453618 0.955949
O O8 0.241140 0.100119 0.915022
O O9 0.371759 0.929644 0.971614
O O10 0.414715 0.173796 0.002276
O O11 0.577037 0.349000 0.322806
O O12 0.463335 0.864705 0.622909
O O13 0.000000 0.657292 0.250000
#
# Coordination Sequence:
#
# PCOD9275488 Si02
#       6
#     8   8   8   8   8   8
#     4  10  21  41  62  88 120 161 211 257 310 375
#     4  10  20  39  62  88 119 166 205 253 312 377
#     4  11  21  39  58  94 125 158 206 258 314 378
#     4  10  22  37  62  88 121 159 206 255 309 377
#     4  10  22  37  62  89 123 162 203 258 316 381
#     4  11  21  40  64  86 119 166 206 256 318 374
#
# _framework density 22.108812
#
# number of rings (size 3 to 8) (size 9 to 14) (size 15 to 20)
#    0.000    1.667    1.667    4.500    0.000    2.667 
#    6.000    2.500    0.000    0.000    0.000    0.000 
#    0.000    0.000    0.000    0.000    0.000    0.000 
#
# Total GULP energy -133746.157490 kJ/mol
# GULP energy per Si atom -5572.756562 kJ/mol
# Density = 2.205849 g / cm^3
# Si number density = 22.108812 Si / 1000 Ang^3
#
#
#
# Elastic Constant Matrix: (Units=GPa)
#
#
# Indices 1 2 3 4 5 6 
#
# 1 74.2404 18.5728 41.2963 0.0000 -8.3915 0.0000
# 2 18.5728 47.1535 1.5979 0.0000 -11.3076 0.0000
# 3 41.2963 1.5979 110.5468 0.0000 0.0455 0.0000
# 4 0.0000 0.0000 0.0000 26.7865 0.0000 -5.3536
# 5 -8.3915 -11.3076 0.0455 0.0000 40.6179 0.0000
# 6 0.0000 0.0000 0.0000 -5.3536 0.0000 21.4008
#
#
#
# Elastic Compliance Matrix: (Units=1/GPa)
#
#
# Indices 1 2 3 4 5 6 
#
# 1 0.019412 -0.006901 -0.007153 0.000000 0.002097 0.000000
# 2 -0.006901 0.025190 0.002211 0.000000 0.005584 0.000000
# 3 -0.007153 0.002211 0.011686 0.000000 -0.000875 0.000000
# 4 0.000000 0.000000 0.000000 0.039297 0.000000 0.009830
# 5 0.002097 0.005584 -0.000875 0.000000 0.026609 0.000000
# 6 0.000000 0.000000 0.000000 0.009830 0.000000 0.049186
#
#
# Mechanical properties :
#
#
# Convention : Reuss Voigt Hill
#
# Bulk Modulus (GPa) = 30.67107 39.43051 35.05079
# Shear Modulus (GPa) = 24.27996 29.12597 26.70296
#
# Velocity S-wave (km/s) = 3.31751 3.63353 3.47911
# Velocity P-wave (km/s) = 5.34578 5.95624 5.65925
#
# Compressibility (1/GPa) = 0.03260402
#
# Stress axis : x y z
#
# Youngs Moduli (GPa) = 51.51501 39.69898 85.57019
#
# Poissons Ratio (x) = 0.27395 0.61206
# Poissons Ratio (y) = 0.35548 -0.18923
# Poissons Ratio (z) = 0.36847 -0.08779
#
# Static dielectric constant tensor:
#      x y z
#    x 1.885820 0.000000 -0.017790 
#    y 0.000000 1.817490 0.000000 
#    z -0.017790 0.000000 1.906060 
# 
# From -- ./inp_files/196133.got.cif
#   From: 2010.05.17/outbox.cif.g08.bks.cpg/sg15_99_cif.got.tgz:196133.got - 2010.06.03 18:47:42.
