data_PCOD9275989
_publ_section_title
;
Structure prediction by ZEFSAII (Michael W. Deem and Ramdas Pophale) SiO2 
 PCOD9275989
Probable space group: C 2/C
;
_chemical_formula_sum "Si O2"
_cell_formula_units_Z 44
_cell_length_a 8.936082
_cell_length_b 12.706627
_cell_length_c 17.485557
_cell_angle_alpha 90.000000
_cell_angle_beta 58.600179
_cell_angle_gamma 90.000000
_cell_volume 1694.677637
_symmetry_space_group_name_H-M "C 2/C"
_symmetry_group_IT_number 15
_symmetry_cell_setting 'monoclinic'
loop_
_space_group_symop_operation_xyz
x,y,z
-x,y,1/2-z
-x,-y,-z
x,-y,1/2+z
1/2+x,1/2+y,z
1/2-x,1/2+y,1/2-z
1/2-x,1/2-y,-z
1/2+x,1/2-y,1/2+z
loop_
_atom_site_type_symbol
_atom_site_label
_atom_site_fract_x
_atom_site_fract_y
_atom_site_fract_z
Si Si1 0.420832 0.208746 0.560687
Si Si2 0.586458 0.415819 0.570434
Si Si3 0.000000 0.878980 0.750000
Si Si4 0.724974 0.188214 0.744993
Si Si5 0.448317 0.815283 0.881950
Si Si6 0.289096 0.014798 0.878286
O O1 0.559397 0.293796 0.555345
O O2 0.349979 0.146884 0.654236
O O3 0.487344 0.166107 0.461617
O O4 0.247926 0.272960 0.579760
O O5 0.600549 0.437949 0.656468
O O6 0.401306 0.469985 0.597544
O O7 0.746942 0.454257 0.476962
O O8 0.866122 0.801279 0.743806
O O9 0.926125 0.224856 0.684958
O O10 0.683738 0.112131 0.685367
O O11 0.439321 0.927299 0.842507
#
# Coordination Sequence:
#
# PCOD9275989 Si02
#       6
#     8   8   4   8   8   8
#     4   9  19  37  65  93 128 179 217 259 353 391
#     4   9  19  40  59  89 129 166 207 279 325 389
#     4  10  24  42  62  86 132 176 208 264 350 388
#     4  11  22  42  64  95 132 177 214 278 334 395
#     4  10  20  39  66  96 132 173 223 277 329 402
#     4  10  21  38  67  94 126 166 225 275 325 396
#
# _framework density 25.963640000000002
#
# number of rings (size 3 to 8) (size 9 to 14) (size 15 to 20)
#    0.000    2.182    1.818    0.545    2.545    2.182 
#    9.818    0.909    0.000    0.000    0.000    0.000 
#    0.000    0.000    0.000    0.000    0.000    0.000 
#
# Total GULP energy -122996.070686 kJ/mol
# GULP energy per Si atom -5590.730486 kJ/mol
# Density = 2.590455 g / cm^3
# Si number density = 25.963640 Si / 1000 Ang^3
#
#
#
# Elastic Constant Matrix: (Units=GPa)
#
#
# Indices 1 2 3 4 5 6 
#
# 1 42.4391 11.3125 34.8200 0.0000 -0.6861 0.0000
# 2 11.3125 66.1487 53.3981 0.0000 2.2137 0.0000
# 3 34.8200 53.3981 235.4189 0.0000 43.3208 0.0000
# 4 0.0000 0.0000 0.0000 13.5811 0.0000 1.4433
# 5 -0.6861 2.2137 43.3208 0.0000 47.4838 0.0000
# 6 0.0000 0.0000 0.0000 1.4433 0.0000 30.4236
#
#
#
# Elastic Compliance Matrix: (Units=1/GPa)
#
#
# Indices 1 2 3 4 5 6 
#
# 1 0.027828 -0.001084 -0.004751 0.000000 0.004787 0.000000
# 2 -0.001084 0.019064 -0.004804 0.000000 0.003478 0.000000
# 3 -0.004751 -0.004804 0.007224 0.000000 -0.006436 0.000000
# 4 0.000000 0.000000 0.000000 0.074005 0.000000 -0.003511
# 5 0.004787 0.003478 -0.006436 0.000000 0.026838 0.000000
# 6 0.000000 0.000000 0.000000 -0.003511 0.000000 0.033036
#
#
# Mechanical properties :
#
#
# Convention : Reuss Voigt Hill
#
# Bulk Modulus (GPa) = 30.45205 60.34087 45.39646
# Shear Modulus (GPa) = 22.70466 34.59609 28.65038
#
# Velocity S-wave (km/s) = 2.96037 3.65428 3.32547
# Velocity P-wave (km/s) = 4.84141 6.41061 5.68046
#
# Compressibility (1/GPa) = 0.03283851
#
# Stress axis : x y z
#
# Youngs Moduli (GPa) = 35.93567 52.45382 138.42108
#
# Poissons Ratio (x) = 0.05686 0.65762
# Poissons Ratio (y) = 0.03896 0.66497
# Poissons Ratio (z) = 0.17073 0.25199
#
# Static dielectric constant tensor:
#      x y z
#    x 2.066720 0.000000 -0.015660 
#    y 0.000000 2.040770 0.000000 
#    z -0.015660 0.000000 2.162050 
# 
# From -- ./inp_files/197628.got.cif
#   From: 2010.05.17/outbox.cif.g08.bks.cpg/sg15_99_cif.got.tgz:197628.got - 2010.06.03 18:47:42.
