data_PCOD9275898
_publ_section_title
;
Structure prediction by ZEFSAII (Michael W. Deem and Ramdas Pophale) SiO2 
 PCOD9275898
Probable space group: C 2/C
;
_chemical_formula_sum "Si O2"
_cell_formula_units_Z 48
_cell_length_a 12.666960
_cell_length_b 20.608697
_cell_length_c 12.433602
_cell_angle_alpha 90.000000
_cell_angle_beta 44.628985
_cell_angle_gamma 90.000000
_cell_volume 2280.207460
_symmetry_space_group_name_H-M "C 2/C"
_symmetry_group_IT_number 15
_symmetry_cell_setting 'monoclinic'
loop_
_space_group_symop_operation_xyz
x,y,z
-x,y,1/2-z
-x,-y,-z
x,-y,1/2+z
1/2+x,1/2+y,z
1/2-x,1/2+y,1/2-z
1/2-x,1/2-y,-z
1/2+x,1/2-y,1/2+z
loop_
_atom_site_type_symbol
_atom_site_label
_atom_site_fract_x
_atom_site_fract_y
_atom_site_fract_z
Si Si1 0.261689 0.678906 0.630984
Si Si2 0.714190 0.923858 0.784379
Si Si3 0.571755 0.304273 0.813705
Si Si4 0.154702 0.066284 0.771346
Si Si5 0.362776 0.920929 0.428756
Si Si6 0.700445 0.551628 0.498806
O O1 0.430431 0.702859 0.493756
O O2 0.161224 0.737567 0.742658
O O3 0.273098 0.618034 0.701810
O O4 0.195586 0.649190 0.567924
O O5 0.825816 0.864574 0.727290
O O6 0.687423 0.922550 0.675211
O O7 0.791649 0.994046 0.739916
O O8 0.601932 0.922006 0.968997
O O9 0.500000 0.318619 0.750000
O O10 0.207960 0.082323 0.611718
O O11 0.972865 0.063540 0.909832
O O12 0.500000 0.936421 0.250000
O O13 0.236870 0.975616 0.495289
#
# Coordination Sequence:
#
# PCOD9275898 Si02
#       6
#     8   8   8   8   8   8
#     4  12  24  43  63  97 135 175 220 268 334 391
#     4  11  21  38  66  96 122 172 223 270 323 390
#     4  12  25  39  65 100 134 173 219 272 335 394
#     4  10  21  39  70  94 127 170 221 276 323 387
#     4  11  24  38  61  97 139 170 209 276 337 385
#     4  10  20  39  65  95 123 167 220 268 328 385
#
# _framework density 21.050715
#
# number of rings (size 3 to 8) (size 9 to 14) (size 15 to 20)
#    0.000    1.000    5.000    2.500    4.667    0.667 
#    0.000    0.833    0.000    0.000    0.000    0.000 
#    0.000    0.000    0.000    0.000    0.000    0.000 
#
# Total GULP energy -134050.739397 kJ/mol
# GULP energy per Si atom -5585.447475 kJ/mol
# Density = 2.100280 g / cm^3
# Si number density = 21.050715 Si / 1000 Ang^3
#
#
#
# Elastic Constant Matrix: (Units=GPa)
#
#
# Indices 1 2 3 4 5 6 
#
# 1 26.4611 18.3047 24.8818 0.0001 14.7185 -0.0001
# 2 18.3047 116.1414 30.8164 0.0000 -1.3919 0.0000
# 3 24.8818 30.8164 153.6577 0.0001 27.8984 -0.0001
# 4 0.0001 0.0000 0.0001 35.3573 -0.0001 -3.1337
# 5 14.7185 -1.3919 27.8984 -0.0001 28.0238 0.0001
# 6 -0.0001 0.0000 -0.0001 -3.1337 0.0001 15.7122
#
#
#
# Elastic Compliance Matrix: (Units=1/GPa)
#
#
# Indices 1 2 3 4 5 6 
#
# 1 0.064937 -0.009887 -0.002747 0.000000 -0.031862 0.000001
# 2 -0.009887 0.010779 -0.001954 0.000000 0.007673 0.000000
# 3 -0.002747 -0.001954 0.008667 0.000000 -0.007282 0.000000
# 4 0.000000 0.000000 0.000000 0.028792 0.000000 0.005742
# 5 -0.031862 0.007673 -0.007282 0.000000 0.060049 -0.000001
# 6 0.000001 0.000000 0.000000 0.005742 -0.000001 0.064790
#
#
# Mechanical properties :
#
#
# Convention : Reuss Voigt Hill
#
# Bulk Modulus (GPa) = 18.11421 49.36288 33.73854
# Shear Modulus (GPa) = 17.50748 30.63582 24.07165
#
# Velocity S-wave (km/s) = 2.88702 3.81902 3.38525
# Velocity P-wave (km/s) = 4.44262 6.55339 5.59839
#
# Compressibility (1/GPa) = 0.05520527
#
# Stress axis : x y z
#
# Youngs Moduli (GPa) = 15.39959 92.77374 115.38183
#
# Poissons Ratio (x) = 0.91729 0.31700
# Poissons Ratio (y) = 0.15226 0.22544
# Poissons Ratio (z) = 0.04231 0.18127
#
# Static dielectric constant tensor:
#      x y z
#    x 1.766460 0.000000 0.013260 
#    y 0.000000 1.704520 0.000000 
#    z 0.013260 0.000000 1.857840 
# 
# From -- ./inp_files/99983.got.cif
#   From: 2010.05.17/outbox.cif.g08.bks.cpg/sg15_50_cif.got.tgz:99983.got - 2010.06.03 18:47:42.
