data_PCOD9275442
_publ_section_title
;
Structure prediction by ZEFSAII (Michael W. Deem and Ramdas Pophale) SiO2 
 PCOD9275442
Probable space group: C 2/C
;
_chemical_formula_sum "Si O2"
_cell_formula_units_Z 64
_cell_length_a 16.194670
_cell_length_b 19.074811
_cell_length_c 17.535559
_cell_angle_alpha 90.000000
_cell_angle_beta 29.764876
_cell_angle_gamma 90.000000
_cell_volume 2689.183216
_symmetry_space_group_name_H-M "C 2/C"
_symmetry_group_IT_number 15
_symmetry_cell_setting 'monoclinic'
loop_
_space_group_symop_operation_xyz
x,y,z
-x,y,1/2-z
-x,-y,-z
x,-y,1/2+z
1/2+x,1/2+y,z
1/2-x,1/2+y,1/2-z
1/2-x,1/2-y,-z
1/2+x,1/2-y,1/2+z
loop_
_atom_site_type_symbol
_atom_site_label
_atom_site_fract_x
_atom_site_fract_y
_atom_site_fract_z
Si Si1 0.605284 0.788179 0.573054
Si Si2 0.257858 0.995900 0.886257
Si Si3 0.603910 0.051784 0.069128
Si Si4 0.833106 0.228479 0.356719
Si Si5 0.794345 0.847057 0.125420
Si Si6 0.222093 0.239753 0.710262
Si Si7 0.582092 0.505050 0.769842
Si Si8 0.338911 0.642528 0.220118
O O1 0.750000 0.750000 0.500000
O O2 0.611187 0.868634 0.591386
O O3 0.629257 0.784338 0.462418
O O4 0.435098 0.746993 0.718381
O O5 0.231019 0.071430 0.869535
O O6 0.335261 0.997671 0.909805
O O7 0.406360 0.962074 0.716556
O O8 0.072431 0.964104 0.054521
O O9 0.744095 0.043631 0.890815
O O10 0.750000 0.250000 0.500000
O O11 0.851313 0.301096 0.296342
O O12 0.748123 0.176991 0.365777
O O13 0.000000 0.191668 0.250000
O O14 0.803822 0.817076 0.202841
O O15 0.970282 0.830185 0.943104
O O16 0.253514 0.318241 0.717893
O O17 0.500000 0.491082 0.750000
O O18 0.639360 0.437988 0.774378
#
# Coordination Sequence:
#
# PCOD9275442 Si02
#       8
#     8   8   8   8   8   8   8   8
#     4  12  28  49  78 100 130 180 244 320 360 422
#     4   9  21  38  68 101 143 181 226 284 353 438
#     4  10  23  43  68 107 138 178 245 298 355 422
#     4  11  21  28  52  92 135 189 243 273 320 407
#     4  10  21  40  62  97 147 189 221 288 358 429
#     4  11  25  46  69 102 139 182 239 297 365 434
#     4   9  19  37  67 100 144 194 230 285 348 432
#     4  10  20  39  61  93 146 190 229 286 355 428
#
# _framework density 23.799047999999999
#
# number of rings (size 3 to 8) (size 9 to 14) (size 15 to 20)
#    0.000    1.750    2.500    0.750    8.750    4.000 
#    0.000    2.500    0.000    3.750    0.000    0.000 
#    0.000    0.000    0.000    0.000    0.000    0.000 
#
# Total GULP energy -178257.631841 kJ/mol
# GULP energy per Si atom -5570.550995 kJ/mol
# Density = 2.374488 g / cm^3
# Si number density = 23.799048 Si / 1000 Ang^3
#
#
#
# Elastic Constant Matrix: (Units=GPa)
#
#
# Indices 1 2 3 4 5 6 
#
# 1 76.7934 25.3730 23.1796 0.0097 -2.0911 0.0070
# 2 25.3730 82.2242 40.5578 -0.0504 -7.5330 -0.0209
# 3 23.1796 40.5578 163.5671 -0.0155 0.3527 -0.0136
# 4 0.0097 -0.0504 -0.0155 -40.1404 0.0128 -45.0757
# 5 -2.0911 -7.5330 0.3527 0.0128 28.8663 0.0192
# 6 0.0070 -0.0209 -0.0136 -45.0757 0.0192 -9.2306
#
#
#
# Elastic Compliance Matrix: (Units=1/GPa)
#
#
# Indices 1 2 3 4 5 6 
#
# 1 0.014669 -0.003985 -0.001091 0.000003 0.000036 0.000005
# 2 -0.003985 0.015337 -0.003246 -0.000002 0.003753 -0.000014
# 3 -0.001091 -0.003246 0.007075 -0.000002 -0.001013 0.000002
# 4 0.000003 -0.000002 -0.000002 0.005556 0.000015 -0.027133
# 5 0.000036 0.003753 -0.001013 0.000015 0.035637 -0.000007
# 6 0.000005 -0.000014 0.000002 -0.027133 -0.000007 0.024162
#
#
# Mechanical properties :
#
#
# Convention : Reuss Voigt Hill
#
# Bulk Modulus (GPa) = 48.93160 55.64504 52.28832
# Shear Modulus (GPa) = 39.71633 11.46401 25.59017
#
# Velocity S-wave (km/s) = 4.08955 2.19715 3.28267
# Velocity P-wave (km/s) = 6.55013 5.46522 6.03211
#
# Compressibility (1/GPa) = 0.02043669
#
# Stress axis : x y z
#
# Youngs Moduli (GPa) = 68.17139 65.20288 141.33549
#
# Poissons Ratio (x) = 0.25985 0.15415
# Poissons Ratio (y) = 0.27168 0.45880
# Poissons Ratio (z) = 0.07435 0.21166
#
# Static dielectric constant tensor:
#      x y z
#    x 1.497580 0.000070 -0.101970 
#    y 0.000070 1.857580 0.000030 
#    z -0.101970 0.000030 1.991190 
# 
# From -- ./inp_files/211970.got.cif
#   From: 2010.05.17/outbox.cif.g08.bks.cpg/sg15_106_cif.got.tgz:211970.got - 2010.06.03 18:47:42.
