data_PCOD9275219
_publ_section_title
;
Structure prediction by ZEFSAII (Michael W. Deem and Ramdas Pophale) SiO2 
 PCOD9275219
Probable space group: C 2/C
;
_chemical_formula_sum "Si O2"
_cell_formula_units_Z 56
_cell_length_a 14.214089
_cell_length_b 25.430263
_cell_length_c 14.727651
_cell_angle_alpha 90.000000
_cell_angle_beta 148.694867
_cell_angle_gamma 90.000000
_cell_volume 2766.106392
_symmetry_space_group_name_H-M "C 2/C"
_symmetry_group_IT_number 15
_symmetry_cell_setting 'monoclinic'
loop_
_space_group_symop_operation_xyz
x,y,z
-x,y,1/2-z
-x,-y,-z
x,-y,1/2+z
1/2+x,1/2+y,z
1/2-x,1/2+y,1/2-z
1/2-x,1/2-y,-z
1/2+x,1/2-y,1/2+z
loop_
_atom_site_type_symbol
_atom_site_label
_atom_site_fract_x
_atom_site_fract_y
_atom_site_fract_z
Si Si1 0.638467 0.073645 0.175442
Si Si2 0.213837 0.513760 0.580267
Si Si3 0.000000 0.542998 0.750000
Si Si4 0.294941 0.824627 0.880290
Si Si5 0.194966 0.108211 0.583633
Si Si6 0.123137 0.714496 0.761425
Si Si7 0.000000 0.116289 0.250000
Si Si8 0.018036 0.049179 0.946707
O O1 0.684106 0.132173 0.180125
O O2 0.769981 0.062241 0.369592
O O3 0.683401 0.032483 0.130639
O O4 0.430334 0.060682 0.022826
O O5 0.145169 0.489107 0.429151
O O6 0.413296 0.534917 0.768637
O O7 0.885927 0.579191 0.725668
O O8 0.202611 0.768344 0.788530
O O9 0.170588 0.851023 0.855040
O O10 0.490732 0.812346 0.080988
O O11 0.223799 0.170565 0.594431
O O12 0.068929 0.087827 0.397026
O O13 0.098793 0.093976 0.597737
O O14 0.000000 0.724209 0.750000
O O15 0.000000 0.000000 0.000000
#
# Coordination Sequence:
#
# PCOD9275219 Si02
#       8
#     8   8   4   8   8   8   4   8
#     4  10  20  39  55  75 109 148 188 229 278 329
#     4  10  21  38  55  79 106 142 190 233 283 334
#     4  12  22  35  56  80 110 146 187 236 278 332
#     4  12  22  34  50  73 108 148 186 230 264 312
#     4  12  22  34  53  75 108 153 186 227 274 320
#     4  12  22  34  47  72 109 148 191 225 263 312
#     4  12  20  31  48  74 102 142 193 222 252 312
#     4  10  21  35  56  76 104 148 187 233 281 330
#
# _framework density 20.245062999999998
#
# number of rings (size 3 to 8) (size 9 to 14) (size 15 to 20)
#    0.000    0.857    4.286    6.429    2.000    0.000 
#    0.000    0.000    0.000    0.000    0.000    0.000 
#    0.000    4.571    0.000    0.143    0.000    0.000 
#
# Total GULP energy -156389.960561 kJ/mol
# GULP energy per Si atom -5585.355734 kJ/mol
# Density = 2.019898 g / cm^3
# Si number density = 20.245063 Si / 1000 Ang^3
#
#
#
# Elastic Constant Matrix: (Units=GPa)
#
#
# Indices 1 2 3 4 5 6 
#
# 1 40.5282 32.3401 19.9365 0.0000 -0.6153 0.0000
# 2 32.3401 106.1965 36.4936 0.0000 2.6629 0.0000
# 3 19.9365 36.4936 155.5623 -0.0001 -8.7092 0.0000
# 4 0.0000 0.0000 -0.0001 18.8327 0.0000 5.2088
# 5 -0.6153 2.6629 -8.7092 0.0000 18.8561 0.0000
# 6 0.0000 0.0000 0.0000 5.2088 0.0000 28.7103
#
#
#
# Elastic Compliance Matrix: (Units=1/GPa)
#
#
# Indices 1 2 3 4 5 6 
#
# 1 0.033226 -0.009487 -0.001947 0.000000 0.001525 0.000000
# 2 -0.009487 0.013079 -0.002026 0.000000 -0.003092 0.000000
# 3 -0.001947 -0.002026 0.007356 0.000000 0.003620 0.000000
# 4 0.000000 0.000000 0.000000 0.055904 0.000000 -0.010142
# 5 0.001525 -0.003092 0.003620 0.000000 0.055192 0.000000
# 6 0.000000 0.000000 0.000000 -0.010142 0.000000 0.036671
#
#
# Mechanical properties :
#
#
# Convention : Reuss Voigt Hill
#
# Bulk Modulus (GPa) = 37.39624 53.31417 45.35520
# Shear Modulus (GPa) = 21.07384 27.51428 24.29406
#
# Velocity S-wave (km/s) = 3.22986 3.69054 3.46786
# Velocity P-wave (km/s) = 5.69396 6.67471 6.20375
#
# Compressibility (1/GPa) = 0.02674065
#
# Stress axis : x y z
#
# Youngs Moduli (GPa) = 30.09713 76.45666 135.94965
#
# Poissons Ratio (x) = 0.72537 0.26471
# Poissons Ratio (y) = 0.28554 0.27537
# Poissons Ratio (z) = 0.05860 0.15487
#
# Static dielectric constant tensor:
#      x y z
#    x 1.739830 0.000000 0.009050 
#    y 0.000000 1.757310 0.000000 
#    z 0.009050 0.000000 1.789270 
# 
# From -- ./inp_files/157258.got.cif
#   From: 2010.05.17/outbox.cif.g08.bks.cpg/sg15_79_cif.got.tgz:157258.got - 2010.06.03 18:47:42.
