data_PCOD9275396
_publ_section_title
;
Structure prediction by ZEFSAII (Michael W. Deem and Ramdas Pophale) SiO2 
 PCOD9275396
Probable space group: C 2/C
;
_chemical_formula_sum "Si O2"
_cell_formula_units_Z 52
_cell_length_a 30.425965
_cell_length_b 14.523396
_cell_length_c 9.827646
_cell_angle_alpha 90.000000
_cell_angle_beta 38.045790
_cell_angle_gamma 90.000000
_cell_volume 2676.380783
_symmetry_space_group_name_H-M "C 2/C"
_symmetry_group_IT_number 15
_symmetry_cell_setting 'monoclinic'
loop_
_space_group_symop_operation_xyz
x,y,z
-x,y,1/2-z
-x,-y,-z
x,-y,1/2+z
1/2+x,1/2+y,z
1/2-x,1/2+y,1/2-z
1/2-x,1/2-y,-z
1/2+x,1/2-y,1/2+z
loop_
_atom_site_type_symbol
_atom_site_label
_atom_site_fract_x
_atom_site_fract_y
_atom_site_fract_z
Si Si1 0.328352 0.491139 0.712928
Si Si2 0.212468 0.212718 0.224146
Si Si3 0.939992 0.209639 0.794846
Si Si4 0.569195 0.108900 0.314897
Si Si5 0.419818 0.479385 0.237953
Si Si6 0.266313 0.827609 0.070775
Si Si7 0.000000 0.516069 0.750000
O O1 0.285991 0.398815 0.772335
O O2 0.394725 0.506433 0.449349
O O3 0.363389 0.475954 0.773951
O O4 0.281088 0.581823 0.829110
O O5 0.128059 0.234680 0.446261
O O6 0.247644 0.270894 0.258141
O O7 0.250000 0.250000 0.000000
O O8 0.967953 0.296118 0.642228
O O9 0.913771 0.131510 0.755512
O O10 0.000000 0.172467 0.750000
O O11 0.551852 0.043068 0.225987
O O12 0.542299 0.071864 0.527482
O O13 0.652065 0.136302 0.127087
O O14 0.500000 0.500000 0.000000
O O15 0.250000 0.750000 0.000000
#
# Coordination Sequence:
#
# PCOD9275396 Si02
#       7
#     8   8   8   8   8   8   4
#     4  11  22  40  62  89 125 162 204 262 314 378
#     4  10  22  39  61  90 120 163 213 251 319 385
#     4  10  20  39  61  86 126 159 197 265 312 365
#     4  10  22  42  63  93 125 167 211 272 316 382
#     4  11  22  39  62  89 121 160 205 252 312 377
#     4  11  24  42  62  91 132 166 210 268 329 387
#     4  10  22  42  66  94 124 168 228 260 332 384
#
# _framework density 19.429224000000001
#
# number of rings (size 3 to 8) (size 9 to 14) (size 15 to 20)
#    0.000    1.538    0.769    6.000    0.000    4.923 
#    8.308    0.000    0.000    0.000    0.000    0.000 
#    0.000    0.000    0.000    0.000    0.000    0.000 
#
# Total GULP energy -144861.810223 kJ/mol
# GULP energy per Si atom -5571.608085 kJ/mol
# Density = 1.938500 g / cm^3
# Si number density = 19.429224 Si / 1000 Ang^3
#
#
#
# Elastic Constant Matrix: (Units=GPa)
#
#
# Indices 1 2 3 4 5 6 
#
# 1 75.0955 32.4815 38.6737 0.0000 12.5416 0.0000
# 2 32.4815 116.0866 53.2735 0.0000 2.2218 0.0000
# 3 38.6737 53.2735 115.4975 0.0000 21.7946 0.0000
# 4 0.0000 0.0000 0.0000 27.6966 0.0000 -1.4659
# 5 12.5416 2.2218 21.7946 0.0000 35.9906 0.0000
# 6 0.0000 0.0000 0.0000 -1.4659 0.0000 34.7067
#
#
#
# Elastic Compliance Matrix: (Units=1/GPa)
#
#
# Indices 1 2 3 4 5 6 
#
# 1 0.017109 -0.003042 -0.003653 0.000000 -0.003562 0.000000
# 2 -0.003042 0.011703 -0.005016 0.000000 0.003375 0.000000
# 3 -0.003653 -0.005016 0.013431 0.000000 -0.006551 0.000000
# 4 0.000000 0.000000 0.000000 0.036186 0.000000 0.001528
# 5 -0.003562 0.003375 -0.006551 0.000000 0.032785 0.000000
# 6 0.000000 0.000000 0.000000 0.001528 0.000000 0.028877
#
#
# Mechanical properties :
#
#
# Convention : Reuss Voigt Hill
#
# Bulk Modulus (GPa) = 53.13749 61.72634 57.43191
# Shear Modulus (GPa) = 29.44844 31.82883 30.63863
#
# Velocity S-wave (km/s) = 3.89739 4.05185 3.97537
# Velocity P-wave (km/s) = 6.90373 7.32999 7.12005
#
# Compressibility (1/GPa) = 0.01881911
#
# Stress axis : x y z
#
# Youngs Moduli (GPa) = 58.45026 85.44876 74.45240
#
# Poissons Ratio (x) = 0.25996 0.27200
# Poissons Ratio (y) = 0.17782 0.37347
# Poissons Ratio (z) = 0.21354 0.42863
#
# Static dielectric constant tensor:
#      x y z
#    x 1.721990 0.000000 0.039960 
#    y 0.000000 1.721060 0.000000 
#    z 0.039960 0.000000 1.691430 
# 
# From -- ./inp_files/70064.got.cif
#   From: 2010.05.17/outbox.cif.g08.bks.cpg/sg15_36_cif.got.tgz:70064.got - 2010.06.03 18:47:42.
