data_PCOD9275704
_publ_section_title
;
Structure prediction by ZEFSAII (Michael W. Deem and Ramdas Pophale) SiO2 
 PCOD9275704
Probable space group: C 2/C
;
_chemical_formula_sum "Si O2"
_cell_formula_units_Z 48
_cell_length_a 14.413467
_cell_length_b 29.542539
_cell_length_c 5.253647
_cell_angle_alpha 90.000000
_cell_angle_beta 126.697071
_cell_angle_gamma 90.000000
_cell_volume 1793.686631
_symmetry_space_group_name_H-M "C 2/C"
_symmetry_group_IT_number 15
_symmetry_cell_setting 'monoclinic'
loop_
_space_group_symop_operation_xyz
x,y,z
-x,y,1/2-z
-x,-y,-z
x,-y,1/2+z
1/2+x,1/2+y,z
1/2-x,1/2+y,1/2-z
1/2-x,1/2-y,-z
1/2+x,1/2-y,1/2+z
loop_
_atom_site_type_symbol
_atom_site_label
_atom_site_fract_x
_atom_site_fract_y
_atom_site_fract_z
Si Si1 0.000000 0.350286 0.750000
Si Si2 0.869932 0.515439 0.689069
Si Si3 0.500000 0.467977 0.250000
Si Si4 0.890033 0.105353 0.875691
Si Si5 0.871440 0.298371 0.909631
Si Si6 0.174789 0.387568 0.392027
Si Si7 0.074046 0.793867 0.125354
O O1 0.896583 0.319123 0.675365
O O2 0.948065 0.380769 0.448832
O O3 0.816151 0.483517 0.384528
O O4 0.849713 0.564073 0.521665
O O5 0.000000 0.500000 0.000000
O O6 0.500000 0.500000 0.500000
O O7 0.599331 0.431610 0.331229
O O8 0.778552 0.104659 0.869326
O O9 0.887073 0.155558 0.748883
O O10 0.000000 0.099547 0.250000
O O11 0.838938 0.246068 0.823431
O O12 0.805485 0.338787 0.942490
O O13 0.000000 0.296224 0.250000
O O14 0.000000 0.777853 0.250000
O O15 0.000000 0.800730 0.750000
#
# Coordination Sequence:
#
# PCOD9275704 Si02
#       7
#     4   8   4   8   8   8   8
#     4  10  20  39  64 102 146 186 237 302 370 452
#     4  10  23  41  63  94 134 181 224 287 356 436
#     4  12  26  51  80 106 144 194 259 318 376 438
#     4  11  26  49  75 104 148 197 251 317 373 445
#     4   9  20  37  67 102 147 194 238 304 368 457
#     4  11  25  41  71 107 141 193 250 308 380 452
#     4  10  20  42  71 102 147 195 247 300 377 447
#
# _framework density 26.760528000000001
#
# number of rings (size 3 to 8) (size 9 to 14) (size 15 to 20)
#    0.000    1.667    2.500    1.000    9.333    3.333 
#    0.000    0.833    0.000    0.000    0.000    0.000 
#    0.000    0.000    0.000    0.000    0.000    0.000 
#
# Total GULP energy -133847.926691 kJ/mol
# GULP energy per Si atom -5576.996945 kJ/mol
# Density = 2.669962 g / cm^3
# Si number density = 26.760528 Si / 1000 Ang^3
#
#
#
# Elastic Constant Matrix: (Units=GPa)
#
#
# Indices 1 2 3 4 5 6 
#
# 1 117.1724 82.3123 17.1353 0.0000 -26.5388 0.0000
# 2 82.3123 248.0048 29.5636 0.0000 -10.0055 0.0000
# 3 17.1353 29.5636 132.1618 0.0000 -14.6872 0.0000
# 4 0.0000 0.0000 0.0000 -15.6116 0.0000 -29.6922
# 5 -26.5388 -10.0055 -14.6872 0.0000 43.7994 0.0000
# 6 0.0000 0.0000 0.0000 -29.6922 0.0000 46.4776
#
#
#
# Elastic Compliance Matrix: (Units=1/GPa)
#
#
# Indices 1 2 3 4 5 6 
#
# 1 0.012915 -0.004006 -0.000011 0.000000 0.006906 0.000000
# 2 -0.004006 0.005404 -0.000854 0.000000 -0.001479 0.000000
# 3 -0.000011 -0.000854 0.008036 0.000000 0.002493 0.000000
# 4 0.000000 0.000000 0.000000 -0.028918 0.000000 -0.018474
# 5 0.006906 -0.001479 0.002493 0.000000 0.027514 0.000000
# 6 0.000000 0.000000 0.000000 -0.018474 0.000000 0.009713
#
#
# Mechanical properties :
#
#
# Convention : Reuss Voigt Hill
#
# Bulk Modulus (GPa) = 60.19476 83.92907 72.06191
# Shear Modulus (GPa) = 100.11250 39.48825 69.80038
#
# Velocity S-wave (km/s) = 6.12305 3.84554 5.11273
# Velocity P-wave (km/s) = 8.51655 7.15183 7.86385
#
# Compressibility (1/GPa) = 0.01661274
#
# Stress axis : x y z
#
# Youngs Moduli (GPa) = 77.43072 185.04771 124.44121
#
# Poissons Ratio (x) = 0.74139 0.00133
# Poissons Ratio (y) = 0.31022 0.10625
# Poissons Ratio (z) = 0.00083 0.15799
#
# Static dielectric constant tensor:
#      x y z
#    x 2.485270 0.000000 -0.020210 
#    y 0.000000 2.181000 0.000000 
#    z -0.020210 0.000000 1.981240 
# 
# From -- ./inp_files/9175.got.cif
#   From: 2010.05.17/outbox.cif.g08.bks.cpg/sg15_5_cif.got.tgz:9175.got - 2010.06.03 18:47:42.
