data_PCOD9275424
_publ_section_title
;
Structure prediction by ZEFSAII (Michael W. Deem and Ramdas Pophale) SiO2 
 PCOD9275424
Probable space group: C 2/C
;
_chemical_formula_sum "Si O2"
_cell_formula_units_Z 48
_cell_length_a 9.911584
_cell_length_b 18.472400
_cell_length_c 14.543218
_cell_angle_alpha 90.000000
_cell_angle_beta 140.188477
_cell_angle_gamma 90.000000
_cell_volume 1704.849800
_symmetry_space_group_name_H-M "C 2/C"
_symmetry_group_IT_number 15
_symmetry_cell_setting 'monoclinic'
loop_
_space_group_symop_operation_xyz
x,y,z
-x,y,1/2-z
-x,-y,-z
x,-y,1/2+z
1/2+x,1/2+y,z
1/2-x,1/2+y,1/2-z
1/2-x,1/2-y,-z
1/2+x,1/2-y,1/2+z
loop_
_atom_site_type_symbol
_atom_site_label
_atom_site_fract_x
_atom_site_fract_y
_atom_site_fract_z
Si Si1 0.308930 0.965949 0.207933
Si Si2 0.670688 0.283056 0.780892
Si Si3 0.189018 0.869254 0.420044
Si Si4 0.451513 0.569446 0.101535
Si Si5 0.559522 0.897130 0.498614
Si Si6 0.265782 0.790390 0.628867
O O1 0.500000 0.003138 0.250000
O O2 0.411249 0.912085 0.334882
O O3 0.185389 0.926459 0.062004
O O4 0.140369 0.015427 0.173838
O O5 0.500000 0.239464 0.750000
O O6 0.549366 0.354228 0.678764
O O7 0.753748 0.259565 0.727635
O O8 0.849524 0.315874 0.940453
O O9 0.407517 0.910801 0.507103
O O10 0.143646 0.853620 0.505506
O O11 0.244421 0.787254 0.423569
O O12 0.000000 0.891357 0.250000
O O13 0.273473 0.556749 0.087797
O O14 0.500000 0.821552 0.750000
#
# Coordination Sequence:
#
# PCOD9275424 Si02
#       6
#     8   8   8   8   8   8
#     4   9  19  38  61  90 125 166 221 271 324 388
#     4  10  21  38  61  91 125 167 212 263 328 385
#     4  10  22  38  63  96 125 169 222 264 317 395
#     4   9  20  38  61  86 125 168 212 270 328 380
#     4  10  20  39  61  90 127 162 214 267 325 385
#     4  10  20  40  65  89 133 172 214 260 323 394
#
# _framework density 28.154972999999998
#
# number of rings (size 3 to 8) (size 9 to 14) (size 15 to 20)
#    0.000    2.333    1.667    0.000    2.333    1.333 
#    0.000   10.000    0.000    0.000    0.000    0.000 
#    0.000    0.000    0.000    0.000    0.000    0.000 
#
# Total GULP energy -133795.387148 kJ/mol
# GULP energy per Si atom -5574.807798 kJ/mol
# Density = 2.809089 g / cm^3
# Si number density = 28.154973 Si / 1000 Ang^3
#
#
#
# Elastic Constant Matrix: (Units=GPa)
#
#
# Indices 1 2 3 4 5 6 
#
# 1 180.7250 22.1775 52.3687 0.0009 -1.9010 0.0005
# 2 22.1775 44.0223 13.0705 0.0005 7.2545 0.0004
# 3 52.3687 13.0705 129.7917 0.0017 14.2442 0.0009
# 4 0.0009 0.0005 0.0017 16.5401 0.0013 7.9882
# 5 -1.9010 7.2545 14.2442 0.0013 51.7851 0.0008
# 6 0.0005 0.0004 0.0009 7.9882 0.0008 4.9173
#
#
#
# Elastic Compliance Matrix: (Units=1/GPa)
#
#
# Indices 1 2 3 4 5 6 
#
# 1 0.006627 -0.002805 -0.002538 0.000000 0.001334 0.000000
# 2 -0.002805 0.024979 -0.001019 0.000002 -0.003322 -0.000004
# 3 -0.002538 -0.001019 0.009101 -0.000001 -0.002454 0.000000
# 4 0.000000 0.000002 -0.000001 0.280644 0.000000 -0.455907
# 5 0.001334 -0.003322 -0.002454 0.000000 0.020500 -0.000003
# 6 0.000000 -0.000004 0.000000 -0.455907 -0.000003 0.943985
#
#
# Mechanical properties :
#
#
# Convention : Reuss Voigt Hill
#
# Bulk Modulus (GPa) = 35.73658 58.86359 47.30008
# Shear Modulus (GPa) = 3.82296 32.44331 18.13314
#
# Velocity S-wave (km/s) = 1.16652 3.39825 2.54056
# Velocity P-wave (km/s) = 3.81244 6.02909 5.04404
#
# Compressibility (1/GPa) = 0.02798253
#
# Stress axis : x y z
#
# Youngs Moduli (GPa) = 150.90061 40.03389 109.88385
#
# Poissons Ratio (x) = 0.11229 0.27886
# Poissons Ratio (y) = 0.42326 0.11199
# Poissons Ratio (z) = 0.38296 0.04080
#
# Static dielectric constant tensor:
#      x y z
#    x 3.483050 0.000000 -0.078150 
#    y 0.000000 2.171470 0.000000 
#    z -0.078150 0.000000 2.228310 
# 
# From -- ./inp_files/139034.got.cif
#   From: 2010.05.17/outbox.cif.g08.bks.cpg/sg15_70_cif.got.tgz:139034.got - 2010.06.03 18:47:42.
