data_PCOD9275374
_publ_section_title
;
Structure prediction by ZEFSAII (Michael W. Deem and Ramdas Pophale) SiO2 
 PCOD9275374
Probable space group: C 2/C
;
_chemical_formula_sum "Si O2"
_cell_formula_units_Z 44
_cell_length_a 19.379765
_cell_length_b 9.683047
_cell_length_c 12.274468
_cell_angle_alpha 90.000000
_cell_angle_beta 55.963663
_cell_angle_gamma 90.000000
_cell_volume 1908.760904
_symmetry_space_group_name_H-M "C 2/C"
_symmetry_group_IT_number 15
_symmetry_cell_setting 'monoclinic'
loop_
_space_group_symop_operation_xyz
x,y,z
-x,y,1/2-z
-x,-y,-z
x,-y,1/2+z
1/2+x,1/2+y,z
1/2-x,1/2+y,1/2-z
1/2-x,1/2-y,-z
1/2+x,1/2-y,1/2+z
loop_
_atom_site_type_symbol
_atom_site_label
_atom_site_fract_x
_atom_site_fract_y
_atom_site_fract_z
Si Si1 0.304893 0.869069 0.096031
Si Si2 0.828771 0.676537 0.992969
Si Si3 0.936557 0.026205 0.154267
Si Si4 0.000000 0.736433 0.750000
Si Si5 0.148736 0.849706 0.097244
Si Si6 0.298130 0.436835 0.131238
O O1 0.218807 0.804612 0.123323
O O2 0.289797 0.888454 0.238919
O O3 0.370067 0.770848 0.974415
O O4 0.310407 0.025705 0.052055
O O5 0.915859 0.659052 0.854244
O O6 0.750000 0.750000 0.000000
O O7 0.845118 0.792460 0.070444
O O8 0.922481 0.914427 0.263379
O O9 0.845859 0.029543 0.178392
O O10 0.968417 0.163346 0.182307
O O11 0.000000 0.000000 0.000000
O O12 0.189046 0.973596 0.988903
#
# Coordination Sequence:
#
# PCOD9275374 Si02
#       6
#     8   8   8   4   8   8
#     4  10  22  36  63  95 132 170 220 274 339 394
#     4  12  22  42  65  95 134 176 220 280 336 401
#     4  11  20  38  64  95 127 169 223 273 328 394
#     4  12  24  42  66 100 136 174 226 284 332 406
#     4  10  20  39  60  97 129 170 224 278 322 405
#     4  11  20  38  68  95 127 175 224 273 333 407
#
# _framework density 23.051603
#
# number of rings (size 3 to 8) (size 9 to 14) (size 15 to 20)
#    0.000    1.091    5.455    2.182    0.000    0.000 
#    0.000    2.727    0.000    3.273    0.000    0.000 
#    0.000    0.000    0.000    0.000    0.000    0.000 
#
# Total GULP energy -122515.037975 kJ/mol
# GULP energy per Si atom -5568.865363 kJ/mol
# Density = 2.299914 g / cm^3
# Si number density = 23.051603 Si / 1000 Ang^3
#
#
#
# Elastic Constant Matrix: (Units=GPa)
#
#
# Indices 1 2 3 4 5 6 
#
# 1 57.9894 -16.3028 17.2135 0.0000 -6.8632 0.0000
# 2 -16.3028 107.2151 48.6814 0.0000 -8.2385 0.0000
# 3 17.2135 48.6814 189.4176 0.0000 -21.9057 0.0000
# 4 0.0000 0.0000 0.0000 13.0818 0.0000 -7.2800
# 5 -6.8632 -8.2385 -21.9057 0.0000 36.8822 0.0000
# 6 0.0000 0.0000 0.0000 -7.2800 0.0000 17.1786
#
#
#
# Elastic Compliance Matrix: (Units=1/GPa)
#
#
# Indices 1 2 3 4 5 6 
#
# 1 0.019598 0.004375 -0.002545 0.000000 0.003112 0.000000
# 2 0.004375 0.011558 -0.003195 0.000000 0.001498 0.000000
# 3 -0.002545 -0.003195 0.006651 0.000000 0.002763 0.000000
# 4 0.000000 0.000000 0.000000 0.100034 0.000000 0.042393
# 5 0.003112 0.001498 0.002763 0.000000 0.029668 0.000000
# 6 0.000000 0.000000 0.000000 0.042393 0.000000 0.076177
#
#
# Mechanical properties :
#
#
# Convention : Reuss Voigt Hill
#
# Bulk Modulus (GPa) = 28.50848 50.42291 39.46570
# Shear Modulus (GPa) = 19.37158 33.76386 26.56772
#
# Velocity S-wave (km/s) = 2.90204 3.83130 3.39858
# Velocity P-wave (km/s) = 4.86037 6.44153 5.70598
#
# Compressibility (1/GPa) = 0.03507728
#
# Stress axis : x y z
#
# Youngs Moduli (GPa) = 51.02445 86.51991 150.34676
#
# Poissons Ratio (x) = -0.37853 0.38271
# Poissons Ratio (y) = -0.22323 0.48032
# Poissons Ratio (z) = 0.12988 0.27641
#
# Static dielectric constant tensor:
#      x y z
#    x 2.111900 0.000000 0.014810 
#    y 0.000000 1.895700 0.000000 
#    z 0.014810 0.000000 2.050920 
# 
# From -- ./inp_files/116677.got.cif
#   From: 2010.05.17/outbox.cif.g08.bks.cpg/sg15_59_cif.got.tgz:116677.got - 2010.06.03 18:47:42.
