data_PCOD9275529
_publ_section_title
;
Structure prediction by ZEFSAII (Michael W. Deem and Ramdas Pophale) SiO2 
 PCOD9275529
Probable space group: C 2/C
;
_chemical_formula_sum "Si O2"
_cell_formula_units_Z 48
_cell_length_a 7.577095
_cell_length_b 24.928139
_cell_length_c 12.857300
_cell_angle_alpha 90.000000
_cell_angle_beta 52.822254
_cell_angle_gamma 90.000000
_cell_volume 1934.962022
_symmetry_space_group_name_H-M "C 2/C"
_symmetry_group_IT_number 15
_symmetry_cell_setting 'monoclinic'
loop_
_space_group_symop_operation_xyz
x,y,z
-x,y,1/2-z
-x,-y,-z
x,-y,1/2+z
1/2+x,1/2+y,z
1/2-x,1/2+y,1/2-z
1/2-x,1/2-y,-z
1/2+x,1/2-y,1/2+z
loop_
_atom_site_type_symbol
_atom_site_label
_atom_site_fract_x
_atom_site_fract_y
_atom_site_fract_z
Si Si1 0.759025 0.281189 0.675362
Si Si2 0.004172 0.608439 0.461848
Si Si3 0.791918 0.097596 0.754541
Si Si4 0.078226 0.108193 0.471768
Si Si5 0.717554 0.026658 0.248836
Si Si6 0.862322 0.230815 0.067589
O O1 0.500000 0.289667 0.750000
O O2 0.885992 0.338115 0.623516
O O3 0.761599 0.249558 0.784815
O O4 0.886970 0.247585 0.542963
O O5 0.156354 0.558866 0.375232
O O6 0.930316 0.615188 0.607194
O O7 0.774402 0.596270 0.484053
O O8 0.000000 0.117019 0.750000
O O9 0.850489 0.112733 0.615946
O O10 0.787728 0.032954 0.751155
O O11 0.101369 0.062267 0.377544
O O12 0.139636 0.167274 0.412257
O O13 0.500000 0.024569 0.250000
O O14 0.750000 0.250000 0.000000
#
# Coordination Sequence:
#
# PCOD9275529 Si02
#       6
#     8   8   8   8   8   8
#     4  12  27  46  66 104 141 176 219 297 360 406
#     4  10  21  40  66  91 132 173 226 271 341 407
#     4  10  22  38  63  95 130 173 225 280 334 409
#     4  10  21  40  65  97 128 171 232 288 319 406
#     4  10  20  39  62  91 134 173 224 280 339 402
#     4  12  25  44  77  98 131 183 241 272 347 423
#
# _framework density 24.806688000000001
#
# number of rings (size 3 to 8) (size 9 to 14) (size 15 to 20)
#    0.000    1.333    3.333    2.000    2.333    2.000 
#    3.000    0.000    0.000    0.000    0.000    0.000 
#    0.000    0.000    0.000    0.000    0.000    0.000 
#
# Total GULP energy -134144.385620 kJ/mol
# GULP energy per Si atom -5589.349401 kJ/mol
# Density = 2.475023 g / cm^3
# Si number density = 24.806688 Si / 1000 Ang^3
#
#
#
# Elastic Constant Matrix: (Units=GPa)
#
#
# Indices 1 2 3 4 5 6 
#
# 1 92.3104 -8.9299 45.0711 0.0000 1.9075 0.0000
# 2 -8.9299 56.5787 22.5832 0.0000 4.7987 0.0000
# 3 45.0711 22.5832 196.7196 0.0000 3.9327 0.0000
# 4 0.0000 0.0000 0.0000 48.8953 0.0000 -3.1638
# 5 1.9075 4.7987 3.9327 0.0000 9.0649 0.0000
# 6 0.0000 0.0000 0.0000 -3.1638 0.0000 21.7879
#
#
#
# Elastic Compliance Matrix: (Units=1/GPa)
#
#
# Indices 1 2 3 4 5 6 
#
# 1 0.012859 0.003616 -0.003297 0.000000 -0.003190 0.000000
# 2 0.003616 0.020291 -0.002954 0.000000 -0.010221 0.000000
# 3 -0.003297 -0.002954 0.006186 0.000000 -0.000426 0.000000
# 4 0.000000 0.000000 0.000000 0.020646 0.000000 0.002998
# 5 -0.003190 -0.010221 -0.000426 0.000000 0.116583 0.000000
# 6 0.000000 0.000000 0.000000 0.002998 0.000000 0.046332
#
#
# Mechanical properties :
#
#
# Convention : Reuss Voigt Hill
#
# Bulk Modulus (GPa) = 29.35427 51.45083 40.40255
# Shear Modulus (GPa) = 20.87485 35.07525 27.97505
#
# Velocity S-wave (km/s) = 2.90401 3.76432 3.36180
# Velocity P-wave (km/s) = 4.80659 6.29915 5.60279
#
# Compressibility (1/GPa) = 0.03406660
#
# Stress axis : x y z
#
# Youngs Moduli (GPa) = 77.76798 49.28280 161.64305
#
# Poissons Ratio (x) = -0.17822 0.53302
# Poissons Ratio (y) = -0.28123 0.47743
# Poissons Ratio (z) = 0.25644 0.14556
#
# Static dielectric constant tensor:
#      x y z
#    x 2.020430 0.000000 0.048990 
#    y 0.000000 1.943580 0.000000 
#    z 0.048990 0.000000 2.060380 
# 
# From -- ./inp_files/138912.got.cif
#   From: 2010.05.17/outbox.cif.g08.bks.cpg/sg15_70_cif.got.tgz:138912.got - 2010.06.03 18:47:42.
