data_PCOD9275539
_publ_section_title
;
Structure prediction by ZEFSAII (Michael W. Deem and Ramdas Pophale) SiO2 
 PCOD9275539
Probable space group: C 2/C
;
_chemical_formula_sum "Si O2"
_cell_formula_units_Z 48
_cell_length_a 26.633195
_cell_length_b 9.070797
_cell_length_c 18.027473
_cell_angle_alpha 90.000000
_cell_angle_beta 153.276991
_cell_angle_gamma 90.000000
_cell_volume 1958.415986
_symmetry_space_group_name_H-M "C 2/C"
_symmetry_group_IT_number 15
_symmetry_cell_setting 'monoclinic'
loop_
_space_group_symop_operation_xyz
x,y,z
-x,y,1/2-z
-x,-y,-z
x,-y,1/2+z
1/2+x,1/2+y,z
1/2-x,1/2+y,1/2-z
1/2-x,1/2-y,-z
1/2+x,1/2-y,1/2+z
loop_
_atom_site_type_symbol
_atom_site_label
_atom_site_fract_x
_atom_site_fract_y
_atom_site_fract_z
Si Si1 0.446298 0.070431 0.354571
Si Si2 0.159430 0.750136 0.627991
Si Si3 0.450045 0.164083 0.609909
Si Si4 0.190278 0.895068 0.472190
Si Si5 0.667793 0.430188 0.080931
Si Si6 0.789228 0.407791 0.450962
O O1 0.530542 0.206150 0.450665
O O2 0.316965 0.110591 0.175087
O O3 0.500000 0.000000 0.500000
O O4 0.466620 0.946095 0.319882
O O5 0.215608 0.661200 0.769741
O O6 0.227978 0.672238 0.651000
O O7 0.172919 0.924961 0.639108
O O8 0.500000 0.227812 0.750000
O O9 0.414879 0.296194 0.509790
O O10 0.351325 0.056218 0.508754
O O11 0.144371 0.728493 0.421035
O O12 0.199754 0.939202 0.398374
O O13 0.134995 0.004220 0.457404
#
# Coordination Sequence:
#
# PCOD9275539 Si02
#       6
#     8   8   8   8   8   8
#     4  11  21  40  65  90 124 159 204 255 304 362
#     4  10  21  39  64  89 121 163 201 252 305 367
#     4  11  23  42  60  88 128 166 199 247 311 362
#     4  10  20  39  62  93 119 159 206 247 301 360
#     4  11  23  41  62  89 123 161 207 247 310 366
#     4   9  20  38  62  88 119 159 201 243 303 366
#
# _framework density 24.509602999999998
#
# number of rings (size 3 to 8) (size 9 to 14) (size 15 to 20)
#    0.000    1.667    3.333    2.000    2.333    0.667 
#    9.000    0.833    0.000    0.000    0.000    0.000 
#    0.000    0.000    0.000    0.000    0.000    0.000 
#
# Total GULP energy -133711.908571 kJ/mol
# GULP energy per Si atom -5571.329524 kJ/mol
# Density = 2.445382 g / cm^3
# Si number density = 24.509603 Si / 1000 Ang^3
#
#
#
# Elastic Constant Matrix: (Units=GPa)
#
#
# Indices 1 2 3 4 5 6 
#
# 1 58.9486 12.9212 -12.7939 0.0000 -11.0953 0.0000
# 2 12.9212 195.0378 45.2248 0.0000 5.4995 0.0000
# 3 -12.7939 45.2248 71.0848 0.0000 -5.3692 0.0000
# 4 0.0000 0.0000 0.0000 37.2802 0.0000 -2.4708
# 5 -11.0953 5.4995 -5.3692 0.0000 25.4030 0.0000
# 6 0.0000 0.0000 0.0000 -2.4708 0.0000 17.1460
#
#
#
# Elastic Compliance Matrix: (Units=1/GPa)
#
#
# Indices 1 2 3 4 5 6 
#
# 1 0.021330 -0.003317 0.006816 0.000000 0.011475 0.000000
# 2 -0.003317 0.006648 -0.005126 0.000000 -0.003972 0.000000
# 3 0.006816 -0.005126 0.019171 0.000000 0.008139 0.000000
# 4 0.000000 0.000000 0.000000 0.027083 0.000000 0.003903
# 5 0.011475 -0.003972 0.008139 0.000000 0.046958 0.000000
# 6 0.000000 0.000000 0.000000 0.003903 0.000000 0.058885
#
#
# Mechanical properties :
#
#
# Convention : Reuss Voigt Hill
#
# Bulk Modulus (GPa) = 22.78212 46.19727 34.48970
# Shear Modulus (GPa) = 25.25763 34.61375 29.93569
#
# Velocity S-wave (km/s) = 3.21365 3.76207 3.49862
# Velocity P-wave (km/s) = 4.80473 6.14495 5.51570
#
# Compressibility (1/GPa) = 0.04389406
#
# Stress axis : x y z
#
# Youngs Moduli (GPa) = 46.88163 150.42933 52.16300
#
# Poissons Ratio (x) = 0.49901 -0.35556
# Poissons Ratio (y) = 0.15552 0.26740
# Poissons Ratio (z) = -0.31956 0.77115
#
# Static dielectric constant tensor:
#      x y z
#    x 2.062370 0.000000 -0.063690 
#    y 0.000000 1.960250 0.000000 
#    z -0.063690 0.000000 2.067130 
# 
# From -- ./inp_files/180717.got.cif
#   From: 2010.05.17/outbox.cif.g08.bks.cpg/sg15_91_cif.got.tgz:180717.got - 2010.06.03 18:47:42.
