data_PCOD9275992
_publ_section_title
;
Structure prediction by ZEFSAII (Michael W. Deem and Ramdas Pophale) SiO2 
 PCOD9275992
Probable space group: C 2/C
;
_chemical_formula_sum "Si O2"
_cell_formula_units_Z 48
_cell_length_a 15.991730
_cell_length_b 22.488259
_cell_length_c 5.216790
_cell_angle_alpha 90.000000
_cell_angle_beta 103.727947
_cell_angle_gamma 90.000000
_cell_volume 1822.500710
_symmetry_space_group_name_H-M "C 2/C"
_symmetry_group_IT_number 15
_symmetry_cell_setting 'monoclinic'
loop_
_space_group_symop_operation_xyz
x,y,z
-x,y,1/2-z
-x,-y,-z
x,-y,1/2+z
1/2+x,1/2+y,z
1/2-x,1/2+y,1/2-z
1/2-x,1/2-y,-z
1/2+x,1/2-y,1/2+z
loop_
_atom_site_type_symbol
_atom_site_label
_atom_site_fract_x
_atom_site_fract_y
_atom_site_fract_z
Si Si1 0.750000 0.250000 0.500000
Si Si2 0.139262 0.855353 0.771731
Si Si3 0.500000 0.458107 0.750000
Si Si4 0.500000 0.866002 0.250000
Si Si5 0.500000 0.945546 0.750000
Si Si6 0.310146 0.969648 0.486380
Si Si7 0.595037 0.279429 0.229235
Si Si8 0.308507 0.152859 0.678914
O O1 0.658323 0.224792 0.304995
O O2 0.733243 0.211601 0.740558
O O3 0.081425 0.914180 0.758908
O O4 0.135083 0.821930 0.491437
O O5 0.098262 0.812883 0.962532
O O6 0.239252 0.865038 0.910193
O O7 0.500000 0.500000 0.500000
O O8 0.515069 0.904945 0.514024
O O9 0.591006 0.834128 0.287512
O O10 0.412451 0.979644 0.614484
O O11 0.302999 0.903014 0.373613
O O12 0.273010 0.989170 0.732489
O O13 0.500000 0.266081 0.250000
#
# Coordination Sequence:
#
# PCOD9275992 Si02
#       8
#     4   8   4   4   4   8   8   8
#     4  10  26  48  74 114 144 200 246 320 366 454
#     4  11  24  45  73 100 146 195 239 309 377 448
#     4  12  24  42  73 112 142 190 259 320 372 440
#     4  10  22  43  69 108 150 200 241 317 362 460
#     4  10  20  39  66  96 140 194 250 291 362 436
#     4  11  22  38  66  99 143 194 241 294 358 437
#     4  11  22  47  74 101 141 193 245 292 382 452
#     4  10  25  47  72 112 156 196 258 307 385 450
#
# _framework density 26.337434999999999
#
# number of rings (size 3 to 8) (size 9 to 14) (size 15 to 20)
#    0.000    1.333    1.667    3.500    0.000   12.667 
#   12.000    0.000    0.000    0.000    0.000    0.000 
#    0.000    0.000    0.000    0.000    0.000    0.000 
#
# Total GULP energy -133925.174113 kJ/mol
# GULP energy per Si atom -5580.215588 kJ/mol
# Density = 2.627749 g / cm^3
# Si number density = 26.337435 Si / 1000 Ang^3
#
#
#
# Elastic Constant Matrix: (Units=GPa)
#
#
# Indices 1 2 3 4 5 6 
#
# 1 138.1328 27.4840 44.3362 0.0000 19.5930 0.0000
# 2 27.4840 79.8439 47.6422 0.0000 -2.6149 0.0000
# 3 44.3362 47.6422 181.0627 0.0000 -9.5811 0.0000
# 4 0.0000 0.0000 0.0000 59.5451 0.0000 0.4909
# 5 19.5930 -2.6149 -9.5811 0.0000 54.6543 0.0000
# 6 0.0000 0.0000 0.0000 0.4909 0.0000 22.6439
#
#
#
# Elastic Compliance Matrix: (Units=1/GPa)
#
#
# Indices 1 2 3 4 5 6 
#
# 1 0.008722 -0.002055 -0.001782 0.000000 -0.003538 0.000000
# 2 -0.002055 0.015341 -0.003488 0.000000 0.000859 0.000000
# 3 -0.001782 -0.003488 0.006967 0.000000 0.001693 0.000000
# 4 0.000000 0.000000 0.000000 0.016797 0.000000 -0.000364
# 5 -0.003538 0.000859 0.001693 0.000000 0.019903 0.000000
# 6 0.000000 0.000000 0.000000 -0.000364 0.000000 0.044170
#
#
# Mechanical properties :
#
#
# Convention : Reuss Voigt Hill
#
# Bulk Modulus (GPa) = 61.05049 70.88491 65.96770
# Shear Modulus (GPa) = 37.87596 46.00714 41.94155
#
# Velocity S-wave (km/s) = 3.79635 4.18405 3.99490
# Velocity P-wave (km/s) = 6.51512 7.09325 6.81032
#
# Compressibility (1/GPa) = 0.01637988
#
# Stress axis : x y z
#
# Youngs Moduli (GPa) = 114.65191 65.18427 143.53852
#
# Poissons Ratio (x) = 0.13393 0.25583
# Poissons Ratio (y) = 0.23557 0.50067
# Poissons Ratio (z) = 0.20434 0.22737
#
# Static dielectric constant tensor:
#      x y z
#    x 2.238370 0.000000 -0.012160 
#    y 0.000000 1.827630 0.000000 
#    z -0.012160 0.000000 2.140360 
# 
# From -- ./inp_files/10949.got.cif
#   From: 2010.05.17/outbox.cif.g08.bks.cpg/sg15_6_cif.got.tgz:10949.got - 2010.06.03 18:47:42.
