data_PCOD9275763
_publ_section_title
;
Structure prediction by ZEFSAII (Michael W. Deem and Ramdas Pophale) SiO2 
 PCOD9275763
Probable space group: C 2/C
;
_chemical_formula_sum "Si O2"
_cell_formula_units_Z 40
_cell_length_a 11.735619
_cell_length_b 8.236089
_cell_length_c 16.052472
_cell_angle_alpha 90.000000
_cell_angle_beta 66.015422
_cell_angle_gamma 90.000000
_cell_volume 1417.591639
_symmetry_space_group_name_H-M "C 2/C"
_symmetry_group_IT_number 15
_symmetry_cell_setting 'monoclinic'
loop_
_space_group_symop_operation_xyz
x,y,z
-x,y,1/2-z
-x,-y,-z
x,-y,1/2+z
1/2+x,1/2+y,z
1/2-x,1/2+y,1/2-z
1/2-x,1/2-y,-z
1/2+x,1/2-y,1/2+z
loop_
_atom_site_type_symbol
_atom_site_label
_atom_site_fract_x
_atom_site_fract_y
_atom_site_fract_z
Si Si1 0.856819 0.865542 0.816996
Si Si2 0.345279 0.955472 0.217454
Si Si3 0.895280 0.637403 0.947418
Si Si4 0.453982 0.674703 0.981777
Si Si5 0.183531 0.672128 0.116621
O O1 0.815338 0.704295 0.779301
O O2 0.000000 0.899723 0.750000
O O3 0.849822 0.799483 0.913110
O O4 0.764819 0.003418 0.813375
O O5 0.477727 0.917372 0.137880
O O6 0.353414 0.099400 0.283631
O O7 0.939404 0.695117 0.024949
O O8 0.815915 0.479673 0.950016
O O9 0.329653 0.714442 0.071912
O O10 0.500000 0.500000 0.000000
O O11 0.409986 0.700483 0.899711
#
# Coordination Sequence:
#
# PCOD9275763 Si02
#       5
#     8   8   8   8   8
#     4   9  19  35  57  87 123 158 200 253 308 367
#     4  10  20  39  64  92 126 162 208 265 317 368
#     4  10  22  41  63  92 126 163 211 264 314 373
#     4  11  25  42  63  93 129 169 213 256 310 382
#     4  10  22  41  63  92 128 167 211 259 312 376
#
# _framework density 28.21687
#
# number of rings (size 3 to 8) (size 9 to 14) (size 15 to 20)
#    0.000    2.000    0.000    4.800    0.000    8.800 
#    0.000    9.000    0.000    2.400    0.000    0.000 
#    0.000    0.000    0.000    0.000    0.000    0.000 
#
# Total GULP energy -112220.140285 kJ/mol
# GULP energy per Si atom -5611.007014 kJ/mol
# Density = 2.815265 g / cm^3
# Si number density = 28.216870 Si / 1000 Ang^3
#
#
#
# Elastic Constant Matrix: (Units=GPa)
#
#
# Indices 1 2 3 4 5 6 
#
# 1 162.1194 58.8927 37.1472 0.0000 36.0466 0.0000
# 2 58.8927 107.5499 33.9637 0.0000 10.6455 0.0000
# 3 37.1472 33.9637 83.6146 0.0000 18.8339 0.0000
# 4 0.0000 0.0000 0.0000 55.7432 0.0000 19.4766
# 5 36.0466 10.6455 18.8339 0.0000 44.2362 0.0000
# 6 0.0000 0.0000 0.0000 19.4766 0.0000 74.5786
#
#
#
# Elastic Compliance Matrix: (Units=1/GPa)
#
#
# Indices 1 2 3 4 5 6 
#
# 1 0.009273 -0.004137 -0.001063 0.000000 -0.006108 0.000000
# 2 -0.004137 0.012538 -0.003688 0.000000 0.001924 0.000000
# 3 -0.001063 -0.003688 0.014971 0.000000 -0.004620 0.000000
# 4 0.000000 0.000000 0.000000 0.019741 0.000000 -0.005155
# 5 -0.006108 0.001924 -0.004620 0.000000 0.029087 0.000000
# 6 0.000000 0.000000 0.000000 -0.005155 0.000000 0.014755
#
#
# Mechanical properties :
#
#
# Convention : Reuss Voigt Hill
#
# Bulk Modulus (GPa) = 52.62102 68.14346 60.38224
# Shear Modulus (GPa) = 40.16829 49.79696 44.98262
#
# Velocity S-wave (km/s) = 3.77710 4.20550 3.99704
# Velocity P-wave (km/s) = 6.14095 6.91260 6.53817
#
# Compressibility (1/GPa) = 0.01900381
#
# Stress axis : x y z
#
# Youngs Moduli (GPa) = 107.84037 79.75897 66.79698
#
# Poissons Ratio (x) = 0.32999 0.07103
# Poissons Ratio (y) = 0.44618 0.24636
# Poissons Ratio (z) = 0.11467 0.29416
#
# Static dielectric constant tensor:
#      x y z
#    x 2.184870 0.000000 0.033460 
#    y 0.000000 2.218830 0.000000 
#    z 0.033460 0.000000 2.172540 
# 
# From -- ./inp_files/195066.got.cif
#   From: 2010.05.17/outbox.cif.g08.bks.cpg/sg15_98_cif.got.tgz:195066.got - 2010.06.03 18:47:42.
