data_PCOD9275365
_publ_section_title
;
Structure prediction by ZEFSAII (Michael W. Deem and Ramdas Pophale) SiO2 
 PCOD9275365
Probable space group: C 2/C
;
_chemical_formula_sum "Si O2"
_cell_formula_units_Z 64
_cell_length_a 18.294894
_cell_length_b 14.963663
_cell_length_c 19.128718
_cell_angle_alpha 90.000000
_cell_angle_beta 138.729161
_cell_angle_gamma 90.000000
_cell_volume 3454.196059
_symmetry_space_group_name_H-M "C 2/C"
_symmetry_group_IT_number 15
_symmetry_cell_setting 'monoclinic'
loop_
_space_group_symop_operation_xyz
x,y,z
-x,y,1/2-z
-x,-y,-z
x,-y,1/2+z
1/2+x,1/2+y,z
1/2-x,1/2+y,1/2-z
1/2-x,1/2-y,-z
1/2+x,1/2-y,1/2+z
loop_
_atom_site_type_symbol
_atom_site_label
_atom_site_fract_x
_atom_site_fract_y
_atom_site_fract_z
Si Si1 0.235725 0.026829 0.337748
Si Si2 0.250818 0.162670 0.150510
Si Si3 0.133322 0.207414 0.506123
Si Si4 0.305432 0.119330 0.526437
Si Si5 0.607457 0.826108 0.615497
Si Si6 0.117299 0.566327 0.367699
Si Si7 0.853161 0.653641 0.963359
Si Si8 0.443657 0.431924 0.903530
O O1 0.229059 0.077383 0.408664
O O2 0.330312 0.085414 0.367198
O O3 0.124864 0.026717 0.211139
O O4 0.283067 0.927594 0.380405
O O5 0.350468 0.184326 0.275453
O O6 0.289671 0.090995 0.121662
O O7 0.210960 0.254094 0.088102
O O8 0.148889 0.123099 0.120793
O O9 0.234196 0.158532 0.539248
O O10 0.122294 0.299873 0.454115
O O11 0.148265 0.244582 0.595689
O O12 0.033182 0.137770 0.437719
O O13 0.375903 0.036138 0.603531
O O14 0.475221 0.836287 0.517090
O O15 0.131336 0.626577 0.445514
O O16 0.000000 0.585107 0.250000
O O17 0.500000 0.500000 0.000000
#
# Coordination Sequence:
#
# PCOD9275365 Si02
#       8
#     8   8   8   8   8   8   8   8
#     4   9  22  38  60  89 124 165 206 255 311 372
#     4  11  23  39  61  92 122 162 208 255 308 376
#     4  10  20  41  63  90 127 159 205 261 310 377
#     4   9  21  42  63  89 123 165 210 257 312 373
#     4  10  20  39  60  91 125 160 204 259 312 372
#     4  11  22  42  61  89 122 163 210 256 307 369
#     4  11  21  39  64  85 125 163 207 254 314 372
#     4  11  23  39  61  93 130 164 203 257 316 373
#
# _framework density 18.528189999999999
#
# number of rings (size 3 to 8) (size 9 to 14) (size 15 to 20)
#    0.000    1.750    2.500    1.500    1.750    0.500 
#    9.000    0.000    0.000    0.000    0.000    0.000 
#    0.000    0.000    0.000    0.000    0.000    0.000 
#
# Total GULP energy -178464.756766 kJ/mol
# GULP energy per Si atom -5577.023649 kJ/mol
# Density = 1.848602 g / cm^3
# Si number density = 18.528190 Si / 1000 Ang^3
#
#
#
# Elastic Constant Matrix: (Units=GPa)
#
#
# Indices 1 2 3 4 5 6 
#
# 1 72.8500 15.7067 14.0147 0.0000 -5.2307 0.0000
# 2 15.7067 88.9627 49.2697 0.0000 -0.9945 0.0000
# 3 14.0147 49.2697 98.1167 0.0000 -7.1485 0.0000
# 4 0.0000 0.0000 0.0000 11.9451 0.0000 2.0077
# 5 -5.2307 -0.9945 -7.1485 0.0000 22.4567 0.0000
# 6 0.0000 0.0000 0.0000 2.0077 0.0000 20.8116
#
#
#
# Elastic Compliance Matrix: (Units=1/GPa)
#
#
# Indices 1 2 3 4 5 6 
#
# 1 0.014551 -0.002087 -0.000809 0.000000 0.003039 0.000000
# 2 -0.002087 0.015945 -0.007875 0.000000 -0.002287 0.000000
# 3 -0.000809 -0.007875 0.014561 0.000000 0.004098 0.000000
# 4 0.000000 0.000000 0.000000 0.085096 0.000000 -0.008209
# 5 0.003039 -0.002287 0.004098 0.000000 0.046441 0.000000
# 6 0.000000 0.000000 0.000000 -0.008209 0.000000 0.048842
#
#
# Mechanical properties :
#
#
# Convention : Reuss Voigt Hill
#
# Bulk Modulus (GPa) = 42.52823 46.43462 44.48142
# Shear Modulus (GPa) = 19.62196 23.10524 21.36360
#
# Velocity S-wave (km/s) = 3.25781 3.53516 3.39932
# Velocity P-wave (km/s) = 6.09542 6.46368 6.28225
#
# Compressibility (1/GPa) = 0.02351379
#
# Stress axis : x y z
#
# Youngs Moduli (GPa) = 68.72549 62.71491 68.67779
#
# Poissons Ratio (x) = 0.13088 0.05556
# Poissons Ratio (y) = 0.14343 0.54087
# Poissons Ratio (z) = 0.05560 0.49391
#
# Static dielectric constant tensor:
#      x y z
#    x 1.639110 0.000000 -0.024410 
#    y 0.000000 1.619380 0.000000 
#    z -0.024410 0.000000 1.648460 
# 
# From -- ./inp_files/211366.got.cif
#   From: 2010.05.17/outbox.cif.g08.bks.cpg/sg15_106_cif.got.tgz:211366.got - 2010.06.03 18:47:42.
