data_PCOD9275923
_publ_section_title
;
Structure prediction by ZEFSAII (Michael W. Deem and Ramdas Pophale) SiO2 
 PCOD9275923
Probable space group: C 2/C
;
_chemical_formula_sum "Si O2"
_cell_formula_units_Z 52
_cell_length_a 8.070188
_cell_length_b 12.580648
_cell_length_c 29.250281
_cell_angle_alpha 90.000000
_cell_angle_beta 132.287885
_cell_angle_gamma 90.000000
_cell_volume 2196.925896
_symmetry_space_group_name_H-M "C 2/C"
_symmetry_group_IT_number 15
_symmetry_cell_setting 'monoclinic'
loop_
_space_group_symop_operation_xyz
x,y,z
-x,y,1/2-z
-x,-y,-z
x,-y,1/2+z
1/2+x,1/2+y,z
1/2-x,1/2+y,1/2-z
1/2-x,1/2-y,-z
1/2+x,1/2-y,1/2+z
loop_
_atom_site_type_symbol
_atom_site_label
_atom_site_fract_x
_atom_site_fract_y
_atom_site_fract_z
Si Si1 0.230509 0.963977 0.698295
Si Si2 0.872648 0.888492 0.981629
Si Si3 0.500000 0.538423 0.250000
Si Si4 0.569288 0.619530 0.901301
Si Si5 0.523457 0.162660 0.962314
Si Si6 0.096239 0.335322 0.633328
Si Si7 0.381230 0.303479 0.597521
O O1 0.500000 0.958782 0.750000
O O2 0.139107 0.042713 0.642543
O O3 0.100851 0.006721 0.720446
O O4 0.108433 0.855326 0.659137
O O5 0.874843 0.861972 0.035551
O O6 0.953749 0.779606 0.971077
O O7 0.618747 0.905355 0.917820
O O8 0.000000 0.000000 0.000000
O O9 0.714705 0.607538 0.303449
O O10 0.809858 0.586977 0.925338
O O11 0.497800 0.727535 0.862567
O O12 0.576304 0.192533 0.920090
O O13 0.737809 0.130257 0.032466
O O14 0.217250 0.298304 0.609583
#
# Coordination Sequence:
#
# PCOD9275923 Si02
#       7
#     8   8   4   8   8   8   8
#     4  11  27  46  65  94 134 177 225 268 331 395
#     4  11  21  37  66  99 132 169 212 274 336 390
#     4  10  26  48  64  88 132 180 220 270 324 398
#     4  11  22  41  65  98 128 166 221 276 322 400
#     4  10  20  39  66 100 129 162 215 266 344 397
#     4  10  21  44  67  92 129 175 217 271 334 389
#     4  10  20  42  63  96 130 166 209 273 328 399
#
# _framework density 23.669439000000001
#
# number of rings (size 3 to 8) (size 9 to 14) (size 15 to 20)
#    0.000    1.538    3.077    1.846    7.538    0.615 
#   13.846    0.000    0.000    0.000    0.000    0.000 
#    0.000    0.000    0.000    0.000    0.000    0.000 
#
# Total GULP energy -145055.176016 kJ/mol
# GULP energy per Si atom -5579.045231 kJ/mol
# Density = 2.361557 g / cm^3
# Si number density = 23.669439 Si / 1000 Ang^3
#
#
#
# Elastic Constant Matrix: (Units=GPa)
#
#
# Indices 1 2 3 4 5 6 
#
# 1 78.0998 14.9896 34.7358 0.0000 19.3728 0.0000
# 2 14.9896 55.2339 20.0009 0.0000 15.0581 0.0000
# 3 34.7358 20.0009 139.9823 0.0000 45.5428 0.0000
# 4 0.0000 0.0000 0.0000 -28.9814 0.0000 12.1160
# 5 19.3728 15.0581 45.5428 0.0000 56.8196 0.0000
# 6 0.0000 0.0000 0.0000 12.1160 0.0000 23.7087
#
#
#
# Elastic Compliance Matrix: (Units=1/GPa)
#
#
# Indices 1 2 3 4 5 6 
#
# 1 0.015028 -0.002488 -0.002599 0.000000 -0.002381 0.000000
# 2 -0.002488 0.020161 -0.001083 0.000000 -0.003626 0.000000
# 3 -0.002599 -0.001083 0.010229 0.000000 -0.007026 0.000000
# 4 0.000000 0.000000 0.000000 -0.028431 0.000000 0.014529
# 5 -0.002381 -0.003626 -0.007026 0.000000 0.025004 0.000000
# 6 0.000000 0.000000 0.000000 0.014529 0.000000 0.034754
#
#
# Mechanical properties :
#
#
# Convention : Reuss Voigt Hill
#
# Bulk Modulus (GPa) = 30.23179 45.86317 38.04748
# Shear Modulus (GPa) = 49.94395 23.88203 36.91299
#
# Velocity S-wave (km/s) = 4.59852 3.17989 3.95336
# Velocity P-wave (km/s) = 6.40277 5.73593 6.07850
#
# Compressibility (1/GPa) = 0.03307776
#
# Stress axis : x y z
#
# Youngs Moduli (GPa) = 66.54121 49.60076 97.75827
#
# Poissons Ratio (x) = 0.12341 0.25406
# Poissons Ratio (y) = 0.16556 0.10591
# Poissons Ratio (z) = 0.17293 0.05374
#
# Static dielectric constant tensor:
#      x y z
#    x 2.019980 0.000000 -0.025430 
#    y 0.000000 1.984730 0.000000 
#    z -0.025430 0.000000 1.886590 
# 
# From -- ./inp_files/308336.got.cif
#   From: 2010.05.17/outbox.cif.g08.bks.cpg/sg15_155_cif.got.tgz:308336.got - 2010.06.03 18:47:42.
