data_PCOD9275549
_publ_section_title
;
Structure prediction by ZEFSAII (Michael W. Deem and Ramdas Pophale) SiO2 
 PCOD9275549
Probable space group: C 2/C
;
_chemical_formula_sum "Si O2"
_cell_formula_units_Z 44
_cell_length_a 17.398636
_cell_length_b 11.235034
_cell_length_c 29.523078
_cell_angle_alpha 90.000000
_cell_angle_beta 158.915316
_cell_angle_gamma 90.000000
_cell_volume 2076.102995
_symmetry_space_group_name_H-M "C 2/C"
_symmetry_group_IT_number 15
_symmetry_cell_setting 'monoclinic'
loop_
_space_group_symop_operation_xyz
x,y,z
-x,y,1/2-z
-x,-y,-z
x,-y,1/2+z
1/2+x,1/2+y,z
1/2-x,1/2+y,1/2-z
1/2-x,1/2-y,-z
1/2+x,1/2-y,1/2+z
loop_
_atom_site_type_symbol
_atom_site_label
_atom_site_fract_x
_atom_site_fract_y
_atom_site_fract_z
Si Si1 0.246458 0.650341 0.370742
Si Si2 0.983396 0.634565 0.510922
Si Si3 0.604647 0.478137 0.122353
Si Si4 0.000000 0.895670 0.750000
Si Si5 0.975437 0.658928 0.858749
Si Si6 0.913580 0.070886 0.104549
O O1 0.365670 0.777287 0.434320
O O2 0.289634 0.588223 0.345844
O O3 0.384318 0.563368 0.478846
O O4 0.000000 0.657033 0.250000
O O5 0.729523 0.669428 0.370227
O O6 0.000000 0.500000 0.500000
O O7 0.048790 0.651015 0.599896
O O8 0.774480 0.373930 0.218141
O O9 0.559952 0.507066 0.149548
O O10 0.961372 0.965695 0.682097
O O11 0.040708 0.789034 0.877378
O O12 0.164920 0.563355 0.955221
#
# Coordination Sequence:
#
# PCOD9275549 Si02
#       6
#     8   8   8   4   8   8
#     4  11  25  44  66  98 135 175 219 274 327 397
#     4  11  23  42  66  96 134 173 220 273 326 395
#     4  11  22  42  67  96 130 176 214 268 335 392
#     4  10  22  38  68  96 120 176 216 270 326 388
#     4  10  21  38  63  92 128 169 214 268 319 390
#     4  10  20  39  62  94 130 164 218 270 318 386
#
# _framework density 21.193553999999999
#
# number of rings (size 3 to 8) (size 9 to 14) (size 15 to 20)
#    0.000    1.455    1.818    3.273    1.273    0.000 
#    8.182    0.909    0.000    0.000    0.000    0.000 
#    0.000    0.000    0.000    0.000    0.000    0.000 
#
# Total GULP energy -122691.957432 kJ/mol
# GULP energy per Si atom -5576.907156 kJ/mol
# Density = 2.114532 g / cm^3
# Si number density = 21.193554 Si / 1000 Ang^3
#
#
#
# Elastic Constant Matrix: (Units=GPa)
#
#
# Indices 1 2 3 4 5 6 
#
# 1 119.7793 29.3144 39.4738 -0.0002 9.9992 -0.0003
# 2 29.3144 66.4665 21.4390 0.0012 21.3097 -0.0002
# 3 39.4738 21.4390 122.1523 0.0116 28.0805 -0.0010
# 4 -0.0002 0.0012 0.0116 16.0759 -0.0020 2.1655
# 5 9.9992 21.3097 28.0805 -0.0020 39.5896 -0.0001
# 6 -0.0003 -0.0002 -0.0010 2.1655 -0.0001 11.9389
#
#
#
# Elastic Compliance Matrix: (Units=1/GPa)
#
#
# Indices 1 2 3 4 5 6 
#
# 1 0.010184 -0.004090 -0.002973 0.000003 0.001738 -0.000001
# 2 -0.004090 0.019956 0.000061 -0.000003 -0.009752 0.000001
# 3 -0.002973 0.000061 0.010719 -0.000009 -0.006885 0.000002
# 4 0.000003 -0.000003 -0.000009 0.063763 0.000010 -0.011566
# 5 0.001738 -0.009752 -0.006885 0.000010 0.034953 -0.000002
# 6 -0.000001 0.000001 0.000002 -0.011566 -0.000002 0.085857
#
#
# Mechanical properties :
#
#
# Convention : Reuss Voigt Hill
#
# Bulk Modulus (GPa) = 37.23584 54.31695 45.77640
# Shear Modulus (GPa) = 20.12984 28.06563 24.09773
#
# Velocity S-wave (km/s) = 3.08524 3.64298 3.37565
# Velocity P-wave (km/s) = 5.50447 6.58632 6.06955
#
# Compressibility (1/GPa) = 0.02685584
#
# Stress axis : x y z
#
# Youngs Moduli (GPa) = 98.19092 50.11073 93.29086
#
# Poissons Ratio (x) = 0.20495 0.27733
# Poissons Ratio (y) = 0.40159 -0.00569
# Poissons Ratio (z) = 0.29189 -0.00305
#
# Static dielectric constant tensor:
#      x y z
#    x 1.800000 0.000000 0.051050 
#    y 0.000000 1.758450 0.000000 
#    z 0.051050 0.000000 1.837270 
# 
# From -- ./inp_files/104349.got.cif
#   From: 2010.05.17/outbox.cif.g08.bks.cpg/sg15_53_cif.got.tgz:104349.got - 2010.06.03 18:47:42.
