data_PCOD9275982
_publ_section_title
;
Structure prediction by ZEFSAII (Michael W. Deem and Ramdas Pophale) SiO2 
 PCOD9275982
Probable space group: C 2/C
;
_chemical_formula_sum "Si O2"
_cell_formula_units_Z 36
_cell_length_a 7.570565
_cell_length_b 12.661765
_cell_length_c 17.767538
_cell_angle_alpha 90.000000
_cell_angle_beta 51.585669
_cell_angle_gamma 90.000000
_cell_volume 1334.473324
_symmetry_space_group_name_H-M "C 2/C"
_symmetry_group_IT_number 15
_symmetry_cell_setting 'monoclinic'
loop_
_space_group_symop_operation_xyz
x,y,z
-x,y,1/2-z
-x,-y,-z
x,-y,1/2+z
1/2+x,1/2+y,z
1/2-x,1/2+y,1/2-z
1/2-x,1/2-y,-z
1/2+x,1/2-y,1/2+z
loop_
_atom_site_type_symbol
_atom_site_label
_atom_site_fract_x
_atom_site_fract_y
_atom_site_fract_z
Si Si1 0.003881 0.482214 0.839268
Si Si2 0.903569 0.173186 0.043295
Si Si3 0.983218 0.162548 0.862101
Si Si4 0.433210 0.773370 0.181511
Si Si5 0.500000 0.528335 0.250000
O O1 0.005483 0.606678 0.858068
O O2 0.238916 0.433705 0.808298
O O3 0.000000 0.477640 0.750000
O O4 0.777874 0.420155 0.920681
O O5 0.755669 0.280181 0.076696
O O6 0.003849 0.187390 0.100373
O O7 0.059509 0.166548 0.929023
O O8 0.977541 0.046250 0.830094
O O9 0.162988 0.222115 0.762794
O O10 0.500000 0.751069 0.250000
#
# Coordination Sequence:
#
# PCOD9275982 Si02
#       5
#     8   8   8   8   4
#     4  10  21  39  66  94 134 179 223 282 338 402
#     4  11  21  39  68  98 130 180 234 272 343 417
#     4  10  20  39  66  94 135 180 219 287 339 397
#     4  10  21  42  66  94 142 180 218 290 347 394
#     4  10  20  44  64  94 142 180 216 286 350 386
#
# _framework density 26.976935000000001
#
# number of rings (size 3 to 8) (size 9 to 14) (size 15 to 20)
#    0.000    1.778    4.444    1.333    0.000    1.778 
#    8.000   10.000    0.000    0.000    0.000    0.000 
#    0.000    0.000    0.000    0.000    0.000    0.000 
#
# Total GULP energy -100671.760611 kJ/mol
# GULP energy per Si atom -5592.875590 kJ/mol
# Density = 2.691553 g / cm^3
# Si number density = 26.976935 Si / 1000 Ang^3
#
#
#
# Elastic Constant Matrix: (Units=GPa)
#
#
# Indices 1 2 3 4 5 6 
#
# 1 135.7183 46.7229 15.8616 0.0000 18.4577 0.0001
# 2 46.7229 123.5701 33.7083 0.0000 6.1287 0.0001
# 3 15.8616 33.7083 139.2486 0.0000 29.4350 0.0000
# 4 0.0000 0.0000 0.0000 -7.2797 0.0000 -5.4984
# 5 18.4577 6.1287 29.4350 0.0000 47.1968 -0.0001
# 6 0.0001 0.0001 0.0000 -5.4984 -0.0001 38.4566
#
#
#
# Elastic Compliance Matrix: (Units=1/GPa)
#
#
# Indices 1 2 3 4 5 6 
#
# 1 0.008918 -0.003343 0.000505 0.000000 -0.003369 0.000000
# 2 -0.003343 0.009920 -0.002332 0.000000 0.001474 0.000000
# 3 0.000505 -0.002332 0.008830 0.000000 -0.005402 0.000000
# 4 0.000000 0.000000 0.000000 -0.123979 0.000000 -0.017726
# 5 -0.003369 0.001474 -0.005402 0.000000 0.025683 0.000000
# 6 0.000000 0.000000 0.000000 -0.017726 0.000000 0.023469
#
#
# Mechanical properties :
#
#
# Convention : Reuss Voigt Hill
#
# Bulk Modulus (GPa) = 57.70579 65.68028 61.69304
# Shear Modulus (GPa) = -161.06161 35.82434 -62.61864
#
# Velocity S-wave (km/s) = -7.73518 3.64807 -4.82310
# Velocity P-wave (km/s) = 7.63808 6.49186 2.84569
#
# Compressibility (1/GPa) = 0.01732928
#
# Stress axis : x y z
#
# Youngs Moduli (GPa) = 112.13147 100.81083 113.24737
#
# Poissons Ratio (x) = 0.33699 -0.05724
# Poissons Ratio (y) = 0.37483 0.26409
# Poissons Ratio (z) = -0.05668 0.23509
#
# Static dielectric constant tensor:
#      x y z
#    x 2.302850 0.000000 0.023210 
#    y 0.000000 2.262850 0.000000 
#    z 0.023210 0.000000 2.096020 
# 
# From -- ./inp_files/188638.got.cif
#   From: 2010.05.17/outbox.cif.g08.bks.cpg/sg15_95_cif.got.tgz:188638.got - 2010.06.03 18:47:42.
