data_PCOD9275122
_publ_section_title
;
Structure prediction by ZEFSAII (Michael W. Deem and Ramdas Pophale) SiO2 
 PCOD9275122
Probable space group: C 2/C
;
_chemical_formula_sum "Si O2"
_cell_formula_units_Z 52
_cell_length_a 12.898178
_cell_length_b 16.840016
_cell_length_c 12.658175
_cell_angle_alpha 90.000000
_cell_angle_beta 122.370074
_cell_angle_gamma 90.000000
_cell_volume 2322.185911
_symmetry_space_group_name_H-M "C 2/C"
_symmetry_group_IT_number 15
_symmetry_cell_setting 'monoclinic'
loop_
_space_group_symop_operation_xyz
x,y,z
-x,y,1/2-z
-x,-y,-z
x,-y,1/2+z
1/2+x,1/2+y,z
1/2-x,1/2+y,1/2-z
1/2-x,1/2-y,-z
1/2+x,1/2-y,1/2+z
loop_
_atom_site_type_symbol
_atom_site_label
_atom_site_fract_x
_atom_site_fract_y
_atom_site_fract_z
Si Si1 0.500000 0.662544 0.250000
Si Si2 0.304551 0.449614 0.409782
Si Si3 0.271162 0.433511 0.715011
Si Si4 0.153983 0.465343 0.977060
Si Si5 0.448282 0.696809 0.987714
Si Si6 0.916181 0.081404 0.599969
Si Si7 0.056879 0.658144 0.171447
O O1 0.378525 0.611319 0.211949
O O2 0.479173 0.707781 0.127716
O O3 0.322789 0.492467 0.308855
O O4 0.324718 0.356634 0.417994
O O5 0.401861 0.492600 0.542036
O O6 0.174918 0.472394 0.581795
O O7 0.195296 0.375513 0.750871
O O8 0.176102 0.519020 0.885041
O O9 0.272270 0.405931 0.048984
O O10 0.033789 0.414051 0.905610
O O11 0.538835 0.639041 0.969136
O O12 0.442168 0.776933 0.919481
O O13 0.000000 0.087303 0.750000
O O14 0.000000 0.691053 0.250000
#
# Coordination Sequence:
#
# PCOD9275122 Si02
#       7
#     4   8   8   8   8   8   8
#     4  12  24  46  68 106 140 188 244 318 356 424
#     4  10  22  40  70 109 132 187 241 302 356 432
#     4  12  24  46  77  98 147 189 252 299 363 442
#     4  10  23  42  74 100 135 190 249 288 366 440
#     4  12  25  40  72 106 149 185 242 307 378 418
#     4  10  20  38  69 106 139 181 246 307 355 425
#     4  12  27  51  67 105 153 201 232 304 379 446
#
# _framework density 22.392693999999999
#
# number of rings (size 3 to 8) (size 9 to 14) (size 15 to 20)
#    0.923    0.000    4.615    2.308    6.462    1.231 
#    5.538    0.000    0.000    0.000    0.000    0.000 
#    0.000    0.000    0.000    0.000    0.000    0.000 
#
# Total GULP energy -145100.645432 kJ/mol
# GULP energy per Si atom -5580.794055 kJ/mol
# Density = 2.234173 g / cm^3
# Si number density = 22.392694 Si / 1000 Ang^3
#
#
#
# Elastic Constant Matrix: (Units=GPa)
#
#
# Indices 1 2 3 4 5 6 
#
# 1 113.3201 45.9772 50.5553 0.0000 -4.5033 0.0000
# 2 45.9772 74.8969 25.7018 0.0000 -13.0389 0.0000
# 3 50.5553 25.7018 105.5531 0.0000 -34.4755 0.0000
# 4 0.0000 0.0000 0.0000 47.9872 0.0000 -14.9834
# 5 -4.5033 -13.0389 -34.4755 0.0000 34.2363 0.0000
# 6 0.0000 0.0000 0.0000 -14.9834 0.0000 26.8914
#
#
#
# Elastic Compliance Matrix: (Units=1/GPa)
#
#
# Indices 1 2 3 4 5 6 
#
# 1 0.015727 -0.008385 -0.008729 0.000000 -0.009915 0.000000
# 2 -0.008385 0.019242 0.002032 0.000000 0.008272 0.000000
# 3 -0.008729 0.002032 0.019427 0.000000 0.019189 0.000000
# 4 0.000000 0.000000 0.000000 0.025228 0.000000 0.014056
# 5 -0.009915 0.008272 0.019189 0.000000 0.050378 0.000000
# 6 0.000000 0.000000 0.000000 0.014056 0.000000 0.045019
#
#
# Mechanical properties :
#
#
# Convention : Reuss Voigt Hill
#
# Bulk Modulus (GPa) = 41.26671 59.80430 50.53551
# Shear Modulus (GPa) = 23.44550 33.25871 28.35211
#
# Velocity S-wave (km/s) = 3.23927 3.85807 3.56214
# Velocity P-wave (km/s) = 5.69730 6.82725 6.28771
#
# Compressibility (1/GPa) = 0.02423261
#
# Stress axis : x y z
#
# Youngs Moduli (GPa) = 63.58555 51.97100 51.47393
#
# Poissons Ratio (x) = 0.43577 0.44932
# Poissons Ratio (y) = 0.53316 -0.10462
# Poissons Ratio (z) = 0.55505 -0.10563
#
# Static dielectric constant tensor:
#      x y z
#    x 1.906630 0.000000 -0.018740 
#    y 0.000000 1.805970 0.000000 
#    z -0.018740 0.000000 1.867140 
# 
# From -- ./inp_files/98456.got.cif
#   From: 2010.05.17/outbox.cif.g08.bks.cpg/sg15_50_cif.got.tgz:98456.got - 2010.06.03 18:47:42.
