data_PCOD9275391
_publ_section_title
;
Structure prediction by ZEFSAII (Michael W. Deem and Ramdas Pophale) SiO2 
 PCOD9275391
Probable space group: C 2/C
;
_chemical_formula_sum "Si O2"
_cell_formula_units_Z 52
_cell_length_a 23.919650
_cell_length_b 18.027460
_cell_length_c 8.281840
_cell_angle_alpha 90.000000
_cell_angle_beta 53.997626
_cell_angle_gamma 90.000000
_cell_volume 2889.087980
_symmetry_space_group_name_H-M "C 2/C"
_symmetry_group_IT_number 15
_symmetry_cell_setting 'monoclinic'
loop_
_space_group_symop_operation_xyz
x,y,z
-x,y,1/2-z
-x,-y,-z
x,-y,1/2+z
1/2+x,1/2+y,z
1/2-x,1/2+y,1/2-z
1/2-x,1/2-y,-z
1/2+x,1/2-y,1/2+z
loop_
_atom_site_type_symbol
_atom_site_label
_atom_site_fract_x
_atom_site_fract_y
_atom_site_fract_z
Si Si1 0.219521 0.501082 0.093921
Si Si2 0.500000 0.827859 0.750000
Si Si3 0.814639 0.750590 0.770963
Si Si4 0.647852 0.102118 0.961982
Si Si5 0.691146 0.414620 0.807800
Si Si6 0.029578 0.234058 0.378406
Si Si7 0.531307 0.574354 0.519474
O O1 0.182419 0.565813 0.058678
O O2 0.163888 0.459029 0.298290
O O3 0.280801 0.539883 0.088809
O O4 0.255492 0.439450 0.921364
O O5 0.431609 0.877601 0.876849
O O6 0.498835 0.778646 0.586492
O O7 0.816577 0.678214 0.656337
O O8 0.810092 0.825950 0.675016
O O9 0.887485 0.752814 0.745548
O O10 0.750000 0.750000 0.000000
O O11 0.613423 0.436044 0.895750
O O12 0.017278 0.146951 0.434872
O O13 0.000000 0.253480 0.250000
O O14 0.500000 0.588112 0.750000
O O15 0.500000 0.500000 0.500000
#
# Coordination Sequence:
#
# PCOD9275391 Si02
#       7
#     8   4   8   8   8   8   8
#     4  10  21  39  59  87 120 154 201 253 311 360
#     4  10  22  44  62  88 124 154 208 258 310 372
#     4  10  20  39  61  86 119 159 200 244 301 366
#     4  10  22  40  63  87 121 156 199 259 306 375
#     4  10  21  37  58  84 121 159 198 251 300 356
#     4  10  22  40  61  88 122 161 199 258 309 361
#     4  11  21  36  56  85 122 164 210 249 304 370
#
# _framework density 17.998759
#
# number of rings (size 3 to 8) (size 9 to 14) (size 15 to 20)
#    0.000    1.846    2.308    1.385    0.000    3.692 
#    5.538    0.000    0.000    0.000    0.000    0.000 
#    0.000    0.000    0.000    0.000    0.000    0.000 
#
# Total GULP energy -145012.140992 kJ/mol
# GULP energy per Si atom -5577.390038 kJ/mol
# Density = 1.795779 g / cm^3
# Si number density = 17.998759 Si / 1000 Ang^3
#
#
#
# Elastic Constant Matrix: (Units=GPa)
#
#
# Indices 1 2 3 4 5 6 
#
# 1 64.7007 58.6144 33.0798 0.0000 5.1252 0.0000
# 2 58.6144 129.8421 27.5991 0.0000 1.1115 0.0000
# 3 33.0798 27.5991 60.0685 0.0000 -7.2105 0.0000
# 4 0.0000 0.0000 0.0000 29.0351 0.0000 11.4551
# 5 5.1252 1.1115 -7.2105 0.0000 36.1932 0.0000
# 6 0.0000 0.0000 0.0000 11.4551 0.0000 54.8318
#
#
#
# Elastic Compliance Matrix: (Units=1/GPa)
#
#
# Indices 1 2 3 4 5 6 
#
# 1 0.034705 -0.012582 -0.014215 0.000000 -0.007360 0.000000
# 2 -0.012582 0.013138 0.001084 0.000000 0.001594 0.000000
# 3 -0.014215 0.001084 0.024808 0.000000 0.006922 0.000000
# 4 0.000000 0.000000 0.000000 0.037535 0.000000 -0.007842
# 5 -0.007360 0.001594 0.006922 0.000000 0.030002 0.000000
# 6 0.000000 0.000000 0.000000 -0.007842 0.000000 0.019876
#
#
# Mechanical properties :
#
#
# Convention : Reuss Voigt Hill
#
# Bulk Modulus (GPa) = 47.11247 54.79978 50.95613
# Shear Modulus (GPa) = 22.87660 33.03323 27.95491
#
# Velocity S-wave (km/s) = 3.56899 4.28869 3.94529
# Velocity P-wave (km/s) = 6.57387 7.41865 7.00900
#
# Compressibility (1/GPa) = 0.02122580
#
# Stress axis : x y z
#
# Youngs Moduli (GPa) = 28.81414 76.11742 40.30907
#
# Poissons Ratio (x) = 0.95774 0.57297
# Poissons Ratio (y) = 0.36255 -0.04371
# Poissons Ratio (z) = 0.40958 -0.08254
#
# Static dielectric constant tensor:
#      x y z
#    x 1.590650 0.000000 0.013080 
#    y 0.000000 1.610770 0.000000 
#    z 0.013080 0.000000 1.627750 
# 
# From -- ./inp_files/66115.got.cif
#   From: 2010.05.17/outbox.cif.g08.bks.cpg/sg15_34_cif.got.tgz:66115.got - 2010.06.03 18:47:42.
