data_PCOD9275552
_publ_section_title
;
Structure prediction by ZEFSAII (Michael W. Deem and Ramdas Pophale) SiO2 
 PCOD9275552
Probable space group: C 2/C
;
_chemical_formula_sum "Si O2"
_cell_formula_units_Z 48
_cell_length_a 5.343790
_cell_length_b 24.805803
_cell_length_c 17.024308
_cell_angle_alpha 90.000000
_cell_angle_beta 73.573057
_cell_angle_gamma 90.000000
_cell_volume 2164.575574
_symmetry_space_group_name_H-M "C 2/C"
_symmetry_group_IT_number 15
_symmetry_cell_setting 'monoclinic'
loop_
_space_group_symop_operation_xyz
x,y,z
-x,y,1/2-z
-x,-y,-z
x,-y,1/2+z
1/2+x,1/2+y,z
1/2-x,1/2+y,1/2-z
1/2-x,1/2-y,-z
1/2+x,1/2-y,1/2+z
loop_
_atom_site_type_symbol
_atom_site_label
_atom_site_fract_x
_atom_site_fract_y
_atom_site_fract_z
Si Si1 0.241830 0.532387 0.272995
Si Si2 0.857652 0.114812 0.126222
Si Si3 0.543804 0.781342 0.163716
Si Si4 0.953289 0.445654 0.958003
Si Si5 0.442528 0.218531 0.372683
Si Si6 0.137998 0.336382 0.997779
O O1 0.500000 0.496669 0.250000
O O2 0.324063 0.582279 0.209324
O O3 0.000000 0.506172 0.250000
O O4 0.152696 0.551031 0.366544
O O5 0.814928 0.069078 0.062808
O O6 0.623378 0.158048 0.148484
O O7 0.100870 0.150666 0.075562
O O8 0.500000 0.811940 0.250000
O O9 0.281555 0.755906 0.146862
O O10 0.766189 0.738732 0.171981
O O11 0.675996 0.815129 0.081791
O O12 0.999260 0.394157 0.008688
O O13 0.000000 0.500000 0.000000
O O14 0.467841 0.207572 0.464603
#
# Coordination Sequence:
#
# PCOD9275552 Si02
#       6
#     8   8   8   8   8   8
#     4  10  20  39  62  95 125 156 203 274 328 377
#     4  10  22  40  69  99 129 167 220 281 337 382
#     4  12  27  42  62  97 141 183 223 267 331 409
#     4  10  23  41  66  97 132 172 216 275 343 403
#     4  11  24  43  67  97 133 177 227 277 330 393
#     4  11  23  43  70  93 136 173 229 279 335 397
#
# _framework density 22.175248
#
# number of rings (size 3 to 8) (size 9 to 14) (size 15 to 20)
#    0.000    1.333    3.333    1.500    4.667    8.000 
#    0.000    2.500    0.000    0.000    0.000    0.000 
#    0.000    0.000    0.000    0.000    0.000    0.000 
#
# Total GULP energy -133667.804918 kJ/mol
# GULP energy per Si atom -5569.491872 kJ/mol
# Density = 2.212478 g / cm^3
# Si number density = 22.175248 Si / 1000 Ang^3
#
#
#
# Elastic Constant Matrix: (Units=GPa)
#
#
# Indices 1 2 3 4 5 6 
#
# 1 139.1999 26.0022 34.3020 0.0000 0.7472 0.0000
# 2 26.0022 46.2142 48.5814 0.0000 9.8945 0.0000
# 3 34.3020 48.5814 138.0708 0.0000 21.4057 0.0000
# 4 0.0000 0.0000 0.0000 16.8120 0.0000 3.5099
# 5 0.7472 9.8945 21.4057 0.0000 25.8757 0.0000
# 6 0.0000 0.0000 0.0000 3.5099 0.0000 15.9316
#
#
#
# Elastic Compliance Matrix: (Units=1/GPa)
#
#
# Indices 1 2 3 4 5 6 
#
# 1 0.008159 -0.004073 -0.000917 0.000000 0.002080 0.000000
# 2 -0.004073 0.036667 -0.011167 0.000000 -0.004666 0.000000
# 3 -0.000917 -0.011167 0.012312 0.000000 -0.005889 0.000000
# 4 0.000000 0.000000 0.000000 0.062349 0.000000 -0.013736
# 5 0.002080 -0.004666 -0.005889 0.000000 0.045242 0.000000
# 6 0.000000 0.000000 0.000000 -0.013736 0.000000 0.065795
#
#
# Mechanical properties :
#
#
# Convention : Reuss Voigt Hill
#
# Bulk Modulus (GPa) = 40.27768 60.13956 50.20862
# Shear Modulus (GPa) = 18.44254 26.03047 22.23651
#
# Velocity S-wave (km/s) = 2.88700 3.42987 3.17008
# Velocity P-wave (km/s) = 5.41441 6.54709 6.00750
#
# Compressibility (1/GPa) = 0.02482764
#
# Stress axis : x y z
#
# Youngs Moduli (GPa) = 122.55859 27.27227 81.21893
#
# Poissons Ratio (x) = 0.11107 0.07444
# Poissons Ratio (y) = 0.49913 0.90693
# Poissons Ratio (z) = 0.11233 0.30454
#
# Static dielectric constant tensor:
#      x y z
#    x 2.067920 0.000000 0.000680 
#    y 0.000000 1.773940 0.000000 
#    z 0.000680 0.000000 1.863970 
# 
# From -- ./inp_files/185479.got.cif
#   From: 2010.05.17/outbox.cif.g08.bks.cpg/sg15_93_cif.got.tgz:185479.got - 2010.06.03 18:47:42.
