data_PCOD9275328
_publ_section_title
;
Structure prediction by ZEFSAII (Michael W. Deem and Ramdas Pophale) SiO2 
 PCOD9275328
Probable space group: C 2/C
;
_chemical_formula_sum "Si O2"
_cell_formula_units_Z 56
_cell_length_a 26.184966
_cell_length_b 8.548539
_cell_length_c 11.034458
_cell_angle_alpha 90.000000
_cell_angle_beta 111.233254
_cell_angle_gamma 90.000000
_cell_volume 2302.310197
_symmetry_space_group_name_H-M "C 2/C"
_symmetry_group_IT_number 15
_symmetry_cell_setting 'monoclinic'
loop_
_space_group_symop_operation_xyz
x,y,z
-x,y,1/2-z
-x,-y,-z
x,-y,1/2+z
1/2+x,1/2+y,z
1/2-x,1/2+y,1/2-z
1/2-x,1/2-y,-z
1/2+x,1/2-y,1/2+z
loop_
_atom_site_type_symbol
_atom_site_label
_atom_site_fract_x
_atom_site_fract_y
_atom_site_fract_z
Si Si1 0.859915 0.781920 0.898754
Si Si2 0.158487 0.069565 0.354780
Si Si3 0.439103 0.612066 0.649733
Si Si4 0.438345 0.045970 0.247187
Si Si5 0.738898 0.512466 0.609626
Si Si6 0.385266 0.050696 0.462674
Si Si7 0.806881 0.237542 0.757537
O O1 0.815017 0.902770 0.911494
O O2 0.849957 0.607699 0.933859
O O3 0.853812 0.797253 0.751455
O O4 0.920893 0.831627 0.998725
O O5 0.100721 0.035254 0.369246
O O6 0.217084 0.091558 0.469142
O O7 0.167817 0.902642 0.296285
O O8 0.500000 0.575104 0.750000
O O9 0.424458 0.770615 0.711769
O O10 0.500000 0.032155 0.250000
O O11 0.425965 0.021616 0.380008
O O12 0.407535 0.943601 0.118288
O O13 0.787225 0.386914 0.662739
O O14 0.741189 0.648101 0.711409
O O15 0.348845 0.197044 0.393127
#
# Coordination Sequence:
#
# PCOD9275328 Si02
#       7
#     8   8   8   8   8   8   8
#     4   9  21  37  56  88 123 157 206 256 302 368
#     4  10  20  39  60  86 120 158 203 253 310 370
#     4   9  18  36  59  83 121 164 200 249 311 365
#     4  10  21  39  63  92 126 166 212 258 309 370
#     4  10  22  40  61  87 121 159 207 256 311 374
#     4  11  22  39  64  93 126 166 208 261 313 365
#     4  11  22  40  62  89 119 161 206 255 314 374
#
# _framework density 24.323392999999999
#
# number of rings (size 3 to 8) (size 9 to 14) (size 15 to 20)
#    0.000    2.000    1.429    1.714    2.000    0.571 
#    5.143    4.286    0.000    0.000    0.000    0.000 
#    0.000    0.000    0.000    0.000    0.000    0.000 
#
# Total GULP energy -156034.937090 kJ/mol
# GULP energy per Si atom -5572.676325 kJ/mol
# Density = 2.426803 g / cm^3
# Si number density = 24.323393 Si / 1000 Ang^3
#
#
#
# Elastic Constant Matrix: (Units=GPa)
#
#
# Indices 1 2 3 4 5 6 
#
# 1 52.8741 26.6787 10.4089 0.0000 1.3171 0.0000
# 2 26.6787 59.9906 34.2537 0.0000 0.6770 0.0000
# 3 10.4089 34.2537 64.8399 0.0000 4.3290 0.0000
# 4 0.0000 0.0000 0.0000 38.2132 0.0000 -6.7855
# 5 1.3171 0.6770 4.3290 0.0000 30.0986 0.0000
# 6 0.0000 0.0000 0.0000 -6.7855 0.0000 15.1486
#
#
#
# Elastic Compliance Matrix: (Units=1/GPa)
#
#
# Indices 1 2 3 4 5 6 
#
# 1 0.024736 -0.012551 0.002739 0.000000 -0.001194 0.000000
# 2 -0.012551 0.030287 -0.014112 0.000000 0.001898 0.000000
# 3 0.002739 -0.014112 0.022642 0.000000 -0.003059 0.000000
# 4 0.000000 0.000000 0.000000 0.028430 0.000000 0.012735
# 5 -0.001194 0.001898 -0.003059 0.000000 0.033674 0.000000
# 6 0.000000 0.000000 0.000000 0.012735 0.000000 0.071717
#
#
# Mechanical properties :
#
#
# Convention : Reuss Voigt Hill
#
# Bulk Modulus (GPa) = 33.53685 35.59858 34.56771
# Shear Modulus (GPa) = 18.56845 23.78297 21.17571
#
# Velocity S-wave (km/s) = 2.76596 3.13034 2.95378
# Velocity P-wave (km/s) = 4.90088 5.26618 5.08681
#
# Compressibility (1/GPa) = 0.02981795
#
# Stress axis : x y z
#
# Youngs Moduli (GPa) = 40.42640 33.01715 44.16531
#
# Poissons Ratio (x) = 0.41441 -0.12098
# Poissons Ratio (y) = 0.50740 0.62326
# Poissons Ratio (z) = -0.11074 0.46594
#
# Static dielectric constant tensor:
#      x y z
#    x 2.020640 0.000000 -0.041110 
#    y 0.000000 1.906760 0.000000 
#    z -0.041110 0.000000 2.075410 
# 
# From -- ./inp_files/125615.got.cif
#   From: 2010.05.17/outbox.cif.g08.bks.cpg/sg15_63_cif.got.tgz:125615.got - 2010.06.03 18:47:42.
