data_PCOD9275236
_publ_section_title
;
Structure prediction by ZEFSAII (Michael W. Deem and Ramdas Pophale) SiO2 
 PCOD9275236
Probable space group: C 2/C
;
_chemical_formula_sum "Si O2"
_cell_formula_units_Z 48
_cell_length_a 21.314416
_cell_length_b 16.231549
_cell_length_c 18.737315
_cell_angle_alpha 90.000000
_cell_angle_beta 19.301891
_cell_angle_gamma 90.000000
_cell_volume 2142.752779
_symmetry_space_group_name_H-M "C 2/C"
_symmetry_group_IT_number 15
_symmetry_cell_setting 'monoclinic'
loop_
_space_group_symop_operation_xyz
x,y,z
-x,y,1/2-z
-x,-y,-z
x,-y,1/2+z
1/2+x,1/2+y,z
1/2-x,1/2+y,1/2-z
1/2-x,1/2-y,-z
1/2+x,1/2-y,1/2+z
loop_
_atom_site_type_symbol
_atom_site_label
_atom_site_fract_x
_atom_site_fract_y
_atom_site_fract_z
Si Si1 0.976037 0.136263 0.884476
Si Si2 0.042311 0.971029 0.873487
Si Si3 0.092994 0.814644 0.889442
Si Si4 0.821702 0.642985 0.403693
Si Si5 0.977433 0.370502 0.044597
Si Si6 0.525729 0.016481 0.089812
O O1 0.157497 0.137778 0.638618
O O2 0.017173 0.175784 0.917177
O O3 0.791873 0.175150 0.043925
O O4 0.934333 0.038766 0.942398
O O5 0.009691 0.873193 0.916456
O O6 0.262555 0.986896 0.617753
O O7 0.000000 0.000000 0.000000
O O8 0.113115 0.719033 0.850900
O O9 0.298251 0.852900 0.687185
O O10 0.000000 0.686994 0.250000
O O11 0.915301 0.559360 0.272421
O O12 0.927026 0.438333 0.158097
O O13 0.946292 0.414477 0.002163
#
# Coordination Sequence:
#
# PCOD9275236 Si02
#       6
#     8   8   8   8   8   8
#     4  10  21  37  58  88 120 155 208 243 294 365
#     4   9  19  34  58  86 117 148 197 258 305 356
#     4  10  21  36  57  92 119 153 197 254 316 353
#     4  11  21  36  61  85 117 169 205 239 288 363
#     4  10  22  35  60  87 121 155 195 258 309 359
#     4  10  20  39  57  86 120 159 201 245 308 361
#
# _framework density 22.401091999999998
#
# number of rings (size 3 to 8) (size 9 to 14) (size 15 to 20)
#    0.000    2.000    3.333    0.000    7.000    0.000 
#    0.000    0.833    3.667    1.000    4.333    0.000 
#    0.000    0.000    0.000    0.000    0.000    0.000 
#
# Total GULP energy -134008.834064 kJ/mol
# GULP energy per Si atom -5583.701419 kJ/mol
# Density = 2.235011 g / cm^3
# Si number density = 22.401092 Si / 1000 Ang^3
#
#
#
# Elastic Constant Matrix: (Units=GPa)
#
#
# Indices 1 2 3 4 5 6 
#
# 1 72.1607 37.8803 23.4803 -0.0091 -10.6952 0.0068
# 2 37.8803 178.0074 30.1701 -0.0166 1.8402 0.0130
# 3 23.4803 30.1701 102.9024 -0.0201 5.7353 0.0065
# 4 -0.0091 -0.0166 -0.0201 35.9168 0.0151 3.9834
# 5 -10.6952 1.8402 5.7353 0.0151 29.8437 -0.0016
# 6 0.0068 0.0130 0.0065 3.9834 -0.0016 5.5118
#
#
#
# Elastic Compliance Matrix: (Units=1/GPa)
#
#
# Indices 1 2 3 4 5 6 
#
# 1 0.017788 -0.003266 -0.003505 -0.000001 0.007250 -0.000007
# 2 -0.003266 0.006511 -0.001088 0.000004 -0.001363 -0.000013
# 3 -0.003505 -0.001088 0.011021 0.000008 -0.003307 -0.000012
# 4 -0.000001 0.000004 0.000008 0.030268 -0.000019 -0.021875
# 5 0.007250 -0.001363 -0.003307 -0.000019 0.036826 0.000022
# 6 -0.000007 -0.000013 -0.000012 -0.021875 0.000022 0.197238
#
#
# Mechanical properties :
#
#
# Convention : Reuss Voigt Hill
#
# Bulk Modulus (GPa) = 51.01639 59.57021 55.29330
# Shear Modulus (GPa) = 15.53258 31.69047 23.61152
#
# Velocity S-wave (km/s) = 2.63608 3.76531 3.25011
# Velocity P-wave (km/s) = 5.66469 6.74935 6.23067
#
# Compressibility (1/GPa) = 0.01960154
#
# Stress axis : x y z
#
# Youngs Moduli (GPa) = 56.21922 153.58079 90.73559
#
# Poissons Ratio (x) = 0.50160 0.31805
# Poissons Ratio (y) = 0.18362 0.09870
# Poissons Ratio (z) = 0.19706 0.16707
#
# Static dielectric constant tensor:
#      x y z
#    x 1.885230 -0.000010 -0.097190 
#    y -0.000010 1.893970 0.000020 
#    z -0.097190 0.000020 1.886920 
# 
# From -- ./inp_files/255685.got.cif
#   From: 2010.05.17/outbox.cif.g08.bks.cpg/sg15_128_cif.got.tgz:255685.got - 2010.06.03 18:47:42.
