data_PCOD9275768
_publ_section_title
;
Structure prediction by ZEFSAII (Michael W. Deem and Ramdas Pophale) SiO2 
 PCOD9275768
Probable space group: C 2/C
;
_chemical_formula_sum "Si O2"
_cell_formula_units_Z 52
_cell_length_a 16.013214
_cell_length_b 23.896559
_cell_length_c 5.692551
_cell_angle_alpha 90.000000
_cell_angle_beta 70.132618
_cell_angle_gamma 90.000000
_cell_volume 2048.666091
_symmetry_space_group_name_H-M "C 2/C"
_symmetry_group_IT_number 15
_symmetry_cell_setting 'monoclinic'
loop_
_space_group_symop_operation_xyz
x,y,z
-x,y,1/2-z
-x,-y,-z
x,-y,1/2+z
1/2+x,1/2+y,z
1/2-x,1/2+y,1/2-z
1/2-x,1/2-y,-z
1/2+x,1/2-y,1/2+z
loop_
_atom_site_type_symbol
_atom_site_label
_atom_site_fract_x
_atom_site_fract_y
_atom_site_fract_z
Si Si1 0.597719 0.152304 0.249616
Si Si2 0.822661 0.585727 0.979795
Si Si3 0.903133 0.758929 0.929315
Si Si4 0.094944 0.070274 0.571593
Si Si5 0.731441 0.804335 0.241371
Si Si6 0.349755 0.555159 0.483198
Si Si7 0.000000 0.467511 0.250000
O O1 0.500000 0.139672 0.250000
O O2 0.647738 0.096508 0.284582
O O3 0.577933 0.198787 0.469504
O O4 0.673487 0.179615 0.019670
O O5 0.780577 0.643075 0.923412
O O6 0.915754 0.571753 0.781864
O O7 0.749736 0.539810 0.999982
O O8 0.829360 0.747152 0.798369
O O9 0.000000 0.780443 0.750000
O O10 0.836428 0.792262 0.167797
O O11 0.116095 0.088615 0.282738
O O12 0.000000 0.090633 0.750000
O O13 0.096519 0.002482 0.544031
O O14 0.152634 0.080989 0.752355
O O15 0.000000 0.500000 0.500000
#
# Coordination Sequence:
#
# PCOD9275768 Si02
#       7
#     8   8   8   8   8   8   4
#     4  11  21  39  70  96 137 187 236 291 358 445
#     4  11  27  43  64  98 137 181 238 295 376 425
#     4  10  20  39  65 106 132 179 232 284 351 445
#     4  10  20  39  64  93 116 164 224 280 346 424
#     4  10  22  40  67  93 141 182 227 290 360 443
#     4  10  21  35  65  88 127 162 215 282 340 405
#     4  12  32  48  74 102 144 196 254 318 370 442
#
# _framework density 25.382370000000002
#
# number of rings (size 3 to 8) (size 9 to 14) (size 15 to 20)
#    0.000    1.538    1.538    3.692   11.846    0.000 
#    0.000    2.308    0.000    0.923    0.000    0.000 
#    0.000    0.000    0.000    0.000    0.000    0.000 
#
# Total GULP energy -144874.039389 kJ/mol
# GULP energy per Si atom -5572.078438 kJ/mol
# Density = 2.532460 g / cm^3
# Si number density = 25.382370 Si / 1000 Ang^3
#
#
#
# Elastic Constant Matrix: (Units=GPa)
#
#
# Indices 1 2 3 4 5 6 
#
# 1 172.5934 21.7671 35.0543 0.0000 -30.5757 0.0000
# 2 21.7671 41.3979 8.9959 0.0000 -0.5136 0.0000
# 3 35.0543 8.9959 126.1680 0.0000 -11.8773 0.0000
# 4 0.0000 0.0000 0.0000 24.2303 0.0000 -2.1734
# 5 -30.5757 -0.5136 -11.8773 0.0000 53.9132 0.0000
# 6 0.0000 0.0000 0.0000 -2.1734 0.0000 28.0199
#
#
#
# Elastic Compliance Matrix: (Units=1/GPa)
#
#
# Indices 1 2 3 4 5 6 
#
# 1 0.007169 -0.003420 -0.001397 0.000000 0.003725 0.000000
# 2 -0.003420 0.026168 -0.001098 0.000000 -0.001932 0.000000
# 3 -0.001397 -0.001098 0.008493 0.000000 0.001068 0.000000
# 4 0.000000 0.000000 0.000000 0.041560 0.000000 0.003224
# 5 0.003725 -0.001932 0.001068 0.000000 0.020878 0.000000
# 6 0.000000 0.000000 0.000000 0.003224 0.000000 0.035939
#
#
# Mechanical properties :
#
#
# Convention : Reuss Voigt Hill
#
# Bulk Modulus (GPa) = 33.33185 52.42154 42.87669
# Shear Modulus (GPa) = 30.85724 39.52216 35.18970
#
# Velocity S-wave (km/s) = 3.49047 3.95026 3.72746
# Velocity P-wave (km/s) = 5.42263 6.44233 5.95435
#
# Compressibility (1/GPa) = 0.03000133
#
# Stress axis : x y z
#
# Youngs Moduli (GPa) = 139.48954 38.21405 117.74435
#
# Poissons Ratio (x) = 0.13068 0.16452
# Poissons Ratio (y) = 0.47700 0.12923
# Poissons Ratio (z) = 0.19491 0.04194
#
# Static dielectric constant tensor:
#      x y z
#    x 2.018860 0.000000 0.011840 
#    y 0.000000 2.140450 0.000000 
#    z 0.011840 0.000000 2.183120 
# 
# From -- ./inp_files/9025.got.cif
#   From: 2010.05.17/outbox.cif.g08.bks.cpg/sg15_5_cif.got.tgz:9025.got - 2010.06.03 18:47:42.
