data_PCOD9275293
_publ_section_title
;
Structure prediction by ZEFSAII (Michael W. Deem and Ramdas Pophale) SiO2 
 PCOD9275293
Probable space group: C 2/C
;
_chemical_formula_sum "Si O2"
_cell_formula_units_Z 60
_cell_length_a 22.620303
_cell_length_b 5.224383
_cell_length_c 18.280079
_cell_angle_alpha 90.000000
_cell_angle_beta 92.056345
_cell_angle_gamma 90.000000
_cell_volume 2158.896033
_symmetry_space_group_name_H-M "C 2/C"
_symmetry_group_IT_number 15
_symmetry_cell_setting 'monoclinic'
loop_
_space_group_symop_operation_xyz
x,y,z
-x,y,1/2-z
-x,-y,-z
x,-y,1/2+z
1/2+x,1/2+y,z
1/2-x,1/2+y,1/2-z
1/2-x,1/2-y,-z
1/2+x,1/2-y,1/2+z
loop_
_atom_site_type_symbol
_atom_site_label
_atom_site_fract_x
_atom_site_fract_y
_atom_site_fract_z
Si Si1 0.366732 0.982119 0.671243
Si Si2 0.600355 0.133826 0.184733
Si Si3 0.043810 0.152328 0.903725
Si Si4 0.000000 0.955399 0.250000
Si Si5 0.171579 0.977354 0.597897
Si Si6 0.068334 0.619268 0.544832
Si Si7 0.851443 0.217732 0.040373
Si Si8 0.258652 0.689986 0.702502
O O1 0.379278 0.077451 0.754543
O O2 0.426897 0.900640 0.634039
O O3 0.329859 0.161227 0.615019
O O4 0.325396 0.735426 0.679287
O O5 0.560761 0.313379 0.233516
O O6 0.653751 0.289063 0.150524
O O7 0.556839 0.037739 0.118947
O O8 0.013930 0.978518 0.837915
O O9 0.098526 0.980570 0.932899
O O10 0.022588 0.262236 0.983377
O O11 0.191415 0.082825 0.519695
O O12 0.214453 0.769953 0.635315
O O13 0.108006 0.848735 0.579382
O O14 0.115208 0.441348 0.503436
O O15 0.248368 0.917525 0.760864
#
# Coordination Sequence:
#
# PCOD9275293 Si02
#       8
#     8   8   8   4   8   8   8   8
#     4  10  21  38  62  90 128 165 215 268 323 382
#     4  10  20  39  59  91 123 168 207 272 316 391
#     4   9  20  40  59  90 122 164 206 269 320 394
#     4  10  22  36  62  90 124 162 216 254 336 388
#     4  10  21  40  63  87 127 167 214 264 329 385
#     4   9  19  39  64  85 121 164 209 264 323 384
#     4   9  20  39  63  87 123 166 209 265 324 384
#     4  12  26  40  64 101 133 177 226 274 329 393
#
# _framework density 27.791981
#
# number of rings (size 3 to 8) (size 9 to 14) (size 15 to 20)
#    0.000    2.133    1.333    0.800    3.733    3.200 
#    0.000   22.667    0.000    0.000    0.000    0.000 
#    0.000    0.000    0.000    0.000    0.000    0.000 
#
# Total GULP energy -167444.099402 kJ/mol
# GULP energy per Si atom -5581.469980 kJ/mol
# Density = 2.772873 g / cm^3
# Si number density = 27.791981 Si / 1000 Ang^3
#
#
#
# Elastic Constant Matrix: (Units=GPa)
#
#
# Indices 1 2 3 4 5 6 
#
# 1 63.1503 -1.6334 26.9078 0.0000 6.5099 0.0000
# 2 -1.6334 82.2892 36.0883 0.0000 -3.7237 0.0000
# 3 26.9078 36.0883 208.1158 0.0000 39.8861 0.0000
# 4 0.0000 0.0000 0.0000 44.2602 0.0000 4.1074
# 5 6.5099 -3.7237 39.8861 0.0000 46.1327 0.0000
# 6 0.0000 0.0000 0.0000 4.1074 0.0000 21.8987
#
#
#
# Elastic Compliance Matrix: (Units=1/GPa)
#
#
# Indices 1 2 3 4 5 6 
#
# 1 0.016908 0.001371 -0.002382 0.000000 -0.000215 0.000000
# 2 0.001371 0.013793 -0.003291 0.000000 0.003765 0.000000
# 3 -0.002382 -0.003291 0.006796 0.000000 -0.005805 0.000000
# 4 0.000000 0.000000 0.000000 0.022994 0.000000 -0.004313
# 5 -0.000215 0.003765 -0.005805 0.000000 0.027030 0.000000
# 6 0.000000 0.000000 0.000000 -0.004313 0.000000 0.046474
#
#
# Mechanical properties :
#
#
# Convention : Reuss Voigt Hill
#
# Bulk Modulus (GPa) = 34.61086 52.92005 43.76546
# Shear Modulus (GPa) = 32.84492 41.93784 37.39138
#
# Velocity S-wave (km/s) = 3.44148 3.88879 3.67195
# Velocity P-wave (km/s) = 5.31717 6.26469 5.81028
#
# Compressibility (1/GPa) = 0.02889266
#
# Stress axis : x y z
#
# Youngs Moduli (GPa) = 59.14336 72.50104 147.13931
#
# Poissons Ratio (x) = -0.09938 0.35056
# Poissons Ratio (y) = -0.08107 0.48417
# Poissons Ratio (z) = 0.14091 0.23857
#
# Static dielectric constant tensor:
#      x y z
#    x 2.193110 0.000000 0.022930 
#    y 0.000000 2.270130 0.000000 
#    z 0.022930 0.000000 2.301850 
# 
# From -- ./inp_files/221268.got.cif
#   From: 2010.05.17/outbox.cif.g08.bks.cpg/sg15_111_cif.got.tgz:221268.got - 2010.06.03 18:47:42.
