data_PCOD9275926
_publ_section_title
;
Structure prediction by ZEFSAII (Michael W. Deem and Ramdas Pophale) SiO2 
 PCOD9275926
Probable space group: C 2/C
;
_chemical_formula_sum "Si O2"
_cell_formula_units_Z 56
_cell_length_a 5.071418
_cell_length_b 26.337971
_cell_length_c 20.488342
_cell_angle_alpha 90.000000
_cell_angle_beta 59.574533
_cell_angle_gamma 90.000000
_cell_volume 2359.778353
_symmetry_space_group_name_H-M "C 2/C"
_symmetry_group_IT_number 15
_symmetry_cell_setting 'monoclinic'
loop_
_space_group_symop_operation_xyz
x,y,z
-x,y,1/2-z
-x,-y,-z
x,-y,1/2+z
1/2+x,1/2+y,z
1/2-x,1/2+y,1/2-z
1/2-x,1/2-y,-z
1/2+x,1/2-y,1/2+z
loop_
_atom_site_type_symbol
_atom_site_label
_atom_site_fract_x
_atom_site_fract_y
_atom_site_fract_z
Si Si1 0.337002 0.857214 0.199462
Si Si2 0.561462 0.767393 0.405214
Si Si3 0.103460 0.815341 0.989818
Si Si4 0.363755 0.314696 0.700552
Si Si5 0.981319 0.099662 0.403336
Si Si6 0.145607 0.388739 0.441504
Si Si7 0.636139 0.492677 0.054030
O O1 0.500000 0.855577 0.250000
O O2 0.292384 0.802233 0.169880
O O3 0.467576 0.886911 0.119470
O O4 0.000000 0.879254 0.250000
O O5 0.252415 0.797444 0.463865
O O6 0.746939 0.734974 0.437286
O O7 0.468953 0.717658 0.375566
O O8 0.201595 0.836668 0.049115
O O9 0.154875 0.865081 0.936364
O O10 0.500000 0.296739 0.750000
O O11 0.454457 0.371966 0.671650
O O12 0.000000 0.309662 0.750000
O O13 0.639819 0.103491 0.474952
O O14 0.024000 0.039529 0.389129
O O15 0.381714 0.435333 0.418018
O O16 0.500000 0.500000 0.000000
O O17 0.000000 0.500000 0.000000
#
# Coordination Sequence:
#
# PCOD9275926 Si02
#       7
#     8   8   8   8   8   8   8
#     4  12  26  43  63  92 139 183 223 272 336 402
#     4  10  22  41  63  96 133 179 226 277 334 405
#     4  10  20  39  66 101 132 169 228 289 338 390
#     4  11  26  43  65  95 134 178 225 274 338 406
#     4  10  22  42  68  99 132 177 225 285 345 408
#     4  11  23  41  71 101 140 177 232 289 345 415
#     4  10  21  38  70 103 132 168 223 282 343 405
#
# _framework density 23.731044000000001
#
# number of rings (size 3 to 8) (size 9 to 14) (size 15 to 20)
#    0.000    1.429    2.857    1.714    4.000    1.714 
#    2.571    0.714    0.000    3.429    0.000    0.000 
#    0.000    0.000    0.000    0.000    0.000    0.000 
#
# Total GULP energy -155954.840760 kJ/mol
# GULP energy per Si atom -5569.815741 kJ/mol
# Density = 2.367703 g / cm^3
# Si number density = 23.731044 Si / 1000 Ang^3
#
#
#
# Elastic Constant Matrix: (Units=GPa)
#
#
# Indices 1 2 3 4 5 6 
#
# 1 119.2354 12.4843 44.6114 0.0000 25.8643 0.0000
# 2 12.4843 124.8078 13.7195 0.0000 10.4346 0.0000
# 3 44.6114 13.7195 96.8938 0.0000 22.7593 0.0000
# 4 0.0000 0.0000 0.0000 32.8013 0.0000 -1.9264
# 5 25.8643 10.4346 22.7593 0.0000 48.8166 0.0000
# 6 0.0000 0.0000 0.0000 -1.9264 0.0000 23.0860
#
#
#
# Elastic Compliance Matrix: (Units=1/GPa)
#
#
# Indices 1 2 3 4 5 6 
#
# 1 0.010736 -0.000319 -0.004018 0.000000 -0.003747 0.000000
# 2 -0.000319 0.008229 -0.000724 0.000000 -0.001252 0.000000
# 3 -0.004018 -0.000724 0.013180 0.000000 -0.003861 0.000000
# 4 0.000000 0.000000 0.000000 0.030637 0.000000 0.002556
# 5 -0.003747 -0.001252 -0.003861 0.000000 0.024538 0.000000
# 6 0.000000 0.000000 0.000000 0.002556 0.000000 0.043530
#
#
# Mechanical properties :
#
#
# Convention : Reuss Voigt Hill
#
# Bulk Modulus (GPa) = 45.40744 53.61860 49.51302
# Shear Modulus (GPa) = 33.71277 38.94890 36.33083
#
# Velocity S-wave (km/s) = 3.77320 4.05565 3.91697
# Velocity P-wave (km/s) = 6.17725 6.67640 6.43167
#
# Compressibility (1/GPa) = 0.02202282
#
# Stress axis : x y z
#
# Youngs Moduli (GPa) = 93.14282 121.52850 75.87297
#
# Poissons Ratio (x) = 0.03877 0.30484
# Poissons Ratio (y) = 0.02971 0.05494
# Poissons Ratio (z) = 0.37423 0.08800
#
# Static dielectric constant tensor:
#      x y z
#    x 2.067160 0.000000 0.095190 
#    y 0.000000 2.076950 0.000000 
#    z 0.095190 0.000000 2.008000 
# 
# From -- ./inp_files/228408.got.cif
#   From: 2010.05.17/outbox.cif.g08.bks.cpg/sg15_115_cif.got.tgz:228408.got - 2010.06.03 18:47:42.
