data_PCOD9275685
_publ_section_title
;
Structure prediction by ZEFSAII (Michael W. Deem and Ramdas Pophale) SiO2 
 PCOD9275685
Probable space group: C 2/C
;
_chemical_formula_sum "Si O2"
_cell_formula_units_Z 52
_cell_length_a 9.563966
_cell_length_b 16.921535
_cell_length_c 24.525525
_cell_angle_alpha 90.000000
_cell_angle_beta 142.814180
_cell_angle_gamma 90.000000
_cell_volume 2398.954221
_symmetry_space_group_name_H-M "C 2/C"
_symmetry_group_IT_number 15
_symmetry_cell_setting 'monoclinic'
loop_
_space_group_symop_operation_xyz
x,y,z
-x,y,1/2-z
-x,-y,-z
x,-y,1/2+z
1/2+x,1/2+y,z
1/2-x,1/2+y,1/2-z
1/2-x,1/2-y,-z
1/2+x,1/2-y,1/2+z
loop_
_atom_site_type_symbol
_atom_site_label
_atom_site_fract_x
_atom_site_fract_y
_atom_site_fract_z
Si Si1 0.605021 0.488263 0.199989
Si Si2 0.500000 0.078366 0.750000
Si Si3 0.500000 0.625412 0.250000
Si Si4 0.000000 0.149489 0.750000
Si Si5 0.286488 0.247201 0.922025
Si Si6 0.266391 0.515142 0.497648
Si Si7 0.011319 0.656617 0.089426
Si Si8 0.147122 0.877748 0.052260
O O1 0.588050 0.567781 0.229408
O O2 0.600850 0.410239 0.236157
O O3 0.378224 0.489249 0.091491
O O4 0.827184 0.477766 0.230453
O O5 0.657416 0.128993 0.840504
O O6 0.721981 0.674666 0.336717
O O7 0.809633 0.203847 0.660907
O O8 0.084265 0.301071 0.886091
O O9 0.353157 0.185855 0.990401
O O10 0.514113 0.301738 0.988123
O O11 0.028859 0.562628 0.421909
O O12 0.252552 0.430756 0.465098
O O13 0.444630 0.569844 0.518197
#
# Coordination Sequence:
#
# PCOD9275685 Si02
#       8
#     8   4   4   4   8   8   8   8
#     4  10  22  40  66  97 131 173 222 271 334 396
#     4  10  20  39  63  95 135 176 212 268 338 398
#     4  11  24  39  64 104 128 162 226 280 319 392
#     4  11  22  44  65  97 127 178 220 278 335 410
#     4  10  22  41  65  89 133 179 219 263 349 399
#     4   9  17  37  62  90 127 166 220 264 325 389
#     4  10  21  40  63  91 130 182 209 269 337 411
#     4   9  19  34  63  96 121 171 220 269 316 399
#
# _framework density 21.676113000000001
#
# number of rings (size 3 to 8) (size 9 to 14) (size 15 to 20)
#    0.000    2.154    1.538    0.923    2.154    3.692 
#    2.769    6.154    0.000    0.000    0.000    0.000 
#    0.000    0.000    0.000    0.000    0.000    0.000 
#
# Total GULP energy -145232.340354 kJ/mol
# GULP energy per Si atom -5585.859244 kJ/mol
# Density = 2.162678 g / cm^3
# Si number density = 21.676113 Si / 1000 Ang^3
#
#
#
# Elastic Constant Matrix: (Units=GPa)
#
#
# Indices 1 2 3 4 5 6 
#
# 1 65.7235 20.0791 37.0765 0.0000 0.9882 -0.0001
# 2 20.0791 67.8434 24.6129 0.0000 -9.5761 -0.0001
# 3 37.0765 24.6129 127.8078 -0.0002 -2.2441 -0.0003
# 4 0.0000 0.0000 -0.0002 20.2531 -0.0001 1.6333
# 5 0.9882 -9.5761 -2.2441 -0.0001 38.1606 -0.0001
# 6 -0.0001 -0.0001 -0.0003 1.6333 -0.0001 10.0535
#
#
#
# Elastic Compliance Matrix: (Units=1/GPa)
#
#
# Indices 1 2 3 4 5 6 
#
# 1 0.019239 -0.004211 -0.004802 0.000000 -0.001837 0.000000
# 2 -0.004211 0.017339 -0.002041 0.000000 0.004340 0.000000
# 3 -0.004802 -0.002041 0.009614 0.000000 0.000177 0.000000
# 4 0.000000 0.000000 0.000000 0.050031 0.000000 -0.008128
# 5 -0.001837 0.004340 0.000177 0.000000 0.027352 0.000000
# 6 0.000000 0.000000 0.000000 -0.008128 0.000000 0.100788
#
#
# Mechanical properties :
#
#
# Convention : Reuss Voigt Hill
#
# Bulk Modulus (GPa) = 41.52461 47.21239 44.36850
# Shear Modulus (GPa) = 19.64644 25.66718 22.65681
#
# Velocity S-wave (km/s) = 3.01385 3.44484 3.23653
# Velocity P-wave (km/s) = 5.59549 6.13602 5.87198
#
# Compressibility (1/GPa) = 0.02408211
#
# Stress axis : x y z
#
# Youngs Moduli (GPa) = 51.97909 57.67232 104.01907
#
# Poissons Ratio (x) = 0.24286 0.49953
# Poissons Ratio (y) = 0.21888 0.21234
# Poissons Ratio (z) = 0.24962 0.11773
#
# Static dielectric constant tensor:
#      x y z
#    x 1.809530 0.000000 0.015030 
#    y 0.000000 1.791880 0.000000 
#    z 0.015030 0.000000 1.796140 
# 
# From -- ./inp_files/190866.got.cif
#   From: 2010.05.17/outbox.cif.g08.bks.cpg/sg15_96_cif.got.tgz:190866.got - 2010.06.03 18:47:42.
