data_PCOD9275844
_publ_section_title
;
Structure prediction by ZEFSAII (Michael W. Deem and Ramdas Pophale) SiO2 
 PCOD9275844
Probable space group: C 2/C
;
_chemical_formula_sum "Si O2"
_cell_formula_units_Z 48
_cell_length_a 11.410011
_cell_length_b 23.937229
_cell_length_c 9.571703
_cell_angle_alpha 90.000000
_cell_angle_beta 121.345790
_cell_angle_gamma 90.000000
_cell_volume 2232.693330
_symmetry_space_group_name_H-M "C 2/C"
_symmetry_group_IT_number 15
_symmetry_cell_setting 'monoclinic'
loop_
_space_group_symop_operation_xyz
x,y,z
-x,y,1/2-z
-x,-y,-z
x,-y,1/2+z
1/2+x,1/2+y,z
1/2-x,1/2+y,1/2-z
1/2-x,1/2-y,-z
1/2+x,1/2-y,1/2+z
loop_
_atom_site_type_symbol
_atom_site_label
_atom_site_fract_x
_atom_site_fract_y
_atom_site_fract_z
Si Si1 0.305496 0.892673 0.358826
Si Si2 0.421413 0.101321 0.342803
Si Si3 0.358508 0.213143 0.735668
Si Si4 0.616079 0.570457 0.488777
Si Si5 0.289483 0.670658 0.122814
Si Si6 0.831137 0.944192 0.964882
O O1 0.454964 0.919442 0.482160
O O2 0.330891 0.826704 0.349068
O O3 0.232359 0.916155 0.176341
O O4 0.208901 0.905382 0.430104
O O5 0.500000 0.119355 0.250000
O O6 0.343004 0.151051 0.372881
O O7 0.301575 0.059057 0.219447
O O8 0.500000 0.195945 0.750000
O O9 0.361044 0.280009 0.754728
O O10 0.244662 0.197668 0.549140
O O11 0.637033 0.613786 0.377026
O O12 0.639540 0.506338 0.461077
O O13 0.468429 0.574875 0.471351
#
# Coordination Sequence:
#
# PCOD9275844 Si02
#       6
#     8   8   8   8   8   8
#     4  10  21  43  63  89 131 170 209 261 321 384
#     4  10  22  41  60  91 132 163 210 263 314 378
#     4  10  20  39  65  90 122 166 215 268 316 374
#     4  10  23  40  66  92 127 173 212 264 313 380
#     4  10  22  39  63  94 121 166 218 264 316 376
#     4  10  23  41  61  97 132 166 211 261 321 386
#
# _framework density 21.498698000000001
#
# number of rings (size 3 to 8) (size 9 to 14) (size 15 to 20)
#    0.000    2.000    1.667    0.500    4.667    0.667 
#    6.000    8.333    0.000    0.000    0.000    0.000 
#    0.000    0.000    0.000    0.000    0.000    0.000 
#
# Total GULP energy -133931.738315 kJ/mol
# GULP energy per Si atom -5580.489096 kJ/mol
# Density = 2.144977 g / cm^3
# Si number density = 21.498698 Si / 1000 Ang^3
#
#
#
# Elastic Constant Matrix: (Units=GPa)
#
#
# Indices 1 2 3 4 5 6 
#
# 1 132.0723 70.4771 37.5184 0.0000 -11.4825 0.0000
# 2 70.4771 130.9167 30.5938 0.0000 -26.6513 0.0000
# 3 37.5184 30.5938 80.7782 0.0000 12.7064 0.0000
# 4 0.0000 0.0000 0.0000 12.5167 0.0000 2.1629
# 5 -11.4825 -26.6513 12.7064 0.0000 26.8481 0.0000
# 6 0.0000 0.0000 0.0000 2.1629 0.0000 25.4613
#
#
#
# Elastic Compliance Matrix: (Units=1/GPa)
#
#
# Indices 1 2 3 4 5 6 
#
# 1 0.011400 -0.004913 -0.003710 0.000000 0.001755 0.000000
# 2 -0.004913 0.014697 -0.005671 0.000000 0.015172 0.000000
# 3 -0.003710 -0.005671 0.018784 0.000000 -0.016106 0.000000
# 4 0.000000 0.000000 0.000000 0.081083 0.000000 -0.006888
# 5 0.001755 0.015172 -0.016106 0.000000 0.060681 0.000000
# 6 0.000000 0.000000 0.000000 -0.006888 0.000000 0.039860
#
#
# Mechanical properties :
#
#
# Convention : Reuss Voigt Hill
#
# Bulk Modulus (GPa) = 61.37591 68.99397 65.18494
# Shear Modulus (GPa) = 19.19207 26.64376 22.91791
#
# Velocity S-wave (km/s) = 2.99106 3.52422 3.26853
# Velocity P-wave (km/s) = 6.36705 6.98011 6.68061
#
# Compressibility (1/GPa) = 0.01629304
#
# Stress axis : x y z
#
# Youngs Moduli (GPa) = 87.72241 68.04090 53.23609
#
# Poissons Ratio (x) = 0.33426 0.19751
# Poissons Ratio (y) = 0.43094 0.30191
# Poissons Ratio (z) = 0.32546 0.38588
#
# Static dielectric constant tensor:
#      x y z
#    x 1.760810 0.000000 0.048040 
#    y 0.000000 1.807300 0.000000 
#    z 0.048040 0.000000 1.847910 
# 
# From -- ./inp_files/32634.got.cif
#   From: 2010.05.17/outbox.cif.g08.bks.cpg/sg15_17_cif.got.tgz:32634.got - 2010.06.03 18:47:42.
