data_PCOD9275000
_publ_section_title
;
Structure prediction by ZEFSAII (Michael W. Deem and Ramdas Pophale) SiO2 
 PCOD9275000
Probable space group: C 2/C
;
_chemical_formula_sum "Si O2"
_cell_formula_units_Z 64
_cell_length_a 27.253668
_cell_length_b 16.867737
_cell_length_c 18.105872
_cell_angle_alpha 90.000000
_cell_angle_beta 157.327323
_cell_angle_gamma 90.000000
_cell_volume 3208.391630
_symmetry_space_group_name_H-M "C 2/C"
_symmetry_group_IT_number 15
_symmetry_cell_setting 'monoclinic'
loop_
_space_group_symop_operation_xyz
x,y,z
-x,y,1/2-z
-x,-y,-z
x,-y,1/2+z
1/2+x,1/2+y,z
1/2-x,1/2+y,1/2-z
1/2-x,1/2-y,-z
1/2+x,1/2-y,1/2+z
loop_
_atom_site_type_symbol
_atom_site_label
_atom_site_fract_x
_atom_site_fract_y
_atom_site_fract_z
Si Si1 0.696373 0.132400 0.413229
Si Si2 0.524592 0.028909 0.452521
Si Si3 0.230634 0.653465 0.703962
Si Si4 0.973412 0.791143 0.626272
Si Si5 0.880527 0.887334 0.795029
Si Si6 0.893688 0.924967 0.300332
Si Si7 0.138207 0.764871 0.451523
Si Si8 0.091593 0.386148 0.443797
O O1 0.602952 0.061003 0.264265
O O2 0.824463 0.105033 0.631591
O O3 0.743852 0.180123 0.407870
O O4 0.634034 0.193422 0.385026
O O5 0.619186 0.102912 0.584171
O O6 0.500000 0.000000 0.500000
O O7 0.587594 0.956627 0.496263
O O8 0.302197 0.599157 0.741825
O O9 0.170715 0.726457 0.575256
O O10 0.335481 0.678070 0.908916
O O11 0.967021 0.696155 0.608280
O O12 0.000000 0.807209 0.750000
O O13 0.071740 0.832616 0.706135
O O14 0.734720 0.872735 0.613457
O O15 0.902230 0.980263 0.805636
O O16 0.974804 0.880942 0.996746
O O17 0.000000 0.803980 0.250000
O O18 0.000000 0.411859 0.250000
#
# Coordination Sequence:
#
# PCOD9275000 Si02
#       8
#     8   8   8   8   8   8   8   8
#     4  10  22  39  61 100 127 167 214 271 329 393
#     4  12  26  41  66 100 138 165 219 285 335 384
#     4  10  21  41  67  92 131 174 213 270 335 396
#     4  10  25  43  65  98 133 178 226 276 325 379
#     4  10  20  41  70  93 130 176 229 268 322 409
#     4   9  19  38  68  95 122 174 219 264 330 394
#     4  10  20  38  67  94 130 170 214 256 333 405
#     4  11  25  43  70  95 129 182 226 266 333 400
#
# _framework density 19.947690999999999
#
# number of rings (size 3 to 8) (size 9 to 14) (size 15 to 20)
#    0.000    1.750    2.500    0.750    3.500    6.000 
#    2.250    0.625    0.000    0.000    0.000    0.000 
#    0.000    0.000    0.000    0.000    0.000    0.000 
#
# Total GULP energy -178691.175927 kJ/mol
# GULP energy per Si atom -5584.099248 kJ/mol
# Density = 1.990229 g / cm^3
# Si number density = 19.947691 Si / 1000 Ang^3
#
#
#
# Elastic Constant Matrix: (Units=GPa)
#
#
# Indices 1 2 3 4 5 6 
#
# 1 70.4564 34.5944 48.5009 0.0000 4.3115 0.0000
# 2 34.5944 55.9896 11.1683 0.0000 -11.6349 0.0000
# 3 48.5009 11.1683 111.1470 0.0000 2.6541 0.0000
# 4 0.0000 0.0000 0.0000 16.8884 0.0000 -2.0439
# 5 4.3115 -11.6349 2.6541 0.0000 24.3105 0.0000
# 6 0.0000 0.0000 0.0000 -2.0439 0.0000 23.9303
#
#
#
# Elastic Compliance Matrix: (Units=1/GPa)
#
#
# Indices 1 2 3 4 5 6 
#
# 1 0.034556 -0.022040 -0.012499 0.000000 -0.015312 0.000000
# 2 -0.022040 0.034455 0.005683 0.000000 0.019778 0.000000
# 3 -0.012499 0.005683 0.013798 0.000000 0.003430 0.000000
# 4 0.000000 0.000000 0.000000 0.059831 0.000000 0.005110
# 5 -0.015312 0.019778 0.003430 0.000000 0.052941 0.000000
# 6 0.000000 0.000000 0.000000 0.005110 0.000000 0.042224
#
#
# Mechanical properties :
#
#
# Convention : Reuss Voigt Hill
#
# Bulk Modulus (GPa) = 39.84440 47.34667 43.59553
# Shear Modulus (GPa) = 16.45376 22.58115 19.51746
#
# Velocity S-wave (km/s) = 2.87513 3.36820 3.13138
# Velocity P-wave (km/s) = 5.57132 6.23805 5.91409
#
# Compressibility (1/GPa) = 0.02509763
#
# Stress axis : x y z
#
# Youngs Moduli (GPa) = 28.93877 29.02364 72.47341
#
# Poissons Ratio (x) = 0.63968 0.90583
# Poissons Ratio (y) = 0.63781 -0.41187
# Poissons Ratio (z) = 0.36170 -0.16494
#
# Static dielectric constant tensor:
#      x y z
#    x 1.698430 0.000000 0.014420 
#    y 0.000000 1.704650 0.000000 
#    z 0.014420 0.000000 1.719970 
# 
# From -- ./inp_files/174269.got.cif
#   From: 2010.05.17/outbox.cif.g08.bks.cpg/sg15_88_cif.got.tgz:174269.got - 2010.06.03 18:47:42.
