data_PCOD9275571
_publ_section_title
;
Structure prediction by ZEFSAII (Michael W. Deem and Ramdas Pophale) SiO2 
 PCOD9275571
Probable space group: C 2/C
;
_chemical_formula_sum "Si O2"
_cell_formula_units_Z 40
_cell_length_a 27.544862
_cell_length_b 8.189402
_cell_length_c 20.576289
_cell_angle_alpha 90.000000
_cell_angle_beta 154.396078
_cell_angle_gamma 90.000000
_cell_volume 2005.819397
_symmetry_space_group_name_H-M "C 2/C"
_symmetry_group_IT_number 15
_symmetry_cell_setting 'monoclinic'
loop_
_space_group_symop_operation_xyz
x,y,z
-x,y,1/2-z
-x,-y,-z
x,-y,1/2+z
1/2+x,1/2+y,z
1/2-x,1/2+y,1/2-z
1/2-x,1/2-y,-z
1/2+x,1/2-y,1/2+z
loop_
_atom_site_type_symbol
_atom_site_label
_atom_site_fract_x
_atom_site_fract_y
_atom_site_fract_z
Si Si1 0.706857 0.817361 0.623186
Si Si2 0.235114 0.883443 0.569711
Si Si3 0.632118 0.966571 0.151358
Si Si4 0.777930 0.989667 0.085117
Si Si5 0.472905 0.578352 0.146575
O O1 0.816966 0.715992 0.779168
O O2 0.602218 0.693296 0.489526
O O3 0.675779 0.957447 0.636608
O O4 0.725186 0.889587 0.573547
O O5 0.261964 0.992993 0.538154
O O6 0.253863 0.695298 0.577329
O O7 0.309990 0.936874 0.719847
O O8 0.106456 0.924362 0.432116
O O9 0.500000 0.000000 0.000000
O O10 0.910675 0.025137 0.243890
O O11 0.500000 0.656766 0.250000
#
# Coordination Sequence:
#
# PCOD9275571 Si02
#       5
#     8   8   8   8   8
#     4  11  23  38  60  87 116 154 196 234 284 348
#     4   9  21  39  60  85 114 149 195 237 286 346
#     4  11  24  40  57  84 120 154 190 236 289 344
#     4  10  20  39  63  85 114 150 191 244 287 331
#     4   9  20  38  59  86 117 150 192 242 290 335
#
# _framework density 19.941974999999999
#
# number of rings (size 3 to 8) (size 9 to 14) (size 15 to 20)
#    0.000    2.000    0.000    2.400    0.000   13.600 
#    0.000   12.000    0.000    0.000    0.000    0.000 
#    0.000    0.000    0.000    0.000    0.000    0.000 
#
# Total GULP energy -111650.009000 kJ/mol
# GULP energy per Si atom -5582.500450 kJ/mol
# Density = 1.989659 g / cm^3
# Si number density = 19.941975 Si / 1000 Ang^3
#
#
#
# Elastic Constant Matrix: (Units=GPa)
#
#
# Indices 1 2 3 4 5 6 
#
# 1 55.5051 13.6816 8.6223 0.0000 3.9983 0.0000
# 2 13.6816 50.8775 -0.6090 0.0000 1.5906 0.0000
# 3 8.6223 -0.6090 83.5321 0.0000 3.4310 0.0000
# 4 0.0000 0.0000 0.0000 20.8853 0.0000 -5.8591
# 5 3.9983 1.5906 3.4310 0.0000 17.2939 0.0000
# 6 0.0000 0.0000 0.0000 -5.8591 0.0000 31.5774
#
#
#
# Elastic Compliance Matrix: (Units=1/GPa)
#
#
# Indices 1 2 3 4 5 6 
#
# 1 0.019881 -0.005253 -0.001937 0.000000 -0.003729 0.000000
# 2 -0.005253 0.021104 0.000732 0.000000 -0.000872 0.000000
# 3 -0.001937 0.000732 0.012261 0.000000 -0.002052 0.000000
# 4 0.000000 0.000000 0.000000 0.050510 0.000000 0.009372
# 5 -0.003729 -0.000872 -0.002052 0.000000 0.059173 0.000000
# 6 0.000000 0.000000 0.000000 0.009372 0.000000 0.033407
#
#
# Mechanical properties :
#
#
# Convention : Reuss Voigt Hill
#
# Bulk Modulus (GPa) = 24.79607 25.92273 25.35940
# Shear Modulus (GPa) = 22.45223 25.16595 23.80909
#
# Velocity S-wave (km/s) = 3.35905 3.55626 3.45906
# Velocity P-wave (km/s) = 5.24456 5.46717 5.35702
#
# Compressibility (1/GPa) = 0.04032897
#
# Stress axis : x y z
#
# Youngs Moduli (GPa) = 50.30006 47.38524 81.55929
#
# Poissons Ratio (x) = 0.24890 0.15800
# Poissons Ratio (y) = 0.26422 -0.05969
# Poissons Ratio (z) = 0.09744 -0.03468
#
# Static dielectric constant tensor:
#      x y z
#    x 1.704560 0.000000 -0.008940 
#    y 0.000000 1.713490 0.000000 
#    z -0.008940 0.000000 1.702440 
# 
# From -- ./inp_files/109542.got.cif
#   From: 2010.05.17/outbox.cif.g08.bks.cpg/sg15_55_cif.got.tgz:109542.got - 2010.06.03 18:47:42.
