data_PCOD9275408
_publ_section_title
;
Structure prediction by ZEFSAII (Michael W. Deem and Ramdas Pophale) SiO2 
 PCOD9275408
Probable space group: C 2/C
;
_chemical_formula_sum "Si O2"
_cell_formula_units_Z 56
_cell_length_a 22.188636
_cell_length_b 9.723356
_cell_length_c 11.909151
_cell_angle_alpha 90.000000
_cell_angle_beta 114.163440
_cell_angle_gamma 90.000000
_cell_volume 2344.250756
_symmetry_space_group_name_H-M "C 2/C"
_symmetry_group_IT_number 15
_symmetry_cell_setting 'monoclinic'
loop_
_space_group_symop_operation_xyz
x,y,z
-x,y,1/2-z
-x,-y,-z
x,-y,1/2+z
1/2+x,1/2+y,z
1/2-x,1/2+y,1/2-z
1/2-x,1/2-y,-z
1/2+x,1/2-y,1/2+z
loop_
_atom_site_type_symbol
_atom_site_label
_atom_site_fract_x
_atom_site_fract_y
_atom_site_fract_z
Si Si1 0.483419 0.160513 0.486490
Si Si2 0.343544 0.344315 0.003889
Si Si3 0.647291 0.224145 0.962033
Si Si4 0.194207 0.924592 0.176553
Si Si5 0.717603 0.054835 0.553972
Si Si6 0.558634 0.663525 0.207351
Si Si7 0.074703 0.148148 0.728191
O O1 0.418355 0.194624 0.512510
O O2 0.543732 0.242960 0.589059
O O3 0.466325 0.226086 0.352471
O O4 0.500000 0.000000 0.500000
O O5 0.279632 0.403255 0.023390
O O6 0.408502 0.363460 0.128115
O O7 0.341099 0.435637 0.890814
O O8 0.330854 0.184249 0.980222
O O9 0.624041 0.297597 0.828963
O O10 0.694824 0.325188 0.069444
O O11 0.682480 0.078411 0.977785
O O12 0.257226 0.963921 0.298520
O O13 0.146564 0.842842 0.225099
O O14 0.500000 0.697130 0.250000
O O15 0.549568 0.502392 0.174632
#
# Coordination Sequence:
#
# PCOD9275408 Si02
#       7
#     8   8   8   8   8   8   8
#     4  10  23  40  61  89 119 154 204 252 300 353
#     4  10  21  39  59  88 122 155 201 242 296 368
#     4  10  21  40  61  85 124 158 193 250 301 351
#     4  10  20  39  61  88 119 157 199 239 299 365
#     4  10  22  37  59  89 123 158 194 246 300 351
#     4  10  21  41  61  85 120 161 201 246 296 354
#     4  10  21  40  64  85 120 158 195 250 302 353
#
# _framework density 23.888231000000001
#
# number of rings (size 3 to 8) (size 9 to 14) (size 15 to 20)
#    0.000    2.000    1.429    1.286    2.000    2.857 
#    5.143    0.000    0.000    0.000    0.000    0.000 
#    0.000    0.000    0.000    0.000    0.000    0.000 
#
# Total GULP energy -156553.409688 kJ/mol
# GULP energy per Si atom -5591.193203 kJ/mol
# Density = 2.383386 g / cm^3
# Si number density = 23.888231 Si / 1000 Ang^3
#
#
#
# Elastic Constant Matrix: (Units=GPa)
#
#
# Indices 1 2 3 4 5 6 
#
# 1 54.1185 6.8741 6.4798 0.0000 -1.7904 0.0000
# 2 6.8741 165.3092 47.9210 0.0000 23.6916 0.0000
# 3 6.4798 47.9210 103.4487 0.0000 18.9937 0.0000
# 4 0.0000 0.0000 0.0000 34.5053 0.0000 15.8835
# 5 -1.7904 23.6916 18.9937 0.0000 18.2617 0.0000
# 6 0.0000 0.0000 0.0000 15.8835 0.0000 31.1225
#
#
#
# Elastic Compliance Matrix: (Units=1/GPa)
#
#
# Indices 1 2 3 4 5 6 
#
# 1 0.018960 -0.001018 -0.001607 0.000000 0.004850 0.000000
# 2 -0.001018 0.007861 -0.002085 0.000000 -0.008130 0.000000
# 3 -0.001607 -0.002085 0.012688 0.000000 -0.010649 0.000000
# 4 0.000000 0.000000 0.000000 0.037880 0.000000 -0.019332
# 5 0.004850 -0.008130 -0.010649 0.000000 0.076858 0.000000
# 6 0.000000 0.000000 0.000000 -0.019332 0.000000 0.041997
#
#
# Mechanical properties :
#
#
# Convention : Reuss Voigt Hill
#
# Bulk Modulus (GPa) = 33.23319 49.49179 41.36249
# Shear Modulus (GPa) = 23.18092 34.21800 28.69946
#
# Velocity S-wave (km/s) = 3.11849 3.78884 3.46989
# Velocity P-wave (km/s) = 5.18737 6.31692 5.77980
#
# Compressibility (1/GPa) = 0.03009040
#
# Stress axis : x y z
#
# Youngs Moduli (GPa) = 52.74236 127.20749 78.81178
#
# Poissons Ratio (x) = 0.12947 0.12663
# Poissons Ratio (y) = 0.05368 0.16434
# Poissons Ratio (z) = 0.08474 0.26525
#
# Static dielectric constant tensor:
#      x y z
#    x 2.008520 0.000000 -0.065340 
#    y 0.000000 1.840150 0.000000 
#    z -0.065340 0.000000 1.936440 
# 
# From -- ./inp_files/125964.got.cif
#   From: 2010.05.17/outbox.cif.g08.bks.cpg/sg15_63_cif.got.tgz:125964.got - 2010.06.03 18:47:42.
