data_PCOD9275151
_publ_section_title
;
Structure prediction by ZEFSAII (Michael W. Deem and Ramdas Pophale) SiO2 
 PCOD9275151
Probable space group: C 2/C
;
_chemical_formula_sum "Si O2"
_cell_formula_units_Z 52
_cell_length_a 8.196611
_cell_length_b 12.323269
_cell_length_c 27.388372
_cell_angle_alpha 90.000000
_cell_angle_beta 59.019673
_cell_angle_gamma 90.000000
_cell_volume 2371.819477
_symmetry_space_group_name_H-M "C 2/C"
_symmetry_group_IT_number 15
_symmetry_cell_setting 'monoclinic'
loop_
_space_group_symop_operation_xyz
x,y,z
-x,y,1/2-z
-x,-y,-z
x,-y,1/2+z
1/2+x,1/2+y,z
1/2-x,1/2+y,1/2-z
1/2-x,1/2-y,-z
1/2+x,1/2-y,1/2+z
loop_
_atom_site_type_symbol
_atom_site_label
_atom_site_fract_x
_atom_site_fract_y
_atom_site_fract_z
Si Si1 0.045987 0.874645 0.187852
Si Si2 0.324034 0.074221 0.815188
Si Si3 0.291648 0.223549 0.911684
Si Si4 0.155630 0.440191 0.879886
Si Si5 0.043893 0.753365 0.969637
Si Si6 0.500000 0.000000 0.000000
Si Si7 0.350664 0.855629 0.860275
O O1 0.131657 0.754692 0.172280
O O2 0.000000 0.902773 0.250000
O O3 0.858849 0.875593 0.183232
O O4 0.193469 0.964818 0.148245
O O5 0.500000 0.074434 0.750000
O O6 0.361463 0.140604 0.859593
O O7 0.269869 0.952698 0.840337
O O8 0.253361 0.337962 0.891114
O O9 0.429870 0.245963 0.935791
O O10 0.091918 0.191087 0.968745
O O11 0.055191 0.399662 0.846552
O O12 0.999032 0.485709 0.941251
O O13 0.229569 0.821078 0.926612
O O14 0.071309 0.629625 0.982469
#
# Coordination Sequence:
#
# PCOD9275151 Si02
#       7
#     8   8   8   8   8   4   8
#     4  12  27  47  70 102 140 188 242 300 361 429
#     4  12  27  47  70 102 144 191 242 301 360 434
#     4  10  23  44  70 107 143 190 238 292 367 420
#     4  11  23  44  69 104 142 182 237 292 361 421
#     4  10  22  41  72 107 145 187 236 300 356 436
#     4  10  20  38  70 102 142 184 226 290 350 420
#     4  12  25  46  74 105 137 192 240 295 363 437
#
# _framework density 21.924097
#
# number of rings (size 3 to 8) (size 9 to 14) (size 15 to 20)
#    0.000    0.923    3.077    3.231    2.154    4.923 
#    2.769    0.000    0.000    0.000    0.000    0.000 
#    0.000    0.000    0.000    0.000    0.000    0.000 
#
# Total GULP energy -144796.325750 kJ/mol
# GULP energy per Si atom -5569.089452 kJ/mol
# Density = 2.187420 g / cm^3
# Si number density = 21.924097 Si / 1000 Ang^3
#
#
#
# Elastic Constant Matrix: (Units=GPa)
#
#
# Indices 1 2 3 4 5 6 
#
# 1 32.8143 1.6820 5.4755 0.0000 4.9254 0.0000
# 2 1.6820 89.9951 19.5526 0.0000 -2.9774 0.0000
# 3 5.4755 19.5526 99.6284 0.0000 6.2377 0.0000
# 4 0.0000 0.0000 0.0000 17.9328 0.0000 6.9852
# 5 4.9254 -2.9774 6.2377 0.0000 27.6259 0.0000
# 6 0.0000 0.0000 0.0000 6.9852 0.0000 13.0666
#
#
#
# Elastic Compliance Matrix: (Units=1/GPa)
#
#
# Indices 1 2 3 4 5 6 
#
# 1 0.031524 -0.000485 -0.001301 0.000000 -0.005379 0.000000
# 2 -0.000485 0.011702 -0.002388 0.000000 0.001887 0.000000
# 3 -0.001301 -0.002388 0.010731 0.000000 -0.002448 0.000000
# 4 0.000000 0.000000 0.000000 0.070430 0.000000 -0.037651
# 5 -0.005379 0.001887 -0.002448 0.000000 0.037913 0.000000
# 6 0.000000 0.000000 0.000000 -0.037651 0.000000 0.096659
#
#
# Mechanical properties :
#
#
# Convention : Reuss Voigt Hill
#
# Bulk Modulus (GPa) = 21.92502 30.65086 26.28794
# Shear Modulus (GPa) = 17.69863 24.77357 21.23610
#
# Velocity S-wave (km/s) = 2.84433 3.36515 3.11564
# Velocity P-wave (km/s) = 4.56170 5.39535 4.99594
#
# Compressibility (1/GPa) = 0.04561000
#
# Stress axis : x y z
#
# Youngs Moduli (GPa) = 31.72210 85.45526 93.19015
#
# Poissons Ratio (x) = 0.04141 0.12121
# Poissons Ratio (y) = 0.01537 0.22255
# Poissons Ratio (z) = 0.04126 0.20407
#
# Static dielectric constant tensor:
#      x y z
#    x 1.866450 0.000000 -0.099530 
#    y 0.000000 1.754580 0.000000 
#    z -0.099530 0.000000 1.870560 
# 
# From -- ./inp_files/287919.got.cif
#   From: 2010.05.17/outbox.cif.g08.bks.cpg/sg15_144_cif.got.tgz:287919.got - 2010.06.03 18:47:42.
