data_PCOD9275043
_publ_section_title
;
Structure prediction by ZEFSAII (Michael W. Deem and Ramdas Pophale) SiO2 
 PCOD9275043
Probable space group: C 2/C
;
_chemical_formula_sum "Si O2"
_cell_formula_units_Z 40
_cell_length_a 10.280612
_cell_length_b 17.015262
_cell_length_c 14.165810
_cell_angle_alpha 90.000000
_cell_angle_beta 43.731043
_cell_angle_gamma 90.000000
_cell_volume 1712.968016
_symmetry_space_group_name_H-M "C 2/C"
_symmetry_group_IT_number 15
_symmetry_cell_setting 'monoclinic'
loop_
_space_group_symop_operation_xyz
x,y,z
-x,y,1/2-z
-x,-y,-z
x,-y,1/2+z
1/2+x,1/2+y,z
1/2-x,1/2+y,1/2-z
1/2-x,1/2-y,-z
1/2+x,1/2-y,1/2+z
loop_
_atom_site_type_symbol
_atom_site_label
_atom_site_fract_x
_atom_site_fract_y
_atom_site_fract_z
Si Si1 0.000000 0.641002 0.250000
Si Si2 0.268609 0.540032 0.767110
Si Si3 0.807770 0.956047 0.471514
Si Si4 0.725222 0.852932 0.800122
Si Si5 0.122115 0.618714 0.566214
Si Si6 0.000000 0.250240 0.250000
O O1 0.103729 0.684931 0.280627
O O2 0.840878 0.590465 0.387574
O O3 0.475015 0.563533 0.622788
O O4 0.267251 0.556511 0.880931
O O5 0.250644 0.445571 0.765607
O O6 0.087087 0.580417 0.816800
O O7 0.768435 0.048600 0.505724
O O8 0.915296 0.805351 0.714692
O O9 0.636927 0.852387 0.950712
O O10 0.144090 0.690461 0.625203
#
# Coordination Sequence:
#
# PCOD9275043 Si02
#       6
#     4   8   8   8   8   4
#     4  12  21  40  68  99 140 172 230 292 351 392
#     4  10  20  40  71 100 137 181 236 286 347 402
#     4  10  20  38  68 105 134 175 228 296 342 402
#     4  11  23  44  67 101 142 186 221 298 349 412
#     4  11  21  45  69 101 139 184 237 290 336 420
#     4  12  27  44  68  99 144 192 232 276 361 424
#
# _framework density 23.351281
#
# number of rings (size 3 to 8) (size 9 to 14) (size 15 to 20)
#    0.000    1.200    4.000    4.800    0.000    0.800 
#    7.200    3.000    0.000    0.000    0.000    0.000 
#    0.000    0.000    0.000    0.000    0.000    0.000 
#
# Total GULP energy -111890.646618 kJ/mol
# GULP energy per Si atom -5594.532331 kJ/mol
# Density = 2.329813 g / cm^3
# Si number density = 23.351281 Si / 1000 Ang^3
#
#
#
# Elastic Constant Matrix: (Units=GPa)
#
#
# Indices 1 2 3 4 5 6 
#
# 1 68.8360 7.4546 10.3613 0.0002 8.1202 -0.0004
# 2 7.4546 47.8823 9.2654 -0.0001 -8.3362 -0.0001
# 3 10.3613 9.2654 107.1512 -0.0007 -16.6617 0.0004
# 4 0.0002 -0.0001 -0.0007 18.3312 0.0002 -5.2593
# 5 8.1202 -8.3362 -16.6617 0.0002 33.8875 0.0000
# 6 -0.0004 -0.0001 0.0004 -5.2593 0.0000 15.1730
#
#
#
# Elastic Compliance Matrix: (Units=1/GPa)
#
#
# Indices 1 2 3 4 5 6 
#
# 1 0.015836 -0.003025 -0.002139 0.000000 -0.005591 0.000000
# 2 -0.003025 0.022526 -0.000737 0.000000 0.005904 0.000000
# 3 -0.002139 -0.000737 0.010454 0.000000 0.005471 0.000000
# 4 0.000000 0.000000 0.000000 0.060576 0.000000 0.020997
# 5 -0.005591 0.005904 0.005471 0.000000 0.034991 0.000000
# 6 0.000000 0.000000 0.000000 0.020997 0.000000 0.073185
#
#
# Mechanical properties :
#
#
# Convention : Reuss Voigt Hill
#
# Bulk Modulus (GPa) = 27.01709 30.89247 28.95478
# Shear Modulus (GPa) = 20.68607 26.59755 23.64181
#
# Velocity S-wave (km/s) = 2.97958 3.37860 3.18534
# Velocity P-wave (km/s) = 4.84068 5.33648 5.09461
#
# Compressibility (1/GPa) = 0.03701361
#
# Stress axis : x y z
#
# Youngs Moduli (GPa) = 63.14588 44.39323 95.65744
#
# Poissons Ratio (x) = 0.13428 0.20462
# Poissons Ratio (y) = 0.19101 0.07053
# Poissons Ratio (z) = 0.13508 0.03273
#
# Static dielectric constant tensor:
#      x y z
#    x 1.915700 0.000000 0.003730 
#    y 0.000000 1.831950 0.000000 
#    z 0.003730 0.000000 1.922030 
# 
# From -- ./inp_files/145413.got.cif
#   From: 2010.05.17/outbox.cif.g08.bks.cpg/sg15_73_cif.got.tgz:145413.got - 2010.06.03 18:47:42.
