data_PCOD9275456
_publ_section_title
;
Structure prediction by ZEFSAII (Michael W. Deem and Ramdas Pophale) SiO2 
 PCOD9275456
Probable space group: C 2/C
;
_chemical_formula_sum "Si O2"
_cell_formula_units_Z 56
_cell_length_a 33.892106
_cell_length_b 6.430432
_cell_length_c 17.627438
_cell_angle_alpha 90.000000
_cell_angle_beta 133.109296
_cell_angle_gamma 90.000000
_cell_volume 2804.667262
_symmetry_space_group_name_H-M "C 2/C"
_symmetry_group_IT_number 15
_symmetry_cell_setting 'monoclinic'
loop_
_space_group_symop_operation_xyz
x,y,z
-x,y,1/2-z
-x,-y,-z
x,-y,1/2+z
1/2+x,1/2+y,z
1/2-x,1/2+y,1/2-z
1/2-x,1/2-y,-z
1/2+x,1/2-y,1/2+z
loop_
_atom_site_type_symbol
_atom_site_label
_atom_site_fract_x
_atom_site_fract_y
_atom_site_fract_z
Si Si1 0.170691 0.886281 0.361228
Si Si2 0.634833 0.351558 0.546958
Si Si3 0.911598 0.003145 0.863885
Si Si4 0.788146 0.391869 0.447642
Si Si5 0.859552 0.770406 0.559761
Si Si6 0.549047 0.968377 0.862687
Si Si7 0.502573 0.806532 0.445852
O O1 0.181260 0.714497 0.439824
O O2 0.225247 0.890270 0.383715
O O3 0.120357 0.860831 0.239403
O O4 0.158168 0.100111 0.389777
O O5 0.627907 0.399558 0.626088
O O6 0.690672 0.240610 0.595864
O O7 0.629822 0.561896 0.491956
O O8 0.586981 0.199430 0.454505
O O9 0.946930 0.821586 0.872114
O O10 0.952474 0.148187 0.963837
O O11 0.810281 0.623537 0.470555
O O12 0.911237 0.618350 0.633324
O O13 0.500000 0.872130 0.750000
O O14 0.520765 0.108698 0.889061
O O15 0.500000 0.000000 0.500000
#
# Coordination Sequence:
#
# PCOD9275456 Si02
#       7
#     8   8   8   8   8   8   8
#     4  10  21  40  66  90 117 156 205 248 299 365
#     4  10  21  40  57  86 127 154 194 256 298 361
#     4  11  23  40  60  88 124 163 197 247 309 358
#     4   9  21  41  62  91 120 152 202 255 296 357
#     4  10  20  39  62  85 119 156 198 251 302 355
#     4  11  22  37  60  87 116 162 207 249 301 356
#     4  11  23  40  60  85 125 160 203 248 299 367
#
# _framework density 19.966716000000002
#
# number of rings (size 3 to 8) (size 9 to 14) (size 15 to 20)
#    0.000    1.714    2.857    1.286    0.000    5.143 
#    2.571    0.000    0.000    0.000    0.000    0.000 
#    0.000    0.000    0.000    0.000    0.000    0.000 
#
# Total GULP energy -156353.980198 kJ/mol
# GULP energy per Si atom -5584.070721 kJ/mol
# Density = 1.992127 g / cm^3
# Si number density = 19.966716 Si / 1000 Ang^3
#
#
#
# Elastic Constant Matrix: (Units=GPa)
#
#
# Indices 1 2 3 4 5 6 
#
# 1 110.0639 15.9879 4.5287 0.0000 2.0994 0.0000
# 2 15.9879 60.4857 0.0196 0.0002 -0.5284 0.0003
# 3 4.5287 0.0196 38.1623 0.0000 10.1499 0.0000
# 4 0.0000 0.0002 0.0000 15.6397 0.0000 -3.0614
# 5 2.0994 -0.5284 10.1499 0.0000 10.0847 0.0000
# 6 0.0000 0.0003 0.0000 -3.0614 0.0000 24.0554
#
#
#
# Elastic Compliance Matrix: (Units=1/GPa)
#
#
# Indices 1 2 3 4 5 6 
#
# 1 0.009510 -0.002525 -0.000772 0.000000 -0.001335 0.000000
# 2 -0.002525 0.017214 -0.000121 0.000000 0.001550 0.000000
# 3 -0.000772 -0.000121 0.035851 0.000000 -0.035929 0.000000
# 4 0.000000 0.000000 0.000000 0.065574 0.000000 0.008345
# 5 -0.001335 0.001550 -0.035929 0.000000 0.135680 0.000000
# 6 0.000000 0.000000 0.000000 0.008345 0.000000 0.042633
#
#
# Mechanical properties :
#
#
# Convention : Reuss Voigt Hill
#
# Bulk Modulus (GPa) = 17.94120 27.75380 22.84750
# Shear Modulus (GPa) = 15.06579 22.50099 18.78339
#
# Velocity S-wave (km/s) = 2.74988 3.36061 3.07047
# Velocity P-wave (km/s) = 4.36892 5.38410 4.90286
#
# Compressibility (1/GPa) = 0.05573765
#
# Stress axis : x y z
#
# Youngs Moduli (GPa) = 105.15629 58.09271 27.89288
#
# Poissons Ratio (x) = 0.14669 0.02154
# Poissons Ratio (y) = 0.26553 0.00339
# Poissons Ratio (z) = 0.08120 0.00705
#
# Static dielectric constant tensor:
#      x y z
#    x 1.719240 0.000000 -0.002890 
#    y 0.000000 1.685110 0.000000 
#    z -0.002890 0.000000 1.686900 
# 
# From -- ./inp_files/221219.got.cif
#   From: 2010.05.17/outbox.cif.g08.bks.cpg/sg15_111_cif.got.tgz:221219.got - 2010.06.03 18:47:42.
