data_PCOD9275603
_publ_section_title
;
Structure prediction by ZEFSAII (Michael W. Deem and Ramdas Pophale) SiO2 
 PCOD9275603
Probable space group: C 2/C
;
_chemical_formula_sum "Si O2"
_cell_formula_units_Z 64
_cell_length_a 20.870801
_cell_length_b 13.061396
_cell_length_c 11.872519
_cell_angle_alpha 90.000000
_cell_angle_beta 112.630340
_cell_angle_gamma 90.000000
_cell_volume 2987.283150
_symmetry_space_group_name_H-M "C 2/C"
_symmetry_group_IT_number 15
_symmetry_cell_setting 'monoclinic'
loop_
_space_group_symop_operation_xyz
x,y,z
-x,y,1/2-z
-x,-y,-z
x,-y,1/2+z
1/2+x,1/2+y,z
1/2-x,1/2+y,1/2-z
1/2-x,1/2-y,-z
1/2+x,1/2-y,1/2+z
loop_
_atom_site_type_symbol
_atom_site_label
_atom_site_fract_x
_atom_site_fract_y
_atom_site_fract_z
Si Si1 0.796564 0.020977 0.271401
Si Si2 0.404348 0.568030 0.025828
Si Si3 0.310883 0.709769 0.122629
Si Si4 0.843187 0.403703 0.286729
Si Si5 0.618326 0.392769 0.344520
Si Si6 0.528469 0.720155 0.593694
Si Si7 0.070792 0.414413 0.724933
Si Si8 0.628425 0.204823 0.464318
O O1 0.790741 0.134882 0.214387
O O2 0.854070 0.991803 0.404174
O O3 0.724462 0.975571 0.266444
O O4 0.824719 0.954971 0.185643
O O5 0.458762 0.639938 0.997749
O O6 0.361655 0.644923 0.076880
O O7 0.428396 0.474185 0.119194
O O8 0.342938 0.811379 0.198425
O O9 0.250000 0.750000 0.000000
O O10 0.908039 0.477050 0.308812
O O11 0.843726 0.353488 0.409997
O O12 0.568371 0.331486 0.225996
O O13 0.661323 0.311349 0.447939
O O14 0.564701 0.832274 0.619181
O O15 0.448789 0.750669 0.557384
O O16 0.123988 0.370148 0.854161
O O17 0.000000 0.418302 0.750000
#
# Coordination Sequence:
#
# PCOD9275603 Si02
#       8
#     8   8   8   8   8   8   8   8
#     4  10  23  38  59  90 122 160 202 244 320 368
#     4  10  20  39  63  88 126 160 197 262 302 359
#     4  11  24  40  58  89 125 153 206 260 293 366
#     4  12  25  37  64  91 118 164 207 246 310 373
#     4   9  19  38  61  87 121 160 200 250 301 363
#     4   9  20  40  63  89 121 163 205 245 308 364
#     4   9  22  40  59  86 122 159 201 249 300 362
#     4  10  22  40  61  88 123 159 205 253 295 373
#
# _framework density 21.424150000000001
#
# number of rings (size 3 to 8) (size 9 to 14) (size 15 to 20)
#    0.000    2.000    1.250    1.875    3.500    5.000 
#    0.000    2.500    0.000    0.000    0.000    0.000 
#    0.000    0.000    0.000    0.000    0.000    0.000 
#
# Total GULP energy -178512.046081 kJ/mol
# GULP energy per Si atom -5578.501440 kJ/mol
# Density = 2.137539 g / cm^3
# Si number density = 21.424150 Si / 1000 Ang^3
#
#
#
# Elastic Constant Matrix: (Units=GPa)
#
#
# Indices 1 2 3 4 5 6 
#
# 1 30.4301 15.6560 -4.9707 0.0000 -4.7347 0.0000
# 2 15.6560 143.3971 29.0690 0.0000 -7.1560 0.0000
# 3 -4.9707 29.0690 35.6392 0.0000 -12.3361 0.0000
# 4 0.0000 0.0000 0.0000 31.5933 0.0000 -5.0038
# 5 -4.7347 -7.1560 -12.3361 0.0000 21.6573 0.0000
# 6 0.0000 0.0000 0.0000 -5.0038 0.0000 27.2378
#
#
#
# Elastic Compliance Matrix: (Units=1/GPa)
#
#
# Indices 1 2 3 4 5 6 
#
# 1 0.042168 -0.007354 0.017724 0.000000 0.016885 0.000000
# 2 -0.007354 0.009672 -0.010419 0.000000 -0.004347 0.000000
# 3 0.017724 -0.010419 0.048801 0.000000 0.028229 0.000000
# 4 0.000000 0.000000 0.000000 0.032601 0.000000 0.005989
# 5 0.016885 -0.004347 0.028229 0.000000 0.064508 0.000000
# 6 0.000000 0.000000 0.000000 0.005989 0.000000 0.037814
#
#
# Mechanical properties :
#
#
# Convention : Reuss Voigt Hill
#
# Bulk Modulus (GPa) = 9.94606 32.10833 21.02719
# Shear Modulus (GPa) = 18.57521 27.41183 22.99352
#
# Velocity S-wave (km/s) = 2.94772 3.58087 3.27961
# Velocity P-wave (km/s) = 4.02963 5.66713 4.91702
#
# Compressibility (1/GPa) = 0.10054229
#
# Stress axis : x y z
#
# Youngs Moduli (GPa) = 23.71455 103.39359 20.49157
#
# Poissons Ratio (x) = 0.76039 -0.36320
# Poissons Ratio (y) = 0.17440 0.21350
# Poissons Ratio (z) = -0.42032 1.07727
#
# Static dielectric constant tensor:
#      x y z
#    x 1.797480 0.000000 -0.018150 
#    y 0.000000 1.790240 0.000000 
#    z -0.018150 0.000000 1.817490 
# 
# From -- ./inp_files/118016.got.cif
#   From: 2010.05.17/outbox.cif.g08.bks.cpg/sg15_60_cif.got.tgz:118016.got - 2010.06.03 18:47:42.
