data_PCOD9275670
_publ_section_title
;
Structure prediction by ZEFSAII (Michael W. Deem and Ramdas Pophale) SiO2 
 PCOD9275670
Probable space group: C 2/C
;
_chemical_formula_sum "Si O2"
_cell_formula_units_Z 52
_cell_length_a 7.248617
_cell_length_b 18.544437
_cell_length_c 22.724952
_cell_angle_alpha 90.000000
_cell_angle_beta 45.539207
_cell_angle_gamma 90.000000
_cell_volume 2180.246895
_symmetry_space_group_name_H-M "C 2/C"
_symmetry_group_IT_number 15
_symmetry_cell_setting 'monoclinic'
loop_
_space_group_symop_operation_xyz
x,y,z
-x,y,1/2-z
-x,-y,-z
x,-y,1/2+z
1/2+x,1/2+y,z
1/2-x,1/2+y,1/2-z
1/2-x,1/2-y,-z
1/2+x,1/2-y,1/2+z
loop_
_atom_site_type_symbol
_atom_site_label
_atom_site_fract_x
_atom_site_fract_y
_atom_site_fract_z
Si Si1 0.067782 0.554041 0.932216
Si Si2 0.224770 0.695260 0.749497
Si Si3 0.421704 0.716732 0.408061
Si Si4 0.500000 0.433813 0.250000
Si Si5 0.971058 0.757202 0.090755
Si Si6 0.433209 0.411728 0.442533
Si Si7 0.021915 0.928957 0.940656
O O1 0.271726 0.527942 0.837791
O O2 0.232345 0.608850 0.935874
O O3 0.000000 0.500000 0.000000
O O4 0.786277 0.576363 0.973012
O O5 0.344101 0.618524 0.740076
O O6 0.434433 0.745259 0.668771
O O7 0.000000 0.692769 0.750000
O O8 0.120664 0.728422 0.833367
O O9 0.250000 0.750000 0.500000
O O10 0.218242 0.703631 0.400675
O O11 0.557086 0.642174 0.395055
O O12 0.896223 0.840440 0.091169
O O13 0.250000 0.750000 0.000000
O O14 0.322174 0.423003 0.533217
O O15 0.555688 0.491513 0.404498
#
# Coordination Sequence:
#
# PCOD9275670 Si02
#       7
#     8   8   8   4   8   8   8
#     4  10  22  38  61  96 127 165 218 267 327 403
#     4  10  25  40  60  98 129 163 225 277 327 397
#     4  11  21  37  63  94 126 169 214 281 332 387
#     4  12  22  36  70  92 118 176 222 272 328 402
#     4  11  22  39  65  94 132 172 221 278 333 388
#     4  10  20  39  63  93 127 171 212 266 324 404
#     4  10  21  38  66  92 129 172 214 261 342 391
#
# _framework density 23.850508999999999
#
# number of rings (size 3 to 8) (size 9 to 14) (size 15 to 20)
#    0.000    1.538    3.077    1.846    4.308    0.000 
#    0.000    0.000   33.846    0.000    6.000    0.000 
#    0.000    0.000    0.000    0.000    0.000    0.000 
#
# Total GULP energy -144866.094377 kJ/mol
# GULP energy per Si atom -5571.772861 kJ/mol
# Density = 2.379622 g / cm^3
# Si number density = 23.850509 Si / 1000 Ang^3
#
#
#
# Elastic Constant Matrix: (Units=GPa)
#
#
# Indices 1 2 3 4 5 6 
#
# 1 88.9189 0.6646 7.5205 -0.0006 13.5401 0.0006
# 2 0.6646 101.4550 25.3167 -0.0002 7.7359 0.0002
# 3 7.5205 25.3167 172.4545 -0.0005 8.8068 0.0001
# 4 -0.0006 -0.0002 -0.0005 33.7116 0.0005 7.9841
# 5 13.5401 7.7359 8.8068 0.0005 26.6081 -0.0004
# 6 0.0006 0.0002 0.0001 7.9841 -0.0004 23.1209
#
#
#
# Elastic Compliance Matrix: (Units=1/GPa)
#
#
# Indices 1 2 3 4 5 6 
#
# 1 0.012220 0.000468 -0.000282 0.000000 -0.006261 -0.000001
# 2 0.000468 0.010418 -0.001407 0.000000 -0.002801 0.000000
# 3 -0.000282 -0.001407 0.006092 0.000000 -0.001464 0.000000
# 4 0.000000 0.000000 0.000000 0.032305 -0.000001 -0.011156
# 5 -0.006261 -0.002801 -0.001464 -0.000001 0.042068 0.000001
# 6 -0.000001 0.000000 0.000000 -0.011156 0.000001 0.047103
#
#
# Mechanical properties :
#
#
# Convention : Reuss Voigt Hill
#
# Bulk Modulus (GPa) = 38.03938 47.75910 42.89924
# Shear Modulus (GPa) = 30.97677 38.64321 34.80999
#
# Velocity S-wave (km/s) = 3.60778 4.02957 3.82449
# Velocity P-wave (km/s) = 5.77395 6.45893 6.12602
#
# Compressibility (1/GPa) = 0.02628855
#
# Stress axis : x y z
#
# Youngs Moduli (GPa) = 81.83339 95.98625 164.14439
#
# Poissons Ratio (x) = -0.04489 0.04626
# Poissons Ratio (y) = -0.03827 0.23091
# Poissons Ratio (z) = 0.02306 0.13503
#
# Static dielectric constant tensor:
#      x y z
#    x 2.119350 0.000000 -0.067810 
#    y 0.000000 1.972180 0.000000 
#    z -0.067810 0.000000 2.075170 
# 
# From -- ./inp_files/289945.got.cif
#   From: 2010.05.17/outbox.cif.g08.bks.cpg/sg15_145_cif.got.tgz:289945.got - 2010.06.03 18:47:42.
