data_PCOD9275581
_publ_section_title
;
Structure prediction by ZEFSAII (Michael W. Deem and Ramdas Pophale) SiO2 
 PCOD9275581
Probable space group: C 2/C
;
_chemical_formula_sum "Si O2"
_cell_formula_units_Z 64
_cell_length_a 12.501958
_cell_length_b 12.641219
_cell_length_c 24.139519
_cell_angle_alpha 90.000000
_cell_angle_beta 113.603168
_cell_angle_gamma 90.000000
_cell_volume 3495.847897
_symmetry_space_group_name_H-M "C 2/C"
_symmetry_group_IT_number 15
_symmetry_cell_setting 'monoclinic'
loop_
_space_group_symop_operation_xyz
x,y,z
-x,y,1/2-z
-x,-y,-z
x,-y,1/2+z
1/2+x,1/2+y,z
1/2-x,1/2+y,1/2-z
1/2-x,1/2-y,-z
1/2+x,1/2-y,1/2+z
loop_
_atom_site_type_symbol
_atom_site_label
_atom_site_fract_x
_atom_site_fract_y
_atom_site_fract_z
Si Si1 0.942486 0.705104 0.946311
Si Si2 0.233582 0.941787 0.438753
Si Si3 0.146105 0.861958 0.664176
Si Si4 0.483127 0.605760 0.534183
Si Si5 0.427059 0.539678 0.179342
Si Si6 0.693579 0.136450 0.973191
Si Si7 0.722415 0.574920 0.632394
Si Si8 0.639948 0.255761 0.778082
O O1 0.848577 0.626576 0.953128
O O2 0.878139 0.776824 0.887749
O O3 0.053864 0.647045 0.943579
O O4 0.993566 0.789422 0.000248
O O5 0.143389 0.894097 0.464366
O O6 0.158473 0.957162 0.367063
O O7 0.267851 0.055161 0.471221
O O8 0.180451 0.798482 0.726706
O O9 0.023676 0.918048 0.656171
O O10 0.227093 0.955747 0.657341
O O11 0.500000 0.500000 0.500000
O O12 0.585806 0.604024 0.600204
O O13 0.500000 0.507813 0.250000
O O14 0.351122 0.642174 0.180395
O O15 0.733999 0.092096 0.921749
O O16 0.750000 0.250000 0.000000
O O17 0.790738 0.656156 0.685299
O O18 0.500000 0.232844 0.750000
#
# Coordination Sequence:
#
# PCOD9275581 Si02
#       8
#     8   8   8   8   8   8   8   8
#     4  12  24  38  58  96 128 157 199 259 311 362
#     4  12  23  38  60  92 130 156 197 262 318 358
#     4  10  20  39  63  86 119 161 209 244 306 375
#     4  12  21  40  64  91 120 168 207 239 302 387
#     4   9  19  38  61  86 113 159 215 251 294 368
#     4  12  22  38  63  92 124 163 211 249 303 375
#     4  12  21  37  70  89 117 160 215 247 305 366
#     4   9  21  39  62  89 116 154 211 263 296 349
#
# _framework density 18.307434000000001
#
# number of rings (size 3 to 8) (size 9 to 14) (size 15 to 20)
#    0.000    1.250    5.000    3.750    0.000    2.000 
#    0.000    0.000    2.750    0.000    0.000    0.000 
#    0.000    0.000    0.000    0.000    0.000    0.000 
#
# Total GULP energy -178584.552837 kJ/mol
# GULP energy per Si atom -5580.767276 kJ/mol
# Density = 1.826577 g / cm^3
# Si number density = 18.307434 Si / 1000 Ang^3
#
#
#
# Elastic Constant Matrix: (Units=GPa)
#
#
# Indices 1 2 3 4 5 6 
#
# 1 90.2624 37.1723 25.8931 0.0000 -8.1632 0.0000
# 2 37.1723 65.8637 57.1016 0.0000 -7.4845 0.0000
# 3 25.8931 57.1016 79.0642 0.0000 -8.6496 0.0000
# 4 0.0000 0.0000 0.0000 -0.8487 0.0000 17.4649
# 5 -8.1632 -7.4845 -8.6496 0.0000 22.3533 0.0000
# 6 0.0000 0.0000 0.0000 17.4649 0.0000 24.0845
#
#
#
# Elastic Compliance Matrix: (Units=1/GPa)
#
#
# Indices 1 2 3 4 5 6 
#
# 1 0.014921 -0.011039 0.003422 0.000000 0.003077 0.000000
# 2 -0.011039 0.048896 -0.031690 0.000000 0.000078 0.000000
# 3 0.003422 -0.031690 0.034866 0.000000 0.004131 0.000000
# 4 0.000000 0.000000 0.000000 -0.074000 0.000000 0.053662
# 5 0.003077 0.000078 0.004131 0.000000 0.047484 0.000000
# 6 0.000000 0.000000 0.000000 0.053662 0.000000 0.002608
#
#
# Mechanical properties :
#
#
# Convention : Reuss Voigt Hill
#
# Bulk Modulus (GPa) = 49.82351 52.83605 51.32978
# Shear Modulus (GPa) = 31.23494 16.78604 24.01049
#
# Velocity S-wave (km/s) = 4.13502 3.03132 3.62541
# Velocity P-wave (km/s) = 7.07614 6.41677 6.75451
#
# Compressibility (1/GPa) = 0.02007085
#
# Stress axis : x y z
#
# Youngs Moduli (GPa) = 67.01787 20.45168 28.68129
#
# Poissons Ratio (x) = 0.22576 -0.09816
# Poissons Ratio (y) = 0.73979 0.90890
# Poissons Ratio (z) = -0.22936 0.64811
#
# Static dielectric constant tensor:
#      x y z
#    x 1.634960 0.000000 -0.010450 
#    y 0.000000 1.620550 0.000000 
#    z -0.010450 0.000000 1.671430 
# 
# From -- ./inp_files/268907.got.cif
#   From: 2010.05.17/outbox.cif.g08.bks.cpg/sg15_135_cif.got.tgz:268907.got - 2010.06.03 18:47:42.
