data_PCOD9275645
_publ_section_title
;
Structure prediction by ZEFSAII (Michael W. Deem and Ramdas Pophale) SiO2 
 PCOD9275645
Probable space group: C 2/C
;
_chemical_formula_sum "Si O2"
_cell_formula_units_Z 40
_cell_length_a 11.845190
_cell_length_b 15.194401
_cell_length_c 9.614597
_cell_angle_alpha 90.000000
_cell_angle_beta 104.651336
_cell_angle_gamma 90.000000
_cell_volume 1674.171763
_symmetry_space_group_name_H-M "C 2/C"
_symmetry_group_IT_number 15
_symmetry_cell_setting 'monoclinic'
loop_
_space_group_symop_operation_xyz
x,y,z
-x,y,1/2-z
-x,-y,-z
x,-y,1/2+z
1/2+x,1/2+y,z
1/2-x,1/2+y,1/2-z
1/2-x,1/2-y,-z
1/2+x,1/2-y,1/2+z
loop_
_atom_site_type_symbol
_atom_site_label
_atom_site_fract_x
_atom_site_fract_y
_atom_site_fract_z
Si Si1 0.930337 0.089956 0.502755
Si Si2 0.885881 0.219934 0.915966
Si Si3 0.309046 0.662165 0.203025
Si Si4 0.513163 0.879944 0.401822
Si Si5 0.801667 0.508170 0.942587
O O1 0.902038 0.144388 0.352300
O O2 0.808040 0.061618 0.532704
O O3 0.022520 0.150743 0.612096
O O4 0.000000 0.000000 0.500000
O O5 0.843766 0.180052 0.052331
O O6 0.952330 0.309999 0.972461
O O7 0.775727 0.254551 0.793357
O O8 0.244757 0.567412 0.175152
O O9 0.500000 0.833571 0.250000
O O10 0.394388 0.927587 0.402478
O O11 0.617667 0.951679 0.425276
#
# Coordination Sequence:
#
# PCOD9275645 Si02
#       5
#     8   8   8   8   8
#     4  12  23  39  68 102 134 172 219 290 338 399
#     4  10  22  40  66  92 129 180 223 266 329 404
#     4  10  21  42  64  95 134 173 227 266 325 419
#     4  10  20  39  63  91 127 180 223 271 327 407
#     4  10  22  37  63  95 132 170 224 272 341 390
#
# _framework density 23.892410000000002
#
# number of rings (size 3 to 8) (size 9 to 14) (size 15 to 20)
#    0.000    1.600    2.000    3.000    0.000    0.800 
#    3.600    0.000    4.400    0.000    0.000    0.000 
#    0.000    0.000    0.000    0.000    0.000    0.000 
#
# Total GULP energy -111767.497847 kJ/mol
# GULP energy per Si atom -5588.374892 kJ/mol
# Density = 2.383803 g / cm^3
# Si number density = 23.892410 Si / 1000 Ang^3
#
#
#
# Elastic Constant Matrix: (Units=GPa)
#
#
# Indices 1 2 3 4 5 6 
#
# 1 145.1269 64.9800 23.7849 0.0000 25.5104 0.0000
# 2 64.9800 127.9268 28.8594 0.0000 7.0797 0.0000
# 3 23.7849 28.8594 69.8017 0.0000 9.4844 0.0000
# 4 0.0000 0.0000 0.0000 28.5201 0.0000 21.7322
# 5 25.5104 7.0797 9.4844 0.0000 14.9725 0.0000
# 6 0.0000 0.0000 0.0000 21.7322 0.0000 61.3042
#
#
#
# Elastic Compliance Matrix: (Units=1/GPa)
#
#
# Indices 1 2 3 4 5 6 
#
# 1 0.012649 -0.005487 0.000585 0.000000 -0.019327 0.000000
# 2 -0.005487 0.011056 -0.003568 0.000000 0.006382 0.000000
# 3 0.000585 -0.003568 0.016969 0.000000 -0.010058 0.000000
# 4 0.000000 0.000000 0.000000 0.048040 0.000000 -0.017030
# 5 -0.019327 0.006382 -0.010058 0.000000 0.103073 0.000000
# 6 0.000000 0.000000 0.000000 -0.017030 0.000000 0.022349
#
#
# Mechanical properties :
#
#
# Convention : Reuss Voigt Hill
#
# Bulk Modulus (GPa) = 42.13726 64.23378 53.18552
# Shear Modulus (GPa) = 20.92150 35.97477 28.44813
#
# Velocity S-wave (km/s) = 2.96236 3.88454 3.45436
# Velocity P-wave (km/s) = 5.41990 6.86021 6.18214
#
# Compressibility (1/GPa) = 0.02373197
#
# Stress axis : x y z
#
# Youngs Moduli (GPa) = 79.05789 90.44804 58.93065
#
# Poissons Ratio (x) = 0.49632 -0.03446
# Poissons Ratio (y) = 0.43382 0.21029
# Poissons Ratio (z) = -0.04623 0.32276
#
# Static dielectric constant tensor:
#      x y z
#    x 2.167560 0.000000 0.107150 
#    y 0.000000 1.892210 0.000000 
#    z 0.107150 0.000000 1.990290 
# 
# From -- ./inp_files/86256.got.cif
#   From: 2010.05.17/outbox.cif.g08.bks.cpg/sg15_44_cif.got.tgz:86256.got - 2010.06.03 18:47:42.
