data_PCOD9275907
_publ_section_title
;
Structure prediction by ZEFSAII (Michael W. Deem and Ramdas Pophale) SiO2 
 PCOD9275907
Probable space group: C 2/C
;
_chemical_formula_sum "Si O2"
_cell_formula_units_Z 40
_cell_length_a 21.786689
_cell_length_b 8.822920
_cell_length_c 14.006331
_cell_angle_alpha 90.000000
_cell_angle_beta 37.001003
_cell_angle_gamma 90.000000
_cell_volume 1620.321052
_symmetry_space_group_name_H-M "C 2/C"
_symmetry_group_IT_number 15
_symmetry_cell_setting 'monoclinic'
loop_
_space_group_symop_operation_xyz
x,y,z
-x,y,1/2-z
-x,-y,-z
x,-y,1/2+z
1/2+x,1/2+y,z
1/2-x,1/2+y,1/2-z
1/2-x,1/2-y,-z
1/2+x,1/2-y,1/2+z
loop_
_atom_site_type_symbol
_atom_site_label
_atom_site_fract_x
_atom_site_fract_y
_atom_site_fract_z
Si Si1 0.599324 0.679021 0.451861
Si Si2 0.500000 0.488985 0.250000
Si Si3 0.653507 0.272079 0.553407
Si Si4 0.932216 0.376143 0.636828
Si Si5 0.256692 0.954908 0.258158
Si Si6 0.000000 0.496334 0.250000
O O1 0.563798 0.608995 0.596306
O O2 0.491473 0.722257 0.536926
O O3 0.673820 0.558993 0.307623
O O4 0.663524 0.836064 0.386618
O O5 0.420883 0.607958 0.302115
O O6 0.750000 0.250000 0.500000
O O7 0.692788 0.348917 0.408532
O O8 0.590874 0.119799 0.607872
O O9 0.820089 0.420518 0.742045
O O10 0.951080 0.406877 0.725385
O O11 0.000000 0.500000 0.500000
#
# Coordination Sequence:
#
# PCOD9275907 Si02
#       6
#     8   4   8   8   8   4
#     4  10  22  43  64  94 131 173 214 279 327 389
#     4   9  21  42  64  94 136 168 224 280 316 408
#     4  10  20  39  65  95 130 170 223 266 334 392
#     4  10  22  40  63  95 134 168 222 273 333 391
#     4  10  22  42  67  95 134 171 223 275 331 403
#     4  11  21  38  68  94 130 182 210 274 332 396
#
# _framework density 24.686465999999999
#
# number of rings (size 3 to 8) (size 9 to 14) (size 15 to 20)
#    0.000    2.000    2.000    0.600    5.600    0.000 
#    3.600    5.000    0.000    0.000    0.000    0.000 
#    0.000    0.000    0.000    0.000    0.000    0.000 
#
# Total GULP energy -111663.261846 kJ/mol
# GULP energy per Si atom -5583.163092 kJ/mol
# Density = 2.463028 g / cm^3
# Si number density = 24.686466 Si / 1000 Ang^3
#
#
#
# Elastic Constant Matrix: (Units=GPa)
#
#
# Indices 1 2 3 4 5 6 
#
# 1 87.4445 36.2988 26.1184 -0.0001 -22.0086 0.0000
# 2 36.2988 111.2869 52.0118 -0.0003 -25.3828 0.0001
# 3 26.1184 52.0118 108.4052 -0.0001 -22.4159 0.0000
# 4 -0.0001 -0.0003 -0.0001 72.6067 0.0000 -17.0407
# 5 -22.0086 -25.3828 -22.4159 0.0000 37.8748 0.0000
# 6 0.0000 0.0001 0.0000 -17.0407 0.0000 33.4924
#
#
#
# Elastic Compliance Matrix: (Units=1/GPa)
#
#
# Indices 1 2 3 4 5 6 
#
# 1 0.014396 -0.002966 -0.000828 0.000000 0.005888 0.000000
# 2 -0.002966 0.013127 -0.004696 0.000000 0.004295 0.000000
# 3 -0.000828 -0.004696 0.012451 0.000000 0.003741 0.000000
# 4 0.000000 0.000000 0.000000 0.015641 0.000000 0.007958
# 5 0.005888 0.004295 0.003741 0.000000 0.034917 0.000000
# 6 0.000000 0.000000 0.000000 0.007958 0.000000 0.033906
#
#
# Mechanical properties :
#
#
# Convention : Reuss Voigt Hill
#
# Bulk Modulus (GPa) = 43.48750 59.55496 51.52123
# Shear Modulus (GPa) = 33.53866 41.64194 37.59030
#
# Velocity S-wave (km/s) = 3.68990 4.11156 3.90642
# Velocity P-wave (km/s) = 5.98398 6.83497 6.42358
#
# Compressibility (1/GPa) = 0.02299511
#
# Stress axis : x y z
#
# Youngs Moduli (GPa) = 69.46316 76.17653 80.31736
#
# Poissons Ratio (x) = 0.22592 0.06651
# Poissons Ratio (y) = 0.20601 0.37715
# Poissons Ratio (z) = 0.05752 0.35770
#
# Static dielectric constant tensor:
#      x y z
#    x 1.996010 0.000000 0.003570 
#    y 0.000000 2.051330 0.000000 
#    z 0.003570 0.000000 2.048170 
# 
# From -- ./inp_files/159149.got.cif
#   From: 2010.05.17/outbox.cif.g08.bks.cpg/sg15_80_cif.got.tgz:159149.got - 2010.06.03 18:47:42.
