data_PCOD9275399
_publ_section_title
;
Structure prediction by ZEFSAII (Michael W. Deem and Ramdas Pophale) SiO2 
 PCOD9275399
Probable space group: C 2/C
;
_chemical_formula_sum "Si O2"
_cell_formula_units_Z 40
_cell_length_a 21.555043
_cell_length_b 10.225833
_cell_length_c 14.547995
_cell_angle_alpha 90.000000
_cell_angle_beta 41.760689
_cell_angle_gamma 90.000000
_cell_volume 2135.691650
_symmetry_space_group_name_H-M "C 2/C"
_symmetry_group_IT_number 15
_symmetry_cell_setting 'monoclinic'
loop_
_space_group_symop_operation_xyz
x,y,z
-x,y,1/2-z
-x,-y,-z
x,-y,1/2+z
1/2+x,1/2+y,z
1/2-x,1/2+y,1/2-z
1/2-x,1/2-y,-z
1/2+x,1/2-y,1/2+z
loop_
_atom_site_type_symbol
_atom_site_label
_atom_site_fract_x
_atom_site_fract_y
_atom_site_fract_z
Si Si1 0.874587 0.641757 0.117425
Si Si2 0.739005 0.912834 0.580918
Si Si3 0.252746 0.710922 0.603114
Si Si4 0.412899 0.829986 0.083668
Si Si5 0.607094 0.781928 0.603413
O O1 0.809182 0.660916 0.279225
O O2 0.825630 0.706594 0.083512
O O3 0.608452 0.985239 0.403421
O O4 0.978835 0.695211 0.015771
O O5 0.657402 0.907798 0.593914
O O6 0.827277 0.838627 0.440466
O O7 0.769252 0.054723 0.582247
O O8 0.250000 0.750000 0.500000
O O9 0.153384 0.725712 0.764030
O O10 0.389391 0.776578 0.009817
O O11 0.500000 0.776534 0.750000
#
# Coordination Sequence:
#
# PCOD9275399 Si02
#       5
#     8   8   8   8   8
#     4  10  20  39  61  87 117 150 201 246 287 350
#     4  10  22  38  62  89 117 158 197 241 301 353
#     4  11  23  41  59  85 123 158 193 247 298 348
#     4  10  21  37  63  88 111 155 200 241 294 347
#     4  11  20  38  62  88 119 153 198 243 292 358
#
# _framework density 18.729296000000001
#
# number of rings (size 3 to 8) (size 9 to 14) (size 15 to 20)
#    0.000    1.600    4.000    1.200    0.000    0.800 
#    3.600    1.000    0.000    0.000    0.000    0.000 
#    0.000    0.000    0.000    0.000    0.000    0.000 
#
# Total GULP energy -111458.798215 kJ/mol
# GULP energy per Si atom -5572.939911 kJ/mol
# Density = 1.868667 g / cm^3
# Si number density = 18.729296 Si / 1000 Ang^3
#
#
#
# Elastic Constant Matrix: (Units=GPa)
#
#
# Indices 1 2 3 4 5 6 
#
# 1 150.0849 35.3654 70.6019 0.0000 -1.4309 0.0000
# 2 35.3654 35.2503 30.9495 0.0000 -8.6781 0.0000
# 3 70.6019 30.9495 97.3847 0.0000 -2.7041 0.0000
# 4 0.0000 0.0000 0.0000 23.2354 0.0000 2.6192
# 5 -1.4309 -8.6781 -2.7041 0.0000 45.4989 0.0000
# 6 0.0000 0.0000 0.0000 2.6192 0.0000 29.5339
#
#
#
# Elastic Compliance Matrix: (Units=1/GPa)
#
#
# Indices 1 2 3 4 5 6 
#
# 1 0.010887 -0.005889 -0.006053 0.000000 -0.001141 0.000000
# 2 -0.005889 0.044733 -0.009731 0.000000 0.007769 0.000000
# 3 -0.006053 -0.009731 0.017722 0.000000 -0.000993 0.000000
# 4 0.000000 0.000000 0.000000 0.043472 0.000000 -0.003855
# 5 -0.001141 0.007769 -0.000993 0.000000 0.023365 0.000000
# 6 0.000000 0.000000 0.000000 -0.003855 0.000000 0.034201
#
#
# Mechanical properties :
#
#
# Convention : Reuss Voigt Hill
#
# Bulk Modulus (GPa) = 33.33824 61.83926 47.58875
# Shear Modulus (GPa) = 21.95613 29.37386 25.66499
#
# Velocity S-wave (km/s) = 3.42758 3.96452 3.70579
# Velocity P-wave (km/s) = 5.78819 7.35157 6.61622
#
# Compressibility (1/GPa) = 0.02999558
#
# Stress axis : x y z
#
# Youngs Moduli (GPa) = 91.85189 22.35468 56.42692
#
# Poissons Ratio (x) = 0.13164 0.34156
# Poissons Ratio (y) = 0.54091 0.54912
# Poissons Ratio (z) = 0.55598 0.21754
#
# Static dielectric constant tensor:
#      x y z
#    x 1.668950 0.000000 0.004300 
#    y 0.000000 1.685850 0.000000 
#    z 0.004300 0.000000 1.650960 
# 
# From -- ./inp_files/167086.got.cif
#   From: 2010.05.17/outbox.cif.g08.bks.cpg/sg15_84_cif.got.tgz:167086.got - 2010.06.03 18:47:42.
