data_PCOD9275686
_publ_section_title
;
Structure prediction by ZEFSAII (Michael W. Deem and Ramdas Pophale) SiO2 
 PCOD9275686
Probable space group: C 2/C
;
_chemical_formula_sum "Si O2"
_cell_formula_units_Z 60
_cell_length_a 12.637873
_cell_length_b 11.651992
_cell_length_c 17.722674
_cell_angle_alpha 90.000000
_cell_angle_beta 88.442852
_cell_angle_gamma 90.000000
_cell_volume 2608.813342
_symmetry_space_group_name_H-M "C 2/C"
_symmetry_group_IT_number 15
_symmetry_cell_setting 'monoclinic'
loop_
_space_group_symop_operation_xyz
x,y,z
-x,y,1/2-z
-x,-y,-z
x,-y,1/2+z
1/2+x,1/2+y,z
1/2-x,1/2+y,1/2-z
1/2-x,1/2-y,-z
1/2+x,1/2-y,1/2+z
loop_
_atom_site_type_symbol
_atom_site_label
_atom_site_fract_x
_atom_site_fract_y
_atom_site_fract_z
Si Si1 0.627607 0.163620 0.890837
Si Si2 0.176856 0.920524 0.460416
Si Si3 0.132910 0.922190 0.097006
Si Si4 0.723754 0.407280 0.848967
Si Si5 0.500000 0.186295 0.750000
Si Si6 0.334483 0.629449 0.313772
Si Si7 0.069384 0.334788 0.567766
Si Si8 0.155587 0.337585 0.941550
O O1 0.742407 0.102847 0.889643
O O2 0.652975 0.298952 0.876652
O O3 0.557965 0.125928 0.819925
O O4 0.583548 0.155145 0.976771
O O5 0.132568 0.793072 0.466253
O O6 0.297017 0.904190 0.488311
O O7 0.125255 0.012142 0.517540
O O8 0.174391 0.974017 0.378277
O O9 0.078808 0.799149 0.092863
O O10 0.101503 0.017574 0.158830
O O11 0.729896 0.401469 0.759790
O O12 0.834900 0.392655 0.889272
O O13 0.587412 0.267691 0.708390
O O14 0.250978 0.662911 0.379981
O O15 0.953878 0.384259 0.587450
#
# Coordination Sequence:
#
# PCOD9275686 Si02
#       8
#     8   8   8   8   4   8   8   8
#     4  10  20  39  63  96 116 163 203 259 291 368
#     4  10  20  40  59  88 125 162 194 262 295 362
#     4  10  20  41  64  91 124 154 212 249 305 356
#     4  10  20  40  65  85 124 162 209 245 303 362
#     4  10  24  40  66  84 126 162 206 244 314 370
#     4  10  24  44  58  90 126 163 199 257 307 369
#     4  11  21  38  67  93 118 166 205 256 297 372
#     4  10  25  38  58  94 132 153 199 259 316 346
#
# _framework density 22.998961999999999
#
# number of rings (size 3 to 8) (size 9 to 14) (size 15 to 20)
#    0.000    1.867    2.667    0.800    5.600    6.933 
#    0.000    0.000    0.000    0.000    0.000    0.000 
#    0.000    0.000    0.000    0.000    0.000    0.000 
#
# Total GULP energy -167678.614771 kJ/mol
# GULP energy per Si atom -5589.287159 kJ/mol
# Density = 2.294662 g / cm^3
# Si number density = 22.998962 Si / 1000 Ang^3
#
#
#
# Elastic Constant Matrix: (Units=GPa)
#
#
# Indices 1 2 3 4 5 6 
#
# 1 98.6944 -7.5350 35.0321 0.0000 23.3628 0.0000
# 2 -7.5350 69.6895 10.7073 0.0000 3.4948 0.0000
# 3 35.0321 10.7073 112.1592 0.0000 20.0401 0.0000
# 4 0.0000 0.0000 0.0000 30.4341 0.0000 5.7173
# 5 23.3628 3.4948 20.0401 0.0000 31.6330 0.0000
# 6 0.0000 0.0000 0.0000 5.7173 0.0000 -2.9298
#
#
#
# Elastic Compliance Matrix: (Units=1/GPa)
#
#
# Indices 1 2 3 4 5 6 
#
# 1 0.013284 0.002294 -0.002898 0.000000 -0.008229 0.000000
# 2 0.002294 0.014978 -0.001746 0.000000 -0.002243 0.000000
# 3 -0.002898 -0.001746 0.010792 0.000000 -0.004504 0.000000
# 4 0.000000 0.000000 0.000000 0.024044 0.000000 0.046920
# 5 -0.008229 -0.002243 -0.004504 0.000000 0.040791 0.000000
# 6 0.000000 0.000000 0.000000 0.046920 0.000000 -0.249764
#
#
# Mechanical properties :
#
#
# Convention : Reuss Voigt Hill
#
# Bulk Modulus (GPa) = 29.10723 39.66133 34.38428
# Shear Modulus (GPa) = -38.54343 27.98338 -5.28003
#
# Velocity S-wave (km/s) = -4.09819 3.49194 -1.51682
# Velocity P-wave (km/s) = 3.11611 5.79141 3.45183
#
# Compressibility (1/GPa) = 0.03435572
#
# Stress axis : x y z
#
# Youngs Moduli (GPa) = 75.27907 66.76405 92.65732
#
# Poissons Ratio (x) = -0.15317 0.26851
# Poissons Ratio (y) = -0.17270 0.16175
# Poissons Ratio (z) = 0.21815 0.11655
#
# Static dielectric constant tensor:
#      x y z
#    x 1.881330 0.000000 0.012180 
#    y 0.000000 1.871440 0.000000 
#    z 0.012180 0.000000 1.826410 
# 
# From -- ./inp_files/237603.got.cif
#   From: 2010.05.17/outbox.cif.g08.bks.cpg/sg15_119_cif.got.tgz:237603.got - 2010.06.03 18:47:42.
