data_PCOD9275213
_publ_section_title
;
Structure prediction by ZEFSAII (Michael W. Deem and Ramdas Pophale) SiO2 
 PCOD9275213
Probable space group: C 2/C
;
_chemical_formula_sum "Si O2"
_cell_formula_units_Z 44
_cell_length_a 12.191891
_cell_length_b 27.876277
_cell_length_c 8.530523
_cell_angle_alpha 90.000000
_cell_angle_beta 135.018290
_cell_angle_gamma 90.000000
_cell_volume 2049.405149
_symmetry_space_group_name_H-M "C 2/C"
_symmetry_group_IT_number 15
_symmetry_cell_setting 'monoclinic'
loop_
_space_group_symop_operation_xyz
x,y,z
-x,y,1/2-z
-x,-y,-z
x,-y,1/2+z
1/2+x,1/2+y,z
1/2-x,1/2+y,1/2-z
1/2-x,1/2-y,-z
1/2+x,1/2-y,1/2+z
loop_
_atom_site_type_symbol
_atom_site_label
_atom_site_fract_x
_atom_site_fract_y
_atom_site_fract_z
Si Si1 0.247484 0.183617 0.636687
Si Si2 0.652782 0.975738 0.302489
Si Si3 0.916566 0.043806 0.503623
Si Si4 0.262196 0.394380 0.635471
Si Si5 0.000000 0.245129 0.250000
Si Si6 0.053303 0.607326 0.484043
O O1 0.217613 0.149101 0.458951
O O2 0.089688 0.214384 0.474783
O O3 0.379579 0.221111 0.719397
O O4 0.320184 0.148671 0.843850
O O5 0.500000 0.983721 0.250000
O O6 0.753680 0.941663 0.517144
O O7 0.742652 0.023939 0.354769
O O8 0.620176 0.943662 0.115280
O O9 0.900297 0.092759 0.392022
O O10 0.000000 0.051866 0.750000
O O11 0.000000 0.000000 0.500000
O O12 0.099177 0.386043 0.560148
O O13 0.000000 0.607920 0.250000
#
# Coordination Sequence:
#
# PCOD9275213 Si02
#       6
#     8   8   8   8   4   8
#     4  10  20  42  67  96 119 160 205 254 311 384
#     4   9  21  41  62  82 119 175 224 253 295 371
#     4  12  25  40  58  89 129 171 218 268 311 358
#     4  10  21  40  60  86 129 164 208 258 301 374
#     4  10  20  38  78  90 114 158 212 244 312 394
#     4  10  21  37  63  92 128 163 207 258 313 368
#
# _framework density 21.469643999999999
#
# number of rings (size 3 to 8) (size 9 to 14) (size 15 to 20)
#    0.000    1.818    3.636    1.091    2.545    6.545 
#    0.000    2.727    0.000    0.000    0.000    0.000 
#    0.000    0.000    0.000    0.000    0.000    0.000 
#
# Total GULP energy -122977.030393 kJ/mol
# GULP energy per Si atom -5589.865018 kJ/mol
# Density = 2.142078 g / cm^3
# Si number density = 21.469644 Si / 1000 Ang^3
#
#
#
# Elastic Constant Matrix: (Units=GPa)
#
#
# Indices 1 2 3 4 5 6 
#
# 1 34.0505 20.1918 24.8846 0.0000 -4.1176 0.0000
# 2 20.1918 94.3947 66.3456 0.0000 -2.8116 0.0000
# 3 24.8846 66.3456 183.2955 0.0000 -24.1667 0.0000
# 4 0.0000 0.0000 0.0000 6.4906 0.0000 15.2696
# 5 -4.1176 -2.8116 -24.1667 0.0000 34.1256 0.0000
# 6 0.0000 0.0000 0.0000 15.2696 0.0000 11.9283
#
#
#
# Elastic Compliance Matrix: (Units=1/GPa)
#
#
# Indices 1 2 3 4 5 6 
#
# 1 0.034734 -0.005691 -0.002388 0.000000 0.002031 0.000000
# 2 -0.005691 0.015375 -0.005202 0.000000 -0.003104 0.000000
# 3 -0.002388 -0.005202 0.008348 0.000000 0.005195 0.000000
# 4 0.000000 0.000000 0.000000 -0.076592 0.000000 0.098047
# 5 0.002031 -0.003104 0.005195 0.000000 0.032972 0.000000
# 6 0.000000 0.000000 0.000000 0.098047 0.000000 -0.041677
#
#
# Mechanical properties :
#
#
# Convention : Reuss Voigt Hill
#
# Bulk Modulus (GPa) = 31.35290 59.39829 45.37560
# Shear Modulus (GPa) = 483.03165 23.86348 253.44756
#
# Velocity S-wave (km/s) = 15.01572 3.33753 10.87683
# Velocity P-wave (km/s) = 17.75568 6.52521 13.37615
#
# Compressibility (1/GPa) = 0.03189498
#
# Stress axis : x y z
#
# Youngs Moduli (GPa) = 28.79056 65.04204 119.79619
#
# Poissons Ratio (x) = 0.37016 0.28605
# Poissons Ratio (y) = 0.16385 0.62313
# Poissons Ratio (z) = 0.06875 0.33832
#
# Static dielectric constant tensor:
#      x y z
#    x 1.814320 0.000000 0.034340 
#    y 0.000000 1.784980 0.000000 
#    z 0.034340 0.000000 1.866490 
# 
# From -- ./inp_files/34482.got.cif
#   From: 2010.05.17/outbox.cif.g08.bks.cpg/sg15_18_cif.got.tgz:34482.got - 2010.06.03 18:47:42.
