data_PCOD9275847
_publ_section_title
;
Structure prediction by ZEFSAII (Michael W. Deem and Ramdas Pophale) SiO2 
 PCOD9275847
Probable space group: C 2/C
;
_chemical_formula_sum "Si O2"
_cell_formula_units_Z 52
_cell_length_a 7.172723
_cell_length_b 17.018340
_cell_length_c 16.120899
_cell_angle_alpha 90.000000
_cell_angle_beta 89.714653
_cell_angle_gamma 90.000000
_cell_volume 1967.818895
_symmetry_space_group_name_H-M "C 2/C"
_symmetry_group_IT_number 15
_symmetry_cell_setting 'monoclinic'
loop_
_space_group_symop_operation_xyz
x,y,z
-x,y,1/2-z
-x,-y,-z
x,-y,1/2+z
1/2+x,1/2+y,z
1/2-x,1/2+y,1/2-z
1/2-x,1/2-y,-z
1/2+x,1/2-y,1/2+z
loop_
_atom_site_type_symbol
_atom_site_label
_atom_site_fract_x
_atom_site_fract_y
_atom_site_fract_z
Si Si1 0.372357 0.218360 0.675488
Si Si2 0.387162 0.909016 0.544119
Si Si3 0.816088 0.143085 0.052456
Si Si4 0.493976 0.333237 0.374210
Si Si5 0.750000 0.250000 0.500000
Si Si6 0.117349 0.993346 0.825377
Si Si7 0.997378 0.458056 0.362303
O O1 0.500000 0.248119 0.750000
O O2 0.386192 0.277518 0.597694
O O3 0.150031 0.209696 0.687722
O O4 0.438182 0.128633 0.660143
O O5 0.590705 0.867956 0.557662
O O6 0.245632 0.838834 0.536411
O O7 0.396062 0.947427 0.452737
O O8 0.354407 0.975431 0.612756
O O9 0.893533 0.066644 0.098379
O O10 0.869608 0.151223 0.957194
O O11 0.665651 0.283438 0.409088
O O12 0.549082 0.418621 0.342783
O O13 0.336738 0.006839 0.804567
O O14 0.000000 0.960304 0.750000
#
# Coordination Sequence:
#
# PCOD9275847 Si02
#       7
#     8   8   8   8   4   8   8
#     4  12  24  41  65  96 132 174 218 272 330 391
#     4  10  20  39  65  90 123 164 211 273 319 376
#     4  11  23  42  68  95 126 175 228 266 318 398
#     4  12  24  39  68  97 130 168 227 265 327 390
#     4  12  22  38  64 104 124 164 218 284 312 374
#     4  11  24  42  63  96 134 170 210 271 337 389
#     4  10  21  39  62  87 126 168 205 256 332 382
#
# _framework density 26.425194000000001
#
# number of rings (size 3 to 8) (size 9 to 14) (size 15 to 20)
#    0.000    0.923    4.615    3.231    0.000    1.231 
#    0.000    0.000    0.000    0.923    0.000    0.000 
#    0.000    0.000    0.000    0.000    0.000    0.000 
#
# Total GULP energy -145221.675095 kJ/mol
# GULP energy per Si atom -5585.449042 kJ/mol
# Density = 2.636505 g / cm^3
# Si number density = 26.425194 Si / 1000 Ang^3
#
#
#
# Elastic Constant Matrix: (Units=GPa)
#
#
# Indices 1 2 3 4 5 6 
#
# 1 78.4682 15.7414 35.3995 0.0000 17.1883 0.0000
# 2 15.7414 131.2965 29.9547 0.0000 11.2213 0.0000
# 3 35.3995 29.9547 128.4175 0.0000 35.9640 0.0000
# 4 0.0000 0.0000 0.0000 16.7604 0.0000 13.4727
# 5 17.1883 11.2213 35.9640 0.0000 45.2736 0.0000
# 6 0.0000 0.0000 0.0000 13.4727 0.0000 42.2715
#
#
#
# Elastic Compliance Matrix: (Units=1/GPa)
#
#
# Indices 1 2 3 4 5 6 
#
# 1 0.014965 -0.000832 -0.003084 0.000000 -0.003026 0.000000
# 2 -0.000832 0.008105 -0.001527 0.000000 -0.000480 0.000000
# 3 -0.003084 -0.001527 0.011009 0.000000 -0.007196 0.000000
# 4 0.000000 0.000000 0.000000 0.080216 0.000000 -0.025566
# 5 -0.003026 -0.000480 -0.007196 0.000000 0.029072 0.000000
# 6 0.000000 0.000000 0.000000 -0.025566 0.000000 0.031805
#
#
# Mechanical properties :
#
#
# Convention : Reuss Voigt Hill
#
# Bulk Modulus (GPa) = 43.11553 55.59705 49.35629
# Shear Modulus (GPa) = 25.80141 38.00021 31.90081
#
# Velocity S-wave (km/s) = 3.12812 3.79625 3.47826
# Velocity P-wave (km/s) = 5.42202 6.34826 5.90334
#
# Compressibility (1/GPa) = 0.02319350
#
# Stress axis : x y z
#
# Youngs Moduli (GPa) = 66.82314 123.37324 90.83883
#
# Poissons Ratio (x) = 0.10265 0.28013
# Poissons Ratio (y) = 0.05560 0.13870
# Poissons Ratio (z) = 0.20607 0.18837
#
# Static dielectric constant tensor:
#      x y z
#    x 3.767290 0.000000 0.016680 
#    y 0.000000 1.983710 0.000000 
#    z 0.016680 0.000000 2.112150 
# 
# From -- ./inp_files/191153.got.cif
#   From: 2010.05.17/outbox.cif.g08.bks.cpg/sg15_96_cif.got.tgz:191153.got - 2010.06.03 18:47:42.
