data_PCOD9275964
_publ_section_title
;
Structure prediction by ZEFSAII (Michael W. Deem and Ramdas Pophale) SiO2 
 PCOD9275964
Probable space group: C 2/C
;
_chemical_formula_sum "Si O2"
_cell_formula_units_Z 32
_cell_length_a 12.610836
_cell_length_b 7.023236
_cell_length_c 19.136597
_cell_angle_alpha 90.000000
_cell_angle_beta 43.450408
_cell_angle_gamma 90.000000
_cell_volume 1165.632356
_symmetry_space_group_name_H-M "C 2/C"
_symmetry_group_IT_number 15
_symmetry_cell_setting 'monoclinic'
loop_
_space_group_symop_operation_xyz
x,y,z
-x,y,1/2-z
-x,-y,-z
x,-y,1/2+z
1/2+x,1/2+y,z
1/2-x,1/2+y,1/2-z
1/2-x,1/2-y,-z
1/2+x,1/2-y,1/2+z
loop_
_atom_site_type_symbol
_atom_site_label
_atom_site_fract_x
_atom_site_fract_y
_atom_site_fract_z
Si Si1 0.324373 0.045393 0.276091
Si Si2 0.949689 0.282607 0.037823
Si Si3 0.422502 0.307220 0.401516
Si Si4 0.068272 0.157663 0.302547
O O1 0.223112 0.190532 0.370503
O O2 0.484390 0.142565 0.180704
O O3 0.219797 0.039743 0.255307
O O4 0.364288 0.828290 0.276128
O O5 0.003781 0.246889 0.091417
O O6 0.000090 0.172741 0.942674
O O7 0.000000 0.500000 0.000000
O O8 0.250000 0.250000 0.500000
O O9 0.442096 0.498262 0.347093
#
# Coordination Sequence:
#
# PCOD9275964 Si02
#       4
#     8   8   8   8
#     4  10  20  39  66  92 133 176 230 269 329 404
#     4  10  21  42  72  94 130 182 234 268 332 418
#     4  12  24  40  65 103 136 167 222 295 339 388
#     4  10  20  39  69  91 129 180 227 265 325 409
#
# _framework density 27.452909999999999
#
# number of rings (size 3 to 8) (size 9 to 14) (size 15 to 20)
#    1.500    0.000    5.000    0.750    0.000    2.000 
#    0.000    0.000    0.000    9.000    0.000    0.000 
#    0.000    0.000    0.000    0.000    0.000    0.000 
#
# Total GULP energy -89239.832754 kJ/mol
# GULP energy per Si atom -5577.489547 kJ/mol
# Density = 2.739043 g / cm^3
# Si number density = 27.452910 Si / 1000 Ang^3
#
#
#
# Elastic Constant Matrix: (Units=GPa)
#
#
# Indices 1 2 3 4 5 6 
#
# 1 59.9129 13.8215 27.0152 0.0000 1.4391 0.0000
# 2 13.8215 227.8801 95.3716 0.0000 -25.4706 0.0000
# 3 27.0152 95.3716 171.2785 0.0000 -17.3774 0.0000
# 4 0.0000 0.0000 0.0000 66.2054 0.0000 -1.2330
# 5 1.4391 -25.4706 -17.3774 0.0000 60.9715 0.0000
# 6 0.0000 0.0000 0.0000 -1.2330 0.0000 25.3444
#
#
#
# Elastic Compliance Matrix: (Units=1/GPa)
#
#
# Indices 1 2 3 4 5 6 
#
# 1 0.018065 0.000011 -0.002985 0.000000 -0.001272 0.000000
# 2 0.000011 0.005863 -0.003108 0.000000 0.001563 0.000000
# 3 -0.002985 -0.003108 0.008151 0.000000 0.001095 0.000000
# 4 0.000000 0.000000 0.000000 0.015118 0.000000 0.000736
# 5 -0.001272 0.001563 0.001095 0.000000 0.017396 0.000000
# 6 0.000000 0.000000 0.000000 0.000736 0.000000 0.039492
#
#
# Mechanical properties :
#
#
# Convention : Reuss Voigt Hill
#
# Bulk Modulus (GPa) = 50.21072 81.27645 65.74358
# Shear Modulus (GPa) = 40.68802 52.02847 46.35825
#
# Velocity S-wave (km/s) = 3.85398 4.35810 4.11377
# Velocity P-wave (km/s) = 6.17525 7.41580 6.82378
#
# Compressibility (1/GPa) = 0.01991607
#
# Stress axis : x y z
#
# Youngs Moduli (GPa) = 55.35668 170.56154 122.68707
#
# Poissons Ratio (x) = -0.00192 0.36618
# Poissons Ratio (y) = -0.00062 0.38129
# Poissons Ratio (z) = 0.16522 0.53007
#
# Static dielectric constant tensor:
#      x y z
#    x 2.511530 0.000000 0.051490 
#    y 0.000000 2.115970 0.000000 
#    z 0.051490 0.000000 2.071540 
# 
# From -- ./inp_files/316846.got.cif
#   From: 2010.05.17/outbox.cif.g08.bks.cpg/sg15_159_cif.got.tgz:316846.got - 2010.06.03 18:47:42.
