data_PCOD9275713
_publ_section_title
;
Structure prediction by ZEFSAII (Michael W. Deem and Ramdas Pophale) SiO2 
 PCOD9275713
Probable space group: C 2/C
;
_chemical_formula_sum "Si O2"
_cell_formula_units_Z 36
_cell_length_a 7.951453
_cell_length_b 25.445044
_cell_length_c 8.010391
_cell_angle_alpha 90.000000
_cell_angle_beta 95.366274
_cell_angle_gamma 90.000000
_cell_volume 1613.599694
_symmetry_space_group_name_H-M "C 2/C"
_symmetry_group_IT_number 15
_symmetry_cell_setting 'monoclinic'
loop_
_space_group_symop_operation_xyz
x,y,z
-x,y,1/2-z
-x,-y,-z
x,-y,1/2+z
1/2+x,1/2+y,z
1/2-x,1/2+y,1/2-z
1/2-x,1/2-y,-z
1/2+x,1/2-y,1/2+z
loop_
_atom_site_type_symbol
_atom_site_label
_atom_site_fract_x
_atom_site_fract_y
_atom_site_fract_z
Si Si1 0.650390 0.042252 0.517778
Si Si2 0.000000 0.295506 0.750000
Si Si3 0.312277 0.447827 0.679019
Si Si4 0.189134 0.266058 0.309776
Si Si5 0.406600 0.870108 0.053029
O O1 0.700310 0.056872 0.335276
O O2 0.567750 0.091948 0.599178
O O3 0.500000 0.000000 0.500000
O O4 0.798118 0.008604 0.617610
O O5 0.835144 0.258705 0.709239
O O6 0.967071 0.332516 0.905818
O O7 0.500000 0.434225 0.750000
O O8 0.237745 0.408905 0.532711
O O9 0.250000 0.250000 0.500000
O O10 0.169799 0.328989 0.321098
O O11 0.000000 0.246112 0.250000
#
# Coordination Sequence:
#
# PCOD9275713 Si02
#       5
#     8   4   8   8   8
#     4  10  20  39  64  85 126 172 213 260 334 402
#     4  10  20  44  66  92 136 174 224 276 346 386
#     4  11  22  38  64  97 132 169 220 278 332 405
#     4  10  24  42  67  96 131 174 231 284 331 406
#     4  10  20  39  64  90 126 178 214 261 341 402
#
# _framework density 22.310365000000001
#
# number of rings (size 3 to 8) (size 9 to 14) (size 15 to 20)
#    0.000    1.778    2.222    2.667    0.000   10.667 
#    4.000    0.000    9.778    0.000    0.000    0.000 
#    0.000    0.000    0.000    0.000    0.000    0.000 
#
# Total GULP energy -100479.193621 kJ/mol
# GULP energy per Si atom -5582.177423 kJ/mol
# Density = 2.225959 g / cm^3
# Si number density = 22.310365 Si / 1000 Ang^3
#
#
#
# Elastic Constant Matrix: (Units=GPa)
#
#
# Indices 1 2 3 4 5 6 
#
# 1 127.6387 43.6308 9.5119 0.0000 29.2591 0.0000
# 2 43.6308 150.4308 12.1244 0.0000 7.7356 0.0000
# 3 9.5119 12.1244 32.8273 0.0000 16.8794 0.0000
# 4 0.0000 0.0000 0.0000 44.9774 0.0000 0.1111
# 5 29.2591 7.7356 16.8794 0.0000 35.8542 0.0000
# 6 0.0000 0.0000 0.0000 0.1111 0.0000 33.6596
#
#
#
# Elastic Compliance Matrix: (Units=1/GPa)
#
#
# Indices 1 2 3 4 5 6 
#
# 1 0.010784 -0.002866 0.002825 0.000000 -0.009512 0.000000
# 2 -0.002866 0.007617 -0.003088 0.000000 0.002150 0.000000
# 3 0.002825 -0.003088 0.041728 0.000000 -0.021284 0.000000
# 4 0.000000 0.000000 0.000000 0.022234 0.000000 -0.000073
# 5 -0.009512 0.002150 -0.021284 0.000000 0.045209 0.000000
# 6 0.000000 0.000000 0.000000 -0.000073 0.000000 0.029709
#
#
# Mechanical properties :
#
#
# Convention : Reuss Voigt Hill
#
# Bulk Modulus (GPa) = 18.56289 49.04787 33.80538
# Shear Modulus (GPa) = 27.54839 39.27356 33.41098
#
# Velocity S-wave (km/s) = 3.51776 4.20018 3.87402
# Velocity P-wave (km/s) = 4.98376 6.74937 5.93262
#
# Compressibility (1/GPa) = 0.05387093
#
# Stress axis : x y z
#
# Youngs Moduli (GPa) = 92.72607 131.27994 23.96450
#
# Poissons Ratio (x) = 0.37631 -0.06770
# Poissons Ratio (y) = 0.26579 0.07400
# Poissons Ratio (z) = -0.26194 0.40540
#
# Static dielectric constant tensor:
#      x y z
#    x 1.855490 0.000000 0.068010 
#    y 0.000000 1.852230 0.000000 
#    z 0.068010 0.000000 1.999600 
# 
# From -- ./inp_files/23175.got.cif
#   From: 2010.05.17/outbox.cif.g08.bks.cpg/sg15_12_cif.got.tgz:23175.got - 2010.06.03 18:47:42.
