data_PCOD9275749
_publ_section_title
;
Structure prediction by ZEFSAII (Michael W. Deem and Ramdas Pophale) SiO2 
 PCOD9275749
Probable space group: C 2/C
;
_chemical_formula_sum "Si O2"
_cell_formula_units_Z 64
_cell_length_a 16.525910
_cell_length_b 11.731954
_cell_length_c 14.350085
_cell_angle_alpha 90.000000
_cell_angle_beta 99.100173
_cell_angle_gamma 90.000000
_cell_volume 2747.193143
_symmetry_space_group_name_H-M "C 2/C"
_symmetry_group_IT_number 15
_symmetry_cell_setting 'monoclinic'
loop_
_space_group_symop_operation_xyz
x,y,z
-x,y,1/2-z
-x,-y,-z
x,-y,1/2+z
1/2+x,1/2+y,z
1/2-x,1/2+y,1/2-z
1/2-x,1/2-y,-z
1/2+x,1/2-y,1/2+z
loop_
_atom_site_type_symbol
_atom_site_label
_atom_site_fract_x
_atom_site_fract_y
_atom_site_fract_z
Si Si1 0.926977 0.545649 0.605711
Si Si2 0.161658 0.771493 0.528150
Si Si3 0.870675 0.320646 0.671638
Si Si4 0.764966 0.917983 0.737954
Si Si5 0.093355 0.999236 0.983035
Si Si6 0.329988 0.722703 0.075437
Si Si7 0.618566 0.951128 0.105420
Si Si8 0.405355 0.578915 0.726999
O O1 0.907923 0.446465 0.676099
O O2 0.885033 0.668012 0.611150
O O3 0.887530 0.504327 0.499948
O O4 0.024654 0.550437 0.619742
O O5 0.250000 0.750000 0.500000
O O6 0.109013 0.727035 0.428299
O O7 0.138814 0.900296 0.546892
O O8 0.145482 0.680016 0.604281
O O9 0.777377 0.347657 0.686032
O O10 0.899509 0.215314 0.741026
O O11 0.802651 0.834029 0.667555
O O12 0.688080 0.981178 0.673671
O O13 0.835633 0.011926 0.771095
O O14 0.113222 0.045069 0.882705
O O15 0.122263 0.869373 0.980368
O O16 0.000000 0.000000 0.000000
O O17 0.250000 0.750000 0.000000
O O18 0.500000 0.542493 0.750000
#
# Coordination Sequence:
#
# PCOD9275749 Si02
#       8
#     8   8   8   8   8   8   8   8
#     4  10  22  38  62  96 126 170 210 267 325 375
#     4  10  20  39  64  91 124 166 212 263 317 386
#     4  10  24  39  64  92 126 169 218 261 329 385
#     4  11  24  42  65  94 129 171 216 267 325 390
#     4  10  22  39  64  93 121 164 212 257 316 375
#     4  11  22  40  63  97 129 165 210 266 318 385
#     4  10  20  39  64  92 131 162 216 268 315 387
#     4  10  24  44  62  91 129 165 218 264 319 393
#
# _framework density 23.296506000000001
#
# number of rings (size 3 to 8) (size 9 to 14) (size 15 to 20)
#    0.000    1.750    1.250    3.000    5.250    3.000 
#    0.000    2.500    0.000    0.000    0.000    0.000 
#    0.000    0.000    0.000    0.000    0.000    0.000 
#
# Total GULP energy -178576.245765 kJ/mol
# GULP energy per Si atom -5580.507680 kJ/mol
# Density = 2.324348 g / cm^3
# Si number density = 23.296506 Si / 1000 Ang^3
#
#
#
# Elastic Constant Matrix: (Units=GPa)
#
#
# Indices 1 2 3 4 5 6 
#
# 1 126.3376 69.8395 22.9385 0.0000 -12.3464 0.0000
# 2 69.8395 172.4951 43.2016 0.0000 -10.8697 0.0000
# 3 22.9385 43.2016 52.4705 0.0000 -8.6037 0.0000
# 4 0.0000 0.0000 0.0000 8.0787 0.0000 -8.9083
# 5 -12.3464 -10.8697 -8.6037 0.0000 37.0068 0.0000
# 6 0.0000 0.0000 0.0000 -8.9083 0.0000 47.3383
#
#
#
# Elastic Compliance Matrix: (Units=1/GPa)
#
#
# Indices 1 2 3 4 5 6 
#
# 1 0.010428 -0.003822 -0.001066 0.000000 0.002108 0.000000
# 2 -0.003822 0.008726 -0.005512 0.000000 0.000006 0.000000
# 3 -0.001066 -0.005512 0.024680 0.000000 0.003763 0.000000
# 4 0.000000 0.000000 0.000000 0.156195 0.000000 0.029393
# 5 0.002108 0.000006 0.003763 0.000000 0.028602 0.000000
# 6 0.000000 0.000000 0.000000 0.029393 0.000000 0.026656
#
#
# Mechanical properties :
#
#
# Convention : Reuss Voigt Hill
#
# Bulk Modulus (GPa) = 43.41701 69.25136 56.33419
# Shear Modulus (GPa) = 17.62019 32.83966 25.22992
#
# Velocity S-wave (km/s) = 2.75316 3.75859 3.29445
# Velocity P-wave (km/s) = 5.36504 6.97328 6.22134
#
# Compressibility (1/GPa) = 0.02303245
#
# Stress axis : x y z
#
# Youngs Moduli (GPa) = 95.89769 114.60342 40.51857
#
# Poissons Ratio (x) = 0.43803 0.04319
# Poissons Ratio (y) = 0.36653 0.22335
# Poissons Ratio (z) = 0.10223 0.63174
#
# Static dielectric constant tensor:
#      x y z
#    x 1.852600 0.000000 0.023500 
#    y 0.000000 1.889920 0.000000 
#    z 0.023500 0.000000 1.923860 
# 
# From -- ./inp_files/204477.got.cif
#   From: 2010.05.17/outbox.cif.g08.bks.cpg/sg15_103_cif.got.tgz:204477.got - 2010.06.03 18:47:42.
