data_PCOD9275398
_publ_section_title
;
Structure prediction by ZEFSAII (Michael W. Deem and Ramdas Pophale) SiO2 
 PCOD9275398
Probable space group: C 2/C
;
_chemical_formula_sum "Si O2"
_cell_formula_units_Z 40
_cell_length_a 9.329493
_cell_length_b 22.531470
_cell_length_c 14.656992
_cell_angle_alpha 90.000000
_cell_angle_beta 46.556322
_cell_angle_gamma 90.000000
_cell_volume 2236.965855
_symmetry_space_group_name_H-M "C 2/C"
_symmetry_group_IT_number 15
_symmetry_cell_setting 'monoclinic'
loop_
_space_group_symop_operation_xyz
x,y,z
-x,y,1/2-z
-x,-y,-z
x,-y,1/2+z
1/2+x,1/2+y,z
1/2-x,1/2+y,1/2-z
1/2-x,1/2-y,-z
1/2+x,1/2-y,1/2+z
loop_
_atom_site_type_symbol
_atom_site_label
_atom_site_fract_x
_atom_site_fract_y
_atom_site_fract_z
Si Si1 0.164314 0.642547 0.755561
Si Si2 0.450527 0.015534 0.626151
Si Si3 0.289625 0.530160 0.109508
Si Si4 0.880152 0.154835 0.989170
Si Si5 0.769670 0.224040 0.865295
O O1 0.115929 0.583405 0.833573
O O2 0.388620 0.639449 0.620872
O O3 0.170252 0.698731 0.819005
O O4 0.000000 0.647583 0.750000
O O5 0.282260 0.978424 0.754638
O O6 0.640306 0.003861 0.606993
O O7 0.500000 0.000000 0.500000
O O8 0.500000 0.500000 0.000000
O O9 0.286108 0.598921 0.081295
O O10 0.784924 0.170203 0.932117
O O11 0.845947 0.218066 0.052051
O O12 0.000000 0.240844 0.750000
#
# Coordination Sequence:
#
# PCOD9275398 Si02
#       5
#     8   8   8   8   8
#     4  11  20  40  59  84 123 153 193 241 302 351
#     4  11  23  37  58  91 117 159 195 243 297 349
#     4  11  21  39  62  86 119 156 194 245 295 352
#     4  10  20  39  61  87 114 152 200 242 290 344
#     4   9  21  36  61  88 112 151 196 246 288 346
#
# _framework density 17.881363
#
# number of rings (size 3 to 8) (size 9 to 14) (size 15 to 20)
#    0.000    1.600    4.000    1.200    2.800    1.600 
#    3.600    0.000    0.000    0.000    0.000    0.000 
#    0.000    0.000    0.000    0.000    0.000    0.000 
#
# Total GULP energy -111504.402694 kJ/mol
# GULP energy per Si atom -5575.220135 kJ/mol
# Density = 1.784066 g / cm^3
# Si number density = 17.881363 Si / 1000 Ang^3
#
#
#
# Elastic Constant Matrix: (Units=GPa)
#
#
# Indices 1 2 3 4 5 6 
#
# 1 70.0467 49.8541 58.3167 0.0000 3.5266 0.0000
# 2 49.8541 86.6929 48.6628 0.0000 -6.3795 0.0000
# 3 58.3167 48.6628 131.1304 0.0000 9.6681 0.0000
# 4 0.0000 0.0000 0.0000 25.8894 0.0000 10.1414
# 5 3.5266 -6.3795 9.6681 0.0000 26.1468 0.0000
# 6 0.0000 0.0000 0.0000 10.1414 0.0000 11.2107
#
#
#
# Elastic Compliance Matrix: (Units=1/GPa)
#
#
# Indices 1 2 3 4 5 6 
#
# 1 0.031197 -0.013452 -0.008563 0.000000 -0.004323 0.000000
# 2 -0.013452 0.021249 -0.002487 0.000000 0.007919 0.000000
# 3 -0.008563 -0.002487 0.012662 0.000000 -0.004134 0.000000
# 4 0.000000 0.000000 0.000000 0.059826 0.000000 -0.054119
# 5 -0.004323 0.007919 -0.004134 0.000000 0.042289 0.000000
# 6 0.000000 0.000000 0.000000 -0.054119 0.000000 0.138158
#
#
# Mechanical properties :
#
#
# Convention : Reuss Voigt Hill
#
# Bulk Modulus (GPa) = 62.09625 66.83749 64.46687
# Shear Modulus (GPa) = 13.89837 21.38514 17.64176
#
# Velocity S-wave (km/s) = 2.79095 3.46200 3.14443
# Velocity P-wave (km/s) = 6.72221 7.31027 7.02240
#
# Compressibility (1/GPa) = 0.01610403
#
# Stress axis : x y z
#
# Youngs Moduli (GPa) = 32.05419 47.06001 78.97566
#
# Poissons Ratio (x) = 0.63304 0.67630
# Poissons Ratio (y) = 0.43118 0.19643
# Poissons Ratio (z) = 0.27449 0.11705
#
# Static dielectric constant tensor:
#      x y z
#    x 1.583460 0.000000 0.012630 
#    y 0.000000 1.593110 0.000000 
#    z 0.012630 0.000000 1.667330 
# 
# From -- ./inp_files/77721.got.cif
#   From: 2010.05.17/outbox.cif.g08.bks.cpg/sg15_39_cif.got.tgz:77721.got - 2010.06.03 18:47:42.
