data_PCOD9275813
_publ_section_title
;
Structure prediction by ZEFSAII (Michael W. Deem and Ramdas Pophale) SiO2 
 PCOD9275813
Probable space group: C 2/C
;
_chemical_formula_sum "Si O2"
_cell_formula_units_Z 32
_cell_length_a 22.613392
_cell_length_b 9.454430
_cell_length_c 8.840023
_cell_angle_alpha 90.000000
_cell_angle_beta 48.491759
_cell_angle_gamma 90.000000
_cell_volume 1415.322224
_symmetry_space_group_name_H-M "C 2/C"
_symmetry_group_IT_number 15
_symmetry_cell_setting 'monoclinic'
loop_
_space_group_symop_operation_xyz
x,y,z
-x,y,1/2-z
-x,-y,-z
x,-y,1/2+z
1/2+x,1/2+y,z
1/2-x,1/2+y,1/2-z
1/2-x,1/2-y,-z
1/2+x,1/2-y,1/2+z
loop_
_atom_site_type_symbol
_atom_site_label
_atom_site_fract_x
_atom_site_fract_y
_atom_site_fract_z
Si Si1 0.873931 0.743963 0.295176
Si Si2 0.480421 0.847537 0.107545
Si Si3 0.259334 0.444132 0.626385
Si Si4 0.827607 0.278073 0.204366
O O1 0.820923 0.636281 0.287144
O O2 0.825109 0.888476 0.397500
O O3 0.873937 0.686305 0.467742
O O4 0.959016 0.757389 0.079410
O O5 0.500000 0.852477 0.250000
O O6 0.391325 0.798985 0.226207
O O7 0.500000 0.000000 0.000000
O O8 0.241476 0.607615 0.664049
O O9 0.289094 0.372734 0.731870
#
# Coordination Sequence:
#
# PCOD9275813 Si02
#       4
#     8   8   8   8
#     4   9  20  38  61  94 128 166 202 273 315 371
#     4  12  23  35  65  95 128 160 228 268 307 366
#     4   9  20  36  66  90 138 160 210 261 329 372
#     4  10  20  39  65 100 122 171 206 269 317 386
#
# _framework density 22.609694000000001
#
# number of rings (size 3 to 8) (size 9 to 14) (size 15 to 20)
#    1.500    0.500    2.500    2.250    0.000    0.000 
#    0.000    5.000    0.000    1.500   13.000    1.750 
#    0.000    0.000    0.000    0.000    0.000    0.000 
#
# Total GULP energy -89354.483819 kJ/mol
# GULP energy per Si atom -5584.655239 kJ/mol
# Density = 2.255823 g / cm^3
# Si number density = 22.609694 Si / 1000 Ang^3
#
#
#
# Elastic Constant Matrix: (Units=GPa)
#
#
# Indices 1 2 3 4 5 6 
#
# 1 151.7634 25.6847 15.1474 0.0000 9.1313 0.0000
# 2 25.6847 47.1624 24.7037 0.0000 -14.3891 0.0000
# 3 15.1474 24.7037 82.6666 0.0000 -3.1272 0.0000
# 4 0.0000 0.0000 0.0000 15.6052 0.0000 -1.5333
# 5 9.1313 -14.3891 -3.1272 0.0000 41.5389 0.0000
# 6 0.0000 0.0000 0.0000 -1.5333 0.0000 22.9705
#
#
#
# Elastic Compliance Matrix: (Units=1/GPa)
#
#
# Indices 1 2 3 4 5 6 
#
# 1 0.007691 -0.005280 0.000036 0.000000 -0.003517 0.000000
# 2 -0.005280 0.031866 -0.008117 0.000000 0.011588 0.000000
# 3 0.000036 -0.008117 0.014450 0.000000 -0.001732 0.000000
# 4 0.000000 0.000000 0.000000 0.064504 0.000000 0.004306
# 5 -0.003517 0.011588 -0.001732 0.000000 0.028731 0.000000
# 6 0.000000 0.000000 0.000000 0.004306 0.000000 0.043821
#
#
# Mechanical properties :
#
#
# Convention : Reuss Voigt Hill
#
# Bulk Modulus (GPa) = 36.65083 45.85157 41.25120
# Shear Modulus (GPa) = 22.03799 30.42670 26.23235
#
# Velocity S-wave (km/s) = 3.12543 3.67241 3.40990
# Velocity P-wave (km/s) = 5.41016 6.18916 5.81273
#
# Compressibility (1/GPa) = 0.02728451
#
# Stress axis : x y z
#
# Youngs Moduli (GPa) = 130.02404 31.38144 69.20252
#
# Poissons Ratio (x) = 0.16570 -0.00246
# Poissons Ratio (y) = 0.68655 0.56170
# Poissons Ratio (z) = -0.00463 0.25472
#
# Static dielectric constant tensor:
#      x y z
#    x 1.860260 0.000000 0.039380 
#    y 0.000000 1.839710 0.000000 
#    z 0.039380 0.000000 1.867450 
# 
# From -- ./inp_files/60422.got.cif
#   From: 2010.05.17/outbox.cif.g08.bks.cpg/sg15_31_cif.got.tgz:60422.got - 2010.06.03 18:47:42.
