data_PCOD9275189
_publ_section_title
;
Structure prediction by ZEFSAII (Michael W. Deem and Ramdas Pophale) SiO2 
 PCOD9275189
Probable space group: C 2/C
;
_chemical_formula_sum "Si O2"
_cell_formula_units_Z 48
_cell_length_a 14.948710
_cell_length_b 27.426287
_cell_length_c 9.179207
_cell_angle_alpha 90.000000
_cell_angle_beta 33.547297
_cell_angle_gamma 90.000000
_cell_volume 2079.728057
_symmetry_space_group_name_H-M "C 2/C"
_symmetry_group_IT_number 15
_symmetry_cell_setting 'monoclinic'
loop_
_space_group_symop_operation_xyz
x,y,z
-x,y,1/2-z
-x,-y,-z
x,-y,1/2+z
1/2+x,1/2+y,z
1/2-x,1/2+y,1/2-z
1/2-x,1/2-y,-z
1/2+x,1/2-y,1/2+z
loop_
_atom_site_type_symbol
_atom_site_label
_atom_site_fract_x
_atom_site_fract_y
_atom_site_fract_z
Si Si1 0.680745 0.897578 0.554917
Si Si2 0.000000 0.837608 0.750000
Si Si3 0.173796 0.291978 0.705961
Si Si4 0.878948 0.765324 0.701638
Si Si5 0.185461 0.518320 0.272359
Si Si6 0.000000 0.431730 0.250000
Si Si7 0.244748 0.588612 0.645137
O O1 0.500000 0.912585 0.750000
O O2 0.682462 0.844818 0.623538
O O3 0.735120 0.939060 0.594622
O O4 0.764286 0.894544 0.285289
O O5 0.991663 0.801330 0.898169
O O6 0.143337 0.874362 0.592162
O O7 0.250000 0.250000 0.500000
O O8 0.279340 0.290582 0.709170
O O9 0.987119 0.278611 0.993163
O O10 0.750000 0.750000 0.000000
O O11 0.156955 0.538858 0.474671
O O12 0.282890 0.468929 0.110977
O O13 0.000000 0.500000 0.500000
O O14 0.928213 0.405696 0.203998
#
# Coordination Sequence:
#
# PCOD9275189 Si02
#       7
#     8   4   8   8   8   4   8
#     4  12  23  40  71 106 137 182 241 293 349 413
#     4  12  28  46  71 102 150 184 227 292 368 432
#     4  12  27  48  77 104 143 186 240 298 363 431
#     4  12  26  51  72 106 146 184 235 301 363 434
#     4  10  20  39  64 103 137 176 234 299 335 405
#     4  10  20  38  71  98 134 180 241 288 336 408
#     4  11  24  42  68 101 144 183 232 294 352 416
#
# _framework density 23.079939
#
# number of rings (size 3 to 8) (size 9 to 14) (size 15 to 20)
#    0.000    0.667    5.000    4.500    5.833    0.000 
#    0.000    3.333    3.667    0.000    0.000    0.000 
#    0.000    0.000    0.000    0.000    0.000    0.000 
#
# Total GULP energy -133982.128129 kJ/mol
# GULP energy per Si atom -5582.588672 kJ/mol
# Density = 2.302741 g / cm^3
# Si number density = 23.079939 Si / 1000 Ang^3
#
#
#
# Elastic Constant Matrix: (Units=GPa)
#
#
# Indices 1 2 3 4 5 6 
#
# 1 103.0090 44.8523 25.7612 0.0000 27.4233 0.0000
# 2 44.8523 164.5328 42.7454 0.0000 20.3208 0.0000
# 3 25.7612 42.7454 49.6038 0.0001 20.6375 0.0000
# 4 0.0000 0.0000 0.0001 -31.9044 0.0000 -18.3373
# 5 27.4233 20.3208 20.6375 0.0000 36.8446 0.0000
# 6 0.0000 0.0000 0.0000 -18.3373 0.0000 29.5731
#
#
#
# Elastic Compliance Matrix: (Units=1/GPa)
#
#
# Indices 1 2 3 4 5 6 
#
# 1 0.013116 -0.002177 -0.001791 0.000000 -0.007558 0.000000
# 2 -0.002177 0.008206 -0.006170 0.000000 0.000550 0.000000
# 3 -0.001791 -0.006170 0.031861 0.000000 -0.013110 0.000000
# 4 0.000000 0.000000 0.000000 -0.023108 0.000000 -0.014329
# 5 -0.007558 0.000550 -0.013110 0.000000 0.039806 0.000000
# 6 0.000000 0.000000 0.000000 -0.014329 0.000000 0.024930
#
#
# Mechanical properties :
#
#
# Convention : Reuss Voigt Hill
#
# Bulk Modulus (GPa) = 30.38825 60.42929 45.40877
# Shear Modulus (GPa) = 39.66476 20.48845 30.07661
#
# Velocity S-wave (km/s) = 4.15008 2.98269 3.61383
# Velocity P-wave (km/s) = 6.01326 6.17263 6.09347
#
# Compressibility (1/GPa) = 0.03290745
#
# Stress axis : x y z
#
# Youngs Moduli (GPa) = 76.24411 121.85930 31.38596
#
# Poissons Ratio (x) = 0.26523 0.05622
# Poissons Ratio (y) = 0.16595 0.19365
# Poissons Ratio (z) = 0.13658 0.75188
#
# Static dielectric constant tensor:
#      x y z
#    x 1.794210 0.000000 -0.144340 
#    y 0.000000 1.960690 0.000000 
#    z -0.144340 0.000000 1.730660 
# 
# From -- ./inp_files/43875.got.cif
#   From: 2010.05.17/outbox.cif.g08.bks.cpg/sg15_22_cif.got.tgz:43875.got - 2010.06.03 18:47:42.
