data_PCOD9275352
_publ_section_title
;
Structure prediction by ZEFSAII (Michael W. Deem and Ramdas Pophale) SiO2 
 PCOD9275352
Probable space group: C 2/C
;
_chemical_formula_sum "Si O2"
_cell_formula_units_Z 56
_cell_length_a 26.907573
_cell_length_b 8.907787
_cell_length_c 10.955979
_cell_angle_alpha 90.000000
_cell_angle_beta 57.472148
_cell_angle_gamma 90.000000
_cell_volume 2214.063982
_symmetry_space_group_name_H-M "C 2/C"
_symmetry_group_IT_number 15
_symmetry_cell_setting 'monoclinic'
loop_
_space_group_symop_operation_xyz
x,y,z
-x,y,1/2-z
-x,-y,-z
x,-y,1/2+z
1/2+x,1/2+y,z
1/2-x,1/2+y,1/2-z
1/2-x,1/2-y,-z
1/2+x,1/2-y,1/2+z
loop_
_atom_site_type_symbol
_atom_site_label
_atom_site_fract_x
_atom_site_fract_y
_atom_site_fract_z
Si Si1 0.500000 0.662445 0.750000
Si Si2 0.500000 0.148631 0.750000
Si Si3 0.105962 0.672455 0.896221
Si Si4 0.656971 0.766031 0.584091
Si Si5 0.445042 0.087350 0.164672
Si Si6 0.225625 0.921685 0.169171
Si Si7 0.968922 0.904855 0.644341
Si Si8 0.232336 0.263706 0.163885
O O1 0.510438 0.780196 0.848713
O O2 0.453859 0.529275 0.767581
O O3 0.513441 0.270159 0.627382
O O4 0.549230 0.039969 0.737194
O O5 0.062556 0.526369 0.940436
O O6 0.083925 0.809364 0.840996
O O7 0.172370 0.640831 0.761069
O O8 0.114501 0.734601 0.021967
O O9 0.617872 0.836711 0.741395
O O10 0.710793 0.871894 0.470027
O O11 0.683336 0.618878 0.612022
O O12 0.220752 0.826493 0.300668
O O13 0.220141 0.092240 0.216294
O O14 0.000000 0.000000 0.500000
O O15 0.250000 0.250000 0.000000
#
# Coordination Sequence:
#
# PCOD9275352 Si02
#       8
#     4   4   8   8   8   8   8   8
#     4  10  22  36  62  90 124 162 218 256 328 390
#     4   8  20  38  58  88 128 156 214 262 320 400
#     4  10  23  40  63  96 133 168 228 267 335 405
#     4  10  22  40  66  90 131 170 218 280 323 400
#     4  10  20  39  61  89 121 170 210 265 323 392
#     4  10  25  42  66  95 133 171 226 272 340 403
#     4  10  20  39  60  89 125 167 204 271 322 382
#     4  11  25  44  69  97 136 178 221 278 343 399
#
# _framework density 25.292857000000001
#
# number of rings (size 3 to 8) (size 9 to 14) (size 15 to 20)
#    0.000    2.000    0.000    1.714   12.000    1.143 
#    2.571    5.714    0.000    0.000    0.000    0.000 
#    0.000    0.000    0.000    0.000    0.000    0.000 
#
# Total GULP energy -155979.424331 kJ/mol
# GULP energy per Si atom -5570.693726 kJ/mol
# Density = 2.523529 g / cm^3
# Si number density = 25.292857 Si / 1000 Ang^3
#
#
#
# Elastic Constant Matrix: (Units=GPa)
#
#
# Indices 1 2 3 4 5 6 
#
# 1 120.3724 60.4329 25.1197 0.0000 40.6819 0.0000
# 2 60.4329 164.6947 13.2124 0.0000 27.1827 0.0000
# 3 25.1197 13.2124 49.1714 0.0000 17.2574 0.0000
# 4 0.0000 0.0000 0.0000 46.1671 0.0000 16.4260
# 5 40.6819 27.1827 17.2574 0.0000 28.1392 0.0000
# 6 0.0000 0.0000 0.0000 16.4260 0.0000 43.0994
#
#
#
# Elastic Compliance Matrix: (Units=1/GPa)
#
#
# Indices 1 2 3 4 5 6 
#
# 1 0.017147 -0.002626 -0.000311 0.000000 -0.022064 0.000000
# 2 -0.002626 0.007642 0.000696 0.000000 -0.004013 0.000000
# 3 -0.000311 0.000696 0.025979 0.000000 -0.016156 0.000000
# 4 0.000000 0.000000 0.000000 0.025058 0.000000 -0.009550
# 5 -0.022064 -0.004013 -0.016156 0.000000 0.081221 0.000000
# 6 0.000000 0.000000 0.000000 -0.009550 0.000000 0.026842
#
#
# Mechanical properties :
#
#
# Convention : Reuss Voigt Hill
#
# Bulk Modulus (GPa) = 21.60379 59.08540 40.34459
# Shear Modulus (GPa) = 24.53403 39.17938 31.85671
#
# Velocity S-wave (km/s) = 3.11786 3.94004 3.55281
# Velocity P-wave (km/s) = 4.63912 6.64152 5.72849
#
# Compressibility (1/GPa) = 0.04628818
#
# Stress axis : x y z
#
# Youngs Moduli (GPa) = 58.31797 130.85984 38.49289
#
# Poissons Ratio (x) = 0.34357 0.01197
# Poissons Ratio (y) = 0.15311 -0.02681
# Poissons Ratio (z) = 0.01813 -0.09114
#
# Static dielectric constant tensor:
#      x y z
#    x 2.081050 0.000000 0.033110 
#    y 0.000000 1.952120 0.000000 
#    z 0.033110 0.000000 2.190830 
# 
# From -- ./inp_files/121934.got.cif
#   From: 2010.05.17/outbox.cif.g08.bks.cpg/sg15_61_cif.got.tgz:121934.got - 2010.06.03 18:47:42.
