data_PCOD9275450
_publ_section_title
;
Structure prediction by ZEFSAII (Michael W. Deem and Ramdas Pophale) SiO2 
 PCOD9275450
Probable space group: C 2/C
;
_chemical_formula_sum "Si O2"
_cell_formula_units_Z 52
_cell_length_a 5.740330
_cell_length_b 20.409803
_cell_length_c 19.480545
_cell_angle_alpha 90.000000
_cell_angle_beta 67.027093
_cell_angle_gamma 90.000000
_cell_volume 2101.309247
_symmetry_space_group_name_H-M "C 2/C"
_symmetry_group_IT_number 15
_symmetry_cell_setting 'monoclinic'
loop_
_space_group_symop_operation_xyz
x,y,z
-x,y,1/2-z
-x,-y,-z
x,-y,1/2+z
1/2+x,1/2+y,z
1/2-x,1/2+y,1/2-z
1/2-x,1/2-y,-z
1/2+x,1/2-y,1/2+z
loop_
_atom_site_type_symbol
_atom_site_label
_atom_site_fract_x
_atom_site_fract_y
_atom_site_fract_z
Si Si1 0.376461 0.016315 0.628055
Si Si2 0.500000 0.904287 0.250000
Si Si3 0.646415 0.567612 0.992202
Si Si4 0.004685 0.117719 0.864790
Si Si5 0.407735 0.139842 0.124505
Si Si6 0.939132 0.827302 0.618737
Si Si7 0.091423 0.293519 0.465904
O O1 0.466446 0.049606 0.688068
O O2 0.563842 0.045036 0.548345
O O3 0.100005 0.045973 0.644276
O O4 0.397389 0.938651 0.631823
O O5 0.757554 0.864444 0.209120
O O6 0.597452 0.614133 0.932443
O O7 0.500000 0.500000 0.000000
O O8 0.517657 0.606505 0.068602
O O9 0.767918 0.165681 0.893811
O O10 0.631933 0.169098 0.147115
O O11 0.122101 0.167825 0.163694
O O12 0.473055 0.158081 0.036729
O O13 0.032061 0.761595 0.568313
O O14 0.250000 0.250000 0.500000
#
# Coordination Sequence:
#
# PCOD9275450 Si02
#       7
#     8   4   8   8   8   8   8
#     4  11  23  38  63  91 128 172 223 279 330 391
#     4  10  26  42  62  94 118 174 238 294 330 386
#     4  11  19  32  57  96 136 163 202 259 337 400
#     4  11  21  40  61  93 128 170 221 274 335 397
#     4  11  22  37  62  97 138 170 207 262 337 402
#     4  11  22  37  58 101 141 172 204 250 335 408
#     4  10  20  39  62 102 138 171 207 267 339 413
#
# _framework density 24.746476999999999
#
# number of rings (size 3 to 8) (size 9 to 14) (size 15 to 20)
#    0.000    1.231    4.615    2.769    2.154    1.846 
#    2.769    0.000    0.000    0.000   32.000    0.000 
#    0.000    0.000    0.000    0.000    0.000    0.000 
#
# Total GULP energy -145134.115546 kJ/mol
# GULP energy per Si atom -5582.081367 kJ/mol
# Density = 2.469015 g / cm^3
# Si number density = 24.746477 Si / 1000 Ang^3
#
#
#
# Elastic Constant Matrix: (Units=GPa)
#
#
# Indices 1 2 3 4 5 6 
#
# 1 133.2862 -0.4235 20.9332 0.0000 -18.4903 0.0000
# 2 -0.4235 81.7547 20.6864 0.0000 -11.3566 0.0000
# 3 20.9332 20.6864 77.4054 0.0000 -9.3625 0.0000
# 4 0.0000 0.0000 0.0000 7.4413 0.0000 3.2786
# 5 -18.4903 -11.3566 -9.3625 0.0000 27.7530 0.0000
# 6 0.0000 0.0000 0.0000 3.2786 0.0000 31.5068
#
#
#
# Elastic Compliance Matrix: (Units=1/GPa)
#
#
# Indices 1 2 3 4 5 6 
#
# 1 0.008598 0.001329 -0.002003 0.000000 0.005596 0.000000
# 2 0.001329 0.013851 -0.003408 0.000000 0.005404 0.000000
# 3 -0.002003 -0.003408 0.014639 0.000000 0.002209 0.000000
# 4 0.000000 0.000000 0.000000 0.140842 0.000000 -0.014656
# 5 0.005596 0.005404 0.002209 0.000000 0.042717 0.000000
# 6 0.000000 0.000000 0.000000 -0.014656 0.000000 0.033264
#
#
# Mechanical properties :
#
#
# Convention : Reuss Voigt Hill
#
# Bulk Modulus (GPa) = 34.57364 41.64873 38.11119
# Shear Modulus (GPa) = 18.40152 30.09024 24.24588
#
# Velocity S-wave (km/s) = 2.72986 3.49082 3.13352
# Velocity P-wave (km/s) = 4.89261 5.75451 5.34098
#
# Compressibility (1/GPa) = 0.02892377
#
# Stress axis : x y z
#
# Youngs Moduli (GPa) = 116.30799 72.19466 68.31228
#
# Poissons Ratio (x) = -0.09593 0.13686
# Poissons Ratio (y) = -0.15455 0.23277
# Poissons Ratio (z) = 0.23301 0.24600
#
# Static dielectric constant tensor:
#      x y z
#    x 2.116100 0.000000 -0.044630 
#    y 0.000000 1.976870 0.000000 
#    z -0.044630 0.000000 1.989180 
# 
# From -- ./inp_files/261323.got.cif
#   From: 2010.05.17/outbox.cif.g08.bks.cpg/sg15_131_cif.got.tgz:261323.got - 2010.06.03 18:47:42.
