data_PCOD9275178
_publ_section_title
;
Structure prediction by ZEFSAII (Michael W. Deem and Ramdas Pophale) SiO2 
 PCOD9275178
Probable space group: C 2/C
;
_chemical_formula_sum "Si O2"
_cell_formula_units_Z 48
_cell_length_a 8.945806
_cell_length_b 23.943685
_cell_length_c 10.792141
_cell_angle_alpha 90.000000
_cell_angle_beta 78.500966
_cell_angle_gamma 90.000000
_cell_volume 2265.229836
_symmetry_space_group_name_H-M "C 2/C"
_symmetry_group_IT_number 15
_symmetry_cell_setting 'monoclinic'
loop_
_space_group_symop_operation_xyz
x,y,z
-x,y,1/2-z
-x,-y,-z
x,-y,1/2+z
1/2+x,1/2+y,z
1/2-x,1/2+y,1/2-z
1/2-x,1/2-y,-z
1/2+x,1/2-y,1/2+z
loop_
_atom_site_type_symbol
_atom_site_label
_atom_site_fract_x
_atom_site_fract_y
_atom_site_fract_z
Si Si1 0.987836 0.299184 0.398654
Si Si2 0.898619 0.458654 0.599954
Si Si3 0.318372 0.550281 0.791519
Si Si4 0.173168 0.383101 0.538485
Si Si5 0.444074 0.330223 0.619338
Si Si6 0.219770 0.879290 0.445634
O O1 0.102730 0.337260 0.457096
O O2 0.027712 0.234847 0.415254
O O3 0.000000 0.308279 0.250000
O O4 0.819196 0.323319 0.452593
O O5 0.791403 0.496029 0.706066
O O6 0.786578 0.425030 0.527874
O O7 0.000000 0.500000 0.500000
O O8 0.029756 0.415720 0.618674
O O9 0.500000 0.538290 0.750000
O O10 0.272774 0.575937 0.933068
O O11 0.274490 0.595061 0.692668
O O12 0.274552 0.352091 0.623760
O O13 0.500000 0.339482 0.750000
O O14 0.549045 0.365116 0.509628
#
# Coordination Sequence:
#
# PCOD9275178 Si02
#       6
#     8   8   8   8   8   8
#     4  10  20  38  70  99 129 169 220 273 334 399
#     4   9  23  41  61  95 124 166 219 273 330 389
#     4  11  21  40  69  98 125 171 228 277 329 397
#     4  10  20  42  66  96 131 174 220 274 333 398
#     4  11  24  41  62  97 137 177 215 274 333 392
#     4  11  22  42  66  94 130 171 217 275 328 392
#
# _framework density 21.189903999999999
#
# number of rings (size 3 to 8) (size 9 to 14) (size 15 to 20)
#    0.000    1.667    3.333    1.000    0.000    1.333 
#    9.000    2.500    0.000    0.000    0.000    0.000 
#    0.000    0.000    0.000    0.000    0.000    0.000 
#
# Total GULP energy -134018.068281 kJ/mol
# GULP energy per Si atom -5584.086178 kJ/mol
# Density = 2.114167 g / cm^3
# Si number density = 21.189904 Si / 1000 Ang^3
#
#
#
# Elastic Constant Matrix: (Units=GPa)
#
#
# Indices 1 2 3 4 5 6 
#
# 1 150.0416 72.0825 29.2285 0.0000 -0.2594 0.0000
# 2 72.0825 106.3903 44.0082 0.0000 13.5457 0.0000
# 3 29.2285 44.0082 75.1040 0.0000 0.8912 0.0000
# 4 0.0000 0.0000 0.0000 9.9096 0.0000 -1.7372
# 5 -0.2594 13.5457 0.8912 0.0000 20.5026 0.0000
# 6 0.0000 0.0000 0.0000 -1.7372 0.0000 22.8213
#
#
#
# Elastic Compliance Matrix: (Units=1/GPa)
#
#
# Indices 1 2 3 4 5 6 
#
# 1 0.010384 -0.007945 0.000551 0.000000 0.005357 0.000000
# 2 -0.007945 0.019906 -0.008419 0.000000 -0.012886 0.000000
# 3 0.000551 -0.008419 0.017977 0.000000 0.004788 0.000000
# 4 0.000000 0.000000 0.000000 0.102278 0.000000 0.007786
# 5 0.005357 -0.012886 0.004788 0.000000 0.057147 0.000000
# 6 0.000000 0.000000 0.000000 0.007786 0.000000 0.044411
#
#
# Mechanical properties :
#
#
# Convention : Reuss Voigt Hill
#
# Bulk Modulus (GPa) = 60.09710 69.13048 64.61379
# Shear Modulus (GPa) = 17.28455 23.06113 20.17284
#
# Velocity S-wave (km/s) = 2.85914 3.30253 3.08880
# Velocity P-wave (km/s) = 6.27075 6.87294 6.57874
#
# Compressibility (1/GPa) = 0.01663974
#
# Stress axis : x y z
#
# Youngs Moduli (GPa) = 96.30410 50.23708 55.62705
#
# Poissons Ratio (x) = 0.39915 -0.03065
# Poissons Ratio (y) = 0.76516 0.46832
# Poissons Ratio (z) = -0.05306 0.42295
#
# Static dielectric constant tensor:
#      x y z
#    x 1.734190 0.000000 -0.007450 
#    y 0.000000 1.865640 0.000000 
#    z -0.007450 0.000000 1.842290 
# 
# From -- ./inp_files/79797.got.cif
#   From: 2010.05.17/outbox.cif.g08.bks.cpg/sg15_40_cif.got.tgz:79797.got - 2010.06.03 18:47:42.
