data_PCOD9275822
_publ_section_title
;
Structure prediction by ZEFSAII (Michael W. Deem and Ramdas Pophale) SiO2 
 PCOD9275822
Probable space group: C 2/C
;
_chemical_formula_sum "Si O2"
_cell_formula_units_Z 60
_cell_length_a 25.761323
_cell_length_b 22.922374
_cell_length_c 5.058218
_cell_angle_alpha 90.000000
_cell_angle_beta 104.747208
_cell_angle_gamma 90.000000
_cell_volume 2888.537276
_symmetry_space_group_name_H-M "C 2/C"
_symmetry_group_IT_number 15
_symmetry_cell_setting 'monoclinic'
loop_
_space_group_symop_operation_xyz
x,y,z
-x,y,1/2-z
-x,-y,-z
x,-y,1/2+z
1/2+x,1/2+y,z
1/2-x,1/2+y,1/2-z
1/2-x,1/2-y,-z
1/2+x,1/2-y,1/2+z
loop_
_atom_site_type_symbol
_atom_site_label
_atom_site_fract_x
_atom_site_fract_y
_atom_site_fract_z
Si Si1 0.109398 0.327341 0.109343
Si Si2 0.701887 0.750161 0.151681
Si Si3 0.000000 0.634283 0.250000
Si Si4 0.324032 0.541927 0.927607
Si Si5 0.555083 0.540460 0.402059
Si Si6 0.940954 0.535611 0.508018
Si Si7 0.150853 0.389951 0.674054
Si Si8 0.255777 0.355677 0.550356
O O1 0.140656 0.270787 0.038324
O O2 0.121997 0.344342 0.429649
O O3 0.046473 0.330303 0.961118
O O4 0.137279 0.376304 0.959430
O O5 0.700118 0.683957 0.248691
O O6 0.723168 0.803171 0.365021
O O7 0.750000 0.750000 0.000000
O O8 0.968644 0.592558 0.417543
O O9 0.317636 0.492768 0.146243
O O10 0.385153 0.566290 0.042016
O O11 0.282559 0.594655 0.910399
O O12 0.500000 0.573722 0.250000
O O13 0.553398 0.513778 0.693292
O O14 0.952448 0.516979 0.821159
O O15 0.877737 0.549566 0.423886
O O16 0.213241 0.384670 0.693415
#
# Coordination Sequence:
#
# PCOD9275822 Si02
#       8
#     8   8   4   8   8   8   8   8
#     4  10  21  37  58  83 106 141 194 244 297 348
#     4  10  20  39  65  86 110 154 209 250 295 355
#     4  10  22  38  58  82 116 156 198 248 300 360
#     4  10  22  35  54  88 122 157 188 230 300 358
#     4   8  14  28  49  73 103 143 188 218 257 336
#     4  11  22  35  53  78 114 157 203 242 284 346
#     4  10  21  36  53  80 110 147 194 240 292 346
#     4  10  22  37  61  88 120 155 199 251 303 355
#
# _framework density 20.771757000000001
#
# number of rings (size 3 to 8) (size 9 to 14) (size 15 to 20)
#    0.000    2.133    1.333    2.000    1.867    5.333 
#    0.000    0.000    0.000    1.600    1.733    0.000 
#    0.000    0.000    0.000    0.000    0.000    0.000 
#
# Total GULP energy -167073.597565 kJ/mol
# GULP energy per Si atom -5569.119919 kJ/mol
# Density = 2.072448 g / cm^3
# Si number density = 20.771757 Si / 1000 Ang^3
#
#
#
# Elastic Constant Matrix: (Units=GPa)
#
#
# Indices 1 2 3 4 5 6 
#
# 1 102.1402 37.6608 -0.7662 0.0000 1.4247 0.0000
# 2 37.6608 42.0026 5.5253 0.0000 1.8152 0.0000
# 3 -0.7662 5.5253 56.7708 0.0000 -7.8119 0.0000
# 4 0.0000 0.0000 0.0000 17.5824 0.0000 6.8517
# 5 1.4247 1.8152 -7.8119 0.0000 31.4377 0.0000
# 6 0.0000 0.0000 0.0000 6.8517 0.0000 39.6718
#
#
#
# Elastic Compliance Matrix: (Units=1/GPa)
#
#
# Indices 1 2 3 4 5 6 
#
# 1 0.014759 -0.013463 0.001578 0.000000 0.000501 0.000000
# 2 -0.013463 0.036525 -0.004082 0.000000 -0.002513 0.000000
# 3 0.001578 -0.004082 0.018695 0.000000 0.004810 0.000000
# 4 0.000000 0.000000 0.000000 0.060979 0.000000 -0.010532
# 5 0.000501 -0.002513 0.004810 0.000000 0.033127 0.000000
# 6 0.000000 0.000000 0.000000 -0.010532 0.000000 0.027026
#
#
# Mechanical properties :
#
#
# Convention : Reuss Voigt Hill
#
# Bulk Modulus (GPa) = 26.28427 31.75038 29.01732
# Shear Modulus (GPa) = 21.21101 28.30462 24.75782
#
# Velocity S-wave (km/s) = 3.19901 3.69541 3.45613
# Velocity P-wave (km/s) = 5.13090 5.79022 5.47050
#
# Compressibility (1/GPa) = 0.03804557
#
# Stress axis : x y z
#
# Youngs Moduli (GPa) = 67.75375 27.37857 53.48981
#
# Poissons Ratio (x) = 0.36860 -0.08443
# Poissons Ratio (y) = 0.91216 0.21837
# Poissons Ratio (z) = -0.10694 0.11177
#
# Static dielectric constant tensor:
#      x y z
#    x 1.927090 0.000000 0.080680 
#    y 0.000000 1.744280 0.000000 
#    z 0.080680 0.000000 1.832670 
# 
# From -- ./inp_files/17460.got.cif
#   From: 2010.05.17/outbox.cif.g08.bks.cpg/sg15_9_cif.got.tgz:17460.got - 2010.06.03 18:47:42.
