data_PCOD9275708
_publ_section_title
;
Structure prediction by ZEFSAII (Michael W. Deem and Ramdas Pophale) SiO2 
 PCOD9275708
Probable space group: C 2/C
;
_chemical_formula_sum "Si O2"
_cell_formula_units_Z 56
_cell_length_a 8.518434
_cell_length_b 21.079259
_cell_length_c 13.175352
_cell_angle_alpha 90.000000
_cell_angle_beta 80.170066
_cell_angle_gamma 90.000000
_cell_volume 2331.063564
_symmetry_space_group_name_H-M "C 2/C"
_symmetry_group_IT_number 15
_symmetry_cell_setting 'monoclinic'
loop_
_space_group_symop_operation_xyz
x,y,z
-x,y,1/2-z
-x,-y,-z
x,-y,1/2+z
1/2+x,1/2+y,z
1/2-x,1/2+y,1/2-z
1/2-x,1/2-y,-z
1/2+x,1/2-y,1/2+z
loop_
_atom_site_type_symbol
_atom_site_label
_atom_site_fract_x
_atom_site_fract_y
_atom_site_fract_z
Si Si1 0.070463 0.966642 0.894555
Si Si2 0.500000 0.369324 0.750000
Si Si3 0.784686 0.718782 0.294821
Si Si4 0.388556 0.164318 0.619569
Si Si5 0.270165 0.584058 0.686306
Si Si6 0.500000 0.993582 0.750000
Si Si7 0.407473 0.104408 0.401291
Si Si8 0.247051 0.707114 0.600877
O O1 0.236493 0.930416 0.903056
O O2 0.963252 0.915727 0.848056
O O3 0.109215 0.026559 0.818684
O O4 0.000000 0.000000 0.000000
O O5 0.357108 0.325148 0.731943
O O6 0.715804 0.771800 0.379196
O O7 0.896321 0.670572 0.342242
O O8 0.827436 0.757047 0.187202
O O9 0.282901 0.121245 0.706951
O O10 0.424841 0.124175 0.515311
O O11 0.560193 0.189907 0.639953
O O12 0.320451 0.636259 0.597520
O O13 0.113100 0.543047 0.679729
O O14 0.461936 0.942566 0.664419
O O15 0.250000 0.750000 0.500000
#
# Coordination Sequence:
#
# PCOD9275708 Si02
#       8
#     8   4   8   8   8   4   8   8
#     4  10  24  40  62  93 129 169 217 268 326 399
#     4  10  20  39  64  83 124 172 204 264 322 400
#     4  10  20  42  61  88 125 168 211 268 331 383
#     4  11  21  41  66  91 129 168 217 275 331 390
#     4  10  21  43  62  92 131 167 215 269 332 397
#     4  10  20  43  58  91 134 170 208 276 330 398
#     4  10  24  37  64  95 128 169 217 270 333 394
#     4  11  23  37  68  93 121 170 218 271 325 398
#
# _framework density 24.023368999999999
#
# number of rings (size 3 to 8) (size 9 to 14) (size 15 to 20)
#    0.000    1.714    2.857    1.286    6.000    0.571 
#    0.000    0.000    0.000    0.000    0.000    0.000 
#    0.000    0.000    0.000    0.000    0.000    0.000 
#
# Total GULP energy -156112.102815 kJ/mol
# GULP energy per Si atom -5575.432243 kJ/mol
# Density = 2.396869 g / cm^3
# Si number density = 24.023369 Si / 1000 Ang^3
#
#
#
# Elastic Constant Matrix: (Units=GPa)
#
#
# Indices 1 2 3 4 5 6 
#
# 1 30.4054 23.2981 11.7634 0.0000 0.2774 0.0000
# 2 23.2981 176.3408 48.5507 0.0000 2.0116 0.0000
# 3 11.7634 48.5507 114.5746 0.0000 3.5835 0.0000
# 4 0.0000 0.0000 0.0000 35.2933 0.0000 -15.8525
# 5 0.2774 2.0116 3.5835 0.0000 20.3959 0.0000
# 6 0.0000 0.0000 0.0000 -15.8525 0.0000 11.0001
#
#
#
# Elastic Compliance Matrix: (Units=1/GPa)
#
#
# Indices 1 2 3 4 5 6 
#
# 1 0.036978 -0.004348 -0.001962 0.000000 0.000271 0.000000
# 2 -0.004348 0.006932 -0.002485 0.000000 -0.000188 0.000000
# 3 -0.001962 -0.002485 0.010029 0.000000 -0.001490 0.000000
# 4 0.000000 0.000000 0.000000 0.080335 0.000000 0.115772
# 5 0.000271 -0.000188 -0.001490 0.000000 0.049306 0.000000
# 6 0.000000 0.000000 0.000000 0.115772 0.000000 0.257751
#
#
# Mechanical properties :
#
#
# Convention : Reuss Voigt Hill
#
# Bulk Modulus (GPa) = 27.51261 54.28279 40.89770
# Shear Modulus (GPa) = 10.61489 29.18508 19.89999
#
# Velocity S-wave (km/s) = 2.10432 3.48927 2.88125
# Velocity P-wave (km/s) = 4.16911 6.23524 5.30376
#
# Compressibility (1/GPa) = 0.03634697
#
# Stress axis : x y z
#
# Youngs Moduli (GPa) = 27.04347 144.26611 99.71065
#
# Poissons Ratio (x) = 0.62730 0.19567
# Poissons Ratio (y) = 0.11759 0.24778
# Poissons Ratio (z) = 0.05307 0.35849
#
# Static dielectric constant tensor:
#      x y z
#    x 2.001330 0.000000 -0.040140 
#    y 0.000000 1.926640 0.000000 
#    z -0.040140 0.000000 1.947110 
# 
# From -- ./inp_files/88921.got.cif
#   From: 2010.05.17/outbox.cif.g08.bks.cpg/sg15_45_cif.got.tgz:88921.got - 2010.06.03 18:47:42.
