data_PCOD9275313
_publ_section_title
;
Structure prediction by ZEFSAII (Michael W. Deem and Ramdas Pophale) SiO2 
 PCOD9275313
Probable space group: C 2/C
;
_chemical_formula_sum "Si O2"
_cell_formula_units_Z 56
_cell_length_a 17.158966
_cell_length_b 15.703651
_cell_length_c 13.168546
_cell_angle_alpha 90.000000
_cell_angle_beta 38.009578
_cell_angle_gamma 90.000000
_cell_volume 2185.065501
_symmetry_space_group_name_H-M "C 2/C"
_symmetry_group_IT_number 15
_symmetry_cell_setting 'monoclinic'
loop_
_space_group_symop_operation_xyz
x,y,z
-x,y,1/2-z
-x,-y,-z
x,-y,1/2+z
1/2+x,1/2+y,z
1/2-x,1/2+y,1/2-z
1/2-x,1/2-y,-z
1/2+x,1/2-y,1/2+z
loop_
_atom_site_type_symbol
_atom_site_label
_atom_site_fract_x
_atom_site_fract_y
_atom_site_fract_z
Si Si1 0.246474 0.515262 0.367633
Si Si2 0.765038 0.317795 0.288317
Si Si3 0.164788 0.955903 0.949233
Si Si4 0.096286 0.859607 0.284430
Si Si5 0.015338 0.387422 0.110081
Si Si6 0.670463 0.189992 0.260613
Si Si7 0.643219 0.634403 0.090723
O O1 0.314798 0.522772 0.189978
O O2 0.300643 0.428496 0.360424
O O3 0.289902 0.602066 0.377751
O O4 0.095194 0.524805 0.523127
O O5 0.641028 0.351369 0.356203
O O6 0.877036 0.382836 0.199786
O O7 0.793701 0.239148 0.184532
O O8 0.716713 0.297349 0.449125
O O9 0.285544 0.894563 0.840682
O O10 0.038450 0.900682 0.094673
O O11 0.147273 0.043971 0.025792
O O12 0.110928 0.759742 0.245186
O O13 0.000000 0.368271 0.250000
O O14 0.089098 0.331621 0.946174
O O15 0.500000 0.661440 0.250000
#
# Coordination Sequence:
#
# PCOD9275313 Si02
#       7
#     8   8   8   8   8   8   8
#     4  11  22  38  62  88 119 159 197 253 293 346
#     4  10  22  39  58  90 117 159 198 234 306 359
#     4  11  20  41  62  88 124 154 200 252 291 353
#     4  10  20  39  60  84 119 154 202 237 294 348
#     4  11  22  39  57  88 129 150 196 248 299 359
#     4   9  23  38  61  86 117 167 192 237 301 359
#     4  12  22  37  66  93 113 154 206 249 299 346
#
# _framework density 25.628523000000001
#
# number of rings (size 3 to 8) (size 9 to 14) (size 15 to 20)
#    0.857    0.571    4.286    2.143    0.000    1.714 
#    0.000    0.714    0.000    0.000    0.000    0.000 
#    0.000    0.000    0.000    0.000    0.000    0.000 
#
# Total GULP energy -155882.633932 kJ/mol
# GULP energy per Si atom -5567.236926 kJ/mol
# Density = 2.557019 g / cm^3
# Si number density = 25.628523 Si / 1000 Ang^3
#
#
#
# Elastic Constant Matrix: (Units=GPa)
#
#
# Indices 1 2 3 4 5 6 
#
# 1 43.2382 -17.1998 5.3796 0.0000 0.0352 0.0000
# 2 -17.1998 77.5057 16.6298 0.0000 7.0880 0.0000
# 3 5.3796 16.6298 95.0026 0.0000 -4.2502 0.0000
# 4 0.0000 0.0000 0.0000 30.8837 0.0000 7.4921
# 5 0.0352 7.0880 -4.2502 0.0000 40.8214 0.0000
# 6 0.0000 0.0000 0.0000 7.4921 0.0000 33.5090
#
#
#
# Elastic Compliance Matrix: (Units=1/GPa)
#
#
# Indices 1 2 3 4 5 6 
#
# 1 0.026040 0.006483 -0.002673 0.000000 -0.001426 0.000000
# 2 0.006483 0.015297 -0.003179 0.000000 -0.002993 0.000000
# 3 -0.002673 -0.003179 0.011311 0.000000 0.001732 0.000000
# 4 0.000000 0.000000 0.000000 0.034236 0.000000 -0.007655
# 5 -0.001426 -0.002993 0.001732 0.000000 0.025198 0.000000
# 6 0.000000 0.000000 0.000000 -0.007655 0.000000 0.031554
#
#
# Mechanical properties :
#
#
# Convention : Reuss Voigt Hill
#
# Bulk Modulus (GPa) = 18.54939 25.04065 21.79502
# Shear Modulus (GPa) = 31.18278 35.10529 33.14404
#
# Velocity S-wave (km/s) = 3.49194 3.70506 3.60008
# Velocity P-wave (km/s) = 4.84888 5.30048 5.07971
#
# Compressibility (1/GPa) = 0.05391012
#
# Stress axis : x y z
#
# Youngs Moduli (GPa) = 38.40213 65.37416 88.40741
#
# Poissons Ratio (x) = -0.42380 0.23633
# Poissons Ratio (y) = -0.24895 0.28101
# Poissons Ratio (z) = 0.10265 0.20780
#
# Static dielectric constant tensor:
#      x y z
#    x 2.136640 0.000000 0.007400 
#    y 0.000000 2.156730 0.000000 
#    z 0.007400 0.000000 2.079610 
# 
# From -- ./inp_files/169094.got.cif
#   From: 2010.05.17/outbox.cif.g08.bks.cpg/sg15_85_cif.got.tgz:169094.got - 2010.06.03 18:47:42.
