data_PCOD9275699
_publ_section_title
;
Structure prediction by ZEFSAII (Michael W. Deem and Ramdas Pophale) SiO2 
 PCOD9275699
Probable space group: C 2/C
;
_chemical_formula_sum "Si O2"
_cell_formula_units_Z 40
_cell_length_a 26.202223
_cell_length_b 10.939307
_cell_length_c 8.608413
_cell_angle_alpha 90.000000
_cell_angle_beta 137.091800
_cell_angle_gamma 90.000000
_cell_volume 1679.913754
_symmetry_space_group_name_H-M "C 2/C"
_symmetry_group_IT_number 15
_symmetry_cell_setting 'monoclinic'
loop_
_space_group_symop_operation_xyz
x,y,z
-x,y,1/2-z
-x,-y,-z
x,-y,1/2+z
1/2+x,1/2+y,z
1/2-x,1/2+y,1/2-z
1/2-x,1/2-y,-z
1/2+x,1/2-y,1/2+z
loop_
_atom_site_type_symbol
_atom_site_label
_atom_site_fract_x
_atom_site_fract_y
_atom_site_fract_z
Si Si1 0.901701 0.598556 0.790031
Si Si2 0.500000 0.549913 0.250000
Si Si3 0.818798 0.741550 0.834840
Si Si4 0.254324 0.543942 0.008912
Si Si5 0.500000 0.044964 0.750000
Si Si6 0.602713 0.383401 0.252315
O O1 0.873340 0.721392 0.808300
O O2 0.830216 0.507305 0.634539
O O3 0.936763 0.617128 0.701512
O O4 0.960725 0.541956 0.038784
O O5 0.557268 0.463940 0.278932
O O6 0.548014 0.625396 0.483011
O O7 0.761926 0.628611 0.681592
O O8 0.775951 0.865051 0.697644
O O9 0.868238 0.761454 0.096777
O O10 0.321120 0.451856 0.130424
#
# Coordination Sequence:
#
# PCOD9275699 Si02
#       6
#     8   4   8   8   4   8
#     4   9  21  37  65  95 128 176 214 273 343 394
#     4  10  24  35  65  94 130 184 216 277 349 392
#     4   9  20  39  65  93 129 177 231 271 334 399
#     4   9  20  37  66  93 127 181 220 272 334 400
#     4  10  20  39  63  98 132 166 220 275 347 404
#     4  11  20  42  65  97 135 179 232 276 337 404
#
# _framework density 23.810745000000001
#
# number of rings (size 3 to 8) (size 9 to 14) (size 15 to 20)
#    1.200    1.200    2.000    0.000    2.800    0.800 
#    0.000    2.000    4.400    0.000    0.000    0.000 
#    0.000    0.000    0.000    0.000    0.000    0.000 
#
# Total GULP energy -111568.720401 kJ/mol
# GULP energy per Si atom -5578.436020 kJ/mol
# Density = 2.375655 g / cm^3
# Si number density = 23.810745 Si / 1000 Ang^3
#
#
#
# Elastic Constant Matrix: (Units=GPa)
#
#
# Indices 1 2 3 4 5 6 
#
# 1 112.0941 6.7784 32.5031 0.0000 12.8216 0.0000
# 2 6.7784 29.0361 23.2828 0.0000 -3.9674 0.0000
# 3 32.5031 23.2828 169.6569 0.0000 -11.4979 0.0000
# 4 0.0000 0.0000 0.0000 24.8114 0.0000 7.8174
# 5 12.8216 -3.9674 -11.4979 0.0000 35.4894 0.0000
# 6 0.0000 0.0000 0.0000 7.8174 0.0000 28.4253
#
#
#
# Elastic Compliance Matrix: (Units=1/GPa)
#
#
# Indices 1 2 3 4 5 6 
#
# 1 0.010109 -0.001320 -0.002058 0.000000 -0.004466 0.000000
# 2 -0.001320 0.039119 -0.004894 0.000000 0.003264 0.000000
# 3 -0.002058 -0.004894 0.007130 0.000000 0.002506 0.000000
# 4 0.000000 0.000000 0.000000 0.044128 0.000000 -0.012136
# 5 -0.004466 0.003264 0.002506 0.000000 0.030968 0.000000
# 6 0.000000 0.000000 0.000000 -0.012136 0.000000 0.038517
#
#
# Mechanical properties :
#
#
# Convention : Reuss Voigt Hill
#
# Bulk Modulus (GPa) = 25.11763 48.43510 36.77637
# Shear Modulus (GPa) = 25.02681 34.29342 29.66012
#
# Velocity S-wave (km/s) = 3.24554 3.79918 3.53322
# Velocity P-wave (km/s) = 4.96150 6.29531 5.66778
#
# Compressibility (1/GPa) = 0.03981267
#
# Stress axis : x y z
#
# Youngs Moduli (GPa) = 98.92618 25.56329 140.25038
#
# Poissons Ratio (x) = 0.03374 0.28866
# Poissons Ratio (y) = 0.13056 0.68644
# Poissons Ratio (z) = 0.20361 0.12512
#
# Static dielectric constant tensor:
#      x y z
#    x 2.006150 0.000000 0.030850 
#    y 0.000000 2.026680 0.000000 
#    z 0.030850 0.000000 1.942820 
# 
# From -- ./inp_files/54139.got.cif
#   From: 2010.05.17/outbox.cif.g08.bks.cpg/sg15_28_cif.got.tgz:54139.got - 2010.06.03 18:47:42.
