data_PCOD9275137
_publ_section_title
;
Structure prediction by ZEFSAII (Michael W. Deem and Ramdas Pophale) SiO2 
 PCOD9275137
Probable space group: C 2/C
;
_chemical_formula_sum "Si O2"
_cell_formula_units_Z 52
_cell_length_a 18.007555
_cell_length_b 9.019543
_cell_length_c 13.939845
_cell_angle_alpha 90.000000
_cell_angle_beta 106.939040
_cell_angle_gamma 90.000000
_cell_volume 2165.880761
_symmetry_space_group_name_H-M "C 2/C"
_symmetry_group_IT_number 15
_symmetry_cell_setting 'monoclinic'
loop_
_space_group_symop_operation_xyz
x,y,z
-x,y,1/2-z
-x,-y,-z
x,-y,1/2+z
1/2+x,1/2+y,z
1/2-x,1/2+y,1/2-z
1/2-x,1/2-y,-z
1/2+x,1/2-y,1/2+z
loop_
_atom_site_type_symbol
_atom_site_label
_atom_site_fract_x
_atom_site_fract_y
_atom_site_fract_z
Si Si1 0.418621 0.475467 0.675611
Si Si2 0.975819 0.668535 0.502028
Si Si3 0.874464 0.187477 0.805446
Si Si4 0.607805 0.414582 0.542460
Si Si5 0.771731 0.218588 0.161530
Si Si6 0.750000 0.750000 0.000000
Si Si7 0.171594 0.437283 0.456016
O O1 0.500000 0.428602 0.750000
O O2 0.399497 0.640319 0.709410
O O3 0.421001 0.493938 0.562492
O O4 0.349598 0.375768 0.691346
O O5 0.933139 0.710417 0.386107
O O6 0.910520 0.648011 0.560052
O O7 0.000000 0.500000 0.500000
O O8 0.045705 0.785205 0.543628
O O9 0.788034 0.255549 0.774604
O O10 0.879609 0.037030 0.870963
O O11 0.689509 0.349036 0.539858
O O12 0.795219 0.379026 0.131528
O O13 0.722160 0.135371 0.060877
O O14 0.683739 0.888727 0.971690
#
# Coordination Sequence:
#
# PCOD9275137 Si02
#       7
#     8   8   8   8   8   4   8
#     4  12  25  42  70 103 139 188 238 292 360 440
#     4  11  22  37  65 100 134 172 229 289 345 412
#     4  11  25  44  72  97 137 189 234 295 359 423
#     4  12  24  44  69 102 137 186 239 287 361 435
#     4  10  21  43  63  95 132 175 234 286 343 424
#     4  12  20  38  72 102 134 186 232 290 362 418
#     4  10  20  38  69  96 129 179 229 290 345 414
#
# _framework density 24.008707999999999
#
# number of rings (size 3 to 8) (size 9 to 14) (size 15 to 20)
#    0.000    0.923    6.154    2.308    2.154    1.231 
#    0.000    0.000    0.000    2.769    0.000    0.000 
#    0.000    0.000    0.000    0.000    0.000    0.000 
#
# Total GULP energy -144874.300657 kJ/mol
# GULP energy per Si atom -5572.088487 kJ/mol
# Density = 2.395406 g / cm^3
# Si number density = 24.008708 Si / 1000 Ang^3
#
#
#
# Elastic Constant Matrix: (Units=GPa)
#
#
# Indices 1 2 3 4 5 6 
#
# 1 157.9817 40.0111 17.8801 0.0000 27.4824 0.0000
# 2 40.0111 140.5209 15.8929 0.0000 9.9733 0.0000
# 3 17.8801 15.8929 47.3258 0.0000 -5.3140 0.0000
# 4 0.0000 0.0000 0.0000 24.2318 0.0000 4.2605
# 5 27.4824 9.9733 -5.3140 0.0000 20.9172 0.0000
# 6 0.0000 0.0000 0.0000 4.2605 0.0000 65.6598
#
#
#
# Elastic Compliance Matrix: (Units=1/GPa)
#
#
# Indices 1 2 3 4 5 6 
#
# 1 0.009417 -0.001243 -0.004594 0.000000 -0.012947 0.000000
# 2 -0.001243 0.007953 -0.002516 0.000000 -0.002798 0.000000
# 3 -0.004594 -0.002516 0.025243 0.000000 0.013649 0.000000
# 4 0.000000 0.000000 0.000000 0.041744 0.000000 -0.002709
# 5 -0.012947 -0.002798 0.013649 0.000000 0.069620 0.000000
# 6 0.000000 0.000000 0.000000 -0.002709 0.000000 0.015406
#
#
# Mechanical properties :
#
#
# Convention : Reuss Voigt Hill
#
# Bulk Modulus (GPa) = 38.59768 54.82184 46.70976
# Shear Modulus (GPa) = 25.67730 40.29805 32.98767
#
# Velocity S-wave (km/s) = 3.27387 4.10137 3.71076
# Velocity P-wave (km/s) = 5.51384 6.73142 6.15282
#
# Compressibility (1/GPa) = 0.02590829
#
# Stress axis : x y z
#
# Youngs Moduli (GPa) = 106.19295 125.73297 39.61463
#
# Poissons Ratio (x) = 0.15626 0.18200
# Poissons Ratio (y) = 0.13198 0.09965
# Poissons Ratio (z) = 0.48787 0.31629
#
# Static dielectric constant tensor:
#      x y z
#    x 1.996830 0.000000 -0.002120 
#    y 0.000000 1.936720 0.000000 
#    z -0.002120 0.000000 1.952730 
# 
# From -- ./inp_files/209239.got.cif
#   From: 2010.05.17/outbox.cif.g08.bks.cpg/sg15_105_cif.got.tgz:209239.got - 2010.06.03 18:47:42.
