data_PCOD9275039
_publ_section_title
;
Structure prediction by ZEFSAII (Michael W. Deem and Ramdas Pophale) SiO2 
 PCOD9275039
Probable space group: C 2/C
;
_chemical_formula_sum "Si O2"
_cell_formula_units_Z 20
_cell_length_a 10.067339
_cell_length_b 8.580344
_cell_length_c 8.004929
_cell_angle_alpha 90.000000
_cell_angle_beta 83.596133
_cell_angle_gamma 90.000000
_cell_volume 687.161092
_symmetry_space_group_name_H-M "C 2/C"
_symmetry_group_IT_number 15
_symmetry_cell_setting 'monoclinic'
loop_
_space_group_symop_operation_xyz
x,y,z
-x,y,1/2-z
-x,-y,-z
x,-y,1/2+z
1/2+x,1/2+y,z
1/2-x,1/2+y,1/2-z
1/2-x,1/2-y,-z
1/2+x,1/2-y,1/2+z
loop_
_atom_site_type_symbol
_atom_site_label
_atom_site_fract_x
_atom_site_fract_y
_atom_site_fract_z
Si Si1 0.500000 0.245475 0.750000
Si Si2 0.144743 0.007933 0.568490
Si Si3 0.396066 0.139622 0.406994
O O1 0.626501 0.359939 0.689605
O O2 0.461927 0.163969 0.580457
O O3 0.151147 0.184550 0.637550
O O4 0.279102 0.988313 0.941307
O O5 0.000000 0.000000 0.500000
O O6 0.500000 0.100336 0.250000
#
# Coordination Sequence:
#
# PCOD9275039 Si02
#       3
#     4   8   8
#     4  10  20  40  70 102 136 186 232 290 352 416
#     4   9  19  38  67 102 144 186 227 291 359 412
#     4  10  20  38  68 102 140 185 237 287 347 428
#
# _framework density 29.105257000000002
#
# number of rings (size 3 to 8) (size 9 to 14) (size 15 to 20)
#    0.000    2.400    2.000    0.000    0.000    0.000 
#    0.000   26.000    0.000   33.600    0.000    8.400 
#    0.000    0.000    0.000    0.000    0.000    0.000 
#
# Total GULP energy -56000.037641 kJ/mol
# GULP energy per Si atom -5600.003764 kJ/mol
# Density = 2.903901 g / cm^3
# Si number density = 29.105257 Si / 1000 Ang^3
#
#
#
# Elastic Constant Matrix: (Units=GPa)
#
#
# Indices 1 2 3 4 5 6 
#
# 1 292.5126 73.5884 107.8519 0.0000 -38.3351 0.0000
# 2 73.5884 147.5696 85.1176 0.0000 -6.4527 0.0000
# 3 107.8519 85.1176 228.1660 0.0000 -11.4386 0.0000
# 4 0.0000 0.0000 0.0000 62.3013 0.0000 5.3326
# 5 -38.3351 -6.4527 -11.4386 0.0000 58.2416 0.0000
# 6 0.0000 0.0000 0.0000 5.3326 0.0000 58.1874
#
#
#
# Elastic Compliance Matrix: (Units=1/GPa)
#
#
# Indices 1 2 3 4 5 6 
#
# 1 0.004677 -0.001297 -0.001595 0.000000 0.002621 0.000000
# 2 -0.001297 0.009000 -0.002764 0.000000 -0.000400 0.000000
# 3 -0.001595 -0.002764 0.006161 0.000000 -0.000146 0.000000
# 4 0.000000 0.000000 0.000000 0.016178 0.000000 -0.001483
# 5 0.002621 -0.000400 -0.000146 0.000000 0.018822 0.000000
# 6 0.000000 0.000000 0.000000 -0.001483 0.000000 0.017322
#
#
# Mechanical properties :
#
#
# Convention : Reuss Voigt Hill
#
# Bulk Modulus (GPa) = 117.31764 133.48487 125.40126
# Shear Modulus (GPa) = 57.92725 62.52542 60.22633
#
# Velocity S-wave (km/s) = 4.46608 4.63995 4.55385
# Velocity P-wave (km/s) = 8.18475 8.64106 8.41600
#
# Compressibility (1/GPa) = 0.00852387
#
# Stress axis : x y z
#
# Youngs Moduli (GPa) = 213.82352 111.10556 162.31761
#
# Poissons Ratio (x) = 0.14415 0.25894
# Poissons Ratio (y) = 0.27741 0.44871
# Poissons Ratio (z) = 0.34110 0.30714
#
# Static dielectric constant tensor:
#      x y z
#    x 2.305480 0.000000 -0.013170 
#    y 0.000000 2.400050 0.000000 
#    z -0.013170 0.000000 2.395240 
# 
# From -- ./inp_files/27108.got.cif
#   From: 2010.05.17/outbox.cif.g08.bks.cpg/sg15_14_cif.got.tgz:27108.got - 2010.06.03 18:47:42.
