data_PCOD9275266
_publ_section_title
;
Structure prediction by ZEFSAII (Michael W. Deem and Ramdas Pophale) SiO2 
 PCOD9275266
Probable space group: C 2/C
;
_chemical_formula_sum "Si O2"
_cell_formula_units_Z 56
_cell_length_a 9.282737
_cell_length_b 18.231759
_cell_length_c 28.632862
_cell_angle_alpha 90.000000
_cell_angle_beta 142.846895
_cell_angle_gamma 90.000000
_cell_volume 2926.632479
_symmetry_space_group_name_H-M "C 2/C"
_symmetry_group_IT_number 15
_symmetry_cell_setting 'monoclinic'
loop_
_space_group_symop_operation_xyz
x,y,z
-x,y,1/2-z
-x,-y,-z
x,-y,1/2+z
1/2+x,1/2+y,z
1/2-x,1/2+y,1/2-z
1/2-x,1/2-y,-z
1/2+x,1/2-y,1/2+z
loop_
_atom_site_type_symbol
_atom_site_label
_atom_site_fract_x
_atom_site_fract_y
_atom_site_fract_z
Si Si1 0.431290 0.632211 0.105276
Si Si2 0.507899 0.056499 0.544346
Si Si3 0.595947 0.125544 0.326607
Si Si4 0.142215 0.776605 0.738333
Si Si5 0.065491 0.393302 0.213986
Si Si6 0.500894 0.504044 0.804241
Si Si7 0.223560 0.487252 0.420707
O O1 0.627841 0.644093 0.115135
O O2 0.472975 0.696419 0.152720
O O3 0.483663 0.559890 0.152168
O O4 0.166920 0.622324 0.015971
O O5 0.782939 0.061210 0.630115
O O6 0.500000 0.000000 0.500000
O O7 0.389790 0.018457 0.558110
O O8 0.500000 0.107490 0.250000
O O9 0.399880 0.182477 0.297609
O O10 0.614783 0.055266 0.364233
O O11 0.160987 0.689285 0.737740
O O12 0.000000 0.791877 0.750000
O O13 0.265429 0.449023 0.249023
O O14 0.000000 0.410347 0.250000
O O15 0.838698 0.412814 0.123299
O O16 0.500000 0.475985 0.750000
O O17 0.500000 0.500000 0.500000
#
# Coordination Sequence:
#
# PCOD9275266 Si02
#       7
#     8   8   8   8   8   8   8
#     4  10  20  39  58  90 123 158 202 252 309 372
#     4  10  23  36  57  96 122 154 195 257 310 358
#     4  10  21  37  64  88 118 164 209 256 311 372
#     4  10  23  40  62  86 122 166 213 255 304 370
#     4  11  24  42  62  92 124 162 207 260 309 367
#     4  11  21  37  64  91 120 157 206 259 310 355
#     4  12  22  39  65  93 124 159 203 257 316 368
#
# _framework density 19.134620000000002
#
# number of rings (size 3 to 8) (size 9 to 14) (size 15 to 20)
#    0.000    1.429    2.857    3.429    6.000    1.714 
#    0.000    2.143    0.000    3.429    0.000    0.000 
#    0.000    0.000    0.000    0.000    0.000    0.000 
#
# Total GULP energy -156027.701381 kJ/mol
# GULP energy per Si atom -5572.417906 kJ/mol
# Density = 1.909107 g / cm^3
# Si number density = 19.134620 Si / 1000 Ang^3
#
#
#
# Elastic Constant Matrix: (Units=GPa)
#
#
# Indices 1 2 3 4 5 6 
#
# 1 128.2648 48.4924 36.9288 0.0000 -8.3025 0.0000
# 2 48.4924 64.7393 20.6311 0.0001 2.4178 0.0000
# 3 36.9288 20.6311 95.7930 0.0002 19.0233 -0.0001
# 4 0.0000 0.0001 0.0002 8.3008 0.0001 8.7668
# 5 -8.3025 2.4178 19.0233 0.0001 37.2179 0.0000
# 6 0.0000 0.0000 -0.0001 8.7668 0.0000 3.2928
#
#
#
# Elastic Compliance Matrix: (Units=1/GPa)
#
#
# Indices 1 2 3 4 5 6 
#
# 1 0.012427 -0.008205 -0.004096 0.000000 0.005399 0.000000
# 2 -0.008205 0.022025 -0.001038 0.000000 -0.002730 0.000000
# 3 -0.004096 -0.001038 0.013812 0.000000 -0.007906 -0.000001
# 4 0.000000 0.000000 0.000000 -0.066489 0.000000 0.177021
# 5 0.005399 -0.002730 -0.007906 0.000000 0.032291 0.000000
# 6 0.000000 0.000000 -0.000001 0.177021 0.000000 -0.167612
#
#
# Mechanical properties :
#
#
# Convention : Reuss Voigt Hill
#
# Bulk Modulus (GPa) = 46.32595 55.65572 50.99083
# Shear Modulus (GPa) = -41.78067 21.94528 -9.91769
#
# Velocity S-wave (km/s) = -4.67788 3.39025 -2.27912
# Velocity P-wave (km/s) = 2.21666 6.66893 4.44753
#
# Compressibility (1/GPa) = 0.02158617
#
# Stress axis : x y z
#
# Youngs Moduli (GPa) = 80.47058 45.40280 72.40216
#
# Poissons Ratio (x) = 0.37251 0.29654
# Poissons Ratio (y) = 0.66023 0.07518
# Poissons Ratio (z) = 0.32958 0.04715
#
# Static dielectric constant tensor:
#      x y z
#    x 1.738980 0.000000 0.093360 
#    y 0.000000 1.643110 0.000000 
#    z 0.093360 0.000000 1.791350 
# 
# From -- ./inp_files/308660.got.cif
#   From: 2010.05.17/outbox.cif.g08.bks.cpg/sg15_155_cif.got.tgz:308660.got - 2010.06.03 18:47:42.
