data_PCOD9275076
_publ_section_title
;
Structure prediction by ZEFSAII (Michael W. Deem and Ramdas Pophale) SiO2 
 PCOD9275076
Probable space group: C 2/C
;
_chemical_formula_sum "Si O2"
_cell_formula_units_Z 48
_cell_length_a 17.114497
_cell_length_b 25.255424
_cell_length_c 10.407609
_cell_angle_alpha 90.000000
_cell_angle_beta 150.576374
_cell_angle_gamma 90.000000
_cell_volume 2209.956833
_symmetry_space_group_name_H-M "C 2/C"
_symmetry_group_IT_number 15
_symmetry_cell_setting 'monoclinic'
loop_
_space_group_symop_operation_xyz
x,y,z
-x,y,1/2-z
-x,-y,-z
x,-y,1/2+z
1/2+x,1/2+y,z
1/2-x,1/2+y,1/2-z
1/2-x,1/2-y,-z
1/2+x,1/2-y,1/2+z
loop_
_atom_site_type_symbol
_atom_site_label
_atom_site_fract_x
_atom_site_fract_y
_atom_site_fract_z
Si Si1 0.882875 0.946464 0.456840
Si Si2 0.711605 0.318287 0.669881
Si Si3 0.400615 0.565578 0.478608
Si Si4 0.000000 0.206642 0.250000
Si Si5 0.322887 0.857303 0.245553
Si Si6 0.473844 0.757918 0.932136
Si Si7 0.500000 0.156069 0.750000
O O1 0.731501 0.908756 0.256533
O O2 0.000000 0.944323 0.750000
O O3 0.988109 0.927132 0.486933
O O4 0.827628 0.007110 0.355014
O O5 0.698213 0.381238 0.637882
O O6 0.541186 0.292018 0.451853
O O7 0.838284 0.314785 0.969526
O O8 0.798460 0.282869 0.686338
O O9 0.500000 0.559941 0.750000
O O10 0.155508 0.170195 0.473021
O O11 0.009572 0.238532 0.129793
O O12 0.418875 0.809145 0.448455
O O13 0.429625 0.872562 0.274800
#
# Coordination Sequence:
#
# PCOD9275076 Si02
#       7
#     8   8   8   4   8   8   4
#     4  10  20  38  68  93 115 156 214 265 305 354
#     4  11  21  35  54  86 122 160 204 248 305 363
#     4  10  23  42  63  90 124 162 207 259 305 366
#     4  12  17  28  48  86 132 154 188 251 310 360
#     4  11  19  30  53  90 125 153 195 254 313 359
#     4  11  21  29  51  85 128 161 193 246 308 364
#     4  10  21  32  54  92 134 158 194 259 312 360
#
# _framework density 21.719878999999999
#
# number of rings (size 3 to 8) (size 9 to 14) (size 15 to 20)
#    0.000    1.333    4.167    4.500    0.000    0.000 
#    0.000    4.167    0.000    3.000    0.000    0.000 
#    0.000    0.000    0.000    0.000    0.000    0.000 
#
# Total GULP energy -133664.075080 kJ/mol
# GULP energy per Si atom -5569.336462 kJ/mol
# Density = 2.167044 g / cm^3
# Si number density = 21.719879 Si / 1000 Ang^3
#
#
#
# Elastic Constant Matrix: (Units=GPa)
#
#
# Indices 1 2 3 4 5 6 
#
# 1 81.6802 28.0202 15.4286 0.0000 0.4897 0.0000
# 2 28.0202 130.4746 14.1590 0.0000 17.1954 0.0000
# 3 15.4286 14.1590 33.9233 0.0000 6.3853 0.0000
# 4 0.0000 0.0000 0.0000 -94.1360 0.0000 56.1533
# 5 0.4897 17.1954 6.3853 0.0000 26.5784 0.0000
# 6 0.0000 0.0000 0.0000 56.1533 0.0000 27.9140
#
#
#
# Elastic Compliance Matrix: (Units=1/GPa)
#
#
# Indices 1 2 3 4 5 6 
#
# 1 0.014307 -0.002826 -0.005888 0.000000 0.002979 0.000000
# 2 -0.002826 0.009161 -0.001500 0.000000 -0.005514 0.000000
# 3 -0.005888 -0.001500 0.034122 0.000000 -0.007119 0.000000
# 4 0.000000 0.000000 0.000000 -0.004829 0.000000 0.009714
# 5 0.002979 -0.005514 -0.007119 0.000000 0.042847 0.000000
# 6 0.000000 0.000000 0.000000 0.009714 0.000000 0.016284
#
#
# Mechanical properties :
#
#
# Convention : Reuss Voigt Hill
#
# Bulk Modulus (GPa) = 26.91002 40.14376 33.52689
# Shear Modulus (GPa) = 34.55223 4.63595 19.59409
#
# Velocity S-wave (km/s) = 3.99282 1.46255 3.00680
# Velocity P-wave (km/s) = 5.80287 4.62328 5.24633
#
# Compressibility (1/GPa) = 0.03716088
#
# Stress axis : x y z
#
# Youngs Moduli (GPa) = 69.89725 109.16082 29.30634
#
# Poissons Ratio (x) = 0.30850 0.17256
# Poissons Ratio (y) = 0.19754 0.04397
# Poissons Ratio (z) = 0.41156 0.16377
#
# Static dielectric constant tensor:
#      x y z
#    x 1.845570 0.000000 -0.036770 
#    y 0.000000 1.916130 0.000000 
#    z -0.036770 0.000000 1.855990 
# 
# From -- ./inp_files/43866.got.cif
#   From: 2010.05.17/outbox.cif.g08.bks.cpg/sg15_22_cif.got.tgz:43866.got - 2010.06.03 18:47:42.
