data_PCOD9275102
_publ_section_title
;
Structure prediction by ZEFSAII (Michael W. Deem and Ramdas Pophale) SiO2 
 PCOD9275102
Probable space group: C 2/C
;
_chemical_formula_sum "Si O2"
_cell_formula_units_Z 36
_cell_length_a 14.372498
_cell_length_b 22.433264
_cell_length_c 16.584677
_cell_angle_alpha 90.000000
_cell_angle_beta 163.374551
_cell_angle_gamma 90.000000
_cell_volume 1529.927479
_symmetry_space_group_name_H-M "C 2/C"
_symmetry_group_IT_number 15
_symmetry_cell_setting 'monoclinic'
loop_
_space_group_symop_operation_xyz
x,y,z
-x,y,1/2-z
-x,-y,-z
x,-y,1/2+z
1/2+x,1/2+y,z
1/2-x,1/2+y,1/2-z
1/2-x,1/2-y,-z
1/2+x,1/2-y,1/2+z
loop_
_atom_site_type_symbol
_atom_site_label
_atom_site_fract_x
_atom_site_fract_y
_atom_site_fract_z
Si Si1 0.923942 0.908579 0.777565
Si Si2 0.191149 0.284330 0.821879
Si Si3 0.500000 0.706964 0.250000
Si Si4 0.159906 0.472757 0.244781
Si Si5 0.620770 0.903715 0.940637
O O1 0.564412 0.932588 0.499089
O O2 0.000000 0.933086 0.750000
O O3 0.899334 0.838647 0.738104
O O4 0.211190 0.931077 0.074153
O O5 0.000000 0.282661 0.750000
O O6 0.050279 0.233361 0.646562
O O7 0.099839 0.348933 0.710477
O O8 0.750000 0.750000 0.500000
O O9 0.500000 0.500000 0.500000
O O10 0.940051 0.531597 0.074019
O O11 0.500000 0.912051 0.750000
O O12 0.000000 0.886563 0.250000
#
# Coordination Sequence:
#
# PCOD9275102 Si02
#       5
#     8   8   4   8   8
#     4  10  22  38  64  89 123 154 207 261 305 376
#     4   9  16  28  47  73 101 131 176 233 276 313
#     4  10  20  38  68  98 118 152 212 274 326 370
#     4  12  23  38  56  87 126 165 196 247 317 380
#     4  11  21  33  55  80 108 146 199 242 287 352
#
# _framework density 23.530526999999999
#
# number of rings (size 3 to 8) (size 9 to 14) (size 15 to 20)
#    0.667    0.889    0.000    9.333    0.000    0.000 
#    0.000    0.000    0.000    8.000    0.000    3.111 
#    0.000    0.000    0.000    0.000    0.000    0.000 
#
# Total GULP energy -100346.498785 kJ/mol
# GULP energy per Si atom -5574.805488 kJ/mol
# Density = 2.347697 g / cm^3
# Si number density = 23.530527 Si / 1000 Ang^3
#
#
#
# Elastic Constant Matrix: (Units=GPa)
#
#
# Indices 1 2 3 4 5 6 
#
# 1 24.4463 20.7039 21.0378 -0.0005 -18.6339 -0.0006
# 2 20.7039 195.9371 58.5924 0.0045 -12.8451 0.0062
# 3 21.0378 58.5924 122.7707 0.0225 -30.2393 0.0281
# 4 -0.0005 0.0045 0.0225 46.5829 0.0053 -10.0543
# 5 -18.6339 -12.8451 -30.2393 0.0053 34.7930 0.0035
# 6 -0.0006 0.0062 0.0281 -10.0543 0.0035 4.5674
#
#
#
# Elastic Compliance Matrix: (Units=1/GPa)
#
#
# Indices 1 2 3 4 5 6 
#
# 1 0.074386 -0.005071 -0.001241 -0.000006 0.036888 -0.000016
# 2 -0.005071 0.006302 -0.002843 0.000006 -0.002860 0.000024
# 3 -0.001241 -0.002843 0.011824 -0.000043 0.008562 -0.000171
# 4 -0.000006 0.000006 -0.000043 0.040899 -0.000054 0.090032
# 5 0.036888 -0.002860 0.008562 -0.000054 0.054882 -0.000205
# 6 -0.000016 0.000024 -0.000171 0.090032 -0.000205 0.417131
#
#
# Mechanical properties :
#
#
# Convention : Reuss Voigt Hill
#
# Bulk Modulus (GPa) = 13.47678 60.42470 36.95074
# Shear Modulus (GPa) = 7.71047 33.37666 20.54357
#
# Velocity S-wave (km/s) = 1.81216 3.77031 2.95796
# Velocity P-wave (km/s) = 3.18093 6.68496 5.23483
#
# Compressibility (1/GPa) = 0.07420168
#
# Stress axis : x y z
#
# Youngs Moduli (GPa) = 13.44348 158.67389 84.57510
#
# Poissons Ratio (x) = 0.80459 0.10495
# Poissons Ratio (y) = 0.06817 0.24047
# Poissons Ratio (z) = 0.01668 0.45116
#
# Static dielectric constant tensor:
#      x y z
#    x 1.932730 -0.000050 0.087300 
#    y -0.000050 2.013170 0.000080 
#    z 0.087300 0.000080 1.874190 
# 
# From -- ./inp_files/280608.got.cif
#   From: 2010.05.17/outbox.cif.g08.bks.cpg/sg15_141_cif.got.tgz:280608.got - 2010.06.03 18:47:42.
