data_PCOD9275369
_publ_section_title
;
Structure prediction by ZEFSAII (Michael W. Deem and Ramdas Pophale) SiO2 
 PCOD9275369
Probable space group: C 2/C
;
_chemical_formula_sum "Si O2"
_cell_formula_units_Z 64
_cell_length_a 9.181820
_cell_length_b 20.595278
_cell_length_c 22.053896
_cell_angle_alpha 90.000000
_cell_angle_beta 124.872554
_cell_angle_gamma 90.000000
_cell_volume 3421.535833
_symmetry_space_group_name_H-M "C 2/C"
_symmetry_group_IT_number 15
_symmetry_cell_setting 'monoclinic'
loop_
_space_group_symop_operation_xyz
x,y,z
-x,y,1/2-z
-x,-y,-z
x,-y,1/2+z
1/2+x,1/2+y,z
1/2-x,1/2+y,1/2-z
1/2-x,1/2-y,-z
1/2+x,1/2-y,1/2+z
loop_
_atom_site_type_symbol
_atom_site_label
_atom_site_fract_x
_atom_site_fract_y
_atom_site_fract_z
Si Si1 0.602446 0.693507 0.458460
Si Si2 0.388456 0.565401 0.954727
Si Si3 0.019773 0.504105 0.825473
Si Si4 0.964529 0.367992 0.613724
Si Si5 0.310612 0.392650 0.061764
Si Si6 0.742412 0.252299 0.424665
Si Si7 0.134324 0.135934 0.333863
Si Si8 0.672245 0.515135 0.825631
O O1 0.750000 0.750000 0.500000
O O2 0.624225 0.625479 0.500843
O O3 0.425653 0.727954 0.440830
O O4 0.594108 0.671098 0.386949
O O5 0.190924 0.541854 0.891617
O O6 0.501188 0.594643 0.925592
O O7 0.500000 0.500000 0.000000
O O8 0.048790 0.427316 0.843188
O O9 0.000000 0.518513 0.750000
O O10 0.839692 0.516906 0.820290
O O11 0.836177 0.387284 0.526579
O O12 0.898612 0.301549 0.627163
O O13 0.161147 0.355925 0.636080
O O14 0.305182 0.326222 0.098575
O O15 0.274692 0.449235 0.100324
O O16 0.750000 0.250000 0.500000
O O17 0.000000 0.159041 0.250000
O O18 0.117064 0.057730 0.332335
O O19 0.500000 0.543143 0.750000
#
# Coordination Sequence:
#
# PCOD9275369 Si02
#       8
#     8   8   8   8   8   8   8   8
#     4  12  24  40  69  98 131 168 219 270 321 394
#     4  12  23  40  66 101 126 168 223 272 328 386
#     4  11  24  40  64  95 129 168 216 273 329 387
#     4  10  21  39  64  91 124 171 215 264 321 386
#     4  11  21  39  65  91 132 163 216 269 319 393
#     4  10  20  39  60  93 125 165 206 260 325 379
#     4  10  24  42  64  94 131 171 215 272 322 382
#     4  10  23  42  64  92 131 173 213 270 331 384
#
# _framework density 18.705051000000001
#
# number of rings (size 3 to 8) (size 9 to 14) (size 15 to 20)
#    0.000    1.250    3.750    3.000    3.500    6.000 
#    0.000    2.500    0.000    0.000    0.000    0.000 
#    0.000    0.000    0.000    0.000    0.000    0.000 
#
# Total GULP energy -178541.815756 kJ/mol
# GULP energy per Si atom -5579.431742 kJ/mol
# Density = 1.866248 g / cm^3
# Si number density = 18.705051 Si / 1000 Ang^3
#
#
#
# Elastic Constant Matrix: (Units=GPa)
#
#
# Indices 1 2 3 4 5 6 
#
# 1 85.4164 60.2773 50.2881 0.0000 -5.2828 0.0000
# 2 60.2773 110.4284 48.5022 0.0000 -2.9109 0.0000
# 3 50.2881 48.5022 84.8527 0.0000 -7.8297 0.0000
# 4 0.0000 0.0000 0.0000 -6.4107 0.0000 -9.1154
# 5 -5.2828 -2.9109 -7.8297 0.0000 30.5261 0.0000
# 6 0.0000 0.0000 0.0000 -9.1154 0.0000 34.1769
#
#
#
# Elastic Compliance Matrix: (Units=1/GPa)
#
#
# Indices 1 2 3 4 5 6 
#
# 1 0.022968 -0.008775 -0.008508 0.000000 0.000956 0.000000
# 2 -0.008775 0.015456 -0.003726 0.000000 -0.001001 0.000000
# 3 -0.008508 -0.003726 0.019244 0.000000 0.003108 0.000000
# 4 0.000000 0.000000 0.000000 -0.113098 0.000000 -0.030164
# 5 0.000956 -0.001001 0.003108 0.000000 0.033626 0.000000
# 6 0.000000 0.000000 0.000000 -0.030164 0.000000 0.021214
#
#
# Mechanical properties :
#
#
# Convention : Reuss Voigt Hill
#
# Bulk Modulus (GPa) = 63.90096 66.53697 65.21896
# Shear Modulus (GPa) = 107.19159 19.76712 63.47936
#
# Velocity S-wave (km/s) = 7.57830 3.25434 5.83187
# Velocity P-wave (km/s) = 10.52667 7.05478 8.96049
#
# Compressibility (1/GPa) = 0.01564922
#
# Stress axis : x y z
#
# Youngs Moduli (GPa) = 43.53929 64.70073 51.96362
#
# Poissons Ratio (x) = 0.56774 0.44210
# Poissons Ratio (y) = 0.38205 0.19364
# Poissons Ratio (z) = 0.37043 0.24110
#
# Static dielectric constant tensor:
#      x y z
#    x 1.638960 0.000000 0.023070 
#    y 0.000000 1.680280 0.000000 
#    z 0.023070 0.000000 1.655930 
# 
# From -- ./inp_files/233885.got.cif
#   From: 2010.05.17/outbox.cif.g08.bks.cpg/sg15_117_cif.got.tgz:233885.got - 2010.06.03 18:47:42.
