data_PCOD9275332
_publ_section_title
;
Structure prediction by ZEFSAII (Michael W. Deem and Ramdas Pophale) SiO2 
 PCOD9275332
Probable space group: C 2/C
;
_chemical_formula_sum "Si O2"
_cell_formula_units_Z 40
_cell_length_a 14.253360
_cell_length_b 10.580810
_cell_length_c 15.038113
_cell_angle_alpha 90.000000
_cell_angle_beta 111.883097
_cell_angle_gamma 90.000000
_cell_volume 2104.516499
_symmetry_space_group_name_H-M "C 2/C"
_symmetry_group_IT_number 15
_symmetry_cell_setting 'monoclinic'
loop_
_space_group_symop_operation_xyz
x,y,z
-x,y,1/2-z
-x,-y,-z
x,-y,1/2+z
1/2+x,1/2+y,z
1/2-x,1/2+y,1/2-z
1/2-x,1/2-y,-z
1/2+x,1/2-y,1/2+z
loop_
_atom_site_type_symbol
_atom_site_label
_atom_site_fract_x
_atom_site_fract_y
_atom_site_fract_z
Si Si1 0.381887 0.534554 0.366323
Si Si2 0.334567 0.779546 0.459632
Si Si3 0.044886 0.361704 0.539020
Si Si4 0.747654 0.040256 0.147138
Si Si5 0.895641 0.128953 0.044795
O O1 0.343829 0.666832 0.393370
O O2 0.319834 0.513850 0.255249
O O3 0.501526 0.555045 0.392091
O O4 0.366589 0.430941 0.438548
O O5 0.250000 0.750000 0.500000
O O6 0.446256 0.792019 0.542592
O O7 0.299212 0.908679 0.402243
O O8 0.147044 0.377005 0.631332
O O9 0.076990 0.275556 0.465229
O O10 0.000000 0.500000 0.500000
O O11 0.811529 0.104481 0.089631
#
# Coordination Sequence:
#
# PCOD9275332 Si02
#       5
#     8   8   8   8   8
#     4  10  22  36  59  92 116 155 204 255 296 367
#     4  10  20  41  60  81 125 158 196 255 310 356
#     4   9  21  38  60  85 120 158 193 251 308 359
#     4  11  21  37  63  88 115 160 205 245 304 371
#     4  10  20  39  60  86 123 156 199 251 310 352
#
# _framework density 19.006740000000001
#
# number of rings (size 3 to 8) (size 9 to 14) (size 15 to 20)
#    0.000    2.000    2.000    1.200    2.800    0.000 
#    0.000    1.000    0.000    0.000    0.000    0.000 
#    0.000    0.000    0.000    0.000    0.000    0.000 
#
# Total GULP energy -111450.614881 kJ/mol
# GULP energy per Si atom -5572.530744 kJ/mol
# Density = 1.896348 g / cm^3
# Si number density = 19.006740 Si / 1000 Ang^3
#
#
#
# Elastic Constant Matrix: (Units=GPa)
#
#
# Indices 1 2 3 4 5 6 
#
# 1 136.7118 29.7847 57.1790 0.0000 10.5126 0.0000
# 2 29.7847 85.7823 19.6209 0.0000 0.5700 0.0000
# 3 57.1790 19.6209 110.0613 0.0000 27.0670 0.0000
# 4 0.0000 0.0000 0.0000 18.0525 0.0000 5.5916
# 5 10.5126 0.5700 27.0670 0.0000 21.3102 0.0000
# 6 0.0000 0.0000 0.0000 5.5916 0.0000 30.3909
#
#
#
# Elastic Compliance Matrix: (Units=1/GPa)
#
#
# Indices 1 2 3 4 5 6 
#
# 1 0.009814 -0.002247 -0.005122 0.000000 0.001724 0.000000
# 2 -0.002247 0.012853 -0.001908 0.000000 0.003188 0.000000
# 3 -0.005122 -0.001908 0.016656 0.000000 -0.018577 0.000000
# 4 0.000000 0.000000 0.000000 0.058742 0.000000 -0.010808
# 5 0.001724 0.003188 -0.018577 0.000000 0.069586 0.000000
# 6 0.000000 0.000000 0.000000 -0.010808 0.000000 0.034893
#
#
# Mechanical properties :
#
#
# Convention : Reuss Voigt Hill
#
# Bulk Modulus (GPa) = 48.15070 60.63605 54.39338
# Shear Modulus (GPa) = 21.92789 29.01542 25.47166
#
# Velocity S-wave (km/s) = 3.40029 3.91139 3.66476
# Velocity P-wave (km/s) = 6.38783 7.23673 6.82549
#
# Compressibility (1/GPa) = 0.02076813
#
# Stress axis : x y z
#
# Youngs Moduli (GPa) = 101.89612 77.80325 60.04011
#
# Poissons Ratio (x) = 0.17486 0.30752
# Poissons Ratio (y) = 0.22901 0.11454
# Poissons Ratio (z) = 0.52191 0.14843
#
# Static dielectric constant tensor:
#      x y z
#    x 1.534650 0.000000 0.189200 
#    y 0.000000 1.713870 0.000000 
#    z 0.189200 0.000000 1.452550 
# 
# From -- ./inp_files/94684.got.cif
#   From: 2010.05.17/outbox.cif.g08.bks.cpg/sg15_48_cif.got.tgz:94684.got - 2010.06.03 18:47:42.
