data_PCOD9275925
_publ_section_title
;
Structure prediction by ZEFSAII (Michael W. Deem and Ramdas Pophale) SiO2 
 PCOD9275925
Probable space group: C 2/C
;
_chemical_formula_sum "Si O2"
_cell_formula_units_Z 64
_cell_length_a 10.903542
_cell_length_b 11.697791
_cell_length_c 22.396306
_cell_angle_alpha 90.000000
_cell_angle_beta 78.271788
_cell_angle_gamma 90.000000
_cell_volume 2796.952127
_symmetry_space_group_name_H-M "C 2/C"
_symmetry_group_IT_number 15
_symmetry_cell_setting 'monoclinic'
loop_
_space_group_symop_operation_xyz
x,y,z
-x,y,1/2-z
-x,-y,-z
x,-y,1/2+z
1/2+x,1/2+y,z
1/2-x,1/2+y,1/2-z
1/2-x,1/2-y,-z
1/2+x,1/2-y,1/2+z
loop_
_atom_site_type_symbol
_atom_site_label
_atom_site_fract_x
_atom_site_fract_y
_atom_site_fract_z
Si Si1 0.375025 0.812898 0.010109
Si Si2 0.330482 0.189037 0.643830
Si Si3 0.683930 0.650549 0.885271
Si Si4 0.796532 0.578955 0.328377
Si Si5 0.430232 0.386810 0.984114
Si Si6 0.743811 0.465696 0.698742
Si Si7 0.914874 0.814654 0.852819
Si Si8 0.478125 0.137012 0.118048
O O1 0.472898 0.714936 0.016680
O O2 0.442442 0.882128 0.950448
O O3 0.250000 0.750000 0.000000
O O4 0.350479 0.868455 0.076861
O O5 0.249786 0.301633 0.640325
O O6 0.258470 0.101753 0.693756
O O7 0.457080 0.242428 0.659025
O O8 0.705381 0.523722 0.858007
O O9 0.679157 0.637487 0.957683
O O10 0.806607 0.720810 0.855782
O O11 0.562219 0.726590 0.877352
O O12 0.786531 0.580204 0.258406
O O13 0.937360 0.577605 0.339236
O O14 0.500000 0.500000 0.000000
O O15 0.398753 0.380277 0.917819
O O16 0.611610 0.411295 0.693672
O O17 0.843716 0.419865 0.640279
#
# Coordination Sequence:
#
# PCOD9275925 Si02
#       8
#     8   8   8   8   8   8   8   8
#     4  10  20  39  66 100 132 168 222 287 348 409
#     4  11  25  43  69 101 134 176 229 285 348 410
#     4  10  22  41  68  99 135 177 223 283 343 406
#     4  12  25  44  70  98 137 184 234 283 345 408
#     4  10  21  36  65  99 136 171 219 279 348 408
#     4  11  27  44  65  99 136 188 230 280 340 416
#     4  10  23  43  65  98 136 177 226 278 343 414
#     4  10  23  43  69 101 135 174 230 282 345 413
#
# _framework density 22.88205
#
# number of rings (size 3 to 8) (size 9 to 14) (size 15 to 20)
#    0.000    1.500    1.250    3.000    5.250    3.000 
#    0.000    0.000    0.000    0.000    0.000    0.000 
#    0.000    0.000    0.000    0.000    0.000    0.000 
#
# Total GULP energy -178618.281831 kJ/mol
# GULP energy per Si atom -5581.821307 kJ/mol
# Density = 2.282997 g / cm^3
# Si number density = 22.882050 Si / 1000 Ang^3
#
#
#
# Elastic Constant Matrix: (Units=GPa)
#
#
# Indices 1 2 3 4 5 6 
#
# 1 65.2455 -0.8787 25.8643 0.0000 7.6038 0.0000
# 2 -0.8787 82.7206 35.0341 0.0000 6.4262 0.0000
# 3 25.8643 35.0341 99.2466 0.0000 13.5475 0.0000
# 4 0.0000 0.0000 0.0000 23.8787 0.0000 -0.7710
# 5 7.6038 6.4262 13.5475 0.0000 37.5027 0.0000
# 6 0.0000 0.0000 0.0000 -0.7710 0.0000 13.8385
#
#
#
# Elastic Compliance Matrix: (Units=1/GPa)
#
#
# Indices 1 2 3 4 5 6 
#
# 1 0.017680 0.002565 -0.005221 0.000000 -0.002138 0.000000
# 2 0.002565 0.014601 -0.005691 0.000000 -0.000966 0.000000
# 3 -0.005221 -0.005691 0.013851 0.000000 -0.002970 0.000000
# 4 0.000000 0.000000 0.000000 0.041954 0.000000 0.002337
# 5 -0.002138 -0.000966 -0.002970 0.000000 0.028337 0.000000
# 6 0.000000 0.000000 0.000000 0.002337 0.000000 0.072392
#
#
# Mechanical properties :
#
#
# Convention : Reuss Voigt Hill
#
# Bulk Modulus (GPa) = 33.96887 40.80578 37.38732
# Shear Modulus (GPa) = 23.22103 27.52352 25.37227
#
# Velocity S-wave (km/s) = 3.18907 3.47197 3.33352
# Velocity P-wave (km/s) = 5.33270 5.82619 5.58490
#
# Compressibility (1/GPa) = 0.02943872
#
# Stress axis : x y z
#
# Youngs Moduli (GPa) = 56.56028 68.48629 72.19756
#
# Poissons Ratio (x) = -0.17568 0.37696
# Poissons Ratio (y) = -0.14509 0.41087
# Poissons Ratio (z) = 0.29532 0.38975
#
# Static dielectric constant tensor:
#      x y z
#    x 1.940440 0.000000 -0.025770 
#    y 0.000000 1.868790 0.000000 
#    z -0.025770 0.000000 1.915110 
# 
# From -- ./inp_files/268836.got.cif
#   From: 2010.05.17/outbox.cif.g08.bks.cpg/sg15_135_cif.got.tgz:268836.got - 2010.06.03 18:47:42.
