data_PCOD9275929
_publ_section_title
;
Structure prediction by ZEFSAII (Michael W. Deem and Ramdas Pophale) SiO2 
 PCOD9275929
Probable space group: C 2/C
;
_chemical_formula_sum "Si O2"
_cell_formula_units_Z 52
_cell_length_a 21.068588
_cell_length_b 8.069372
_cell_length_c 20.066148
_cell_angle_alpha 90.000000
_cell_angle_beta 39.623919
_cell_angle_gamma 90.000000
_cell_volume 2175.638059
_symmetry_space_group_name_H-M "C 2/C"
_symmetry_group_IT_number 15
_symmetry_cell_setting 'monoclinic'
loop_
_space_group_symop_operation_xyz
x,y,z
-x,y,1/2-z
-x,-y,-z
x,-y,1/2+z
1/2+x,1/2+y,z
1/2-x,1/2+y,1/2-z
1/2-x,1/2-y,-z
1/2+x,1/2-y,1/2+z
loop_
_atom_site_type_symbol
_atom_site_label
_atom_site_fract_x
_atom_site_fract_y
_atom_site_fract_z
Si Si1 0.500000 0.573149 0.750000
Si Si2 0.116744 0.685432 0.858115
Si Si3 0.197186 0.012272 0.354010
Si Si4 0.628523 0.605954 0.047171
Si Si5 0.626922 0.177373 0.224980
Si Si6 0.841349 0.529753 0.917978
Si Si7 0.962776 0.441005 0.938709
O O1 0.466492 0.467763 0.840268
O O2 0.408632 0.681975 0.796053
O O3 0.130943 0.882106 0.856232
O O4 0.218099 0.606938 0.745704
O O5 0.019925 0.618675 0.896333
O O6 0.092777 0.601943 0.948957
O O7 0.262587 0.157868 0.337137
O O8 0.137863 0.917493 0.460138
O O9 0.643091 0.788900 0.064616
O O10 0.725224 0.508783 0.997939
O O11 0.610068 0.011906 0.192842
O O12 0.554929 0.179162 0.347049
O O13 0.889153 0.419070 0.936533
#
# Coordination Sequence:
#
# PCOD9275929 Si02
#       7
#     4   8   8   8   8   8   8
#     4  12  22  36  60 104 118 156 196 274 318 364
#     4  10  23  40  63  87 123 166 215 247 301 361
#     4  10  23  43  59  92 124 169 208 256 299 372
#     4  10  25  39  62  93 129 151 212 254 317 368
#     4  10  21  38  66  91 127 156 208 249 321 369
#     4  10  21  42  63  88 123 169 194 254 317 381
#     4  10  20  39  66  86 118 168 207 245 300 375
#
# _framework density 23.901035
#
# number of rings (size 3 to 8) (size 9 to 14) (size 15 to 20)
#    0.000    1.846    1.538    0.923    6.462    1.231 
#    2.769    0.769    0.000    0.000    0.000    0.000 
#    0.000    0.000    0.000    0.000    0.000    0.000 
#
# Total GULP energy -145125.173184 kJ/mol
# GULP energy per Si atom -5581.737430 kJ/mol
# Density = 2.384663 g / cm^3
# Si number density = 23.901035 Si / 1000 Ang^3
#
#
#
# Elastic Constant Matrix: (Units=GPa)
#
#
# Indices 1 2 3 4 5 6 
#
# 1 58.9528 -3.5092 9.3060 -0.0012 11.7962 0.0020
# 2 -3.5092 54.1029 51.3004 -0.0023 1.9802 0.0044
# 3 9.3060 51.3004 169.4908 -0.0003 31.2965 0.0006
# 4 -0.0012 -0.0023 -0.0003 24.3281 0.0004 -1.6120
# 5 11.7962 1.9802 31.2965 0.0004 27.2656 -0.0009
# 6 0.0020 0.0044 0.0006 -1.6120 -0.0009 22.9377
#
#
#
# Elastic Compliance Matrix: (Units=1/GPa)
#
#
# Indices 1 2 3 4 5 6 
#
# 1 0.018693 0.001462 0.000056 0.000001 -0.008258 -0.000002
# 2 0.001462 0.027921 -0.010202 0.000002 0.009050 -0.000005
# 3 0.000056 -0.010202 0.011233 -0.000001 -0.012178 0.000001
# 4 0.000001 0.000002 -0.000001 0.041297 -0.000001 0.002902
# 5 -0.008258 0.009050 -0.012178 -0.000001 0.053570 0.000001
# 6 -0.000002 -0.000005 0.000001 0.002902 0.000001 0.043800
#
#
# Mechanical properties :
#
#
# Convention : Reuss Voigt Hill
#
# Bulk Modulus (GPa) = 24.70471 44.08232 34.39352
# Shear Modulus (GPa) = 21.98998 29.93623 25.96311
#
# Velocity S-wave (km/s) = 3.03651 3.54292 3.29944
# Velocity P-wave (km/s) = 4.75947 5.93465 5.37925
#
# Compressibility (1/GPa) = 0.04047812
#
# Stress axis : x y z
#
# Youngs Moduli (GPa) = 53.49522 35.81585 89.01960
#
# Poissons Ratio (x) = -0.05235 -0.00499
# Poissons Ratio (y) = -0.07818 0.90820
# Poissons Ratio (z) = -0.00300 0.36540
#
# Static dielectric constant tensor:
#      x y z
#    x 1.919780 0.000000 -0.010930 
#    y 0.000000 1.955950 0.000000 
#    z -0.010930 0.000000 1.890200 
# 
# From -- ./inp_files/171749.got.cif
#   From: 2010.05.17/outbox.cif.g08.bks.cpg/sg15_86_cif.got.tgz:171749.got - 2010.06.03 18:47:42.
