data_PCOD9275008
_publ_section_title
;
Structure prediction by ZEFSAII (Michael W. Deem and Ramdas Pophale) SiO2 
 PCOD9275008
Probable space group: C 2/C
;
_chemical_formula_sum "Si O2"
_cell_formula_units_Z 48
_cell_length_a 10.558048
_cell_length_b 20.899580
_cell_length_c 14.629331
_cell_angle_alpha 90.000000
_cell_angle_beta 45.079584
_cell_angle_gamma 90.000000
_cell_volume 2285.772789
_symmetry_space_group_name_H-M "C 2/C"
_symmetry_group_IT_number 15
_symmetry_cell_setting 'monoclinic'
loop_
_space_group_symop_operation_xyz
x,y,z
-x,y,1/2-z
-x,-y,-z
x,-y,1/2+z
1/2+x,1/2+y,z
1/2-x,1/2+y,1/2-z
1/2-x,1/2-y,-z
1/2+x,1/2-y,1/2+z
loop_
_atom_site_type_symbol
_atom_site_label
_atom_site_fract_x
_atom_site_fract_y
_atom_site_fract_z
Si Si1 0.487896 0.406425 0.543527
Si Si2 0.194004 0.494287 0.199031
Si Si3 0.229724 0.256153 0.784088
Si Si4 0.297942 0.682250 0.427629
Si Si5 0.351061 0.710942 0.027102
Si Si6 0.445344 0.125887 0.670096
O O1 0.655781 0.453594 0.435837
O O2 0.313901 0.445335 0.666015
O O3 0.569332 0.356594 0.574182
O O4 0.414509 0.363705 0.495015
O O5 0.142054 0.442775 0.303031
O O6 0.000000 0.510397 0.250000
O O7 0.333512 0.298299 0.805291
O O8 0.238545 0.283671 0.677927
O O9 0.315280 0.186030 0.729881
O O10 0.038873 0.247739 0.928047
O O11 0.250000 0.750000 0.500000
O O12 0.118595 0.639490 0.522681
O O13 0.250000 0.750000 0.000000
O O14 0.500000 0.124489 0.750000
#
# Coordination Sequence:
#
# PCOD9275008 Si02
#       6
#     8   8   8   8   8   8
#     4  11  22  38  66 104 134 188 238 284 353 422
#     4  10  20  38  67  95 140 192 241 279 341 422
#     4  12  23  39  68 102 138 179 225 297 360 419
#     4  12  19  35  68 107 136 164 232 299 348 411
#     4  12  26  43  63  98 144 179 226 288 367 429
#     4  11  17  34  63 101 133 174 224 288 348 402
#
# _framework density 20.999462999999999
#
# number of rings (size 3 to 8) (size 9 to 14) (size 15 to 20)
#    0.000    0.667   10.000    0.500    0.000    1.333 
#    0.000    0.000    0.000    9.000    0.000    0.000 
#    0.000    0.000    0.000    0.000    0.000    0.000 
#
# Total GULP energy -133653.409517 kJ/mol
# GULP energy per Si atom -5568.892063 kJ/mol
# Density = 2.095167 g / cm^3
# Si number density = 20.999463 Si / 1000 Ang^3
#
#
#
# Elastic Constant Matrix: (Units=GPa)
#
#
# Indices 1 2 3 4 5 6 
#
# 1 94.7539 55.8993 32.4823 0.0000 -13.4295 0.0000
# 2 55.8993 112.0205 37.0494 0.0000 -18.2106 0.0000
# 3 32.4823 37.0494 75.9670 0.0000 -6.9038 0.0000
# 4 0.0000 0.0000 0.0000 29.4445 0.0000 -21.5852
# 5 -13.4295 -18.2106 -6.9038 0.0000 44.4649 0.0000
# 6 0.0000 0.0000 0.0000 -21.5852 0.0000 34.3442
#
#
#
# Elastic Compliance Matrix: (Units=1/GPa)
#
#
# Indices 1 2 3 4 5 6 
#
# 1 0.015780 -0.006479 -0.003444 0.000000 0.001578 0.000000
# 2 -0.006479 0.013905 -0.003724 0.000000 0.003160 0.000000
# 3 -0.003444 -0.003724 0.016452 0.000000 -0.000011 0.000000
# 4 0.000000 0.000000 0.000000 0.062979 0.000000 0.039582
# 5 0.001578 0.003160 -0.000011 0.000000 0.024259 0.000000
# 6 0.000000 0.000000 0.000000 0.039582 0.000000 0.053994
#
#
# Mechanical properties :
#
#
# Convention : Reuss Voigt Hill
#
# Bulk Modulus (GPa) = 53.07145 59.28927 56.18036
# Shear Modulus (GPa) = 22.63006 32.13807 27.38406
#
# Velocity S-wave (km/s) = 3.28632 3.91631 3.61506
# Velocity P-wave (km/s) = 6.30297 6.98176 6.65103
#
# Compressibility (1/GPa) = 0.01884252
#
# Stress axis : x y z
#
# Youngs Moduli (GPa) = 63.37096 71.91460 60.78423
#
# Poissons Ratio (x) = 0.46592 0.20935
# Poissons Ratio (y) = 0.41057 0.22638
# Poissons Ratio (z) = 0.21826 0.26783
#
# Static dielectric constant tensor:
#      x y z
#    x 1.801540 0.000000 -0.071900 
#    y 0.000000 1.832750 0.000000 
#    z -0.071900 0.000000 1.836640 
# 
# From -- ./inp_files/200630.got.cif
#   From: 2010.05.17/outbox.cif.g08.bks.cpg/sg15_101_cif.got.tgz:200630.got - 2010.06.03 18:47:42.
