data_PCOD9275440
_publ_section_title
;
Structure prediction by ZEFSAII (Michael W. Deem and Ramdas Pophale) SiO2 
 PCOD9275440
Probable space group: C 2/C
;
_chemical_formula_sum "Si O2"
_cell_formula_units_Z 52
_cell_length_a 14.063866
_cell_length_b 12.065255
_cell_length_c 14.603594
_cell_angle_alpha 90.000000
_cell_angle_beta 108.625336
_cell_angle_gamma 90.000000
_cell_volume 2348.218621
_symmetry_space_group_name_H-M "C 2/C"
_symmetry_group_IT_number 15
_symmetry_cell_setting 'monoclinic'
loop_
_space_group_symop_operation_xyz
x,y,z
-x,y,1/2-z
-x,-y,-z
x,-y,1/2+z
1/2+x,1/2+y,z
1/2-x,1/2+y,1/2-z
1/2-x,1/2-y,-z
1/2+x,1/2-y,1/2+z
loop_
_atom_site_type_symbol
_atom_site_label
_atom_site_fract_x
_atom_site_fract_y
_atom_site_fract_z
Si Si1 0.018192 0.698508 0.567878
Si Si2 0.173834 0.806544 0.047283
Si Si3 0.101552 0.016374 0.385847
Si Si4 0.101191 0.915424 0.690706
Si Si5 0.000000 0.424178 0.250000
Si Si6 0.784402 0.628516 0.976362
Si Si7 0.291286 0.012990 0.662117
O O1 0.063717 0.813210 0.619947
O O2 0.979143 0.641486 0.649263
O O3 0.112203 0.637999 0.548718
O O4 0.922702 0.726330 0.473140
O O5 0.128737 0.916647 0.984856
O O6 0.250000 0.750000 0.000000
O O7 0.245043 0.861801 0.145519
O O8 0.185477 0.923386 0.396867
O O9 0.106104 0.100130 0.301139
O O10 0.983176 0.988215 0.351993
O O11 0.210245 0.944738 0.691963
O O12 0.899455 0.489544 0.239996
O O13 0.750000 0.750000 0.000000
O O14 0.802985 0.545366 0.066875
#
# Coordination Sequence:
#
# PCOD9275440 Si02
#       7
#     8   8   8   8   4   8   8
#     4  11  22  39  69  87 124 159 207 249 304 357
#     4  10  20  39  61  93 113 159 203 249 287 366
#     4   9  21  37  63  87 123 153 211 246 302 351
#     4  10  20  40  63  91 113 164 202 261 293 358
#     4  12  24  42  60  94 122 160 198 258 308 362
#     4  11  23  41  60  92 126 166 196 252 306 369
#     4  11  24  40  63  87 129 157 204 248 315 358
#
# _framework density 22.144445000000001
#
# number of rings (size 3 to 8) (size 9 to 14) (size 15 to 20)
#    0.000    1.538    3.077    2.769    2.154    2.462 
#    2.769    1.538    0.000    0.000    0.000    0.000 
#    0.000    0.000    0.000    0.000    0.000    0.000 
#
# Total GULP energy -144979.058242 kJ/mol
# GULP energy per Si atom -5576.117625 kJ/mol
# Density = 2.209404 g / cm^3
# Si number density = 22.144445 Si / 1000 Ang^3
#
#
#
# Elastic Constant Matrix: (Units=GPa)
#
#
# Indices 1 2 3 4 5 6 
#
# 1 180.8833 25.5453 21.4258 0.0000 14.0863 0.0000
# 2 25.5453 37.0938 -1.6865 0.0000 7.3194 0.0000
# 3 21.4258 -1.6865 36.8852 0.0000 5.3242 0.0000
# 4 0.0000 0.0000 0.0000 9.7371 0.0000 0.0201
# 5 14.0863 7.3194 5.3242 0.0000 41.2204 0.0000
# 6 0.0000 0.0000 0.0000 0.0201 0.0000 37.4788
#
#
#
# Elastic Compliance Matrix: (Units=1/GPa)
#
#
# Indices 1 2 3 4 5 6 
#
# 1 0.006728 -0.004624 -0.003980 0.000000 -0.000964 0.000000
# 2 -0.004624 0.031266 0.004778 0.000000 -0.004589 0.000000
# 3 -0.003980 0.004778 0.030130 0.000000 -0.003380 0.000000
# 4 0.000000 0.000000 0.000000 0.102700 0.000000 -0.000055
# 5 -0.000964 -0.004589 -0.003380 0.000000 0.025841 0.000000
# 6 0.000000 0.000000 0.000000 -0.000055 0.000000 0.026682
#
#
# Mechanical properties :
#
#
# Convention : Reuss Voigt Hill
#
# Bulk Modulus (GPa) = 16.53703 38.38126 27.45914
# Shear Modulus (GPa) = 19.90797 31.65911 25.78354
#
# Velocity S-wave (km/s) = 3.00159 3.78519 3.41594
# Velocity P-wave (km/s) = 4.41551 6.03932 5.29009
#
# Compressibility (1/GPa) = 0.06047036
#
# Stress axis : x y z
#
# Youngs Moduli (GPa) = 148.63209 31.98375 33.18995
#
# Poissons Ratio (x) = 0.14790 0.13211
# Poissons Ratio (y) = 0.68730 -0.15858
# Poissons Ratio (z) = 0.59162 -0.15282
#
# Static dielectric constant tensor:
#      x y z
#    x 1.864110 0.000000 0.030860 
#    y 0.000000 1.852050 0.000000 
#    z 0.030860 0.000000 1.891810 
# 
# From -- ./inp_files/152712.got.cif
#   From: 2010.05.17/outbox.cif.g08.bks.cpg/sg15_77_cif.got.tgz:152712.got - 2010.06.03 18:47:42.
