data_PCOD9275748
_publ_section_title
;
Structure prediction by ZEFSAII (Michael W. Deem and Ramdas Pophale) SiO2 
 PCOD9275748
Probable space group: C 2/C
;
_chemical_formula_sum "Si O2"
_cell_formula_units_Z 52
_cell_length_a 34.588138
_cell_length_b 16.071565
_cell_length_c 12.228079
_cell_angle_alpha 90.000000
_cell_angle_beta 24.224551
_cell_angle_gamma 90.000000
_cell_volume 2789.072154
_symmetry_space_group_name_H-M "C 2/C"
_symmetry_group_IT_number 15
_symmetry_cell_setting 'monoclinic'
loop_
_space_group_symop_operation_xyz
x,y,z
-x,y,1/2-z
-x,-y,-z
x,-y,1/2+z
1/2+x,1/2+y,z
1/2-x,1/2+y,1/2-z
1/2-x,1/2-y,-z
1/2+x,1/2-y,1/2+z
loop_
_atom_site_type_symbol
_atom_site_label
_atom_site_fract_x
_atom_site_fract_y
_atom_site_fract_z
Si Si1 0.702633 0.636092 0.681951
Si Si2 0.519271 0.949516 0.823926
Si Si3 0.210726 0.702462 0.496574
Si Si4 0.000000 0.781549 0.750000
Si Si5 0.834297 0.489764 0.405025
Si Si6 0.812817 0.209636 0.002367
Si Si7 0.496270 0.780843 0.020917
O O1 0.747529 0.550967 0.609516
O O2 0.771653 0.706906 0.552350
O O3 0.708892 0.640262 0.533377
O O4 0.596019 0.662778 0.992510
O O5 0.500000 0.923752 0.750000
O O6 0.616681 0.996992 0.601863
O O7 0.427902 0.005018 0.089970
O O8 0.517341 0.867459 0.905364
O O9 0.250000 0.750000 0.500000
O O10 0.194863 0.603608 0.550052
O O11 0.109127 0.742463 0.737096
O O12 0.270062 0.706909 0.232334
O O13 0.999934 0.723333 0.642977
O O14 0.924661 0.217404 0.722386
#
# Coordination Sequence:
#
# PCOD9275748 Si02
#       7
#     8   8   8   4   8   8   8
#     4  10  20  39  64  91 121 163 212 263 303 369
#     4  10  22  38  60  96 129 159 196 267 322 378
#     4  11  25  41  60  92 129 169 206 256 322 382
#     4  10  20  40  66  92 128 160 222 264 296 378
#     4  10  23  40  59  96 124 167 207 250 325 366
#     4  10  21  38  63  91 120 164 209 260 315 370
#     4  10  21  38  65  93 123 167 209 261 322 366
#
# _framework density 18.644193999999999
#
# number of rings (size 3 to 8) (size 9 to 14) (size 15 to 20)
#    0.000    1.846    3.077    0.000    6.462    0.000 
#    9.692    1.538    0.000    3.692    0.000    0.000 
#    0.000    0.000    0.000    0.000    0.000    0.000 
#
# Total GULP energy -144790.960682 kJ/mol
# GULP energy per Si atom -5568.883103 kJ/mol
# Density = 1.860176 g / cm^3
# Si number density = 18.644194 Si / 1000 Ang^3
#
#
#
# Elastic Constant Matrix: (Units=GPa)
#
#
# Indices 1 2 3 4 5 6 
#
# 1 146.3771 66.8455 69.3641 0.0000 -0.2282 0.0000
# 2 66.8455 67.0438 24.7504 0.0000 -6.7311 0.0000
# 3 69.3641 24.7504 100.5128 0.0000 -7.1090 0.0000
# 4 0.0000 0.0000 0.0000 21.6796 0.0000 -3.4656
# 5 -0.2282 -6.7311 -7.1090 0.0000 27.0352 0.0000
# 6 0.0000 0.0000 0.0000 -3.4656 0.0000 11.5524
#
#
#
# Elastic Compliance Matrix: (Units=1/GPa)
#
#
# Indices 1 2 3 4 5 6 
#
# 1 0.018199 -0.015357 -0.009208 0.000000 -0.006091 0.000000
# 2 -0.015357 0.029622 0.003889 0.000000 0.008268 0.000000
# 3 -0.009208 0.003889 0.015701 0.000000 0.005019 0.000000
# 4 0.000000 0.000000 0.000000 0.048450 0.000000 0.014535
# 5 -0.006091 0.008268 0.005019 0.000000 0.040316 0.000000
# 6 0.000000 0.000000 0.000000 0.014535 0.000000 0.090922
#
#
# Mechanical properties :
#
#
# Convention : Reuss Voigt Hill
#
# Bulk Modulus (GPa) = 45.10972 70.65040 57.88006
# Shear Modulus (GPa) = 17.12609 22.25169 19.68889
#
# Velocity S-wave (km/s) = 3.03409 3.45844 3.25319
# Velocity P-wave (km/s) = 6.04333 7.34330 6.72480
#
# Compressibility (1/GPa) = 0.02216817
#
# Stress axis : x y z
#
# Youngs Moduli (GPa) = 54.94874 33.75887 63.68991
#
# Poissons Ratio (x) = 0.51844 0.58647
# Poissons Ratio (y) = 0.84385 -0.24767
# Poissons Ratio (z) = 0.50598 -0.13127
#
# Static dielectric constant tensor:
#      x y z
#    x 2.195150 0.000000 0.099130 
#    y 0.000000 1.660060 0.000000 
#    z 0.099130 0.000000 1.704000 
# 
# From -- ./inp_files/127163.got.cif
#   From: 2010.05.17/outbox.cif.g08.bks.cpg/sg15_64_cif.got.tgz:127163.got - 2010.06.03 18:47:42.
