data_PCOD9275378
_publ_section_title
;
Structure prediction by ZEFSAII (Michael W. Deem and Ramdas Pophale) SiO2 
 PCOD9275378
Probable space group: C 2/C
;
_chemical_formula_sum "Si O2"
_cell_formula_units_Z 36
_cell_length_a 12.658211
_cell_length_b 24.543901
_cell_length_c 9.375449
_cell_angle_alpha 90.000000
_cell_angle_beta 40.320270
_cell_angle_gamma 90.000000
_cell_volume 1884.743487
_symmetry_space_group_name_H-M "C 2/C"
_symmetry_group_IT_number 15
_symmetry_cell_setting 'monoclinic'
loop_
_space_group_symop_operation_xyz
x,y,z
-x,y,1/2-z
-x,-y,-z
x,-y,1/2+z
1/2+x,1/2+y,z
1/2-x,1/2+y,1/2-z
1/2-x,1/2-y,-z
1/2+x,1/2-y,1/2+z
loop_
_atom_site_type_symbol
_atom_site_label
_atom_site_fract_x
_atom_site_fract_y
_atom_site_fract_z
Si Si1 0.000000 0.227840 0.250000
Si Si2 0.213353 0.676269 0.408410
Si Si3 0.425285 0.097350 0.169885
Si Si4 0.351729 0.926152 0.320559
Si Si5 0.884816 0.982341 0.488511
O O1 0.882642 0.268560 0.456922
O O2 0.901114 0.191202 0.239949
O O3 0.153279 0.651136 0.321944
O O4 0.174414 0.630339 0.568611
O O5 0.500000 0.102960 0.250000
O O6 0.275054 0.054238 0.314443
O O7 0.576770 0.081724 0.910667
O O8 0.500000 0.955985 0.250000
O O9 0.191877 0.961877 0.492237
O O10 0.000000 0.955830 0.250000
O O11 0.000000 0.000000 0.500000
#
# Coordination Sequence:
#
# PCOD9275378 Si02
#       5
#     4   8   8   8   8
#     4  10  20  40  68  92 108 146 220 260 286 340
#     4  10  21  39  67  89 114 152 206 255 296 346
#     4  11  22  40  57  87 128 165 190 241 315 374
#     4  10  20  39  61  83 116 168 202 237 290 362
#     4  12  24  36  57  90 123 161 207 244 291 347
#
# _framework density 19.100742
#
# number of rings (size 3 to 8) (size 9 to 14) (size 15 to 20)
#    0.000    1.333    3.333    5.333    4.667    0.000 
#    0.000    1.111    0.000    0.000    0.000    0.000 
#    0.000    0.000    0.000    0.000    0.000    0.000 
#
# Total GULP energy -100392.050966 kJ/mol
# GULP energy per Si atom -5577.336165 kJ/mol
# Density = 1.905727 g / cm^3
# Si number density = 19.100742 Si / 1000 Ang^3
#
#
#
# Elastic Constant Matrix: (Units=GPa)
#
#
# Indices 1 2 3 4 5 6 
#
# 1 154.2069 42.2470 37.7403 0.0000 7.7102 0.0000
# 2 42.2470 61.9895 18.2676 0.0000 -6.9077 0.0000
# 3 37.7403 18.2676 63.5516 0.0000 7.5795 0.0000
# 4 0.0000 0.0000 0.0000 13.2670 0.0000 -8.2076
# 5 7.7102 -6.9077 7.5795 0.0000 39.4391 0.0000
# 6 0.0000 0.0000 0.0000 -8.2076 0.0000 37.3992
#
#
#
# Elastic Compliance Matrix: (Units=1/GPa)
#
#
# Indices 1 2 3 4 5 6 
#
# 1 0.008882 -0.005231 -0.003536 0.000000 -0.001973 0.000000
# 2 -0.005231 0.021397 -0.003698 0.000000 0.005481 0.000000
# 3 -0.003536 -0.003698 0.019336 0.000000 -0.003672 0.000000
# 4 0.000000 0.000000 0.000000 0.087216 0.000000 0.019140
# 5 -0.001973 0.005481 -0.003672 0.000000 0.027407 0.000000
# 6 0.000000 0.000000 0.000000 0.019140 0.000000 0.030939
#
#
# Mechanical properties :
#
#
# Convention : Reuss Voigt Hill
#
# Bulk Modulus (GPa) = 40.50859 52.91752 46.71305
# Shear Modulus (GPa) = 21.89768 30.12060 26.00914
#
# Velocity S-wave (km/s) = 3.38957 3.97537 3.69410
# Velocity P-wave (km/s) = 6.04755 6.98828 6.53486
#
# Compressibility (1/GPa) = 0.02468612
#
# Stress axis : x y z
#
# Youngs Moduli (GPa) = 112.58892 46.73477 51.71775
#
# Poissons Ratio (x) = 0.24448 0.18285
# Poissons Ratio (y) = 0.58897 0.19124
# Poissons Ratio (z) = 0.39806 0.17281
#
# Static dielectric constant tensor:
#      x y z
#    x 1.717600 0.000000 0.000920 
#    y 0.000000 1.672890 0.000000 
#    z 0.000920 0.000000 1.705800 
# 
# From -- ./inp_files/31662.got.cif
#   From: 2010.05.17/outbox.cif.g08.bks.cpg/sg15_16_cif.got.tgz:31662.got - 2010.06.03 18:47:42.
