data_PCOD9275816
_publ_section_title
;
Structure prediction by ZEFSAII (Michael W. Deem and Ramdas Pophale) SiO2 
 PCOD9275816
Probable space group: C 2/C
;
_chemical_formula_sum "Si O2"
_cell_formula_units_Z 44
_cell_length_a 13.143213
_cell_length_b 15.863696
_cell_length_c 8.350388
_cell_angle_alpha 90.000000
_cell_angle_beta 73.952674
_cell_angle_gamma 90.000000
_cell_volume 1673.212862
_symmetry_space_group_name_H-M "C 2/C"
_symmetry_group_IT_number 15
_symmetry_cell_setting 'monoclinic'
loop_
_space_group_symop_operation_xyz
x,y,z
-x,y,1/2-z
-x,-y,-z
x,-y,1/2+z
1/2+x,1/2+y,z
1/2-x,1/2+y,1/2-z
1/2-x,1/2-y,-z
1/2+x,1/2-y,1/2+z
loop_
_atom_site_type_symbol
_atom_site_label
_atom_site_fract_x
_atom_site_fract_y
_atom_site_fract_z
Si Si1 0.803928 0.555818 0.748618
Si Si2 0.858792 0.712119 0.891800
Si Si3 0.500000 0.442956 0.750000
Si Si4 0.577277 0.401648 0.400911
Si Si5 0.563094 0.257083 0.993261
Si Si6 0.384397 0.095227 0.371419
O O1 0.861112 0.611997 0.857745
O O2 0.694808 0.609795 0.782321
O O3 0.867435 0.561946 0.557923
O O4 0.800311 0.458677 0.805385
O O5 0.882250 0.752965 0.705014
O O6 0.946348 0.724707 0.991741
O O7 0.750000 0.750000 0.000000
O O8 0.579633 0.397382 0.594683
O O9 0.439362 0.504520 0.657646
O O10 0.469764 0.347556 0.420744
O O11 0.619314 0.196297 0.096330
O O12 0.500000 0.077125 0.250000
#
# Coordination Sequence:
#
# PCOD9275816 Si02
#       6
#     8   8   4   8   8   8
#     4  11  24  41  69  95 138 180 243 281 352 426
#     4  10  20  39  65 100 134 192 233 282 347 434
#     4  10  24  40  70  94 134 178 226 282 350 418
#     4  11  22  45  67 100 133 182 230 286 349 422
#     4  10  23  40  67  98 142 180 234 291 353 408
#     4  11  26  44  66 101 138 189 229 299 356 419
#
# _framework density 26.296716
#
# number of rings (size 3 to 8) (size 9 to 14) (size 15 to 20)
#    0.000    1.455    1.818    2.727    8.909    0.000 
#    0.000    2.727    0.000    0.000    0.000    0.000 
#    0.000    0.000    0.000    0.000    0.000    0.000 
#
# Total GULP energy -122781.186940 kJ/mol
# GULP energy per Si atom -5580.963043 kJ/mol
# Density = 2.623686 g / cm^3
# Si number density = 26.296716 Si / 1000 Ang^3
#
#
#
# Elastic Constant Matrix: (Units=GPa)
#
#
# Indices 1 2 3 4 5 6 
#
# 1 58.7395 24.2555 31.3545 0.0000 -19.8327 0.0000
# 2 24.2555 124.6157 41.2274 0.0000 -1.7988 0.0000
# 3 31.3545 41.2274 165.6748 0.0000 -25.4392 0.0000
# 4 0.0000 0.0000 0.0000 17.4203 0.0000 8.9306
# 5 -19.8327 -1.7988 -25.4392 0.0000 31.6727 0.0000
# 6 0.0000 0.0000 0.0000 8.9306 0.0000 41.5416
#
#
#
# Elastic Compliance Matrix: (Units=1/GPa)
#
#
# Indices 1 2 3 4 5 6 
#
# 1 0.024075 -0.004006 -0.001460 0.000000 0.013675 0.000000
# 2 -0.004006 0.009468 -0.002168 0.000000 -0.003712 0.000000
# 3 -0.001460 -0.002168 0.007634 0.000000 0.005094 0.000000
# 4 0.000000 0.000000 0.000000 0.064515 0.000000 -0.013869
# 5 0.013675 -0.003712 0.005094 0.000000 0.044017 0.000000
# 6 0.000000 0.000000 0.000000 -0.013869 0.000000 0.027054
#
#
# Mechanical properties :
#
#
# Convention : Reuss Voigt Hill
#
# Bulk Modulus (GPa) = 38.59479 60.30055 49.44767
# Shear Modulus (GPa) = 24.91709 34.93973 29.92841
#
# Velocity S-wave (km/s) = 3.08155 3.64905 3.37724
# Velocity P-wave (km/s) = 5.23161 6.38237 5.83543
#
# Compressibility (1/GPa) = 0.02591023
#
# Stress axis : x y z
#
# Youngs Moduli (GPa) = 41.53715 105.61898 130.99526
#
# Poissons Ratio (x) = 0.42308 0.19120
# Poissons Ratio (y) = 0.16638 0.28399
# Poissons Ratio (z) = 0.06063 0.22897
#
# Static dielectric constant tensor:
#      x y z
#    x 2.226360 0.000000 -0.011600 
#    y 0.000000 2.244260 0.000000 
#    z -0.011600 0.000000 2.054110 
# 
# From -- ./inp_files/39528.got.cif
#   From: 2010.05.17/outbox.cif.g08.bks.cpg/sg15_20_cif.got.tgz:39528.got - 2010.06.03 18:47:42.
