data_PCOD9275049
_publ_section_title
;
Structure prediction by ZEFSAII (Michael W. Deem and Ramdas Pophale) SiO2 
 PCOD9275049
Probable space group: C 2/C
;
_chemical_formula_sum "Si O2"
_cell_formula_units_Z 28
_cell_length_a 7.732073
_cell_length_b 18.064597
_cell_length_c 11.136590
_cell_angle_alpha 90.000000
_cell_angle_beta 132.895554
_cell_angle_gamma 90.000000
_cell_volume 1139.569535
_symmetry_space_group_name_H-M "C 2/C"
_symmetry_group_IT_number 15
_symmetry_cell_setting 'monoclinic'
loop_
_space_group_symop_operation_xyz
x,y,z
-x,y,1/2-z
-x,-y,-z
x,-y,1/2+z
1/2+x,1/2+y,z
1/2-x,1/2+y,1/2-z
1/2-x,1/2-y,-z
1/2+x,1/2-y,1/2+z
loop_
_atom_site_type_symbol
_atom_site_label
_atom_site_fract_x
_atom_site_fract_y
_atom_site_fract_z
Si Si1 0.000000 0.552428 0.250000
Si Si2 0.056491 0.848196 0.612181
Si Si3 0.802186 0.199214 0.748574
Si Si4 0.068037 0.590698 0.918143
O O1 0.776381 0.598230 0.190086
O O2 0.939524 0.496788 0.110053
O O3 0.144110 0.770092 0.703377
O O4 0.947183 0.830102 0.429903
O O5 0.830772 0.883917 0.572926
O O6 0.637331 0.135052 0.611022
O O7 0.000000 0.225719 0.750000
O O8 0.000000 0.618209 0.750000
#
# Coordination Sequence:
#
# PCOD9275049 Si02
#       4
#     4   8   8   8
#     4  10  20  38  68  84 116 162 202 234 294 364
#     4  11  21  39  64  88 118 158 203 238 296 352
#     4  11  22  37  61  91 122 152 198 248 294 349
#     4   8  20  37  61  84 117 157 200 235 288 357
#
# _framework density 24.570681
#
# number of rings (size 3 to 8) (size 9 to 14) (size 15 to 20)
#    0.857    1.143    1.429    2.571    0.000    0.000 
#    0.000    1.429    0.000    0.000    0.000    0.000 
#    0.000    0.000    0.000    0.000    0.000    0.000 
#
# Total GULP energy -78225.318949 kJ/mol
# GULP energy per Si atom -5587.522782 kJ/mol
# Density = 2.451476 g / cm^3
# Si number density = 24.570681 Si / 1000 Ang^3
#
#
#
# Elastic Constant Matrix: (Units=GPa)
#
#
# Indices 1 2 3 4 5 6 
#
# 1 83.2636 41.0535 45.6523 0.0000 30.9654 0.0000
# 2 41.0535 181.8916 66.3623 0.0000 38.6695 0.0000
# 3 45.6523 66.3623 121.0454 0.0000 42.4794 0.0000
# 4 0.0000 0.0000 0.0000 58.9525 0.0000 -0.4342
# 5 30.9654 38.6695 42.4794 0.0000 37.8327 0.0000
# 6 0.0000 0.0000 0.0000 -0.4342 0.0000 64.9612
#
#
#
# Elastic Compliance Matrix: (Units=1/GPa)
#
#
# Indices 1 2 3 4 5 6 
#
# 1 0.017845 -0.000792 -0.002400 0.000000 -0.011101 0.000000
# 2 -0.000792 0.007432 -0.002207 0.000000 -0.004470 0.000000
# 3 -0.002400 -0.002207 0.014680 0.000000 -0.012262 0.000000
# 4 0.000000 0.000000 0.000000 0.016964 0.000000 0.000113
# 5 -0.011101 -0.004470 -0.012262 0.000000 0.053856 0.000000
# 6 0.000000 0.000000 0.000000 0.000113 0.000000 0.015395
#
#
# Mechanical properties :
#
#
# Convention : Reuss Voigt Hill
#
# Bulk Modulus (GPa) = 34.29522 76.92631 55.61076
# Shear Modulus (GPa) = 34.08558 47.89145 40.98851
#
# Velocity S-wave (km/s) = 3.72862 4.41968 4.08878
# Velocity P-wave (km/s) = 5.70306 7.57766 6.70618
#
# Compressibility (1/GPa) = 0.02915858
#
# Stress axis : x y z
#
# Youngs Moduli (GPa) = 56.03792 134.55108 68.11942
#
# Poissons Ratio (x) = 0.10655 0.16350
# Poissons Ratio (y) = 0.04437 0.15036
# Poissons Ratio (z) = 0.13450 0.29699
#
# Static dielectric constant tensor:
#      x y z
#    x 2.032570 0.000000 -0.051870 
#    y 0.000000 1.893820 0.000000 
#    z -0.051870 0.000000 1.949840 
# 
# From -- ./inp_files/21552.got.cif
#   From: 2010.05.17/outbox.cif.g08.bks.cpg/sg15_11_cif.got.tgz:21552.got - 2010.06.03 18:47:42.
