data_PCOD9275806
_publ_section_title
;
Structure prediction by ZEFSAII (Michael W. Deem and Ramdas Pophale) SiO2 
 PCOD9275806
Probable space group: C 2/C
;
_chemical_formula_sum "Si O2"
_cell_formula_units_Z 36
_cell_length_a 11.037153
_cell_length_b 25.389968
_cell_length_c 7.964124
_cell_angle_alpha 90.000000
_cell_angle_beta 45.888754
_cell_angle_gamma 90.000000
_cell_volume 1602.416610
_symmetry_space_group_name_H-M "C 2/C"
_symmetry_group_IT_number 15
_symmetry_cell_setting 'monoclinic'
loop_
_space_group_symop_operation_xyz
x,y,z
-x,y,1/2-z
-x,-y,-z
x,-y,1/2+z
1/2+x,1/2+y,z
1/2-x,1/2+y,1/2-z
1/2-x,1/2-y,-z
1/2+x,1/2-y,1/2+z
loop_
_atom_site_type_symbol
_atom_site_label
_atom_site_fract_x
_atom_site_fract_y
_atom_site_fract_z
Si Si1 0.213603 0.917833 0.151957
Si Si2 0.133305 0.980416 0.507848
Si Si3 0.500000 0.842032 0.750000
Si Si4 0.914844 0.277284 0.147109
Si Si5 0.544576 0.668845 0.014298
O O1 0.267236 0.945294 0.278915
O O2 0.061296 0.880432 0.370244
O O3 0.342462 0.879526 0.938681
O O4 0.193594 0.967855 0.047551
O O5 0.000000 0.000000 0.500000
O O6 0.000000 0.949304 0.750000
O O7 0.485695 0.807512 0.595708
O O8 0.729654 0.303136 0.334506
O O9 0.000000 0.281224 0.250000
O O10 0.916483 0.215924 0.092003
O O11 0.500000 0.656609 0.250000
#
# Coordination Sequence:
#
# PCOD9275806 Si02
#       5
#     8   8   4   8   8
#     4  10  21  39  62  86 126 159 209 258 317 365
#     4   9  19  40  56  87 117 149 206 263 297 369
#     4  10  24  42  58 100 124 164 214 250 314 392
#     4  10  21  41  61  93 139 159 213 257 302 385
#     4  10  20  39  64  97 123 171 204 254 320 375
#
# _framework density 22.466068
#
# number of rings (size 3 to 8) (size 9 to 14) (size 15 to 20)
#    0.000    2.222    0.000    3.333    0.000    4.444 
#   46.000    0.000    0.000    0.000    0.000    0.000 
#    0.000    0.000    0.000    0.000    0.000    0.000 
#
# Total GULP energy -100201.026161 kJ/mol
# GULP energy per Si atom -5566.723676 kJ/mol
# Density = 2.241493 g / cm^3
# Si number density = 22.466068 Si / 1000 Ang^3
#
#
#
# Elastic Constant Matrix: (Units=GPa)
#
#
# Indices 1 2 3 4 5 6 
#
# 1 41.5242 30.6382 33.3167 0.0000 16.1760 0.0000
# 2 30.6382 175.5741 72.3455 0.0000 26.0663 0.0000
# 3 33.3167 72.3455 167.5070 0.0000 37.1601 0.0000
# 4 0.0000 0.0000 0.0000 34.6854 0.0000 -24.9685
# 5 16.1760 26.0663 37.1601 0.0000 35.2027 0.0000
# 6 0.0000 0.0000 0.0000 -24.9685 0.0000 -78.3017
#
#
#
# Elastic Compliance Matrix: (Units=1/GPa)
#
#
# Indices 1 2 3 4 5 6 
#
# 1 0.032430 -0.002995 -0.003059 0.000000 -0.009455 0.000000
# 2 -0.002995 0.007389 -0.002203 0.000000 -0.001769 0.000000
# 3 -0.003059 -0.002203 0.008953 0.000000 -0.006413 0.000000
# 4 0.000000 0.000000 0.000000 0.023448 0.000000 -0.007477
# 5 -0.009455 -0.001769 -0.006413 0.000000 0.040832 0.000000
# 6 0.000000 0.000000 0.000000 -0.007477 0.000000 -0.010387
#
#
# Mechanical properties :
#
#
# Convention : Reuss Voigt Hill
#
# Bulk Modulus (GPa) = 31.00099 73.02290 52.01194
# Shear Modulus (GPa) = 38.48211 14.87094 26.67653
#
# Velocity S-wave (km/s) = 4.14321 2.57559 3.44963
# Velocity P-wave (km/s) = 6.05947 6.43577 6.25045
#
# Compressibility (1/GPa) = 0.03225704
#
# Stress axis : x y z
#
# Youngs Moduli (GPa) = 30.83580 135.34341 111.69978
#
# Poissons Ratio (x) = 0.40533 0.34172
# Poissons Ratio (y) = 0.09235 0.24606
# Poissons Ratio (z) = 0.09434 0.29815
#
# Static dielectric constant tensor:
#      x y z
#    x 1.798000 0.000000 -0.051780 
#    y 0.000000 1.926890 0.000000 
#    z -0.051780 0.000000 1.879360 
# 
# From -- ./inp_files/31259.got.cif
#   From: 2010.05.17/outbox.cif.g08.bks.cpg/sg15_16_cif.got.tgz:31259.got - 2010.06.03 18:47:42.
