data_PCOD9275594
_publ_section_title
;
Structure prediction by ZEFSAII (Michael W. Deem and Ramdas Pophale) SiO2 
 PCOD9275594
Probable space group: C 2/C
;
_chemical_formula_sum "Si O2"
_cell_formula_units_Z 60
_cell_length_a 11.756068
_cell_length_b 14.610007
_cell_length_c 21.123523
_cell_angle_alpha 90.000000
_cell_angle_beta 136.884985
_cell_angle_gamma 90.000000
_cell_volume 2479.677531
_symmetry_space_group_name_H-M "C 2/C"
_symmetry_group_IT_number 15
_symmetry_cell_setting 'monoclinic'
loop_
_space_group_symop_operation_xyz
x,y,z
-x,y,1/2-z
-x,-y,-z
x,-y,1/2+z
1/2+x,1/2+y,z
1/2-x,1/2+y,1/2-z
1/2-x,1/2-y,-z
1/2+x,1/2-y,1/2+z
loop_
_atom_site_type_symbol
_atom_site_label
_atom_site_fract_x
_atom_site_fract_y
_atom_site_fract_z
Si Si1 0.723799 0.990600 0.284577
Si Si2 0.021035 0.259215 0.374099
Si Si3 0.998262 0.928931 0.817743
Si Si4 0.322140 0.613167 0.582371
Si Si5 0.645112 0.709632 0.678907
Si Si6 0.131927 0.083255 0.044181
Si Si7 0.000000 0.628296 0.750000
Si Si8 0.996877 0.288109 0.997178
O O1 0.819325 0.892486 0.335797
O O2 0.545525 0.945901 0.213241
O O3 0.816333 0.035040 0.263964
O O4 0.739098 0.059643 0.348456
O O5 0.052528 0.150607 0.386969
O O6 0.817224 0.269415 0.284862
O O7 0.089442 0.302607 0.336192
O O8 0.074202 0.305344 0.461611
O O9 0.000000 0.886307 0.750000
O O10 0.111552 0.018786 0.862002
O O11 0.472346 0.689205 0.645670
O O12 0.297610 0.589932 0.498096
O O13 0.156554 0.649372 0.547552
O O14 0.613228 0.783804 0.611252
O O15 0.059535 0.183348 0.026726
O O16 0.000000 0.000000 0.000000
#
# Coordination Sequence:
#
# PCOD9275594 Si02
#       8
#     8   8   8   8   8   8   4   8
#     4  10  20  39  63  87 123 167 204 254 313 378
#     4  11  22  41  64  88 123 170 212 252 317 384
#     4  11  22  39  63  91 119 164 216 260 309 381
#     4  10  22  35  60  93 127 163 209 267 320 370
#     4   9  20  37  60  90 129 162 208 262 311 372
#     4  11  16  36  61  87 121 163 209 252 312 381
#     4  10  24  42  56  92 128 164 204 258 314 376
#     4  11  21  37  62  95 130 164 212 266 316 370
#
# _framework density 24.196694000000001
#
# number of rings (size 3 to 8) (size 9 to 14) (size 15 to 20)
#    0.000    1.600    6.000    1.600    5.600    0.000 
#    4.800    4.000    0.000    1.600    0.000    0.000 
#    0.000    0.000    0.000    0.000    0.000    0.000 
#
# Total GULP energy -167129.417770 kJ/mol
# GULP energy per Si atom -5570.980592 kJ/mol
# Density = 2.414162 g / cm^3
# Si number density = 24.196694 Si / 1000 Ang^3
#
#
#
# Elastic Constant Matrix: (Units=GPa)
#
#
# Indices 1 2 3 4 5 6 
#
# 1 88.0576 38.8210 7.2029 0.0000 -25.0138 0.0000
# 2 38.8210 87.7542 12.0778 0.0000 1.1727 0.0000
# 3 7.2029 12.0778 53.8051 0.0000 -11.3786 0.0000
# 4 0.0000 0.0000 0.0000 28.1481 0.0000 -8.8178
# 5 -25.0138 1.1727 -11.3786 0.0000 30.5269 0.0000
# 6 0.0000 0.0000 0.0000 -8.8178 0.0000 18.1861
#
#
#
# Elastic Compliance Matrix: (Units=1/GPa)
#
#
# Indices 1 2 3 4 5 6 
#
# 1 0.020727 -0.009884 0.003383 0.000000 0.018625 0.000000
# 2 -0.009884 0.016541 -0.004599 0.000000 -0.010449 0.000000
# 3 0.003383 -0.004599 0.021482 0.000000 0.010956 0.000000
# 4 0.000000 0.000000 0.000000 0.041889 0.000000 0.020310
# 5 0.018625 -0.010449 0.010956 0.000000 0.052504 0.000000
# 6 0.000000 0.000000 0.000000 0.020310 0.000000 0.064835
#
#
# Mechanical properties :
#
#
# Convention : Reuss Voigt Hill
#
# Bulk Modulus (GPa) = 27.36078 38.42445 32.89262
# Shear Modulus (GPa) = 19.81279 26.80657 23.30968
#
# Velocity S-wave (km/s) = 2.86461 3.33207 3.10714
# Velocity P-wave (km/s) = 4.71948 5.54239 5.14741
#
# Compressibility (1/GPa) = 0.03654867
#
# Stress axis : x y z
#
# Youngs Moduli (GPa) = 48.24511 60.45725 46.55039
#
# Poissons Ratio (x) = 0.59756 -0.15746
# Poissons Ratio (y) = 0.47685 0.21411
# Poissons Ratio (z) = -0.16319 0.27807
#
# Static dielectric constant tensor:
#      x y z
#    x 2.412660 0.000000 0.205260 
#    y 0.000000 1.901090 0.000000 
#    z 0.205260 0.000000 2.120750 
# 
# From -- ./inp_files/238792.got.cif
#   From: 2010.05.17/outbox.cif.g08.bks.cpg/sg15_120_cif.got.tgz:238792.got - 2010.06.03 18:47:42.
