data_PCOD9275349
_publ_section_title
;
Structure prediction by ZEFSAII (Michael W. Deem and Ramdas Pophale) SiO2 
 PCOD9275349
Probable space group: C 2/C
;
_chemical_formula_sum "Si O2"
_cell_formula_units_Z 56
_cell_length_a 5.709390
_cell_length_b 19.446269
_cell_length_c 23.137145
_cell_angle_alpha 90.000000
_cell_angle_beta 57.752275
_cell_angle_gamma 90.000000
_cell_volume 2172.587442
_symmetry_space_group_name_H-M "C 2/C"
_symmetry_group_IT_number 15
_symmetry_cell_setting 'monoclinic'
loop_
_space_group_symop_operation_xyz
x,y,z
-x,y,1/2-z
-x,-y,-z
x,-y,1/2+z
1/2+x,1/2+y,z
1/2-x,1/2+y,1/2-z
1/2-x,1/2-y,-z
1/2+x,1/2-y,1/2+z
loop_
_atom_site_type_symbol
_atom_site_label
_atom_site_fract_x
_atom_site_fract_y
_atom_site_fract_z
Si Si1 0.288483 0.331724 0.984566
Si Si2 0.500000 0.394802 0.750000
Si Si3 0.540295 0.390225 0.180710
Si Si4 0.195663 0.630911 0.023853
Si Si5 0.047928 0.246269 0.863565
Si Si6 0.500000 0.984279 0.250000
Si Si7 0.924778 0.516491 0.134956
Si Si8 0.125019 0.197708 0.328391
O O1 0.473527 0.362504 0.011853
O O2 0.468981 0.340637 0.902220
O O3 0.992762 0.364076 0.008423
O O4 0.250000 0.250000 0.000000
O O5 0.349170 0.438740 0.817911
O O6 0.304384 0.348814 0.735922
O O7 0.500000 0.357676 0.250000
O O8 0.504429 0.334884 0.134940
O O9 0.811771 0.439238 0.140142
O O10 0.273637 0.439052 0.217181
O O11 0.089725 0.700799 0.071950
O O12 0.106631 0.559127 0.066054
O O13 0.876716 0.267562 0.828477
O O14 0.375314 0.255627 0.833788
O O15 0.545106 0.022454 0.183758
#
# Coordination Sequence:
#
# PCOD9275349 Si02
#       8
#     8   4   8   8   8   4   8   8
#     4  10  20  39  60  89 119 142 189 248 298 346
#     4  12  20  37  52  83 124 148 188 244 280 349
#     4  10  23  35  48  77 114 165 201 231 283 342
#     4  10  22  38  60  91 110 147 197 238 301 341
#     4  10  22  37  53  80 118 149 199 230 279 350
#     4  10  22  33  54  71 116 166 198 236 278 339
#     4  11  22  36  52  81 121 153 197 238 288 347
#     4  10  24  35  58  88 110 156 189 234 294 339
#
# _framework density 25.775715000000002
#
# number of rings (size 3 to 8) (size 9 to 14) (size 15 to 20)
#    0.000    1.714    5.000    0.429   12.000    0.000 
#    0.000    0.000    0.000    0.000    0.000   24.000 
#    0.000    0.000    0.000    0.000    0.000    0.000 
#
# Total GULP energy -156155.639904 kJ/mol
# GULP energy per Si atom -5576.987139 kJ/mol
# Density = 2.571705 g / cm^3
# Si number density = 25.775715 Si / 1000 Ang^3
#
#
#
# Elastic Constant Matrix: (Units=GPa)
#
#
# Indices 1 2 3 4 5 6 
#
# 1 199.7501 33.1843 34.3141 0.0000 24.0671 0.0000
# 2 33.1843 54.4013 39.9882 0.0000 13.4270 0.0000
# 3 34.3141 39.9882 70.3369 0.0000 15.0919 0.0000
# 4 0.0000 0.0000 0.0000 27.1171 0.0000 11.1172
# 5 24.0671 13.4270 15.0919 0.0000 36.0955 0.0000
# 6 0.0000 0.0000 0.0000 11.1172 0.0000 20.0808
#
#
#
# Elastic Compliance Matrix: (Units=1/GPa)
#
#
# Indices 1 2 3 4 5 6 
#
# 1 0.005867 -0.002125 -0.001081 0.000000 -0.002669 0.000000
# 2 -0.002125 0.033078 -0.016954 0.000000 -0.003799 0.000000
# 3 -0.001081 -0.016954 0.025130 0.000000 -0.003480 0.000000
# 4 0.000000 0.000000 0.000000 0.047705 0.000000 -0.026410
# 5 -0.002669 -0.003799 -0.003480 0.000000 0.032352 0.000000
# 6 0.000000 0.000000 0.000000 -0.026410 0.000000 0.064420
#
#
# Mechanical properties :
#
#
# Convention : Reuss Voigt Hill
#
# Bulk Modulus (GPa) = 42.09729 59.94018 51.01874
# Shear Modulus (GPa) = 19.47121 31.12547 25.29834
#
# Velocity S-wave (km/s) = 2.75145 3.47875 3.13626
# Velocity P-wave (km/s) = 5.14408 6.28018 5.74031
#
# Compressibility (1/GPa) = 0.02375450
#
# Stress axis : x y z
#
# Youngs Moduli (GPa) = 170.45618 30.23174 39.79319
#
# Poissons Ratio (x) = 0.06424 0.04302
# Poissons Ratio (y) = 0.36223 0.67464
# Poissons Ratio (z) = 0.18430 0.51254
#
# Static dielectric constant tensor:
#      x y z
#    x 2.454950 0.000000 -0.053030 
#    y 0.000000 2.128270 0.000000 
#    z -0.053030 0.000000 2.068020 
# 
# From -- ./inp_files/261155.got.cif
#   From: 2010.05.17/outbox.cif.g08.bks.cpg/sg15_131_cif.got.tgz:261155.got - 2010.06.03 18:47:42.
