data_PCOD9275828
_publ_section_title
;
Structure prediction by ZEFSAII (Michael W. Deem and Ramdas Pophale) SiO2 
 PCOD9275828
Probable space group: C 2/C
;
_chemical_formula_sum "Si O2"
_cell_formula_units_Z 64
_cell_length_a 21.993755
_cell_length_b 14.098686
_cell_length_c 16.563535
_cell_angle_alpha 90.000000
_cell_angle_beta 141.835534
_cell_angle_gamma 90.000000
_cell_volume 3173.685848
_symmetry_space_group_name_H-M "C 2/C"
_symmetry_group_IT_number 15
_symmetry_cell_setting 'monoclinic'
loop_
_space_group_symop_operation_xyz
x,y,z
-x,y,1/2-z
-x,-y,-z
x,-y,1/2+z
1/2+x,1/2+y,z
1/2-x,1/2+y,1/2-z
1/2-x,1/2-y,-z
1/2+x,1/2-y,1/2+z
loop_
_atom_site_type_symbol
_atom_site_label
_atom_site_fract_x
_atom_site_fract_y
_atom_site_fract_z
Si Si1 0.405689 0.172257 0.255503
Si Si2 0.787652 0.493860 0.078312
Si Si3 0.617583 0.773133 0.588126
Si Si4 0.420762 0.576015 0.893681
Si Si5 0.321581 0.630899 0.632674
Si Si6 0.728637 0.120251 0.775944
Si Si7 0.389588 0.116483 0.998286
Si Si8 0.420997 0.912032 0.095691
O O1 0.371191 0.074018 0.180302
O O2 0.373602 0.173093 0.316892
O O3 0.354627 0.260667 0.157784
O O4 0.523207 0.182697 0.379443
O O5 0.783667 0.426655 0.150833
O O6 0.817580 0.428008 0.034300
O O7 0.694745 0.560333 0.959070
O O8 0.553361 0.679897 0.543339
O O9 0.721547 0.724151 0.672815
O O10 0.579624 0.832536 0.473341
O O11 0.399952 0.587768 0.777373
O O12 0.500000 0.500000 0.000000
O O13 0.687133 0.443165 0.180605
O O14 0.215313 0.632761 0.567846
O O15 0.632921 0.123624 0.620179
O O16 0.430122 0.011838 0.059155
O O17 0.500000 0.897964 0.250000
#
# Coordination Sequence:
#
# PCOD9275828 Si02
#       8
#     8   8   8   8   8   8   8   8
#     4  11  20  39  65  90 118 163 210 259 305 370
#     4  11  22  37  63  88 129 160 196 260 323 367
#     4   9  22  40  60  88 124 157 214 246 294 382
#     4   8  17  42  65  80 122 161 208 245 296 364
#     4   9  21  40  59  94 124 153 208 259 312 372
#     4   9  21  41  61  92 120 162 210 249 308 368
#     4  10  20  39  65  87 122 163 206 257 312 364
#     4  11  22  38  57  91 125 161 198 255 311 368
#
# _framework density 20.165828000000001
#
# number of rings (size 3 to 8) (size 9 to 14) (size 15 to 20)
#    0.750    1.500    2.500    1.125    1.750    1.500 
#    6.750    5.625    0.000    0.000    0.000    0.000 
#    0.000    0.000    0.000    0.000    0.000    0.000 
#
# Total GULP energy -178309.003465 kJ/mol
# GULP energy per Si atom -5572.156358 kJ/mol
# Density = 2.011993 g / cm^3
# Si number density = 20.165828 Si / 1000 Ang^3
#
#
#
# Elastic Constant Matrix: (Units=GPa)
#
#
# Indices 1 2 3 4 5 6 
#
# 1 33.9065 21.5576 22.7281 0.0000 -17.7551 0.0000
# 2 21.5576 64.8223 57.2918 0.0000 -12.1164 0.0000
# 3 22.7281 57.2918 120.7749 0.0000 -11.9847 0.0000
# 4 0.0000 0.0000 0.0000 31.1967 0.0000 -5.7831
# 5 -17.7551 -12.1164 -11.9847 0.0000 28.1412 0.0000
# 6 0.0000 0.0000 0.0000 -5.7831 0.0000 28.4307
#
#
#
# Elastic Compliance Matrix: (Units=1/GPa)
#
#
# Indices 1 2 3 4 5 6 
#
# 1 0.051737 -0.010140 -0.002214 0.000000 0.027334 0.000000
# 2 -0.010140 0.029680 -0.012047 0.000000 0.001251 0.000000
# 3 -0.002214 -0.012047 0.014365 0.000000 -0.000466 0.000000
# 4 0.000000 0.000000 0.000000 0.033311 0.000000 0.006776
# 5 0.027334 0.001251 -0.000466 0.000000 0.053121 0.000000
# 6 0.000000 0.000000 0.000000 0.006776 0.000000 0.036552
#
#
# Mechanical properties :
#
#
# Convention : Reuss Voigt Hill
#
# Bulk Modulus (GPa) = 21.28543 46.96207 34.12375
# Shear Modulus (GPa) = 17.65364 25.41547 21.53456
#
# Velocity S-wave (km/s) = 2.96197 3.55396 3.27138
# Velocity P-wave (km/s) = 4.71972 6.33871 5.58816
#
# Compressibility (1/GPa) = 0.04698049
#
# Stress axis : x y z
#
# Youngs Moduli (GPa) = 19.32850 33.69220 69.61387
#
# Poissons Ratio (x) = 0.34165 0.15409
# Poissons Ratio (y) = 0.19600 0.83865
# Poissons Ratio (z) = 0.04278 0.40589
#
# Static dielectric constant tensor:
#      x y z
#    x 1.777110 0.000000 0.006000 
#    y 0.000000 1.717260 0.000000 
#    z 0.006000 0.000000 1.735210 
# 
# From -- ./inp_files/219739.got.cif
#   From: 2010.05.17/outbox.cif.g08.bks.cpg/sg15_110_cif.got.tgz:219739.got - 2010.06.03 18:47:42.
