data_PCOD9275934
_publ_section_title
;
Structure prediction by ZEFSAII (Michael W. Deem and Ramdas Pophale) SiO2 
 PCOD9275934
Probable space group: C 2/C
;
_chemical_formula_sum "Si O2"
_cell_formula_units_Z 48
_cell_length_a 32.450908
_cell_length_b 8.190871
_cell_length_c 18.887579
_cell_angle_alpha 90.000000
_cell_angle_beta 24.540126
_cell_angle_gamma 90.000000
_cell_volume 2085.100388
_symmetry_space_group_name_H-M "C 2/C"
_symmetry_group_IT_number 15
_symmetry_cell_setting 'monoclinic'
loop_
_space_group_symop_operation_xyz
x,y,z
-x,y,1/2-z
-x,-y,-z
x,-y,1/2+z
1/2+x,1/2+y,z
1/2-x,1/2+y,1/2-z
1/2-x,1/2-y,-z
1/2+x,1/2-y,1/2+z
loop_
_atom_site_type_symbol
_atom_site_label
_atom_site_fract_x
_atom_site_fract_y
_atom_site_fract_z
Si Si1 0.239509 0.988657 0.755285
Si Si2 0.019878 0.136102 0.636694
Si Si3 0.001495 0.680591 0.029403
Si Si4 0.214770 0.187879 0.659350
Si Si5 0.683418 0.496671 0.075355
Si Si6 0.282571 0.792058 0.310007
O O1 0.271820 0.837222 0.655492
O O2 0.243538 0.136273 0.692627
O O3 0.295033 0.049064 0.738499
O O4 0.127615 0.941702 0.954305
O O5 0.003925 0.293303 0.610924
O O6 0.065074 0.011317 0.756500
O O7 0.000000 0.170279 0.750000
O O8 0.901176 0.766203 0.161150
O O9 0.106111 0.761146 0.843921
O O10 0.000000 0.500000 0.000000
O O11 0.278009 0.336023 0.528302
O O12 0.224670 0.037036 0.589043
O O13 0.724543 0.649432 0.968888
#
# Coordination Sequence:
#
# PCOD9275934 Si02
#       6
#     8   8   8   8   8   8
#     4  11  24  40  65  91 127 165 213 257 320 377
#     4  10  21  38  62  89 125 167 208 253 321 375
#     4  10  21  37  63  92 124 162 209 257 309 375
#     4  10  22  40  65  93 123 168 206 262 313 380
#     4  10  20  39  66  87 126 162 212 253 315 374
#     4  11  22  38  62  92 124 167 207 264 310 381
#
# _framework density 23.020475000000001
#
# number of rings (size 3 to 8) (size 9 to 14) (size 15 to 20)
#    0.000    1.667    3.333    1.000    2.333    6.667 
#    0.000    0.000    0.000    9.000    0.000    0.000 
#    0.000    0.000    0.000    0.000    0.000    0.000 
#
# Total GULP energy -134125.098615 kJ/mol
# GULP energy per Si atom -5588.545776 kJ/mol
# Density = 2.296808 g / cm^3
# Si number density = 23.020475 Si / 1000 Ang^3
#
#
#
# Elastic Constant Matrix: (Units=GPa)
#
#
# Indices 1 2 3 4 5 6 
#
# 1 89.8133 1.2525 16.1399 -0.0001 18.2366 0.0001
# 2 1.2525 52.9769 14.0551 -0.0007 9.1958 0.0004
# 3 16.1399 14.0551 86.9994 -0.0006 2.5721 0.0002
# 4 -0.0001 -0.0007 -0.0006 40.2537 0.0001 16.5663
# 5 18.2366 9.1958 2.5721 0.0001 39.3021 0.0000
# 6 0.0001 0.0004 0.0002 16.5663 0.0000 45.5917
#
#
#
# Elastic Compliance Matrix: (Units=1/GPa)
#
#
# Indices 1 2 3 4 5 6 
#
# 1 0.012788 0.001399 -0.002418 0.000000 -0.006103 0.000000
# 2 0.001399 0.020670 -0.003443 0.000000 -0.005260 0.000000
# 3 -0.002418 -0.003443 0.012466 0.000000 0.001112 0.000000
# 4 0.000000 0.000000 0.000000 0.029211 0.000000 -0.010614
# 5 -0.006103 -0.005260 0.001112 0.000000 0.029434 0.000000
# 6 0.000000 0.000000 0.000000 -0.010614 0.000000 0.025791
#
#
# Mechanical properties :
#
#
# Convention : Reuss Voigt Hill
#
# Bulk Modulus (GPa) = 27.02779 32.52053 29.77416
# Shear Modulus (GPa) = 32.97774 38.25231 35.61502
#
# Velocity S-wave (km/s) = 3.78900 4.08077 3.93759
# Velocity P-wave (km/s) = 5.55952 6.03001 5.79954
#
# Compressibility (1/GPa) = 0.03699895
#
# Stress axis : x y z
#
# Youngs Moduli (GPa) = 78.19565 48.38026 80.21623
#
# Poissons Ratio (x) = -0.06766 0.19396
# Poissons Ratio (y) = -0.10936 0.27620
# Poissons Ratio (z) = 0.18908 0.16658
#
# Static dielectric constant tensor:
#      x y z
#    x 1.855570 0.000000 0.005590 
#    y 0.000000 1.951220 0.000000 
#    z 0.005590 0.000000 1.859720 
# 
# From -- ./inp_files/224555.got.cif
#   From: 2010.05.17/outbox.cif.g08.bks.cpg/sg15_113_cif.got.tgz:224555.got - 2010.06.03 18:47:42.
