data_PCOD9275537
_publ_section_title
;
Structure prediction by ZEFSAII (Michael W. Deem and Ramdas Pophale) SiO2 
 PCOD9275537
Probable space group: C 2/C
;
_chemical_formula_sum "Si O2"
_cell_formula_units_Z 44
_cell_length_a 18.144723
_cell_length_b 8.891777
_cell_length_c 15.948481
_cell_angle_alpha 90.000000
_cell_angle_beta 129.940536
_cell_angle_gamma 90.000000
_cell_volume 1972.831553
_symmetry_space_group_name_H-M "C 2/C"
_symmetry_group_IT_number 15
_symmetry_cell_setting 'monoclinic'
loop_
_space_group_symop_operation_xyz
x,y,z
-x,y,1/2-z
-x,-y,-z
x,-y,1/2+z
1/2+x,1/2+y,z
1/2-x,1/2+y,1/2-z
1/2-x,1/2-y,-z
1/2+x,1/2-y,1/2+z
loop_
_atom_site_type_symbol
_atom_site_label
_atom_site_fract_x
_atom_site_fract_y
_atom_site_fract_z
Si Si1 0.415287 0.324475 0.061722
Si Si2 0.623211 0.347326 0.130045
Si Si3 0.895784 0.309995 0.242859
Si Si4 0.500000 0.909517 0.750000
Si Si5 0.213362 0.177066 0.186921
Si Si6 0.397946 0.659614 0.080743
O O1 0.512105 0.355294 0.077450
O O2 0.390973 0.481351 0.089019
O O3 0.439155 0.194601 0.143914
O O4 0.330100 0.286977 0.935455
O O5 0.675385 0.218161 0.221919
O O6 0.674771 0.509562 0.179683
O O7 0.630442 0.310999 0.036156
O O8 0.831057 0.286959 0.275504
O O9 0.850234 0.248028 0.123092
O O10 0.931626 0.477041 0.251172
O O11 0.991139 0.211928 0.331188
#
# Coordination Sequence:
#
# PCOD9275537 Si02
#       6
#     8   8   8   4   8   8
#     4  11  21  43  64  89 122 164 200 254 302 366
#     4  11  23  39  64  94 118 166 199 252 304 360
#     4  10  20  39  62  93 118 162 203 248 302 362
#     4  10  24  34  66  92 120 158 204 256 308 340
#     4  11  24  41  65  90 125 158 210 245 304 365
#     4   9  18  39  65  85 117 162 205 234 311 362
#
# _framework density 22.302969999999998
#
# number of rings (size 3 to 8) (size 9 to 14) (size 15 to 20)
#    0.000    1.818    3.636    2.182    2.545    4.364 
#    0.000    0.909    0.000    0.000    0.000    0.000 
#    0.000    0.000    0.000    0.000    0.000    0.000 
#
# Total GULP energy -122994.096497 kJ/mol
# GULP energy per Si atom -5590.640750 kJ/mol
# Density = 2.225221 g / cm^3
# Si number density = 22.302970 Si / 1000 Ang^3
#
#
#
# Elastic Constant Matrix: (Units=GPa)
#
#
# Indices 1 2 3 4 5 6 
#
# 1 15.0982 13.4433 -0.5618 0.0000 -6.0824 0.0000
# 2 13.4433 95.7867 79.8970 0.0000 -20.2090 0.0000
# 3 -0.5618 79.8970 126.3699 0.0000 -3.4332 0.0000
# 4 0.0000 0.0000 0.0000 21.0271 0.0000 -11.8103
# 5 -6.0824 -20.2090 -3.4332 0.0000 21.1012 0.0000
# 6 0.0000 0.0000 0.0000 -11.8103 0.0000 35.0658
#
#
#
# Elastic Compliance Matrix: (Units=1/GPa)
#
#
# Indices 1 2 3 4 5 6 
#
# 1 0.092047 -0.026463 0.017249 0.000000 0.003995 0.000000
# 2 -0.026463 0.041184 -0.025404 0.000000 0.027681 0.000000
# 3 0.017249 -0.025404 0.023630 0.000000 -0.015513 0.000000
# 4 0.000000 0.000000 0.000000 0.058653 0.000000 0.019755
# 5 0.003995 0.027681 -0.015513 0.000000 0.072529 0.000000
# 6 0.000000 0.000000 0.000000 0.019755 0.000000 0.035171
#
#
# Mechanical properties :
#
#
# Convention : Reuss Voigt Hill
#
# Bulk Modulus (GPa) = 11.41235 46.97909 29.19572
# Shear Modulus (GPa) = 11.85793 25.07058 18.46426
#
# Velocity S-wave (km/s) = 2.30831 3.35638 2.88042
# Velocity P-wave (km/s) = 3.49749 6.01084 4.91745
#
# Compressibility (1/GPa) = 0.08762438
#
# Stress axis : x y z
#
# Youngs Moduli (GPa) = 10.86403 24.28138 42.31892
#
# Poissons Ratio (x) = 0.64257 -0.72996
# Poissons Ratio (y) = 0.28750 1.07507
# Poissons Ratio (z) = -0.18739 0.61684
#
# Static dielectric constant tensor:
#      x y z
#    x 1.903980 0.000000 0.036280 
#    y 0.000000 1.793320 0.000000 
#    z 0.036280 0.000000 1.821330 
# 
# From -- ./inp_files/172090.got.cif
#   From: 2010.05.17/outbox.cif.g08.bks.cpg/sg15_87_cif.got.tgz:172090.got - 2010.06.03 18:47:42.
