data_PCOD9275605
_publ_section_title
;
Structure prediction by ZEFSAII (Michael W. Deem and Ramdas Pophale) SiO2 
 PCOD9275605
Probable space group: C 2/C
;
_chemical_formula_sum "Si O2"
_cell_formula_units_Z 48
_cell_length_a 5.064977
_cell_length_b 18.115456
_cell_length_c 25.548473
_cell_angle_alpha 90.000000
_cell_angle_beta 109.608684
_cell_angle_gamma 90.000000
_cell_volume 2208.236792
_symmetry_space_group_name_H-M "C 2/C"
_symmetry_group_IT_number 15
_symmetry_cell_setting 'monoclinic'
loop_
_space_group_symop_operation_xyz
x,y,z
-x,y,1/2-z
-x,-y,-z
x,-y,1/2+z
1/2+x,1/2+y,z
1/2-x,1/2+y,1/2-z
1/2-x,1/2-y,-z
1/2+x,1/2-y,1/2+z
loop_
_atom_site_type_symbol
_atom_site_label
_atom_site_fract_x
_atom_site_fract_y
_atom_site_fract_z
Si Si1 0.285044 0.281177 0.583767
Si Si2 0.087705 0.530455 0.929036
Si Si3 0.816652 0.034672 0.788302
Si Si4 0.493820 0.442935 0.605032
Si Si5 0.923557 0.663688 0.974820
Si Si6 0.853686 0.853687 0.375127
O O1 0.453436 0.355934 0.601669
O O2 0.440970 0.224774 0.554649
O O3 0.238685 0.231005 0.631515
O O4 0.991916 0.305838 0.536766
O O5 0.122613 0.591457 0.884962
O O6 0.801265 0.485414 0.908466
O O7 0.083327 0.585081 0.978494
O O8 0.660653 0.525625 0.065810
O O9 0.500000 0.047215 0.750000
O O10 0.927156 0.108028 0.825789
O O11 0.000000 0.017941 0.750000
O O12 0.835807 0.969727 0.832524
O O13 0.612316 0.646790 0.933787
#
# Coordination Sequence:
#
# PCOD9275605 Si02
#       6
#     8   8   8   8   8   8
#     4  10  24  37  66  97 140 170 201 260 325 380
#     4  10  20  39  63  88 132 165 216 248 304 379
#     4  11  23  42  72  88 116 167 223 269 322 374
#     4  11  23  42  63  97 127 162 209 275 318 365
#     4  10  20  42  63  98 132 182 208 243 313 401
#     4  10  21  42  67  92 131 165 223 254 314 383
#
# _framework density 21.736799999999999
#
# number of rings (size 3 to 8) (size 9 to 14) (size 15 to 20)
#    0.000    1.667    3.333    2.500    4.667    1.333 
#    0.000    0.833    0.000    0.000    0.000    0.000 
#    0.000    0.000    0.000    0.000    0.000    0.000 
#
# Total GULP energy -134062.100275 kJ/mol
# GULP energy per Si atom -5585.920845 kJ/mol
# Density = 2.168733 g / cm^3
# Si number density = 21.736800 Si / 1000 Ang^3
#
#
#
# Elastic Constant Matrix: (Units=GPa)
#
#
# Indices 1 2 3 4 5 6 
#
# 1 92.6092 15.9603 7.3277 0.0000 26.2747 0.0000
# 2 15.9603 165.6453 28.5983 0.0000 16.9602 0.0000
# 3 7.3277 28.5983 68.4761 0.0000 11.5808 0.0000
# 4 0.0000 0.0000 0.0000 20.7313 0.0000 0.2419
# 5 26.2747 16.9602 11.5808 0.0000 21.6344 0.0000
# 6 0.0000 0.0000 0.0000 0.2419 0.0000 31.4900
#
#
#
# Elastic Compliance Matrix: (Units=1/GPa)
#
#
# Indices 1 2 3 4 5 6 
#
# 1 0.016687 0.000288 0.001715 0.000000 -0.021410 0.000000
# 2 0.000288 0.006843 -0.002114 0.000000 -0.004584 0.000000
# 3 0.001715 -0.002114 0.016905 0.000000 -0.009475 0.000000
# 4 0.000000 0.000000 0.000000 0.048240 0.000000 -0.000371
# 5 -0.021410 -0.004584 -0.009475 0.000000 0.080890 0.000000
# 6 0.000000 0.000000 0.000000 -0.000371 0.000000 0.031759
#
#
# Mechanical properties :
#
#
# Convention : Reuss Voigt Hill
#
# Bulk Modulus (GPa) = 24.86667 47.83370 36.35019
# Shear Modulus (GPa) = 23.26105 33.09410 28.17758
#
# Velocity S-wave (km/s) = 3.27482 3.90615 3.60433
# Velocity P-wave (km/s) = 5.07583 6.51134 5.83788
#
# Compressibility (1/GPa) = 0.04021447
#
# Stress axis : x y z
#
# Youngs Moduli (GPa) = 59.92655 146.12487 59.15300
#
# Poissons Ratio (x) = -0.04212 -0.10144
# Poissons Ratio (y) = -0.01727 0.12504
# Poissons Ratio (z) = -0.10276 0.30888
#
# Static dielectric constant tensor:
#      x y z
#    x 1.869790 0.000000 -0.000260 
#    y 0.000000 1.811180 0.000000 
#    z -0.000260 0.000000 1.821730 
# 
# From -- ./inp_files/261256.got.cif
#   From: 2010.05.17/outbox.cif.g08.bks.cpg/sg15_131_cif.got.tgz:261256.got - 2010.06.03 18:47:42.
