data_PCOD9275933
_publ_section_title
;
Structure prediction by ZEFSAII (Michael W. Deem and Ramdas Pophale) SiO2 
 PCOD9275933
Probable space group: C 2/C
;
_chemical_formula_sum "Si O2"
_cell_formula_units_Z 56
_cell_length_a 18.027990
_cell_length_b 14.574127
_cell_length_c 20.103006
_cell_angle_alpha 90.000000
_cell_angle_beta 31.373001
_cell_angle_gamma 90.000000
_cell_volume 2749.800371
_symmetry_space_group_name_H-M "C 2/C"
_symmetry_group_IT_number 15
_symmetry_cell_setting 'monoclinic'
loop_
_space_group_symop_operation_xyz
x,y,z
-x,y,1/2-z
-x,-y,-z
x,-y,1/2+z
1/2+x,1/2+y,z
1/2-x,1/2+y,1/2-z
1/2-x,1/2-y,-z
1/2+x,1/2-y,1/2+z
loop_
_atom_site_type_symbol
_atom_site_label
_atom_site_fract_x
_atom_site_fract_y
_atom_site_fract_z
Si Si1 0.693533 0.709438 0.974267
Si Si2 0.071942 0.833249 0.097164
Si Si3 0.668711 0.589706 0.333557
Si Si4 0.851566 0.551712 0.621415
Si Si5 0.621733 0.517251 0.990740
Si Si6 0.274410 0.307814 0.379988
Si Si7 0.132141 0.725869 0.795800
O O1 0.693660 0.598025 0.977057
O O2 0.786733 0.730733 0.836922
O O3 0.750000 0.750000 0.000000
O O4 0.533860 0.749055 0.087177
O O5 0.161544 0.831800 0.096675
O O6 0.916973 0.789817 0.227993
O O7 0.163748 0.774692 0.974731
O O8 0.054530 0.937544 0.086986
O O9 0.738923 0.527294 0.223594
O O10 0.498523 0.572881 0.458545
O O11 0.714670 0.541326 0.367090
O O12 0.694798 0.695122 0.296489
O O13 0.808133 0.607943 0.589504
O O14 0.852684 0.627984 0.679507
O O15 0.000000 0.500000 0.500000
#
# Coordination Sequence:
#
# PCOD9275933 Si02
#       7
#     8   8   8   8   8   8   8
#     4  11  24  44  66  95 131 175 224 276 337 406
#     4  10  21  42  66  93 130 174 218 273 336 403
#     4  10  21  39  63  92 125 168 221 260 329 390
#     4  12  24  40  64  99 136 168 222 278 335 398
#     4  10  20  39  66  87 125 176 215 262 331 407
#     4  10  23  40  65  97 130 167 222 276 336 400
#     4  11  24  42  66  96 133 173 222 280 335 398
#
# _framework density 20.365114999999999
#
# number of rings (size 3 to 8) (size 9 to 14) (size 15 to 20)
#    0.000    1.429    2.857    2.143    0.000    5.714 
#    2.571    0.000    3.143    0.000    0.000    0.000 
#    0.000    0.000    0.000    0.000    0.000    0.000 
#
# Total GULP energy -156253.975121 kJ/mol
# GULP energy per Si atom -5580.499111 kJ/mol
# Density = 2.031876 g / cm^3
# Si number density = 20.365115 Si / 1000 Ang^3
#
#
#
# Elastic Constant Matrix: (Units=GPa)
#
#
# Indices 1 2 3 4 5 6 
#
# 1 76.0317 40.9957 39.8631 -0.0003 4.0271 0.0000
# 2 40.9957 110.8143 54.9827 -0.0010 8.6431 0.0001
# 3 39.8631 54.9827 125.3825 -0.0009 12.3226 0.0000
# 4 -0.0003 -0.0010 -0.0009 33.7265 0.0001 -0.0127
# 5 4.0271 8.6431 12.3226 0.0001 26.9253 0.0000
# 6 0.0000 0.0001 0.0000 -0.0127 0.0000 34.9241
#
#
#
# Elastic Compliance Matrix: (Units=1/GPa)
#
#
# Indices 1 2 3 4 5 6 
#
# 1 0.017557 -0.004781 -0.003537 0.000000 0.000528 0.000000
# 2 -0.004781 0.012890 -0.003975 0.000000 -0.001604 0.000000
# 3 -0.003537 -0.003975 0.011168 0.000000 -0.003306 0.000000
# 4 0.000000 0.000000 0.000000 0.029650 0.000000 0.000011
# 5 0.000528 -0.001604 -0.003306 0.000000 0.039089 0.000000
# 6 0.000000 0.000000 0.000000 0.000011 0.000000 0.028634
#
#
# Mechanical properties :
#
#
# Convention : Reuss Voigt Hill
#
# Bulk Modulus (GPa) = 58.72419 64.87903 61.80161
# Shear Modulus (GPa) = 29.54194 30.87431 30.20813
#
# Velocity S-wave (km/s) = 3.81283 3.89786 3.85558
# Velocity P-wave (km/s) = 6.94851 7.22391 7.08755
#
# Compressibility (1/GPa) = 0.01702876
#
# Stress axis : x y z
#
# Youngs Moduli (GPa) = 56.95726 77.57794 89.54038
#
# Poissons Ratio (x) = 0.37093 0.31671
# Poissons Ratio (y) = 0.27233 0.35591
# Poissons Ratio (z) = 0.20146 0.30836
#
# Static dielectric constant tensor:
#      x y z
#    x 1.762250 0.000000 0.008740 
#    y 0.000000 1.718230 0.000000 
#    z 0.008740 0.000000 1.748160 
# 
# From -- ./inp_files/249225.got.cif
#   From: 2010.05.17/outbox.cif.g08.bks.cpg/sg15_125_cif.got.tgz:249225.got - 2010.06.03 18:47:42.
