data_PCOD9275173
_publ_section_title
;
Structure prediction by ZEFSAII (Michael W. Deem and Ramdas Pophale) SiO2 
 PCOD9275173
Probable space group: C 2/C
;
_chemical_formula_sum "Si O2"
_cell_formula_units_Z 52
_cell_length_a 30.103157
_cell_length_b 8.004409
_cell_length_c 22.252537
_cell_angle_alpha 90.000000
_cell_angle_beta 155.055586
_cell_angle_gamma 90.000000
_cell_volume 2261.332402
_symmetry_space_group_name_H-M "C 2/C"
_symmetry_group_IT_number 15
_symmetry_cell_setting 'monoclinic'
loop_
_space_group_symop_operation_xyz
x,y,z
-x,y,1/2-z
-x,-y,-z
x,-y,1/2+z
1/2+x,1/2+y,z
1/2-x,1/2+y,1/2-z
1/2-x,1/2-y,-z
1/2+x,1/2-y,1/2+z
loop_
_atom_site_type_symbol
_atom_site_label
_atom_site_fract_x
_atom_site_fract_y
_atom_site_fract_z
Si Si1 0.000000 0.223030 0.250000
Si Si2 0.141719 0.961572 0.019683
Si Si3 0.303415 0.658658 0.219179
Si Si4 0.525291 0.339611 0.472758
Si Si5 0.330196 0.148516 0.237805
Si Si6 0.880690 0.524741 0.435614
Si Si7 0.089497 0.348253 0.244904
O O1 0.926126 0.331533 0.203395
O O2 0.074291 0.109965 0.382586
O O3 0.232313 0.825883 0.147585
O O4 0.067617 0.015174 0.982876
O O5 0.205272 0.131534 0.081807
O O6 0.413959 0.645525 0.389759
O O7 0.223038 0.526849 0.149967
O O8 0.339123 0.698990 0.194982
O O9 0.399932 0.313690 0.315887
O O10 0.570748 0.159267 0.507700
O O11 0.360868 0.088299 0.343287
O O12 0.363863 0.016754 0.227048
O O13 0.969874 0.643961 0.573220
#
# Coordination Sequence:
#
# PCOD9275173 Si02
#       7
#     4   8   8   8   8   8   8
#     4  12  26  46  58  84 136 178 234 248 282 384
#     4  11  24  40  63  91 131 173 206 264 310 370
#     4  11  19  37  67  99 122 162 204 266 331 371
#     4  11  19  37  63  99 132 152 199 270 335 375
#     4  10  20  38  70  98 127 159 202 269 341 373
#     4  11  18  37  65 101 129 153 203 266 336 387
#     4  10  21  39  64  92 125 170 212 261 303 377
#
# _framework density 22.995291000000002
#
# number of rings (size 3 to 8) (size 9 to 14) (size 15 to 20)
#    0.000    1.231    7.692    0.923    0.000    2.462 
#    2.769    5.385    0.000    0.000    0.000    0.000 
#    0.000    0.000    0.000    0.000    0.000    0.000 
#
# Total GULP energy -145086.907804 kJ/mol
# GULP energy per Si atom -5580.265685 kJ/mol
# Density = 2.294295 g / cm^3
# Si number density = 22.995291 Si / 1000 Ang^3
#
#
#
# Elastic Constant Matrix: (Units=GPa)
#
#
# Indices 1 2 3 4 5 6 
#
# 1 159.2949 39.4209 11.3608 0.0000 5.8631 0.0000
# 2 39.4209 56.8024 12.5582 0.0000 -6.8296 0.0000
# 3 11.3608 12.5582 66.0060 0.0000 1.6744 0.0000
# 4 0.0000 0.0000 0.0000 32.2070 0.0000 5.4469
# 5 5.8631 -6.8296 1.6744 0.0000 41.5116 0.0000
# 6 0.0000 0.0000 0.0000 5.4469 0.0000 39.9047
#
#
#
# Elastic Compliance Matrix: (Units=1/GPa)
#
#
# Indices 1 2 3 4 5 6 
#
# 1 0.007745 -0.005566 -0.000223 0.000000 -0.002001 0.000000
# 2 -0.005566 0.022804 -0.003499 0.000000 0.004679 0.000000
# 3 -0.000223 -0.003499 0.015884 0.000000 -0.001185 0.000000
# 4 0.000000 0.000000 0.000000 0.031783 0.000000 -0.004338
# 5 -0.002001 0.004679 -0.001185 0.000000 0.025190 0.000000
# 6 0.000000 0.000000 0.000000 -0.004338 0.000000 0.025652
#
#
# Mechanical properties :
#
#
# Convention : Reuss Voigt Hill
#
# Bulk Modulus (GPa) = 35.89914 45.42034 40.65974
# Shear Modulus (GPa) = 31.86341 37.30889 34.58615
#
# Velocity S-wave (km/s) = 3.72647 4.03234 3.88242
# Velocity P-wave (km/s) = 5.84473 6.44008 6.14961
#
# Compressibility (1/GPa) = 0.02785582
#
# Stress axis : x y z
#
# Youngs Moduli (GPa) = 129.12164 43.85212 62.95488
#
# Poissons Ratio (x) = 0.24408 0.01406
# Poissons Ratio (y) = 0.71869 0.22030
# Poissons Ratio (z) = 0.02883 0.15345
#
# Static dielectric constant tensor:
#      x y z
#    x 1.898320 0.000000 0.068490 
#    y 0.000000 1.988680 0.000000 
#    z 0.068490 0.000000 1.863270 
# 
# From -- ./inp_files/258868.got.cif
#   From: 2010.05.17/outbox.cif.g08.bks.cpg/sg15_130_cif.got.tgz:258868.got - 2010.06.03 18:47:42.
