data_PCOD9275582
_publ_section_title
;
Structure prediction by ZEFSAII (Michael W. Deem and Ramdas Pophale) SiO2 
 PCOD9275582
Probable space group: C 2/C
;
_chemical_formula_sum "Si O2"
_cell_formula_units_Z 52
_cell_length_a 27.970152
_cell_length_b 8.579120
_cell_length_c 30.543677
_cell_angle_alpha 90.000000
_cell_angle_beta 18.409800
_cell_angle_gamma 90.000000
_cell_volume 2314.656737
_symmetry_space_group_name_H-M "C 2/C"
_symmetry_group_IT_number 15
_symmetry_cell_setting 'monoclinic'
loop_
_space_group_symop_operation_xyz
x,y,z
-x,y,1/2-z
-x,-y,-z
x,-y,1/2+z
1/2+x,1/2+y,z
1/2-x,1/2+y,1/2-z
1/2-x,1/2-y,-z
1/2+x,1/2-y,1/2+z
loop_
_atom_site_type_symbol
_atom_site_label
_atom_site_fract_x
_atom_site_fract_y
_atom_site_fract_z
Si Si1 0.465139 0.830805 0.192117
Si Si2 0.162487 0.556850 0.875924
Si Si3 0.155805 0.308550 0.946643
Si Si4 0.500000 0.639958 0.250000
Si Si5 0.141012 0.879159 0.072767
Si Si6 0.095005 0.130417 0.392473
Si Si7 0.908353 0.366171 0.784674
O O1 0.313044 0.775814 0.300553
O O2 0.459274 0.747147 0.244233
O O3 0.461281 0.014343 0.202415
O O4 0.608481 0.790604 0.038130
O O5 0.172160 0.487726 0.916585
O O6 0.171108 0.740874 0.858590
O O7 0.284143 0.461046 0.741893
O O8 0.000000 0.500000 0.000000
O O9 0.022978 0.226375 0.034782
O O10 0.625183 0.525829 0.118802
O O11 0.973399 0.803950 0.215700
O O12 0.250000 0.750000 0.000000
O O13 0.232140 0.899358 0.948465
O O14 0.000000 0.000000 0.500000
O O15 0.000000 0.405697 0.750000
#
# Coordination Sequence:
#
# PCOD9275582 Si02
#       7
#     8   8   8   4   8   8   8
#     4  12  26  42  68  97 144 181 238 293 349 399
#     4  10  21  42  74 104 137 179 217 272 345 425
#     4  11  25  45  65 106 146 175 228 300 340 413
#     4  12  24  40  70  94 128 196 246 286 352 410
#     4  10  20  39  63  86 120 160 250 287 338 403
#     4  11  23  45  79 105 138 184 222 271 352 437
#     4  10  21  40  64  90 120 181 234 286 340 404
#
# _framework density 22.465534999999999
#
# number of rings (size 3 to 8) (size 9 to 14) (size 15 to 20)
#    0.000    1.231    4.615    2.769    6.462    1.231 
#    0.000    4.615    0.000    0.000    0.000    0.000 
#    0.000    0.000    0.000    0.000    0.000    0.000 
#
# Total GULP energy -145113.796859 kJ/mol
# GULP energy per Si atom -5581.299879 kJ/mol
# Density = 2.241440 g / cm^3
# Si number density = 22.465535 Si / 1000 Ang^3
#
#
#
# Elastic Constant Matrix: (Units=GPa)
#
#
# Indices 1 2 3 4 5 6 
#
# 1 42.7230 26.6850 24.5193 -0.0089 5.8588 -0.0002
# 2 26.6850 110.1169 37.2989 -0.0094 10.2330 0.0046
# 3 24.5193 37.2989 148.0852 -0.0682 19.2902 0.0176
# 4 -0.0089 -0.0094 -0.0682 31.5629 0.0212 5.8916
# 5 5.8588 10.2330 19.2902 0.0212 21.3318 -0.0037
# 6 -0.0002 0.0046 0.0176 5.8916 -0.0037 19.8118
#
#
#
# Elastic Compliance Matrix: (Units=1/GPa)
#
#
# Indices 1 2 3 4 5 6 
#
# 1 0.029109 -0.005796 -0.003039 0.000001 -0.002467 0.000004
# 2 -0.005796 0.011236 -0.001559 0.000000 -0.002388 -0.000002
# 3 -0.003039 -0.001559 0.008436 0.000024 -0.006046 -0.000015
# 4 0.000001 0.000000 0.000024 0.033545 -0.000057 -0.009975
# 5 -0.002467 -0.002388 -0.006046 -0.000057 0.054169 0.000033
# 6 0.000004 -0.000002 -0.000015 -0.009975 0.000033 0.053442
#
#
# Mechanical properties :
#
#
# Convention : Reuss Voigt Hill
#
# Bulk Modulus (GPa) = 35.72207 53.10351 44.41279
# Shear Modulus (GPa) = 22.72163 28.70277 25.71220
#
# Velocity S-wave (km/s) = 3.18370 3.57828 3.38674
# Velocity P-wave (km/s) = 5.42678 6.38445 5.92500
#
# Compressibility (1/GPa) = 0.02799390
#
# Stress axis : x y z
#
# Youngs Moduli (GPa) = 34.35402 89.00115 118.53414
#
# Poissons Ratio (x) = 0.51581 0.36018
# Poissons Ratio (y) = 0.19910 0.18483
# Poissons Ratio (z) = 0.10439 0.13878
#
# Static dielectric constant tensor:
#      x y z
#    x 1.844240 -0.000010 0.013820 
#    y -0.000010 1.842460 0.000010 
#    z 0.013820 0.000010 1.882250 
# 
# From -- ./inp_files/320157.got.cif
#   From: 2010.05.17/outbox.cif.g08.bks.cpg/sg15_161_cif.got.tgz:320157.got - 2010.06.03 18:47:42.
