data_PCOD9275864
_publ_section_title
;
Structure prediction by ZEFSAII (Michael W. Deem and Ramdas Pophale) SiO2 
 PCOD9275864
Probable space group: C 2/C
;
_chemical_formula_sum "Si O2"
_cell_formula_units_Z 40
_cell_length_a 9.719568
_cell_length_b 10.586654
_cell_length_c 22.928170
_cell_angle_alpha 90.000000
_cell_angle_beta 137.533400
_cell_angle_gamma 90.000000
_cell_volume 1592.876024
_symmetry_space_group_name_H-M "C 2/C"
_symmetry_group_IT_number 15
_symmetry_cell_setting 'monoclinic'
loop_
_space_group_symop_operation_xyz
x,y,z
-x,y,1/2-z
-x,-y,-z
x,-y,1/2+z
1/2+x,1/2+y,z
1/2-x,1/2+y,1/2-z
1/2-x,1/2-y,-z
1/2+x,1/2-y,1/2+z
loop_
_atom_site_type_symbol
_atom_site_label
_atom_site_fract_x
_atom_site_fract_y
_atom_site_fract_z
Si Si1 0.928559 0.525836 0.607503
Si Si2 0.374226 0.283541 0.650632
Si Si3 0.386088 0.231908 0.153975
Si Si4 0.097449 0.659334 0.491332
Si Si5 0.597346 0.472506 0.215802
O O1 0.860274 0.661943 0.605590
O O2 0.841069 0.408024 0.617201
O O3 0.877267 0.481497 0.525895
O O4 0.165143 0.517844 0.699739
O O5 0.500000 0.254780 0.750000
O O6 0.498334 0.399938 0.659827
O O7 0.140824 0.317199 0.591636
O O8 0.500000 0.212570 0.250000
O O9 0.536441 0.336894 0.170039
O O10 0.175728 0.309470 0.080696
O O11 0.250000 0.750000 0.500000
O O12 0.500000 0.469359 0.250000
#
# Coordination Sequence:
#
# PCOD9275864 Si02
#       5
#     8   8   8   8   8
#     4  11  21  41  69  98 130 179 230 274 341 408
#     4  11  22  41  69 100 137 180 226 278 341 407
#     4  10  23  42  62  93 134 175 219 279 336 398
#     4  10  23  42  66  99 138 176 226 284 341 399
#     4  10  20  39  65  91 135 177 216 275 347 394
#
# _framework density 25.111809999999998
#
# number of rings (size 3 to 8) (size 9 to 14) (size 15 to 20)
#    0.000    1.600    4.000    1.800    2.800    4.000 
#    3.600    1.000    0.000    0.000    0.000    0.000 
#    0.000    0.000    0.000    0.000    0.000    0.000 
#
# Total GULP energy -111598.901735 kJ/mol
# GULP energy per Si atom -5579.945087 kJ/mol
# Density = 2.505465 g / cm^3
# Si number density = 25.111810 Si / 1000 Ang^3
#
#
#
# Elastic Constant Matrix: (Units=GPa)
#
#
# Indices 1 2 3 4 5 6 
#
# 1 23.9169 23.1703 7.7496 0.0000 -0.0949 0.0000
# 2 23.1703 128.3075 -10.3021 0.0000 -12.2275 0.0000
# 3 7.7496 -10.3021 121.5416 0.0000 -7.7431 0.0000
# 4 0.0000 0.0000 0.0000 -43.5577 0.0000 61.6050
# 5 -0.0949 -12.2275 -7.7431 0.0000 34.4223 0.0000
# 6 0.0000 0.0000 0.0000 61.6050 0.0000 -17.6798
#
#
#
# Elastic Compliance Matrix: (Units=1/GPa)
#
#
# Indices 1 2 3 4 5 6 
#
# 1 0.053401 -0.010449 -0.004583 0.000000 -0.004596 0.000000
# 2 -0.010449 0.010205 0.001786 0.000000 0.003998 0.000000
# 3 -0.004583 0.001786 0.008838 0.000000 0.002610 0.000000
# 4 0.000000 0.000000 0.000000 0.005844 0.000000 0.020365
# 5 -0.004596 0.003998 0.002610 0.000000 0.031045 0.000000
# 6 0.000000 0.000000 0.000000 0.020365 0.000000 0.014399
#
#
# Mechanical properties :
#
#
# Convention : Reuss Voigt Hill
#
# Bulk Modulus (GPa) = 21.76257 35.00017 28.38137
# Shear Modulus (GPa) = 30.20358 11.51353 20.85855
#
# Velocity S-wave (km/s) = 3.47185 2.14356 2.88519
# Velocity P-wave (km/s) = 4.97562 4.48269 4.73557
#
# Compressibility (1/GPa) = 0.04595045
#
# Stress axis : x y z
#
# Youngs Moduli (GPa) = 18.72609 97.98946 113.15398
#
# Poissons Ratio (x) = 1.02393 0.51863
# Poissons Ratio (y) = 0.19568 -0.20209
# Poissons Ratio (z) = 0.08583 -0.17501
#
# Static dielectric constant tensor:
#      x y z
#    x 2.089570 0.000000 -0.069170 
#    y 0.000000 2.039030 0.000000 
#    z -0.069170 0.000000 2.024570 
# 
# From -- ./inp_files/236447.got.cif
#   From: 2010.05.17/outbox.cif.g08.bks.cpg/sg15_119_cif.got.tgz:236447.got - 2010.06.03 18:47:42.
