data_PCOD9275863
_publ_section_title
;
Structure prediction by ZEFSAII (Michael W. Deem and Ramdas Pophale) SiO2 
 PCOD9275863
Probable space group: C 2/C
;
_chemical_formula_sum "Si O2"
_cell_formula_units_Z 40
_cell_length_a 20.559961
_cell_length_b 9.968139
_cell_length_c 14.083548
_cell_angle_alpha 90.000000
_cell_angle_beta 34.068214
_cell_angle_gamma 90.000000
_cell_volume 1616.872152
_symmetry_space_group_name_H-M "C 2/C"
_symmetry_group_IT_number 15
_symmetry_cell_setting 'monoclinic'
loop_
_space_group_symop_operation_xyz
x,y,z
-x,y,1/2-z
-x,-y,-z
x,-y,1/2+z
1/2+x,1/2+y,z
1/2-x,1/2+y,1/2-z
1/2-x,1/2-y,-z
1/2+x,1/2-y,1/2+z
loop_
_atom_site_type_symbol
_atom_site_label
_atom_site_fract_x
_atom_site_fract_y
_atom_site_fract_z
Si Si1 0.091017 0.820768 0.706172
Si Si2 0.976909 0.211826 0.529744
Si Si3 0.182547 0.975042 0.856103
Si Si4 0.319336 0.869146 0.863657
Si Si5 0.310295 0.072585 0.022834
O O1 0.175697 0.925357 0.651919
O O2 0.146747 0.715839 0.565768
O O3 0.000000 0.895648 0.750000
O O4 0.038896 0.737168 0.858102
O O5 0.916463 0.309322 0.676727
O O6 0.079560 0.131760 0.460252
O O7 0.877290 0.113219 0.606166
O O8 0.233491 0.955947 0.899304
O O9 0.294416 0.949589 0.652621
O O10 0.250000 0.750000 0.000000
O O11 0.368312 0.960657 0.888846
#
# Coordination Sequence:
#
# PCOD9275863 Si02
#       5
#     8   8   8   8   8
#     4  10  20  39  65  91 129 171 212 260 321 398
#     4  10  22  41  64  98 124 175 220 259 330 387
#     4  10  22  42  65  88 135 170 217 265 317 406
#     4  12  24  42  67 100 133 169 221 279 333 381
#     4  10  22  41  63  98 125 168 218 260 331 383
#
# _framework density 24.739122999999999
#
# number of rings (size 3 to 8) (size 9 to 14) (size 15 to 20)
#    0.000    1.600    2.000    2.400    0.000    4.800 
#    3.600    0.000    0.000    0.000    0.000    0.000 
#    0.000    0.000    0.000    0.000    0.000    0.000 
#
# Total GULP energy -111801.483428 kJ/mol
# GULP energy per Si atom -5590.074171 kJ/mol
# Density = 2.468282 g / cm^3
# Si number density = 24.739123 Si / 1000 Ang^3
#
#
#
# Elastic Constant Matrix: (Units=GPa)
#
#
# Indices 1 2 3 4 5 6 
#
# 1 74.8554 11.6224 43.2793 0.0000 19.3510 0.0000
# 2 11.6224 43.4580 14.1653 0.0000 7.8109 0.0000
# 3 43.2793 14.1653 128.1560 0.0000 30.8805 0.0000
# 4 0.0000 0.0000 0.0000 50.5924 0.0000 16.4381
# 5 19.3510 7.8109 30.8805 0.0000 40.6466 0.0000
# 6 0.0000 0.0000 0.0000 16.4381 0.0000 17.5301
#
#
#
# Elastic Compliance Matrix: (Units=1/GPa)
#
#
# Indices 1 2 3 4 5 6 
#
# 1 0.017523 -0.002400 -0.004594 0.000000 -0.004391 0.000000
# 2 -0.002400 0.024536 -0.001274 0.000000 -0.002605 0.000000
# 3 -0.004594 -0.001274 0.010906 0.000000 -0.005853 0.000000
# 4 0.000000 0.000000 0.000000 0.028427 0.000000 -0.026656
# 5 -0.004391 -0.002605 -0.005853 0.000000 0.031640 0.000000
# 6 0.000000 0.000000 0.000000 -0.026656 0.000000 0.082040
#
#
# Mechanical properties :
#
#
# Convention : Reuss Voigt Hill
#
# Bulk Modulus (GPa) = 27.45093 42.73368 35.09231
# Shear Modulus (GPa) = 22.34628 33.58065 27.96347
#
# Velocity S-wave (km/s) = 3.00872 3.68828 3.36569
# Velocity P-wave (km/s) = 4.81561 5.95391 5.41476
#
# Compressibility (1/GPa) = 0.03642863
#
# Stress axis : x y z
#
# Youngs Moduli (GPa) = 57.06749 40.75663 91.69417
#
# Poissons Ratio (x) = 0.09780 0.42129
# Poissons Ratio (y) = 0.13694 0.11682
# Poissons Ratio (z) = 0.26219 0.05192
#
# Static dielectric constant tensor:
#      x y z
#    x 1.963000 0.000000 -0.066300 
#    y 0.000000 1.956460 0.000000 
#    z -0.066300 0.000000 2.096020 
# 
# From -- ./inp_files/111358.got.cif
#   From: 2010.05.17/outbox.cif.g08.bks.cpg/sg15_56_cif.got.tgz:111358.got - 2010.06.03 18:47:42.
