data_PCOD9275444
_publ_section_title
;
Structure prediction by ZEFSAII (Michael W. Deem and Ramdas Pophale) SiO2 
 PCOD9275444
Probable space group: C 2/C
;
_chemical_formula_sum "Si O2"
_cell_formula_units_Z 40
_cell_length_a 24.611567
_cell_length_b 5.334968
_cell_length_c 13.846224
_cell_angle_alpha 90.000000
_cell_angle_beta 95.726208
_cell_angle_gamma 90.000000
_cell_volume 1808.963894
_symmetry_space_group_name_H-M "C 2/C"
_symmetry_group_IT_number 15
_symmetry_cell_setting 'monoclinic'
loop_
_space_group_symop_operation_xyz
x,y,z
-x,y,1/2-z
-x,-y,-z
x,-y,1/2+z
1/2+x,1/2+y,z
1/2-x,1/2+y,1/2-z
1/2-x,1/2-y,-z
1/2+x,1/2-y,1/2+z
loop_
_atom_site_type_symbol
_atom_site_label
_atom_site_fract_x
_atom_site_fract_y
_atom_site_fract_z
Si Si1 0.952092 0.696141 0.997480
Si Si2 0.525233 0.424358 0.858274
Si Si3 0.281657 0.298789 0.783320
Si Si4 0.330641 0.197271 0.996239
Si Si5 0.852612 0.213765 0.115340
O O1 0.890479 0.636918 0.962261
O O2 0.974073 0.888927 0.921144
O O3 0.000000 0.500000 0.000000
O O4 0.953106 0.804102 0.106075
O O5 0.500000 0.397588 0.750000
O O6 0.581144 0.265182 0.881755
O O7 0.255437 0.572266 0.763769
O O8 0.292188 0.239167 0.897626
O O9 0.335139 0.298969 0.723999
O O10 0.335043 0.456878 0.057359
O O11 0.322675 0.952831 0.061438
#
# Coordination Sequence:
#
# PCOD9275444 Si02
#       5
#     8   8   8   8   8
#     4  10  20  39  61  94 131 170 207 256 323 389
#     4  10  21  38  61  94 132 171 213 259 316 392
#     4  12  27  46  68  99 127 172 230 281 334 387
#     4  11  24  44  69  96 137 170 215 276 325 395
#     4  11  24  44  67  98 130 176 219 267 337 393
#
# _framework density 22.112105
#
# number of rings (size 3 to 8) (size 9 to 14) (size 15 to 20)
#    0.000    1.200    2.000    3.600    0.000    5.600 
#   10.800    0.000    0.000    0.000    0.000    0.000 
#    0.000    0.000    0.000    0.000    0.000    0.000 
#
# Total GULP energy -111543.367472 kJ/mol
# GULP energy per Si atom -5577.168374 kJ/mol
# Density = 2.206178 g / cm^3
# Si number density = 22.112105 Si / 1000 Ang^3
#
#
#
# Elastic Constant Matrix: (Units=GPa)
#
#
# Indices 1 2 3 4 5 6 
#
# 1 66.4354 -8.4004 -4.0771 0.0000 -7.6924 0.0000
# 2 -8.4004 81.5688 15.1026 0.0000 3.8246 0.0000
# 3 -4.0771 15.1026 112.8329 0.0000 14.7744 0.0000
# 4 0.0000 0.0000 0.0000 21.7193 0.0000 -0.3238
# 5 -7.6924 3.8246 14.7744 0.0000 36.5109 0.0000
# 6 0.0000 0.0000 0.0000 -0.3238 0.0000 26.7010
#
#
#
# Elastic Compliance Matrix: (Units=1/GPa)
#
#
# Indices 1 2 3 4 5 6 
#
# 1 0.015600 0.001467 -0.000045 0.000000 0.003151 0.000000
# 2 0.001467 0.012725 -0.001601 0.000000 -0.000376 0.000000
# 3 -0.000045 -0.001601 0.009561 0.000000 -0.003711 0.000000
# 4 0.000000 0.000000 0.000000 0.046050 0.000000 0.000558
# 5 0.003151 -0.000376 -0.003711 0.000000 0.029594 0.000000
# 6 0.000000 0.000000 0.000000 0.000558 0.000000 0.037459
#
#
# Mechanical properties :
#
#
# Convention : Reuss Voigt Hill
#
# Bulk Modulus (GPa) = 26.64707 29.56527 28.10617
# Shear Modulus (GPa) = 30.51456 34.20036 32.35746
#
# Velocity S-wave (km/s) = 3.71886 3.93705 3.82951
# Velocity P-wave (km/s) = 5.52421 5.83668 5.68259
#
# Compressibility (1/GPa) = 0.03752758
#
# Stress axis : x y z
#
# Youngs Moduli (GPa) = 64.10325 78.58704 104.58922
#
# Poissons Ratio (x) = -0.11530 0.00474
# Poissons Ratio (y) = -0.09405 0.16744
# Poissons Ratio (z) = 0.00291 0.12581
#
# Static dielectric constant tensor:
#      x y z
#    x 1.954750 0.000000 -0.019040 
#    y 0.000000 1.913400 0.000000 
#    z -0.019040 0.000000 1.845190 
# 
# From -- ./inp_files/120737.got.cif
#   From: 2010.05.17/outbox.cif.g08.bks.cpg/sg15_61_cif.got.tgz:120737.got - 2010.06.03 18:47:42.
