data_PCOD9275387
_publ_section_title
;
Structure prediction by ZEFSAII (Michael W. Deem and Ramdas Pophale) SiO2 
 PCOD9275387
Probable space group: C 2/C
;
_chemical_formula_sum "Si O2"
_cell_formula_units_Z 52
_cell_length_a 16.706620
_cell_length_b 22.055592
_cell_length_c 14.241740
_cell_angle_alpha 90.000000
_cell_angle_beta 149.255755
_cell_angle_gamma 90.000000
_cell_volume 2682.668169
_symmetry_space_group_name_H-M "C 2/C"
_symmetry_group_IT_number 15
_symmetry_cell_setting 'monoclinic'
loop_
_space_group_symop_operation_xyz
x,y,z
-x,y,1/2-z
-x,-y,-z
x,-y,1/2+z
1/2+x,1/2+y,z
1/2-x,1/2+y,1/2-z
1/2-x,1/2-y,-z
1/2+x,1/2-y,1/2+z
loop_
_atom_site_type_symbol
_atom_site_label
_atom_site_fract_x
_atom_site_fract_y
_atom_site_fract_z
Si Si1 0.674564 0.916026 0.403422
Si Si2 0.644357 0.505153 0.786828
Si Si3 0.650569 0.554104 0.604274
Si Si4 0.336214 0.778546 0.872684
Si Si5 0.527925 0.667348 0.979209
Si Si6 0.898535 0.287861 0.226077
Si Si7 0.500000 0.391939 0.250000
O O1 0.500000 0.937370 0.250000
O O2 0.725160 0.930282 0.348984
O O3 0.673673 0.843512 0.403682
O O4 0.789021 0.947516 0.592549
O O5 0.727000 0.524527 0.773711
O O6 0.471541 0.489981 0.572314
O O7 0.633563 0.561189 0.848068
O O8 0.551240 0.612315 0.541295
O O9 0.420595 0.726525 0.894343
O O10 0.232249 0.746777 0.848625
O O11 0.206753 0.818937 0.690013
O O12 0.479521 0.810619 0.070972
O O13 0.531118 0.648082 0.873425
O O14 0.000000 0.252006 0.250000
#
# Coordination Sequence:
#
# PCOD9275387 Si02
#       7
#     8   8   8   8   8   8   4
#     4  11  22  36  56  88 120 153 190 242 293 350
#     4  10  21  39  63  82 115 149 206 234 294 348
#     4  10  20  39  61  85 111 159 190 248 281 353
#     4  10  21  40  56  85 112 155 190 235 294 342
#     4  10  22  37  65  84 116 147 196 242 292 350
#     4  10  21  36  54  82 117 150 190 231 283 348
#     4  10  20  40  64  88 106 150 202 240 286 356
#
# _framework density 19.383687999999999
#
# number of rings (size 3 to 8) (size 9 to 14) (size 15 to 20)
#    0.000    1.846    3.077    0.462    4.308    1.231 
#    0.000    1.538    0.000    0.000    0.000    0.000 
#    0.000    0.000    0.000    0.000    0.000    0.000 
#
# Total GULP energy -144901.880406 kJ/mol
# GULP energy per Si atom -5573.149246 kJ/mol
# Density = 1.933957 g / cm^3
# Si number density = 19.383688 Si / 1000 Ang^3
#
#
#
# Elastic Constant Matrix: (Units=GPa)
#
#
# Indices 1 2 3 4 5 6 
#
# 1 136.9071 35.8439 48.1408 0.0000 -20.9147 0.0000
# 2 35.8439 71.5496 42.0092 0.0000 -20.3665 0.0000
# 3 48.1408 42.0092 93.4748 0.0000 -17.2931 0.0000
# 4 0.0000 0.0000 0.0000 36.5250 0.0000 -10.4698
# 5 -20.9147 -20.3665 -17.2931 0.0000 26.6764 0.0000
# 6 0.0000 0.0000 0.0000 -10.4698 0.0000 29.0902
#
#
#
# Elastic Compliance Matrix: (Units=1/GPa)
#
#
# Indices 1 2 3 4 5 6 
#
# 1 0.009555 -0.001616 -0.003451 0.000000 0.004020 0.000000
# 2 -0.001616 0.022054 -0.007043 0.000000 0.011004 0.000000
# 3 -0.003451 -0.007043 0.016073 0.000000 0.002337 0.000000
# 4 0.000000 0.000000 0.000000 0.030528 0.000000 0.010987
# 5 0.004020 0.011004 0.002337 0.000000 0.050554 0.000000
# 6 0.000000 0.000000 0.000000 0.010987 0.000000 0.038330
#
#
# Mechanical properties :
#
#
# Convention : Reuss Voigt Hill
#
# Bulk Modulus (GPa) = 42.62362 61.54660 52.08511
# Shear Modulus (GPa) = 25.10866 30.18751 27.64808
#
# Velocity S-wave (km/s) = 3.60300 3.95063 3.78081
# Velocity P-wave (km/s) = 6.27264 7.25470 6.78147
#
# Compressibility (1/GPa) = 0.02346117
#
# Stress axis : x y z
#
# Youngs Moduli (GPa) = 104.65789 45.34411 62.21677
#
# Poissons Ratio (x) = 0.07329 0.21470
# Poissons Ratio (y) = 0.16915 0.43820
# Poissons Ratio (z) = 0.36115 0.31936
#
# Static dielectric constant tensor:
#      x y z
#    x 1.727430 0.000000 0.008090 
#    y 0.000000 1.728660 0.000000 
#    z 0.008090 0.000000 1.687760 
# 
# From -- ./inp_files/42316.got.cif
#   From: 2010.05.17/outbox.cif.g08.bks.cpg/sg15_22_cif.got.tgz:42316.got - 2010.06.03 18:47:42.
