data_PCOD9275258
_publ_section_title
;
Structure prediction by ZEFSAII (Michael W. Deem and Ramdas Pophale) SiO2 
 PCOD9275258
Probable space group: C 2/C
;
_chemical_formula_sum "Si O2"
_cell_formula_units_Z 56
_cell_length_a 30.995974
_cell_length_b 17.842869
_cell_length_c 5.342426
_cell_angle_alpha 90.000000
_cell_angle_beta 51.866890
_cell_angle_gamma 90.000000
_cell_volume 2324.076726
_symmetry_space_group_name_H-M "C 2/C"
_symmetry_group_IT_number 15
_symmetry_cell_setting 'monoclinic'
loop_
_space_group_symop_operation_xyz
x,y,z
-x,y,1/2-z
-x,-y,-z
x,-y,1/2+z
1/2+x,1/2+y,z
1/2-x,1/2+y,1/2-z
1/2-x,1/2-y,-z
1/2+x,1/2-y,1/2+z
loop_
_atom_site_type_symbol
_atom_site_label
_atom_site_fract_x
_atom_site_fract_y
_atom_site_fract_z
Si Si1 0.838266 0.952422 0.551408
Si Si2 0.500000 0.261827 0.750000
Si Si3 0.118272 0.190404 0.818513
Si Si4 0.282519 0.697492 0.692483
Si Si5 0.437953 0.969190 0.170243
Si Si6 0.676765 0.818232 0.345274
Si Si7 0.708150 0.954626 0.990662
Si Si8 0.500000 0.166873 0.250000
O O1 0.871512 0.874775 0.420020
O O2 0.773237 0.934084 0.761186
O O3 0.849615 0.996137 0.767933
O O4 0.554995 0.307436 0.617639
O O5 0.513087 0.214190 0.451688
O O6 0.163550 0.168159 0.865239
O O7 0.134421 0.275860 0.676650
O O8 0.303032 0.748047 0.391902
O O9 0.230485 0.648507 0.796255
O O10 0.250000 0.750000 0.000000
O O11 0.413395 0.979296 0.536273
O O12 0.332470 0.884690 0.315912
O O13 0.500000 0.000000 0.000000
O O14 0.549728 0.886821 0.480972
O O15 0.699130 0.989302 0.752271
#
# Coordination Sequence:
#
# PCOD9275258 Si02
#       8
#     8   4   8   8   8   8   8   4
#     4  10  23  40  66 100 136 171 214 275 342 417
#     4  12  28  43  64  93 126 186 234 296 322 386
#     4  11  26  43  67  95 138 179 237 279 339 408
#     4   9  19  35  65  98 127 162 220 269 344 408
#     4   8  13  26  56  86 107 140 191 274 347 394
#     4  10  21  38  67  99 136 180 215 276 343 408
#     4  10  22  36  62 103 142 175 214 267 341 414
#     4  10  20  39  58  87 122 156 230 286 342 364
#
# _framework density 24.095592
#
# number of rings (size 3 to 8) (size 9 to 14) (size 15 to 20)
#    0.000    2.286    0.000    4.286   14.000    0.000 
#    0.000    0.714    0.000   15.429    0.000    0.000 
#    0.000    0.000    0.000    0.000    0.000    0.000 
#
# Total GULP energy -156322.426303 kJ/mol
# GULP energy per Si atom -5582.943797 kJ/mol
# Density = 2.404075 g / cm^3
# Si number density = 24.095592 Si / 1000 Ang^3
#
#
#
# Elastic Constant Matrix: (Units=GPa)
#
#
# Indices 1 2 3 4 5 6 
#
# 1 85.8654 20.9840 75.7750 0.0000 -6.9543 0.0000
# 2 20.9840 94.7021 37.0711 0.0000 -1.2724 0.0000
# 3 75.7750 37.0711 86.8069 0.0000 7.8645 0.0000
# 4 0.0000 0.0000 0.0000 33.7406 0.0000 18.9138
# 5 -6.9543 -1.2724 7.8645 0.0000 55.2707 0.0000
# 6 0.0000 0.0000 0.0000 18.9138 0.0000 10.0498
#
#
#
# Elastic Compliance Matrix: (Units=1/GPa)
#
#
# Indices 1 2 3 4 5 6 
#
# 1 0.070356 0.011250 -0.067921 0.000000 0.018776 0.000000
# 2 0.011250 0.014541 -0.016400 0.000000 0.004084 0.000000
# 3 -0.067921 -0.016400 0.079648 0.000000 -0.020257 0.000000
# 4 0.000000 0.000000 0.000000 -0.538919 0.000000 1.014255
# 5 0.018776 0.004084 -0.020257 0.000000 0.023432 0.000000
# 6 0.000000 0.000000 0.000000 1.014255 0.000000 -1.809340
#
#
# Mechanical properties :
#
#
# Convention : Reuss Voigt Hill
#
# Bulk Modulus (GPa) = 54.33617 59.44831 56.89224
# Shear Modulus (GPa) = -2.49003 28.71516 13.11256
#
# Velocity S-wave (km/s) = -1.01766 3.45587 2.33532
# Velocity P-wave (km/s) = 4.60634 6.37570 5.56183
#
# Compressibility (1/GPa) = 0.01840395
#
# Stress axis : x y z
#
# Youngs Moduli (GPa) = 14.21337 68.76908 12.55530
#
# Poissons Ratio (x) = -0.77367 0.85276
# Poissons Ratio (y) = -0.15990 0.20591
# Poissons Ratio (z) = 0.96538 1.12784
#
# Static dielectric constant tensor:
#      x y z
#    x 2.054140 0.000000 0.044470 
#    y 0.000000 2.004170 0.000000 
#    z 0.044470 0.000000 2.060580 
# 
# From -- ./inp_files/17673.got.cif
#   From: 2010.05.17/outbox.cif.g08.bks.cpg/sg15_9_cif.got.tgz:17673.got - 2010.06.03 18:47:42.
