data_PCOD9275794
_publ_section_title
;
Structure prediction by ZEFSAII (Michael W. Deem and Ramdas Pophale) SiO2 
 PCOD9275794
Probable space group: C 2/C
;
_chemical_formula_sum "Si O2"
_cell_formula_units_Z 52
_cell_length_a 22.488497
_cell_length_b 25.288520
_cell_length_c 5.206171
_cell_angle_alpha 90.000000
_cell_angle_beta 129.048350
_cell_angle_gamma 90.000000
_cell_volume 2299.364573
_symmetry_space_group_name_H-M "C 2/C"
_symmetry_group_IT_number 15
_symmetry_cell_setting 'monoclinic'
loop_
_space_group_symop_operation_xyz
x,y,z
-x,y,1/2-z
-x,-y,-z
x,-y,1/2+z
1/2+x,1/2+y,z
1/2-x,1/2+y,1/2-z
1/2-x,1/2-y,-z
1/2+x,1/2-y,1/2+z
loop_
_atom_site_type_symbol
_atom_site_label
_atom_site_fract_x
_atom_site_fract_y
_atom_site_fract_z
Si Si1 0.632776 0.848922 0.873167
Si Si2 0.083673 0.859257 0.107072
Si Si3 0.837980 0.969568 0.267805
Si Si4 0.286405 0.710079 0.805037
Si Si5 0.152918 0.467845 0.771460
Si Si6 0.000000 0.205017 0.750000
Si Si7 0.403939 0.787176 0.247686
O O1 0.624465 0.909788 0.771972
O O2 0.606989 0.814116 0.557262
O O3 0.721568 0.833817 0.179013
O O4 0.590056 0.830983 0.014534
O O5 0.121297 0.916421 0.210340
O O6 0.142888 0.821348 0.126026
O O7 0.067217 0.832729 0.336588
O O8 0.000000 0.862060 0.750000
O O9 0.858930 0.986123 0.613832
O O10 0.745868 0.963650 0.014311
O O11 0.250000 0.750000 0.500000
O O12 0.328878 0.750879 0.112832
O O13 0.130488 0.490456 0.432455
O O14 0.972414 0.245508 0.457286
#
# Coordination Sequence:
#
# PCOD9275794 Si02
#       7
#     8   8   8   8   8   4   8
#     4  11  22  40  66  97 123 165 215 262 335 377
#     4  12  25  43  63  90 129 177 221 266 323 377
#     4  10  24  43  63  88 122 170 223 271 314 363
#     4  10  21  41  61  91 124 166 215 271 318 381
#     4  10  20  39  64  95 127 158 207 272 323 374
#     4  12  26  42  62  92 136 170 218 258 322 386
#     4  11  24  40  63  93 129 169 212 264 316 398
#
# _framework density 22.614944000000001
#
# number of rings (size 3 to 8) (size 9 to 14) (size 15 to 20)
#    0.000    1.231    3.077    3.231    2.154    1.846 
#    2.769    0.000    0.000    0.000    0.000   10.769 
#    0.000    0.000    0.000    0.000    0.000    0.000 
#
# Total GULP energy -145298.557349 kJ/mol
# GULP energy per Si atom -5588.406052 kJ/mol
# Density = 2.256347 g / cm^3
# Si number density = 22.614944 Si / 1000 Ang^3
#
#
#
# Elastic Constant Matrix: (Units=GPa)
#
#
# Indices 1 2 3 4 5 6 
#
# 1 62.1130 23.9683 14.8314 0.0000 -23.6221 0.0000
# 2 23.9683 118.9490 10.4262 0.0000 -9.4773 0.0000
# 3 14.8314 10.4262 53.6149 0.0000 -19.7839 0.0000
# 4 0.0000 0.0000 0.0000 25.7727 0.0000 -6.4761
# 5 -23.6221 -9.4773 -19.7839 0.0000 27.1269 0.0000
# 6 0.0000 0.0000 0.0000 -6.4761 0.0000 48.2162
#
#
#
# Elastic Compliance Matrix: (Units=1/GPa)
#
#
# Indices 1 2 3 4 5 6 
#
# 1 0.025513 -0.003524 0.001876 0.000000 0.022354 0.000000
# 2 -0.003524 0.009158 -0.001037 0.000000 -0.000626 0.000000
# 3 0.001876 -0.001037 0.025727 0.000000 0.020034 0.000000
# 4 0.000000 0.000000 0.000000 0.040156 0.000000 0.005394
# 5 0.022354 -0.000626 0.020034 0.000000 0.070722 0.000000
# 6 0.000000 0.000000 0.000000 0.005394 0.000000 0.021464
#
#
# Mechanical properties :
#
#
# Convention : Reuss Voigt Hill
#
# Bulk Modulus (GPa) = 18.17250 37.01430 27.59340
# Shear Modulus (GPa) = 23.09972 32.58656 27.84314
#
# Velocity S-wave (km/s) = 3.19946 3.80008 3.51263
# Velocity P-wave (km/s) = 4.65852 5.97133 5.35531
#
# Compressibility (1/GPa) = 0.05502821
#
# Stress axis : x y z
#
# Youngs Moduli (GPa) = 39.19576 109.19232 38.86992
#
# Poissons Ratio (x) = 0.38483 -0.07293
# Poissons Ratio (y) = 0.13814 0.04030
# Poissons Ratio (z) = -0.07354 0.11322
#
# Static dielectric constant tensor:
#      x y z
#    x 1.899710 0.000000 0.042140 
#    y 0.000000 1.803260 0.000000 
#    z 0.042140 0.000000 1.894250 
# 
# From -- ./inp_files/16244.got.cif
#   From: 2010.05.17/outbox.cif.g08.bks.cpg/sg15_9_cif.got.tgz:16244.got - 2010.06.03 18:47:42.
