data_PCOD9275395
_publ_section_title
;
Structure prediction by ZEFSAII (Michael W. Deem and Ramdas Pophale) SiO2 
 PCOD9275395
Probable space group: C 2/C
;
_chemical_formula_sum "Si O2"
_cell_formula_units_Z 40
_cell_length_a 14.352184
_cell_length_b 11.293474
_cell_length_c 9.619923
_cell_angle_alpha 90.000000
_cell_angle_beta 71.094373
_cell_angle_gamma 90.000000
_cell_volume 1475.138718
_symmetry_space_group_name_H-M "C 2/C"
_symmetry_group_IT_number 15
_symmetry_cell_setting 'monoclinic'
loop_
_space_group_symop_operation_xyz
x,y,z
-x,y,1/2-z
-x,-y,-z
x,-y,1/2+z
1/2+x,1/2+y,z
1/2-x,1/2+y,1/2-z
1/2-x,1/2-y,-z
1/2+x,1/2-y,1/2+z
loop_
_atom_site_type_symbol
_atom_site_label
_atom_site_fract_x
_atom_site_fract_y
_atom_site_fract_z
Si Si1 0.006616 0.338579 0.035234
Si Si2 0.880648 0.300880 0.863092
Si Si3 0.159395 0.666067 0.664372
Si Si4 0.180716 0.866620 0.850415
Si Si5 0.387107 0.622266 0.606473
O O1 0.112002 0.378469 0.043614
O O2 0.920951 0.375613 0.182188
O O3 0.035500 0.197515 0.021250
O O4 0.972089 0.366151 0.896390
O O5 0.797729 0.382586 0.830532
O O6 0.896542 0.191004 0.749564
O O7 0.842465 0.231778 0.020334
O O8 0.164526 0.805259 0.709218
O O9 0.273053 0.638051 0.620331
O O10 0.112847 0.981611 0.891649
#
# Coordination Sequence:
#
# PCOD9275395 Si02
#       5
#     8   8   8   8   8
#     4  10  20  39  61  86 125 156 199 253 304 348
#     4   9  20  39  57  87 127 155 196 262 301 349
#     4   9  21  39  58  87 126 155 197 263 296 353
#     4   9  20  38  61  86 122 163 199 251 306 360
#     4  11  21  36  66  88 116 167 210 237 311 371
#
# _framework density 27.116095000000001
#
# number of rings (size 3 to 8) (size 9 to 14) (size 15 to 20)
#    0.000    2.400    0.000    2.400    2.800    3.200 
#    7.200    1.000   17.600    0.000    0.000    0.000 
#    0.000    0.000    0.000    0.000    0.000    0.000 
#
# Total GULP energy -111391.633214 kJ/mol
# GULP energy per Si atom -5569.581661 kJ/mol
# Density = 2.705438 g / cm^3
# Si number density = 27.116095 Si / 1000 Ang^3
#
#
#
# Elastic Constant Matrix: (Units=GPa)
#
#
# Indices 1 2 3 4 5 6 
#
# 1 203.0394 19.4189 58.8692 0.0000 29.6157 0.0000
# 2 19.4189 125.2767 0.5782 0.0000 -7.7195 0.0000
# 3 58.8692 0.5782 117.0234 0.0000 28.6177 0.0000
# 4 0.0000 0.0000 0.0000 9.8674 0.0000 -18.1740
# 5 29.6157 -7.7195 28.6177 0.0000 54.5061 0.0000
# 6 0.0000 0.0000 0.0000 -18.1740 0.0000 30.1445
#
#
#
# Elastic Compliance Matrix: (Units=1/GPa)
#
#
# Indices 1 2 3 4 5 6 
#
# 1 0.006069 -0.001060 -0.002529 0.000000 -0.002120 0.000000
# 2 -0.001060 0.008251 0.000075 0.000000 0.001705 0.000000
# 3 -0.002529 0.000075 0.010875 0.000000 -0.004325 0.000000
# 4 0.000000 0.000000 0.000000 -0.917772 0.000000 -0.553321
# 5 -0.002120 0.001705 -0.004325 0.000000 0.022010 0.000000
# 6 0.000000 0.000000 0.000000 -0.553321 0.000000 -0.300422
#
#
# Mechanical properties :
#
#
# Convention : Reuss Voigt Hill
#
# Bulk Modulus (GPa) = 55.04241 67.00802 61.02522
# Shear Modulus (GPa) = -4.31815 43.33512 19.50849
#
# Velocity S-wave (km/s) = -1.26330 4.00200 2.68515
# Velocity P-wave (km/s) = 4.26790 6.79116 5.67163
#
# Compressibility (1/GPa) = 0.01816781
#
# Stress axis : x y z
#
# Youngs Moduli (GPa) = 164.76969 121.19310 91.95407
#
# Poissons Ratio (x) = 0.12843 0.23260
# Poissons Ratio (y) = 0.17461 -0.00693
# Poissons Ratio (z) = 0.41678 -0.00914
#
# Static dielectric constant tensor:
#      x y z
#    x 2.369120 0.000000 -0.044320 
#    y 0.000000 2.246770 0.000000 
#    z -0.044320 0.000000 2.169940 
# 
# From -- ./inp_files/94477.got.cif
#   From: 2010.05.17/outbox.cif.g08.bks.cpg/sg15_48_cif.got.tgz:94477.got - 2010.06.03 18:47:42.
