data_PCOD9275263
_publ_section_title
;
Structure prediction by ZEFSAII (Michael W. Deem and Ramdas Pophale) SiO2 
 PCOD9275263
Probable space group: C 2/C
;
_chemical_formula_sum "Si O2"
_cell_formula_units_Z 40
_cell_length_a 19.349121
_cell_length_b 12.215818
_cell_length_c 12.299296
_cell_angle_alpha 90.000000
_cell_angle_beta 39.408244
_cell_angle_gamma 90.000000
_cell_volume 1845.565605
_symmetry_space_group_name_H-M "C 2/C"
_symmetry_group_IT_number 15
_symmetry_cell_setting 'monoclinic'
loop_
_space_group_symop_operation_xyz
x,y,z
-x,y,1/2-z
-x,-y,-z
x,-y,1/2+z
1/2+x,1/2+y,z
1/2-x,1/2+y,1/2-z
1/2-x,1/2-y,-z
1/2+x,1/2-y,1/2+z
loop_
_atom_site_type_symbol
_atom_site_label
_atom_site_fract_x
_atom_site_fract_y
_atom_site_fract_z
Si Si1 0.442438 0.425981 0.719156
Si Si2 0.347340 0.085149 0.723029
Si Si3 0.405521 0.839858 0.612182
Si Si4 0.119980 0.690512 0.605019
Si Si5 0.354001 0.387558 0.190769
O O1 0.500000 0.485946 0.750000
O O2 0.398985 0.311788 0.821801
O O3 0.539335 0.398090 0.516945
O O4 0.360147 0.508353 0.761977
O O5 0.463202 0.143826 0.555282
O O6 0.314775 0.128062 0.881624
O O7 0.255474 0.108796 0.746315
O O8 0.363883 0.955209 0.705618
O O9 0.353139 0.817824 0.554786
O O10 0.371085 0.732698 0.720783
O O11 0.000000 0.635821 0.750000
#
# Coordination Sequence:
#
# PCOD9275263 Si02
#       5
#     8   8   8   8   8
#     4  10  20  39  58  89 118 152 200 246 291 344
#     4  10  22  35  59  90 117 155 200 243 297 351
#     4  10  21  41  57  86 125 154 197 250 291 347
#     4   9  17  39  61  82 115 157 193 243 291 342
#     4  11  22  34  64  86 117 156 197 247 291 355
#
# _framework density 21.673573999999999
#
# number of rings (size 3 to 8) (size 9 to 14) (size 15 to 20)
#    0.000    2.000    6.000    0.000    2.800    2.400 
#    0.000    5.000    0.000    3.600    0.000    0.000 
#    0.000    0.000    0.000    0.000    0.000    0.000 
#
# Total GULP energy -111552.248773 kJ/mol
# GULP energy per Si atom -5577.612439 kJ/mol
# Density = 2.162424 g / cm^3
# Si number density = 21.673574 Si / 1000 Ang^3
#
#
#
# Elastic Constant Matrix: (Units=GPa)
#
#
# Indices 1 2 3 4 5 6 
#
# 1 152.8448 79.2893 21.5614 0.0000 -11.4600 0.0000
# 2 79.2893 148.1914 31.3006 0.0000 -8.9531 0.0000
# 3 21.5614 31.3006 41.5683 0.0000 -13.4719 0.0000
# 4 0.0000 0.0000 0.0000 -6.9758 0.0000 9.6033
# 5 -11.4600 -8.9531 -13.4719 0.0000 30.4171 0.0000
# 6 0.0000 0.0000 0.0000 9.6033 0.0000 38.7882
#
#
#
# Elastic Compliance Matrix: (Units=1/GPa)
#
#
# Indices 1 2 3 4 5 6 
#
# 1 0.009194 -0.004669 -0.000673 0.000000 0.001792 0.000000
# 2 -0.004669 0.010399 -0.005822 0.000000 -0.001277 0.000000
# 3 -0.000673 -0.005822 0.032871 0.000000 0.012591 0.000000
# 4 0.000000 0.000000 0.000000 -0.106913 0.000000 0.026470
# 5 0.001792 -0.001277 0.012591 0.000000 0.038752 0.000000
# 6 0.000000 0.000000 0.000000 0.026470 0.000000 0.019228
#
#
# Mechanical properties :
#
#
# Convention : Reuss Voigt Hill
#
# Bulk Modulus (GPa) = 33.18316 67.43412 50.30864
# Shear Modulus (GPa) = 139.26621 26.47611 82.87116
#
# Velocity S-wave (km/s) = 8.02469 3.49891 6.19024
# Velocity P-wave (km/s) = 10.06005 6.89233 8.62290
#
# Compressibility (1/GPa) = 0.03013577
#
# Stress axis : x y z
#
# Youngs Moduli (GPa) = 108.76936 96.16616 30.42235
#
# Poissons Ratio (x) = 0.44898 0.02046
# Poissons Ratio (y) = 0.50782 0.17713
# Poissons Ratio (z) = 0.07315 0.55991
#
# Static dielectric constant tensor:
#      x y z
#    x 1.833020 0.000000 -0.028400 
#    y 0.000000 1.819380 0.000000 
#    z -0.028400 0.000000 1.850500 
# 
# From -- ./inp_files/160186.got.cif
#   From: 2010.05.17/outbox.cif.g08.bks.cpg/sg15_81_cif.got.tgz:160186.got - 2010.06.03 18:47:42.
