data_PCOD9275760
_publ_section_title
;
Structure prediction by ZEFSAII (Michael W. Deem and Ramdas Pophale) SiO2 
 PCOD9275760
Probable space group: C 2/C
;
_chemical_formula_sum "Si O2"
_cell_formula_units_Z 36
_cell_length_a 8.108830
_cell_length_b 27.678261
_cell_length_c 12.273768
_cell_angle_alpha 90.000000
_cell_angle_beta 140.319824
_cell_angle_gamma 90.000000
_cell_volume 1758.882697
_symmetry_space_group_name_H-M "C 2/C"
_symmetry_group_IT_number 15
_symmetry_cell_setting 'monoclinic'
loop_
_space_group_symop_operation_xyz
x,y,z
-x,y,1/2-z
-x,-y,-z
x,-y,1/2+z
1/2+x,1/2+y,z
1/2-x,1/2+y,1/2-z
1/2-x,1/2-y,-z
1/2+x,1/2-y,1/2+z
loop_
_atom_site_type_symbol
_atom_site_label
_atom_site_fract_x
_atom_site_fract_y
_atom_site_fract_z
Si Si1 0.500000 0.431469 0.750000
Si Si2 0.228313 0.783020 0.596280
Si Si3 0.503405 0.899727 0.121382
Si Si4 0.803873 0.302866 0.248774
Si Si5 0.244362 0.499749 0.294175
O O1 0.286704 0.403792 0.570514
O O2 0.680096 0.462941 0.761322
O O3 0.500000 0.809850 0.750000
O O4 0.250000 0.750000 0.500000
O O5 0.197006 0.745192 0.678938
O O6 0.973021 0.813211 0.446798
O O7 0.500000 0.893837 0.250000
O O8 0.624321 0.849540 0.142588
O O9 0.667844 0.949151 0.195398
O O10 0.000000 0.294351 0.250000
O O11 0.500000 0.500000 0.500000
O O12 0.000000 0.510607 0.250000
#
# Coordination Sequence:
#
# PCOD9275760 Si02
#       5
#     4   8   8   8   8
#     4  12  22  44  70  92 134 186 210 272 336 374
#     4   9  19  39  60  86 125 161 199 260 323 381
#     4  10  22  41  63  95 132 161 222 270 310 393
#     4  10  20  39  64  92 122 165 212 262 318 384
#     4  11  22  42  66  96 132 172 220 268 325 388
#
# _framework density 20.46754
#
# number of rings (size 3 to 8) (size 9 to 14) (size 15 to 20)
#    0.000    1.778    4.444    1.333    0.000    0.000 
#   24.000    1.111    0.000    0.000    0.000    0.000 
#    0.000    0.000    0.000    0.000    0.000    0.000 
#
# Total GULP energy -100297.130012 kJ/mol
# GULP energy per Si atom -5572.062778 kJ/mol
# Density = 2.042095 g / cm^3
# Si number density = 20.467540 Si / 1000 Ang^3
#
#
#
# Elastic Constant Matrix: (Units=GPa)
#
#
# Indices 1 2 3 4 5 6 
#
# 1 89.7612 11.4614 36.4306 0.0000 16.2430 0.0000
# 2 11.4614 65.1509 37.3523 0.0000 11.7167 0.0000
# 3 36.4306 37.3523 160.6134 0.0000 18.9087 0.0000
# 4 0.0000 0.0000 0.0000 -7.8106 0.0000 -10.5370
# 5 16.2430 11.7167 18.9087 0.0000 37.6497 0.0000
# 6 0.0000 0.0000 0.0000 -10.5370 0.0000 -66.5326
#
#
#
# Elastic Compliance Matrix: (Units=1/GPa)
#
#
# Indices 1 2 3 4 5 6 
#
# 1 0.012910 -0.000122 -0.002390 0.000000 -0.004331 0.000000
# 2 -0.000122 0.018199 -0.003767 0.000000 -0.003719 0.000000
# 3 -0.002390 -0.003767 0.007849 0.000000 -0.001739 0.000000
# 4 0.000000 0.000000 0.000000 -0.162819 0.000000 0.025786
# 5 -0.004331 -0.003719 -0.001739 0.000000 0.030460 0.000000
# 6 0.000000 0.000000 0.000000 0.025786 0.000000 -0.019114
#
#
# Mechanical properties :
#
#
# Convention : Reuss Voigt Hill
#
# Bulk Modulus (GPa) = 37.87831 54.00158 45.93994
# Shear Modulus (GPa) = -54.85001 8.01339 -23.41831
#
# Velocity S-wave (km/s) = -5.18235 1.98083 -3.38623
# Velocity P-wave (km/s) = 4.15479 5.62786 2.68427
#
# Compressibility (1/GPa) = 0.02640033
#
# Stress axis : x y z
#
# Youngs Moduli (GPa) = 77.45897 54.94837 127.40594
#
# Poissons Ratio (x) = 0.00670 0.30450
# Poissons Ratio (y) = 0.00945 0.47992
# Poissons Ratio (z) = 0.18513 0.20698
#
# Static dielectric constant tensor:
#      x y z
#    x 1.704430 0.000000 0.023340 
#    y 0.000000 1.846640 0.000000 
#    z 0.023340 0.000000 1.775560 
# 
# From -- ./inp_files/24369.got.cif
#   From: 2010.05.17/outbox.cif.g08.bks.cpg/sg15_13_cif.got.tgz:24369.got - 2010.06.03 18:47:42.
