data_PCOD9275980
_publ_section_title
;
Structure prediction by ZEFSAII (Michael W. Deem and Ramdas Pophale) SiO2 
 PCOD9275980
Probable space group: C 2/C
;
_chemical_formula_sum "Si O2"
_cell_formula_units_Z 56
_cell_length_a 11.910010
_cell_length_b 29.177143
_cell_length_c 9.201351
_cell_angle_alpha 90.000000
_cell_angle_beta 123.129234
_cell_angle_gamma 90.000000
_cell_volume 2677.689240
_symmetry_space_group_name_H-M "C 2/C"
_symmetry_group_IT_number 15
_symmetry_cell_setting 'monoclinic'
loop_
_space_group_symop_operation_xyz
x,y,z
-x,y,1/2-z
-x,-y,-z
x,-y,1/2+z
1/2+x,1/2+y,z
1/2-x,1/2+y,1/2-z
1/2-x,1/2-y,-z
1/2+x,1/2-y,1/2+z
loop_
_atom_site_type_symbol
_atom_site_label
_atom_site_fract_x
_atom_site_fract_y
_atom_site_fract_z
Si Si1 0.757506 0.487457 0.681366
Si Si2 0.338926 0.891796 0.638863
Si Si3 0.000000 0.247374 0.750000
Si Si4 0.852125 0.945673 0.598930
Si Si5 0.783941 0.306342 0.406768
Si Si6 0.653459 0.124257 0.025918
Si Si7 0.500000 0.949141 0.250000
Si Si8 0.139529 0.283097 0.360047
O O1 0.772891 0.441839 0.594853
O O2 0.726543 0.471355 0.823374
O O3 0.646999 0.521252 0.538147
O O4 0.889944 0.517795 0.744515
O O5 0.500000 0.896672 0.750000
O O6 0.287732 0.856396 0.482593
O O7 0.309809 0.872786 0.779801
O O8 0.131968 0.215678 0.805675
O O9 0.912636 0.280240 0.577320
O O10 0.776055 0.897873 0.523009
O O11 0.000000 0.935787 0.750000
O O12 0.817843 0.303692 0.262740
O O13 0.542618 0.085915 0.908860
O O14 0.615354 0.173933 0.946867
O O15 0.250000 0.250000 0.500000
O O16 0.000000 0.256519 0.250000
#
# Coordination Sequence:
#
# PCOD9275980 Si02
#       8
#     8   8   4   8   8   8   4   8
#     4  10  22  36  64  91 123 169 210 267 312 383
#     4  11  22  37  62  95 129 161 213 269 327 382
#     4  10  24  43  68  94 124 166 221 260 340 372
#     4  10  22  41  59  86 125 172 210 256 315 385
#     4  11  24  44  68  93 129 170 212 280 319 404
#     4  10  24  39  61  92 129 167 208 272 318 386
#     4  10  20  39  66  94 130 160 223 262 330 370
#     4  12  26  44  68  99 128 171 221 273 336 396
#
# _framework density 20.913553
#
# number of rings (size 3 to 8) (size 9 to 14) (size 15 to 20)
#    0.000    1.429    2.143    2.143    6.000    3.429 
#    6.429    0.000    0.000    0.000    0.000    0.000 
#    0.000    0.000    0.000    0.000    0.000    0.000 
#
# Total GULP energy -156057.766544 kJ/mol
# GULP energy per Si atom -5573.491662 kJ/mol
# Density = 2.086595 g / cm^3
# Si number density = 20.913553 Si / 1000 Ang^3
#
#
#
# Elastic Constant Matrix: (Units=GPa)
#
#
# Indices 1 2 3 4 5 6 
#
# 1 64.0058 23.7546 19.9653 0.0000 16.5289 0.0000
# 2 23.7546 76.6237 36.1313 0.0000 8.9609 0.0000
# 3 19.9653 36.1313 77.7111 0.0000 9.5744 0.0000
# 4 0.0000 0.0000 0.0000 38.1191 0.0000 -14.3150
# 5 16.5289 8.9609 9.5744 0.0000 41.2412 0.0000
# 6 0.0000 0.0000 0.0000 -14.3150 0.0000 21.3151
#
#
#
# Elastic Compliance Matrix: (Units=1/GPa)
#
#
# Indices 1 2 3 4 5 6 
#
# 1 0.019556 -0.004249 -0.002261 0.000000 -0.006390 0.000000
# 2 -0.004249 0.017782 -0.007113 0.000000 -0.000509 0.000000
# 3 -0.002261 -0.007113 0.016939 0.000000 -0.001481 0.000000
# 4 0.000000 0.000000 0.000000 0.035081 0.000000 0.023560
# 5 -0.006390 -0.000509 -0.001481 0.000000 0.027263 0.000000
# 6 0.000000 0.000000 0.000000 0.023560 0.000000 0.062738
#
#
# Mechanical properties :
#
#
# Convention : Reuss Voigt Hill
#
# Bulk Modulus (GPa) = 36.99696 42.00478 39.50087
# Shear Modulus (GPa) = 23.18943 29.36772 26.27858
#
# Velocity S-wave (km/s) = 3.33351 3.75139 3.54861
# Velocity P-wave (km/s) = 5.70484 6.23638 5.97652
#
# Compressibility (1/GPa) = 0.02702925
#
# Stress axis : x y z
#
# Youngs Moduli (GPa) = 51.13521 56.23731 59.03608
#
# Poissons Ratio (x) = 0.23896 0.13351
# Poissons Ratio (y) = 0.21728 0.41993
# Poissons Ratio (z) = 0.11564 0.40002
#
# Static dielectric constant tensor:
#      x y z
#    x 2.022320 0.000000 0.266210 
#    y 0.000000 1.735690 0.000000 
#    z 0.266210 0.000000 2.049020 
# 
# From -- ./inp_files/35823.got.cif
#   From: 2010.05.17/outbox.cif.g08.bks.cpg/sg15_18_cif.got.tgz:35823.got - 2010.06.03 18:47:42.
