data_PCOD9275035
_publ_section_title
;
Structure prediction by ZEFSAII (Michael W. Deem and Ramdas Pophale) SiO2 
 PCOD9275035
Probable space group: C 2/C
;
_chemical_formula_sum "Si O2"
_cell_formula_units_Z 60
_cell_length_a 25.162611
_cell_length_b 16.458335
_cell_length_c 16.109709
_cell_angle_alpha 90.000000
_cell_angle_beta 157.717193
_cell_angle_gamma 90.000000
_cell_volume 2529.723258
_symmetry_space_group_name_H-M "C 2/C"
_symmetry_group_IT_number 15
_symmetry_cell_setting 'monoclinic'
loop_
_space_group_symop_operation_xyz
x,y,z
-x,y,1/2-z
-x,-y,-z
x,-y,1/2+z
1/2+x,1/2+y,z
1/2-x,1/2+y,1/2-z
1/2-x,1/2-y,-z
1/2+x,1/2-y,1/2+z
loop_
_atom_site_type_symbol
_atom_site_label
_atom_site_fract_x
_atom_site_fract_y
_atom_site_fract_z
Si Si1 0.010054 0.514689 0.113974
Si Si2 0.425474 0.415926 0.718183
Si Si3 0.123131 0.346586 0.334014
Si Si4 0.684717 0.581574 0.935050
Si Si5 0.939708 0.879779 0.416622
Si Si6 0.000000 0.218130 0.750000
Si Si7 0.685278 0.734485 0.280402
Si Si8 0.669080 0.161905 0.602784
O O1 0.030076 0.426735 0.186960
O O2 0.148783 0.570062 0.328210
O O3 0.000000 0.500000 0.000000
O O4 0.884040 0.568941 0.968680
O O5 0.500000 0.371497 0.750000
O O6 0.280682 0.376076 0.537228
O O7 0.372225 0.500991 0.603345
O O8 0.522496 0.420986 0.940359
O O9 0.164508 0.305743 0.481179
O O10 0.100616 0.274106 0.236091
O O11 0.619997 0.573857 0.749113
O O12 0.622257 0.660069 0.890158
O O13 0.806627 0.824881 0.246883
O O14 0.080499 0.833493 0.594038
O O15 0.946592 0.278422 0.601792
O O16 0.701241 0.807928 0.240895
#
# Coordination Sequence:
#
# PCOD9275035 Si02
#       8
#     8   8   8   8   8   4   8   8
#     4  11  24  42  69  95 136 180 226 280 348 409
#     4  10  20  38  68 101 131 174 220 274 339 403
#     4   9  20  39  67  97 136 175 221 284 335 407
#     4  11  24  43  65  97 132 177 223 279 336 405
#     4  11  24  41  68  97 136 173 227 280 333 407
#     4  12  26  42  68  98 136 176 234 270 332 416
#     4  10  20  41  68  98 134 175 226 278 343 396
#     4  12  25  40  68  98 131 181 226 277 340 408
#
# _framework density 23.718008999999999
#
# number of rings (size 3 to 8) (size 9 to 14) (size 15 to 20)
#    0.000    1.333    3.333    2.000    3.733    1.067 
#    0.000    0.000   14.667    0.000    0.000    0.000 
#    0.000    0.000    0.000    0.000    0.000    0.000 
#
# Total GULP energy -167500.939948 kJ/mol
# GULP energy per Si atom -5583.364665 kJ/mol
# Density = 2.366403 g / cm^3
# Si number density = 23.718009 Si / 1000 Ang^3
#
#
#
# Elastic Constant Matrix: (Units=GPa)
#
#
# Indices 1 2 3 4 5 6 
#
# 1 35.6546 2.8196 5.4075 0.0000 -11.7025 0.0000
# 2 2.8196 113.0995 32.2783 0.0000 -10.7029 0.0000
# 3 5.4075 32.2783 95.9354 0.0000 -16.9659 0.0000
# 4 0.0000 0.0000 0.0000 39.0787 0.0000 -5.7919
# 5 -11.7025 -10.7029 -16.9659 0.0000 30.8927 0.0000
# 6 0.0000 0.0000 0.0000 -5.7919 0.0000 12.1027
#
#
#
# Elastic Compliance Matrix: (Units=1/GPa)
#
#
# Indices 1 2 3 4 5 6 
#
# 1 0.032050 0.000292 0.000288 0.000000 0.012400 0.000000
# 2 0.000292 0.009870 -0.003005 0.000000 0.001880 0.000000
# 3 0.000288 -0.003005 0.012464 0.000000 0.005913 0.000000
# 4 0.000000 0.000000 0.000000 0.027543 0.000000 0.013181
# 5 0.012400 0.001880 0.005913 0.000000 0.040966 0.000000
# 6 0.000000 0.000000 0.000000 0.013181 0.000000 0.088935
#
#
# Mechanical properties :
#
#
# Convention : Reuss Voigt Hill
#
# Bulk Modulus (GPa) = 20.18760 36.18891 28.18825
# Shear Modulus (GPa) = 21.44184 30.02709 25.73446
#
# Velocity S-wave (km/s) = 3.00997 3.56195 3.29753
# Velocity P-wave (km/s) = 4.53981 5.67519 5.13896
#
# Compressibility (1/GPa) = 0.04953537
#
# Stress axis : x y z
#
# Youngs Moduli (GPa) = 31.20110 101.31745 80.22984
#
# Poissons Ratio (x) = -0.02961 -0.02312
# Poissons Ratio (y) = -0.00912 0.24108
# Poissons Ratio (z) = -0.00899 0.30444
#
# Static dielectric constant tensor:
#      x y z
#    x 1.974680 0.000000 -0.012660 
#    y 0.000000 1.916380 0.000000 
#    z -0.012660 0.000000 1.928720 
# 
# From -- ./inp_files/225799.got.cif
#   From: 2010.05.17/outbox.cif.g08.bks.cpg/sg15_113_cif.got.tgz:225799.got - 2010.06.03 18:47:42.
