data_PCOD9275376
_publ_section_title
;
Structure prediction by ZEFSAII (Michael W. Deem and Ramdas Pophale) SiO2 
 PCOD9275376
Probable space group: C 2/C
;
_chemical_formula_sum "Si O2"
_cell_formula_units_Z 48
_cell_length_a 14.331654
_cell_length_b 12.720101
_cell_length_c 22.339874
_cell_angle_alpha 90.000000
_cell_angle_beta 147.097125
_cell_angle_gamma 90.000000
_cell_volume 2212.282636
_symmetry_space_group_name_H-M "C 2/C"
_symmetry_group_IT_number 15
_symmetry_cell_setting 'monoclinic'
loop_
_space_group_symop_operation_xyz
x,y,z
-x,y,1/2-z
-x,-y,-z
x,-y,1/2+z
1/2+x,1/2+y,z
1/2-x,1/2+y,1/2-z
1/2-x,1/2-y,-z
1/2+x,1/2-y,1/2+z
loop_
_atom_site_type_symbol
_atom_site_label
_atom_site_fract_x
_atom_site_fract_y
_atom_site_fract_z
Si Si1 0.500000 0.419149 0.250000
Si Si2 0.878409 0.798337 0.845651
Si Si3 0.463862 0.770552 0.643346
Si Si4 0.000000 0.552336 0.250000
Si Si5 0.243561 0.938360 0.812353
Si Si6 0.339542 0.090837 0.764594
Si Si7 0.964628 0.768680 0.441771
O O1 0.544917 0.340183 0.327938
O O2 0.342839 0.493450 0.183174
O O3 0.672204 0.791237 0.747892
O O4 0.898561 0.895720 0.811754
O O5 0.934521 0.696768 0.837376
O O6 0.960580 0.801286 0.954635
O O7 0.407260 0.762801 0.543684
O O8 0.403879 0.866459 0.653112
O O9 0.101074 0.475050 0.260315
O O10 0.347855 0.835934 0.889037
O O11 0.351114 0.016356 0.828532
O O12 0.151936 0.863298 0.146752
#
# Coordination Sequence:
#
# PCOD9275376 Si02
#       7
#     4   8   8   4   8   8   8
#     4  11  18  39  64  84 114 151 196 233 286 346
#     4  10  21  39  59  86 119 150 192 236 286 344
#     4   9  20  38  62  85 114 149 190 250 286 319
#     4  11  18  39  64  84 114 151 196 233 286 346
#     4  10  20  39  61  83 115 159 184 235 293 333
#     4  10  20  39  61  83 115 159 184 235 293 333
#     4  10  21  39  59  86 119 150 192 236 286 344
#
# _framework density 21.697046
#
# number of rings (size 3 to 8) (size 9 to 14) (size 15 to 20)
#    0.000    2.333    6.667    0.000    0.000    4.000 
#    0.000   10.000    0.000    0.000    0.000    0.000 
#    0.000    0.000    0.000    0.000    0.000    0.000 
#
# Total GULP energy -133809.986275 kJ/mol
# GULP energy per Si atom -5575.416095 kJ/mol
# Density = 2.164766 g / cm^3
# Si number density = 21.697046 Si / 1000 Ang^3
#
#
#
# Elastic Constant Matrix: (Units=GPa)
#
#
# Indices 1 2 3 4 5 6 
#
# 1 82.6691 25.4292 -14.7925 0.0001 -20.7292 0.0000
# 2 25.4292 78.7099 -20.1575 0.0001 -7.3472 0.0001
# 3 -14.7925 -20.1575 63.2353 0.0004 -13.7881 0.0002
# 4 0.0001 0.0001 0.0004 14.5276 0.0001 -12.4265
# 5 -20.7292 -7.3472 -13.7881 0.0001 19.4912 0.0001
# 6 0.0000 0.0001 0.0002 -12.4265 0.0001 51.0840
#
#
#
# Elastic Compliance Matrix: (Units=1/GPa)
#
#
# Indices 1 2 3 4 5 6 
#
# 1 0.022629 -0.001292 0.011851 -0.000001 0.031963 0.000000
# 2 -0.001292 0.015718 0.006740 -0.000001 0.009319 0.000000
# 3 0.011851 0.006740 0.028421 -0.000002 0.035249 -0.000001
# 4 -0.000001 -0.000001 -0.000002 0.086920 -0.000003 0.021144
# 5 0.031963 0.009319 0.035249 -0.000003 0.113746 -0.000001
# 6 0.000000 0.000000 -0.000001 0.021144 -0.000001 0.024719
#
#
# Mechanical properties :
#
#
# Convention : Reuss Voigt Hill
#
# Bulk Modulus (GPa) = 9.86526 22.84142 16.35334
# Shear Modulus (GPa) = 17.16177 32.62958 24.89567
#
# Velocity S-wave (km/s) = 2.81548 3.88219 3.39104
# Velocity P-wave (km/s) = 3.88920 5.53583 4.78390
#
# Compressibility (1/GPa) = 0.10136576
#
# Stress axis : x y z
#
# Youngs Moduli (GPa) = 44.19077 63.61978 35.18561
#
# Poissons Ratio (x) = 0.08222 -0.41698
# Poissons Ratio (y) = 0.05711 -0.23716
# Poissons Ratio (z) = -0.52370 -0.42880
#
# Static dielectric constant tensor:
#      x y z
#    x 1.845600 0.000000 0.025370 
#    y 0.000000 1.804530 0.000000 
#    z 0.025370 0.000000 1.853590 
# 
# From -- ./inp_files/243485.got.cif
#   From: 2010.05.17/outbox.cif.g08.bks.cpg/sg15_122_cif.got.tgz:243485.got - 2010.06.03 18:47:42.
