data_PCOD9275375
_publ_section_title
;
Structure prediction by ZEFSAII (Michael W. Deem and Ramdas Pophale) SiO2 
 PCOD9275375
Probable space group: C 2/C
;
_chemical_formula_sum "Si O2"
_cell_formula_units_Z 48
_cell_length_a 14.574418
_cell_length_b 11.671501
_cell_length_c 11.541107
_cell_angle_alpha 90.000000
_cell_angle_beta 112.379800
_cell_angle_gamma 90.000000
_cell_volume 1815.335987
_symmetry_space_group_name_H-M "C 2/C"
_symmetry_group_IT_number 15
_symmetry_cell_setting 'monoclinic'
loop_
_space_group_symop_operation_xyz
x,y,z
-x,y,1/2-z
-x,-y,-z
x,-y,1/2+z
1/2+x,1/2+y,z
1/2-x,1/2+y,1/2-z
1/2-x,1/2-y,-z
1/2+x,1/2-y,1/2+z
loop_
_atom_site_type_symbol
_atom_site_label
_atom_site_fract_x
_atom_site_fract_y
_atom_site_fract_z
Si Si1 0.822461 0.834514 0.965465
Si Si2 0.370703 0.452412 0.201806
Si Si3 0.473123 0.320753 0.852620
Si Si4 0.839517 0.196534 0.904870
Si Si5 0.164583 0.471241 0.339168
Si Si6 0.854196 0.532187 0.417772
O O1 0.891597 0.774370 0.903050
O O2 0.750778 0.929920 0.874920
O O3 0.750000 0.750000 0.000000
O O4 0.897776 0.896387 0.091617
O O5 0.424191 0.561633 0.282345
O O6 0.367768 0.353336 0.294425
O O7 0.258034 0.488532 0.126022
O O8 0.500000 0.249860 0.750000
O O9 0.577058 0.344588 0.965059
O O10 0.730480 0.145687 0.880764
O O11 0.849496 0.331684 0.905118
O O12 0.111449 0.481085 0.189225
O O13 0.107184 0.492449 0.432772
#
# Coordination Sequence:
#
# PCOD9275375 Si02
#       6
#     8   8   8   8   8   8
#     4  11  23  43  66  98 136 183 227 268 339 418
#     4  10  23  37  67  98 136 181 218 286 334 412
#     4  12  25  40  63 104 143 167 217 285 356 395
#     4  11  22  38  66  98 136 175 225 284 346 404
#     4  10  21  38  63  97 133 180 224 283 333 411
#     4  10  20  39  61 100 129 180 232 269 337 412
#
# _framework density 26.441386999999999
#
# number of rings (size 3 to 8) (size 9 to 14) (size 15 to 20)
#    0.000    1.333    3.333    4.000    2.333    0.000 
#    6.000    0.000    0.000    4.000    8.667    0.000 
#    0.000    0.000    0.000    0.000    0.000    0.000 
#
# Total GULP energy -134361.689960 kJ/mol
# GULP energy per Si atom -5598.403748 kJ/mol
# Density = 2.638121 g / cm^3
# Si number density = 26.441387 Si / 1000 Ang^3
#
#
#
# Elastic Constant Matrix: (Units=GPa)
#
#
# Indices 1 2 3 4 5 6 
#
# 1 119.1073 20.6284 85.8593 0.0000 5.2221 0.0000
# 2 20.6284 93.1130 35.9693 0.0000 -9.3499 0.0000
# 3 85.8593 35.9693 198.3881 0.0000 -47.1033 0.0000
# 4 0.0000 0.0000 0.0000 34.0617 0.0000 -6.9366
# 5 5.2221 -9.3499 -47.1033 0.0000 38.4766 0.0000
# 6 0.0000 0.0000 0.0000 -6.9366 0.0000 14.0429
#
#
#
# Elastic Compliance Matrix: (Units=1/GPa)
#
#
# Indices 1 2 3 4 5 6 
#
# 1 0.017382 -0.001169 -0.011191 0.000000 -0.016343 0.000000
# 2 -0.001169 0.011630 -0.001261 0.000000 0.001442 0.000000
# 3 -0.011191 -0.001261 0.014662 0.000000 0.019162 0.000000
# 4 0.000000 0.000000 0.000000 0.032642 0.000000 0.016124
# 5 -0.016343 0.001442 0.019162 0.000000 0.052017 0.000000
# 6 0.000000 0.000000 0.000000 0.016124 0.000000 0.079175
#
#
# Mechanical properties :
#
#
# Convention : Reuss Voigt Hill
#
# Bulk Modulus (GPa) = 60.85140 77.28025 69.06583
# Shear Modulus (GPa) = 20.81365 35.19301 28.00333
#
# Velocity S-wave (km/s) = 2.80868 3.65222 3.25787
# Velocity P-wave (km/s) = 5.79499 6.86115 6.35049
#
# Compressibility (1/GPa) = 0.01643347
#
# Stress axis : x y z
#
# Youngs Moduli (GPa) = 57.53074 85.98241 68.20264
#
# Poissons Ratio (x) = 0.10050 0.76327
# Poissons Ratio (y) = 0.06724 0.08597
# Poissons Ratio (z) = 0.64384 0.10838
#
# Static dielectric constant tensor:
#      x y z
#    x 2.105970 0.000000 -0.065110 
#    y 0.000000 2.086330 0.000000 
#    z -0.065110 0.000000 2.149390 
# 
# From -- ./inp_files/104250.got.cif
#   From: 2010.05.17/outbox.cif.g08.bks.cpg/sg15_53_cif.got.tgz:104250.got - 2010.06.03 18:47:42.
