data_PCOD9275226
_publ_section_title
;
Structure prediction by ZEFSAII (Michael W. Deem and Ramdas Pophale) SiO2 
 PCOD9275226
Probable space group: C 2/C
;
_chemical_formula_sum "Si O2"
_cell_formula_units_Z 40
_cell_length_a 16.274103
_cell_length_b 12.265597
_cell_length_c 12.031739
_cell_angle_alpha 90.000000
_cell_angle_beta 49.771239
_cell_angle_gamma 90.000000
_cell_volume 1833.611094
_symmetry_space_group_name_H-M "C 2/C"
_symmetry_group_IT_number 15
_symmetry_cell_setting 'monoclinic'
loop_
_space_group_symop_operation_xyz
x,y,z
-x,y,1/2-z
-x,-y,-z
x,-y,1/2+z
1/2+x,1/2+y,z
1/2-x,1/2+y,1/2-z
1/2-x,1/2-y,-z
1/2+x,1/2-y,1/2+z
loop_
_atom_site_type_symbol
_atom_site_label
_atom_site_fract_x
_atom_site_fract_y
_atom_site_fract_z
Si Si1 0.421644 0.785070 0.050638
Si Si2 0.118274 0.843770 0.121918
Si Si3 0.645771 0.896383 0.591705
Si Si4 0.086663 0.795832 0.580480
Si Si5 0.307851 0.882794 0.358866
O O1 0.426077 0.882900 0.956249
O O2 0.526517 0.743268 0.022520
O O3 0.341968 0.823461 0.216479
O O4 0.378189 0.685931 0.012359
O O5 0.228974 0.900131 0.057411
O O6 0.000000 0.889428 0.250000
O O7 0.126183 0.720846 0.167014
O O8 0.635626 0.001098 0.675967
O O9 0.178749 0.884412 0.478526
O O10 0.146737 0.691229 0.580648
O O11 0.000000 0.830168 0.750000
#
# Coordination Sequence:
#
# PCOD9275226 Si02
#       5
#     8   8   8   8   8
#     4   9  20  37  59  81 111 157 189 227 300 335
#     4   9  20  39  60  82 117 149 191 244 278 345
#     4   9  21  38  56  89 112 149 195 239 286 334
#     4   9  20  37  58  83 117 154 191 235 295 341
#     4  10  20  39  56  85 121 145 195 246 276 355
#
# _framework density 21.814876000000002
#
# number of rings (size 3 to 8) (size 9 to 14) (size 15 to 20)
#    1.200    1.600    0.000    0.000    2.800    4.000 
#   14.400    1.000    0.000    0.000    0.000    0.000 
#    0.000    0.000    0.000    0.000    0.000    0.000 
#
# Total GULP energy -111369.151420 kJ/mol
# GULP energy per Si atom -5568.457571 kJ/mol
# Density = 2.176522 g / cm^3
# Si number density = 21.814876 Si / 1000 Ang^3
#
#
#
# Elastic Constant Matrix: (Units=GPa)
#
#
# Indices 1 2 3 4 5 6 
#
# 1 131.6327 23.3030 54.3286 0.0000 -0.2903 0.0000
# 2 23.3030 42.1997 6.0162 0.0000 4.3761 0.0000
# 3 54.3286 6.0162 44.2758 0.0000 -8.4608 0.0000
# 4 0.0000 0.0000 0.0000 10.0867 0.0000 -6.8506
# 5 -0.2903 4.3761 -8.4608 0.0000 36.2379 0.0000
# 6 0.0000 0.0000 0.0000 -6.8506 0.0000 4.0440
#
#
#
# Elastic Compliance Matrix: (Units=1/GPa)
#
#
# Indices 1 2 3 4 5 6 
#
# 1 0.017553 -0.006202 -0.021484 0.000000 -0.004126 0.000000
# 2 -0.006202 0.026883 0.003483 0.000000 -0.002483 0.000000
# 3 -0.021484 0.003483 0.050619 0.000000 0.011226 0.000000
# 4 0.000000 0.000000 0.000000 -0.658596 0.000000 -1.115679
# 5 -0.004126 -0.002483 0.011226 0.000000 0.030483 0.000000
# 6 0.000000 0.000000 0.000000 -1.115679 0.000000 -1.642708
#
#
# Mechanical properties :
#
#
# Convention : Reuss Voigt Hill
#
# Bulk Modulus (GPa) = 21.43678 42.82265 32.12971
# Shear Modulus (GPa) = -2.36764 19.03775 8.33505
#
# Velocity S-wave (km/s) = -1.04292 2.95735 1.95681
# Velocity P-wave (km/s) = 2.89789 5.59766 4.45711
#
# Compressibility (1/GPa) = 0.04664880
#
# Stress axis : x y z
#
# Youngs Moduli (GPa) = 56.97097 37.19876 19.75525
#
# Poissons Ratio (x) = 0.23071 0.42442
# Poissons Ratio (y) = 0.35334 -0.06881
# Poissons Ratio (z) = 1.22396 -0.12956
#
# Static dielectric constant tensor:
#      x y z
#    x 1.798560 0.000000 -0.040890 
#    y 0.000000 1.844330 0.000000 
#    z -0.040890 0.000000 1.844220 
# 
# From -- ./inp_files/96011.got.cif
#   From: 2010.05.17/outbox.cif.g08.bks.cpg/sg15_49_cif.got.tgz:96011.got - 2010.06.03 18:47:42.
