data_PCOD9275974
_publ_section_title
;
Structure prediction by ZEFSAII (Michael W. Deem and Ramdas Pophale) SiO2 
 PCOD9275974
Probable space group: C 2/C
;
_chemical_formula_sum "Si O2"
_cell_formula_units_Z 36
_cell_length_a 26.657428
_cell_length_b 5.518941
_cell_length_c 17.549278
_cell_angle_alpha 90.000000
_cell_angle_beta 145.871997
_cell_angle_gamma 90.000000
_cell_volume 1448.537996
_symmetry_space_group_name_H-M "C 2/C"
_symmetry_group_IT_number 15
_symmetry_cell_setting 'monoclinic'
loop_
_space_group_symop_operation_xyz
x,y,z
-x,y,1/2-z
-x,-y,-z
x,-y,1/2+z
1/2+x,1/2+y,z
1/2-x,1/2+y,1/2-z
1/2-x,1/2-y,-z
1/2+x,1/2-y,1/2+z
loop_
_atom_site_type_symbol
_atom_site_label
_atom_site_fract_x
_atom_site_fract_y
_atom_site_fract_z
Si Si1 0.000000 0.469267 0.250000
Si Si2 0.887008 0.241166 0.387849
Si Si3 0.177887 0.761288 0.840053
Si Si4 0.854612 0.737649 0.147429
Si Si5 0.054414 0.745418 0.978227
O O1 0.084000 0.646646 0.343120
O O2 0.022247 0.308934 0.351518
O O3 0.802862 0.200065 0.224662
O O4 0.889404 0.502641 0.430230
O O5 0.974907 0.241781 0.442068
O O6 0.897245 0.005645 0.453893
O O7 0.137110 0.490899 0.786502
O O8 0.121822 0.000728 0.791722
O O9 0.250000 0.750000 0.000000
O O10 0.750000 0.750000 0.000000
#
# Coordination Sequence:
#
# PCOD9275974 Si02
#       5
#     4   8   8   8   8
#     4  12  24  42  68 106 138 192 244 294 350 430
#     4  10  20  40  58  98 133 176 224 285 347 414
#     4  10  20  39  66  93 130 182 227 277 350 424
#     4  10  23  39  63  98 134 177 233 291 342 416
#     4  10  23  34  63  94 138 169 232 284 340 414
#
# _framework density 24.852646
#
# number of rings (size 3 to 8) (size 9 to 14) (size 15 to 20)
#    0.000    1.778    2.222    1.333    6.222    3.556 
#    0.000    0.000    0.000   21.333    0.000    0.000 
#    0.000    0.000    0.000    0.000    0.000    0.000 
#
# Total GULP energy -100293.328338 kJ/mol
# GULP energy per Si atom -5571.851574 kJ/mol
# Density = 2.479608 g / cm^3
# Si number density = 24.852646 Si / 1000 Ang^3
#
#
#
# Elastic Constant Matrix: (Units=GPa)
#
#
# Indices 1 2 3 4 5 6 
#
# 1 74.3651 50.7643 41.4972 -0.0001 -3.7020 0.0000
# 2 50.7643 270.3103 76.3539 0.0000 -21.9373 -0.0001
# 3 41.4972 76.3539 146.2980 -0.0001 -37.5605 -0.0001
# 4 -0.0001 0.0000 -0.0001 41.5636 0.0000 -12.0681
# 5 -3.7020 -21.9373 -37.5605 0.0000 40.6548 0.0000
# 6 0.0000 -0.0001 -0.0001 -12.0681 0.0000 35.8749
#
#
#
# Elastic Compliance Matrix: (Units=1/GPa)
#
#
# Indices 1 2 3 4 5 6 
#
# 1 0.017475 -0.002248 -0.004833 0.000000 -0.004087 0.000000
# 2 -0.002248 0.004632 -0.001561 0.000000 0.000853 0.000000
# 3 -0.004833 -0.001561 0.011394 0.000000 0.009245 0.000000
# 4 0.000000 0.000000 0.000000 0.026664 0.000000 0.008970
# 5 -0.004087 0.000853 0.009245 0.000000 0.033226 0.000000
# 6 0.000000 0.000000 0.000000 0.008970 0.000000 0.030892
#
#
# Mechanical properties :
#
#
# Convention : Reuss Voigt Hill
#
# Bulk Modulus (GPa) = 61.66086 92.02270 76.84178
# Shear Modulus (GPa) = 34.01993 45.10919 39.56456
#
# Velocity S-wave (km/s) = 3.70383 4.26498 3.99427
# Velocity P-wave (km/s) = 6.56929 7.83333 7.22899
#
# Compressibility (1/GPa) = 0.01621774
#
# Stress axis : x y z
#
# Youngs Moduli (GPa) = 57.22370 215.90109 87.76462
#
# Poissons Ratio (x) = 0.48545 0.42413
# Poissons Ratio (y) = 0.12867 0.13697
# Poissons Ratio (z) = 0.27654 0.33695
#
# Static dielectric constant tensor:
#      x y z
#    x 2.035350 0.000000 0.091860 
#    y 0.000000 1.966330 0.000000 
#    z 0.091860 0.000000 2.008700 
# 
# From -- ./inp_files/223467.got.cif
#   From: 2010.05.17/outbox.cif.g08.bks.cpg/sg15_112_cif.got.tgz:223467.got - 2010.06.03 18:47:42.
