data_PCOD9275775
_publ_section_title
;
Structure prediction by ZEFSAII (Michael W. Deem and Ramdas Pophale) SiO2 
 PCOD9275775
Probable space group: C 2/C
;
_chemical_formula_sum "Si O2"
_cell_formula_units_Z 48
_cell_length_a 10.288695
_cell_length_b 9.913468
_cell_length_c 23.770508
_cell_angle_alpha 90.000000
_cell_angle_beta 108.085408
_cell_angle_gamma 90.000000
_cell_volume 2304.728701
_symmetry_space_group_name_H-M "C 2/C"
_symmetry_group_IT_number 15
_symmetry_cell_setting 'monoclinic'
loop_
_space_group_symop_operation_xyz
x,y,z
-x,y,1/2-z
-x,-y,-z
x,-y,1/2+z
1/2+x,1/2+y,z
1/2-x,1/2+y,1/2-z
1/2-x,1/2-y,-z
1/2+x,1/2-y,1/2+z
loop_
_atom_site_type_symbol
_atom_site_label
_atom_site_fract_x
_atom_site_fract_y
_atom_site_fract_z
Si Si1 0.246449 0.202231 0.814977
Si Si2 0.581395 0.148841 0.554582
Si Si3 0.476377 0.248999 0.134203
Si Si4 0.419548 0.626650 0.964497
Si Si5 0.361784 0.948347 0.766247
Si Si6 0.661202 0.962902 0.956605
O O1 0.356865 0.203906 0.879856
O O2 0.100570 0.173952 0.825867
O O3 0.229824 0.347610 0.783561
O O4 0.288143 0.082281 0.778439
O O5 0.477918 0.249678 0.508949
O O6 0.690970 0.099082 0.522368
O O7 0.490517 0.021338 0.558871
O O8 0.543572 0.338756 0.094744
O O9 0.585792 0.147058 0.175864
O O10 0.356782 0.157134 0.089860
O O11 0.263616 0.580167 0.951986
O O12 0.500000 0.500000 0.000000
O O13 0.500000 0.983367 0.750000
#
# Coordination Sequence:
#
# PCOD9275775 Si02
#       6
#     8   8   8   8   8   8
#     4  11  22  44  69  89 128 171 217 271 323 380
#     4  10  21  38  63  94 126 171 207 255 323 385
#     4  10  22  42  67  88 128 170 205 261 328 377
#     4  11  22  36  60 101 131 164 209 257 318 393
#     4  10  24  45  66  91 123 171 220 272 321 375
#     4  10  20  39  64  93 132 164 206 255 321 388
#
# _framework density 20.826747000000001
#
# number of rings (size 3 to 8) (size 9 to 14) (size 15 to 20)
#    0.000    1.667    1.667    2.500    0.000    6.667 
#    3.000    5.833    0.000    0.000    0.000    0.000 
#    0.000    0.000    0.000    0.000    0.000    0.000 
#
# Total GULP energy -134001.889291 kJ/mol
# GULP energy per Si atom -5583.412054 kJ/mol
# Density = 2.077934 g / cm^3
# Si number density = 20.826747 Si / 1000 Ang^3
#
#
#
# Elastic Constant Matrix: (Units=GPa)
#
#
# Indices 1 2 3 4 5 6 
#
# 1 72.7410 54.6864 42.8101 0.0000 -20.5838 0.0000
# 2 54.6864 97.8692 42.5802 0.0000 -25.8881 0.0000
# 3 42.8101 42.5802 102.9181 0.0000 -17.4417 0.0000
# 4 0.0000 0.0000 0.0000 32.0050 0.0000 -8.8447
# 5 -20.5838 -25.8881 -17.4417 0.0000 28.6717 0.0000
# 6 0.0000 0.0000 0.0000 -8.8447 0.0000 49.7115
#
#
#
# Elastic Compliance Matrix: (Units=1/GPa)
#
#
# Indices 1 2 3 4 5 6 
#
# 1 0.027135 -0.011106 -0.005675 0.000000 0.006000 0.000000
# 2 -0.011106 0.019539 -0.002035 0.000000 0.008431 0.000000
# 3 -0.005675 -0.002035 0.013287 0.000000 0.002171 0.000000
# 4 0.000000 0.000000 0.000000 0.032861 0.000000 0.005847
# 5 0.006000 0.008431 0.002171 0.000000 0.048118 0.000000
# 6 0.000000 0.000000 0.000000 0.005847 0.000000 0.021156
#
#
# Mechanical properties :
#
#
# Convention : Reuss Voigt Hill
#
# Bulk Modulus (GPa) = 44.78731 61.52019 53.15375
# Shear Modulus (GPa) = 24.13459 30.97442 27.55451
#
# Velocity S-wave (km/s) = 3.40785 3.86066 3.64130
# Velocity P-wave (km/s) = 6.08572 7.03393 6.57693
#
# Compressibility (1/GPa) = 0.02232776
#
# Stress axis : x y z
#
# Youngs Moduli (GPa) = 36.85329 51.18002 75.26038
#
# Poissons Ratio (x) = 0.56838 0.42713
# Poissons Ratio (y) = 0.40928 0.15319
# Poissons Ratio (z) = 0.20916 0.10418
#
# Static dielectric constant tensor:
#      x y z
#    x 1.816420 0.000000 0.031020 
#    y 0.000000 1.999130 0.000000 
#    z 0.031020 0.000000 1.841630 
# 
# From -- ./inp_files/267777.got.cif
#   From: 2010.05.17/outbox.cif.g08.bks.cpg/sg15_134_cif.got.tgz:267777.got - 2010.06.03 18:47:42.
