data_PCOD9275123
_publ_section_title
;
Structure prediction by ZEFSAII (Michael W. Deem and Ramdas Pophale) SiO2 
 PCOD9275123
Probable space group: C 2/C
;
_chemical_formula_sum "Si O2"
_cell_formula_units_Z 56
_cell_length_a 29.846203
_cell_length_b 6.233488
_cell_length_c 16.101431
_cell_angle_alpha 90.000000
_cell_angle_beta 115.444327
_cell_angle_gamma 90.000000
_cell_volume 2705.041731
_symmetry_space_group_name_H-M "C 2/C"
_symmetry_group_IT_number 15
_symmetry_cell_setting 'monoclinic'
loop_
_space_group_symop_operation_xyz
x,y,z
-x,y,1/2-z
-x,-y,-z
x,-y,1/2+z
1/2+x,1/2+y,z
1/2-x,1/2+y,1/2-z
1/2-x,1/2-y,-z
1/2+x,1/2-y,1/2+z
loop_
_atom_site_type_symbol
_atom_site_label
_atom_site_fract_x
_atom_site_fract_y
_atom_site_fract_z
Si Si1 0.703412 0.603246 0.441524
Si Si2 0.801961 0.795969 0.910776
Si Si3 0.557220 0.936724 0.458120
Si Si4 0.307826 0.746785 0.691992
Si Si5 0.646644 0.004277 0.929078
Si Si6 0.532156 0.312978 0.568983
Si Si7 0.619328 0.597119 0.617934
O O1 0.750000 0.750000 0.500000
O O2 0.707712 0.415338 0.510483
O O3 0.699885 0.493785 0.349948
O O4 0.655941 0.746566 0.420984
O O5 0.748134 0.805122 0.825265
O O6 0.843643 0.930919 0.897421
O O7 0.823547 0.572416 0.963794
O O8 0.504550 0.819240 0.399797
O O9 0.590082 0.754902 0.531963
O O10 0.589154 0.024014 0.406324
O O11 0.548183 0.135879 0.513263
O O12 0.331041 0.886911 0.634698
O O13 0.347252 0.742372 0.796123
O O14 0.500000 0.500000 0.500000
O O15 0.580290 0.445340 0.636282
#
# Coordination Sequence:
#
# PCOD9275123 Si02
#       7
#     8   8   8   8   8   8   8
#     4  11  19  37  59  78 118 170 205 241 291 360
#     4  11  21  36  56  86 118 168 209 235 292 379
#     4  10  20  38  69  88 107 165 213 249 308 375
#     4  11  25  35  55  94 133 158 198 260 306 360
#     4  11  20  38  62  86 117 163 213 245 296 372
#     4   9  20  39  64  91 113 147 213 263 306 365
#     4  11  23  38  58  92 131 155 198 267 309 353
#
# _framework density 20.702082999999998
#
# number of rings (size 3 to 8) (size 9 to 14) (size 15 to 20)
#    0.000    1.429    5.714    0.857    0.000    3.429 
#    0.000    0.000    0.000   20.571    0.000    0.000 
#    0.000    0.000    0.000    0.000    0.000    0.000 
#
# Total GULP energy -156037.886595 kJ/mol
# GULP energy per Si atom -5572.781664 kJ/mol
# Density = 2.065496 g / cm^3
# Si number density = 20.702083 Si / 1000 Ang^3
#
#
#
# Elastic Constant Matrix: (Units=GPa)
#
#
# Indices 1 2 3 4 5 6 
#
# 1 116.1001 26.3118 8.7260 0.0000 15.3957 0.0000
# 2 26.3118 65.5690 -1.7211 0.0000 8.1872 0.0000
# 3 8.7260 -1.7211 36.9799 0.0000 9.1405 0.0000
# 4 0.0000 0.0000 0.0000 21.0780 0.0000 7.0473
# 5 15.3957 8.1872 9.1405 0.0000 14.2448 0.0000
# 6 0.0000 0.0000 0.0000 7.0473 0.0000 47.7759
#
#
#
# Elastic Compliance Matrix: (Units=1/GPa)
#
#
# Indices 1 2 3 4 5 6 
#
# 1 0.010590 -0.003073 -0.000296 0.000000 -0.009490 0.000000
# 2 -0.003073 0.017755 0.003866 0.000000 -0.009365 0.000000
# 3 -0.000296 0.003866 0.032995 0.000000 -0.023074 0.000000
# 4 0.000000 0.000000 0.000000 0.049904 0.000000 -0.007361
# 5 -0.009490 -0.009365 -0.023074 0.000000 0.100645 0.000000
# 6 0.000000 0.000000 0.000000 -0.007361 0.000000 0.022017
#
#
# Mechanical properties :
#
#
# Convention : Reuss Voigt Hill
#
# Bulk Modulus (GPa) = 16.04254 31.69804 23.87029
# Shear Modulus (GPa) = 19.70911 28.97522 24.34216
#
# Velocity S-wave (km/s) = 3.08885 3.74522 3.43276
# Velocity P-wave (km/s) = 4.52630 5.83498 5.22180
#
# Compressibility (1/GPa) = 0.06233426
#
# Stress axis : x y z
#
# Youngs Moduli (GPa) = 94.42626 56.32258 30.30785
#
# Poissons Ratio (x) = 0.17305 0.00898
# Poissons Ratio (y) = 0.29013 -0.11717
# Poissons Ratio (z) = 0.02798 -0.21775
#
# Static dielectric constant tensor:
#      x y z
#    x 1.840190 0.000000 0.049770 
#    y 0.000000 1.801450 0.000000 
#    z 0.049770 0.000000 1.753360 
# 
# From -- ./inp_files/223942.got.cif
#   From: 2010.05.17/outbox.cif.g08.bks.cpg/sg15_112_cif.got.tgz:223942.got - 2010.06.03 18:47:42.
