data_PCOD9275837
_publ_section_title
;
Structure prediction by ZEFSAII (Michael W. Deem and Ramdas Pophale) SiO2 
 PCOD9275837
Probable space group: C 2/C
;
_chemical_formula_sum "Si O2"
_cell_formula_units_Z 64
_cell_length_a 14.837115
_cell_length_b 7.607689
_cell_length_c 25.399964
_cell_angle_alpha 90.000000
_cell_angle_beta 70.490003
_cell_angle_gamma 90.000000
_cell_volume 2702.433556
_symmetry_space_group_name_H-M "C 2/C"
_symmetry_group_IT_number 15
_symmetry_cell_setting 'monoclinic'
loop_
_space_group_symop_operation_xyz
x,y,z
-x,y,1/2-z
-x,-y,-z
x,-y,1/2+z
1/2+x,1/2+y,z
1/2-x,1/2+y,1/2-z
1/2-x,1/2-y,-z
1/2+x,1/2-y,1/2+z
loop_
_atom_site_type_symbol
_atom_site_label
_atom_site_fract_x
_atom_site_fract_y
_atom_site_fract_z
Si Si1 0.784987 0.088519 0.317929
Si Si2 0.480793 0.148174 0.676843
Si Si3 0.195757 0.522577 0.730119
Si Si4 0.399521 0.032006 0.586057
Si Si5 0.329586 0.666768 0.022771
Si Si6 0.989883 0.031705 0.808135
Si Si7 0.174310 0.441556 0.626713
Si Si8 0.530409 0.288090 0.085478
O O1 0.783388 0.292014 0.301725
O O2 0.765999 0.996498 0.265397
O O3 0.878355 0.020438 0.329542
O O4 0.698414 0.047034 0.373316
O O5 0.410917 0.021990 0.723873
O O6 0.445093 0.144717 0.624342
O O7 0.463056 0.339222 0.704267
O O8 0.590908 0.087674 0.652467
O O9 0.203342 0.386730 0.680257
O O10 0.000000 0.128352 0.750000
O O11 0.374938 0.167850 0.545032
O O12 0.469460 0.863096 0.568253
O O13 0.271709 0.538015 0.073728
O O14 0.250000 0.750000 0.000000
O O15 0.414202 0.595008 0.968527
O O16 0.024247 0.115753 0.856099
O O17 0.112283 0.305272 0.604980
#
# Coordination Sequence:
#
# PCOD9275837 Si02
#       8
#     8   8   8   8   8   8   8   8
#     4  11  24  36  61  96 130 168 212 264 326 395
#     4  10  21  42  62  95 131 172 208 264 332 395
#     4  11  23  37  62  95 135 169 214 261 330 391
#     4  10  23  42  67  90 127 169 216 270 331 395
#     4  10  21  42  69  93 123 169 225 277 323 390
#     4  12  23  40  64  96 133 168 207 274 328 392
#     4  10  20  39  65  89 125 175 214 262 324 387
#     4  10  24  40  67  93 127 168 226 267 327 392
#
# _framework density 23.682355999999999
#
# number of rings (size 3 to 8) (size 9 to 14) (size 15 to 20)
#    0.000    1.500    2.500    2.250    7.000    2.000 
#    0.000    1.250    5.500    0.000    0.000    0.000 
#    0.000    0.000    0.000    0.000    0.000    0.000 
#
# Total GULP energy -178541.947850 kJ/mol
# GULP energy per Si atom -5579.435870 kJ/mol
# Density = 2.362845 g / cm^3
# Si number density = 23.682356 Si / 1000 Ang^3
#
#
#
# Elastic Constant Matrix: (Units=GPa)
#
#
# Indices 1 2 3 4 5 6 
#
# 1 77.2274 6.7508 23.6093 0.0000 13.2604 0.0000
# 2 6.7508 40.8443 17.5469 0.0000 -0.7538 0.0000
# 3 23.6093 17.5469 136.3325 0.0000 0.9315 0.0000
# 4 0.0000 0.0000 0.0000 22.8221 0.0000 0.4028
# 5 13.2604 -0.7538 0.9315 0.0000 28.6912 0.0000
# 6 0.0000 0.0000 0.0000 0.4028 0.0000 22.8358
#
#
#
# Elastic Compliance Matrix: (Units=1/GPa)
#
#
# Indices 1 2 3 4 5 6 
#
# 1 0.014988 -0.001598 -0.002343 0.000000 -0.006893 0.000000
# 2 -0.001598 0.026105 -0.003094 0.000000 0.001525 0.000000
# 3 -0.002343 -0.003094 0.008134 0.000000 0.000737 0.000000
# 4 0.000000 0.000000 0.000000 0.043831 0.000000 -0.000773
# 5 -0.006893 0.001525 0.000737 0.000000 0.038056 0.000000
# 6 0.000000 0.000000 0.000000 -0.000773 0.000000 0.043804
#
#
# Mechanical properties :
#
#
# Convention : Reuss Voigt Hill
#
# Bulk Modulus (GPa) = 28.44309 38.91314 33.67811
# Shear Modulus (GPa) = 24.91207 28.63629 26.77418
#
# Velocity S-wave (km/s) = 3.24686 3.48110 3.36602
# Velocity P-wave (km/s) = 5.10808 5.71178 5.41834
#
# Compressibility (1/GPa) = 0.03515792
#
# Stress axis : x y z
#
# Youngs Moduli (GPa) = 66.71872 38.30756 122.94318
#
# Poissons Ratio (x) = 0.06122 0.28803
# Poissons Ratio (y) = 0.10662 0.38033
# Poissons Ratio (z) = 0.15631 0.11850
#
# Static dielectric constant tensor:
#      x y z
#    x 1.936860 0.000000 -0.016700 
#    y 0.000000 1.946100 0.000000 
#    z -0.016700 0.000000 2.004750 
# 
# From -- ./inp_files/312885.got.cif
#   From: 2010.05.17/outbox.cif.g08.bks.cpg/sg15_157_cif.got.tgz:312885.got - 2010.06.03 18:47:42.
