data_PCOD9275671
_publ_section_title
;
Structure prediction by ZEFSAII (Michael W. Deem and Ramdas Pophale) SiO2 
 PCOD9275671
Probable space group: C 2/C
;
_chemical_formula_sum "Si O2"
_cell_formula_units_Z 52
_cell_length_a 12.056739
_cell_length_b 9.842995
_cell_length_c 22.606763
_cell_angle_alpha 90.000000
_cell_angle_beta 122.592098
_cell_angle_gamma 90.000000
_cell_volume 2260.368129
_symmetry_space_group_name_H-M "C 2/C"
_symmetry_group_IT_number 15
_symmetry_cell_setting 'monoclinic'
loop_
_space_group_symop_operation_xyz
x,y,z
-x,y,1/2-z
-x,-y,-z
x,-y,1/2+z
1/2+x,1/2+y,z
1/2-x,1/2+y,1/2-z
1/2-x,1/2-y,-z
1/2+x,1/2-y,1/2+z
loop_
_atom_site_type_symbol
_atom_site_label
_atom_site_fract_x
_atom_site_fract_y
_atom_site_fract_z
Si Si1 0.271252 0.739620 0.871016
Si Si2 0.658579 0.470946 0.541757
Si Si3 0.562554 0.067680 0.645813
Si Si4 0.500000 0.778195 0.250000
Si Si5 0.288176 0.271406 0.152493
Si Si6 0.185243 0.388681 0.504367
Si Si7 0.440182 0.232507 0.312702
O O1 0.267155 0.595312 0.903574
O O2 0.352282 0.698783 0.836716
O O3 0.130100 0.795289 0.810148
O O4 0.330222 0.854927 0.930847
O O5 0.500000 0.500000 0.500000
O O6 0.702649 0.332566 0.587624
O O7 0.721013 0.490122 0.493531
O O8 0.545621 0.140353 0.704597
O O9 0.699639 0.111450 0.655559
O O10 0.454533 0.107576 0.566747
O O11 0.532666 0.912794 0.651321
O O12 0.354638 0.202598 0.229638
O O13 0.423364 0.310187 0.158363
O O14 0.250000 0.250000 0.500000
#
# Coordination Sequence:
#
# PCOD9275671 Si02
#       7
#     8   8   8   4   8   8   8
#     4  11  23  41  65  98 131 171 220 284 336 398
#     4  11  22  40  65  95 128 176 227 273 329 407
#     4  12  22  42  69  96 129 178 223 275 339 409
#     4  12  20  40  70  94 122 168 230 270 330 394
#     4  11  23  42  67  95 132 176 224 273 336 406
#     4  10  20  39  63  93 129 165 225 270 331 395
#     4  11  24  42  65  97 137 177 217 276 346 406
#
# _framework density 23.005102000000001
#
# number of rings (size 3 to 8) (size 9 to 14) (size 15 to 20)
#    0.000    0.923    6.154    3.692    0.000    0.615 
#    2.769    3.077    0.000    0.000    0.000    0.000 
#    0.000    0.000    0.000    0.000    0.000    0.000 
#
# Total GULP energy -145030.752108 kJ/mol
# GULP energy per Si atom -5578.105850 kJ/mol
# Density = 2.295274 g / cm^3
# Si number density = 23.005102 Si / 1000 Ang^3
#
#
#
# Elastic Constant Matrix: (Units=GPa)
#
#
# Indices 1 2 3 4 5 6 
#
# 1 147.7049 0.2374 28.6322 0.0000 0.6016 0.0000
# 2 0.2374 18.0180 12.7355 0.0000 -5.1265 0.0000
# 3 28.6322 12.7355 105.9769 0.0000 16.7350 0.0000
# 4 0.0000 0.0000 0.0000 15.6406 0.0000 1.6609
# 5 0.6016 -5.1265 16.7350 0.0000 44.6402 0.0000
# 6 0.0000 0.0000 0.0000 1.6609 0.0000 21.0378
#
#
#
# Elastic Compliance Matrix: (Units=1/GPa)
#
#
# Indices 1 2 3 4 5 6 
#
# 1 0.007214 0.001827 -0.002324 0.000000 0.000984 0.000000
# 2 0.001827 0.065931 -0.010213 0.000000 0.011376 0.000000
# 3 -0.002324 -0.010213 0.012193 0.000000 -0.005713 0.000000
# 4 0.000000 0.000000 0.000000 0.064477 0.000000 -0.005090
# 5 0.000984 0.011376 -0.005713 0.000000 0.025836 0.000000
# 6 0.000000 0.000000 0.000000 -0.005090 0.000000 0.047935
#
#
# Mechanical properties :
#
#
# Convention : Reuss Voigt Hill
#
# Bulk Modulus (GPa) = 15.64478 39.43445 27.53962
# Shear Modulus (GPa) = 18.77496 31.60338 25.18917
#
# Velocity S-wave (km/s) = 2.85988 3.71044 3.31258
# Velocity P-wave (km/s) = 4.20958 5.96115 5.16023
#
# Compressibility (1/GPa) = 0.06391908
#
# Stress axis : x y z
#
# Youngs Moduli (GPa) = 138.62308 15.16730 82.01207
#
# Poissons Ratio (x) = -0.02772 0.19059
# Poissons Ratio (y) = -0.25333 0.83761
# Poissons Ratio (z) = 0.32215 0.15491
#
# Static dielectric constant tensor:
#      x y z
#    x 1.661570 0.000000 -0.161710 
#    y 0.000000 1.858230 0.000000 
#    z -0.161710 0.000000 1.853170 
# 
# From -- ./inp_files/237477.got.cif
#   From: 2010.05.17/outbox.cif.g08.bks.cpg/sg15_119_cif.got.tgz:237477.got - 2010.06.03 18:47:42.
