data_PCOD9275945
_publ_section_title
;
Structure prediction by ZEFSAII (Michael W. Deem and Ramdas Pophale) SiO2 
 PCOD9275945
Probable space group: C 2/C
;
_chemical_formula_sum "Si O2"
_cell_formula_units_Z 56
_cell_length_a 17.313576
_cell_length_b 17.463229
_cell_length_c 9.103991
_cell_angle_alpha 90.000000
_cell_angle_beta 112.559586
_cell_angle_gamma 90.000000
_cell_volume 2541.974186
_symmetry_space_group_name_H-M "C 2/C"
_symmetry_group_IT_number 15
_symmetry_cell_setting 'monoclinic'
loop_
_space_group_symop_operation_xyz
x,y,z
-x,y,1/2-z
-x,-y,-z
x,-y,1/2+z
1/2+x,1/2+y,z
1/2-x,1/2+y,1/2-z
1/2-x,1/2-y,-z
1/2+x,1/2-y,1/2+z
loop_
_atom_site_type_symbol
_atom_site_label
_atom_site_fract_x
_atom_site_fract_y
_atom_site_fract_z
Si Si1 0.787726 0.744593 0.776137
Si Si2 0.662168 0.619985 0.982097
Si Si3 0.804088 0.436929 0.013225
Si Si4 0.805602 0.584503 0.861798
Si Si5 0.000000 0.824035 0.750000
Si Si6 0.122739 0.955615 0.729941
Si Si7 0.500000 0.412425 0.250000
Si Si8 0.864476 0.266368 0.011931
O O1 0.836380 0.671991 0.878534
O O2 0.825417 0.757379 0.641865
O O3 0.690473 0.731066 0.660183
O O4 0.794037 0.814585 0.891072
O O5 0.718560 0.598102 0.885383
O O6 0.567178 0.640605 0.877721
O O7 0.649752 0.547297 0.080044
O O8 0.800548 0.437048 0.186893
O O9 0.850129 0.358367 0.996988
O O10 0.846130 0.514087 0.979075
O O11 0.709594 0.440194 0.879863
O O12 0.935107 0.882556 0.777232
O O13 0.955777 0.769706 0.596811
O O14 0.062570 0.028646 0.711526
#
# Coordination Sequence:
#
# PCOD9275945 Si02
#       8
#     8   8   8   8   4   8   4   8
#     4  10  21  41  62  91 124 167 207 253 298 375
#     4  12  22  40  59  91 132 167 197 254 298 372
#     4  11  22  41  64  93 120 168 210 256 302 375
#     4  11  24  37  65  90 121 162 219 252 304 354
#     4  11  20  36  62  95 120 162 202 257 314 366
#     4  11  22  39  62  89 134 162 203 243 313 380
#     4  11  26  32  58  99 138 164 194 243 318 378
#     4  10  20  39  66  90 122 159 210 255 307 363
#
# _framework density 22.030121000000001
#
# number of rings (size 3 to 8) (size 9 to 14) (size 15 to 20)
#    0.000    1.143    4.286    3.429    0.000    3.429 
#    0.000    0.000    0.000    4.286    0.000    0.000 
#    0.000    0.000    0.000    0.000    0.000    0.000 
#
# Total GULP energy -156070.287379 kJ/mol
# GULP energy per Si atom -5573.938835 kJ/mol
# Density = 2.197998 g / cm^3
# Si number density = 22.030121 Si / 1000 Ang^3
#
#
#
# Elastic Constant Matrix: (Units=GPa)
#
#
# Indices 1 2 3 4 5 6 
#
# 1 19.2873 7.7248 9.0891 0.0000 -0.3703 0.0000
# 2 7.7248 99.5359 19.3368 0.0000 2.9519 0.0000
# 3 9.0891 19.3368 66.4160 0.0000 -1.2644 0.0000
# 4 0.0000 0.0000 0.0000 32.3465 0.0000 4.6167
# 5 -0.3703 2.9519 -1.2644 0.0000 38.4979 0.0000
# 6 0.0000 0.0000 0.0000 4.6167 0.0000 8.6073
#
#
#
# Elastic Compliance Matrix: (Units=1/GPa)
#
#
# Indices 1 2 3 4 5 6 
#
# 1 0.056290 -0.003064 -0.006801 0.000000 0.000553 0.000000
# 2 -0.003064 0.010848 -0.002757 0.000000 -0.000952 0.000000
# 3 -0.006801 -0.002757 0.016803 0.000000 0.000698 0.000000
# 4 0.000000 0.000000 0.000000 0.033478 0.000000 -0.017957
# 5 0.000553 -0.000952 0.000698 0.000000 0.026077 0.000000
# 6 0.000000 0.000000 0.000000 -0.017957 0.000000 0.125811
#
#
# Mechanical properties :
#
#
# Convention : Reuss Voigt Hill
#
# Bulk Modulus (GPa) = 17.03637 28.61562 22.82600
# Shear Modulus (GPa) = 15.91761 25.82959 20.87360
#
# Velocity S-wave (km/s) = 2.69092 3.42785 3.08149
# Velocity P-wave (km/s) = 4.17190 5.35578 4.80047
#
# Compressibility (1/GPa) = 0.05869795
#
# Stress axis : x y z
#
# Youngs Moduli (GPa) = 17.76513 92.18045 59.51190
#
# Poissons Ratio (x) = 0.28242 0.40473
# Poissons Ratio (y) = 0.05443 0.16409
# Poissons Ratio (z) = 0.12082 0.25417
#
# Static dielectric constant tensor:
#      x y z
#    x 1.870810 0.000000 0.005240 
#    y 0.000000 1.903240 0.000000 
#    z 0.005240 0.000000 1.867640 
# 
# From -- ./inp_files/56764.got.cif
#   From: 2010.05.17/outbox.cif.g08.bks.cpg/sg15_29_cif.got.tgz:56764.got - 2010.06.03 18:47:42.
