data_PCOD9275094
_publ_section_title
;
Structure prediction by ZEFSAII (Michael W. Deem and Ramdas Pophale) SiO2 
 PCOD9275094
Probable space group: C 2/C
;
_chemical_formula_sum "Si O2"
_cell_formula_units_Z 44
_cell_length_a 10.283866
_cell_length_b 20.883029
_cell_length_c 10.998911
_cell_angle_alpha 90.000000
_cell_angle_beta 56.164306
_cell_angle_gamma 90.000000
_cell_volume 1962.055339
_symmetry_space_group_name_H-M "C 2/C"
_symmetry_group_IT_number 15
_symmetry_cell_setting 'monoclinic'
loop_
_space_group_symop_operation_xyz
x,y,z
-x,y,1/2-z
-x,-y,-z
x,-y,1/2+z
1/2+x,1/2+y,z
1/2-x,1/2+y,1/2-z
1/2-x,1/2-y,-z
1/2+x,1/2-y,1/2+z
loop_
_atom_site_type_symbol
_atom_site_label
_atom_site_fract_x
_atom_site_fract_y
_atom_site_fract_z
Si Si1 0.991603 0.377227 0.547256
Si Si2 0.717076 0.920076 0.641810
Si Si3 0.288900 0.948568 0.239093
Si Si4 0.064488 0.743982 0.585410
Si Si5 0.450530 0.614243 0.487400
Si Si6 0.500000 0.514697 0.250000
O O1 0.115883 0.385862 0.591804
O O2 0.057252 0.426888 0.412913
O O3 0.828972 0.392337 0.700600
O O4 0.982407 0.308481 0.489770
O O5 0.897933 0.910220 0.518486
O O6 0.680689 0.994724 0.680769
O O7 0.206606 0.889860 0.351988
O O8 0.149660 0.975678 0.223901
O O9 0.250000 0.750000 0.500000
O O10 0.010704 0.815167 0.578108
O O11 0.000000 0.725176 0.750000
O O12 0.438906 0.562530 0.386409
#
# Coordination Sequence:
#
# PCOD9275094 Si02
#       6
#     8   8   8   8   8   4
#     4  11  24  43  64  96 138 173 217 278 334 393
#     4  10  23  43  65  98 137 172 214 274 348 390
#     4  11  21  39  67 104 131 172 222 274 336 398
#     4  12  26  46  66  94 133 178 233 273 323 401
#     4  11  22  41  68  95 128 180 224 271 326 397
#     4  10  20  38  68  96 138 172 218 276 328 406
#
# _framework density 22.425463000000001
#
# number of rings (size 3 to 8) (size 9 to 14) (size 15 to 20)
#    0.000    1.091    0.909    7.091    2.545    0.727 
#   13.091    3.636    0.000    0.000    0.000    0.000 
#    0.000    0.000    0.000    0.000    0.000    0.000 
#
# Total GULP energy -123065.523115 kJ/mol
# GULP energy per Si atom -5593.887414 kJ/mol
# Density = 2.237442 g / cm^3
# Si number density = 22.425463 Si / 1000 Ang^3
#
#
#
# Elastic Constant Matrix: (Units=GPa)
#
#
# Indices 1 2 3 4 5 6 
#
# 1 92.8929 31.3400 19.4859 0.0000 4.6420 0.0000
# 2 31.3400 113.0669 34.7140 0.0000 9.2560 0.0000
# 3 19.4859 34.7140 117.7557 0.0000 -4.4019 0.0000
# 4 0.0000 0.0000 0.0000 32.8314 0.0000 -3.8269
# 5 4.6420 9.2560 -4.4019 0.0000 27.8267 0.0000
# 6 0.0000 0.0000 0.0000 -3.8269 0.0000 29.6985
#
#
#
# Elastic Compliance Matrix: (Units=1/GPa)
#
#
# Indices 1 2 3 4 5 6 
#
# 1 0.012046 -0.002871 -0.001194 0.000000 -0.001243 0.000000
# 2 -0.002871 0.010805 -0.002843 0.000000 -0.003565 0.000000
# 3 -0.001194 -0.002843 0.009628 0.000000 0.002668 0.000000
# 4 0.000000 0.000000 0.000000 0.030923 0.000000 0.003985
# 5 -0.001243 -0.003565 0.002668 0.000000 0.037752 0.000000
# 6 0.000000 0.000000 0.000000 0.003985 0.000000 0.034185
#
#
# Mechanical properties :
#
#
# Convention : Reuss Voigt Hill
#
# Bulk Modulus (GPa) = 53.58153 54.97723 54.27938
# Shear Modulus (GPa) = 32.18013 33.94971 33.06492
#
# Velocity S-wave (km/s) = 3.79223 3.89510 3.84400
# Velocity P-wave (km/s) = 6.56656 6.69312 6.63014
#
# Compressibility (1/GPa) = 0.01866315
#
# Stress axis : x y z
#
# Youngs Moduli (GPa) = 83.01438 92.55085 103.86759
#
# Poissons Ratio (x) = 0.26569 0.12397
# Poissons Ratio (y) = 0.23831 0.29534
# Poissons Ratio (z) = 0.09908 0.26317
#
# Static dielectric constant tensor:
#      x y z
#    x 1.844480 0.000000 0.022500 
#    y 0.000000 1.837360 0.000000 
#    z 0.022500 0.000000 1.852750 
# 
# From -- ./inp_files/88736.got.cif
#   From: 2010.05.17/outbox.cif.g08.bks.cpg/sg15_45_cif.got.tgz:88736.got - 2010.06.03 18:47:42.
