data_PCOD9275401
_publ_section_title
;
Structure prediction by ZEFSAII (Michael W. Deem and Ramdas Pophale) SiO2 
 PCOD9275401
Probable space group: C 2/C
;
_chemical_formula_sum "Si O2"
_cell_formula_units_Z 56
_cell_length_a 23.373324
_cell_length_b 16.035813
_cell_length_c 15.276943
_cell_angle_alpha 90.000000
_cell_angle_beta 23.347066
_cell_angle_gamma 90.000000
_cell_volume 2269.194958
_symmetry_space_group_name_H-M "C 2/C"
_symmetry_group_IT_number 15
_symmetry_cell_setting 'monoclinic'
loop_
_space_group_symop_operation_xyz
x,y,z
-x,y,1/2-z
-x,-y,-z
x,-y,1/2+z
1/2+x,1/2+y,z
1/2-x,1/2+y,1/2-z
1/2-x,1/2-y,-z
1/2+x,1/2-y,1/2+z
loop_
_atom_site_type_symbol
_atom_site_label
_atom_site_fract_x
_atom_site_fract_y
_atom_site_fract_z
Si Si1 0.937445 0.697840 0.420413
Si Si2 0.329545 0.580126 0.721864
Si Si3 0.835903 0.069058 0.506582
Si Si4 0.363198 0.230265 0.724395
Si Si5 0.605290 0.043434 0.247125
Si Si6 0.927887 0.389962 0.512097
Si Si7 0.666800 0.598162 0.263386
O O1 0.781758 0.655961 0.617653
O O2 0.917677 0.735754 0.545617
O O3 0.000000 0.750244 0.250000
O O4 0.057582 0.623398 0.258612
O O5 0.328243 0.553643 0.621480
O O6 0.494053 0.598005 0.516921
O O7 0.288935 0.494672 0.829211
O O8 0.750313 0.155330 0.613600
O O9 0.757990 0.995991 0.561203
O O10 0.000000 0.076842 0.250000
O O11 0.495017 0.199065 0.599274
O O12 0.305317 0.320232 0.834015
O O13 0.511248 0.964647 0.346550
O O14 0.554644 0.079508 0.413097
O O15 0.766045 0.384854 0.707744
#
# Coordination Sequence:
#
# PCOD9275401 Si02
#       7
#     8   8   8   8   8   8   8
#     4  10  20  39  61  87 121 151 198 246 288 357
#     4  10  22  37  60  92 113 151 198 249 296 339
#     4  10  20  39  61  87 121 151 198 246 288 357
#     4   9  22  36  62  85 116 167 191 233 309 356
#     4   9  16  34  58  83 108 158 200 233 290 351
#     4   9  16  34  59  80 110 158 199 231 292 359
#     4  11  20  36  63  86 123 152 194 251 300 347
#
# _framework density 24.678356999999998
#
# number of rings (size 3 to 8) (size 9 to 14) (size 15 to 20)
#    0.000    2.286    2.857    1.714    4.000    2.286 
#    0.000    2.857    0.000    0.000    0.000    0.000 
#    0.000    0.000    0.000    0.000    0.000    0.000 
#
# Total GULP energy -156243.514897 kJ/mol
# GULP energy per Si atom -5580.125532 kJ/mol
# Density = 2.462219 g / cm^3
# Si number density = 24.678357 Si / 1000 Ang^3
#
#
#
# Elastic Constant Matrix: (Units=GPa)
#
#
# Indices 1 2 3 4 5 6 
#
# 1 92.2515 6.0913 46.2112 0.0000 -10.5152 0.0000
# 2 6.0913 83.8336 -0.7061 -0.0001 -19.6486 0.0000
# 3 46.2112 -0.7061 90.8068 0.0000 -18.4810 -0.0001
# 4 0.0000 -0.0001 0.0000 7.8855 -0.0001 -5.9616
# 5 -10.5152 -19.6486 -18.4810 -0.0001 58.5489 0.0000
# 6 0.0000 0.0000 -0.0001 -5.9616 0.0000 8.6501
#
#
#
# Elastic Compliance Matrix: (Units=1/GPa)
#
#
# Indices 1 2 3 4 5 6 
#
# 1 0.014655 -0.001156 -0.007492 0.000000 -0.000121 0.000000
# 2 -0.001156 0.013133 0.001651 0.000000 0.004721 0.000000
# 3 -0.007492 0.001651 0.015684 0.000000 0.004159 0.000000
# 4 0.000000 0.000000 0.000000 0.264779 0.000000 0.182485
# 5 -0.000121 0.004721 0.004159 0.000000 0.019955 0.000000
# 6 0.000000 0.000000 0.000000 0.182485 0.000000 0.241375
#
#
# Mechanical properties :
#
#
# Convention : Reuss Voigt Hill
#
# Bulk Modulus (GPa) = 33.92219 41.12053 37.52136
# Shear Modulus (GPa) = 8.42602 29.36993 18.89798
#
# Velocity S-wave (km/s) = 1.84980 3.45354 2.77026
# Velocity P-wave (km/s) = 4.28228 5.70976 5.04674
#
# Compressibility (1/GPa) = 0.02947923
#
# Stress axis : x y z
#
# Youngs Moduli (GPa) = 68.23501 76.14543 63.75856
#
# Poissons Ratio (x) = 0.08804 0.47765
# Poissons Ratio (y) = 0.07889 -0.10528
# Poissons Ratio (z) = 0.51119 -0.12574
#
# Static dielectric constant tensor:
#      x y z
#    x 1.981650 0.000000 0.062930 
#    y 0.000000 2.010710 0.000000 
#    z 0.062930 0.000000 1.964730 
# 
# From -- ./inp_files/222920.got.cif
#   From: 2010.05.17/outbox.cif.g08.bks.cpg/sg15_112_cif.got.tgz:222920.got - 2010.06.03 18:47:42.
