data_PCOD9275963
_publ_section_title
;
Structure prediction by ZEFSAII (Michael W. Deem and Ramdas Pophale) SiO2 
 PCOD9275963
Probable space group: C 2/C
;
_chemical_formula_sum "Si O2"
_cell_formula_units_Z 56
_cell_length_a 7.783344
_cell_length_b 33.748456
_cell_length_c 16.764428
_cell_angle_alpha 90.000000
_cell_angle_beta 35.059203
_cell_angle_gamma 90.000000
_cell_volume 2529.533026
_symmetry_space_group_name_H-M "C 2/C"
_symmetry_group_IT_number 15
_symmetry_cell_setting 'monoclinic'
loop_
_space_group_symop_operation_xyz
x,y,z
-x,y,1/2-z
-x,-y,-z
x,-y,1/2+z
1/2+x,1/2+y,z
1/2-x,1/2+y,1/2-z
1/2-x,1/2-y,-z
1/2+x,1/2-y,1/2+z
loop_
_atom_site_type_symbol
_atom_site_label
_atom_site_fract_x
_atom_site_fract_y
_atom_site_fract_z
Si Si1 0.045216 0.248821 0.830417
Si Si2 0.799684 0.624131 0.970944
Si Si3 0.761083 0.169429 0.215323
Si Si4 0.090509 0.529595 0.090576
Si Si5 0.497203 0.460553 0.593487
Si Si6 0.938335 0.384143 0.953230
Si Si7 0.875855 0.160815 0.704964
O O1 0.000000 0.248613 0.750000
O O2 0.231381 0.289147 0.773346
O O3 0.190980 0.206172 0.791120
O O4 0.750000 0.250000 0.000000
O O5 0.087781 0.633100 0.808340
O O6 0.574242 0.661100 0.054704
O O7 0.626157 0.583031 0.026949
O O8 0.929882 0.622483 0.010351
O O9 0.500000 0.169311 0.250000
O O10 0.688560 0.131508 0.297657
O O11 0.287016 0.530819 0.096952
O O12 0.152650 0.570440 0.021690
O O13 0.739294 0.532474 0.245224
O O14 0.222006 0.490003 0.001363
O O15 0.648993 0.356692 0.050850
O O16 0.000000 0.160325 0.750000
#
# Coordination Sequence:
#
# PCOD9275963 Si02
#       7
#     8   8   8   8   8   8   8
#     4  10  20  39  66  92 128 174 219 268 329 389
#     4  11  23  39  62  92 122 163 211 259 313 384
#     4  11  22  38  64  88 123 164 212 258 319 379
#     4  10  22  39  61  85 121 161 201 252 313 373
#     4  10  22  40  59  87 122 160 203 252 310 378
#     4  11  21  39  63  88 120 166 202 257 315 376
#     4   9  21  39  60  88 126 160 207 259 317 370
#
# _framework density 22.138472
#
# number of rings (size 3 to 8) (size 9 to 14) (size 15 to 20)
#    0.000    1.714    2.857    1.286    2.000    1.143 
#    0.000    2.143    0.000    0.000    0.000    0.000 
#    0.000    0.000    0.000    0.000    0.000    0.000 
#
# Total GULP energy -156254.744941 kJ/mol
# GULP energy per Si atom -5580.526605 kJ/mol
# Density = 2.208808 g / cm^3
# Si number density = 22.138472 Si / 1000 Ang^3
#
#
#
# Elastic Constant Matrix: (Units=GPa)
#
#
# Indices 1 2 3 4 5 6 
#
# 1 40.3524 1.3446 13.8596 0.0000 5.8028 0.0000
# 2 1.3446 132.4042 38.2805 0.0000 -19.1980 0.0000
# 3 13.8596 38.2805 92.6939 0.0000 -18.9819 0.0000
# 4 0.0000 0.0000 0.0000 30.7424 0.0000 10.7103
# 5 5.8028 -19.1980 -18.9819 0.0000 19.6739 0.0000
# 6 0.0000 0.0000 0.0000 10.7103 0.0000 17.6245
#
#
#
# Elastic Compliance Matrix: (Units=1/GPa)
#
#
# Indices 1 2 3 4 5 6 
#
# 1 0.029834 -0.000506 -0.007670 0.000000 -0.016693 0.000000
# 2 -0.000506 0.009232 -0.002320 0.000000 0.006919 0.000000
# 3 -0.007670 -0.002320 0.016067 0.000000 0.015501 0.000000
# 4 0.000000 0.000000 0.000000 0.041265 0.000000 -0.025076
# 5 -0.016693 0.006919 0.015501 0.000000 0.077460 0.000000
# 6 0.000000 0.000000 0.000000 -0.025076 0.000000 0.071978
#
#
# Mechanical properties :
#
#
# Convention : Reuss Voigt Hill
#
# Bulk Modulus (GPa) = 29.29063 41.37997 35.33530
# Shear Modulus (GPa) = 17.97217 27.73921 22.85569
#
# Velocity S-wave (km/s) = 2.85231 3.54360 3.21658
# Velocity P-wave (km/s) = 4.90988 5.95607 5.45810
#
# Compressibility (1/GPa) = 0.03414061
#
# Stress axis : x y z
#
# Youngs Moduli (GPa) = 33.51930 108.32151 62.23784
#
# Poissons Ratio (x) = 0.05479 0.47738
# Poissons Ratio (y) = 0.01695 0.14439
# Poissons Ratio (z) = 0.25710 0.25130
#
# Static dielectric constant tensor:
#      x y z
#    x 1.840880 0.000000 0.016540 
#    y 0.000000 1.815850 0.000000 
#    z 0.016540 0.000000 1.788850 
# 
# From -- ./inp_files/234923.got.cif
#   From: 2010.05.17/outbox.cif.g08.bks.cpg/sg15_118_cif.got.tgz:234923.got - 2010.06.03 18:47:42.
