data_PCOD9275975
_publ_section_title
;
Structure prediction by ZEFSAII (Michael W. Deem and Ramdas Pophale) SiO2 
 PCOD9275975
Probable space group: C 2/C
;
_chemical_formula_sum "Si O2"
_cell_formula_units_Z 32
_cell_length_a 5.675356
_cell_length_b 22.144911
_cell_length_c 10.301669
_cell_angle_alpha 90.000000
_cell_angle_beta 70.258105
_cell_angle_gamma 90.000000
_cell_volume 1218.617872
_symmetry_space_group_name_H-M "C 2/C"
_symmetry_group_IT_number 15
_symmetry_cell_setting 'monoclinic'
loop_
_space_group_symop_operation_xyz
x,y,z
-x,y,1/2-z
-x,-y,-z
x,-y,1/2+z
1/2+x,1/2+y,z
1/2-x,1/2+y,1/2-z
1/2-x,1/2-y,-z
1/2+x,1/2-y,1/2+z
loop_
_atom_site_type_symbol
_atom_site_label
_atom_site_fract_x
_atom_site_fract_y
_atom_site_fract_z
Si Si1 0.500000 0.276348 0.250000
Si Si2 0.000000 0.301555 0.250000
Si Si3 0.709719 0.942499 0.322753
Si Si4 0.743292 0.292694 0.595953
Si Si5 0.900821 0.583395 0.129249
O O1 0.746317 0.316513 0.217455
O O2 0.510718 0.229650 0.368068
O O3 0.829606 0.286814 0.424388
O O4 0.500000 0.923703 0.250000
O O5 0.614201 0.921618 0.480646
O O6 0.000000 0.928650 0.250000
O O7 0.699252 0.015962 0.330943
O O8 0.500000 0.277683 0.750000
O O9 0.718406 0.365479 0.608177
O O10 0.000000 0.603608 0.250000
#
# Coordination Sequence:
#
# PCOD9275975 Si02
#       5
#     4   4   8   8   8
#     4   8  18  36  54  86 119 163 230 264 336 384
#     4   8  18  36  56  84 119 169 220 278 324 398
#     4  10  24  45  71 109 150 183 237 310 370 424
#     4  10  20  39  66  93 136 179 237 287 347 423
#     4  10  21  42  74 107 141 194 246 293 363 441
#
# _framework density 26.259259
#
# number of rings (size 3 to 8) (size 9 to 14) (size 15 to 20)
#    1.500    1.000    1.250    0.000    1.750   10.000 
#    6.750    0.000    5.500    0.000    0.000    0.000 
#    0.000    0.000    0.000    0.000    0.000    0.000 
#
# Total GULP energy -89106.706197 kJ/mol
# GULP energy per Si atom -5569.169137 kJ/mol
# Density = 2.619949 g / cm^3
# Si number density = 26.259259 Si / 1000 Ang^3
#
#
#
# Elastic Constant Matrix: (Units=GPa)
#
#
# Indices 1 2 3 4 5 6 
#
# 1 199.4670 43.7131 74.2781 0.0000 -16.1299 0.0000
# 2 43.7131 47.7522 24.1535 0.0000 7.0100 0.0000
# 3 74.2781 24.1535 191.7236 0.0000 15.2762 0.0000
# 4 0.0000 0.0000 0.0000 94.5795 0.0000 -36.2352
# 5 -16.1299 7.0100 15.2762 0.0000 49.4421 0.0000
# 6 0.0000 0.0000 0.0000 -36.2352 0.0000 42.9376
#
#
#
# Elastic Compliance Matrix: (Units=1/GPa)
#
#
# Indices 1 2 3 4 5 6 
#
# 1 0.007683 -0.006380 -0.002506 0.000000 0.004186 0.000000
# 2 -0.006380 0.027936 -0.000580 0.000000 -0.005863 0.000000
# 3 -0.002506 -0.000580 0.006478 0.000000 -0.002737 0.000000
# 4 0.000000 0.000000 0.000000 0.015625 0.000000 0.013186
# 5 0.004186 -0.005863 -0.002737 0.000000 0.023268 0.000000
# 6 0.000000 0.000000 0.000000 0.013186 0.000000 0.034417
#
#
# Mechanical properties :
#
#
# Convention : Reuss Voigt Hill
#
# Bulk Modulus (GPa) = 43.17125 80.35913 61.76519
# Shear Modulus (GPa) = 35.19562 57.17840 46.18701
#
# Velocity S-wave (km/s) = 3.66500 4.67139 4.19846
# Velocity P-wave (km/s) = 5.86393 7.73075 6.86113
#
# Compressibility (1/GPa) = 0.02316357
#
# Stress axis : x y z
#
# Youngs Moduli (GPa) = 130.15077 35.79586 154.36628
#
# Poissons Ratio (x) = 0.22838 0.38691
# Poissons Ratio (y) = 0.83038 0.08960
# Poissons Ratio (z) = 0.32622 0.02078
#
# Static dielectric constant tensor:
#      x y z
#    x 1.978300 0.000000 -0.056420 
#    y 0.000000 2.257800 0.000000 
#    z -0.056420 0.000000 2.079540 
# 
# From -- ./inp_files/20155.got.cif
#   From: 2010.05.17/outbox.cif.g08.bks.cpg/sg15_11_cif.got.tgz:20155.got - 2010.06.03 18:47:42.
