data_PCOD9275120
_publ_section_title
;
Structure prediction by ZEFSAII (Michael W. Deem and Ramdas Pophale) SiO2 
 PCOD9275120
Probable space group: C 2/C
;
_chemical_formula_sum "Si O2"
_cell_formula_units_Z 28
_cell_length_a 15.144982
_cell_length_b 17.030750
_cell_length_c 8.014314
_cell_angle_alpha 90.000000
_cell_angle_beta 142.052847
_cell_angle_gamma 90.000000
_cell_volume 1271.152541
_symmetry_space_group_name_H-M "C 2/C"
_symmetry_group_IT_number 15
_symmetry_cell_setting 'monoclinic'
loop_
_space_group_symop_operation_xyz
x,y,z
-x,y,1/2-z
-x,-y,-z
x,-y,1/2+z
1/2+x,1/2+y,z
1/2-x,1/2+y,1/2-z
1/2-x,1/2-y,-z
1/2+x,1/2-y,1/2+z
loop_
_atom_site_type_symbol
_atom_site_label
_atom_site_fract_x
_atom_site_fract_y
_atom_site_fract_z
Si Si1 0.415575 0.930775 0.957490
Si Si2 0.000000 0.855444 0.750000
Si Si3 0.608551 0.400870 0.567930
Si Si4 0.189538 0.270886 0.730787
O O1 0.249248 0.953167 0.741310
O O2 0.413894 0.844424 0.876378
O O3 0.500000 0.915603 0.250000
O O4 0.500000 0.000000 0.000000
O O5 0.950804 0.908911 0.833747
O O6 0.883998 0.797070 0.487533
O O7 0.681246 0.313543 0.676449
O O8 0.500000 0.405191 0.250000
O O9 0.250000 0.250000 0.000000
#
# Coordination Sequence:
#
# PCOD9275120 Si02
#       4
#     8   4   8   8
#     4  10  23  47  63  96 145 196 237 279 367 450
#     4  12  18  40  68 106 142 174 238 314 366 416
#     4  10  22  40  69 101 138 180 239 301 363 418
#     4  10  20  38  69 104 140 180 234 306 366 418
#
# _framework density 22.027256000000001
#
# number of rings (size 3 to 8) (size 9 to 14) (size 15 to 20)
#    1.714    0.000    4.286    0.857    0.000    0.000 
#   15.429    1.429    0.000    0.000    0.000    0.000 
#    0.000    0.000    0.000    0.000    0.000    0.000 
#
# Total GULP energy -77965.328346 kJ/mol
# GULP energy per Si atom -5568.952025 kJ/mol
# Density = 2.197712 g / cm^3
# Si number density = 22.027256 Si / 1000 Ang^3
#
#
#
# Elastic Constant Matrix: (Units=GPa)
#
#
# Indices 1 2 3 4 5 6 
#
# 1 129.7978 39.5626 63.4686 0.0000 -5.4899 0.0000
# 2 39.5626 79.3850 49.7802 0.0000 -6.7075 0.0000
# 3 63.4686 49.7802 193.1598 0.0000 -11.5079 0.0000
# 4 0.0000 0.0000 0.0000 180.9748 0.0000 -99.1538
# 5 -5.4899 -6.7075 -11.5079 0.0000 38.8853 0.0000
# 6 0.0000 0.0000 0.0000 -99.1538 0.0000 114.4584
#
#
#
# Elastic Compliance Matrix: (Units=1/GPa)
#
#
# Indices 1 2 3 4 5 6 
#
# 1 0.009916 -0.003451 -0.002362 0.000000 0.000105 0.000000
# 2 -0.003451 0.016309 -0.002983 0.000000 0.001443 0.000000
# 3 -0.002362 -0.002983 0.006791 0.000000 0.001162 0.000000
# 4 0.000000 0.000000 0.000000 0.010518 0.000000 0.009111
# 5 0.000105 0.001443 0.001162 0.000000 0.026324 0.000000
# 6 0.000000 0.000000 0.000000 0.009111 0.000000 0.016630
#
#
# Mechanical properties :
#
#
# Convention : Reuss Voigt Hill
#
# Bulk Modulus (GPa) = 64.83922 78.66283 71.75102
# Shear Modulus (GPa) = 45.77783 83.49912 64.63847
#
# Velocity S-wave (km/s) = 4.56371 6.16356 5.42296
# Velocity P-wave (km/s) = 7.56768 9.29741 8.47678
#
# Compressibility (1/GPa) = 0.01542276
#
# Stress axis : x y z
#
# Youngs Moduli (GPa) = 100.84789 61.31396 147.24669
#
# Poissons Ratio (x) = 0.21162 0.34786
# Poissons Ratio (y) = 0.34807 0.43926
# Poissons Ratio (z) = 0.23824 0.18291
#
# Static dielectric constant tensor:
#      x y z
#    x 1.886080 0.000000 0.090740 
#    y 0.000000 1.818740 0.000000 
#    z 0.090740 0.000000 1.512080 
# 
# From -- ./inp_files/48229.got.cif
#   From: 2010.05.17/outbox.cif.g08.bks.cpg/sg15_25_cif.got.tgz:48229.got - 2010.06.03 18:47:42.
