data_PCOD9275839
_publ_section_title
;
Structure prediction by ZEFSAII (Michael W. Deem and Ramdas Pophale) SiO2 
 PCOD9275839
Probable space group: C 2/C
;
_chemical_formula_sum "Si O2"
_cell_formula_units_Z 56
_cell_length_a 20.948918
_cell_length_b 15.108484
_cell_length_c 8.910402
_cell_angle_alpha 90.000000
_cell_angle_beta 92.200897
_cell_angle_gamma 90.000000
_cell_volume 2818.118774
_symmetry_space_group_name_H-M "C 2/C"
_symmetry_group_IT_number 15
_symmetry_cell_setting 'monoclinic'
loop_
_space_group_symop_operation_xyz
x,y,z
-x,y,1/2-z
-x,-y,-z
x,-y,1/2+z
1/2+x,1/2+y,z
1/2-x,1/2+y,1/2-z
1/2-x,1/2-y,-z
1/2+x,1/2-y,1/2+z
loop_
_atom_site_type_symbol
_atom_site_label
_atom_site_fract_x
_atom_site_fract_y
_atom_site_fract_z
Si Si1 0.436040 0.235131 0.051674
Si Si2 0.793284 0.822550 0.413684
Si Si3 0.764125 0.479471 0.583459
Si Si4 0.040645 0.561203 0.617033
Si Si5 0.648583 0.059064 0.140528
Si Si6 0.418762 0.241698 0.411483
Si Si7 0.695708 0.683604 0.941396
O O1 0.430003 0.237604 0.232130
O O2 0.510013 0.256767 0.019751
O O3 0.374494 0.293006 0.001858
O O4 0.428521 0.139100 0.977233
O O5 0.750000 0.750000 0.500000
O O6 0.867455 0.812173 0.468288
O O7 0.799778 0.803860 0.237132
O O8 0.765877 0.921995 0.413338
O O9 0.825308 0.496601 0.486921
O O10 0.792507 0.435392 0.737702
O O11 0.716182 0.413193 0.497521
O O12 0.090385 0.496128 0.702906
O O13 0.000000 0.600817 0.750000
O O14 0.000000 0.500000 0.500000
O O15 0.618215 0.148064 0.069806
O O16 0.750000 0.750000 0.000000
#
# Coordination Sequence:
#
# PCOD9275839 Si02
#       7
#     8   8   8   8   8   8   8
#     4  10  22  40  61  91 125 171 212 259 332 390
#     4  11  23  41  66  98 126 173 225 277 326 388
#     4  12  24  40  62  97 130 174 221 267 328 387
#     4  12  23  37  59  92 132 169 209 260 333 408
#     4  12  22  37  60  92 133 167 211 267 329 392
#     4  10  20  39  65  89 126 167 213 268 326 392
#     4  11  24  44  66  92 132 173 219 272 326 399
#
# _framework density 19.871414000000001
#
# number of rings (size 3 to 8) (size 9 to 14) (size 15 to 20)
#    0.000    0.857    4.286    5.143    0.000    0.000 
#    0.000    0.714    0.000    0.000    0.000    0.000 
#    0.000    0.000    0.000    0.000    0.000    0.000 
#
# Total GULP energy -156019.105227 kJ/mol
# GULP energy per Si atom -5572.110901 kJ/mol
# Density = 1.982619 g / cm^3
# Si number density = 19.871414 Si / 1000 Ang^3
#
#
#
# Elastic Constant Matrix: (Units=GPa)
#
#
# Indices 1 2 3 4 5 6 
#
# 1 163.9003 68.7904 28.8100 0.0000 4.7380 0.0000
# 2 68.7904 89.2217 11.2145 0.0000 0.2129 0.0000
# 3 28.8100 11.2145 49.4618 0.0000 -0.5286 0.0000
# 4 0.0000 0.0000 0.0000 23.0413 0.0000 -1.4703
# 5 4.7380 0.2129 -0.5286 0.0000 24.7122 0.0000
# 6 0.0000 0.0000 0.0000 -1.4703 0.0000 46.6510
#
#
#
# Elastic Compliance Matrix: (Units=1/GPa)
#
#
# Indices 1 2 3 4 5 6 
#
# 1 0.009855 -0.007071 -0.004158 0.000000 -0.001918 0.000000
# 2 -0.007071 0.016611 0.000366 0.000000 0.001221 0.000000
# 3 -0.004158 0.000366 0.022570 0.000000 0.001277 0.000000
# 4 0.000000 0.000000 0.000000 0.043488 0.000000 0.001371
# 5 -0.001918 0.001221 0.001277 0.000000 0.040850 0.000000
# 6 0.000000 0.000000 0.000000 0.001371 0.000000 0.021479
#
#
# Mechanical properties :
#
#
# Convention : Reuss Voigt Hill
#
# Bulk Modulus (GPa) = 36.61677 57.80152 47.20915
# Shear Modulus (GPa) = 26.92741 31.79881 29.36311
#
# Velocity S-wave (km/s) = 3.68514 4.00463 3.84820
# Velocity P-wave (km/s) = 6.04763 7.10870 6.59953
#
# Compressibility (1/GPa) = 0.02730989
#
# Stress axis : x y z
#
# Youngs Moduli (GPa) = 101.46623 60.19991 44.30639
#
# Poissons Ratio (x) = 0.42570 0.18421
# Poissons Ratio (y) = 0.71752 -0.01620
# Poissons Ratio (z) = 0.42187 -0.02201
#
# Static dielectric constant tensor:
#      x y z
#    x 1.808040 0.000000 0.061360 
#    y 0.000000 1.688940 0.000000 
#    z 0.061360 0.000000 1.800540 
# 
# From -- ./inp_files/55624.got.cif
#   From: 2010.05.17/outbox.cif.g08.bks.cpg/sg15_28_cif.got.tgz:55624.got - 2010.06.03 18:47:42.
