data_PCOD9275952
_publ_section_title
;
Structure prediction by ZEFSAII (Michael W. Deem and Ramdas Pophale) SiO2 
 PCOD9275952
Probable space group: C 2/C
;
_chemical_formula_sum "Si O2"
_cell_formula_units_Z 48
_cell_length_a 15.375515
_cell_length_b 24.254578
_cell_length_c 12.200276
_cell_angle_alpha 90.000000
_cell_angle_beta 152.727434
_cell_angle_gamma 90.000000
_cell_volume 2084.831214
_symmetry_space_group_name_H-M "C 2/C"
_symmetry_group_IT_number 15
_symmetry_cell_setting 'monoclinic'
loop_
_space_group_symop_operation_xyz
x,y,z
-x,y,1/2-z
-x,-y,-z
x,-y,1/2+z
1/2+x,1/2+y,z
1/2-x,1/2+y,1/2-z
1/2-x,1/2-y,-z
1/2+x,1/2-y,1/2+z
loop_
_atom_site_type_symbol
_atom_site_label
_atom_site_fract_x
_atom_site_fract_y
_atom_site_fract_z
Si Si1 0.736240 0.793531 0.146417
Si Si2 0.500000 0.662882 0.750000
Si Si3 0.537893 0.916838 0.420389
Si Si4 0.844909 0.892021 0.386057
Si Si5 0.818035 0.013123 0.716860
Si Si6 0.500000 0.452885 0.750000
Si Si7 0.322443 0.832062 0.752160
O O1 0.844848 0.828001 0.362229
O O2 0.736752 0.728986 0.173200
O O3 0.856613 0.802992 0.170014
O O4 0.523503 0.819833 0.915436
O O5 0.340550 0.634801 0.496189
O O6 0.500000 0.908031 0.250000
O O7 0.333893 0.915277 0.247922
O O8 0.641704 0.866281 0.597740
O O9 0.646160 0.974321 0.561965
O O10 0.811465 0.921954 0.231788
O O11 0.003015 0.913080 0.647356
O O12 0.844893 0.996429 0.620604
O O13 0.000000 0.000000 0.000000
#
# Coordination Sequence:
#
# PCOD9275952 Si02
#       7
#     8   4   8   8   8   4   8
#     4  11  24  41  65 100 134 175 223 277 329 401
#     4  12  24  41  72  86 146 170 219 284 330 384
#     4  11  23  46  69  94 135 175 217 276 334 391
#     4  10  23  42  63  95 132 168 221 273 328 399
#     4  10  22  39  67  93 126 167 218 264 331 390
#     4  10  20  39  66  90 128 170 209 270 332 392
#     4  11  25  42  67 101 133 178 228 269 341 394
#
# _framework density 23.023446
#
# number of rings (size 3 to 8) (size 9 to 14) (size 15 to 20)
#    0.000    1.333    3.333    1.500    4.667    0.667 
#    4.500    3.333    0.000    0.000    0.000    0.000 
#    0.000    0.000    0.000    0.000    0.000    0.000 
#
# Total GULP energy -133663.329719 kJ/mol
# GULP energy per Si atom -5569.305405 kJ/mol
# Density = 2.297104 g / cm^3
# Si number density = 23.023446 Si / 1000 Ang^3
#
#
#
# Elastic Constant Matrix: (Units=GPa)
#
#
# Indices 1 2 3 4 5 6 
#
# 1 91.6710 28.7039 26.2049 0.0000 4.4172 0.0000
# 2 28.7039 65.3393 19.8896 0.0000 -10.8705 0.0000
# 3 26.2049 19.8896 98.0210 0.0000 -14.4539 0.0000
# 4 0.0000 0.0000 0.0000 31.2416 0.0000 2.7604
# 5 4.4172 -10.8705 -14.4539 0.0000 44.0644 0.0000
# 6 0.0000 0.0000 0.0000 2.7604 0.0000 24.0684
#
#
#
# Elastic Compliance Matrix: (Units=1/GPa)
#
#
# Indices 1 2 3 4 5 6 
#
# 1 0.013771 -0.005746 -0.003077 0.000000 -0.003807 0.000000
# 2 -0.005746 0.019120 -0.001642 0.000000 0.004754 0.000000
# 3 -0.003077 -0.001642 0.011920 0.000000 0.003813 0.000000
# 4 0.000000 0.000000 0.000000 0.032336 0.000000 -0.003709
# 5 -0.003807 0.004754 0.003813 0.000000 0.025499 0.000000
# 6 0.000000 0.000000 0.000000 -0.003709 0.000000 0.041974
#
#
# Mechanical properties :
#
#
# Convention : Reuss Voigt Hill
#
# Bulk Modulus (GPa) = 41.87690 44.95867 43.41778
# Shear Modulus (GPa) = 28.81652 31.89041 30.35347
#
# Velocity S-wave (km/s) = 3.54166 3.72577 3.63488
# Velocity P-wave (km/s) = 5.91208 6.17075 6.04280
#
# Compressibility (1/GPa) = 0.02387951
#
# Stress axis : x y z
#
# Youngs Moduli (GPa) = 72.61689 52.30104 83.89235
#
# Poissons Ratio (x) = 0.30054 0.25813
# Poissons Ratio (y) = 0.41729 0.13779
# Poissons Ratio (z) = 0.22344 0.08590
#
# Static dielectric constant tensor:
#      x y z
#    x 1.940880 0.000000 -0.026500 
#    y 0.000000 1.922450 0.000000 
#    z -0.026500 0.000000 2.210900 
# 
# From -- ./inp_files/101423.got.cif
#   From: 2010.05.17/outbox.cif.g08.bks.cpg/sg15_51_cif.got.tgz:101423.got - 2010.06.03 18:47:42.
