data_PCOD9275477
_publ_section_title
;
Structure prediction by ZEFSAII (Michael W. Deem and Ramdas Pophale) SiO2 
 PCOD9275477
Probable space group: C 2/C
;
_chemical_formula_sum "Si O2"
_cell_formula_units_Z 44
_cell_length_a 5.063063
_cell_length_b 27.942236
_cell_length_c 14.219512
_cell_angle_alpha 90.000000
_cell_angle_beta 82.900867
_cell_angle_gamma 90.000000
_cell_volume 1996.259370
_symmetry_space_group_name_H-M "C 2/C"
_symmetry_group_IT_number 15
_symmetry_cell_setting 'monoclinic'
loop_
_space_group_symop_operation_xyz
x,y,z
-x,y,1/2-z
-x,-y,-z
x,-y,1/2+z
1/2+x,1/2+y,z
1/2-x,1/2+y,1/2-z
1/2-x,1/2-y,-z
1/2+x,1/2-y,1/2+z
loop_
_atom_site_type_symbol
_atom_site_label
_atom_site_fract_x
_atom_site_fract_y
_atom_site_fract_z
Si Si1 0.500000 0.856148 0.250000
Si Si2 0.511101 0.210384 0.911220
Si Si3 0.534419 0.976542 0.897036
Si Si4 0.831170 0.056987 0.663415
Si Si5 0.474078 0.422014 0.557201
Si Si6 0.968121 0.812064 0.531633
O O1 0.379746 0.821195 0.178152
O O2 0.295810 0.891541 0.309673
O O3 0.685326 0.193520 0.992455
O O4 0.203765 0.199213 0.947045
O O5 0.528290 0.267386 0.897111
O O6 0.828732 0.954220 0.887163
O O7 0.325876 0.933380 0.900703
O O8 0.403195 0.018539 0.841551
O O9 0.500000 0.000000 0.000000
O O10 0.982149 0.062438 0.555513
O O11 0.000000 0.045103 0.750000
O O12 0.519273 0.365582 0.564134
#
# Coordination Sequence:
#
# PCOD9275477 Si02
#       6
#     4   8   8   8   8   8
#     4  12  24  36  62  92 128 150 194 256 322 348
#     4  10  22  37  59  93 122 153 197 250 301 360
#     4  10  23  38  58  87 120 159 208 243 290 366
#     4  11  24  35  59  90 125 156 194 259 313 352
#     4  11  21  40  62  86 118 164 207 242 296 362
#     4  10  20  39  62  87 120 160 203 240 293 365
#
# _framework density 22.041224
#
# number of rings (size 3 to 8) (size 9 to 14) (size 15 to 20)
#    0.000    1.455    1.818    4.364   10.182    0.000 
#    0.000    0.000    2.000    0.000    4.727    0.000 
#    0.000    0.000    0.000    0.000    0.000    0.000 
#
# Total GULP energy -122814.372395 kJ/mol
# GULP energy per Si atom -5582.471473 kJ/mol
# Density = 2.199106 g / cm^3
# Si number density = 22.041224 Si / 1000 Ang^3
#
#
#
# Elastic Constant Matrix: (Units=GPa)
#
#
# Indices 1 2 3 4 5 6 
#
# 1 81.1798 11.7360 14.9694 0.0000 16.3284 0.0000
# 2 11.7360 174.3692 43.5626 0.0000 20.7237 0.0000
# 3 14.9694 43.5626 64.2123 0.0000 15.1710 0.0000
# 4 0.0000 0.0000 0.0000 61.3083 0.0000 41.3513
# 5 16.3284 20.7237 15.1710 0.0000 28.9907 0.0000
# 6 0.0000 0.0000 0.0000 41.3513 0.0000 52.5987
#
#
#
# Elastic Compliance Matrix: (Units=1/GPa)
#
#
# Indices 1 2 3 4 5 6 
#
# 1 0.014054 0.000367 -0.001818 0.000000 -0.007227 0.000000
# 2 0.000367 0.007125 -0.004185 0.000000 -0.003110 0.000000
# 3 -0.001818 -0.004185 0.020411 0.000000 -0.006666 0.000000
# 4 0.000000 0.000000 0.000000 0.034723 0.000000 -0.027298
# 5 -0.007227 -0.003110 -0.006666 0.000000 0.044276 0.000000
# 6 0.000000 0.000000 0.000000 -0.027298 0.000000 0.040473
#
#
# Mechanical properties :
#
#
# Convention : Reuss Voigt Hill
#
# Bulk Modulus (GPa) = 32.98217 51.14414 42.06316
# Shear Modulus (GPa) = 27.40637 45.21243 36.30940
#
# Velocity S-wave (km/s) = 3.53003 4.53400 4.06315
# Velocity P-wave (km/s) = 5.62238 7.11785 6.41385
#
# Compressibility (1/GPa) = 0.03031941
#
# Stress axis : x y z
#
# Youngs Moduli (GPa) = 71.15378 140.34345 48.99309
#
# Poissons Ratio (x) = -0.05153 0.08907
# Poissons Ratio (y) = -0.02613 0.20502
# Poissons Ratio (z) = 0.12936 0.58729
#
# Static dielectric constant tensor:
#      x y z
#    x 1.828140 0.000000 0.007000 
#    y 0.000000 1.815780 0.000000 
#    z 0.007000 0.000000 1.852430 
# 
# From -- ./inp_files/129713.got.cif
#   From: 2010.05.17/outbox.cif.g08.bks.cpg/sg15_65_cif.got.tgz:129713.got - 2010.06.03 18:47:42.
