data_PCOD9275188
_publ_section_title
;
Structure prediction by ZEFSAII (Michael W. Deem and Ramdas Pophale) SiO2 
 PCOD9275188
Probable space group: C 2/C
;
_chemical_formula_sum "Si O2"
_cell_formula_units_Z 24
_cell_length_a 5.312908
_cell_length_b 12.526124
_cell_length_c 14.903074
_cell_angle_alpha 90.000000
_cell_angle_beta 93.282532
_cell_angle_gamma 90.000000
_cell_volume 990.174498
_symmetry_space_group_name_H-M "C 2/C"
_symmetry_group_IT_number 15
_symmetry_cell_setting 'monoclinic'
loop_
_space_group_symop_operation_xyz
x,y,z
-x,y,1/2-z
-x,-y,-z
x,-y,1/2+z
1/2+x,1/2+y,z
1/2-x,1/2+y,1/2-z
1/2-x,1/2-y,-z
1/2+x,1/2-y,1/2+z
loop_
_atom_site_type_symbol
_atom_site_label
_atom_site_fract_x
_atom_site_fract_y
_atom_site_fract_z
Si Si1 0.462741 0.183175 0.450334
Si Si2 0.000000 0.977434 0.750000
Si Si3 0.700974 0.543132 0.934118
Si Si4 0.500000 0.165675 0.250000
O O1 0.250000 0.250000 0.500000
O O2 0.685354 0.152661 0.525530
O O3 0.482686 0.222076 0.347483
O O4 0.386334 0.058280 0.429298
O O5 0.242953 0.903813 0.734885
O O6 0.070261 0.048459 0.835895
O O7 0.500000 0.500000 0.000000
#
# Coordination Sequence:
#
# PCOD9275188 Si02
#       4
#     8   4   8   4
#     4  10  22  40  69 100 141 185 244 303 366 436
#     4  10  20  38  71  95 138 190 246 280 370 447
#     4  10  20  40  68  96 137 192 236 301 365 438
#     4  10  20  40  67  97 138 192 232 302 370 431
#
# _framework density 24.238153000000001
#
# number of rings (size 3 to 8) (size 9 to 14) (size 15 to 20)
#    0.000    2.000    3.333    0.000    0.000    1.333 
#    0.000    1.667   14.667    0.000    0.000    0.000 
#    0.000    0.000    0.000    0.000    0.000    0.000 
#
# Total GULP energy -66935.023711 kJ/mol
# GULP energy per Si atom -5577.918643 kJ/mol
# Density = 2.418299 g / cm^3
# Si number density = 24.238153 Si / 1000 Ang^3
#
#
#
# Elastic Constant Matrix: (Units=GPa)
#
#
# Indices 1 2 3 4 5 6 
#
# 1 119.1157 31.0943 68.5800 0.0000 -3.0602 0.0000
# 2 31.0943 128.7657 65.8909 0.0000 6.1279 0.0000
# 3 68.5800 65.8909 317.1202 0.0000 8.2927 0.0000
# 4 0.0000 0.0000 0.0000 31.6609 0.0000 1.3529
# 5 -3.0602 6.1279 8.2927 0.0000 48.6753 0.0000
# 6 0.0000 0.0000 0.0000 1.3529 0.0000 48.8956
#
#
#
# Elastic Compliance Matrix: (Units=1/GPa)
#
#
# Indices 1 2 3 4 5 6 
#
# 1 0.009882 -0.001490 -0.001857 0.000000 0.001125 0.000000
# 2 -0.001490 0.008945 -0.001511 0.000000 -0.000962 0.000000
# 3 -0.001857 -0.001511 0.003884 0.000000 -0.000588 0.000000
# 4 0.000000 0.000000 0.000000 0.031622 0.000000 -0.000875
# 5 0.001125 -0.000962 -0.000588 0.000000 0.020836 0.000000
# 6 0.000000 0.000000 0.000000 -0.000875 0.000000 0.020476
#
#
# Mechanical properties :
#
#
# Convention : Reuss Voigt Hill
#
# Bulk Modulus (GPa) = 76.94917 99.57023 88.25970
# Shear Modulus (GPa) = 45.58162 52.47548 49.02855
#
# Velocity S-wave (km/s) = 4.34126 4.65800 4.50242
# Velocity P-wave (km/s) = 7.54618 8.37248 7.97004
#
# Compressibility (1/GPa) = 0.01299559
#
# Stress axis : x y z
#
# Youngs Moduli (GPa) = 101.19291 111.79583 257.44261
#
# Poissons Ratio (x) = 0.16653 0.47807
# Poissons Ratio (y) = 0.15074 0.38906
# Poissons Ratio (z) = 0.18792 0.16895
#
# Static dielectric constant tensor:
#      x y z
#    x 2.086430 0.000000 0.092890 
#    y 0.000000 2.317130 0.000000 
#    z 0.092890 0.000000 2.006080 
# 
# From -- ./inp_files/127708.got.cif
#   From: 2010.05.17/outbox.cif.g08.bks.cpg/sg15_64_cif.got.tgz:127708.got - 2010.06.03 18:47:42.
