data_PCOD9275985
_publ_section_title
;
Structure prediction by ZEFSAII (Michael W. Deem and Ramdas Pophale) SiO2 
 PCOD9275985
Probable space group: C 2/C
;
_chemical_formula_sum "Si O2"
_cell_formula_units_Z 40
_cell_length_a 15.537150
_cell_length_b 7.196320
_cell_length_c 17.132175
_cell_angle_alpha 90.000000
_cell_angle_beta 52.347951
_cell_angle_gamma 90.000000
_cell_volume 1516.610980
_symmetry_space_group_name_H-M "C 2/C"
_symmetry_group_IT_number 15
_symmetry_cell_setting 'monoclinic'
loop_
_space_group_symop_operation_xyz
x,y,z
-x,y,1/2-z
-x,-y,-z
x,-y,1/2+z
1/2+x,1/2+y,z
1/2-x,1/2+y,1/2-z
1/2-x,1/2-y,-z
1/2+x,1/2-y,1/2+z
loop_
_atom_site_type_symbol
_atom_site_label
_atom_site_fract_x
_atom_site_fract_y
_atom_site_fract_z
Si Si1 0.231759 0.670346 0.904914
Si Si2 0.492360 0.772215 0.512403
Si Si3 0.016167 0.238351 0.328286
Si Si4 0.759786 0.716466 0.169776
Si Si5 0.820792 0.511067 0.907133
O O1 0.113639 0.768099 0.972719
O O2 0.243431 0.505950 0.836830
O O3 0.316871 0.835869 0.851209
O O4 0.237604 0.561825 0.983420
O O5 0.478924 0.674497 0.434866
O O6 0.383806 0.733255 0.622355
O O7 0.500000 0.000000 0.500000
O O8 0.144436 0.268381 0.271199
O O9 0.000000 0.144740 0.250000
O O10 0.941657 0.421052 0.358801
O O11 0.741139 0.817935 0.097089
#
# Coordination Sequence:
#
# PCOD9275985 Si02
#       5
#     8   8   8   8   8
#     4  10  21  39  69  94 125 174 216 269 334 382
#     4  10  20  41  68  93 133 174 215 272 332 387
#     4  10  21  38  64  97 126 172 219 265 325 391
#     4  10  21  39  68  90 133 172 213 271 329 389
#     4  10  20  39  66  95 127 167 223 264 323 396
#
# _framework density 26.374593999999998
#
# number of rings (size 3 to 8) (size 9 to 14) (size 15 to 20)
#    0.000    2.000    4.000    0.600    2.800    0.800 
#   14.400    9.000    0.000    0.000    0.000    0.000 
#    0.000    0.000    0.000    0.000    0.000    0.000 
#
# Total GULP energy -111515.689906 kJ/mol
# GULP energy per Si atom -5575.784495 kJ/mol
# Density = 2.631456 g / cm^3
# Si number density = 26.374594 Si / 1000 Ang^3
#
#
#
# Elastic Constant Matrix: (Units=GPa)
#
#
# Indices 1 2 3 4 5 6 
#
# 1 94.2517 40.6267 44.2659 0.0000 -21.4539 0.0000
# 2 40.6267 113.6583 10.9604 0.0001 -24.5192 0.0000
# 3 44.2659 10.9604 90.7795 0.0000 -39.8537 0.0000
# 4 0.0000 0.0001 0.0000 23.8208 0.0000 -9.0735
# 5 -21.4539 -24.5192 -39.8537 0.0000 58.2062 0.0000
# 6 0.0000 0.0000 0.0000 -9.0735 0.0000 27.6127
#
#
#
# Elastic Compliance Matrix: (Units=1/GPa)
#
#
# Indices 1 2 3 4 5 6 
#
# 1 0.016362 -0.005460 -0.008123 0.000000 -0.001831 0.000000
# 2 -0.005460 0.011550 0.003604 0.000000 0.005320 0.000000
# 3 -0.008123 0.003604 0.019865 0.000000 0.012125 0.000000
# 4 0.000000 0.000000 0.000000 0.047986 0.000000 0.015768
# 5 -0.001831 0.005320 0.012125 0.000000 0.027049 0.000000
# 6 0.000000 0.000000 0.000000 0.015768 0.000000 0.041397
#
#
# Mechanical properties :
#
#
# Convention : Reuss Voigt Hill
#
# Bulk Modulus (GPa) = 35.94804 54.48840 45.21822
# Shear Modulus (GPa) = 25.84785 35.45039 30.64912
#
# Velocity S-wave (km/s) = 3.13394 3.67019 3.41261
# Velocity P-wave (km/s) = 5.17250 6.21809 5.71924
#
# Compressibility (1/GPa) = 0.02781793
#
# Stress axis : x y z
#
# Youngs Moduli (GPa) = 61.11872 86.57829 50.34033
#
# Poissons Ratio (x) = 0.47273 0.40891
# Poissons Ratio (y) = 0.33371 -0.18141
# Poissons Ratio (z) = 0.49646 -0.31200
#
# Static dielectric constant tensor:
#      x y z
#    x 2.146980 0.000000 0.075370 
#    y 0.000000 2.106530 0.000000 
#    z 0.075370 0.000000 2.149160 
# 
# From -- ./inp_files/272226.got.cif
#   From: 2010.05.17/outbox.cif.g08.bks.cpg/sg15_137_cif.got.tgz:272226.got - 2010.06.03 18:47:42.
