data_PCOD9275616
_publ_section_title
;
Structure prediction by ZEFSAII (Michael W. Deem and Ramdas Pophale) SiO2 
 PCOD9275616
Probable space group: C 2/C
;
_chemical_formula_sum "Si O2"
_cell_formula_units_Z 48
_cell_length_a 15.907632
_cell_length_b 21.415763
_cell_length_c 12.977309
_cell_angle_alpha 90.000000
_cell_angle_beta 151.304479
_cell_angle_gamma 90.000000
_cell_volume 2122.780662
_symmetry_space_group_name_H-M "C 2/C"
_symmetry_group_IT_number 15
_symmetry_cell_setting 'monoclinic'
loop_
_space_group_symop_operation_xyz
x,y,z
-x,y,1/2-z
-x,-y,-z
x,-y,1/2+z
1/2+x,1/2+y,z
1/2-x,1/2+y,1/2-z
1/2-x,1/2-y,-z
1/2+x,1/2-y,1/2+z
loop_
_atom_site_type_symbol
_atom_site_label
_atom_site_fract_x
_atom_site_fract_y
_atom_site_fract_z
Si Si1 0.934446 0.652915 0.371771
Si Si2 0.790334 0.404538 0.915187
Si Si3 0.700887 0.682830 0.493244
Si Si4 0.904375 0.870257 0.408569
Si Si5 0.253517 0.731185 0.622822
Si Si6 0.899654 0.464819 0.483751
O O1 0.924315 0.626863 0.477548
O O2 0.779275 0.702604 0.205371
O O3 0.081280 0.696998 0.479233
O O4 0.960974 0.589098 0.334455
O O5 0.798406 0.368623 0.031084
O O6 0.594456 0.394184 0.652926
O O7 0.832596 0.477252 0.978715
O O8 0.500000 0.674476 0.250000
O O9 0.750000 0.750000 0.500000
O O10 0.694240 0.669813 0.607257
O O11 0.898565 0.821543 0.307464
O O12 0.772807 0.926933 0.239373
O O13 0.250000 0.750000 0.500000
O O14 0.000000 0.500000 0.500000
#
# Coordination Sequence:
#
# PCOD9275616 Si02
#       6
#     8   8   8   8   8   8
#     4  10  21  37  59  88 120 160 207 259 314 376
#     4  10  20  39  63  89 123 162 206 260 319 385
#     4  10  22  37  60  93 124 160 207 259 320 381
#     4  10  21  39  62  89 124 166 208 262 321 381
#     4  11  22  38  58  85 122 160 204 257 310 371
#     4   9  20  38  59  86 120 162 207 255 315 380
#
# _framework density 22.611851000000001
#
# number of rings (size 3 to 8) (size 9 to 14) (size 15 to 20)
#    0.000    2.000    0.000    3.000    0.000    9.333 
#    0.000   11.667    0.000   16.000    0.000    0.000 
#    0.000    0.000    0.000    0.000    0.000    0.000 
#
# Total GULP energy -133650.875664 kJ/mol
# GULP energy per Si atom -5568.786486 kJ/mol
# Density = 2.256039 g / cm^3
# Si number density = 22.611851 Si / 1000 Ang^3
#
#
#
# Elastic Constant Matrix: (Units=GPa)
#
#
# Indices 1 2 3 4 5 6 
#
# 1 95.5144 53.3519 18.6921 0.0000 3.9510 0.0000
# 2 53.3519 212.3024 27.7553 0.0000 -4.8684 0.0000
# 3 18.6921 27.7553 57.0002 0.0000 9.1185 0.0000
# 4 0.0000 0.0000 0.0000 29.6073 0.0000 9.7495
# 5 3.9510 -4.8684 9.1185 0.0000 44.5816 0.0000
# 6 0.0000 0.0000 0.0000 9.7495 0.0000 54.1898
#
#
#
# Elastic Compliance Matrix: (Units=1/GPa)
#
#
# Indices 1 2 3 4 5 6 
#
# 1 0.012607 -0.002848 -0.002604 0.000000 -0.000896 0.000000
# 2 -0.002848 0.005725 -0.002062 0.000000 0.001299 0.000000
# 3 -0.002604 -0.002062 0.020057 0.000000 -0.004097 0.000000
# 4 0.000000 0.000000 0.000000 0.035902 0.000000 -0.006459
# 5 -0.000896 0.001299 -0.004097 0.000000 0.023490 0.000000
# 6 0.000000 0.000000 0.000000 -0.006459 0.000000 0.019616
#
#
# Mechanical properties :
#
#
# Convention : Reuss Voigt Hill
#
# Bulk Modulus (GPa) = 42.80545 62.71286 52.75916
# Shear Modulus (GPa) = 35.65996 43.34359 39.50177
#
# Velocity S-wave (km/s) = 3.97551 4.38294 4.18419
# Velocity P-wave (km/s) = 6.32808 7.30809 6.83567
#
# Compressibility (1/GPa) = 0.02336151
#
# Stress axis : x y z
#
# Youngs Moduli (GPa) = 79.31910 174.66081 49.85788
#
# Poissons Ratio (x) = 0.49749 0.12983
# Poissons Ratio (y) = 0.22593 0.10279
# Poissons Ratio (z) = 0.20655 0.36010
#
# Static dielectric constant tensor:
#      x y z
#    x 1.945740 0.000000 -0.000730 
#    y 0.000000 1.835110 0.000000 
#    z -0.000730 0.000000 2.034230 
# 
# From -- ./inp_files/50401.got.cif
#   From: 2010.05.17/outbox.cif.g08.bks.cpg/sg15_26_cif.got.tgz:50401.got - 2010.06.03 18:47:42.
