data_PCOD9275750
_publ_section_title
;
Structure prediction by ZEFSAII (Michael W. Deem and Ramdas Pophale) SiO2 
 PCOD9275750
Probable space group: C 2/C
;
_chemical_formula_sum "Si O2"
_cell_formula_units_Z 44
_cell_length_a 16.554239
_cell_length_b 13.987046
_cell_length_c 10.380568
_cell_angle_alpha 90.000000
_cell_angle_beta 134.391496
_cell_angle_gamma 90.000000
_cell_volume 1717.532969
_symmetry_space_group_name_H-M "C 2/C"
_symmetry_group_IT_number 15
_symmetry_cell_setting 'monoclinic'
loop_
_space_group_symop_operation_xyz
x,y,z
-x,y,1/2-z
-x,-y,-z
x,-y,1/2+z
1/2+x,1/2+y,z
1/2-x,1/2+y,1/2-z
1/2-x,1/2-y,-z
1/2+x,1/2-y,1/2+z
loop_
_atom_site_type_symbol
_atom_site_label
_atom_site_fract_x
_atom_site_fract_y
_atom_site_fract_z
Si Si1 0.874076 0.998400 0.800745
Si Si2 0.334476 0.940567 0.773811
Si Si3 0.882482 0.279176 0.016962
Si Si4 0.145832 0.667037 0.721087
Si Si5 0.203349 0.340063 0.023830
Si Si6 0.000000 0.885679 0.750000
O O1 0.791937 0.939432 0.803823
O O2 0.895629 0.946180 0.687201
O O3 0.808264 0.097196 0.699258
O O4 0.000000 0.000000 0.000000
O O5 0.359528 0.052401 0.801620
O O6 0.381895 0.193000 0.959070
O O7 0.346960 0.907288 0.641995
O O8 0.400402 0.865848 0.938845
O O9 0.891860 0.317204 0.173459
O O10 0.962335 0.185955 0.094753
O O11 0.761208 0.230520 0.859794
O O12 0.250000 0.250000 0.000000
#
# Coordination Sequence:
#
# PCOD9275750 Si02
#       6
#     8   8   8   8   8   4
#     4  11  23  39  64 100 138 171 216 288 348 399
#     4  11  22  39  67  96 128 174 224 281 342 407
#     4  11  22  40  64  93 126 181 225 270 340 413
#     4  10  20  39  64  91 125 167 228 271 330 414
#     4  11  21  36  62  96 133 170 213 274 342 411
#     4  12  24  40  62  94 138 172 226 280 336 406
#
# _framework density 25.618141000000001
#
# number of rings (size 3 to 8) (size 9 to 14) (size 15 to 20)
#    0.000    1.091    1.818    8.727    0.000    0.000 
#    0.000    0.909    0.000    1.091    0.000    0.000 
#    0.000    0.000    0.000    0.000    0.000    0.000 
#
# Total GULP energy -122745.244136 kJ/mol
# GULP energy per Si atom -5579.329279 kJ/mol
# Density = 2.555983 g / cm^3
# Si number density = 25.618141 Si / 1000 Ang^3
#
#
#
# Elastic Constant Matrix: (Units=GPa)
#
#
# Indices 1 2 3 4 5 6 
#
# 1 135.2186 35.4496 44.1636 0.0000 -27.1481 0.0000
# 2 35.4496 138.3932 35.6579 0.0000 -14.4592 0.0000
# 3 44.1636 35.6579 108.8130 0.0000 -35.9769 0.0000
# 4 0.0000 0.0000 0.0000 58.8091 0.0000 -20.6328
# 5 -27.1481 -14.4592 -35.9769 0.0000 44.3330 0.0000
# 6 0.0000 0.0000 0.0000 -20.6328 0.0000 27.7242
#
#
#
# Elastic Compliance Matrix: (Units=1/GPa)
#
#
# Indices 1 2 3 4 5 6 
#
# 1 0.009149 -0.001443 -0.002110 0.000000 0.003420 0.000000
# 2 -0.001443 0.008133 -0.002043 0.000000 0.000111 0.000000
# 3 -0.002110 -0.002043 0.013761 0.000000 0.009209 0.000000
# 4 0.000000 0.000000 0.000000 0.023013 0.000000 0.017127
# 5 0.003420 0.000111 0.009209 0.000000 0.032160 0.000000
# 6 0.000000 0.000000 0.000000 0.017127 0.000000 0.048815
#
#
# Mechanical properties :
#
#
# Convention : Reuss Voigt Hill
#
# Bulk Modulus (GPa) = 50.37216 68.10744 59.23980
# Shear Modulus (GPa) = 32.71392 43.98351 38.34871
#
# Velocity S-wave (km/s) = 3.57737 4.14803 3.87322
# Velocity P-wave (km/s) = 6.06373 7.04165 6.57091
#
# Compressibility (1/GPa) = 0.01985224
#
# Stress axis : x y z
#
# Youngs Moduli (GPa) = 109.29661 122.95071 72.67172
#
# Poissons Ratio (x) = 0.17738 0.15333
# Poissons Ratio (y) = 0.15768 0.14846
# Poissons Ratio (z) = 0.23061 0.25118
#
# Static dielectric constant tensor:
#      x y z
#    x 2.364520 0.000000 0.023870 
#    y 0.000000 2.094020 0.000000 
#    z 0.023870 0.000000 2.152030 
# 
# From -- ./inp_files/117274.got.cif
#   From: 2010.05.17/outbox.cif.g08.bks.cpg/sg15_59_cif.got.tgz:117274.got - 2010.06.03 18:47:42.
