data_PCOD9275514
_publ_section_title
;
Structure prediction by ZEFSAII (Michael W. Deem and Ramdas Pophale) SiO2 
 PCOD9275514
Probable space group: C 2/C
;
_chemical_formula_sum "Si O2"
_cell_formula_units_Z 40
_cell_length_a 11.401386
_cell_length_b 21.572002
_cell_length_c 10.351394
_cell_angle_alpha 90.000000
_cell_angle_beta 141.306137
_cell_angle_gamma 90.000000
_cell_volume 1591.612971
_symmetry_space_group_name_H-M "C 2/C"
_symmetry_group_IT_number 15
_symmetry_cell_setting 'monoclinic'
loop_
_space_group_symop_operation_xyz
x,y,z
-x,y,1/2-z
-x,-y,-z
x,-y,1/2+z
1/2+x,1/2+y,z
1/2-x,1/2+y,1/2-z
1/2-x,1/2-y,-z
1/2+x,1/2-y,1/2+z
loop_
_atom_site_type_symbol
_atom_site_label
_atom_site_fract_x
_atom_site_fract_y
_atom_site_fract_z
Si Si1 0.069603 0.355606 0.176564
Si Si2 0.433674 0.271717 0.545346
Si Si3 0.159548 0.809937 0.489234
Si Si4 0.260266 0.461283 0.184337
Si Si5 0.710773 0.557250 0.077234
O O1 0.249233 0.312216 0.363628
O O2 0.138383 0.403730 0.130100
O O3 0.000000 0.386197 0.250000
O O4 0.917614 0.302730 0.011985
O O5 0.500000 0.282527 0.750000
O O6 0.569770 0.291230 0.547181
O O7 0.250000 0.750000 0.500000
O O8 0.275734 0.871960 0.616707
O O9 0.000000 0.829472 0.250000
O O10 0.218198 0.519760 0.238976
O O11 0.482096 0.444062 0.393920
O O12 0.238366 0.474716 0.014527
#
# Coordination Sequence:
#
# PCOD9275514 Si02
#       5
#     8   8   8   8   8
#     4  11  22  40  63  95 133 173 214 274 330 391
#     4  11  22  38  62  93 131 171 217 263 328 395
#     4  12  23  41  65  97 134 171 212 274 339 397
#     4  10  20  39  62  90 123 168 218 271 321 390
#     4  10  20  39  63  91 125 166 220 270 326 388
#
# _framework density 25.131737999999999
#
# number of rings (size 3 to 8) (size 9 to 14) (size 15 to 20)
#    0.000    1.200    4.000    4.800    0.000    1.600 
#    0.000    2.000    0.000    0.000    0.000    0.000 
#    0.000    0.000    0.000    0.000    0.000    0.000 
#
# Total GULP energy -112006.207505 kJ/mol
# GULP energy per Si atom -5600.310375 kJ/mol
# Density = 2.507454 g / cm^3
# Si number density = 25.131738 Si / 1000 Ang^3
#
#
#
# Elastic Constant Matrix: (Units=GPa)
#
#
# Indices 1 2 3 4 5 6 
#
# 1 220.5156 75.7120 58.6278 0.0000 -30.6278 0.0000
# 2 75.7120 160.4094 43.0817 0.0000 -14.1142 0.0000
# 3 58.6278 43.0817 81.5229 0.0000 -7.6202 0.0000
# 4 0.0000 0.0000 0.0000 32.2125 0.0000 -8.1713
# 5 -30.6278 -14.1142 -7.6202 0.0000 39.3381 0.0000
# 6 0.0000 0.0000 0.0000 -8.1713 0.0000 54.4541
#
#
#
# Elastic Compliance Matrix: (Units=1/GPa)
#
#
# Indices 1 2 3 4 5 6 
#
# 1 0.006614 -0.001870 -0.003412 0.000000 0.003818 0.000000
# 2 -0.001870 0.007935 -0.002769 0.000000 0.000855 0.000000
# 3 -0.003412 -0.002769 0.016134 0.000000 -0.000524 0.000000
# 4 0.000000 0.000000 0.000000 0.032272 0.000000 0.004843
# 5 0.003818 0.000855 -0.000524 0.000000 0.028598 0.000000
# 6 0.000000 0.000000 0.000000 0.004843 0.000000 0.019091
#
#
# Mechanical properties :
#
#
# Convention : Reuss Voigt Hill
#
# Bulk Modulus (GPa) = 68.57239 90.81010 79.69125
# Shear Modulus (GPa) = 37.99185 44.20270 41.09727
#
# Velocity S-wave (km/s) = 3.89229 4.19840 4.04824
# Velocity P-wave (km/s) = 6.89524 7.72750 7.32320
#
# Compressibility (1/GPa) = 0.01458313
#
# Stress axis : x y z
#
# Youngs Moduli (GPa) = 151.19322 126.01721 61.97940
#
# Poissons Ratio (x) = 0.23560 0.21145
# Poissons Ratio (y) = 0.28267 0.17163
# Poissons Ratio (z) = 0.51582 0.34896
#
# Static dielectric constant tensor:
#      x y z
#    x 1.966470 0.000000 0.075040 
#    y 0.000000 1.996390 0.000000 
#    z 0.075040 0.000000 2.112650 
# 
# From -- ./inp_files/89873.got.cif
#   From: 2010.05.17/outbox.cif.g08.bks.cpg/sg15_45_cif.got.tgz:89873.got - 2010.06.03 18:47:42.
