data_PCOD9275941
_publ_section_title
;
Structure prediction by ZEFSAII (Michael W. Deem and Ramdas Pophale) SiO2 
 PCOD9275941
Probable space group: C 2/C
;
_chemical_formula_sum "Si O2"
_cell_formula_units_Z 56
_cell_length_a 12.052964
_cell_length_b 14.606099
_cell_length_c 29.375088
_cell_angle_alpha 90.000000
_cell_angle_beta 28.735945
_cell_angle_gamma 90.000000
_cell_volume 2486.268153
_symmetry_space_group_name_H-M "C 2/C"
_symmetry_group_IT_number 15
_symmetry_cell_setting 'monoclinic'
loop_
_space_group_symop_operation_xyz
x,y,z
-x,y,1/2-z
-x,-y,-z
x,-y,1/2+z
1/2+x,1/2+y,z
1/2-x,1/2+y,1/2-z
1/2-x,1/2-y,-z
1/2+x,1/2-y,1/2+z
loop_
_atom_site_type_symbol
_atom_site_label
_atom_site_fract_x
_atom_site_fract_y
_atom_site_fract_z
Si Si1 0.632229 0.745396 0.350180
Si Si2 0.752286 0.043579 0.164603
Si Si3 0.853663 0.893385 0.530913
Si Si4 0.466820 0.717336 0.857177
Si Si5 0.319126 0.836855 0.536450
Si Si6 0.729987 0.732243 0.857520
Si Si7 0.318305 0.466245 0.447191
O O1 0.750638 0.648386 0.318060
O O2 0.828871 0.799383 0.252353
O O3 0.530571 0.795156 0.431193
O O4 0.407936 0.717730 0.400874
O O5 0.500000 0.004458 0.250000
O O6 0.857336 0.052784 0.076615
O O7 0.911169 0.991009 0.142865
O O8 0.691776 0.804295 0.596310
O O9 0.748861 0.945148 0.524565
O O10 0.105024 0.853071 0.427529
O O11 0.591302 0.740329 0.860394
O O12 0.315987 0.626333 0.919338
O O13 0.312257 0.815621 0.592391
O O14 0.296296 0.943865 0.532406
O O15 0.000000 0.721948 0.750000
#
# Coordination Sequence:
#
# PCOD9275941 Si02
#       7
#     8   8   8   8   8   8   8
#     4  10  20  39  66  89 126 174 207 257 324 388
#     4  11  21  38  67  96 126 160 216 264 318 373
#     4  11  23  43  64  90 133 172 203 260 327 384
#     4  11  23  43  65  92 132 172 211 254 331 382
#     4  10  21  40  62  94 127 161 218 267 311 369
#     4  11  21  37  66  91 121 171 218 253 308 387
#     4  10  24  38  60  99 130 158 212 272 311 369
#
# _framework density 22.523716
#
# number of rings (size 3 to 8) (size 9 to 14) (size 15 to 20)
#    0.000    1.429    4.286    2.143    0.000    3.429 
#    0.000    2.857    3.143    0.000    0.000    0.000 
#    0.000    0.000    0.000    0.000    0.000    0.000 
#
# Total GULP energy -156588.024228 kJ/mol
# GULP energy per Si atom -5592.429437 kJ/mol
# Density = 2.247245 g / cm^3
# Si number density = 22.523716 Si / 1000 Ang^3
#
#
#
# Elastic Constant Matrix: (Units=GPa)
#
#
# Indices 1 2 3 4 5 6 
#
# 1 58.2487 28.6285 34.0654 0.0001 5.1787 0.0003
# 2 28.6285 97.5108 26.0864 0.0027 -0.2653 0.0004
# 3 34.0654 26.0864 137.7076 0.0015 6.9596 -0.0005
# 4 0.0001 0.0027 0.0015 22.4572 0.0012 3.2263
# 5 5.1787 -0.2653 6.9596 0.0012 33.5538 -0.0008
# 6 0.0003 0.0004 -0.0005 3.2263 -0.0008 39.1180
#
#
#
# Elastic Compliance Matrix: (Units=1/GPa)
#
#
# Indices 1 2 3 4 5 6 
#
# 1 0.022693 -0.005481 -0.004443 0.000001 -0.002624 0.000000
# 2 -0.005481 0.012135 -0.001001 -0.000001 0.001150 0.000000
# 3 -0.004443 -0.001001 0.008606 0.000000 -0.001107 0.000000
# 4 0.000001 -0.000001 0.000000 0.045063 -0.000002 -0.003717
# 5 -0.002624 0.001150 -0.001107 -0.000002 0.030447 0.000001
# 6 0.000000 0.000000 0.000000 -0.003717 0.000001 0.025870
#
#
# Mechanical properties :
#
#
# Convention : Reuss Voigt Hill
#
# Bulk Modulus (GPa) = 46.32833 52.33643 49.33238
# Shear Modulus (GPa) = 28.75874 32.67157 30.71516
#
# Velocity S-wave (km/s) = 3.57714 3.81273 3.69681
# Velocity P-wave (km/s) = 6.13796 6.53216 6.33813
#
# Compressibility (1/GPa) = 0.02158506
#
# Stress axis : x y z
#
# Youngs Moduli (GPa) = 44.06588 82.40329 116.19263
#
# Poissons Ratio (x) = 0.45167 0.51622
# Poissons Ratio (y) = 0.24153 0.11631
# Poissons Ratio (z) = 0.19578 0.08249
#
# Static dielectric constant tensor:
#      x y z
#    x 1.841300 0.000000 -0.003550 
#    y 0.000000 1.861100 0.000000 
#    z -0.003550 0.000000 1.847890 
# 
# From -- ./inp_files/311333.got.cif
#   From: 2010.05.17/outbox.cif.g08.bks.cpg/sg15_156_cif.got.tgz:311333.got - 2010.06.03 18:47:42.
