data_PCOD9275222
_publ_section_title
;
Structure prediction by ZEFSAII (Michael W. Deem and Ramdas Pophale) SiO2 
 PCOD9275222
Probable space group: C 2/C
;
_chemical_formula_sum "Si O2"
_cell_formula_units_Z 56
_cell_length_a 22.301900
_cell_length_b 26.988807
_cell_length_c 14.781194
_cell_angle_alpha 90.000000
_cell_angle_beta 20.546811
_cell_angle_gamma 90.000000
_cell_volume 3122.541339
_symmetry_space_group_name_H-M "C 2/C"
_symmetry_group_IT_number 15
_symmetry_cell_setting 'monoclinic'
loop_
_space_group_symop_operation_xyz
x,y,z
-x,y,1/2-z
-x,-y,-z
x,-y,1/2+z
1/2+x,1/2+y,z
1/2-x,1/2+y,1/2-z
1/2-x,1/2-y,-z
1/2+x,1/2-y,1/2+z
loop_
_atom_site_type_symbol
_atom_site_label
_atom_site_fract_x
_atom_site_fract_y
_atom_site_fract_z
Si Si1 0.602351 0.048394 0.198470
Si Si2 0.574969 0.445414 0.373757
Si Si3 0.591350 0.939345 0.256350
Si Si4 0.880741 0.798567 0.008113
Si Si5 0.229805 0.394690 0.883042
Si Si6 0.205519 0.215943 0.151496
Si Si7 0.188247 0.398278 0.305952
O O1 0.500000 0.040818 0.250000
O O2 0.504736 0.092794 0.386211
O O3 0.569685 0.997869 0.298647
O O4 0.797311 0.054637 0.892486
O O5 0.500000 0.500000 0.500000
O O6 0.417296 0.407956 0.583306
O O7 0.686112 0.427223 0.303081
O O8 0.415195 0.909737 0.484663
O O9 0.691140 0.918793 0.200595
O O10 0.696413 0.930489 0.015857
O O11 0.777370 0.749161 0.130528
O O12 0.751558 0.842506 0.210036
O O13 0.000000 0.810113 0.750000
O O14 0.005818 0.792169 0.916405
O O15 0.217802 0.338989 0.940567
O O16 0.250000 0.250000 0.000000
#
# Coordination Sequence:
#
# PCOD9275222 Si02
#       7
#     8   8   8   8   8   8   8
#     4  10  20  39  55  80 115 156 194 232 285 339
#     4  11  21  39  59  83 116 153 197 237 280 352
#     4  11  21  35  56  86 120 153 187 233 294 342
#     4  10  21  35  54  85 115 143 189 236 294 347
#     4  11  21  36  58  84 121 155 182 237 301 342
#     4  10  21  34  53  84 115 148 184 236 294 347
#     4  11  23  36  58  85 115 154 199 234 286 348
#
# _framework density 17.93411
#
# number of rings (size 3 to 8) (size 9 to 14) (size 15 to 20)
#    0.000    1.429    4.286    3.000    8.000    0.000 
#    0.000    2.143    0.000    0.857    0.000    0.000 
#    0.000    0.000    0.000    0.000    0.000    0.000 
#
# Total GULP energy -156055.753704 kJ/mol
# GULP energy per Si atom -5573.419775 kJ/mol
# Density = 1.789329 g / cm^3
# Si number density = 17.934110 Si / 1000 Ang^3
#
#
#
# Elastic Constant Matrix: (Units=GPa)
#
#
# Indices 1 2 3 4 5 6 
#
# 1 52.5466 13.3042 6.6659 0.0533 -12.6949 0.0349
# 2 13.3042 102.4218 55.8548 0.0117 -5.6055 -0.0289
# 3 6.6659 55.8548 85.8948 0.0365 -15.9508 0.0564
# 4 0.0533 0.0117 0.0365 24.6685 -0.0339 -19.6697
# 5 -12.6949 -5.6055 -15.9508 -0.0339 17.3938 -0.0382
# 6 0.0349 -0.0289 0.0564 -19.6697 -0.0382 -20.1660
#
#
#
# Elastic Compliance Matrix: (Units=1/GPa)
#
#
# Indices 1 2 3 4 5 6 
#
# 1 0.024745 -0.004891 0.005208 -0.000006 0.021260 0.000030
# 2 -0.004891 0.016464 -0.012057 -0.000017 -0.009321 -0.000031
# 3 0.005208 -0.012057 0.022975 0.000017 0.020985 0.000034
# 4 -0.000006 -0.000017 0.000017 0.022803 0.000001 -0.022242
# 5 0.021260 -0.009321 0.020985 0.000001 0.089248 -0.000061
# 6 0.000030 -0.000031 0.000034 -0.022242 -0.000061 -0.027894
#
#
# Mechanical properties :
#
#
# Convention : Reuss Voigt Hill
#
# Bulk Modulus (GPa) = 24.56790 43.61255 34.09022
# Shear Modulus (GPa) = 26.97028 15.38182 21.17605
#
# Velocity S-wave (km/s) = 3.88216 2.93180 3.43996
# Velocity P-wave (km/s) = 5.81581 5.98595 5.90149
#
# Compressibility (1/GPa) = 0.04070352
#
# Stress axis : x y z
#
# Youngs Moduli (GPa) = 40.41299 60.73817 43.52475
#
# Poissons Ratio (x) = 0.29706 -0.22667
# Poissons Ratio (y) = 0.19765 0.52480
# Poissons Ratio (z) = -0.21047 0.73235
#
# Static dielectric constant tensor:
#      x y z
#    x 1.612340 -0.000050 -0.006450 
#    y -0.000050 1.631990 -0.000020 
#    z -0.006450 -0.000020 1.668310 
# 
# From -- ./inp_files/174847.got.cif
#   From: 2010.05.17/outbox.cif.g08.bks.cpg/sg15_88_cif.got.tgz:174847.got - 2010.06.03 18:47:42.
