data_PCOD9275385
_publ_section_title
;
Structure prediction by ZEFSAII (Michael W. Deem and Ramdas Pophale) SiO2 
 PCOD9275385
Probable space group: C 2/C
;
_chemical_formula_sum "Si O2"
_cell_formula_units_Z 60
_cell_length_a 15.577040
_cell_length_b 12.300949
_cell_length_c 16.972206
_cell_angle_alpha 90.000000
_cell_angle_beta 59.454622
_cell_angle_gamma 90.000000
_cell_volume 2800.782892
_symmetry_space_group_name_H-M "C 2/C"
_symmetry_group_IT_number 15
_symmetry_cell_setting 'monoclinic'
loop_
_space_group_symop_operation_xyz
x,y,z
-x,y,1/2-z
-x,-y,-z
x,-y,1/2+z
1/2+x,1/2+y,z
1/2-x,1/2+y,1/2-z
1/2-x,1/2-y,-z
1/2+x,1/2-y,1/2+z
loop_
_atom_site_type_symbol
_atom_site_label
_atom_site_fract_x
_atom_site_fract_y
_atom_site_fract_z
Si Si1 0.920399 0.009677 0.647636
Si Si2 0.000000 0.316555 0.750000
Si Si3 0.842273 0.849360 0.323009
Si Si4 0.614284 0.385066 0.504903
Si Si5 0.689406 0.317602 0.872721
Si Si6 0.010315 0.460908 0.883649
Si Si7 0.271227 0.957455 0.980406
Si Si8 0.997385 0.322612 0.461075
O O1 0.899544 0.072201 0.737202
O O2 0.901356 0.086102 0.580344
O O3 0.844624 0.908683 0.672898
O O4 0.031225 0.960358 0.587448
O O5 0.079617 0.234783 0.674473
O O6 0.950197 0.395486 0.709591
O O7 0.767451 0.772220 0.308882
O O8 0.777122 0.911534 0.417357
O O9 0.720943 0.427014 0.483506
O O10 0.585881 0.260085 0.530939
O O11 0.734804 0.378474 0.927151
O O12 0.588723 0.254336 0.943590
O O13 0.889840 0.459975 0.931849
O O14 0.036889 0.587047 0.881285
O O15 0.038991 0.393728 0.948074
#
# Coordination Sequence:
#
# PCOD9275385 Si02
#       8
#     8   4   8   8   8   8   8   8
#     4   9  20  36  59  91 118 155 200 246 293 356
#     4  12  24  36  60  88 118 154 200 250 298 350
#     4  12  21  36  62  93 114 153 208 249 289 355
#     4   9  19  40  61  83 124 159 195 242 303 351
#     4  10  20  39  61  84 122 161 192 247 303 348
#     4  11  23  40  59  89 120 158 198 244 300 362
#     4  11  21  39  64  90 120 152 199 256 296 347
#     4  10  21  40  62  82 120 164 193 233 306 362
#
# _framework density 21.422581000000001
#
# number of rings (size 3 to 8) (size 9 to 14) (size 15 to 20)
#    0.000    1.600    2.667    3.600    0.000    1.600 
#    2.400    2.667    0.000    0.000    0.000    0.000 
#    0.000    0.000    0.000    0.000    0.000    0.000 
#
# Total GULP energy -167639.173699 kJ/mol
# GULP energy per Si atom -5587.972457 kJ/mol
# Density = 2.137382 g / cm^3
# Si number density = 21.422581 Si / 1000 Ang^3
#
#
#
# Elastic Constant Matrix: (Units=GPa)
#
#
# Indices 1 2 3 4 5 6 
#
# 1 55.5129 20.7363 5.7073 0.0000 -6.8776 0.0000
# 2 20.7363 112.1467 17.8241 0.0000 6.6465 0.0000
# 3 5.7073 17.8241 50.2140 0.0000 6.7647 0.0000
# 4 0.0000 0.0000 0.0000 20.7232 0.0000 -2.5076
# 5 -6.8776 6.6465 6.7647 0.0000 19.3801 0.0000
# 6 0.0000 0.0000 0.0000 -2.5076 0.0000 19.9341
#
#
#
# Elastic Compliance Matrix: (Units=1/GPa)
#
#
# Indices 1 2 3 4 5 6 
#
# 1 0.020963 -0.004093 -0.002226 0.000000 0.009620 0.000000
# 2 -0.004093 0.010337 -0.002656 0.000000 -0.004070 0.000000
# 3 -0.002226 -0.002656 0.022135 0.000000 -0.007605 0.000000
# 4 0.000000 0.000000 0.000000 0.049001 0.000000 0.006164
# 5 0.009620 -0.004070 -0.007605 0.000000 0.059064 0.000000
# 6 0.000000 0.000000 0.000000 0.006164 0.000000 0.050941
#
#
# Mechanical properties :
#
#
# Convention : Reuss Voigt Hill
#
# Bulk Modulus (GPa) = 28.17948 34.04546 31.11247
# Shear Modulus (GPa) = 20.64254 23.58121 22.11188
#
# Velocity S-wave (km/s) = 3.10754 3.32138 3.21624
# Velocity P-wave (km/s) = 5.10474 5.53494 5.32419
#
# Compressibility (1/GPa) = 0.03548682
#
# Stress axis : x y z
#
# Youngs Moduli (GPa) = 47.70257 96.74038 45.17727
#
# Poissons Ratio (x) = 0.39591 0.10056
# Poissons Ratio (y) = 0.19522 0.11998
# Poissons Ratio (z) = 0.10618 0.25691
#
# Static dielectric constant tensor:
#      x y z
#    x 1.808580 0.000000 -0.025880 
#    y 0.000000 1.796450 0.000000 
#    z -0.025880 0.000000 1.761690 
# 
# From -- ./inp_files/210624.got.cif
#   From: 2010.05.17/outbox.cif.g08.bks.cpg/sg15_106_cif.got.tgz:210624.got - 2010.06.03 18:47:42.
