data_PCOD9275555
_publ_section_title
;
Structure prediction by ZEFSAII (Michael W. Deem and Ramdas Pophale) SiO2 
 PCOD9275555
Probable space group: C 2/C
;
_chemical_formula_sum "Si O2"
_cell_formula_units_Z 44
_cell_length_a 17.125814
_cell_length_b 21.990661
_cell_length_c 11.784572
_cell_angle_alpha 90.000000
_cell_angle_beta 28.287110
_cell_angle_gamma 90.000000
_cell_volume 2103.201918
_symmetry_space_group_name_H-M "C 2/C"
_symmetry_group_IT_number 15
_symmetry_cell_setting 'monoclinic'
loop_
_space_group_symop_operation_xyz
x,y,z
-x,y,1/2-z
-x,-y,-z
x,-y,1/2+z
1/2+x,1/2+y,z
1/2-x,1/2+y,1/2-z
1/2-x,1/2-y,-z
1/2+x,1/2-y,1/2+z
loop_
_atom_site_type_symbol
_atom_site_label
_atom_site_fract_x
_atom_site_fract_y
_atom_site_fract_z
Si Si1 0.317953 0.496428 0.287626
Si Si2 0.676934 0.220880 0.961605
Si Si3 0.264683 0.112871 0.763634
Si Si4 0.581279 0.936060 0.931687
Si Si5 0.684899 0.350865 0.006459
Si Si6 0.000000 0.051810 0.250000
O O1 0.236663 0.433140 0.346310
O O2 0.202370 0.548242 0.380150
O O3 0.362931 0.510893 0.360246
O O4 0.500000 0.500000 0.000000
O O5 0.500000 0.214735 0.250000
O O6 0.701753 0.291789 0.903455
O O7 0.704999 0.180261 0.817037
O O8 0.791076 0.186397 0.907299
O O9 0.414747 0.101513 0.658221
O O10 0.096747 0.094462 0.038977
O O11 0.686183 0.901043 0.700115
O O12 0.500000 0.000000 0.000000
O O13 0.500000 0.376090 0.250000
#
# Coordination Sequence:
#
# PCOD9275555 Si02
#       6
#     8   8   8   8   8   4
#     4   9  21  38  56  85 117 164 211 259 313 370
#     4  10  20  39  62  96 125 162 204 269 322 368
#     4  10  21  39  61  86 124 164 211 263 316 381
#     4  10  21  40  60  91 125 168 208 259 321 377
#     4  10  22  36  64  98 125 158 210 265 322 373
#     4  10  22  40  58  86 124 166 218 260 320 378
#
# _framework density 20.920483000000001
#
# number of rings (size 3 to 8) (size 9 to 14) (size 15 to 20)
#    0.000    2.182    1.818    0.000    5.091    5.091 
#    6.545    0.000    0.000    4.364    0.000    0.000 
#    0.000    0.000    0.000    0.000    0.000    0.000 
#
# Total GULP energy -122485.719760 kJ/mol
# GULP energy per Si atom -5567.532716 kJ/mol
# Density = 2.087287 g / cm^3
# Si number density = 20.920483 Si / 1000 Ang^3
#
#
#
# Elastic Constant Matrix: (Units=GPa)
#
#
# Indices 1 2 3 4 5 6 
#
# 1 91.7931 25.1311 15.5094 -0.0019 -21.5757 0.0056
# 2 25.1311 121.8961 49.1356 0.0093 4.9023 0.0008
# 3 15.5094 49.1356 83.0313 0.0072 -13.5141 0.0019
# 4 -0.0019 0.0093 0.0072 28.4300 0.0018 8.7339
# 5 -21.5757 4.9023 -13.5141 0.0018 34.0084 -0.0072
# 6 0.0056 0.0008 0.0019 8.7339 -0.0072 14.6439
#
#
#
# Elastic Compliance Matrix: (Units=1/GPa)
#
#
# Indices 1 2 3 4 5 6 
#
# 1 0.014068 -0.003803 0.001245 0.000002 0.009968 -0.000001
# 2 -0.003803 0.012445 -0.007847 -0.000002 -0.007325 -0.000001
# 3 0.001245 -0.007847 0.017927 -0.000004 0.009045 0.000004
# 4 0.000002 -0.000002 -0.000004 0.043065 -0.000008 -0.025685
# 5 0.009968 -0.007325 0.009045 -0.000008 0.040378 0.000020
# 6 -0.000001 -0.000001 0.000004 -0.025685 0.000020 0.083607
#
#
# Mechanical properties :
#
#
# Convention : Reuss Voigt Hill
#
# Bulk Modulus (GPa) = 42.31779 52.91920 47.61849
# Shear Modulus (GPa) = 20.81809 29.21274 25.01541
#
# Velocity S-wave (km/s) = 3.15795 3.74086 3.46170
# Velocity P-wave (km/s) = 5.79385 6.63393 6.22807
#
# Compressibility (1/GPa) = 0.02363073
#
# Stress axis : x y z
#
# Youngs Moduli (GPa) = 71.08400 80.35160 55.78323
#
# Poissons Ratio (x) = 0.30559 -0.06947
# Poissons Ratio (y) = 0.27035 0.43771
# Poissons Ratio (z) = -0.08852 0.63048
#
# Static dielectric constant tensor:
#      x y z
#    x 0.905400 -0.001390 0.099930 
#    y -0.001390 2.008920 0.000090 
#    z 0.099930 0.000090 1.754950 
# 
# From -- ./inp_files/107889.got.cif
#   From: 2010.05.17/outbox.cif.g08.bks.cpg/sg15_54_cif.got.tgz:107889.got - 2010.06.03 18:47:42.
