data_PCOD9275005
_publ_section_title
;
Structure prediction by ZEFSAII (Michael W. Deem and Ramdas Pophale) SiO2 
 PCOD9275005
Probable space group: C 2/C
;
_chemical_formula_sum "Si O2"
_cell_formula_units_Z 40
_cell_length_a 8.536091
_cell_length_b 23.022791
_cell_length_c 14.364544
_cell_angle_alpha 90.000000
_cell_angle_beta 142.511150
_cell_angle_gamma 90.000000
_cell_volume 1718.089620
_symmetry_space_group_name_H-M "C 2/C"
_symmetry_group_IT_number 15
_symmetry_cell_setting 'monoclinic'
loop_
_space_group_symop_operation_xyz
x,y,z
-x,y,1/2-z
-x,-y,-z
x,-y,1/2+z
1/2+x,1/2+y,z
1/2-x,1/2+y,1/2-z
1/2-x,1/2-y,-z
1/2+x,1/2-y,1/2+z
loop_
_atom_site_type_symbol
_atom_site_label
_atom_site_fract_x
_atom_site_fract_y
_atom_site_fract_z
Si Si1 0.890427 0.062689 0.421695
Si Si2 0.901770 0.841738 0.601796
Si Si3 0.728917 0.996566 0.180568
Si Si4 0.594534 0.776774 0.188434
Si Si5 0.943612 0.880031 0.331713
O O1 0.701479 0.044969 0.248392
O O2 0.093250 0.104729 0.465591
O O3 0.842047 0.097126 0.494878
O O4 0.000000 0.000000 0.500000
O O5 0.621931 0.811875 0.471405
O O6 0.000000 0.859170 0.750000
O O7 0.092341 0.790061 0.655988
O O8 0.000000 0.002507 0.250000
O O9 0.737785 0.933324 0.234659
O O10 0.500000 0.000000 0.000000
O O11 0.500000 0.773386 0.250000
O O12 0.843091 0.816567 0.309057
O O13 0.000000 0.876316 0.250000
#
# Coordination Sequence:
#
# PCOD9275005 Si02
#       5
#     8   8   8   8   8
#     4  10  21  40  63  91 130 179 226 282 338 419
#     4  10  21  36  66 100 125 159 237 285 344 395
#     4  10  23  40  64  98 132 174 228 286 347 411
#     4  10  20  38  67  95 127 171 220 294 340 407
#     4  10  22  41  60  90 131 177 222 275 347 415
#
# _framework density 23.281673000000001
#
# number of rings (size 3 to 8) (size 9 to 14) (size 15 to 20)
#    0.000    2.000    2.000    0.600    5.600    0.800 
#    0.000    9.000    0.000    0.000    0.000    0.000 
#    0.000    0.000    0.000    0.000    0.000    0.000 
#
# Total GULP energy -111534.278381 kJ/mol
# GULP energy per Si atom -5576.713919 kJ/mol
# Density = 2.322868 g / cm^3
# Si number density = 23.281673 Si / 1000 Ang^3
#
#
#
# Elastic Constant Matrix: (Units=GPa)
#
#
# Indices 1 2 3 4 5 6 
#
# 1 59.6391 39.1889 42.0023 0.0000 -24.0979 0.0000
# 2 39.1889 143.1407 18.5732 0.0000 -2.6409 0.0000
# 3 42.0023 18.5732 139.6599 0.0000 -22.6168 0.0000
# 4 0.0000 0.0000 0.0000 8.6126 0.0000 -5.0841
# 5 -24.0979 -2.6409 -22.6168 0.0000 37.1343 0.0000
# 6 0.0000 0.0000 0.0000 -5.0841 0.0000 24.5833
#
#
#
# Elastic Compliance Matrix: (Units=1/GPa)
#
#
# Indices 1 2 3 4 5 6 
#
# 1 0.033387 -0.008021 -0.006166 0.000000 0.017340 0.000000
# 2 -0.008021 0.009036 0.000523 0.000000 -0.004244 0.000000
# 3 -0.006166 0.000523 0.009212 0.000000 0.001646 0.000000
# 4 0.000000 0.000000 0.000000 0.132255 0.000000 0.027352
# 5 0.017340 -0.004244 0.001646 0.000000 0.038883 0.000000
# 6 0.000000 0.000000 0.000000 0.027352 0.000000 0.046335
#
#
# Mechanical properties :
#
#
# Convention : Reuss Voigt Hill
#
# Bulk Modulus (GPa) = 41.13975 60.21872 50.67923
# Shear Modulus (GPa) = 16.41837 30.24440 23.33138
#
# Velocity S-wave (km/s) = 2.65845 3.60816 3.16909
# Velocity P-wave (km/s) = 5.20884 6.57875 5.93346
#
# Compressibility (1/GPa) = 0.02430739
#
# Stress axis : x y z
#
# Youngs Moduli (GPa) = 29.95156 110.67055 108.55720
#
# Poissons Ratio (x) = 0.88765 0.66940
# Poissons Ratio (y) = 0.24023 -0.05681
# Poissons Ratio (z) = 0.18469 -0.05792
#
# Static dielectric constant tensor:
#      x y z
#    x 1.819430 0.000000 -0.251140 
#    y 0.000000 1.952610 0.000000 
#    z -0.251140 0.000000 1.504560 
# 
# From -- ./inp_files/137623.got.cif
#   From: 2010.05.17/outbox.cif.g08.bks.cpg/sg15_69_cif.got.tgz:137623.got - 2010.06.03 18:47:42.
