data_PCOD9275889
_publ_section_title
;
Structure prediction by ZEFSAII (Michael W. Deem and Ramdas Pophale) SiO2 
 PCOD9275889
Probable space group: C 2/C
;
_chemical_formula_sum "Si O2"
_cell_formula_units_Z 64
_cell_length_a 9.471879
_cell_length_b 19.506679
_cell_length_c 23.064396
_cell_angle_alpha 90.000000
_cell_angle_beta 129.298225
_cell_angle_gamma 90.000000
_cell_volume 3297.796624
_symmetry_space_group_name_H-M "C 2/C"
_symmetry_group_IT_number 15
_symmetry_cell_setting 'monoclinic'
loop_
_space_group_symop_operation_xyz
x,y,z
-x,y,1/2-z
-x,-y,-z
x,-y,1/2+z
1/2+x,1/2+y,z
1/2-x,1/2+y,1/2-z
1/2-x,1/2-y,-z
1/2+x,1/2-y,1/2+z
loop_
_atom_site_type_symbol
_atom_site_label
_atom_site_fract_x
_atom_site_fract_y
_atom_site_fract_z
Si Si1 0.581381 0.910451 0.575069
Si Si2 0.586058 0.543091 0.601460
Si Si3 0.401035 0.862004 0.409533
Si Si4 0.881864 0.973478 0.165688
Si Si5 0.903909 0.807130 0.664616
Si Si6 0.752800 0.925882 0.928601
Si Si7 0.789030 0.662076 0.595110
Si Si8 0.951242 0.801015 0.924417
O O1 0.467104 0.894400 0.487431
O O2 0.710185 0.844638 0.615631
O O3 0.442112 0.923455 0.591389
O O4 0.721607 0.973587 0.607217
O O5 0.519837 0.535081 0.648883
O O6 0.711245 0.480424 0.612781
O O7 0.400989 0.549559 0.515094
O O8 0.693913 0.611787 0.614939
O O9 0.215610 0.901049 0.345823
O O10 0.556409 0.875829 0.402070
O O11 0.393485 0.778936 0.411280
O O12 0.000000 0.999666 0.250000
O O13 0.873157 0.726288 0.649712
O O14 0.008828 0.824637 0.631538
O O15 0.000000 0.823509 0.750000
O O16 0.809669 0.851585 0.918818
O O17 0.639387 0.689372 0.509607
#
# Coordination Sequence:
#
# PCOD9275889 Si02
#       8
#     8   8   8   8   8   8   8   8
#     4  12  22  40  63  92 116 162 212 250 295 373
#     4  10  22  38  62  91 121 158 196 256 305 353
#     4  11  21  39  67  90 119 162 209 247 297 367
#     4  12  27  42  59  89 128 160 200 257 315 363
#     4  11  22  38  62  92 127 164 200 251 312 360
#     4  10  22  37  64  94 117 153 208 255 296 353
#     4  10  20  39  65  94 123 157 209 253 295 365
#     4  10  20  40  62  94 126 156 203 258 299 358
#
# _framework density 19.406898000000002
#
# number of rings (size 3 to 8) (size 9 to 14) (size 15 to 20)
#    0.000    1.250    3.750    3.000    3.500    3.500 
#    0.000    3.750    0.000    0.000    0.000    0.000 
#    0.000    0.000    0.000    0.000    0.000    0.000 
#
# Total GULP energy -178747.102955 kJ/mol
# GULP energy per Si atom -5585.846967 kJ/mol
# Density = 1.936273 g / cm^3
# Si number density = 19.406898 Si / 1000 Ang^3
#
#
#
# Elastic Constant Matrix: (Units=GPa)
#
#
# Indices 1 2 3 4 5 6 
#
# 1 144.7264 49.2580 11.3264 0.0000 -15.3460 0.0000
# 2 49.2580 61.0054 9.5076 0.0000 -3.5605 0.0000
# 3 11.3264 9.5076 43.8183 0.0000 -10.7647 0.0000
# 4 0.0000 0.0000 0.0000 -37.9583 0.0000 -8.4996
# 5 -15.3460 -3.5605 -10.7647 0.0000 19.1345 0.0000
# 6 0.0000 0.0000 0.0000 -8.4996 0.0000 26.1014
#
#
#
# Elastic Compliance Matrix: (Units=1/GPa)
#
#
# Indices 1 2 3 4 5 6 
#
# 1 0.010365 -0.008078 0.000866 0.000000 0.007297 0.000000
# 2 -0.008078 0.023288 -0.004052 0.000000 -0.004425 0.000000
# 3 0.000866 -0.004052 0.027225 0.000000 0.015257 0.000000
# 4 0.000000 0.000000 0.000000 -0.024554 0.000000 -0.007996
# 5 0.007297 -0.004425 0.015257 0.000000 0.065874 0.000000
# 6 0.000000 0.000000 0.000000 -0.007996 0.000000 0.035708
#
#
# Mechanical properties :
#
#
# Convention : Reuss Voigt Hill
#
# Bulk Modulus (GPa) = 26.07565 43.30379 34.68972
# Shear Modulus (GPa) = 28.86559 13.41940 21.14250
#
# Velocity S-wave (km/s) = 3.86085 2.63245 3.30424
# Velocity P-wave (km/s) = 5.77411 5.62154 5.69834
#
# Compressibility (1/GPa) = 0.03834995
#
# Stress axis : x y z
#
# Youngs Moduli (GPa) = 96.47895 42.94088 36.73106
#
# Poissons Ratio (x) = 0.34688 -0.03182
# Poissons Ratio (y) = 0.77937 0.14883
# Poissons Ratio (z) = -0.08357 0.17399
#
# Static dielectric constant tensor:
#      x y z
#    x 1.650620 0.000000 -0.009170 
#    y 0.000000 1.703220 0.000000 
#    z -0.009170 0.000000 1.676660 
# 
# From -- ./inp_files/266153.got.cif
#   From: 2010.05.17/outbox.cif.g08.bks.cpg/sg15_134_cif.got.tgz:266153.got - 2010.06.03 18:47:42.
