data_PCOD9275500
_publ_section_title
;
Structure prediction by ZEFSAII (Michael W. Deem and Ramdas Pophale) SiO2 
 PCOD9275500
Probable space group: C 2/C
;
_chemical_formula_sum "Si O2"
_cell_formula_units_Z 60
_cell_length_a 22.664605
_cell_length_b 20.976602
_cell_length_c 9.771458
_cell_angle_alpha 90.000000
_cell_angle_beta 137.710637
_cell_angle_gamma 90.000000
_cell_volume 3125.915091
_symmetry_space_group_name_H-M "C 2/C"
_symmetry_group_IT_number 15
_symmetry_cell_setting 'monoclinic'
loop_
_space_group_symop_operation_xyz
x,y,z
-x,y,1/2-z
-x,-y,-z
x,-y,1/2+z
1/2+x,1/2+y,z
1/2-x,1/2+y,1/2-z
1/2-x,1/2-y,-z
1/2+x,1/2-y,1/2+z
loop_
_atom_site_type_symbol
_atom_site_label
_atom_site_fract_x
_atom_site_fract_y
_atom_site_fract_z
Si Si1 0.001942 0.794701 0.919255
Si Si2 0.661432 0.790845 0.371689
Si Si3 0.574387 0.056765 0.264669
Si Si4 0.815695 0.731310 0.280415
Si Si5 0.500000 0.496098 0.250000
Si Si6 0.075496 0.077386 0.625961
Si Si7 0.949562 0.410393 0.304349
Si Si8 0.761012 0.354435 0.438329
O O1 0.916497 0.755585 0.809399
O O2 0.000000 0.802093 0.750000
O O3 0.090352 0.757110 0.111136
O O4 0.008351 0.863550 0.997769
O O5 0.750000 0.750000 0.500000
O O6 0.664757 0.798402 0.541101
O O7 0.624234 0.860933 0.267915
O O8 0.500000 0.063707 0.250000
O O9 0.657382 0.099615 0.444205
O O10 0.592369 0.980898 0.285123
O O11 0.528936 0.080834 0.047687
O O12 0.754596 0.794390 0.189784
O O13 0.774135 0.681645 0.105197
O O14 0.557589 0.536375 0.457802
O O15 0.441544 0.456685 0.258407
O O16 0.172775 0.104923 0.786410
O O17 0.000000 0.390828 0.250000
#
# Coordination Sequence:
#
# PCOD9275500 Si02
#       8
#     8   8   8   8   4   8   8   8
#     4   9  17  36  60  80 113 161 192 236 302 358
#     4  11  22  34  58  92 120 152 200 259 293 359
#     4  10  22  39  63  90 123 162 204 253 306 367
#     4   9  20  37  60  84 121 158 199 239 304 363
#     4  10  22  42  58  88 118 156 196 248 304 354
#     4  10  21  40  62  85 117 156 201 244 300 362
#     4  10  21  42  61  85 122 167 200 244 316 369
#     4  10  20  39  62  89 116 162 201 247 301 366
#
# _framework density 19.194379999999999
#
# number of rings (size 3 to 8) (size 9 to 14) (size 15 to 20)
#    0.000    2.133    0.667    2.800    1.867    1.067 
#   14.400    0.000    4.400    0.000    0.000    0.000 
#    0.000    0.000    0.000    0.000    0.000    0.000 
#
# Total GULP energy -167143.065076 kJ/mol
# GULP energy per Si atom -5571.435503 kJ/mol
# Density = 1.915069 g / cm^3
# Si number density = 19.194380 Si / 1000 Ang^3
#
#
#
# Elastic Constant Matrix: (Units=GPa)
#
#
# Indices 1 2 3 4 5 6 
#
# 1 58.7200 57.1795 31.0412 0.0000 9.7187 0.0000
# 2 57.1795 123.6743 52.6888 0.0000 23.6930 0.0000
# 3 31.0412 52.6888 85.1002 0.0000 8.6675 0.0000
# 4 0.0000 0.0000 0.0000 32.5832 0.0000 11.2934
# 5 9.7187 23.6930 8.6675 0.0000 38.5149 0.0000
# 6 0.0000 0.0000 0.0000 11.2934 0.0000 17.1593
#
#
#
# Elastic Compliance Matrix: (Units=1/GPa)
#
#
# Indices 1 2 3 4 5 6 
#
# 1 0.031709 -0.013424 -0.003358 0.000000 0.001012 0.000000
# 2 -0.013424 0.017859 -0.005513 0.000000 -0.006358 0.000000
# 3 -0.003358 -0.005513 0.016332 0.000000 0.000564 0.000000
# 4 0.000000 0.000000 0.000000 0.039761 0.000000 -0.026169
# 5 0.001012 -0.006358 0.000564 0.000000 0.029493 0.000000
# 6 0.000000 0.000000 0.000000 -0.026169 0.000000 0.075500
#
#
# Mechanical properties :
#
#
# Convention : Reuss Voigt Hill
#
# Bulk Modulus (GPa) = 46.92664 61.03484 53.98074
# Shear Modulus (GPa) = 19.05871 26.09048 22.57459
#
# Velocity S-wave (km/s) = 3.15450 3.69084 3.43316
# Velocity P-wave (km/s) = 6.14565 7.07321 6.62568
#
# Compressibility (1/GPa) = 0.02130986
#
# Stress axis : x y z
#
# Youngs Moduli (GPa) = 31.53658 55.99470 61.23027
#
# Poissons Ratio (x) = 0.75165 0.20563
# Poissons Ratio (y) = 0.42333 0.33757
# Poissons Ratio (z) = 0.10591 0.30870
#
# Static dielectric constant tensor:
#      x y z
#    x 1.703860 0.000000 -0.072850 
#    y 0.000000 1.719990 0.000000 
#    z -0.072850 0.000000 1.751150 
# 
# From -- ./inp_files/58104.got.cif
#   From: 2010.05.17/outbox.cif.g08.bks.cpg/sg15_30_cif.got.tgz:58104.got - 2010.06.03 18:47:42.
