data_PCOD9275067
_publ_section_title
;
Structure prediction by ZEFSAII (Michael W. Deem and Ramdas Pophale) SiO2 
 PCOD9275067
Probable space group: C 2/C
;
_chemical_formula_sum "Si O2"
_cell_formula_units_Z 60
_cell_length_a 20.771318
_cell_length_b 17.999875
_cell_length_c 8.325513
_cell_angle_alpha 90.000000
_cell_angle_beta 50.852357
_cell_angle_gamma 90.000000
_cell_volume 2414.006915
_symmetry_space_group_name_H-M "C 2/C"
_symmetry_group_IT_number 15
_symmetry_cell_setting 'monoclinic'
loop_
_space_group_symop_operation_xyz
x,y,z
-x,y,1/2-z
-x,-y,-z
x,-y,1/2+z
1/2+x,1/2+y,z
1/2-x,1/2+y,1/2-z
1/2-x,1/2-y,-z
1/2+x,1/2-y,1/2+z
loop_
_atom_site_type_symbol
_atom_site_label
_atom_site_fract_x
_atom_site_fract_y
_atom_site_fract_z
Si Si1 0.533523 0.577063 0.514679
Si Si2 0.357276 0.178558 0.150387
Si Si3 0.750667 0.414418 0.331070
Si Si4 0.102732 0.156330 0.929430
Si Si5 0.338552 0.345357 0.532702
Si Si6 0.500000 0.068682 0.250000
Si Si7 0.619032 0.813450 0.506387
Si Si8 0.148379 0.464015 0.027317
O O1 0.500000 0.587260 0.750000
O O2 0.500000 0.500000 0.500000
O O3 0.491706 0.635081 0.458514
O O4 0.629935 0.589125 0.401540
O O5 0.387027 0.258010 0.038067
O O6 0.257548 0.172331 0.296911
O O7 0.378257 0.178323 0.305693
O O8 0.388396 0.104152 0.016489
O O9 0.653142 0.400140 0.464412
O O10 0.792611 0.428652 0.433739
O O11 0.792968 0.339170 0.198870
O O12 0.790541 0.480969 0.165280
O O13 0.145253 0.144692 0.683807
O O14 0.391870 0.273317 0.504534
O O15 0.448941 0.126581 0.443502
O O16 0.571726 0.015313 0.206778
#
# Coordination Sequence:
#
# PCOD9275067 Si02
#       8
#     8   8   8   8   8   4   8   8
#     4  10  24  42  63  93 126 168 213 264 323 371
#     4  11  21  41  66  96 124 165 214 264 323 388
#     4  11  22  41  59  93 122 171 212 257 321 378
#     4  10  21  40  67  93 127 161 217 266 316 387
#     4  10  20  40  66  99 122 168 215 265 320 386
#     4  10  24  42  60  96 134 164 212 260 326 390
#     4  10  20  38  68  91 128 164 207 263 320 390
#     4  11  26  39  63  93 130 173 208 266 322 390
#
# _framework density 24.854939999999999
#
# number of rings (size 3 to 8) (size 9 to 14) (size 15 to 20)
#    0.000    1.600    2.667    2.400    6.533    6.400 
#    0.000    0.000    0.000    0.000    0.000    0.000 
#    0.000    0.000    0.000    0.000    0.000    0.000 
#
# Total GULP energy -167706.397165 kJ/mol
# GULP energy per Si atom -5590.213239 kJ/mol
# Density = 2.479837 g / cm^3
# Si number density = 24.854940 Si / 1000 Ang^3
#
#
#
# Elastic Constant Matrix: (Units=GPa)
#
#
# Indices 1 2 3 4 5 6 
#
# 1 128.0920 45.7853 22.6000 0.0000 -9.4207 0.0000
# 2 45.7853 117.8080 6.5466 0.0000 2.7308 0.0000
# 3 22.6000 6.5466 18.9571 0.0000 -0.0778 0.0000
# 4 0.0000 0.0000 0.0000 23.9278 0.0000 1.7134
# 5 -9.4207 2.7308 -0.0778 0.0000 37.2712 0.0000
# 6 0.0000 0.0000 0.0000 1.7134 0.0000 49.3133
#
#
#
# Elastic Compliance Matrix: (Units=1/GPa)
#
#
# Indices 1 2 3 4 5 6 
#
# 1 0.011648 -0.003905 -0.012525 0.000000 0.003204 0.000000
# 2 -0.003905 0.009979 0.001203 0.000000 -0.001716 0.000000
# 3 -0.012525 0.001203 0.067254 0.000000 -0.003113 0.000000
# 4 0.000000 0.000000 0.000000 0.041897 0.000000 -0.001456
# 5 0.003204 -0.001716 -0.003113 0.000000 0.027759 0.000000
# 6 0.000000 0.000000 0.000000 -0.001456 0.000000 0.020329
#
#
# Mechanical properties :
#
#
# Convention : Reuss Voigt Hill
#
# Bulk Modulus (GPa) = 17.11555 46.08010 31.59782
# Shear Modulus (GPa) = 21.85339 34.76414 28.30876
#
# Velocity S-wave (km/s) = 2.96841 3.74395 3.37851
# Velocity P-wave (km/s) = 4.31853 6.10487 5.28768
#
# Compressibility (1/GPa) = 0.05842642
#
# Stress axis : x y z
#
# Youngs Moduli (GPa) = 85.84951 100.20944 14.86896
#
# Poissons Ratio (x) = 0.39135 0.18623
# Poissons Ratio (y) = 0.33527 -0.01788
# Poissons Ratio (z) = 1.07525 -0.12051
#
# Static dielectric constant tensor:
#      x y z
#    x 1.971000 0.000000 -0.018050 
#    y 0.000000 2.048950 0.000000 
#    z -0.018050 0.000000 2.029730 
# 
# From -- ./inp_files/57002.got.cif
#   From: 2010.05.17/outbox.cif.g08.bks.cpg/sg15_29_cif.got.tgz:57002.got - 2010.06.03 18:47:42.
