data_PCOD9275577
_publ_section_title
;
Structure prediction by ZEFSAII (Michael W. Deem and Ramdas Pophale) SiO2 
 PCOD9275577
Probable space group: C 2/C
;
_chemical_formula_sum "Si O2"
_cell_formula_units_Z 52
_cell_length_a 22.334066
_cell_length_b 5.737166
_cell_length_c 17.135862
_cell_angle_alpha 90.000000
_cell_angle_beta 70.446566
_cell_angle_gamma 90.000000
_cell_volume 2069.064742
_symmetry_space_group_name_H-M "C 2/C"
_symmetry_group_IT_number 15
_symmetry_cell_setting 'monoclinic'
loop_
_space_group_symop_operation_xyz
x,y,z
-x,y,1/2-z
-x,-y,-z
x,-y,1/2+z
1/2+x,1/2+y,z
1/2-x,1/2+y,1/2-z
1/2-x,1/2-y,-z
1/2+x,1/2-y,1/2+z
loop_
_atom_site_type_symbol
_atom_site_label
_atom_site_fract_x
_atom_site_fract_y
_atom_site_fract_z
Si Si1 0.946011 0.016140 0.667645
Si Si2 0.832340 0.110371 0.298020
Si Si3 0.403716 0.091318 0.080682
Si Si4 0.970966 0.655338 0.905070
Si Si5 0.287383 0.498035 0.487787
Si Si6 0.206730 0.149674 0.844416
Si Si7 0.500000 0.879879 0.750000
O O1 0.922476 0.147545 0.601397
O O2 0.950365 0.221423 0.727264
O O3 0.901754 0.833366 0.732323
O O4 0.015580 0.922608 0.618180
O O5 0.828906 0.011230 0.388317
O O6 0.782040 0.318535 0.317938
O O7 0.809345 0.946820 0.234796
O O8 0.329738 0.097503 0.133431
O O9 0.460192 0.925365 0.087816
O O10 0.414133 0.087896 0.984630
O O11 0.963793 0.528180 0.828286
O O12 0.250000 0.750000 0.500000
O O13 0.312745 0.510438 0.567203
O O14 0.250000 0.250000 0.500000
#
# Coordination Sequence:
#
# PCOD9275577 Si02
#       7
#     8   8   8   8   8   8   4
#     4  10  21  39  62  92 122 163 216 267 332 394
#     4  10  22  39  63  96 129 170 217 275 327 412
#     4   9  21  39  61  96 116 164 217 268 330 399
#     4  10  20  39  63  85 129 158 214 273 327 397
#     4  10  22  43  62  94 135 177 226 275 328 402
#     4  10  21  39  65  94 132 171 222 263 348 397
#     4  10  22  38  56  92 120 166 208 264 332 394
#
# _framework density 25.13213
#
# number of rings (size 3 to 8) (size 9 to 14) (size 15 to 20)
#    0.000    2.154    0.000    1.846    2.154    2.462 
#   16.615    1.538    0.000    0.000    0.000    0.000 
#    0.000    0.000    0.000    0.000    0.000    0.000 
#
# Total GULP energy -144783.764690 kJ/mol
# GULP energy per Si atom -5568.606334 kJ/mol
# Density = 2.507493 g / cm^3
# Si number density = 25.132130 Si / 1000 Ang^3
#
#
#
# Elastic Constant Matrix: (Units=GPa)
#
#
# Indices 1 2 3 4 5 6 
#
# 1 36.1763 7.7662 9.6721 0.0002 22.3254 0.0000
# 2 7.7662 44.8508 21.3251 -0.0006 5.9495 -0.0001
# 3 9.6721 21.3251 181.4323 0.0000 21.0432 0.0000
# 4 0.0002 -0.0006 0.0000 -113.6026 0.0000 -33.1584
# 5 22.3254 5.9495 21.0432 0.0000 36.2671 0.0000
# 6 0.0000 -0.0001 0.0000 -33.1584 0.0000 18.5571
#
#
#
# Elastic Compliance Matrix: (Units=1/GPa)
#
#
# Indices 1 2 3 4 5 6 
#
# 1 0.045667 -0.004840 0.001397 0.000000 -0.028128 0.000000
# 2 -0.004840 0.024330 -0.002664 0.000000 0.000534 0.000000
# 3 0.001397 -0.002664 0.006218 0.000000 -0.004031 0.000000
# 4 0.000000 0.000000 0.000000 -0.005785 0.000000 -0.010337
# 5 -0.028128 0.000534 -0.004031 0.000000 0.047139 0.000000
# 6 0.000000 0.000000 0.000000 -0.010337 0.000000 0.035417
#
#
# Mechanical properties :
#
#
# Convention : Reuss Voigt Hill
#
# Bulk Modulus (GPa) = 15.62501 37.77627 26.70064
# Shear Modulus (GPa) = 26.80497 3.15739 14.98118
#
# Velocity S-wave (km/s) = 3.26937 1.12207 2.44416
# Velocity P-wave (km/s) = 4.52574 4.09175 4.31421
#
# Compressibility (1/GPa) = 0.06399995
#
# Stress axis : x y z
#
# Youngs Moduli (GPa) = 21.89786 41.10166 160.82876
#
# Poissons Ratio (x) = 0.19895 -0.22465
# Poissons Ratio (y) = 0.10600 0.42838
# Poissons Ratio (z) = -0.03059 0.10948
#
# Static dielectric constant tensor:
#      x y z
#    x 2.204720 0.000000 -0.017150 
#    y 0.000000 2.073060 0.000000 
#    z -0.017150 0.000000 2.011810 
# 
# From -- ./inp_files/221142.got.cif
#   From: 2010.05.17/outbox.cif.g08.bks.cpg/sg15_111_cif.got.tgz:221142.got - 2010.06.03 18:47:42.
