data_PCOD9275972
_publ_section_title
;
Structure prediction by ZEFSAII (Michael W. Deem and Ramdas Pophale) SiO2 
 PCOD9275972
Probable space group: C 2/C
;
_chemical_formula_sum "Si O2"
_cell_formula_units_Z 52
_cell_length_a 20.602870
_cell_length_b 10.327537
_cell_length_c 14.387620
_cell_angle_alpha 90.000000
_cell_angle_beta 129.836773
_cell_angle_gamma 90.000000
_cell_volume 2350.729058
_symmetry_space_group_name_H-M "C 2/C"
_symmetry_group_IT_number 15
_symmetry_cell_setting 'monoclinic'
loop_
_space_group_symop_operation_xyz
x,y,z
-x,y,1/2-z
-x,-y,-z
x,-y,1/2+z
1/2+x,1/2+y,z
1/2-x,1/2+y,1/2-z
1/2-x,1/2-y,-z
1/2+x,1/2-y,1/2+z
loop_
_atom_site_type_symbol
_atom_site_label
_atom_site_fract_x
_atom_site_fract_y
_atom_site_fract_z
Si Si1 0.436322 0.349733 0.619769
Si Si2 0.894580 0.674990 0.306773
Si Si3 0.273188 0.338048 0.932657
Si Si4 0.233178 0.096068 0.469025
Si Si5 0.972222 0.124008 0.615409
Si Si6 0.500000 0.958338 0.750000
Si Si7 0.614873 0.909592 0.510726
O O1 0.500000 0.284200 0.750000
O O2 0.367223 0.410374 0.627237
O O3 0.473363 0.470594 0.598779
O O4 0.395247 0.244348 0.516328
O O5 0.794872 0.705856 0.206895
O O6 0.927730 0.617810 0.239829
O O7 0.903214 0.572574 0.398219
O O8 0.959330 0.793987 0.378229
O O9 0.250000 0.250000 0.000000
O O10 0.251383 0.489649 0.935894
O O11 0.374651 0.329787 0.009878
O O12 0.250000 0.250000 0.500000
O O13 0.290982 0.054500 0.436138
O O14 0.000000 0.135729 0.750000
O O15 0.449444 0.027577 0.620683
#
# Coordination Sequence:
#
# PCOD9275972 Si02
#       7
#     8   8   8   8   8   4   8
#     4   9  19  39  67  90 127 176 208 267 338 391
#     4  12  24  41  66  99 133 170 230 276 330 414
#     4  11  20  39  67  92 130 183 211 273 343 389
#     4   9  20  40  64  89 133 169 217 269 335 394
#     4  10  20  39  66  93 129 172 214 269 338 395
#     4  12  22  44  62  88 136 170 214 286 336 380
#     4  11  23  41  66  98 125 178 224 270 335 409
#
# _framework density 22.120797
#
# number of rings (size 3 to 8) (size 9 to 14) (size 15 to 20)
#    0.000    1.538    4.615    0.462    0.000    0.615 
#    2.769    4.615    0.000    0.000    0.000    0.000 
#    0.000    0.000    0.000    0.000    0.000    0.000 
#
# Total GULP energy -144770.189565 kJ/mol
# GULP energy per Si atom -5568.084214 kJ/mol
# Density = 2.207045 g / cm^3
# Si number density = 22.120797 Si / 1000 Ang^3
#
#
#
# Elastic Constant Matrix: (Units=GPa)
#
#
# Indices 1 2 3 4 5 6 
#
# 1 72.9927 11.5012 40.4802 0.0000 10.2495 0.0000
# 2 11.5012 56.0789 13.2901 0.0000 9.4627 0.0000
# 3 40.4802 13.2901 86.3652 0.0000 16.6511 0.0000
# 4 0.0000 0.0000 0.0000 19.6289 0.0000 1.4919
# 5 10.2495 9.4627 16.6511 0.0000 36.8557 0.0000
# 6 0.0000 0.0000 0.0000 1.4919 0.0000 25.5589
#
#
#
# Elastic Compliance Matrix: (Units=1/GPa)
#
#
# Indices 1 2 3 4 5 6 
#
# 1 0.018723 -0.001698 -0.008319 0.000000 -0.001012 0.000000
# 2 -0.001698 0.019159 -0.001419 0.000000 -0.003806 0.000000
# 3 -0.008319 -0.001419 0.016629 0.000000 -0.004835 0.000000
# 4 0.000000 0.000000 0.000000 0.051172 0.000000 -0.002987
# 5 -0.001012 -0.003806 -0.004835 0.000000 0.030576 0.000000
# 6 0.000000 0.000000 0.000000 -0.002987 0.000000 0.039300
#
#
# Mechanical properties :
#
#
# Convention : Reuss Voigt Hill
#
# Bulk Modulus (GPa) = 31.60634 38.44218 35.02426
# Shear Modulus (GPa) = 23.92617 26.41973 25.17295
#
# Velocity S-wave (km/s) = 3.29236 3.45967 3.37705
# Velocity P-wave (km/s) = 5.36395 5.77712 5.57436
#
# Compressibility (1/GPa) = 0.03163922
#
# Stress axis : x y z
#
# Youngs Moduli (GPa) = 53.40912 52.19595 60.13742
#
# Poissons Ratio (x) = 0.08860 0.50031
# Poissons Ratio (y) = 0.09066 0.08532
# Poissons Ratio (z) = 0.44433 0.07405
#
# Static dielectric constant tensor:
#      x y z
#    x 1.846250 0.000000 0.023550 
#    y 0.000000 1.914560 0.000000 
#    z 0.023550 0.000000 1.858770 
# 
# From -- ./inp_files/173188.got.cif
#   From: 2010.05.17/outbox.cif.g08.bks.cpg/sg15_87_cif.got.tgz:173188.got - 2010.06.03 18:47:42.
