data_PCOD9275739
_publ_section_title
;
Structure prediction by ZEFSAII (Michael W. Deem and Ramdas Pophale) SiO2 
 PCOD9275739
Probable space group: C 2/C
;
_chemical_formula_sum "Si O2"
_cell_formula_units_Z 40
_cell_length_a 10.797124
_cell_length_b 14.445691
_cell_length_c 10.845391
_cell_angle_alpha 90.000000
_cell_angle_beta 93.087369
_cell_angle_gamma 90.000000
_cell_volume 1689.121216
_symmetry_space_group_name_H-M "C 2/C"
_symmetry_group_IT_number 15
_symmetry_cell_setting 'monoclinic'
loop_
_space_group_symop_operation_xyz
x,y,z
-x,y,1/2-z
-x,-y,-z
x,-y,1/2+z
1/2+x,1/2+y,z
1/2-x,1/2+y,1/2-z
1/2-x,1/2-y,-z
1/2+x,1/2-y,1/2+z
loop_
_atom_site_type_symbol
_atom_site_label
_atom_site_fract_x
_atom_site_fract_y
_atom_site_fract_z
Si Si1 0.139222 0.001652 0.959719
Si Si2 0.641499 0.005176 0.165337
Si Si3 0.307305 0.132076 0.636278
Si Si4 0.372692 0.692714 0.665962
Si Si5 0.021028 0.643044 0.475275
O O1 0.210582 0.927282 0.050123
O O2 0.210656 0.973100 0.836050
O O3 0.151307 0.112040 0.934906
O O4 0.000000 0.000000 0.000000
O O5 0.623490 0.951162 0.289382
O O6 0.564010 0.095117 0.132628
O O7 0.599299 0.934257 0.053553
O O8 0.236108 0.190585 0.736782
O O9 0.414365 0.182216 0.562991
O O10 0.500000 0.674246 0.750000
O O11 0.393194 0.784325 0.588000
#
# Coordination Sequence:
#
# PCOD9275739 Si02
#       5
#     8   8   8   8   8
#     4  10  20  39  64  89 124 173 217 261 324 394
#     4   9  21  40  68  90 130 177 215 269 330 386
#     4  10  21  41  70  93 133 177 218 269 330 394
#     4  11  23  39  68  96 133 170 218 273 327 386
#     4  10  22  41  66 101 131 167 223 270 327 394
#
# _framework density 23.680955000000001
#
# number of rings (size 3 to 8) (size 9 to 14) (size 15 to 20)
#    0.000    2.000    2.000    0.600    0.000    8.800 
#    0.000    0.000   22.000    0.000    0.000    0.000 
#    0.000    0.000    0.000    0.000    0.000    0.000 
#
# Total GULP energy -111363.688407 kJ/mol
# GULP energy per Si atom -5568.184420 kJ/mol
# Density = 2.362706 g / cm^3
# Si number density = 23.680955 Si / 1000 Ang^3
#
#
#
# Elastic Constant Matrix: (Units=GPa)
#
#
# Indices 1 2 3 4 5 6 
#
# 1 116.9572 2.3749 37.2772 0.0000 -42.4271 0.0000
# 2 2.3749 68.1469 42.4946 0.0000 -28.9032 0.0000
# 3 37.2772 42.4946 101.1936 0.0000 -49.7153 0.0000
# 4 0.0000 0.0000 0.0000 33.1302 0.0000 -8.1852
# 5 -42.4271 -28.9032 -49.7153 0.0000 47.4133 0.0000
# 6 0.0000 0.0000 0.0000 -8.1852 0.0000 24.5994
#
#
#
# Elastic Compliance Matrix: (Units=1/GPa)
#
#
# Indices 1 2 3 4 5 6 
#
# 1 0.014701 0.006715 0.000492 0.000000 0.017765 0.000000
# 2 0.006715 0.024120 -0.005005 0.000000 0.015465 0.000000
# 3 0.000492 -0.005005 0.021697 0.000000 0.020140 0.000000
# 4 0.000000 0.000000 0.000000 0.032887 0.000000 0.010943
# 5 0.017765 0.015465 0.020140 0.000000 0.067533 0.000000
# 6 0.000000 0.000000 0.000000 0.010943 0.000000 0.044292
#
#
# Mechanical properties :
#
#
# Convention : Reuss Voigt Hill
#
# Bulk Modulus (GPa) = 15.40267 50.06568 32.73417
# Shear Modulus (GPa) = 22.47522 34.63867 28.55694
#
# Velocity S-wave (km/s) = 3.08406 3.82870 3.47638
# Velocity P-wave (km/s) = 4.38181 6.38224 5.47418
#
# Compressibility (1/GPa) = 0.06492382
#
# Stress axis : x y z
#
# Youngs Moduli (GPa) = 68.02117 41.45879 46.08959
#
# Poissons Ratio (x) = -0.27842 -0.02268
# Poissons Ratio (y) = -0.45680 0.23068
# Poissons Ratio (z) = -0.03347 0.20750
#
# Static dielectric constant tensor:
#      x y z
#    x 2.022790 0.000000 -0.023950 
#    y 0.000000 1.896910 0.000000 
#    z -0.023950 0.000000 1.943070 
# 
# From -- ./inp_files/85526.got.cif
#   From: 2010.05.17/outbox.cif.g08.bks.cpg/sg15_43_cif.got.tgz:85526.got - 2010.06.03 18:47:42.
