data_PCOD9275640
_publ_section_title
;
Structure prediction by ZEFSAII (Michael W. Deem and Ramdas Pophale) SiO2 
 PCOD9275640
Probable space group: C 2/C
;
_chemical_formula_sum "Si O2"
_cell_formula_units_Z 60
_cell_length_a 12.640978
_cell_length_b 24.386133
_cell_length_c 15.186881
_cell_angle_alpha 90.000000
_cell_angle_beta 138.626873
_cell_angle_gamma 90.000000
_cell_volume 3094.335244
_symmetry_space_group_name_H-M "C 2/C"
_symmetry_group_IT_number 15
_symmetry_cell_setting 'monoclinic'
loop_
_space_group_symop_operation_xyz
x,y,z
-x,y,1/2-z
-x,-y,-z
x,-y,1/2+z
1/2+x,1/2+y,z
1/2-x,1/2+y,1/2-z
1/2-x,1/2-y,-z
1/2+x,1/2-y,1/2+z
loop_
_atom_site_type_symbol
_atom_site_label
_atom_site_fract_x
_atom_site_fract_y
_atom_site_fract_z
Si Si1 0.784517 0.822032 0.930789
Si Si2 0.921838 0.469436 0.867097
Si Si3 0.146432 0.167265 0.635239
Si Si4 0.734207 0.806000 0.102676
Si Si5 0.411317 0.863022 0.957229
Si Si6 0.500000 0.093552 0.250000
Si Si7 0.809319 0.765563 0.633484
Si Si8 0.386327 0.922388 0.261648
O O1 0.744441 0.759700 0.877521
O O2 0.649660 0.866452 0.824502
O O3 0.793732 0.821714 0.043106
O O4 0.958716 0.833405 0.000346
O O5 0.849013 0.414487 0.862258
O O6 0.828745 0.519238 0.763432
O O7 0.029524 0.444325 0.854618
O O8 0.000000 0.500000 0.000000
O O9 0.175505 0.166888 0.758785
O O10 0.235379 0.221180 0.654345
O O11 0.237180 0.116257 0.649210
O O12 0.549240 0.826329 0.995378
O O13 0.266960 0.823809 0.891408
O O14 0.505313 0.889329 0.099199
O O15 0.750000 0.750000 0.500000
O O16 0.000000 0.764543 0.750000
O O17 0.500000 0.931324 0.250000
#
# Coordination Sequence:
#
# PCOD9275640 Si02
#       8
#     8   8   8   8   8   4   8   8
#     4  11  24  36  61  97 133 164 209 255 327 393
#     4  10  22  41  67  90 122 172 225 270 320 380
#     4  11  23  39  62  92 131 174 208 262 326 391
#     4  10  21  38  58  93 135 173 199 251 325 401
#     4  10  20  39  63  91 126 168 215 265 320 385
#     4  12  24  40  68  98 126 168 222 270 324 392
#     4  12  25  41  63  96 134 173 218 268 330 401
#     4  10  20  40  66  87 118 170 223 262 320 382
#
# _framework density 19.390270999999998
#
# number of rings (size 3 to 8) (size 9 to 14) (size 15 to 20)
#    0.000    1.333    3.333    3.200    5.600    0.000 
#    0.000    0.667    5.867    0.000    0.000    0.000 
#    0.000    0.000    0.000    0.000    0.000    0.000 
#
# Total GULP energy -167388.433036 kJ/mol
# GULP energy per Si atom -5579.614435 kJ/mol
# Density = 1.934614 g / cm^3
# Si number density = 19.390271 Si / 1000 Ang^3
#
#
#
# Elastic Constant Matrix: (Units=GPa)
#
#
# Indices 1 2 3 4 5 6 
#
# 1 97.2338 48.4580 35.6895 0.0000 13.5691 0.0000
# 2 48.4580 135.6021 27.1515 0.0000 6.5562 0.0000
# 3 35.6895 27.1515 47.6569 0.0000 12.8932 0.0000
# 4 0.0000 0.0000 0.0000 12.9103 0.0000 -4.6270
# 5 13.5691 6.5562 12.8932 0.0000 40.9852 0.0000
# 6 0.0000 0.0000 0.0000 -4.6270 0.0000 36.4040
#
#
#
# Elastic Compliance Matrix: (Units=1/GPa)
#
#
# Indices 1 2 3 4 5 6 
#
# 1 0.015754 -0.003700 -0.009225 0.000000 -0.001722 0.000000
# 2 -0.003700 0.009194 -0.002624 0.000000 0.000580 0.000000
# 3 -0.009225 -0.002624 0.031093 0.000000 -0.006308 0.000000
# 4 0.000000 0.000000 0.000000 0.081154 0.000000 0.010315
# 5 -0.001722 0.000580 -0.006308 0.000000 0.026861 0.000000
# 6 0.000000 0.000000 0.000000 0.010315 0.000000 0.028781
#
#
# Mechanical properties :
#
#
# Convention : Reuss Voigt Hill
#
# Bulk Modulus (GPa) = 40.08900 55.89897 47.99398
# Shear Modulus (GPa) = 21.52864 29.33950 25.43407
#
# Velocity S-wave (km/s) = 3.33570 3.89408 3.62566
# Velocity P-wave (km/s) = 5.96285 7.00781 6.50634
#
# Compressibility (1/GPa) = 0.02494450
#
# Stress axis : x y z
#
# Youngs Moduli (GPa) = 63.47409 108.76610 32.16154
#
# Poissons Ratio (x) = 0.40240 0.29668
# Poissons Ratio (y) = 0.23483 0.08440
# Poissons Ratio (z) = 0.58552 0.28544
#
# Static dielectric constant tensor:
#      x y z
#    x 1.693050 0.000000 -0.037210 
#    y 0.000000 1.684660 0.000000 
#    z -0.037210 0.000000 1.706310 
# 
# From -- ./inp_files/148113.got.cif
#   From: 2010.05.17/outbox.cif.g08.bks.cpg/sg15_75_cif.got.tgz:148113.got - 2010.06.03 18:47:42.
