data_PCOD9275413
_publ_section_title
;
Structure prediction by ZEFSAII (Michael W. Deem and Ramdas Pophale) SiO2 
 PCOD9275413
Probable space group: C 2/C
;
_chemical_formula_sum "Si O2"
_cell_formula_units_Z 52
_cell_length_a 16.275849
_cell_length_b 8.869030
_cell_length_c 16.525537
_cell_angle_alpha 90.000000
_cell_angle_beta 87.988575
_cell_angle_gamma 90.000000
_cell_volume 2384.007860
_symmetry_space_group_name_H-M "C 2/C"
_symmetry_group_IT_number 15
_symmetry_cell_setting 'monoclinic'
loop_
_space_group_symop_operation_xyz
x,y,z
-x,y,1/2-z
-x,-y,-z
x,-y,1/2+z
1/2+x,1/2+y,z
1/2-x,1/2+y,1/2-z
1/2-x,1/2-y,-z
1/2+x,1/2-y,1/2+z
loop_
_atom_site_type_symbol
_atom_site_label
_atom_site_fract_x
_atom_site_fract_y
_atom_site_fract_z
Si Si1 0.535864 0.559881 0.393567
Si Si2 0.133324 0.945527 0.037937
Si Si3 0.762134 0.403390 0.638869
Si Si4 0.571170 0.217848 0.342468
Si Si5 0.681261 0.102707 0.715214
Si Si6 0.892362 0.338323 0.847488
Si Si7 0.000000 0.715196 0.750000
O O1 0.447448 0.547553 0.440642
O O2 0.612786 0.602871 0.447543
O O3 0.554060 0.392261 0.360644
O O4 0.520586 0.677112 0.323911
O O5 0.131636 0.800109 0.095466
O O6 0.211521 0.038593 0.064033
O O7 0.852597 0.348301 0.611817
O O8 0.718030 0.258912 0.682213
O O9 0.773082 0.533381 0.707703
O O10 0.598316 0.209195 0.247395
O O11 0.487838 0.127491 0.364852
O O12 0.584112 0.124095 0.736214
O O13 0.674801 0.970273 0.648568
#
# Coordination Sequence:
#
# PCOD9275413 Si02
#       7
#     8   8   8   8   8   8   4
#     4  10  21  37  64  89 116 162 198 242 288 366
#     4  10  20  39  61  89 123 153 199 243 302 342
#     4  11  21  36  58  91 118 153 190 257 291 347
#     4   9  18  33  61  83 118 152 203 233 296 340
#     4  11  23  35  63  88 119 150 203 240 298 341
#     4   9  18  38  60  85 112 163 197 245 280 365
#     4  12  22  40  62  90 112 158 206 242 278 372
#
# _framework density 21.812007999999999
#
# number of rings (size 3 to 8) (size 9 to 14) (size 15 to 20)
#    0.000    1.846    1.538    5.538    2.154    0.615 
#    0.000    1.538    6.769    0.000    0.000    0.000 
#    0.000    0.000    0.000    0.000    0.000    0.000 
#
# Total GULP energy -145161.230967 kJ/mol
# GULP energy per Si atom -5583.124268 kJ/mol
# Density = 2.176236 g / cm^3
# Si number density = 21.812008 Si / 1000 Ang^3
#
#
#
# Elastic Constant Matrix: (Units=GPa)
#
#
# Indices 1 2 3 4 5 6 
#
# 1 81.7910 15.1029 18.5417 0.0000 39.4015 0.0000
# 2 15.1029 50.0255 33.8357 0.0000 18.0696 0.0000
# 3 18.5417 33.8357 66.7801 0.0000 34.9772 0.0000
# 4 0.0000 0.0000 0.0000 31.3422 0.0000 12.9650
# 5 39.4015 18.0696 34.9772 0.0000 35.2660 0.0000
# 6 0.0000 0.0000 0.0000 12.9650 0.0000 39.4983
#
#
#
# Elastic Compliance Matrix: (Units=1/GPa)
#
#
# Indices 1 2 3 4 5 6 
#
# 1 0.041956 -0.006508 0.030079 0.000000 -0.073375 0.000000
# 2 -0.006508 0.031428 -0.019751 0.000000 0.010757 0.000000
# 3 0.030079 -0.019751 0.060209 0.000000 -0.083203 0.000000
# 4 0.000000 0.000000 0.000000 0.036919 0.000000 -0.012118
# 5 -0.073375 0.010757 -0.083203 0.000000 0.187345 0.000000
# 6 0.000000 0.000000 0.000000 -0.012118 0.000000 0.029295
#
#
# Mechanical properties :
#
#
# Convention : Reuss Voigt Hill
#
# Bulk Modulus (GPa) = 7.08044 37.06189 22.07117
# Shear Modulus (GPa) = 11.72088 29.96240 20.84164
#
# Velocity S-wave (km/s) = 2.32062 3.71032 3.09449
# Velocity P-wave (km/s) = 3.23009 5.94842 4.78629
#
# Compressibility (1/GPa) = 0.14123412
#
# Stress axis : x y z
#
# Youngs Moduli (GPa) = 23.83427 31.81884 16.60884
#
# Poissons Ratio (x) = 0.20708 -0.49959
# Poissons Ratio (y) = 0.15511 0.32804
# Poissons Ratio (z) = -0.71692 0.62846
#
# Static dielectric constant tensor:
#      x y z
#    x 1.847100 0.000000 0.008850 
#    y 0.000000 1.841480 0.000000 
#    z 0.008850 0.000000 1.851070 
# 
# From -- ./inp_files/209241.got.cif
#   From: 2010.05.17/outbox.cif.g08.bks.cpg/sg15_105_cif.got.tgz:209241.got - 2010.06.03 18:47:42.
