data_PCOD9275669
_publ_section_title
;
Structure prediction by ZEFSAII (Michael W. Deem and Ramdas Pophale) SiO2 
 PCOD9275669
Probable space group: C 2/C
;
_chemical_formula_sum "Si O2"
_cell_formula_units_Z 48
_cell_length_a 22.819795
_cell_length_b 13.939232
_cell_length_c 12.308562
_cell_angle_alpha 90.000000
_cell_angle_beta 33.736156
_cell_angle_gamma 90.000000
_cell_volume 2174.401719
_symmetry_space_group_name_H-M "C 2/C"
_symmetry_group_IT_number 15
_symmetry_cell_setting 'monoclinic'
loop_
_space_group_symop_operation_xyz
x,y,z
-x,y,1/2-z
-x,-y,-z
x,-y,1/2+z
1/2+x,1/2+y,z
1/2-x,1/2+y,1/2-z
1/2-x,1/2-y,-z
1/2+x,1/2-y,1/2+z
loop_
_atom_site_type_symbol
_atom_site_label
_atom_site_fract_x
_atom_site_fract_y
_atom_site_fract_z
Si Si1 0.208047 0.916897 0.534619
Si Si2 0.044601 0.892874 0.951174
Si Si3 0.808437 0.395566 0.148832
Si Si4 0.827566 0.133616 0.857502
Si Si5 0.121397 0.599560 0.538944
Si Si6 0.199089 0.807697 0.866112
O O1 0.113440 0.860172 0.740939
O O2 0.238858 0.897724 0.364477
O O3 0.310765 0.906799 0.453952
O O4 0.169651 0.025954 0.598865
O O5 0.126861 0.890793 0.924347
O O6 0.942599 0.833227 0.141982
O O7 0.000000 0.000000 0.000000
O O8 0.739287 0.381527 0.147587
O O9 0.860833 0.290457 0.074526
O O10 0.870693 0.494837 0.033750
O O11 0.789893 0.189403 0.021838
O O12 0.186858 0.675055 0.364492
O O13 0.000000 0.622118 0.750000
#
# Coordination Sequence:
#
# PCOD9275669 Si02
#       6
#     8   8   8   8   8   8
#     4   9  20  40  63  89 129 165 211 267 321 386
#     4   9  20  36  64  93 121 168 207 264 332 384
#     4  11  23  41  64  94 129 174 217 270 325 392
#     4  10  20  39  63  93 127 166 210 264 335 390
#     4  10  23  43  64  91 128 177 219 265 329 392
#     4  11  22  42  65  92 136 166 216 281 324 389
#
# _framework density 22.075037999999999
#
# number of rings (size 3 to 8) (size 9 to 14) (size 15 to 20)
#    0.000    2.000    1.667    2.000    0.000    5.333 
#    6.000    0.000    0.000    0.000    0.000    0.000 
#    0.000    0.000    0.000    0.000    0.000    0.000 
#
# Total GULP energy -133756.773629 kJ/mol
# GULP energy per Si atom -5573.198901 kJ/mol
# Density = 2.202479 g / cm^3
# Si number density = 22.075038 Si / 1000 Ang^3
#
#
#
# Elastic Constant Matrix: (Units=GPa)
#
#
# Indices 1 2 3 4 5 6 
#
# 1 38.5750 6.9625 23.8890 0.0000 18.2324 0.0000
# 2 6.9625 52.9038 0.9803 0.0000 10.3915 0.0000
# 3 23.8890 0.9803 73.1786 0.0000 12.4640 0.0000
# 4 0.0000 0.0000 0.0000 1.8206 0.0000 7.1990
# 5 18.2324 10.3915 12.4640 0.0000 51.0228 0.0000
# 6 0.0000 0.0000 0.0000 7.1990 0.0000 22.7078
#
#
#
# Elastic Compliance Matrix: (Units=1/GPa)
#
#
# Indices 1 2 3 4 5 6 
#
# 1 0.037869 -0.002747 -0.010555 0.000000 -0.010394 0.000000
# 2 -0.002747 0.019903 0.001203 0.000000 -0.003366 0.000000
# 3 -0.010555 0.001203 0.017210 0.000000 -0.000678 0.000000
# 4 0.000000 0.000000 0.000000 -2.166126 0.000000 0.686724
# 5 -0.010394 -0.003366 -0.000678 0.000000 0.024164 0.000000
# 6 0.000000 0.000000 0.000000 0.686724 0.000000 -0.173673
#
#
# Mechanical properties :
#
#
# Convention : Reuss Voigt Hill
#
# Bulk Modulus (GPa) = 19.69095 25.36902 22.52999
# Shear Modulus (GPa) = -2.27321 23.96527 10.84603
#
# Velocity S-wave (km/s) = -1.01588 3.29846 2.21899
# Velocity P-wave (km/s) = 2.75016 5.10133 4.09798
#
# Compressibility (1/GPa) = 0.05078474
#
# Stress axis : x y z
#
# Youngs Moduli (GPa) = 26.40715 50.24479 58.10531
#
# Poissons Ratio (x) = 0.13800 0.61330
# Poissons Ratio (y) = 0.07253 -0.06992
# Poissons Ratio (z) = 0.27873 -0.06046
#
# Static dielectric constant tensor:
#      x y z
#    x 1.795390 0.000000 -0.009640 
#    y 0.000000 1.962650 0.000000 
#    z -0.009640 0.000000 1.860630 
# 
# From -- ./inp_files/87271.got.cif
#   From: 2010.05.17/outbox.cif.g08.bks.cpg/sg15_44_cif.got.tgz:87271.got - 2010.06.03 18:47:42.
