data_PCOD9275532
_publ_section_title
;
Structure prediction by ZEFSAII (Michael W. Deem and Ramdas Pophale) SiO2 
 PCOD9275532
Probable space group: C 2/C
;
_chemical_formula_sum "Si O2"
_cell_formula_units_Z 56
_cell_length_a 15.413429
_cell_length_b 14.148285
_cell_length_c 11.878824
_cell_angle_alpha 90.000000
_cell_angle_beta 57.350637
_cell_angle_gamma 90.000000
_cell_volume 2181.134103
_symmetry_space_group_name_H-M "C 2/C"
_symmetry_group_IT_number 15
_symmetry_cell_setting 'monoclinic'
loop_
_space_group_symop_operation_xyz
x,y,z
-x,y,1/2-z
-x,-y,-z
x,-y,1/2+z
1/2+x,1/2+y,z
1/2-x,1/2+y,1/2-z
1/2-x,1/2-y,-z
1/2+x,1/2-y,1/2+z
loop_
_atom_site_type_symbol
_atom_site_label
_atom_site_fract_x
_atom_site_fract_y
_atom_site_fract_z
Si Si1 0.522690 0.861154 0.427408
Si Si2 0.000000 0.516782 0.250000
Si Si3 0.753789 0.334944 0.266724
Si Si4 0.500000 0.705858 0.250000
Si Si5 0.087636 0.076467 0.472587
Si Si6 0.296257 0.632629 0.332382
Si Si7 0.774572 0.502820 0.940287
Si Si8 0.953386 0.755839 0.161807
O O1 0.507775 0.951503 0.358317
O O2 0.642921 0.852329 0.376525
O O3 0.506107 0.774651 0.351787
O O4 0.454324 0.838391 0.583917
O O5 0.118772 0.552474 0.155216
O O6 0.762324 0.240118 0.336809
O O7 0.754033 0.421455 0.353811
O O8 0.654850 0.310773 0.262204
O O9 0.400144 0.642032 0.333109
O O10 0.162787 0.093249 0.313960
O O11 0.028763 0.171011 0.546651
O O12 0.167773 0.053472 0.516040
O O13 0.000000 0.000000 0.500000
O O14 0.218796 0.565700 0.451583
O O15 0.000000 0.735311 0.250000
#
# Coordination Sequence:
#
# PCOD9275532 Si02
#       8
#     8   4   8   4   8   8   8   8
#     4   9  18  36  60  95 121 156 210 276 315 357
#     4   9  20  40  70  98 128 153 222 288 319 368
#     4  10  20  39  62  92 123 165 222 274 315 369
#     4   9  14  30  58  88 120 151 200 262 315 362
#     4  12  25  41  58  97 142 171 209 259 334 401
#     4  11  21  38  66  92 132 169 216 272 324 385
#     4  11  22  37  67  95 128 169 216 271 333 377
#     4  12  24  39  62  91 133 176 216 255 323 401
#
# _framework density 25.674714999999999
#
# number of rings (size 3 to 8) (size 9 to 14) (size 15 to 20)
#    0.000    1.429    4.286    3.857    2.000    0.571 
#    0.000    0.714    1.571    0.000    0.000    0.000 
#    0.000    0.000    0.000    0.000    0.000    0.000 
#
# Total GULP energy -156716.173648 kJ/mol
# GULP energy per Si atom -5597.006202 kJ/mol
# Density = 2.561628 g / cm^3
# Si number density = 25.674715 Si / 1000 Ang^3
#
#
#
# Elastic Constant Matrix: (Units=GPa)
#
#
# Indices 1 2 3 4 5 6 
#
# 1 139.0700 22.8681 30.1011 0.0000 -12.8444 0.0000
# 2 22.8681 79.5126 14.3739 0.0000 0.3481 0.0000
# 3 30.1011 14.3739 63.3806 0.0000 10.3543 0.0000
# 4 0.0000 0.0000 0.0000 23.2549 0.0000 2.5569
# 5 -12.8444 0.3481 10.3543 0.0000 39.8295 0.0000
# 6 0.0000 0.0000 0.0000 2.5569 0.0000 24.3826
#
#
#
# Elastic Compliance Matrix: (Units=1/GPa)
#
#
# Indices 1 2 3 4 5 6 
#
# 1 0.008810 -0.001748 -0.004443 0.000000 0.004012 0.000000
# 2 -0.001748 0.013479 -0.002209 0.000000 -0.000107 0.000000
# 3 -0.004443 -0.002209 0.019446 0.000000 -0.006469 0.000000
# 4 0.000000 0.000000 0.000000 0.043503 0.000000 -0.004562
# 5 0.004012 -0.000107 -0.006469 0.000000 0.028083 0.000000
# 6 0.000000 0.000000 0.000000 -0.004562 0.000000 0.041491
#
#
# Mechanical properties :
#
#
# Convention : Reuss Voigt Hill
#
# Bulk Modulus (GPa) = 40.10550 46.29440 43.19995
# Shear Modulus (GPa) = 27.78930 31.80139 29.79534
#
# Velocity S-wave (km/s) = 3.29349 3.52323 3.41030
# Velocity P-wave (km/s) = 5.48793 5.88397 5.68940
#
# Compressibility (1/GPa) = 0.02493424
#
# Stress axis : x y z
#
# Youngs Moduli (GPa) = 113.50371 74.18815 51.42542
#
# Poissons Ratio (x) = 0.12970 0.22849
# Poissons Ratio (y) = 0.19843 0.11361
# Poissons Ratio (z) = 0.50431 0.16389
#
# Static dielectric constant tensor:
#      x y z
#    x 2.128930 0.000000 0.028830 
#    y 0.000000 2.054980 0.000000 
#    z 0.028830 0.000000 2.011590 
# 
# From -- ./inp_files/98695.got.cif
#   From: 2010.05.17/outbox.cif.g08.bks.cpg/sg15_50_cif.got.tgz:98695.got - 2010.06.03 18:47:42.
