data_PCOD9275051
_publ_section_title
;
Structure prediction by ZEFSAII (Michael W. Deem and Ramdas Pophale) SiO2 
 PCOD9275051
Probable space group: C 2/C
;
_chemical_formula_sum "Si O2"
_cell_formula_units_Z 36
_cell_length_a 9.407259
_cell_length_b 18.340702
_cell_length_c 15.676905
_cell_angle_alpha 90.000000
_cell_angle_beta 43.137600
_cell_angle_gamma 90.000000
_cell_volume 1849.432539
_symmetry_space_group_name_H-M "C 2/C"
_symmetry_group_IT_number 15
_symmetry_cell_setting 'monoclinic'
loop_
_space_group_symop_operation_xyz
x,y,z
-x,y,1/2-z
-x,-y,-z
x,-y,1/2+z
1/2+x,1/2+y,z
1/2-x,1/2+y,1/2-z
1/2-x,1/2-y,-z
1/2+x,1/2-y,1/2+z
loop_
_atom_site_type_symbol
_atom_site_label
_atom_site_fract_x
_atom_site_fract_y
_atom_site_fract_z
Si Si1 0.599887 0.808507 0.613644
Si Si2 0.144411 0.068281 0.408949
Si Si3 0.746933 0.854993 0.047038
Si Si4 0.257005 0.292352 0.863935
Si Si5 0.000000 0.475661 0.250000
O O1 0.500000 0.786811 0.750000
O O2 0.750000 0.750000 0.500000
O O3 0.739817 0.880760 0.571546
O O4 0.398963 0.817460 0.641014
O O5 0.985063 0.120560 0.431608
O O6 0.331736 0.027978 0.279684
O O7 0.000000 0.000000 0.500000
O O8 0.744716 0.795433 0.123458
O O9 0.611850 0.923645 0.133954
O O10 0.671706 0.820911 0.992023
O O11 0.500000 0.312626 0.750000
#
# Coordination Sequence:
#
# PCOD9275051 Si02
#       5
#     8   8   8   8   4
#     4  12  25  43  70 102 135 176 231 288 338 405
#     4  10  21  41  66  93 131 182 218 269 340 412
#     4  10  21  39  64  98 126 171 222 270 334 399
#     4  11  23  38  68  97 133 167 223 285 338 392
#     4  10  20  38  68  86 136 178 212 258 344 408
#
# _framework density 19.465430999999999
#
# number of rings (size 3 to 8) (size 9 to 14) (size 15 to 20)
#    0.000    1.333    4.444    1.333    3.111    0.000 
#    0.000    4.444    4.889    0.000    0.000    0.000 
#    0.000    0.000    0.000    0.000    0.000    0.000 
#
# Total GULP energy -100217.127919 kJ/mol
# GULP energy per Si atom -5567.618218 kJ/mol
# Density = 1.942113 g / cm^3
# Si number density = 19.465431 Si / 1000 Ang^3
#
#
#
# Elastic Constant Matrix: (Units=GPa)
#
#
# Indices 1 2 3 4 5 6 
#
# 1 140.4909 54.7944 46.6117 0.0000 -8.9811 0.0001
# 2 54.7944 102.0465 37.5492 0.0001 -8.0980 0.0000
# 3 46.6117 37.5492 83.9168 0.0001 -16.8251 0.0001
# 4 0.0000 0.0001 0.0001 40.0943 -0.0001 -18.0004
# 5 -8.9811 -8.0980 -16.8251 -0.0001 35.1050 0.0000
# 6 0.0001 0.0000 0.0001 -18.0004 0.0000 31.1000
#
#
#
# Elastic Compliance Matrix: (Units=1/GPa)
#
#
# Indices 1 2 3 4 5 6 
#
# 1 0.009893 -0.003940 -0.003769 0.000000 -0.000184 0.000000
# 2 -0.003940 0.013301 -0.003706 0.000000 0.000284 0.000000
# 3 -0.003769 -0.003706 0.016931 0.000000 0.006295 0.000000
# 4 0.000000 0.000000 0.000000 0.033697 0.000000 0.019504
# 5 -0.000184 0.000284 0.006295 0.000000 0.031522 0.000000
# 6 0.000000 0.000000 0.000000 0.019504 0.000000 0.043443
#
#
# Mechanical properties :
#
#
# Convention : Reuss Voigt Hill
#
# Bulk Modulus (GPa) = 57.82246 67.15165 62.48705
# Shear Modulus (GPa) = 28.18753 33.75980 30.97366
#
# Velocity S-wave (km/s) = 3.80949 4.16907 3.99333
# Velocity P-wave (km/s) = 7.00852 7.59918 7.30982
#
# Compressibility (1/GPa) = 0.01729432
#
# Stress axis : x y z
#
# Youngs Moduli (GPa) = 101.07812 75.18012 59.06377
#
# Poissons Ratio (x) = 0.29621 0.22263
# Poissons Ratio (y) = 0.39824 0.21891
# Poissons Ratio (z) = 0.38099 0.27865
#
# Static dielectric constant tensor:
#      x y z
#    x 1.692480 0.000000 -0.037430 
#    y 0.000000 1.736130 0.000000 
#    z -0.037430 0.000000 1.714150 
# 
# From -- ./inp_files/76304.got.cif
#   From: 2010.05.17/outbox.cif.g08.bks.cpg/sg15_39_cif.got.tgz:76304.got - 2010.06.03 18:47:42.
