data_PCOD9275449
_publ_section_title
;
Structure prediction by ZEFSAII (Michael W. Deem and Ramdas Pophale) SiO2 
 PCOD9275449
Probable space group: C 2/C
;
_chemical_formula_sum "Si O2"
_cell_formula_units_Z 56
_cell_length_a 22.956237
_cell_length_b 18.098944
_cell_length_c 19.169668
_cell_angle_alpha 90.000000
_cell_angle_beta 160.646627
_cell_angle_gamma 90.000000
_cell_volume 2639.443833
_symmetry_space_group_name_H-M "C 2/C"
_symmetry_group_IT_number 15
_symmetry_cell_setting 'monoclinic'
loop_
_space_group_symop_operation_xyz
x,y,z
-x,y,1/2-z
-x,-y,-z
x,-y,1/2+z
1/2+x,1/2+y,z
1/2-x,1/2+y,1/2-z
1/2-x,1/2-y,-z
1/2+x,1/2-y,1/2+z
loop_
_atom_site_type_symbol
_atom_site_label
_atom_site_fract_x
_atom_site_fract_y
_atom_site_fract_z
Si Si1 0.160365 0.500483 0.778659
Si Si2 0.204408 0.152270 0.585305
Si Si3 0.927166 0.880060 0.414905
Si Si4 0.215487 0.349542 0.911003
Si Si5 0.264865 0.967440 0.799072
Si Si6 0.930072 0.276848 0.236638
Si Si7 0.952767 0.797230 0.302064
O O1 0.293362 0.568582 0.940900
O O2 0.171051 0.433780 0.844896
O O3 0.208845 0.470727 0.755546
O O4 0.961306 0.531376 0.550865
O O5 0.183782 0.147951 0.644708
O O6 0.383944 0.185923 0.757427
O O7 0.050843 0.206186 0.386906
O O8 0.932560 0.823373 0.357915
O O9 0.128352 0.902022 0.662581
O O10 0.833452 0.957261 0.288372
O O11 0.061228 0.290802 0.723611
O O12 0.298855 0.333268 0.080663
O O13 0.367321 0.326279 0.027798
O O14 0.000000 0.324937 0.250000
O O15 0.750000 0.250000 0.000000
#
# Coordination Sequence:
#
# PCOD9275449 Si02
#       7
#     8   8   8   8   8   8   8
#     4  10  20  41  63  95 128 173 221 279 329 404
#     4  10  22  39  67  95 128 169 220 267 340 408
#     4  10  20  39  61  97 126 173 215 274 336 394
#     4  10  22  41  63  90 129 176 232 266 334 383
#     4   9  20  37  62  87 136 162 209 284 339 371
#     4   9  20  43  63  89 130 164 203 275 334 397
#     4  10  22  40  61  90 131 176 219 277 316 401
#
# _framework density 21.21659
#
# number of rings (size 3 to 8) (size 9 to 14) (size 15 to 20)
#    0.000    2.286    1.429    0.000    2.000    3.429 
#   12.857    1.429    0.000    0.000    0.000    0.000 
#    0.000    0.000    0.000    0.000    0.000    0.000 
#
# Total GULP energy -156169.112424 kJ/mol
# GULP energy per Si atom -5577.468301 kJ/mol
# Density = 2.116830 g / cm^3
# Si number density = 21.216590 Si / 1000 Ang^3
#
#
#
# Elastic Constant Matrix: (Units=GPa)
#
#
# Indices 1 2 3 4 5 6 
#
# 1 112.8392 42.6406 23.6566 -0.0113 19.7441 -0.0033
# 2 42.6406 108.7230 37.4088 -0.0269 -5.1392 -0.0234
# 3 23.6566 37.4088 53.7391 -0.0180 16.9323 -0.0142
# 4 -0.0113 -0.0269 -0.0180 25.0058 -0.0109 7.8238
# 5 19.7441 -5.1392 16.9323 -0.0109 19.7972 -0.0080
# 6 -0.0033 -0.0234 -0.0142 7.8238 -0.0080 30.5365
#
#
#
# Elastic Compliance Matrix: (Units=1/GPa)
#
#
# Indices 1 2 3 4 5 6 
#
# 1 0.015193 -0.009801 0.007817 -0.000006 -0.024382 -0.000007
# 2 -0.009801 0.022228 -0.021980 0.000015 0.034344 0.000011
# 3 0.007817 -0.021980 0.047531 -0.000008 -0.054154 -0.000006
# 4 -0.000006 0.000015 -0.000008 0.043476 0.000036 -0.011139
# 5 -0.024382 0.034344 -0.054154 0.000036 0.130062 0.000023
# 6 -0.000007 0.000011 -0.000006 -0.011139 0.000023 0.035602
#
#
# Mechanical properties :
#
#
# Convention : Reuss Voigt Hill
#
# Bulk Modulus (GPa) = 27.00919 53.63481 40.32200
# Shear Modulus (GPa) = 14.10990 26.50759 20.30875
#
# Velocity S-wave (km/s) = 2.58164 3.53849 3.09724
# Velocity P-wave (km/s) = 4.65235 6.48299 5.64240
#
# Compressibility (1/GPa) = 0.03702443
#
# Stress axis : x y z
#
# Youngs Moduli (GPa) = 65.81827 44.98917 21.03885
#
# Poissons Ratio (x) = 0.44093 -0.16446
# Poissons Ratio (y) = 0.64507 0.46243
# Poissons Ratio (z) = -0.51449 0.98885
#
# Static dielectric constant tensor:
#      x y z
#    x 1.785760 -0.000540 0.021850 
#    y -0.000540 2.481520 -0.000250 
#    z 0.021850 -0.000250 1.777180 
# 
# From -- ./inp_files/255928.got.cif
#   From: 2010.05.17/outbox.cif.g08.bks.cpg/sg15_128_cif.got.tgz:255928.got - 2010.06.03 18:47:42.
