data_PCOD9275565
_publ_section_title
;
Structure prediction by ZEFSAII (Michael W. Deem and Ramdas Pophale) SiO2 
 PCOD9275565
Probable space group: C 2/C
;
_chemical_formula_sum "Si O2"
_cell_formula_units_Z 48
_cell_length_a 22.231055
_cell_length_b 10.463818
_cell_length_c 8.090180
_cell_angle_alpha 90.000000
_cell_angle_beta 82.384107
_cell_angle_gamma 90.000000
_cell_volume 1865.350493
_symmetry_space_group_name_H-M "C 2/C"
_symmetry_group_IT_number 15
_symmetry_cell_setting 'monoclinic'
loop_
_space_group_symop_operation_xyz
x,y,z
-x,y,1/2-z
-x,-y,-z
x,-y,1/2+z
1/2+x,1/2+y,z
1/2-x,1/2+y,1/2-z
1/2-x,1/2-y,-z
1/2+x,1/2-y,1/2+z
loop_
_atom_site_type_symbol
_atom_site_label
_atom_site_fract_x
_atom_site_fract_y
_atom_site_fract_z
Si Si1 0.493209 0.783527 0.571558
Si Si2 0.397787 0.350652 0.905528
Si Si3 0.741723 0.419425 0.145820
Si Si4 0.679547 0.123855 0.589909
Si Si5 0.438366 0.047433 0.669364
Si Si6 0.654485 0.592166 0.405669
O O1 0.500000 0.723195 0.750000
O O2 0.462108 0.692457 0.451647
O O3 0.553328 0.857772 0.488966
O O4 0.446166 0.901673 0.612576
O O5 0.344949 0.252426 0.987891
O O6 0.389161 0.341824 0.711518
O O7 0.384855 0.490350 0.978071
O O8 0.777214 0.339215 0.271054
O O9 0.699509 0.513257 0.269606
O O10 0.787650 0.516251 0.032338
O O11 0.698096 0.347725 0.030403
O O12 0.620347 0.065822 0.700318
O O13 0.500000 0.073992 0.750000
#
# Coordination Sequence:
#
# PCOD9275565 Si02
#       6
#     8   8   8   8   8   8
#     4  10  22  39  66  96 132 166 206 263 340 386
#     4  11  22  44  66  91 127 182 215 270 324 374
#     4   9  21  39  62 103 126 163 208 271 321 394
#     4  11  21  37  68  97 134 165 211 254 342 396
#     4  10  20  39  63 103 138 157 193 273 328 410
#     4   9  22  43  62  84 134 168 230 270 293 365
#
# _framework density 25.732430000000001
#
# number of rings (size 3 to 8) (size 9 to 14) (size 15 to 20)
#    0.000    2.000    1.667    1.000    4.667    6.667 
#    6.000    0.833    0.000    0.000    0.000    0.000 
#    0.000    0.000    0.000    0.000    0.000    0.000 
#
# Total GULP energy -134233.626792 kJ/mol
# GULP energy per Si atom -5593.067783 kJ/mol
# Density = 2.567386 g / cm^3
# Si number density = 25.732430 Si / 1000 Ang^3
#
#
#
# Elastic Constant Matrix: (Units=GPa)
#
#
# Indices 1 2 3 4 5 6 
#
# 1 95.6311 13.9429 43.8769 0.0000 23.2097 0.0000
# 2 13.9429 38.1147 2.3390 0.0000 1.5089 0.0000
# 3 43.8769 2.3390 89.2348 0.0000 25.1022 0.0000
# 4 0.0000 0.0000 0.0000 35.8259 0.0000 0.8506
# 5 23.2097 1.5089 25.1022 0.0000 56.0610 0.0000
# 6 0.0000 0.0000 0.0000 0.8506 0.0000 38.8192
#
#
#
# Elastic Compliance Matrix: (Units=1/GPa)
#
#
# Indices 1 2 3 4 5 6 
#
# 1 0.014821 -0.004911 -0.006258 0.000000 -0.003202 0.000000
# 2 -0.004911 0.027916 0.001513 0.000000 0.000604 0.000000
# 3 -0.006258 0.001513 0.015476 0.000000 -0.004379 0.000000
# 4 0.000000 0.000000 0.000000 0.027927 0.000000 -0.000612
# 5 -0.003202 0.000604 -0.004379 0.000000 0.021108 0.000000
# 6 0.000000 0.000000 0.000000 -0.000612 0.000000 0.025774
#
#
# Mechanical properties :
#
#
# Convention : Reuss Voigt Hill
#
# Bulk Modulus (GPa) = 25.70636 38.14426 31.92531
# Shear Modulus (GPa) = 30.24764 36.99600 33.62182
#
# Velocity S-wave (km/s) = 3.43223 3.79584 3.61860
# Velocity P-wave (km/s) = 5.07134 5.83668 5.46742
#
# Compressibility (1/GPa) = 0.03890088
#
# Stress axis : x y z
#
# Youngs Moduli (GPa) = 67.47036 35.82131 64.61676
#
# Poissons Ratio (x) = 0.17592 0.40439
# Poissons Ratio (y) = 0.33135 -0.09777
# Poissons Ratio (z) = 0.42225 -0.05420
#
# Static dielectric constant tensor:
#      x y z
#    x 2.053240 0.000000 0.051420 
#    y 0.000000 2.066990 0.000000 
#    z 0.051420 0.000000 2.081340 
# 
# From -- ./inp_files/60513.got.cif
#   From: 2010.05.17/outbox.cif.g08.bks.cpg/sg15_31_cif.got.tgz:60513.got - 2010.06.03 18:47:42.
