data_PCOD9275678
_publ_section_title
;
Structure prediction by ZEFSAII (Michael W. Deem and Ramdas Pophale) SiO2 
 PCOD9275678
Probable space group: C 2/C
;
_chemical_formula_sum "Si O2"
_cell_formula_units_Z 64
_cell_length_a 11.968122
_cell_length_b 9.953645
_cell_length_c 25.410105
_cell_angle_alpha 90.000000
_cell_angle_beta 100.237267
_cell_angle_gamma 90.000000
_cell_volume 2978.825868
_symmetry_space_group_name_H-M "C 2/C"
_symmetry_group_IT_number 15
_symmetry_cell_setting 'monoclinic'
loop_
_space_group_symop_operation_xyz
x,y,z
-x,y,1/2-z
-x,-y,-z
x,-y,1/2+z
1/2+x,1/2+y,z
1/2-x,1/2+y,1/2-z
1/2-x,1/2-y,-z
1/2+x,1/2-y,1/2+z
loop_
_atom_site_type_symbol
_atom_site_label
_atom_site_fract_x
_atom_site_fract_y
_atom_site_fract_z
Si Si1 0.904810 0.774461 0.776828
Si Si2 0.062354 0.143197 0.605242
Si Si3 0.338202 0.459742 0.591673
Si Si4 0.793070 0.716095 0.945111
Si Si5 0.110845 0.500052 0.250449
Si Si6 0.730161 0.417282 0.643372
Si Si7 0.272889 0.178886 0.319477
Si Si8 0.970597 0.156301 0.011903
O O1 0.948353 0.623676 0.788154
O O2 0.859230 0.846768 0.823839
O O3 0.802411 0.737150 0.728240
O O4 0.000000 0.849416 0.750000
O O5 0.114977 0.244748 0.651964
O O6 0.051160 0.215088 0.547807
O O7 0.948095 0.058917 0.609244
O O8 0.162069 0.032959 0.607825
O O9 0.236535 0.561987 0.569097
O O10 0.303104 0.370362 0.638339
O O11 0.371960 0.362297 0.546224
O O12 0.731374 0.807334 0.895697
O O13 0.923819 0.763745 0.954531
O O14 0.750000 0.750000 0.000000
O O15 0.176296 0.517927 0.311248
O O16 0.197151 0.552957 0.214050
O O17 0.000000 0.592936 0.250000
O O18 0.000000 0.000000 0.000000
#
# Coordination Sequence:
#
# PCOD9275678 Si02
#       8
#     8   8   8   8   8   8   8   8
#     4  10  21  40  63  86 123 165 206 263 316 378
#     4  11  21  41  64  92 127 166 209 260 315 374
#     4  11  23  41  66  92 128 166 209 266 311 373
#     4  12  21  38  67  94 124 170 217 260 318 384
#     4  10  23  41  57  89 129 161 204 266 318 378
#     4  11  21  37  63  90 117 169 212 253 325 374
#     4  11  24  41  62  98 123 163 218 257 313 390
#     4  10  20  39  63  94 128 166 213 259 317 376
#
# _framework density 21.484974000000001
#
# number of rings (size 3 to 8) (size 9 to 14) (size 15 to 20)
#    0.000    1.250    6.250    1.500    1.750    0.500 
#    0.000    1.250    0.000    0.000    0.000    0.000 
#    0.000    0.000    0.000    0.000    0.000    0.000 
#
# Total GULP energy -178174.102989 kJ/mol
# GULP energy per Si atom -5567.940718 kJ/mol
# Density = 2.143607 g / cm^3
# Si number density = 21.484974 Si / 1000 Ang^3
#
#
#
# Elastic Constant Matrix: (Units=GPa)
#
#
# Indices 1 2 3 4 5 6 
#
# 1 54.4235 -1.3508 12.5943 0.0000 6.7814 0.0000
# 2 -1.3508 23.9816 -0.4240 0.0000 3.2444 0.0000
# 3 12.5943 -0.4240 86.2516 0.0000 -2.3799 0.0000
# 4 0.0000 0.0000 0.0000 240.7897 0.0000 70.7321
# 5 6.7814 3.2444 -2.3799 0.0000 40.2585 0.0000
# 6 0.0000 0.0000 0.0000 70.7321 0.0000 57.2713
#
#
#
# Elastic Compliance Matrix: (Units=1/GPa)
#
#
# Indices 1 2 3 4 5 6 
#
# 1 0.019541 0.001534 -0.002945 0.000000 -0.003589 0.000000
# 2 0.001534 0.042280 -0.000118 0.000000 -0.003673 0.000000
# 3 -0.002945 -0.000118 0.012057 0.000000 0.001218 0.000000
# 4 0.000000 0.000000 0.000000 0.006518 0.000000 -0.008049
# 5 -0.003589 -0.003673 0.001218 0.000000 0.025812 0.000000
# 6 0.000000 0.000000 0.000000 -0.008049 0.000000 0.027402
#
#
# Mechanical properties :
#
#
# Convention : Reuss Voigt Hill
#
# Bulk Modulus (GPa) = 14.11997 20.69953 17.40975
# Shear Modulus (GPa) = 31.19671 77.91972 54.55821
#
# Velocity S-wave (km/s) = 3.81468 6.02875 5.04468
# Velocity P-wave (km/s) = 5.09791 7.62341 6.48479
#
# Compressibility (1/GPa) = 0.07082167
#
# Stress axis : x y z
#
# Youngs Moduli (GPa) = 51.17393 23.65192 82.93917
#
# Poissons Ratio (x) = -0.03629 0.24424
# Poissons Ratio (y) = -0.07851 0.00975
# Poissons Ratio (z) = 0.15070 0.00278
#
# Static dielectric constant tensor:
#      x y z
#    x 1.956330 0.000000 0.014620 
#    y 0.000000 2.082810 0.000000 
#    z 0.014620 0.000000 1.844740 
# 
# From -- ./inp_files/268930.got.cif
#   From: 2010.05.17/outbox.cif.g08.bks.cpg/sg15_135_cif.got.tgz:268930.got - 2010.06.03 18:47:42.
