data_PCOD9275608
_publ_section_title
;
Structure prediction by ZEFSAII (Michael W. Deem and Ramdas Pophale) SiO2 
 PCOD9275608
Probable space group: C 2/C
;
_chemical_formula_sum "Si O2"
_cell_formula_units_Z 64
_cell_length_a 13.821633
_cell_length_b 28.557220
_cell_length_c 11.084053
_cell_angle_alpha 90.000000
_cell_angle_beta 46.875560
_cell_angle_gamma 90.000000
_cell_volume 3193.153821
_symmetry_space_group_name_H-M "C 2/C"
_symmetry_group_IT_number 15
_symmetry_cell_setting 'monoclinic'
loop_
_space_group_symop_operation_xyz
x,y,z
-x,y,1/2-z
-x,-y,-z
x,-y,1/2+z
1/2+x,1/2+y,z
1/2-x,1/2+y,1/2-z
1/2-x,1/2-y,-z
1/2+x,1/2-y,1/2+z
loop_
_atom_site_type_symbol
_atom_site_label
_atom_site_fract_x
_atom_site_fract_y
_atom_site_fract_z
Si Si1 0.856038 0.208844 0.909703
Si Si2 0.995011 0.923521 0.541569
Si Si3 0.274805 0.642655 0.187561
Si Si4 0.224335 0.871446 0.210715
Si Si5 0.617478 0.214297 0.477875
Si Si6 0.176099 0.705270 0.711889
Si Si7 0.387972 0.506599 0.940731
Si Si8 0.847152 0.569527 0.403543
O O1 0.816928 0.169884 0.844695
O O2 0.000000 0.227239 0.750000
O O3 0.750000 0.250000 0.000000
O O4 0.850286 0.180982 0.040750
O O5 0.094512 0.898835 0.363961
O O6 0.085112 0.951929 0.558902
O O7 0.885030 0.885355 0.671269
O O8 0.914644 0.964111 0.539842
O O9 0.167743 0.670465 0.357167
O O10 0.206651 0.605914 0.153021
O O11 0.290042 0.845917 0.268056
O O12 0.320431 0.905218 0.053894
O O13 0.702815 0.259409 0.366164
O O14 0.651756 0.205630 0.589380
O O15 0.459767 0.221415 0.607591
O O16 0.500000 0.522013 0.750000
O O17 0.244574 0.523364 0.020876
O O18 0.000000 0.560004 0.250000
#
# Coordination Sequence:
#
# PCOD9275608 Si02
#       8
#     8   8   8   8   8   8   8   8
#     4  11  23  36  57  90 127 162 201 251 304 356
#     4  10  21  36  63  91 111 159 202 256 303 363
#     4  10  21  36  62  86 123 156 209 249 300 368
#     4  11  21  37  63  88 123 161 206 250 311 366
#     4  10  22  41  56  85 121 165 211 257 293 361
#     4  10  23  38  60  82 122 167 208 253 306 347
#     4  10  20  39  63  89 118 148 201 254 310 371
#     4  10  21  37  63  92 122 156 188 250 322 378
#
# _framework density 20.042881000000001
#
# number of rings (size 3 to 8) (size 9 to 14) (size 15 to 20)
#    0.000    1.750    2.500    1.500    1.750    6.000 
#    0.000    0.625    5.500    0.000    0.000    0.000 
#    0.000    0.000    0.000    0.000    0.000    0.000 
#
# Total GULP energy -178679.574859 kJ/mol
# GULP energy per Si atom -5583.736714 kJ/mol
# Density = 1.999726 g / cm^3
# Si number density = 20.042881 Si / 1000 Ang^3
#
#
#
# Elastic Constant Matrix: (Units=GPa)
#
#
# Indices 1 2 3 4 5 6 
#
# 1 41.8724 39.4661 28.8019 0.0000 -18.9621 0.0000
# 2 39.4661 88.5975 40.0629 0.0000 -9.2719 0.0000
# 3 28.8019 40.0629 119.2023 0.0000 -27.9750 0.0000
# 4 0.0000 0.0000 0.0000 16.5827 0.0000 5.5354
# 5 -18.9621 -9.2719 -27.9750 0.0000 31.8313 0.0000
# 6 0.0000 0.0000 0.0000 5.5354 0.0000 24.8339
#
#
#
# Elastic Compliance Matrix: (Units=1/GPa)
#
#
# Indices 1 2 3 4 5 6 
#
# 1 0.058272 -0.023150 0.000334 0.000000 0.028263 0.000000
# 2 -0.023150 0.022507 -0.004622 0.000000 -0.011297 0.000000
# 3 0.000334 -0.004622 0.012085 0.000000 0.009474 0.000000
# 4 0.000000 0.000000 0.000000 0.065151 0.000000 -0.014522
# 5 0.028263 -0.011297 0.009474 0.000000 0.053287 0.000000
# 6 0.000000 0.000000 0.000000 -0.014522 0.000000 0.043504
#
#
# Mechanical properties :
#
#
# Convention : Reuss Voigt Hill
#
# Bulk Modulus (GPa) = 26.32506 51.81490 39.06998
# Shear Modulus (GPa) = 15.51124 24.07233 19.79178
#
# Velocity S-wave (km/s) = 2.78493 3.46936 3.14582
# Velocity P-wave (km/s) = 4.84809 6.47741 5.72105
#
# Compressibility (1/GPa) = 0.03798662
#
# Stress axis : x y z
#
# Youngs Moduli (GPa) = 17.16103 44.43009 82.74574
#
# Poissons Ratio (x) = 1.02858 -0.02763
# Poissons Ratio (y) = 0.39729 0.38246
# Poissons Ratio (z) = -0.00573 0.20536
#
# Static dielectric constant tensor:
#      x y z
#    x 1.744730 0.000000 0.022220 
#    y 0.000000 1.700830 0.000000 
#    z 0.022220 0.000000 1.686750 
# 
# From -- ./inp_files/101313.got.cif
#   From: 2010.05.17/outbox.cif.g08.bks.cpg/sg15_51_cif.got.tgz:101313.got - 2010.06.03 18:47:42.
