data_PCOD9275414
_publ_section_title
;
Structure prediction by ZEFSAII (Michael W. Deem and Ramdas Pophale) SiO2 
 PCOD9275414
Probable space group: C 2/C
;
_chemical_formula_sum "Si O2"
_cell_formula_units_Z 40
_cell_length_a 10.644327
_cell_length_b 8.864703
_cell_length_c 16.312245
_cell_angle_alpha 90.000000
_cell_angle_beta 82.186801
_cell_angle_gamma 90.000000
_cell_volume 1524.914701
_symmetry_space_group_name_H-M "C 2/C"
_symmetry_group_IT_number 15
_symmetry_cell_setting 'monoclinic'
loop_
_space_group_symop_operation_xyz
x,y,z
-x,y,1/2-z
-x,-y,-z
x,-y,1/2+z
1/2+x,1/2+y,z
1/2-x,1/2+y,1/2-z
1/2-x,1/2-y,-z
1/2+x,1/2-y,1/2+z
loop_
_atom_site_type_symbol
_atom_site_label
_atom_site_fract_x
_atom_site_fract_y
_atom_site_fract_z
Si Si1 0.110989 0.623738 0.090535
Si Si2 0.316060 0.694481 0.766348
Si Si3 0.969557 0.639834 0.662378
Si Si4 0.363165 0.570376 0.997382
Si Si5 0.676453 0.606397 0.161888
O O1 0.099257 0.718059 0.175614
O O2 0.010926 0.489749 0.096722
O O3 0.110872 0.752238 0.021271
O O4 0.252619 0.552556 0.073937
O O5 0.352022 0.517944 0.764519
O O6 0.290004 0.787556 0.685701
O O7 0.175078 0.686618 0.819371
O O8 0.060818 0.783528 0.650867
O O9 0.000000 0.574373 0.750000
O O10 0.305144 0.490370 0.921701
O O11 0.500000 0.500000 0.000000
#
# Coordination Sequence:
#
# PCOD9275414 Si02
#       5
#     8   8   8   8   8
#     4  10  22  41  65  92 126 166 211 257 312 376
#     4  10  20  39  61  89 124 159 209 266 309 367
#     4  10  21  38  61  92 124 160 204 256 312 367
#     4  10  22  42  64  93 131 169 209 260 318 380
#     4  10  21  38  63  90 122 164 208 258 316 371
#
# _framework density 26.230975999999998
#
# number of rings (size 3 to 8) (size 9 to 14) (size 15 to 20)
#    0.000    2.000    0.000    3.600    0.000    2.400 
#    0.000   42.000    0.000    0.000    0.000    0.000 
#    0.000    0.000    0.000    0.000    0.000    0.000 
#
# Total GULP energy -111951.369896 kJ/mol
# GULP energy per Si atom -5597.568495 kJ/mol
# Density = 2.617127 g / cm^3
# Si number density = 26.230976 Si / 1000 Ang^3
#
#
#
# Elastic Constant Matrix: (Units=GPa)
#
#
# Indices 1 2 3 4 5 6 
#
# 1 98.0113 36.1023 3.5948 0.0000 0.1177 0.0000
# 2 36.1023 170.5971 25.5579 0.0000 -4.2858 0.0000
# 3 3.5948 25.5579 61.7943 0.0000 0.9175 0.0000
# 4 0.0000 0.0000 0.0000 40.1612 0.0000 0.3285
# 5 0.1177 -4.2858 0.9175 0.0000 35.3121 0.0000
# 6 0.0000 0.0000 0.0000 0.3285 0.0000 44.3882
#
#
#
# Elastic Compliance Matrix: (Units=1/GPa)
#
#
# Indices 1 2 3 4 5 6 
#
# 1 0.011076 -0.002406 0.000356 0.000000 -0.000338 0.000000
# 2 -0.002406 0.006796 -0.002684 0.000000 0.000903 0.000000
# 3 0.000356 -0.002684 0.017284 0.000000 -0.000776 0.000000
# 4 0.000000 0.000000 0.000000 0.024901 0.000000 -0.000184
# 5 -0.000338 0.000903 -0.000776 0.000000 0.028450 0.000000
# 6 0.000000 0.000000 0.000000 -0.000184 0.000000 0.022530
#
#
# Mechanical properties :
#
#
# Convention : Reuss Voigt Hill
#
# Bulk Modulus (GPa) = 38.92965 51.21253 45.07109
# Shear Modulus (GPa) = 38.73942 41.64882 40.19412
#
# Velocity S-wave (km/s) = 3.84716 3.98901 3.91873
# Velocity P-wave (km/s) = 5.88281 6.38610 6.13962
#
# Compressibility (1/GPa) = 0.02568736
#
# Stress axis : x y z
#
# Youngs Moduli (GPa) = 90.28170 147.15221 57.85801
#
# Poissons Ratio (x) = 0.35402 -0.02058
# Poissons Ratio (y) = 0.21720 0.15530
# Poissons Ratio (z) = -0.03211 0.39497
#
# Static dielectric constant tensor:
#      x y z
#    x 2.063610 0.000000 -0.004910 
#    y 0.000000 2.053030 0.000000 
#    z -0.004910 0.000000 2.078920 
# 
# From -- ./inp_files/235768.got.cif
#   From: 2010.05.17/outbox.cif.g08.bks.cpg/sg15_118_cif.got.tgz:235768.got - 2010.06.03 18:47:42.
