data_PCOD9275779
_publ_section_title
;
Structure prediction by ZEFSAII (Michael W. Deem and Ramdas Pophale) SiO2 
 PCOD9275779
Probable space group: C 2/C
;
_chemical_formula_sum "Si O2"
_cell_formula_units_Z 48
_cell_length_a 21.957882
_cell_length_b 19.903922
_cell_length_c 10.540779
_cell_angle_alpha 90.000000
_cell_angle_beta 32.146015
_cell_angle_gamma 90.000000
_cell_volume 2451.194224
_symmetry_space_group_name_H-M "C 2/C"
_symmetry_group_IT_number 15
_symmetry_cell_setting 'monoclinic'
loop_
_space_group_symop_operation_xyz
x,y,z
-x,y,1/2-z
-x,-y,-z
x,-y,1/2+z
1/2+x,1/2+y,z
1/2-x,1/2+y,1/2-z
1/2-x,1/2-y,-z
1/2+x,1/2-y,1/2+z
loop_
_atom_site_type_symbol
_atom_site_label
_atom_site_fract_x
_atom_site_fract_y
_atom_site_fract_z
Si Si1 0.747807 0.400847 0.210843
Si Si2 0.858016 0.795201 0.281370
Si Si3 0.772255 0.146548 0.470430
Si Si4 0.613981 0.529522 0.369445
Si Si5 0.000000 0.352700 0.750000
Si Si6 0.500000 0.362986 0.250000
Si Si7 0.433160 0.772818 0.125685
O O1 0.683745 0.361169 0.213731
O O2 0.723550 0.360285 0.383988
O O3 0.688314 0.473320 0.310125
O O4 0.883839 0.396501 0.941643
O O5 0.750000 0.750000 0.500000
O O6 0.922719 0.818339 0.294014
O O7 0.946085 0.753963 0.037895
O O8 0.807029 0.072699 0.364296
O O9 0.643591 0.171855 0.668633
O O10 0.854383 0.205060 0.268191
O O11 0.500000 0.500000 0.500000
O O12 0.574742 0.586578 0.535419
O O13 0.030605 0.306767 0.573183
#
# Coordination Sequence:
#
# PCOD9275779 Si02
#       7
#     8   8   8   8   4   4   8
#     4  11  24  41  64  95 130 173 211 263 325 388
#     4  12  24  39  69  97 123 168 219 263 326 387
#     4  10  23  39  64  95 127 166 207 272 322 372
#     4  12  23  42  65  94 131 174 220 265 323 382
#     4  10  21  42  66  90 132 171 214 258 324 399
#     4  12  25  42  66  94 132 167 218 278 310 391
#     4  10  20  39  64  94 125 164 209 269 325 374
#
# _framework density 19.582291999999999
#
# number of rings (size 3 to 8) (size 9 to 14) (size 15 to 20)
#    0.000    1.000    5.000    1.500    2.333    2.000 
#    0.000    5.000    0.000    0.000    0.000    0.000 
#    0.000    0.000    0.000    0.000    0.000    0.000 
#
# Total GULP energy -133760.017254 kJ/mol
# GULP energy per Si atom -5573.334052 kJ/mol
# Density = 1.953772 g / cm^3
# Si number density = 19.582292 Si / 1000 Ang^3
#
#
#
# Elastic Constant Matrix: (Units=GPa)
#
#
# Indices 1 2 3 4 5 6 
#
# 1 73.1096 31.1727 29.7967 0.0000 -16.6548 0.0000
# 2 31.1727 105.2811 47.2477 0.0000 -20.8184 0.0000
# 3 29.7967 47.2477 132.3959 0.0000 -24.3401 0.0000
# 4 0.0000 0.0000 0.0000 36.0148 0.0000 1.5288
# 5 -16.6548 -20.8184 -24.3401 0.0000 32.6314 0.0000
# 6 0.0000 0.0000 0.0000 1.5288 0.0000 13.4738
#
#
#
# Elastic Compliance Matrix: (Units=1/GPa)
#
#
# Indices 1 2 3 4 5 6 
#
# 1 0.016951 -0.003204 -0.001688 0.000000 0.005348 0.000000
# 2 -0.003204 0.012626 -0.003018 0.000000 0.004169 0.000000
# 3 -0.001688 -0.003018 0.009848 0.000000 0.004559 0.000000
# 4 0.000000 0.000000 0.000000 0.027901 0.000000 -0.003166
# 5 0.005348 0.004169 0.004559 0.000000 0.039435 0.000000
# 6 0.000000 0.000000 0.000000 -0.003166 0.000000 0.074577
#
#
# Mechanical properties :
#
#
# Convention : Reuss Voigt Hill
#
# Bulk Modulus (GPa) = 42.36587 58.58009 50.47298
# Shear Modulus (GPa) = 24.38712 29.92862 27.15787
#
# Velocity S-wave (km/s) = 3.53280 3.91365 3.72810
# Velocity P-wave (km/s) = 6.19053 7.09944 6.66051
#
# Compressibility (1/GPa) = 0.02360391
#
# Stress axis : x y z
#
# Youngs Moduli (GPa) = 58.99528 79.20277 101.54038
#
# Poissons Ratio (x) = 0.25374 0.17144
# Poissons Ratio (y) = 0.18900 0.30649
# Poissons Ratio (z) = 0.09960 0.23906
#
# Static dielectric constant tensor:
#      x y z
#    x 1.717070 0.000000 0.033550 
#    y 0.000000 1.518670 0.000000 
#    z 0.033550 0.000000 1.759700 
# 
# From -- ./inp_files/87302.got.cif
#   From: 2010.05.17/outbox.cif.g08.bks.cpg/sg15_44_cif.got.tgz:87302.got - 2010.06.03 18:47:42.
