data_PCOD9275636
_publ_section_title
;
Structure prediction by ZEFSAII (Michael W. Deem and Ramdas Pophale) SiO2 
 PCOD9275636
Probable space group: C 2/C
;
_chemical_formula_sum "Si O2"
_cell_formula_units_Z 32
_cell_length_a 17.702848
_cell_length_b 10.552424
_cell_length_c 10.659210
_cell_angle_alpha 90.000000
_cell_angle_beta 137.281909
_cell_angle_gamma 90.000000
_cell_volume 1350.830653
_symmetry_space_group_name_H-M "C 2/C"
_symmetry_group_IT_number 15
_symmetry_cell_setting 'monoclinic'
loop_
_space_group_symop_operation_xyz
x,y,z
-x,y,1/2-z
-x,-y,-z
x,-y,1/2+z
1/2+x,1/2+y,z
1/2-x,1/2+y,1/2-z
1/2-x,1/2-y,-z
1/2+x,1/2-y,1/2+z
loop_
_atom_site_type_symbol
_atom_site_label
_atom_site_fract_x
_atom_site_fract_y
_atom_site_fract_z
Si Si1 0.660504 0.601490 0.258116
Si Si2 0.431719 0.942431 0.799532
Si Si3 0.547685 0.340779 0.169672
Si Si4 0.633050 0.828024 0.402522
O O1 0.630679 0.454697 0.236209
O O2 0.653087 0.687847 0.374406
O O3 0.789363 0.633513 0.385095
O O4 0.562885 0.655421 0.051712
O O5 0.500000 0.930021 0.750000
O O6 0.398362 0.797149 0.778024
O O7 0.343931 0.052976 0.662854
O O8 0.500000 0.000000 0.000000
O O9 0.500000 0.363868 0.250000
O O10 0.500000 0.828289 0.250000
#
# Coordination Sequence:
#
# PCOD9275636 Si02
#       4
#     8   8   8   8
#     4  10  21  40  64  88 126 168 213 261 327 384
#     4  10  20  39  63  90 130 167 208 267 324 388
#     4  10  21  40  62  94 127 159 215 271 318 385
#     4  10  21  40  63  90 124 172 211 260 322 395
#
# _framework density 23.689128
#
# number of rings (size 3 to 8) (size 9 to 14) (size 15 to 20)
#    0.000    2.000    2.500    0.750    0.000    1.000 
#    9.000   15.000    0.000    0.000    0.000    0.000 
#    0.000    0.000    0.000    0.000    0.000    0.000 
#
# Total GULP energy -89115.037673 kJ/mol
# GULP energy per Si atom -5569.689855 kJ/mol
# Density = 2.363521 g / cm^3
# Si number density = 23.689128 Si / 1000 Ang^3
#
#
#
# Elastic Constant Matrix: (Units=GPa)
#
#
# Indices 1 2 3 4 5 6 
#
# 1 58.2085 26.1898 42.4964 0.0000 -0.0505 0.0000
# 2 26.1898 190.2686 60.8915 0.0000 6.0119 0.0000
# 3 42.4964 60.8915 153.6171 0.0000 18.9325 0.0000
# 4 0.0000 0.0000 0.0000 -31.0650 0.0000 -30.1622
# 5 -0.0505 6.0119 18.9325 0.0000 34.7177 0.0000
# 6 0.0000 0.0000 0.0000 -30.1622 0.0000 -4.7627
#
#
#
# Elastic Compliance Matrix: (Units=1/GPa)
#
#
# Indices 1 2 3 4 5 6 
#
# 1 0.022178 -0.001215 -0.006093 0.000000 0.003565 0.000000
# 2 -0.001215 0.006088 -0.002087 0.000000 0.000082 0.000000
# 3 -0.006093 -0.002087 0.009626 0.000000 -0.004897 0.000000
# 4 0.000000 0.000000 0.000000 0.006252 0.000000 -0.039593
# 5 0.003565 0.000082 -0.004897 0.000000 0.031465 0.000000
# 6 0.000000 0.000000 0.000000 -0.039593 0.000000 0.040778
#
#
# Mechanical properties :
#
#
# Convention : Reuss Voigt Hill
#
# Bulk Modulus (GPa) = 52.35277 73.47218 62.91248
# Shear Modulus (GPa) = 35.32425 17.94574 26.63499
#
# Velocity S-wave (km/s) = 3.86574 2.75535 3.35678
# Velocity P-wave (km/s) = 6.48638 6.41912 6.45284
#
# Compressibility (1/GPa) = 0.01910119
#
# Stress axis : x y z
#
# Youngs Moduli (GPa) = 45.09007 164.24639 103.88454
#
# Poissons Ratio (x) = 0.19964 0.63295
# Poissons Ratio (y) = 0.05481 0.21683
# Poissons Ratio (z) = 0.27473 0.34282
#
# Static dielectric constant tensor:
#      x y z
#    x 2.188750 0.000000 0.093610 
#    y 0.000000 1.973350 0.000000 
#    z 0.093610 0.000000 2.030290 
# 
# From -- ./inp_files/110779.got.cif
#   From: 2010.05.17/outbox.cif.g08.bks.cpg/sg15_56_cif.got.tgz:110779.got - 2010.06.03 18:47:42.
