data_PCOD9275082
_publ_section_title
;
Structure prediction by ZEFSAII (Michael W. Deem and Ramdas Pophale) SiO2 
 PCOD9275082
Probable space group: C 2/C
;
_chemical_formula_sum "Si O2"
_cell_formula_units_Z 60
_cell_length_a 20.324818
_cell_length_b 9.570233
_cell_length_c 20.857702
_cell_angle_alpha 90.000000
_cell_angle_beta 139.642291
_cell_angle_gamma 90.000000
_cell_volume 2627.205552
_symmetry_space_group_name_H-M "C 2/C"
_symmetry_group_IT_number 15
_symmetry_cell_setting 'monoclinic'
loop_
_space_group_symop_operation_xyz
x,y,z
-x,y,1/2-z
-x,-y,-z
x,-y,1/2+z
1/2+x,1/2+y,z
1/2-x,1/2+y,1/2-z
1/2-x,1/2-y,-z
1/2+x,1/2-y,1/2+z
loop_
_atom_site_type_symbol
_atom_site_label
_atom_site_fract_x
_atom_site_fract_y
_atom_site_fract_z
Si Si1 0.000000 0.939125 0.750000
Si Si2 0.827376 0.529278 0.065361
Si Si3 0.327693 0.147569 0.435734
Si Si4 0.549313 0.248819 0.609834
Si Si5 0.760411 0.636101 0.826654
Si Si6 0.541412 0.564397 0.641045
Si Si7 0.845247 0.795037 0.006531
Si Si8 0.131324 0.303737 0.307897
O O1 0.094352 0.829890 0.822317
O O2 0.018642 0.028354 0.699674
O O3 0.826779 0.423678 0.005321
O O4 0.877858 0.673472 0.079879
O O5 0.876551 0.446645 0.160069
O O6 0.715363 0.581861 0.003339
O O7 0.442353 0.190705 0.505212
O O8 0.248604 0.274648 0.377531
O O9 0.282978 0.027120 0.356926
O O10 0.648702 0.193524 0.648429
O O11 0.548000 0.416046 0.611256
O O12 0.563596 0.200420 0.694246
O O13 0.647614 0.644553 0.715251
O O14 0.769974 0.719736 0.900642
O O15 0.444757 0.649545 0.545663
#
# Coordination Sequence:
#
# PCOD9275082 Si02
#       8
#     4   8   8   8   8   8   8   8
#     4  10  20  38  68  94 128 168 214 272 346 406
#     4  10  21  39  64 102 138 162 222 274 337 404
#     4  11  21  43  67  96 132 172 215 281 338 385
#     4  11  25  42  70  94 128 183 227 268 328 402
#     4  11  25  46  63  97 134 175 227 274 327 394
#     4  11  23  45  68  94 132 178 219 273 343 397
#     4  10  24  42  63  97 134 180 213 276 341 396
#     4  11  21  40  66 103 131 171 219 277 330 402
#
# _framework density 22.837955000000001
#
# number of rings (size 3 to 8) (size 9 to 14) (size 15 to 20)
#    0.000    1.333    2.667    4.000    3.733    2.667 
#   14.400    0.000    0.000    0.000    0.000    0.000 
#    0.000    0.000    0.000    0.000    0.000    0.000 
#
# Total GULP energy -167880.981357 kJ/mol
# GULP energy per Si atom -5596.032712 kJ/mol
# Density = 2.278598 g / cm^3
# Si number density = 22.837955 Si / 1000 Ang^3
#
#
#
# Elastic Constant Matrix: (Units=GPa)
#
#
# Indices 1 2 3 4 5 6 
#
# 1 75.7138 3.3868 9.7628 0.0000 22.0950 0.0000
# 2 3.3868 57.2975 25.9572 0.0000 3.2743 0.0000
# 3 9.7628 25.9572 48.4787 0.0000 21.8637 0.0000
# 4 0.0000 0.0000 0.0000 23.4499 0.0000 7.6823
# 5 22.0950 3.2743 21.8637 0.0000 33.3719 0.0000
# 6 0.0000 0.0000 0.0000 7.6823 0.0000 15.6330
#
#
#
# Elastic Compliance Matrix: (Units=1/GPa)
#
#
# Indices 1 2 3 4 5 6 
#
# 1 0.016686 -0.001862 0.003600 0.000000 -0.013223 0.000000
# 2 -0.001862 0.024976 -0.017669 0.000000 0.010358 0.000000
# 3 0.003600 -0.017669 0.042094 0.000000 -0.028228 0.000000
# 4 0.000000 0.000000 0.000000 0.050827 0.000000 -0.024977
# 5 -0.013223 0.010358 -0.028228 0.000000 0.056198 0.000000
# 6 0.000000 0.000000 0.000000 -0.024977 0.000000 0.076241
#
#
# Mechanical properties :
#
#
# Convention : Reuss Voigt Hill
#
# Bulk Modulus (GPa) = 19.27014 28.85597 24.06306
# Shear Modulus (GPa) = 15.81374 23.98318 19.89846
#
# Velocity S-wave (km/s) = 2.63427 3.24411 2.95496
# Velocity P-wave (km/s) = 4.20815 5.16671 4.71187
#
# Compressibility (1/GPa) = 0.05189376
#
# Stress axis : x y z
#
# Youngs Moduli (GPa) = 59.93212 40.03914 23.75619
#
# Poissons Ratio (x) = 0.07454 -0.08553
# Poissons Ratio (y) = 0.11157 0.41976
# Poissons Ratio (z) = -0.21577 0.70747
#
# Static dielectric constant tensor:
#      x y z
#    x 1.890350 0.000000 -0.021090 
#    y 0.000000 1.800410 0.000000 
#    z -0.021090 0.000000 1.847100 
# 
# From -- ./inp_files/279723.got.cif
#   From: 2010.05.17/outbox.cif.g08.bks.cpg/sg15_140_cif.got.tgz:279723.got - 2010.06.03 18:47:42.
