data_PCOD9275824
_publ_section_title
;
Structure prediction by ZEFSAII (Michael W. Deem and Ramdas Pophale) SiO2 
 PCOD9275824
Probable space group: C 2/C
;
_chemical_formula_sum "Si O2"
_cell_formula_units_Z 36
_cell_length_a 16.724283
_cell_length_b 7.429952
_cell_length_c 13.973048
_cell_angle_alpha 90.000000
_cell_angle_beta 52.397194
_cell_angle_gamma 90.000000
_cell_volume 1375.600312
_symmetry_space_group_name_H-M "C 2/C"
_symmetry_group_IT_number 15
_symmetry_cell_setting 'monoclinic'
loop_
_space_group_symop_operation_xyz
x,y,z
-x,y,1/2-z
-x,-y,-z
x,-y,1/2+z
1/2+x,1/2+y,z
1/2-x,1/2+y,1/2-z
1/2-x,1/2-y,-z
1/2+x,1/2-y,1/2+z
loop_
_atom_site_type_symbol
_atom_site_label
_atom_site_fract_x
_atom_site_fract_y
_atom_site_fract_z
Si Si1 0.655342 0.548697 0.368859
Si Si2 0.384873 0.824290 0.701084
Si Si3 0.000000 0.440876 0.750000
Si Si4 0.103506 0.207295 0.214994
Si Si5 0.343983 0.621996 0.918884
O O1 0.626936 0.348720 0.355888
O O2 0.777079 0.577876 0.275460
O O3 0.610918 0.684578 0.322841
O O4 0.617942 0.579835 0.503382
O O5 0.490866 0.921184 0.633381
O O6 0.405981 0.747125 0.797899
O O7 0.096163 0.593157 0.681948
O O8 0.000000 0.119004 0.250000
O O9 0.182724 0.065237 0.113813
O O10 0.250000 0.750000 0.000000
#
# Coordination Sequence:
#
# PCOD9275824 Si02
#       5
#     8   8   4   8   8
#     4  10  20  39  65  86 119 166 208 248 316 372
#     4  10  21  39  62  88 123 164 206 254 313 367
#     4  10  22  40  56  88 132 162 200 260 302 360
#     4   9  21  39  61  87 130 158 204 254 310 354
#     4   9  20  39  64  95 119 158 211 258 303 374
#
# _framework density 26.170394999999999
#
# number of rings (size 3 to 8) (size 9 to 14) (size 15 to 20)
#    0.667    1.778    0.000    1.333    6.222    0.889 
#    0.000   24.444    0.000    0.000    0.000    0.000 
#    0.000    0.000    0.000    0.000    0.000    0.000 
#
# Total GULP energy -100202.147408 kJ/mol
# GULP energy per Si atom -5566.785967 kJ/mol
# Density = 2.611083 g / cm^3
# Si number density = 26.170395 Si / 1000 Ang^3
#
#
#
# Elastic Constant Matrix: (Units=GPa)
#
#
# Indices 1 2 3 4 5 6 
#
# 1 147.0162 32.6839 21.6829 -0.0001 38.0684 0.0001
# 2 32.6839 166.6897 27.3768 -0.0002 23.0548 0.0002
# 3 21.6829 27.3768 79.5547 0.0000 37.2023 0.0000
# 4 -0.0001 -0.0002 0.0000 13.2064 0.0000 2.4042
# 5 38.0684 23.0548 37.2023 0.0000 51.8923 0.0000
# 6 0.0001 0.0002 0.0000 2.4042 0.0000 61.1244
#
#
#
# Elastic Compliance Matrix: (Units=1/GPa)
#
#
# Indices 1 2 3 4 5 6 
#
# 1 0.008574 -0.000941 0.001102 0.000000 -0.006662 0.000000
# 2 -0.000941 0.006587 -0.001451 0.000000 -0.001196 0.000000
# 3 0.001102 -0.001451 0.019324 0.000000 -0.014018 0.000000
# 4 0.000000 0.000000 0.000000 0.076267 0.000000 -0.003000
# 5 -0.006662 -0.001196 -0.014018 0.000000 0.034739 0.000000
# 6 0.000000 0.000000 0.000000 -0.003000 0.000000 0.016478
#
#
# Mechanical properties :
#
#
# Convention : Reuss Voigt Hill
#
# Bulk Modulus (GPa) = 31.34219 61.86087 46.60153
# Shear Modulus (GPa) = 28.54160 46.01244 37.27702
#
# Velocity S-wave (km/s) = 3.30602 4.19762 3.77821
# Velocity P-wave (km/s) = 5.15511 6.86895 6.07279
#
# Compressibility (1/GPa) = 0.03190588
#
# Stress axis : x y z
#
# Youngs Moduli (GPa) = 116.63753 151.80507 51.74928
#
# Poissons Ratio (x) = 0.14280 -0.05704
# Poissons Ratio (y) = 0.10972 0.07509
# Poissons Ratio (z) = -0.12857 0.22028
#
# Static dielectric constant tensor:
#      x y z
#    x 2.275870 0.000000 -0.021390 
#    y 0.000000 2.251150 0.000000 
#    z -0.021390 0.000000 2.202970 
# 
# From -- ./inp_files/158636.got.cif
#   From: 2010.05.17/outbox.cif.g08.bks.cpg/sg15_80_cif.got.tgz:158636.got - 2010.06.03 18:47:42.
