data_PCOD9275317
_publ_section_title
;
Structure prediction by ZEFSAII (Michael W. Deem and Ramdas Pophale) SiO2 
 PCOD9275317
Probable space group: C 2/C
;
_chemical_formula_sum "Si O2"
_cell_formula_units_Z 64
_cell_length_a 13.685948
_cell_length_b 19.370281
_cell_length_c 19.466749
_cell_angle_alpha 90.000000
_cell_angle_beta 40.107127
_cell_angle_gamma 90.000000
_cell_volume 3324.586309
_symmetry_space_group_name_H-M "C 2/C"
_symmetry_group_IT_number 15
_symmetry_cell_setting 'monoclinic'
loop_
_space_group_symop_operation_xyz
x,y,z
-x,y,1/2-z
-x,-y,-z
x,-y,1/2+z
1/2+x,1/2+y,z
1/2-x,1/2+y,1/2-z
1/2-x,1/2-y,-z
1/2+x,1/2-y,1/2+z
loop_
_atom_site_type_symbol
_atom_site_label
_atom_site_fract_x
_atom_site_fract_y
_atom_site_fract_z
Si Si1 0.129710 0.031787 0.477973
Si Si2 0.174217 0.678433 0.514224
Si Si3 0.534885 0.663609 0.946729
Si Si4 0.391785 0.751058 0.139380
Si Si5 0.113576 0.835913 0.253442
Si Si6 0.574756 0.508470 0.783474
Si Si7 0.677774 0.090315 0.641467
Si Si8 0.653770 0.357636 0.713654
O O1 0.109451 0.111903 0.474059
O O2 0.062738 0.016042 0.588962
O O3 0.281727 0.990908 0.380507
O O4 0.000000 0.000000 0.500000
O O5 0.250000 0.750000 0.500000
O O6 0.220160 0.619892 0.543519
O O7 0.221378 0.658194 0.411697
O O8 0.994762 0.689577 0.617140
O O9 0.541339 0.687672 0.864896
O O10 0.697664 0.627123 0.875945
O O11 0.503283 0.715957 0.024433
O O12 0.255761 0.785729 0.171242
O O13 0.347702 0.697677 0.223599
O O14 0.158193 0.917161 0.240690
O O15 0.000000 0.832650 0.250000
O O16 0.500000 0.504755 0.750000
O O17 0.659765 0.434880 0.743314
O O18 0.500000 0.102436 0.750000
O O19 0.500000 0.351124 0.750000
#
# Coordination Sequence:
#
# PCOD9275317 Si02
#       8
#     8   8   8   8   8   8   8   8
#     4   9  18  34  56  82 112 154 197 239 286 351
#     4  12  23  34  54  91 130 153 186 234 305 373
#     4  10  20  39  60  85 117 158 205 245 297 361
#     4  12  23  37  61  89 123 160 197 247 308 369
#     4  10  23  41  62  84 111 157 213 259 296 341
#     4   9  18  36  62  84 109 151 206 250 294 352
#     4  11  21  34  56  89 127 157 188 239 302 363
#     4  11  20  35  60  88 121 155 196 239 299 376
#
# _framework density 19.250516000000001
#
# number of rings (size 3 to 8) (size 9 to 14) (size 15 to 20)
#    0.000    1.500    2.500    4.500    1.750    0.500 
#    0.000    1.250    0.000   16.500    0.000    0.000 
#    0.000    0.000    0.000    0.000    0.000    0.000 
#
# Total GULP energy -178253.708631 kJ/mol
# GULP energy per Si atom -5570.428395 kJ/mol
# Density = 1.920670 g / cm^3
# Si number density = 19.250516 Si / 1000 Ang^3
#
#
#
# Elastic Constant Matrix: (Units=GPa)
#
#
# Indices 1 2 3 4 5 6 
#
# 1 96.7995 32.2788 33.1385 0.0000 4.5664 0.0001
# 2 32.2788 71.8917 23.8050 0.0000 -13.8657 0.0001
# 3 33.1385 23.8050 62.3414 -0.0003 2.9906 0.0001
# 4 0.0000 0.0000 -0.0003 24.1896 0.0001 -2.2070
# 5 4.5664 -13.8657 2.9906 0.0001 31.5195 -0.0001
# 6 0.0001 0.0001 0.0001 -2.2070 -0.0001 28.3924
#
#
#
# Elastic Compliance Matrix: (Units=1/GPa)
#
#
# Indices 1 2 3 4 5 6 
#
# 1 0.014097 -0.005335 -0.005270 0.000000 -0.003889 0.000000
# 2 -0.005335 0.019997 -0.005283 0.000000 0.010071 0.000000
# 3 -0.005270 -0.005283 0.021030 0.000000 -0.003556 0.000000
# 4 0.000000 0.000000 0.000000 0.041635 0.000000 0.003236
# 5 -0.003889 0.010071 -0.003556 0.000000 0.037057 0.000000
# 6 0.000000 0.000000 0.000000 0.003236 0.000000 0.035472
#
#
# Mechanical properties :
#
#
# Convention : Reuss Voigt Hill
#
# Bulk Modulus (GPa) = 42.82944 45.49746 44.16345
# Shear Modulus (GPa) = 23.94099 26.27433 25.10766
#
# Velocity S-wave (km/s) = 3.53037 3.69841 3.61537
# Velocity P-wave (km/s) = 6.23817 6.47483 6.35760
#
# Compressibility (1/GPa) = 0.02334843
#
# Stress axis : x y z
#
# Youngs Moduli (GPa) = 70.93666 50.00829 47.55111
#
# Poissons Ratio (x) = 0.26677 0.25059
# Poissons Ratio (y) = 0.37841 0.25122
# Poissons Ratio (z) = 0.37383 0.26420
#
# Static dielectric constant tensor:
#      x y z
#    x 1.654080 0.000000 -0.013620 
#    y 0.000000 1.733530 0.000000 
#    z -0.013620 0.000000 1.698970 
# 
# From -- ./inp_files/200378.got.cif
#   From: 2010.05.17/outbox.cif.g08.bks.cpg/sg15_101_cif.got.tgz:200378.got - 2010.06.03 18:47:42.
