data_PCOD9275957
_publ_section_title
;
Structure prediction by ZEFSAII (Michael W. Deem and Ramdas Pophale) SiO2 
 PCOD9275957
Probable space group: C 2/C
;
_chemical_formula_sum "Si O2"
_cell_formula_units_Z 60
_cell_length_a 6.949960
_cell_length_b 24.008203
_cell_length_c 21.709276
_cell_angle_alpha 90.000000
_cell_angle_beta 52.873846
_cell_angle_gamma 90.000000
_cell_volume 2888.109748
_symmetry_space_group_name_H-M "C 2/C"
_symmetry_group_IT_number 15
_symmetry_cell_setting 'monoclinic'
loop_
_space_group_symop_operation_xyz
x,y,z
-x,y,1/2-z
-x,-y,-z
x,-y,1/2+z
1/2+x,1/2+y,z
1/2-x,1/2+y,1/2-z
1/2-x,1/2-y,-z
1/2+x,1/2-y,1/2+z
loop_
_atom_site_type_symbol
_atom_site_label
_atom_site_fract_x
_atom_site_fract_y
_atom_site_fract_z
Si Si1 0.753334 0.277583 0.193761
Si Si2 0.000000 0.433305 0.750000
Si Si3 0.881737 0.837493 0.706713
Si Si4 0.233712 0.353518 0.967563
Si Si5 0.772176 0.345985 0.384499
Si Si6 0.258326 0.481919 0.972574
Si Si7 0.241260 0.525499 0.622451
Si Si8 0.731635 0.295660 0.056928
O O1 0.500000 0.309716 0.250000
O O2 0.732807 0.219906 0.234757
O O3 0.772385 0.269425 0.116452
O O4 0.988087 0.309902 0.171988
O O5 0.218556 0.391010 0.722692
O O6 0.077082 0.476735 0.681992
O O7 0.000000 0.845985 0.750000
O O8 0.085201 0.825278 0.615435
O O9 0.287930 0.418256 0.947866
O O10 0.277070 0.342051 0.031721
O O11 0.956740 0.338184 0.006400
O O12 0.826993 0.410040 0.356153
O O13 0.530534 0.324193 0.398311
O O14 0.486211 0.516928 0.905439
O O15 0.251624 0.484168 0.047552
O O16 0.000000 0.500000 0.000000
O O17 0.750000 0.250000 0.000000
#
# Coordination Sequence:
#
# PCOD9275957 Si02
#       8
#     8   4   8   8   8   8   8   8
#     4  11  26  43  63 100 133 171 228 272 333 408
#     4  12  26  44  62 102 138 174 230 270 336 402
#     4  12  27  43  66  96 137 180 217 274 337 399
#     4  10  22  41  63  99 127 165 227 274 319 405
#     4  10  23  44  70  97 132 173 222 281 338 391
#     4  10  20  39  66  91 126 172 222 266 321 390
#     4  10  23  41  64  97 130 175 218 275 330 394
#     4  11  23  40  69  98 130 178 222 276 337 391
#
# _framework density 20.774834999999999
#
# number of rings (size 3 to 8) (size 9 to 14) (size 15 to 20)
#    0.000    1.333    2.000    2.400    5.600    4.267 
#    0.000    0.667    0.000    0.000    0.000    0.000 
#    0.000    0.000    0.000    0.000    0.000    0.000 
#
# Total GULP energy -167556.399198 kJ/mol
# GULP energy per Si atom -5585.213307 kJ/mol
# Density = 2.072755 g / cm^3
# Si number density = 20.774835 Si / 1000 Ang^3
#
#
#
# Elastic Constant Matrix: (Units=GPa)
#
#
# Indices 1 2 3 4 5 6 
#
# 1 142.4805 52.4927 33.3272 0.0000 -15.0983 0.0000
# 2 52.4927 115.3912 37.7632 0.0000 -2.7732 0.0000
# 3 33.3272 37.7632 47.4546 0.0000 -17.3705 0.0000
# 4 0.0000 0.0000 0.0000 -333.1852 0.0000 -139.3925
# 5 -15.0983 -2.7732 -17.3705 0.0000 31.6262 0.0000
# 6 0.0000 0.0000 0.0000 -139.3925 0.0000 -13.6805
#
#
#
# Elastic Compliance Matrix: (Units=1/GPa)
#
#
# Indices 1 2 3 4 5 6 
#
# 1 0.009130 -0.003089 -0.003076 0.000000 0.002398 0.000000
# 2 -0.003089 0.013466 -0.010832 0.000000 -0.006243 0.000000
# 3 -0.003076 -0.010832 0.038760 0.000000 0.018871 0.000000
# 4 0.000000 0.000000 0.000000 0.000920 0.000000 -0.009373
# 5 0.002398 -0.006243 0.018871 0.000000 0.042582 0.000000
# 6 0.000000 0.000000 0.000000 -0.009373 0.000000 0.022403
#
#
# Mechanical properties :
#
#
# Convention : Reuss Voigt Hill
#
# Bulk Modulus (GPa) = 36.54607 61.38806 48.96706
# Shear Modulus (GPa) = 29.34671 -50.93171 -10.79250
#
# Velocity S-wave (km/s) = 3.76255 -4.95674 -2.28172
# Velocity P-wave (km/s) = 6.04197 1.77360 4.08410
#
# Compressibility (1/GPa) = 0.02736273
#
# Stress axis : x y z
#
# Youngs Moduli (GPa) = 109.52584 74.25927 25.79956
#
# Poissons Ratio (x) = 0.22940 0.07936
# Poissons Ratio (y) = 0.33835 0.27946
# Poissons Ratio (z) = 0.33689 0.80438
#
# Static dielectric constant tensor:
#      x y z
#    x 1.734660 0.000000 -0.018880 
#    y 0.000000 1.712850 0.000000 
#    z -0.018880 0.000000 1.807890 
# 
# From -- ./inp_files/228605.got.cif
#   From: 2010.05.17/outbox.cif.g08.bks.cpg/sg15_115_cif.got.tgz:228605.got - 2010.06.03 18:47:42.
