data_PCOD9275257
_publ_section_title
;
Structure prediction by ZEFSAII (Michael W. Deem and Ramdas Pophale) SiO2 
 PCOD9275257
Probable space group: C 2/C
;
_chemical_formula_sum "Si O2"
_cell_formula_units_Z 60
_cell_length_a 16.384857
_cell_length_b 8.892717
_cell_length_c 18.292795
_cell_angle_alpha 90.000000
_cell_angle_beta 81.940059
_cell_angle_gamma 90.000000
_cell_volume 2639.039396
_symmetry_space_group_name_H-M "C 2/C"
_symmetry_group_IT_number 15
_symmetry_cell_setting 'monoclinic'
loop_
_space_group_symop_operation_xyz
x,y,z
-x,y,1/2-z
-x,-y,-z
x,-y,1/2+z
1/2+x,1/2+y,z
1/2-x,1/2+y,1/2-z
1/2-x,1/2-y,-z
1/2+x,1/2-y,1/2+z
loop_
_atom_site_type_symbol
_atom_site_label
_atom_site_fract_x
_atom_site_fract_y
_atom_site_fract_z
Si Si1 0.373163 0.455172 0.432287
Si Si2 0.731612 0.360712 0.673854
Si Si3 0.034852 0.108452 0.824511
Si Si4 0.729628 0.193838 0.097119
Si Si5 0.000000 0.635380 0.750000
Si Si6 0.785808 0.129624 0.553035
Si Si7 0.379044 0.690573 0.174797
Si Si8 0.126717 0.610748 0.248474
O O1 0.324274 0.545162 0.374570
O O2 0.461527 0.404052 0.392123
O O3 0.316346 0.308166 0.450646
O O4 0.367901 0.563078 0.503672
O O5 0.779085 0.226205 0.627178
O O6 0.672897 0.299272 0.744242
O O7 0.803031 0.452347 0.706439
O O8 0.070052 0.273268 0.801504
O O9 0.000000 0.055683 0.750000
O O10 0.102657 0.986202 0.837870
O O11 0.820774 0.238487 0.115240
O O12 0.672571 0.197620 0.177762
O O13 0.732001 0.020708 0.071501
O O14 0.965015 0.728786 0.685231
O O15 0.926482 0.521980 0.778755
O O16 0.750000 0.250000 0.500000
#
# Coordination Sequence:
#
# PCOD9275257 Si02
#       8
#     8   8   8   8   4   8   8   8
#     4  11  21  38  62  86 123 163 203 248 301 376
#     4  10  20  39  58  87 118 157 206 246 301 353
#     4  12  20  38  57  90 121 158 199 246 314 362
#     4  11  21  39  60  90 115 155 209 250 300 350
#     4  12  20  32  50  94 122 148 182 242 324 346
#     4  10  23  39  62  89 123 166 206 248 297 368
#     4  11  22  35  62  88 123 153 197 260 301 360
#     4  11  22  35  61  88 122 152 195 263 304 353
#
# _framework density 22.735547
#
# number of rings (size 3 to 8) (size 9 to 14) (size 15 to 20)
#    0.000    1.067    4.000    2.800    0.000    5.333 
#    0.000    2.667    0.000    0.000    0.000   23.333 
#    0.000    0.000    0.000    0.000    0.000    0.000 
#
# Total GULP energy -167538.468796 kJ/mol
# GULP energy per Si atom -5584.615627 kJ/mol
# Density = 2.268380 g / cm^3
# Si number density = 22.735547 Si / 1000 Ang^3
#
#
#
# Elastic Constant Matrix: (Units=GPa)
#
#
# Indices 1 2 3 4 5 6 
#
# 1 98.3632 43.8140 33.7084 0.0000 2.8545 0.0000
# 2 43.8140 109.1800 29.1747 0.0000 -1.7335 0.0000
# 3 33.7084 29.1747 93.3935 0.0000 -8.9567 0.0000
# 4 0.0000 0.0000 0.0000 36.4959 0.0000 2.9716
# 5 2.8545 -1.7335 -8.9567 0.0000 34.6397 0.0000
# 6 0.0000 0.0000 0.0000 2.9716 0.0000 28.3798
#
#
#
# Elastic Compliance Matrix: (Units=1/GPa)
#
#
# Indices 1 2 3 4 5 6 
#
# 1 0.013486 -0.004461 -0.003693 0.000000 -0.002290 0.000000
# 2 -0.004461 0.011473 -0.001931 0.000000 0.000442 0.000000
# 3 -0.003693 -0.001931 0.012986 0.000000 0.003565 0.000000
# 4 0.000000 0.000000 0.000000 0.027636 0.000000 -0.002894
# 5 -0.002290 0.000442 0.003565 0.000000 0.030001 0.000000
# 6 0.000000 0.000000 0.000000 -0.002894 0.000000 0.035539
#
#
# Mechanical properties :
#
#
# Convention : Reuss Voigt Hill
#
# Bulk Modulus (GPa) = 56.26739 57.14787 56.70763
# Shear Modulus (GPa) = 31.80336 32.85241 32.32788
#
# Velocity S-wave (km/s) = 3.74416 3.80541 3.77491
# Velocity P-wave (km/s) = 6.59500 6.67073 6.63298
#
# Compressibility (1/GPa) = 0.01777228
#
# Stress axis : x y z
#
# Youngs Moduli (GPa) = 74.15257 87.16445 77.00827
#
# Poissons Ratio (x) = 0.38886 0.28442
# Poissons Ratio (y) = 0.33081 0.14872
# Poissons Ratio (z) = 0.27387 0.16833
#
# Static dielectric constant tensor:
#      x y z
#    x 1.902240 0.000000 0.013940 
#    y 0.000000 1.877310 0.000000 
#    z 0.013940 0.000000 1.870220 
# 
# From -- ./inp_files/247415.got.cif
#   From: 2010.05.17/outbox.cif.g08.bks.cpg/sg15_124_cif.got.tgz:247415.got - 2010.06.03 18:47:42.
