data_PCOD9275055
_publ_section_title
;
Structure prediction by ZEFSAII (Michael W. Deem and Ramdas Pophale) SiO2 
 PCOD9275055
Probable space group: C 2/C
;
_chemical_formula_sum "Si O2"
_cell_formula_units_Z 52
_cell_length_a 13.494638
_cell_length_b 12.080415
_cell_length_c 16.540386
_cell_angle_alpha 90.000000
_cell_angle_beta 127.137088
_cell_angle_gamma 90.000000
_cell_volume 2149.573867
_symmetry_space_group_name_H-M "C 2/C"
_symmetry_group_IT_number 15
_symmetry_cell_setting 'monoclinic'
loop_
_space_group_symop_operation_xyz
x,y,z
-x,y,1/2-z
-x,-y,-z
x,-y,1/2+z
1/2+x,1/2+y,z
1/2-x,1/2+y,1/2-z
1/2-x,1/2-y,-z
1/2+x,1/2-y,1/2+z
loop_
_atom_site_type_symbol
_atom_site_label
_atom_site_fract_x
_atom_site_fract_y
_atom_site_fract_z
Si Si1 0.000000 0.445759 0.750000
Si Si2 0.581697 0.290272 0.911630
Si Si3 0.790614 0.340348 0.453359
Si Si4 0.048554 0.289586 0.618950
Si Si5 0.172186 0.151608 0.274054
Si Si6 0.290801 0.935060 0.053776
Si Si7 0.605070 0.588878 0.737760
O O1 0.024177 0.366624 0.685515
O O2 0.121650 0.519493 0.830838
O O3 0.433745 0.295965 0.834868
O O4 0.626632 0.327136 0.843365
O O5 0.630689 0.166032 0.945994
O O6 0.657084 0.377568 0.004657
O O7 0.750000 0.250000 0.500000
O O8 0.774334 0.461910 0.485030
O O9 0.702370 0.333590 0.332841
O O10 0.935448 0.322515 0.505629
O O11 0.188648 0.306590 0.661851
O O12 0.038482 0.161206 0.637819
O O13 0.172368 0.023214 0.248585
O O14 0.500000 0.555997 0.750000
#
# Coordination Sequence:
#
# PCOD9275055 Si02
#       7
#     4   8   8   8   8   8   8
#     4  10  20  40  60  86 130 164 214 274 324 370
#     4  10  21  40  64  92 130 168 215 263 331 390
#     4  11  21  39  68  93 123 173 223 266 327 386
#     4  11  25  40  64  97 126 170 221 272 326 387
#     4  11  23  41  65  97 128 172 221 269 325 398
#     4  10  20  38  68  88 125 171 211 266 332 379
#     4  12  20  42  69  90 131 174 218 268 326 391
#
# _framework density 24.190840999999999
#
# number of rings (size 3 to 8) (size 9 to 14) (size 15 to 20)
#    0.000    1.231    5.385    1.846    0.000    4.308 
#    5.538    0.769    0.000    0.000    0.000    0.000 
#    0.000    0.000    0.000    0.000    0.000    0.000 
#
# Total GULP energy -145494.428403 kJ/mol
# GULP energy per Si atom -5595.939554 kJ/mol
# Density = 2.413578 g / cm^3
# Si number density = 24.190841 Si / 1000 Ang^3
#
#
#
# Elastic Constant Matrix: (Units=GPa)
#
#
# Indices 1 2 3 4 5 6 
#
# 1 67.2269 10.1202 27.7618 0.0000 21.1708 0.0000
# 2 10.1202 134.1885 15.7299 0.0000 -0.5405 0.0000
# 3 27.7618 15.7299 133.6298 0.0000 20.5675 0.0000
# 4 0.0000 0.0000 0.0000 48.5584 0.0000 6.8178
# 5 21.1708 -0.5405 20.5675 0.0000 42.6440 0.0000
# 6 0.0000 0.0000 0.0000 6.8178 0.0000 -3.4243
#
#
#
# Elastic Compliance Matrix: (Units=1/GPa)
#
#
# Indices 1 2 3 4 5 6 
#
# 1 0.018612 -0.001144 -0.002493 0.000000 -0.008053 0.000000
# 2 -0.001144 0.007639 -0.000825 0.000000 0.001063 0.000000
# 3 -0.002493 -0.000825 0.008544 0.000000 -0.002894 0.000000
# 4 0.000000 0.000000 0.000000 0.016095 0.000000 0.032044
# 5 -0.008053 0.001063 -0.002894 0.000000 0.028857 0.000000
# 6 0.000000 0.000000 0.000000 0.032044 0.000000 -0.228231
#
#
# Mechanical properties :
#
#
# Convention : Reuss Voigt Hill
#
# Bulk Modulus (GPa) = 38.65180 49.14098 43.89639
# Shear Modulus (GPa) = -38.18651 36.31784 -0.93434
#
# Velocity S-wave (km/s) = -3.97741 3.87887 -0.62215
# Velocity P-wave (km/s) = 2.25400 6.35758 4.20347
#
# Compressibility (1/GPa) = 0.02587202
#
# Stress axis : x y z
#
# Youngs Moduli (GPa) = 53.72744 130.89883 117.04491
#
# Poissons Ratio (x) = 0.14974 0.29176
# Poissons Ratio (y) = 0.06146 0.09658
# Poissons Ratio (z) = 0.13393 0.10801
#
# Static dielectric constant tensor:
#      x y z
#    x 1.960330 0.000000 -0.023640 
#    y 0.000000 1.891150 0.000000 
#    z -0.023640 0.000000 1.969230 
# 
# From -- ./inp_files/273903.got.cif
#   From: 2010.05.17/outbox.cif.g08.bks.cpg/sg15_137_cif.got.tgz:273903.got - 2010.06.03 18:47:42.
