data_PCOD9275405
_publ_section_title
;
Structure prediction by ZEFSAII (Michael W. Deem and Ramdas Pophale) SiO2 
 PCOD9275405
Probable space group: C 2/C
;
_chemical_formula_sum "Si O2"
_cell_formula_units_Z 56
_cell_length_a 33.126787
_cell_length_b 14.176766
_cell_length_c 13.373826
_cell_angle_alpha 90.000000
_cell_angle_beta 27.099437
_cell_angle_gamma 90.000000
_cell_volume 2861.113003
_symmetry_space_group_name_H-M "C 2/C"
_symmetry_group_IT_number 15
_symmetry_cell_setting 'monoclinic'
loop_
_space_group_symop_operation_xyz
x,y,z
-x,y,1/2-z
-x,-y,-z
x,-y,1/2+z
1/2+x,1/2+y,z
1/2-x,1/2+y,1/2-z
1/2-x,1/2-y,-z
1/2+x,1/2-y,1/2+z
loop_
_atom_site_type_symbol
_atom_site_label
_atom_site_fract_x
_atom_site_fract_y
_atom_site_fract_z
Si Si1 0.124549 0.991260 0.818091
Si Si2 0.033693 0.138456 0.890106
Si Si3 0.509292 0.156037 0.028738
Si Si4 0.510178 0.969221 0.114488
Si Si5 0.326699 0.598634 0.091383
Si Si6 0.714119 0.010791 0.688024
Si Si7 0.191865 0.721488 0.725238
O O1 0.143882 0.976913 0.890883
O O2 0.216083 0.996318 0.556095
O O3 0.069335 0.082517 0.907389
O O4 0.064711 0.902270 0.913417
O O5 0.093379 0.111147 0.663065
O O6 0.043999 0.250016 0.877966
O O7 0.468604 0.073440 0.187798
O O8 0.527431 0.101632 0.884973
O O9 0.594370 0.197104 0.898239
O O10 0.500000 0.937599 0.250000
O O11 0.615699 0.985651 0.867799
O O12 0.244671 0.558942 0.208566
O O13 0.308400 0.694618 0.193512
O O14 0.720791 0.120359 0.705812
O O15 0.250000 0.750000 0.500000
#
# Coordination Sequence:
#
# PCOD9275405 Si02
#       7
#     8   8   8   8   8   8   8
#     4  10  20  39  61  87 124 154 193 258 304 362
#     4  10  21  38  62  93 118 154 206 247 309 364
#     4  10  22  40  62  88 118 161 206 255 295 362
#     4  10  24  40  61  86 123 165 205 254 302 357
#     4  11  22  37  64  91 124 161 201 254 303 377
#     4  10  23  40  57  92 121 157 205 249 308 356
#     4  11  21  38  64  87 119 165 206 246 302 365
#
# _framework density 19.572803
#
# number of rings (size 3 to 8) (size 9 to 14) (size 15 to 20)
#    0.000    1.714    2.857    0.429    6.000    1.143 
#    2.571    4.286    0.000    0.000    0.000    0.000 
#    0.000    0.000    0.000    0.000    0.000    0.000 
#
# Total GULP energy -156209.109030 kJ/mol
# GULP energy per Si atom -5578.896751 kJ/mol
# Density = 1.952825 g / cm^3
# Si number density = 19.572803 Si / 1000 Ang^3
#
#
#
# Elastic Constant Matrix: (Units=GPa)
#
#
# Indices 1 2 3 4 5 6 
#
# 1 75.4523 60.0666 2.1185 0.0000 14.8788 0.0000
# 2 60.0666 112.4614 11.3404 0.0000 4.0870 0.0000
# 3 2.1185 11.3404 35.7260 0.0000 -0.2193 0.0000
# 4 0.0000 0.0000 0.0000 15.1446 0.0000 5.1751
# 5 14.8788 4.0870 -0.2193 0.0000 24.2374 0.0000
# 6 0.0000 0.0000 0.0000 5.1751 0.0000 40.6482
#
#
#
# Elastic Compliance Matrix: (Units=1/GPa)
#
#
# Indices 1 2 3 4 5 6 
#
# 1 0.027546 -0.014478 0.002873 0.000000 -0.014443 0.000000
# 2 -0.014478 0.016856 -0.004455 0.000000 0.006005 0.000000
# 3 0.002873 -0.004455 0.029230 0.000000 -0.000748 0.000000
# 4 0.000000 0.000000 0.000000 0.069033 0.000000 -0.008789
# 5 -0.014443 0.006005 -0.000748 0.000000 0.049105 0.000000
# 6 0.000000 0.000000 0.000000 -0.008789 0.000000 0.025720
#
#
# Mechanical properties :
#
#
# Convention : Reuss Voigt Hill
#
# Bulk Modulus (GPa) = 24.08856 41.18784 32.63820
# Shear Modulus (GPa) = 18.97918 26.01367 22.49642
#
# Velocity S-wave (km/s) = 3.11733 3.64960 3.39392
# Velocity P-wave (km/s) = 5.02900 6.23286 5.66301
#
# Compressibility (1/GPa) = 0.04151348
#
# Stress axis : x y z
#
# Youngs Moduli (GPa) = 36.30273 59.32776 34.21142
#
# Poissons Ratio (x) = 0.85892 -0.09831
# Poissons Ratio (y) = 0.52557 0.15241
# Poissons Ratio (z) = -0.10432 0.26431
#
# Static dielectric constant tensor:
#      x y z
#    x 1.665960 0.000000 -0.018760 
#    y 0.000000 1.720000 0.000000 
#    z -0.018760 0.000000 1.703110 
# 
# From -- ./inp_files/126979.got.cif
#   From: 2010.05.17/outbox.cif.g08.bks.cpg/sg15_64_cif.got.tgz:126979.got - 2010.06.03 18:47:42.
