data_PCOD9275978
_publ_section_title
;
Structure prediction by ZEFSAII (Michael W. Deem and Ramdas Pophale) SiO2 
 PCOD9275978
Probable space group: C 2/C
;
_chemical_formula_sum "Si O2"
_cell_formula_units_Z 36
_cell_length_a 15.352153
_cell_length_b 6.602855
_cell_length_c 20.526942
_cell_angle_alpha 90.000000
_cell_angle_beta 129.811121
_cell_angle_gamma 90.000000
_cell_volume 1598.367272
_symmetry_space_group_name_H-M "C 2/C"
_symmetry_group_IT_number 15
_symmetry_cell_setting 'monoclinic'
loop_
_space_group_symop_operation_xyz
x,y,z
-x,y,1/2-z
-x,-y,-z
x,-y,1/2+z
1/2+x,1/2+y,z
1/2-x,1/2+y,1/2-z
1/2-x,1/2-y,-z
1/2+x,1/2-y,1/2+z
loop_
_atom_site_type_symbol
_atom_site_label
_atom_site_fract_x
_atom_site_fract_y
_atom_site_fract_z
Si Si1 0.645751 0.466788 0.122987
Si Si2 0.626014 0.112214 0.206373
Si Si3 0.769425 0.827630 0.582662
Si Si4 0.885267 0.618079 0.930325
Si Si5 0.000000 0.653190 0.750000
O O1 0.600770 0.332898 0.162551
O O2 0.756384 0.594939 0.199103
O O3 0.692381 0.311917 0.092309
O O4 0.579675 0.648657 0.057487
O O5 0.536413 0.999414 0.209420
O O6 0.645863 0.965844 0.155124
O O7 0.750000 0.750000 0.500000
O O8 0.896279 0.789376 0.671889
O O9 0.715206 0.050685 0.568619
O O10 0.000000 0.500000 0.000000
#
# Coordination Sequence:
#
# PCOD9275978 Si02
#       5
#     8   8   8   8   4
#     4  10  21  40  69  90 128 181 227 273 338 406
#     4  10  20  39  66  94 128 171 229 278 334 410
#     4  10  23  43  64 100 138 176 229 287 342 414
#     4  11  23  41  66  95 134 180 224 281 338 413
#     4  10  22  42  70 104 138 178 230 296 354 402
#
# _framework density 22.522984000000001
#
# number of rings (size 3 to 8) (size 9 to 14) (size 15 to 20)
#    0.000    1.778    2.222    1.333    0.000    4.444 
#    0.000   16.667    0.000    0.000    0.000    0.000 
#    0.000    0.000    0.000    0.000    0.000    0.000 
#
# Total GULP energy -100381.803717 kJ/mol
# GULP energy per Si atom -5576.766873 kJ/mol
# Density = 2.247172 g / cm^3
# Si number density = 22.522984 Si / 1000 Ang^3
#
#
#
# Elastic Constant Matrix: (Units=GPa)
#
#
# Indices 1 2 3 4 5 6 
#
# 1 97.1219 40.2881 43.3567 0.0000 -1.3032 0.0000
# 2 40.2881 147.1006 29.6242 0.0000 8.4474 0.0000
# 3 43.3567 29.6242 88.8962 0.0000 -6.1465 0.0000
# 4 0.0000 0.0000 0.0000 35.4902 0.0000 7.6750
# 5 -1.3032 8.4474 -6.1465 0.0000 46.5848 0.0000
# 6 0.0000 0.0000 0.0000 7.6750 0.0000 20.8829
#
#
#
# Elastic Compliance Matrix: (Units=1/GPa)
#
#
# Indices 1 2 3 4 5 6 
#
# 1 0.014063 -0.002655 -0.005968 0.000000 0.000087 0.000000
# 2 -0.002655 0.007917 -0.001461 0.000000 -0.001703 0.000000
# 3 -0.005968 -0.001461 0.014789 0.000000 0.002049 0.000000
# 4 0.000000 0.000000 0.000000 0.030610 0.000000 -0.011250
# 5 0.000087 -0.001703 0.002049 0.000000 0.022048 0.000000
# 6 0.000000 0.000000 0.000000 -0.011250 0.000000 0.052021
#
#
# Mechanical properties :
#
#
# Convention : Reuss Voigt Hill
#
# Bulk Modulus (GPa) = 60.23954 62.18409 61.21181
# Shear Modulus (GPa) = 29.91347 35.24822 32.58085
#
# Velocity S-wave (km/s) = 3.64831 3.96029 3.80749
# Velocity P-wave (km/s) = 6.67463 6.97000 6.82392
#
# Compressibility (1/GPa) = 0.01660039
#
# Stress axis : x y z
#
# Youngs Moduli (GPa) = 71.10857 126.30697 67.61993
#
# Poissons Ratio (x) = 0.33531 0.40356
# Poissons Ratio (y) = 0.18877 0.09882
# Poissons Ratio (z) = 0.42439 0.18458
#
# Static dielectric constant tensor:
#      x y z
#    x 1.778000 0.000000 -0.039030 
#    y 0.000000 1.896840 0.000000 
#    z -0.039030 0.000000 1.783850 
# 
# From -- ./inp_files/207925.got.cif
#   From: 2010.05.17/outbox.cif.g08.bks.cpg/sg15_104_cif.got.tgz:207925.got - 2010.06.03 18:47:42.
