data_PCOD9275233
_publ_section_title
;
Structure prediction by ZEFSAII (Michael W. Deem and Ramdas Pophale) SiO2 
 PCOD9275233
Probable space group: C 2/C
;
_chemical_formula_sum "Si O2"
_cell_formula_units_Z 48
_cell_length_a 21.993098
_cell_length_b 18.939231
_cell_length_c 17.889542
_cell_angle_alpha 90.000000
_cell_angle_beta 162.582171
_cell_angle_gamma 90.000000
_cell_volume 2230.536885
_symmetry_space_group_name_H-M "C 2/C"
_symmetry_group_IT_number 15
_symmetry_cell_setting 'monoclinic'
loop_
_space_group_symop_operation_xyz
x,y,z
-x,y,1/2-z
-x,-y,-z
x,-y,1/2+z
1/2+x,1/2+y,z
1/2-x,1/2+y,1/2-z
1/2-x,1/2-y,-z
1/2+x,1/2-y,1/2+z
loop_
_atom_site_type_symbol
_atom_site_label
_atom_site_fract_x
_atom_site_fract_y
_atom_site_fract_z
Si Si1 0.459369 0.665178 0.861514
Si Si2 0.262867 0.509622 0.996971
Si Si3 0.485631 0.496680 0.395393
Si Si4 0.888800 0.564801 0.825332
Si Si5 0.413865 0.809938 0.463685
Si Si6 0.815697 0.654929 0.091889
O O1 0.537948 0.585621 0.942394
O O2 0.268882 0.662186 0.696987
O O3 0.376268 0.681855 0.680275
O O4 0.605304 0.725348 0.066001
O O5 0.500000 0.516942 0.250000
O O6 0.283372 0.515752 0.111184
O O7 0.117568 0.554959 0.772231
O O8 0.204615 0.428364 0.917628
O O9 0.500000 0.500000 0.500000
O O10 0.654677 0.551107 0.568864
O O11 0.937492 0.640060 0.919608
O O12 0.000000 0.500000 0.000000
O O13 0.621766 0.815160 0.755202
O O14 0.000000 0.665221 0.250000
#
# Coordination Sequence:
#
# PCOD9275233 Si02
#       6
#     8   8   8   8   8   8
#     4  10  22  34  53  79 113 149 185 230 282 341
#     4   9  19  32  54  82 109 143 183 230 276 326
#     4  10  20  39  57  81 108 146 187 234 289 324
#     4  11  21  34  56  85 112 146 191 230 272 336
#     4  11  21  34  52  80 115 150 183 225 284 337
#     4   9  18  33  50  78 114 147 178 224 279 342
#
# _framework density 21.519483000000001
#
# number of rings (size 3 to 8) (size 9 to 14) (size 15 to 20)
#    0.000    2.000    3.333    0.500    2.333    1.333 
#    0.000    2.500    0.000    1.000    0.000    0.000 
#    0.000    0.000    0.000    0.000    0.000    0.000 
#
# Total GULP energy -133718.802775 kJ/mol
# GULP energy per Si atom -5571.616782 kJ/mol
# Density = 2.147050 g / cm^3
# Si number density = 21.519483 Si / 1000 Ang^3
#
#
#
# Elastic Constant Matrix: (Units=GPa)
#
#
# Indices 1 2 3 4 5 6 
#
# 1 85.2059 25.0604 37.9036 0.0009 -29.7061 0.0010
# 2 25.0604 112.0787 52.0052 0.0001 -27.7372 0.0001
# 3 37.9036 52.0052 64.3924 0.0018 -39.6942 0.0024
# 4 0.0009 0.0001 0.0018 35.4073 0.0012 -6.4656
# 5 -29.7061 -27.7372 -39.6942 0.0012 46.7982 0.0015
# 6 0.0010 0.0001 0.0024 -6.4656 0.0015 28.8060
#
#
#
# Elastic Compliance Matrix: (Units=1/GPa)
#
#
# Indices 1 2 3 4 5 6 
#
# 1 0.016441 0.001027 -0.007752 0.000000 0.004470 0.000000
# 2 0.001027 0.014506 -0.013871 0.000001 -0.002516 0.000001
# 3 -0.007752 -0.013871 0.048611 -0.000004 0.028090 -0.000006
# 4 0.000000 0.000001 -0.000004 0.029450 -0.000004 0.006610
# 5 0.004470 -0.002516 0.028090 -0.000004 0.046541 -0.000006
# 6 0.000000 0.000001 -0.000006 0.006610 -0.000006 0.036199
#
#
# Mechanical properties :
#
#
# Convention : Reuss Voigt Hill
#
# Bulk Modulus (GPa) = 26.06383 54.62394 40.34388
# Shear Modulus (GPa) = 20.34769 31.98283 26.16526
#
# Velocity S-wave (km/s) = 3.07831 3.85934 3.49074
# Velocity P-wave (km/s) = 4.97722 6.73038 5.91906
#
# Compressibility (1/GPa) = 0.03836735
#
# Stress axis : x y z
#
# Youngs Moduli (GPa) = 60.82381 68.93551 20.57137
#
# Poissons Ratio (x) = -0.07079 0.15946
# Poissons Ratio (y) = -0.06246 0.28534
# Poissons Ratio (z) = 0.47148 0.95620
#
# Static dielectric constant tensor:
#      x y z
#    x 2.011970 0.000000 -0.023920 
#    y 0.000000 1.852010 0.000010 
#    z -0.023920 0.000010 1.879540 
# 
# From -- ./inp_files/39590.got.cif
#   From: 2010.05.17/outbox.cif.g08.bks.cpg/sg15_20_cif.got.tgz:39590.got - 2010.06.03 18:47:42.
