data_PCOD9275073
_publ_section_title
;
Structure prediction by ZEFSAII (Michael W. Deem and Ramdas Pophale) SiO2 
 PCOD9275073
Probable space group: C 2/C
;
_chemical_formula_sum "Si O2"
_cell_formula_units_Z 56
_cell_length_a 18.581661
_cell_length_b 17.191383
_cell_length_c 14.855896
_cell_angle_alpha 90.000000
_cell_angle_beta 149.640864
_cell_angle_gamma 90.000000
_cell_volume 2398.530896
_symmetry_space_group_name_H-M "C 2/C"
_symmetry_group_IT_number 15
_symmetry_cell_setting 'monoclinic'
loop_
_space_group_symop_operation_xyz
x,y,z
-x,y,1/2-z
-x,-y,-z
x,-y,1/2+z
1/2+x,1/2+y,z
1/2-x,1/2+y,1/2-z
1/2-x,1/2-y,-z
1/2+x,1/2-y,1/2+z
loop_
_atom_site_type_symbol
_atom_site_label
_atom_site_fract_x
_atom_site_fract_y
_atom_site_fract_z
Si Si1 0.374122 0.243663 0.512679
Si Si2 0.820807 0.973840 0.247224
Si Si3 0.334022 0.451622 0.075341
Si Si4 0.909477 0.576057 0.874710
Si Si5 0.902904 0.745368 0.887677
Si Si6 0.872042 0.904650 0.929417
Si Si7 0.776633 0.620617 0.547790
O O1 0.265784 0.249403 0.311625
O O2 0.527548 0.258564 0.635663
O O3 0.325916 0.314796 0.521438
O O4 0.351141 0.165151 0.545274
O O5 0.758308 0.933584 0.089092
O O6 0.748346 0.933273 0.253994
O O7 0.986931 0.957844 0.412308
O O8 0.802566 0.063627 0.261042
O O9 0.500000 0.426821 0.250000
O O10 0.280601 0.421336 0.920683
O O11 0.318852 0.544539 0.070214
O O12 0.958398 0.658864 0.968865
O O13 0.886939 0.590478 0.744175
O O14 0.000000 0.500000 0.000000
O O15 0.928173 0.817204 0.980323
#
# Coordination Sequence:
#
# PCOD9275073 Si02
#       7
#     8   8   8   8   8   8   8
#     4  10  24  37  62  99 134 175 211 276 342 406
#     4  10  21  40  60  94 126 167 217 279 325 394
#     4  10  21  34  65  96 120 165 215 274 321 388
#     4  11  25  42  59  89 136 176 220 261 343 416
#     4  11  24  41  65  97 132 178 221 278 344 408
#     4  10  20  38  68  92 127 169 223 275 337 391
#     4  10  21  39  58  92 136 162 218 264 332 408
#
# _framework density 23.347626000000002
#
# number of rings (size 3 to 8) (size 9 to 14) (size 15 to 20)
#    0.000    1.714    1.429    2.571   10.000    4.571 
#    0.000    0.714    0.000    3.429    0.000    0.000 
#    0.000    0.000    0.000    0.000    0.000    0.000 
#
# Total GULP energy -155885.634819 kJ/mol
# GULP energy per Si atom -5567.344101 kJ/mol
# Density = 2.329449 g / cm^3
# Si number density = 23.347626 Si / 1000 Ang^3
#
#
#
# Elastic Constant Matrix: (Units=GPa)
#
#
# Indices 1 2 3 4 5 6 
#
# 1 87.4057 25.3672 12.6446 0.0000 -19.7405 0.0000
# 2 25.3672 119.7337 8.9440 0.0000 -16.4037 0.0000
# 3 12.6446 8.9440 44.3705 0.0000 -11.9664 0.0000
# 4 0.0000 0.0000 0.0000 31.0810 0.0000 -2.8630
# 5 -19.7405 -16.4037 -11.9664 0.0000 34.0808 0.0000
# 6 0.0000 0.0000 0.0000 -2.8630 0.0000 35.8059
#
#
#
# Elastic Compliance Matrix: (Units=1/GPa)
#
#
# Indices 1 2 3 4 5 6 
#
# 1 0.013693 -0.001891 -0.001798 0.000000 0.006390 0.000000
# 2 -0.001891 0.009223 -0.000462 0.000000 0.003181 0.000000
# 3 -0.001798 -0.000462 0.025187 0.000000 0.007580 0.000000
# 4 0.000000 0.000000 0.000000 0.032413 0.000000 0.002592
# 5 0.006390 0.003181 0.007580 0.000000 0.037236 0.000000
# 6 0.000000 0.000000 0.000000 0.002592 0.000000 0.028136
#
#
# Mechanical properties :
#
#
# Convention : Reuss Voigt Hill
#
# Bulk Modulus (GPa) = 25.12506 38.38018 31.75262
# Shear Modulus (GPa) = 29.85844 33.83046 31.84445
#
# Velocity S-wave (km/s) = 3.58000 3.81069 3.69714
# Velocity P-wave (km/s) = 5.27951 5.98632 5.64399
#
# Compressibility (1/GPa) = 0.03980089
#
# Stress axis : x y z
#
# Youngs Moduli (GPa) = 73.02994 108.42519 39.70264
#
# Poissons Ratio (x) = 0.20507 0.07137
# Poissons Ratio (y) = 0.13812 0.01835
# Poissons Ratio (z) = 0.13128 0.05011
#
# Static dielectric constant tensor:
#      x y z
#    x 1.907630 0.000000 -0.120810 
#    y 0.000000 1.949680 0.000000 
#    z -0.120810 0.000000 2.075830 
# 
# From -- ./inp_files/163095.got.cif
#   From: 2010.05.17/outbox.cif.g08.bks.cpg/sg15_82_cif.got.tgz:163095.got - 2010.06.03 18:47:42.
