data_PCOD9275983
_publ_section_title
;
Structure prediction by ZEFSAII (Michael W. Deem and Ramdas Pophale) SiO2 
 PCOD9275983
Probable space group: C 2/C
;
_chemical_formula_sum "Si O2"
_cell_formula_units_Z 32
_cell_length_a 7.505698
_cell_length_b 17.276819
_cell_length_c 11.235926
_cell_angle_alpha 90.000000
_cell_angle_beta 68.426465
_cell_angle_gamma 90.000000
_cell_volume 1354.945006
_symmetry_space_group_name_H-M "C 2/C"
_symmetry_group_IT_number 15
_symmetry_cell_setting 'monoclinic'
loop_
_space_group_symop_operation_xyz
x,y,z
-x,y,1/2-z
-x,-y,-z
x,-y,1/2+z
1/2+x,1/2+y,z
1/2-x,1/2+y,1/2-z
1/2-x,1/2-y,-z
1/2+x,1/2-y,1/2+z
loop_
_atom_site_type_symbol
_atom_site_label
_atom_site_fract_x
_atom_site_fract_y
_atom_site_fract_z
Si Si1 0.777989 0.135240 0.111934
Si Si2 0.500000 0.252315 0.250000
Si Si3 0.812146 0.184064 0.580367
Si Si4 0.000000 0.073429 0.250000
Si Si5 0.802488 0.476816 0.486598
O O1 0.607059 0.193796 0.133907
O O2 0.841060 0.129846 0.233280
O O3 0.967484 0.161520 0.999331
O O4 0.731577 0.047316 0.093530
O O5 0.665853 0.295261 0.284738
O O6 0.750000 0.250000 0.500000
O O7 0.694178 0.106262 0.579084
O O8 0.121846 0.026043 0.123060
O O9 0.000000 0.500000 0.500000
#
# Coordination Sequence:
#
# PCOD9275983 Si02
#       5
#     8   4   8   4   8
#     4  11  23  43  66  93 131 173 222 276 333 411
#     4  12  24  43  68  97 134 180 218 280 348 395
#     4  11  24  43  66  98 135 174 225 281 338 404
#     4  10  20  39  66  95 126 168 216 280 336 383
#     4  11  24  43  68  98 132 175 227 277 335 414
#
# _framework density 23.617194000000001
#
# number of rings (size 3 to 8) (size 9 to 14) (size 15 to 20)
#    0.000    1.000    0.000    9.750    0.000    4.000 
#    0.000    7.500    0.000    0.000    0.000    0.000 
#    0.000    0.000    0.000    0.000    0.000    0.000 
#
# Total GULP energy -89352.092032 kJ/mol
# GULP energy per Si atom -5584.505752 kJ/mol
# Density = 2.356344 g / cm^3
# Si number density = 23.617194 Si / 1000 Ang^3
#
#
#
# Elastic Constant Matrix: (Units=GPa)
#
#
# Indices 1 2 3 4 5 6 
#
# 1 123.1783 59.8788 8.9091 0.0000 14.3657 0.0000
# 2 59.8788 173.1636 26.8250 0.0000 27.3031 0.0000
# 3 8.9091 26.8250 40.5350 0.0000 17.4710 0.0000
# 4 0.0000 0.0000 0.0000 -26.6746 0.0000 -93.5977
# 5 14.3657 27.3031 17.4710 0.0000 39.7856 0.0000
# 6 0.0000 0.0000 0.0000 -93.5977 0.0000 -94.2314
#
#
#
# Elastic Compliance Matrix: (Units=1/GPa)
#
#
# Indices 1 2 3 4 5 6 
#
# 1 0.009839 -0.003253 0.000690 0.000000 -0.001623 0.000000
# 2 -0.003253 0.007845 -0.003284 0.000000 -0.002767 0.000000
# 3 0.000690 -0.003284 0.031857 0.000000 -0.011985 0.000000
# 4 0.000000 0.000000 0.000000 0.015084 0.000000 -0.014983
# 5 -0.001623 -0.002767 -0.011985 0.000000 0.032882 0.000000
# 6 0.000000 0.000000 0.000000 -0.014983 0.000000 0.004270
#
#
# Mechanical properties :
#
#
# Convention : Reuss Voigt Hill
#
# Bulk Modulus (GPa) = 26.42238 58.67808 42.55023
# Shear Modulus (GPa) = 39.65482 -0.13980 19.75751
#
# Velocity S-wave (km/s) = 4.10209 -0.24356 2.89550
# Velocity P-wave (km/s) = 5.80071 4.98200 5.40687
#
# Compressibility (1/GPa) = 0.03784670
#
# Stress axis : x y z
#
# Youngs Moduli (GPa) = 101.63449 127.47275 31.39007
#
# Poissons Ratio (x) = 0.41471 -0.02166
# Poissons Ratio (y) = 0.33065 0.10308
# Poissons Ratio (z) = -0.07013 0.41861
#
# Static dielectric constant tensor:
#      x y z
#    x 2.160620 0.000000 0.222960 
#    y 0.000000 2.132410 0.000000 
#    z 0.222960 0.000000 2.145400 
# 
# From -- ./inp_files/75556.got.cif
#   From: 2010.05.17/outbox.cif.g08.bks.cpg/sg15_38_cif.got.tgz:75556.got - 2010.06.03 18:47:42.
