data_PCOD9275452
_publ_section_title
;
Structure prediction by ZEFSAII (Michael W. Deem and Ramdas Pophale) SiO2 
 PCOD9275452
Probable space group: C 2/C
;
_chemical_formula_sum "Si O2"
_cell_formula_units_Z 64
_cell_length_a 19.181996
_cell_length_b 30.115962
_cell_length_c 9.583107
_cell_angle_alpha 90.000000
_cell_angle_beta 140.424944
_cell_angle_gamma 90.000000
_cell_volume 3526.928275
_symmetry_space_group_name_H-M "C 2/C"
_symmetry_group_IT_number 15
_symmetry_cell_setting 'monoclinic'
loop_
_space_group_symop_operation_xyz
x,y,z
-x,y,1/2-z
-x,-y,-z
x,-y,1/2+z
1/2+x,1/2+y,z
1/2-x,1/2+y,1/2-z
1/2-x,1/2-y,-z
1/2+x,1/2-y,1/2+z
loop_
_atom_site_type_symbol
_atom_site_label
_atom_site_fract_x
_atom_site_fract_y
_atom_site_fract_z
Si Si1 0.326008 0.870986 0.371239
Si Si2 0.091598 0.207511 0.773436
Si Si3 0.097813 0.469084 0.597557
Si Si4 0.299937 0.034355 0.953056
Si Si5 0.506750 0.129580 0.921477
Si Si6 0.844655 0.309052 0.661923
Si Si7 0.548375 0.538930 0.480783
Si Si8 0.933108 0.861555 0.508022
O O1 0.351420 0.918893 0.480809
O O2 0.393450 0.867731 0.332904
O O3 0.356139 0.832446 0.528048
O O4 0.195145 0.867750 0.151581
O O5 0.106911 0.259601 0.764683
O O6 0.058234 0.177431 0.590484
O O7 0.000000 0.201873 0.750000
O O8 0.215685 0.192234 0.001003
O O9 0.141723 0.492351 0.526416
O O10 0.052494 0.420327 0.501378
O O11 0.000000 0.500000 0.500000
O O12 0.187499 0.467678 0.860724
O O13 0.178233 0.034241 0.702960
O O14 0.500000 0.142204 0.750000
O O15 0.590597 0.161190 0.130098
O O16 0.500000 0.534055 0.250000
O O17 0.500000 0.500000 0.500000
O O18 0.525731 0.590503 0.485919
O O19 0.000000 0.851426 0.750000
#
# Coordination Sequence:
#
# PCOD9275452 Si02
#       8
#     8   8   8   8   8   8   8   8
#     4  10  20  39  62  80 115 166 198 238 303 366
#     4  10  21  40  66  94 118 152 206 253 298 360
#     4  12  23  36  54  85 118 157 200 247 297 356
#     4  11  22  37  58  80 118 158 199 247 300 351
#     4  12  24  37  56  89 121 153 202 251 300 356
#     4  10  22  41  64  89 120 161 199 243 307 370
#     4  10  21  40  59  85 116 158 204 244 292 358
#     4   9  21  39  61  88 120 158 198 245 307 360
#
# _framework density 18.146101000000002
#
# number of rings (size 3 to 8) (size 9 to 14) (size 15 to 20)
#    0.000    1.500    2.500    3.000    0.000    2.000 
#    2.250    0.000    0.000    6.000    0.000    0.000 
#    0.000    0.000    0.000    0.000    0.000    0.000 
#
# Total GULP energy -178639.832379 kJ/mol
# GULP energy per Si atom -5582.494762 kJ/mol
# Density = 1.810480 g / cm^3
# Si number density = 18.146101 Si / 1000 Ang^3
#
#
#
# Elastic Constant Matrix: (Units=GPa)
#
#
# Indices 1 2 3 4 5 6 
#
# 1 105.0609 63.7573 34.3802 0.0000 -6.7730 0.0000
# 2 63.7573 130.5104 53.6663 0.0000 -3.8466 0.0000
# 3 34.3802 53.6663 99.0978 0.0000 -13.3681 0.0000
# 4 0.0000 0.0000 0.0000 30.5085 0.0000 -1.2353
# 5 -6.7730 -3.8466 -13.3681 0.0000 21.3044 0.0000
# 6 0.0000 0.0000 0.0000 -1.2353 0.0000 24.0999
#
#
#
# Elastic Compliance Matrix: (Units=1/GPa)
#
#
# Indices 1 2 3 4 5 6 
#
# 1 0.013819 -0.006236 -0.001067 0.000000 0.002598 0.000000
# 2 -0.006236 0.012729 -0.005121 0.000000 -0.002897 0.000000
# 3 -0.001067 -0.005121 0.014272 0.000000 0.007692 0.000000
# 4 0.000000 0.000000 0.000000 0.032846 0.000000 0.001684
# 5 0.002598 -0.002897 0.007692 0.000000 0.052068 0.000000
# 6 0.000000 0.000000 0.000000 0.001684 0.000000 0.041580
#
#
# Mechanical properties :
#
#
# Convention : Reuss Voigt Hill
#
# Bulk Modulus (GPa) = 62.60516 70.91964 66.76240
# Shear Modulus (GPa) = 25.31844 27.37359 26.34602
#
# Velocity S-wave (km/s) = 3.73936 3.88817 3.81449
# Velocity P-wave (km/s) = 7.29516 7.70224 7.50146
#
# Compressibility (1/GPa) = 0.01597312
#
# Stress axis : x y z
#
# Youngs Moduli (GPa) = 72.36375 78.56231 70.06777
#
# Poissons Ratio (x) = 0.48989 0.07476
# Poissons Ratio (y) = 0.45123 0.35880
# Poissons Ratio (z) = 0.07721 0.40230
#
# Static dielectric constant tensor:
#      x y z
#    x 1.593540 0.000000 0.007940 
#    y 0.000000 1.618410 0.000000 
#    z 0.007940 0.000000 1.610540 
# 
# From -- ./inp_files/52858.got.cif
#   From: 2010.05.17/outbox.cif.g08.bks.cpg/sg15_27_cif.got.tgz:52858.got - 2010.06.03 18:47:42.
