data_PCOD9275090
_publ_section_title
;
Structure prediction by ZEFSAII (Michael W. Deem and Ramdas Pophale) SiO2 
 PCOD9275090
Probable space group: C 2/C
;
_chemical_formula_sum "Si O2"
_cell_formula_units_Z 44
_cell_length_a 11.871045
_cell_length_b 16.405702
_cell_length_c 10.120070
_cell_angle_alpha 90.000000
_cell_angle_beta 113.584321
_cell_angle_gamma 90.000000
_cell_volume 1806.286376
_symmetry_space_group_name_H-M "C 2/C"
_symmetry_group_IT_number 15
_symmetry_cell_setting 'monoclinic'
loop_
_space_group_symop_operation_xyz
x,y,z
-x,y,1/2-z
-x,-y,-z
x,-y,1/2+z
1/2+x,1/2+y,z
1/2-x,1/2+y,1/2-z
1/2-x,1/2-y,-z
1/2+x,1/2-y,1/2+z
loop_
_atom_site_type_symbol
_atom_site_label
_atom_site_fract_x
_atom_site_fract_y
_atom_site_fract_z
Si Si1 0.144122 0.338136 0.666944
Si Si2 0.057111 0.167696 0.548763
Si Si3 0.212187 0.156159 0.002918
Si Si4 0.084526 0.551011 0.442131
Si Si5 0.195315 0.603779 0.894119
Si Si6 0.000000 0.262772 0.250000
O O1 0.124371 0.241792 0.654671
O O2 0.235002 0.362566 0.825676
O O3 0.191910 0.368468 0.547282
O O4 0.008705 0.374873 0.625267
O O5 0.163195 0.101441 0.580646
O O6 0.932735 0.144136 0.563750
O O7 0.019912 0.207843 0.389031
O O8 0.250000 0.250000 0.000000
O O9 0.290719 0.094232 0.949553
O O10 0.128803 0.483490 0.356860
O O11 0.000000 0.500000 0.500000
O O12 0.114691 0.674910 0.787853
#
# Coordination Sequence:
#
# PCOD9275090 Si02
#       6
#     8   8   8   8   8   4
#     4  10  21  41  63  93 130 171 223 264 319 402
#     4  11  21  39  63  99 132 167 218 277 326 384
#     4  12  24  39  66  94 133 176 215 271 333 388
#     4  10  23  43  63  90 130 172 221 264 326 390
#     4  10  22  39  66  98 130 169 223 271 325 387
#     4  10  20  38  68  96 128 176 224 262 322 400
#
# _framework density 24.359370999999999
#
# number of rings (size 3 to 8) (size 9 to 14) (size 15 to 20)
#    0.000    1.455    1.818    4.909    2.545    0.727 
#    0.000    0.000    0.000    4.364    0.000    0.000 
#    0.000    0.000    0.000    0.000    0.000    0.000 
#
# Total GULP energy -123066.946198 kJ/mol
# GULP energy per Si atom -5593.952100 kJ/mol
# Density = 2.430393 g / cm^3
# Si number density = 24.359371 Si / 1000 Ang^3
#
#
#
# Elastic Constant Matrix: (Units=GPa)
#
#
# Indices 1 2 3 4 5 6 
#
# 1 217.3532 56.7894 14.9411 0.0000 43.5636 0.0000
# 2 56.7894 83.1614 1.3280 0.0000 12.0525 0.0000
# 3 14.9411 1.3280 75.4750 0.0000 4.2378 0.0000
# 4 0.0000 0.0000 0.0000 2.0493 0.0000 15.1974
# 5 43.5636 12.0525 4.2378 0.0000 30.7883 0.0000
# 6 0.0000 0.0000 0.0000 15.1974 0.0000 43.5130
#
#
#
# Elastic Compliance Matrix: (Units=1/GPa)
#
#
# Indices 1 2 3 4 5 6 
#
# 1 0.007436 -0.003771 -0.000905 0.000000 -0.008921 0.000000
# 2 -0.003771 0.014660 0.000515 0.000000 -0.000475 0.000000
# 3 -0.000905 0.000515 0.013463 0.000000 -0.000774 0.000000
# 4 0.000000 0.000000 0.000000 -0.306889 0.000000 0.107184
# 5 -0.008921 -0.000475 -0.000774 0.000000 0.045395 0.000000
# 6 0.000000 0.000000 0.000000 0.107184 0.000000 -0.014454
#
#
# Mechanical properties :
#
#
# Convention : Reuss Voigt Hill
#
# Bulk Modulus (GPa) = 36.71242 58.01184 47.36213
# Shear Modulus (GPa) = -22.42275 35.46554 6.52139
#
# Velocity S-wave (km/s) = -3.03726 3.81980 1.63798
# Velocity P-wave (km/s) = 1.67450 6.58189 4.80235
#
# Compressibility (1/GPa) = 0.02723874
#
# Stress axis : x y z
#
# Youngs Moduli (GPa) = 134.47621 68.21147 74.27791
#
# Poissons Ratio (x) = 0.25720 0.06721
# Poissons Ratio (y) = 0.50707 -0.03826
# Poissons Ratio (z) = 0.12168 -0.03514
#
# Static dielectric constant tensor:
#      x y z
#    x 1.984490 0.000000 -0.090810 
#    y 0.000000 1.927470 0.000000 
#    z -0.090810 0.000000 2.030220 
# 
# From -- ./inp_files/87937.got.cif
#   From: 2010.05.17/outbox.cif.g08.bks.cpg/sg15_44_cif.got.tgz:87937.got - 2010.06.03 18:47:42.
