data_PCOD9275084
_publ_section_title
;
Structure prediction by ZEFSAII (Michael W. Deem and Ramdas Pophale) SiO2 
 PCOD9275084
Probable space group: C 2/C
;
_chemical_formula_sum "Si O2"
_cell_formula_units_Z 36
_cell_length_a 7.147441
_cell_length_b 17.018572
_cell_length_c 16.221339
_cell_angle_alpha 90.000000
_cell_angle_beta 134.547840
_cell_angle_gamma 90.000000
_cell_volume 1406.195829
_symmetry_space_group_name_H-M "C 2/C"
_symmetry_group_IT_number 15
_symmetry_cell_setting 'monoclinic'
loop_
_space_group_symop_operation_xyz
x,y,z
-x,y,1/2-z
-x,-y,-z
x,-y,1/2+z
1/2+x,1/2+y,z
1/2-x,1/2+y,1/2-z
1/2-x,1/2-y,-z
1/2+x,1/2-y,1/2+z
loop_
_atom_site_type_symbol
_atom_site_label
_atom_site_fract_x
_atom_site_fract_y
_atom_site_fract_z
Si Si1 0.353816 0.604930 0.425175
Si Si2 0.583951 0.491614 0.865329
Si Si3 0.500000 0.768629 0.750000
Si Si4 0.811371 0.217817 0.865667
Si Si5 0.046731 0.381715 0.990821
O O1 0.392971 0.527826 0.381912
O O2 0.252566 0.674715 0.335233
O O3 0.592844 0.642945 0.551707
O O4 0.118017 0.595840 0.418203
O O5 0.500000 0.463271 0.750000
O O6 0.820770 0.433454 0.960637
O O7 0.696483 0.578786 0.888845
O O8 0.457013 0.723531 0.822091
O O9 0.500000 0.220204 0.750000
O O10 0.934679 0.293671 0.951963
#
# Coordination Sequence:
#
# PCOD9275084 Si02
#       5
#     8   8   4   8   8
#     4  11  23  43  67 101 139 176 227 288 347 403
#     4  11  23  42  69  99 136 184 224 282 343 418
#     4  10  20  38  68  94 134 184 218 276 358 406
#     4  11  24  43  68 101 141 180 227 288 346 404
#     4  10  22  43  66  94 135 181 228 275 344 410
#
# _framework density 25.600988000000001
#
# number of rings (size 3 to 8) (size 9 to 14) (size 15 to 20)
#    0.000    1.333    0.000    8.000    0.000    5.333 
#   16.000    0.000    0.000    0.000    0.000    0.000 
#    0.000    0.000    0.000    0.000    0.000    0.000 
#
# Total GULP energy -100448.908051 kJ/mol
# GULP energy per Si atom -5580.494892 kJ/mol
# Density = 2.554272 g / cm^3
# Si number density = 25.600988 Si / 1000 Ang^3
#
#
#
# Elastic Constant Matrix: (Units=GPa)
#
#
# Indices 1 2 3 4 5 6 
#
# 1 60.1656 31.6161 23.1669 0.0001 8.0540 0.0001
# 2 31.6161 133.8882 48.9961 0.0000 14.6757 0.0000
# 3 23.1669 48.9961 112.4674 0.0002 4.9803 0.0001
# 4 0.0001 0.0000 0.0002 18.7634 0.0001 -12.8384
# 5 8.0540 14.6757 4.9803 0.0001 35.0477 0.0000
# 6 0.0001 0.0000 0.0001 -12.8384 0.0000 20.7179
#
#
#
# Elastic Compliance Matrix: (Units=1/GPa)
#
#
# Indices 1 2 3 4 5 6 
#
# 1 0.019749 -0.003473 -0.002434 0.000000 -0.002738 0.000000
# 2 -0.003473 0.009865 -0.003457 0.000000 -0.002842 0.000000
# 3 -0.002434 -0.003457 0.010878 0.000000 0.000461 0.000000
# 4 0.000000 0.000000 0.000000 0.092526 0.000000 0.057336
# 5 -0.002738 -0.002842 0.000461 0.000000 0.030286 0.000000
# 6 0.000000 0.000000 0.000000 0.057336 0.000000 0.083797
#
#
# Mechanical properties :
#
#
# Convention : Reuss Voigt Hill
#
# Bulk Modulus (GPa) = 45.94234 57.11994 51.53114
# Shear Modulus (GPa) = 18.30929 28.42193 23.36561
#
# Velocity S-wave (km/s) = 2.67718 3.33556 3.02434
# Velocity P-wave (km/s) = 5.24794 6.09875 5.68927
#
# Compressibility (1/GPa) = 0.02176641
#
# Stress axis : x y z
#
# Youngs Moduli (GPa) = 50.63434 101.36430 91.92608
#
# Poissons Ratio (x) = 0.35201 0.22375
# Poissons Ratio (y) = 0.17584 0.31776
# Poissons Ratio (z) = 0.12324 0.35038
#
# Static dielectric constant tensor:
#      x y z
#    x 2.027690 0.000000 0.011930 
#    y 0.000000 2.080340 0.000000 
#    z 0.011930 0.000000 2.129730 
# 
# From -- ./inp_files/190731.got.cif
#   From: 2010.05.17/outbox.cif.g08.bks.cpg/sg15_96_cif.got.tgz:190731.got - 2010.06.03 18:47:42.
