data_PCOD9275435
_publ_section_title
;
Structure prediction by ZEFSAII (Michael W. Deem and Ramdas Pophale) SiO2 
 PCOD9275435
Probable space group: C 2/C
;
_chemical_formula_sum "Si O2"
_cell_formula_units_Z 48
_cell_length_a 16.604160
_cell_length_b 19.188234
_cell_length_c 19.877963
_cell_angle_alpha 90.000000
_cell_angle_beta 158.373758
_cell_angle_gamma 90.000000
_cell_volume 2334.106316
_symmetry_space_group_name_H-M "C 2/C"
_symmetry_group_IT_number 15
_symmetry_cell_setting 'monoclinic'
loop_
_space_group_symop_operation_xyz
x,y,z
-x,y,1/2-z
-x,-y,-z
x,-y,1/2+z
1/2+x,1/2+y,z
1/2-x,1/2+y,1/2-z
1/2-x,1/2-y,-z
1/2+x,1/2-y,1/2+z
loop_
_atom_site_type_symbol
_atom_site_label
_atom_site_fract_x
_atom_site_fract_y
_atom_site_fract_z
Si Si1 0.814189 0.343459 0.214699
Si Si2 0.874382 0.489994 0.219648
Si Si3 0.270859 0.709632 0.086784
Si Si4 0.031330 0.088618 0.610303
Si Si5 0.283642 0.168995 0.037836
Si Si6 0.733990 0.454590 0.397555
O O1 0.811614 0.409228 0.162667
O O2 0.773278 0.270018 0.145671
O O3 0.647509 0.367442 0.142671
O O4 0.059694 0.336715 0.433607
O O5 0.000000 0.512643 0.250000
O O6 0.056495 0.500268 0.418488
O O7 0.658099 0.536144 0.062347
O O8 0.500000 0.670987 0.250000
O O9 0.250000 0.750000 0.000000
O O10 0.197070 0.048968 0.789111
O O11 0.911868 0.140700 0.568493
O O12 0.500000 0.160748 0.250000
O O13 0.250000 0.250000 0.000000
O O14 0.284691 0.121035 0.971780
O O15 0.500000 0.476703 0.250000
#
# Coordination Sequence:
#
# PCOD9275435 Si02
#       6
#     8   8   8   8   8   8
#     4  11  25  41  69  98 129 170 213 287 342 372
#     4  12  21  43  68  93 133 181 219 264 329 399
#     4   9  20  46  65  90 124 162 225 265 319 408
#     4  11  23  42  60 101 138 164 220 274 326 391
#     4  11  20  37  62  91 129 180 216 257 315 395
#     4  10  20  39  61  91 131 173 224 258 307 405
#
# _framework density 20.564615
#
# number of rings (size 3 to 8) (size 9 to 14) (size 15 to 20)
#    0.000    1.333    5.000    3.500    0.000    4.000 
#   12.000    0.000    0.000    0.000    0.000    0.000 
#    0.000    0.000    0.000    0.000    0.000    0.000 
#
# Total GULP energy -133872.347784 kJ/mol
# GULP energy per Si atom -5578.014491 kJ/mol
# Density = 2.051781 g / cm^3
# Si number density = 20.564615 Si / 1000 Ang^3
#
#
#
# Elastic Constant Matrix: (Units=GPa)
#
#
# Indices 1 2 3 4 5 6 
#
# 1 83.3589 12.3384 32.8678 -0.0151 10.2968 0.0054
# 2 12.3384 99.2931 23.2271 0.0107 13.3759 -0.0032
# 3 32.8678 23.2271 125.2980 0.0034 -1.9993 -0.0060
# 4 -0.0151 0.0107 0.0034 23.4937 -0.0152 -0.8541
# 5 10.2968 13.3759 -1.9993 -0.0152 26.8590 0.0035
# 6 0.0054 -0.0032 -0.0060 -0.8541 0.0035 24.0074
#
#
#
# Elastic Compliance Matrix: (Units=1/GPa)
#
#
# Indices 1 2 3 4 5 6 
#
# 1 0.014211 -0.000113 -0.003797 0.000006 -0.005674 -0.000003
# 2 -0.000113 0.011372 -0.002171 -0.000009 -0.005781 0.000002
# 3 -0.003797 -0.002171 0.009431 -0.000001 0.003239 0.000002
# 4 0.000006 -0.000009 -0.000001 0.042620 0.000026 0.001516
# 5 -0.005674 -0.005781 0.003239 0.000026 0.042527 -0.000004
# 6 -0.000003 0.000002 0.000002 0.001516 -0.000004 0.041708
#
#
# Mechanical properties :
#
#
# Convention : Reuss Voigt Hill
#
# Bulk Modulus (GPa) = 43.76021 49.42405 46.59213
# Shear Modulus (GPa) = 27.52565 30.83979 29.18272
#
# Velocity S-wave (km/s) = 3.66252 3.87674 3.77115
# Velocity P-wave (km/s) = 6.26186 6.64263 6.45505
#
# Compressibility (1/GPa) = 0.02285181
#
# Stress axis : x y z
#
# Youngs Moduli (GPa) = 70.36655 87.93653 106.03145
#
# Poissons Ratio (x) = 0.00996 0.40265
# Poissons Ratio (y) = 0.00797 0.23015
# Poissons Ratio (z) = 0.26721 0.19088
#
# Static dielectric constant tensor:
#      x y z
#    x 1.736770 -0.000020 -0.018320 
#    y -0.000020 1.799550 -0.000130 
#    z -0.018320 -0.000130 1.830530 
# 
# From -- ./inp_files/216285.got.cif
#   From: 2010.05.17/outbox.cif.g08.bks.cpg/sg15_109_cif.got.tgz:216285.got - 2010.06.03 18:47:42.
