data_PCOD9275767
_publ_section_title
;
Structure prediction by ZEFSAII (Michael W. Deem and Ramdas Pophale) SiO2 
 PCOD9275767
Probable space group: C 2/C
;
_chemical_formula_sum "Si O2"
_cell_formula_units_Z 48
_cell_length_a 10.558695
_cell_length_b 17.281009
_cell_length_c 10.994799
_cell_angle_alpha 90.000000
_cell_angle_beta 99.844082
_cell_angle_gamma 90.000000
_cell_volume 1976.627472
_symmetry_space_group_name_H-M "C 2/C"
_symmetry_group_IT_number 15
_symmetry_cell_setting 'monoclinic'
loop_
_space_group_symop_operation_xyz
x,y,z
-x,y,1/2-z
-x,-y,-z
x,-y,1/2+z
1/2+x,1/2+y,z
1/2-x,1/2+y,1/2-z
1/2-x,1/2-y,-z
1/2+x,1/2-y,1/2+z
loop_
_atom_site_type_symbol
_atom_site_label
_atom_site_fract_x
_atom_site_fract_y
_atom_site_fract_z
Si Si1 0.436599 0.805974 0.524543
Si Si2 0.029392 0.949990 0.385546
Si Si3 0.718223 0.357426 0.143919
Si Si4 0.681290 0.945978 0.132482
Si Si5 0.295653 0.286903 0.824097
Si Si6 0.693509 0.124128 0.112815
O O1 0.413537 0.884481 0.442809
O O2 0.418581 0.736656 0.424522
O O3 0.323032 0.796492 0.602760
O O4 0.571917 0.819365 0.609819
O O5 0.179364 0.929748 0.406712
O O6 0.000000 0.989936 0.250000
O O7 0.931974 0.877602 0.367453
O O8 0.000000 0.000000 0.500000
O O9 0.795313 0.427850 0.221609
O O10 0.766002 0.284867 0.229442
O O11 0.750425 0.354603 0.008622
O O12 0.651271 0.035210 0.108910
O O13 0.295054 0.360425 0.736634
#
# Coordination Sequence:
#
# PCOD9275767 Si02
#       6
#     8   8   8   8   8   8
#     4  10  24  45  67  98 135 182 235 277 352 419
#     4  10  20  39  64  92 133 180 226 281 337 402
#     4  10  23  43  67  99 139 176 233 284 340 409
#     4  10  23  40  66  99 140 180 223 284 343 417
#     4  10  24  44  65  95 135 188 233 281 345 423
#     4  12  23  41  71 100 142 176 232 287 350 410
#
# _framework density 24.283785999999999
#
# number of rings (size 3 to 8) (size 9 to 14) (size 15 to 20)
#    0.000    1.667    1.667    1.500    2.333   10.667 
#    3.000    1.667    3.667    0.000    0.000    0.000 
#    0.000    0.000    0.000    0.000    0.000    0.000 
#
# Total GULP energy -134310.707015 kJ/mol
# GULP energy per Si atom -5596.279459 kJ/mol
# Density = 2.422852 g / cm^3
# Si number density = 24.283786 Si / 1000 Ang^3
#
#
#
# Elastic Constant Matrix: (Units=GPa)
#
#
# Indices 1 2 3 4 5 6 
#
# 1 37.3351 4.7204 8.5637 0.0000 6.3870 0.0000
# 2 4.7204 60.9855 39.7545 0.0000 5.9543 0.0000
# 3 8.5637 39.7545 128.2137 0.0000 -11.6104 0.0000
# 4 0.0000 0.0000 0.0000 42.3660 0.0000 7.7749
# 5 6.3870 5.9543 -11.6104 0.0000 40.5192 0.0000
# 6 0.0000 0.0000 0.0000 7.7749 0.0000 32.6465
#
#
#
# Elastic Compliance Matrix: (Units=1/GPa)
#
#
# Indices 1 2 3 4 5 6 
#
# 1 0.028200 -0.000202 -0.002280 0.000000 -0.005069 0.000000
# 2 -0.000202 0.021578 -0.007147 0.000000 -0.005187 0.000000
# 3 -0.002280 -0.007147 0.010570 0.000000 0.004438 0.000000
# 4 0.000000 0.000000 0.000000 0.024683 0.000000 -0.005878
# 5 -0.005069 -0.005187 0.004438 0.000000 0.027513 0.000000
# 6 0.000000 0.000000 0.000000 -0.005878 0.000000 0.032031
#
#
# Mechanical properties :
#
#
# Convention : Reuss Voigt Hill
#
# Bulk Modulus (GPa) = 24.33628 36.95686 30.64657
# Shear Modulus (GPa) = 28.16452 34.67272 31.41862
#
# Velocity S-wave (km/s) = 3.40929 3.78274 3.60086
# Velocity P-wave (km/s) = 5.05381 5.85923 5.47136
#
# Compressibility (1/GPa) = 0.04109092
#
# Stress axis : x y z
#
# Youngs Moduli (GPa) = 35.46092 46.34299 94.61027
#
# Poissons Ratio (x) = 0.00934 0.21572
# Poissons Ratio (y) = 0.00715 0.67617
# Poissons Ratio (z) = 0.08085 0.33121
#
# Static dielectric constant tensor:
#      x y z
#    x 1.958670 0.000000 0.037600 
#    y 0.000000 1.967330 0.000000 
#    z 0.037600 0.000000 1.926690 
# 
# From -- ./inp_files/87861.got.cif
#   From: 2010.05.17/outbox.cif.g08.bks.cpg/sg15_44_cif.got.tgz:87861.got - 2010.06.03 18:47:42.
