data_PCOD9275319
_publ_section_title
;
Structure prediction by ZEFSAII (Michael W. Deem and Ramdas Pophale) SiO2 
 PCOD9275319
Probable space group: C 2/C
;
_chemical_formula_sum "Si O2"
_cell_formula_units_Z 56
_cell_length_a 11.611682
_cell_length_b 32.792686
_cell_length_c 9.119046
_cell_angle_alpha 90.000000
_cell_angle_beta 126.141039
_cell_angle_gamma 90.000000
_cell_volume 2804.144872
_symmetry_space_group_name_H-M "C 2/C"
_symmetry_group_IT_number 15
_symmetry_cell_setting 'monoclinic'
loop_
_space_group_symop_operation_xyz
x,y,z
-x,y,1/2-z
-x,-y,-z
x,-y,1/2+z
1/2+x,1/2+y,z
1/2-x,1/2+y,1/2-z
1/2-x,1/2-y,-z
1/2+x,1/2-y,1/2+z
loop_
_atom_site_type_symbol
_atom_site_label
_atom_site_fract_x
_atom_site_fract_y
_atom_site_fract_z
Si Si1 0.316252 0.886734 0.231628
Si Si2 0.563433 0.560294 0.652916
Si Si3 0.140408 0.694063 0.555756
Si Si4 0.866658 0.030636 0.257051
Si Si5 0.317190 0.172115 0.240496
Si Si6 0.154695 0.765876 0.794652
Si Si7 0.877879 0.594217 0.452241
O O1 0.171088 0.910674 0.150408
O O2 0.315260 0.843005 0.306327
O O3 0.451228 0.910635 0.406733
O O4 0.342483 0.882880 0.078335
O O5 0.500000 0.580482 0.750000
O O6 0.428552 0.545418 0.458122
O O7 0.645416 0.518185 0.753974
O O8 0.208158 0.685464 0.446597
O O9 0.169295 0.735122 0.667032
O O10 0.970376 0.690881 0.401358
O O11 0.720076 0.054126 0.117881
O O12 0.000000 0.040760 0.250000
O O13 0.202321 0.190956 0.264083
O O14 0.336100 0.123873 0.286244
O O15 0.000000 0.767004 0.750000
O O16 0.250000 0.750000 0.000000
#
# Coordination Sequence:
#
# PCOD9275319 Si02
#       7
#     8   8   8   8   8   8   8
#     4  10  21  39  61  88 115 159 201 247 298 353
#     4  10  22  38  60  86 123 156 197 247 305 356
#     4  10  22  41  63  86 125 157 196 250 303 346
#     4  10  20  39  60  85 119 164 197 244 300 353
#     4  10  22  41  62  90 121 159 198 248 299 349
#     4  12  23  41  66  91 121 160 202 241 294 361
#     4  10  21  38  64  86 118 156 207 246 290 358
#
# _framework density 19.970438000000001
#
# number of rings (size 3 to 8) (size 9 to 14) (size 15 to 20)
#    0.000    1.714    2.857    1.286    4.000    1.143 
#    2.571    0.000    0.000    0.000    0.000    0.000 
#    0.000    0.000    0.000    0.000    0.000    0.000 
#
# Total GULP energy -156229.446558 kJ/mol
# GULP energy per Si atom -5579.623091 kJ/mol
# Density = 1.992498 g / cm^3
# Si number density = 19.970438 Si / 1000 Ang^3
#
#
#
# Elastic Constant Matrix: (Units=GPa)
#
#
# Indices 1 2 3 4 5 6 
#
# 1 65.3204 -5.8086 7.1644 0.0000 -5.1806 0.0000
# 2 -5.8086 32.0773 5.0384 0.0000 9.4799 0.0000
# 3 7.1644 5.0384 47.2765 0.0000 -15.1641 0.0000
# 4 0.0000 0.0000 0.0000 23.6117 0.0000 -0.9482
# 5 -5.1806 9.4799 -15.1641 0.0000 31.2232 0.0000
# 6 0.0000 0.0000 0.0000 -0.9482 0.0000 21.8817
#
#
#
# Elastic Compliance Matrix: (Units=1/GPa)
#
#
# Indices 1 2 3 4 5 6 
#
# 1 0.015911 0.003173 -0.002620 0.000000 0.000404 0.000000
# 2 0.003173 0.037850 -0.009514 0.000000 -0.015586 0.000000
# 3 -0.002620 -0.009514 0.027659 0.000000 0.015887 0.000000
# 4 0.000000 0.000000 0.000000 0.042426 0.000000 0.001838
# 5 0.000404 -0.015586 0.015887 0.000000 0.044542 0.000000
# 6 0.000000 0.000000 0.000000 0.001838 0.000000 0.045780
#
#
# Mechanical properties :
#
#
# Convention : Reuss Voigt Hill
#
# Bulk Modulus (GPa) = 15.74838 17.49584 16.62211
# Shear Modulus (GPa) = 19.74300 24.56199 22.15249
#
# Velocity S-wave (km/s) = 3.14763 3.51082 3.33417
# Velocity P-wave (km/s) = 4.59490 5.02139 4.81287
#
# Compressibility (1/GPa) = 0.06349858
#
# Stress axis : x y z
#
# Youngs Moduli (GPa) = 62.85073 26.42022 36.15486
#
# Poissons Ratio (x) = -0.08383 0.09471
# Poissons Ratio (y) = -0.19943 0.34397
# Poissons Ratio (z) = 0.16465 0.25136
#
# Static dielectric constant tensor:
#      x y z
#    x 1.708850 0.000000 0.004470 
#    y 0.000000 1.693280 0.000000 
#    z 0.004470 0.000000 1.792500 
# 
# From -- ./inp_files/35769.got.cif
#   From: 2010.05.17/outbox.cif.g08.bks.cpg/sg15_18_cif.got.tgz:35769.got - 2010.06.03 18:47:42.
