data_PCOD9275237
_publ_section_title
;
Structure prediction by ZEFSAII (Michael W. Deem and Ramdas Pophale) SiO2 
 PCOD9275237
Probable space group: C 2/C
;
_chemical_formula_sum "Si O2"
_cell_formula_units_Z 40
_cell_length_a 25.450981
_cell_length_b 5.076589
_cell_length_c 13.032048
_cell_angle_alpha 90.000000
_cell_angle_beta 62.173446
_cell_angle_gamma 90.000000
_cell_volume 1489.088866
_symmetry_space_group_name_H-M "C 2/C"
_symmetry_group_IT_number 15
_symmetry_cell_setting 'monoclinic'
loop_
_space_group_symop_operation_xyz
x,y,z
-x,y,1/2-z
-x,-y,-z
x,-y,1/2+z
1/2+x,1/2+y,z
1/2-x,1/2+y,1/2-z
1/2-x,1/2-y,-z
1/2+x,1/2-y,1/2+z
loop_
_atom_site_type_symbol
_atom_site_label
_atom_site_fract_x
_atom_site_fract_y
_atom_site_fract_z
Si Si1 0.495805 0.144297 0.897216
Si Si2 0.723676 0.306963 0.912088
Si Si3 0.676192 0.799647 0.858330
Si Si4 0.599039 0.475896 0.266310
Si Si5 0.098646 0.516010 0.666692
O O1 0.531472 0.418845 0.849318
O O2 0.539490 0.966224 0.789162
O O3 0.430450 0.139784 0.907995
O O4 0.500000 0.000000 0.000000
O O5 0.697192 0.596268 0.925360
O O6 0.775778 0.301014 0.778375
O O7 0.677918 0.083332 0.911757
O O8 0.750000 0.250000 0.000000
O O9 0.621303 0.666134 0.848602
O O10 0.619182 0.282347 0.154965
O O11 0.630097 0.757207 0.205756
#
# Coordination Sequence:
#
# PCOD9275237 Si02
#       5
#     8   8   8   8   8
#     4   9  21  37  60  83 120 162 204 248 307 365
#     4  10  21  40  65  91 125 164 203 251 330 382
#     4  10  21  39  65  90 127 160 201 269 306 372
#     4  10  20  39  57  86 122 155 205 253 302 361
#     4   9  21  36  58  80 123 158 196 253 304 355
#
# _framework density 26.86206
#
# number of rings (size 3 to 8) (size 9 to 14) (size 15 to 20)
#    1.200    1.200    0.000    1.800    5.600    0.800 
#    3.600    0.000    0.000    0.000    0.000    0.000 
#    0.000    0.000    0.000    0.000    0.000    0.000 
#
# Total GULP energy -111559.513219 kJ/mol
# GULP energy per Si atom -5577.975661 kJ/mol
# Density = 2.680092 g / cm^3
# Si number density = 26.862060 Si / 1000 Ang^3
#
#
#
# Elastic Constant Matrix: (Units=GPa)
#
#
# Indices 1 2 3 4 5 6 
#
# 1 83.9772 14.6398 25.0422 0.0000 12.5488 0.0000
# 2 14.6398 163.3845 28.5899 0.0000 6.7752 0.0000
# 3 25.0422 28.5899 129.4280 0.0000 28.8052 0.0000
# 4 0.0000 0.0000 0.0000 37.4260 0.0000 8.7348
# 5 12.5488 6.7752 28.8052 0.0000 44.8679 0.0000
# 6 0.0000 0.0000 0.0000 8.7348 0.0000 41.3867
#
#
#
# Elastic Compliance Matrix: (Units=1/GPa)
#
#
# Indices 1 2 3 4 5 6 
#
# 1 0.012929 -0.000744 -0.001817 0.000000 -0.002337 0.000000
# 2 -0.000744 0.006410 -0.001287 0.000000 0.000066 0.000000
# 3 -0.001817 -0.001287 0.009574 0.000000 -0.005444 0.000000
# 4 0.000000 0.000000 0.000000 0.028104 0.000000 -0.005931
# 5 -0.002337 0.000066 -0.005444 0.000000 0.026426 0.000000
# 6 0.000000 0.000000 0.000000 -0.005931 0.000000 0.025414
#
#
# Mechanical properties :
#
#
# Convention : Reuss Voigt Hill
#
# Bulk Modulus (GPa) = 47.13161 57.03707 52.08434
# Shear Modulus (GPa) = 40.44549 45.30398 42.87473
#
# Velocity S-wave (km/s) = 3.88451 4.11121 3.99947
# Velocity P-wave (km/s) = 6.14029 6.61932 6.38430
#
# Compressibility (1/GPa) = 0.02121718
#
# Stress axis : x y z
#
# Youngs Moduli (GPa) = 77.34718 156.01673 104.45323
#
# Poissons Ratio (x) = 0.11601 0.18980
# Poissons Ratio (y) = 0.05751 0.13440
# Poissons Ratio (z) = 0.14055 0.20075
#
# Static dielectric constant tensor:
#      x y z
#    x 2.435700 0.000000 -0.009320 
#    y 0.000000 2.167670 0.000000 
#    z -0.009320 0.000000 2.187040 
# 
# From -- ./inp_files/179353.got.cif
#   From: 2010.05.17/outbox.cif.g08.bks.cpg/sg15_90_cif.got.tgz:179353.got - 2010.06.03 18:47:42.
