data_PCOD9275075
_publ_section_title
;
Structure prediction by ZEFSAII (Michael W. Deem and Ramdas Pophale) SiO2 
 PCOD9275075
Probable space group: C 2/C
;
_chemical_formula_sum "Si O2"
_cell_formula_units_Z 48
_cell_length_a 10.330607
_cell_length_b 16.613796
_cell_length_c 20.015077
_cell_angle_alpha 90.000000
_cell_angle_beta 45.384582
_cell_angle_gamma 90.000000
_cell_volume 2445.302447
_symmetry_space_group_name_H-M "C 2/C"
_symmetry_group_IT_number 15
_symmetry_cell_setting 'monoclinic'
loop_
_space_group_symop_operation_xyz
x,y,z
-x,y,1/2-z
-x,-y,-z
x,-y,1/2+z
1/2+x,1/2+y,z
1/2-x,1/2+y,1/2-z
1/2-x,1/2-y,-z
1/2+x,1/2-y,1/2+z
loop_
_atom_site_type_symbol
_atom_site_label
_atom_site_fract_x
_atom_site_fract_y
_atom_site_fract_z
Si Si1 0.994419 0.749191 0.055376
Si Si2 0.699636 0.773161 0.263497
Si Si3 0.800305 0.019046 0.542179
Si Si4 0.000000 0.591466 0.750000
Si Si5 0.500000 0.645566 0.750000
Si Si6 0.730206 0.378119 0.048394
Si Si7 0.096731 0.182439 0.049606
O O1 0.806969 0.737207 0.161594
O O2 0.112957 0.802747 0.063107
O O3 0.979372 0.805037 0.997012
O O4 0.081571 0.665115 0.002311
O O5 0.595747 0.850836 0.270579
O O6 0.845368 0.801441 0.267419
O O7 0.560775 0.707937 0.342805
O O8 0.655599 0.042019 0.653031
O O9 0.821883 0.093663 0.482868
O O10 0.743254 0.942818 0.518693
O O11 0.000000 0.000000 0.500000
O O12 0.387373 0.594782 0.845418
O O13 0.250000 0.250000 0.000000
#
# Coordination Sequence:
#
# PCOD9275075 Si02
#       7
#     8   8   8   4   4   8   8
#     4  10  20  40  63  93 130 167 220 265 321 395
#     4  11  21  39  68  96 126 181 223 262 331 403
#     4  12  24  42  66  99 136 171 225 279 326 395
#     4  12  24  44  68  94 138 180 214 276 346 392
#     4  10  20  38  68  92 130 172 218 274 338 380
#     4  10  21  39  63  96 129 168 214 274 325 384
#     4  12  22  40  66  94 127 176 218 263 328 398
#
# _framework density 19.629474999999999
#
# number of rings (size 3 to 8) (size 9 to 14) (size 15 to 20)
#    0.000    1.000    6.667    1.000    0.000    1.333 
#    0.000    5.833    0.000    0.000    0.000    0.000 
#    0.000    0.000    0.000    0.000    0.000    0.000 
#
# Total GULP energy -133810.748717 kJ/mol
# GULP energy per Si atom -5575.447863 kJ/mol
# Density = 1.958480 g / cm^3
# Si number density = 19.629475 Si / 1000 Ang^3
#
#
#
# Elastic Constant Matrix: (Units=GPa)
#
#
# Indices 1 2 3 4 5 6 
#
# 1 37.5378 12.5122 1.0178 0.0000 -6.0559 0.0000
# 2 12.5122 49.4548 40.9749 -0.0002 -11.6083 0.0001
# 3 1.0178 40.9749 185.6589 -0.0001 -7.9513 0.0001
# 4 0.0000 -0.0002 -0.0001 21.9708 0.0000 9.7319
# 5 -6.0559 -11.6083 -7.9513 0.0000 26.2804 -0.0001
# 6 0.0000 0.0001 0.0001 9.7319 -0.0001 27.8310
#
#
#
# Elastic Compliance Matrix: (Units=1/GPa)
#
#
# Indices 1 2 3 4 5 6 
#
# 1 0.029932 -0.008166 0.001802 0.000000 0.003836 0.000000
# 2 -0.008166 0.029499 -0.006067 0.000000 0.009313 0.000000
# 3 0.001802 -0.006067 0.006705 0.000000 -0.000236 0.000000
# 4 0.000000 0.000000 0.000000 0.053857 0.000000 -0.018833
# 5 0.003836 0.009313 -0.000236 0.000000 0.042977 0.000000
# 6 0.000000 0.000000 0.000000 -0.018833 0.000000 0.042517
#
#
# Mechanical properties :
#
#
# Convention : Reuss Voigt Hill
#
# Bulk Modulus (GPa) = 24.22759 42.40680 33.31720
# Shear Modulus (GPa) = 20.48298 29.75955 25.12126
#
# Velocity S-wave (km/s) = 3.23380 3.89789 3.58127
# Velocity P-wave (km/s) = 5.12957 6.47369 5.84043
#
# Compressibility (1/GPa) = 0.04127525
#
# Stress axis : x y z
#
# Youngs Moduli (GPa) = 33.40953 33.89957 149.13828
#
# Poissons Ratio (x) = 0.27682 -0.26880
# Poissons Ratio (y) = 0.27281 0.90479
# Poissons Ratio (z) = -0.06022 0.20566
#
# Static dielectric constant tensor:
#      x y z
#    x 1.763990 0.000000 -0.027660 
#    y 0.000000 1.642050 0.000000 
#    z -0.027660 0.000000 1.732520 
# 
# From -- ./inp_files/119514.got.cif
#   From: 2010.05.17/outbox.cif.g08.bks.cpg/sg15_60_cif.got.tgz:119514.got - 2010.06.03 18:47:42.
