data_PCOD9275091
_publ_section_title
;
Structure prediction by ZEFSAII (Michael W. Deem and Ramdas Pophale) SiO2 
 PCOD9275091
Probable space group: C 2/C
;
_chemical_formula_sum "Si O2"
_cell_formula_units_Z 52
_cell_length_a 11.170353
_cell_length_b 9.533633
_cell_length_c 22.356065
_cell_angle_alpha 90.000000
_cell_angle_beta 123.276234
_cell_angle_gamma 90.000000
_cell_volume 1990.421991
_symmetry_space_group_name_H-M "C 2/C"
_symmetry_group_IT_number 15
_symmetry_cell_setting 'monoclinic'
loop_
_space_group_symop_operation_xyz
x,y,z
-x,y,1/2-z
-x,-y,-z
x,-y,1/2+z
1/2+x,1/2+y,z
1/2-x,1/2+y,1/2-z
1/2-x,1/2-y,-z
1/2+x,1/2-y,1/2+z
loop_
_atom_site_type_symbol
_atom_site_label
_atom_site_fract_x
_atom_site_fract_y
_atom_site_fract_z
Si Si1 0.717599 0.495439 0.705470
Si Si2 0.020038 0.471851 0.076104
Si Si3 0.500000 0.450575 0.250000
Si Si4 0.345281 0.337387 0.097906
Si Si5 0.145373 0.700371 0.175765
Si Si6 0.214313 0.909834 0.006350
Si Si7 0.910732 0.828074 0.935217
O O1 0.595406 0.475531 0.724299
O O2 0.843566 0.393286 0.761514
O O3 0.744370 0.662566 0.707886
O O4 0.660434 0.441409 0.626976
O O5 0.147324 0.577012 0.127901
O O6 0.062428 0.311125 0.096693
O O7 0.866596 0.476404 0.068052
O O8 0.000000 0.500000 0.000000
O O9 0.386447 0.363748 0.178996
O O10 0.491192 0.264770 0.117844
O O11 0.326967 0.485092 0.059025
O O12 0.207276 0.237020 0.052620
O O13 0.065094 0.881377 0.000223
O O14 0.250000 0.750000 0.000000
#
# Coordination Sequence:
#
# PCOD9275091 Si02
#       7
#     8   8   4   8   8   8   8
#     4  11  23  43  70 103 136 181 241 296 366 428
#     4  11  23  43  70  99 139 187 231 289 361 421
#     4  10  20  38  68  96 132 182 226 288 368 418
#     4  11  21  42  69 101 140 186 230 299 374 414
#     4  11  24  42  69 102 138 181 235 300 361 435
#     4  10  22  40  69 102 138 184 239 278 346 440
#     4  11  21  43  70  98 138 184 235 288 355 434
#
# _framework density 26.125112999999999
#
# number of rings (size 3 to 8) (size 9 to 14) (size 15 to 20)
#    0.000    1.231    4.615    3.692    0.000    0.615 
#    0.000    9.231    0.000    2.769    0.000    0.000 
#    0.000    0.000    0.000    0.000    0.000    0.000 
#
# Total GULP energy -145027.255729 kJ/mol
# GULP energy per Si atom -5577.971374 kJ/mol
# Density = 2.606565 g / cm^3
# Si number density = 26.125113 Si / 1000 Ang^3
#
#
#
# Elastic Constant Matrix: (Units=GPa)
#
#
# Indices 1 2 3 4 5 6 
#
# 1 102.5702 35.6889 15.1994 0.0000 18.1952 0.0000
# 2 35.6889 195.8305 57.5481 0.0000 -8.3079 0.0000
# 3 15.1994 57.5481 108.2596 0.0000 3.0409 0.0000
# 4 0.0000 0.0000 0.0000 57.4679 0.0000 -0.8256
# 5 18.1952 -8.3079 3.0409 0.0000 27.9287 0.0000
# 6 0.0000 0.0000 0.0000 -0.8256 0.0000 48.9726
#
#
#
# Elastic Compliance Matrix: (Units=1/GPa)
#
#
# Indices 1 2 3 4 5 6 
#
# 1 0.012199 -0.002561 -0.000107 0.000000 -0.008698 0.000000
# 2 -0.002561 0.006722 -0.003327 0.000000 0.004030 0.000000
# 3 -0.000107 -0.003327 0.011080 0.000000 -0.002126 0.000000
# 4 0.000000 0.000000 0.000000 0.017405 0.000000 0.000293
# 5 -0.008698 0.004030 -0.002126 0.000000 0.042902 0.000000
# 6 0.000000 0.000000 0.000000 0.000293 0.000000 0.020425
#
#
# Mechanical properties :
#
#
# Convention : Reuss Voigt Hill
#
# Bulk Modulus (GPa) = 55.51924 69.28144 62.40034
# Shear Modulus (GPa) = 38.84201 46.75544 42.79872
#
# Velocity S-wave (km/s) = 3.86005 4.23504 4.05189
# Velocity P-wave (km/s) = 6.41592 7.10569 6.76960
#
# Compressibility (1/GPa) = 0.01801178
#
# Stress axis : x y z
#
# Youngs Moduli (GPa) = 81.97253 148.77113 90.25052
#
# Poissons Ratio (x) = 0.38096 0.00968
# Poissons Ratio (y) = 0.20991 0.30024
# Poissons Ratio (z) = 0.00879 0.49493
#
# Static dielectric constant tensor:
#      x y z
#    x 2.265040 0.000000 -0.032970 
#    y 0.000000 2.085560 0.000000 
#    z -0.032970 0.000000 2.095320 
# 
# From -- ./inp_files/312719.got.cif
#   From: 2010.05.17/outbox.cif.g08.bks.cpg/sg15_157_cif.got.tgz:312719.got - 2010.06.03 18:47:42.
