data_PCOD9275629
_publ_section_title
;
Structure prediction by ZEFSAII (Michael W. Deem and Ramdas Pophale) SiO2 
 PCOD9275629
Probable space group: C 2/C
;
_chemical_formula_sum "Si O2"
_cell_formula_units_Z 60
_cell_length_a 25.025164
_cell_length_b 7.560665
_cell_length_c 23.938655
_cell_angle_alpha 90.000000
_cell_angle_beta 34.804572
_cell_angle_gamma 90.000000
_cell_volume 2585.262990
_symmetry_space_group_name_H-M "C 2/C"
_symmetry_group_IT_number 15
_symmetry_cell_setting 'monoclinic'
loop_
_space_group_symop_operation_xyz
x,y,z
-x,y,1/2-z
-x,-y,-z
x,-y,1/2+z
1/2+x,1/2+y,z
1/2-x,1/2+y,1/2-z
1/2-x,1/2-y,-z
1/2+x,1/2-y,1/2+z
loop_
_atom_site_type_symbol
_atom_site_label
_atom_site_fract_x
_atom_site_fract_y
_atom_site_fract_z
Si Si1 0.608032 0.786532 0.256402
Si Si2 0.500000 0.803756 0.250000
Si Si3 0.343575 0.599263 0.454424
Si Si4 0.738849 0.543190 0.083440
Si Si5 0.832641 0.647361 0.604674
Si Si6 0.544259 0.252257 0.426796
Si Si7 0.456603 0.396059 0.958271
Si Si8 0.287105 0.036469 0.256735
O O1 0.565395 0.895823 0.240324
O O2 0.647889 0.603920 0.196677
O O3 0.523989 0.744159 0.370162
O O4 0.689357 0.881187 0.220568
O O5 0.429496 0.684242 0.346277
O O6 0.289343 0.482044 0.455123
O O7 0.286482 0.768074 0.526966
O O8 0.387149 0.519185 0.472583
O O9 0.799967 0.422776 0.072136
O O10 0.945011 0.649808 0.514570
O O11 0.797837 0.844491 0.649871
O O12 0.783518 0.534574 0.696504
O O13 0.585179 0.290065 0.453487
O O14 0.520833 0.445834 0.424288
O O15 0.619423 0.156460 0.324333
#
# Coordination Sequence:
#
# PCOD9275629 Si02
#       8
#     8   4   8   8   8   8   8   8
#     4  10  20  39  63  90 121 165 213 263 314 382
#     4   8  18  34  62  90 112 156 214 252 304 370
#     4   9  19  37  66  89 117 167 206 260 305 383
#     4  10  21  38  63  91 125 160 216 254 315 379
#     4  12  26  40  63  97 130 170 211 267 322 389
#     4  11  25  40  63  95 127 169 210 265 325 381
#     4  10  21  40  64  85 125 161 216 253 321 378
#     4  12  26  41  62  92 129 167 211 262 329 377
#
# _framework density 23.208469000000001
#
# number of rings (size 3 to 8) (size 9 to 14) (size 15 to 20)
#    0.000    1.600    1.333    2.800    9.333    0.000 
#    0.000    2.000    0.000    0.000    0.000    0.000 
#    0.000    0.000    0.000    0.000    0.000    0.000 
#
# Total GULP energy -167592.555270 kJ/mol
# GULP energy per Si atom -5586.418509 kJ/mol
# Density = 2.315565 g / cm^3
# Si number density = 23.208469 Si / 1000 Ang^3
#
#
#
# Elastic Constant Matrix: (Units=GPa)
#
#
# Indices 1 2 3 4 5 6 
#
# 1 172.8959 28.3984 22.2901 -0.0034 23.9988 0.0020
# 2 28.3984 42.5269 3.4025 -0.0056 10.2035 0.0054
# 3 22.2901 3.4025 77.7467 -0.0079 6.9017 0.0040
# 4 -0.0034 -0.0056 -0.0079 28.9903 0.0052 -4.5869
# 5 23.9988 10.2035 6.9017 0.0052 33.2722 -0.0021
# 6 0.0020 0.0054 0.0040 -4.5869 -0.0021 30.9018
#
#
#
# Elastic Compliance Matrix: (Units=1/GPa)
#
#
# Indices 1 2 3 4 5 6 
#
# 1 0.007106 -0.003744 -0.001549 0.000000 -0.003656 0.000000
# 2 -0.003744 0.027369 0.000388 0.000005 -0.005773 -0.000004
# 3 -0.001549 0.000388 0.013448 0.000004 -0.001791 -0.000001
# 4 0.000000 0.000005 0.000004 0.035324 -0.000008 0.005243
# 5 -0.003656 -0.005773 -0.001791 -0.000008 0.034834 0.000003
# 6 0.000000 -0.000004 -0.000001 0.005243 0.000003 0.033139
#
#
# Mechanical properties :
#
#
# Convention : Reuss Voigt Hill
#
# Bulk Modulus (GPa) = 26.23738 44.59462 35.41600
# Shear Modulus (GPa) = 28.77961 34.57144 31.67552
#
# Velocity S-wave (km/s) = 3.52525 3.86373 3.69836
# Velocity P-wave (km/s) = 5.28200 6.25788 5.79053
#
# Compressibility (1/GPa) = 0.03811355
#
# Stress axis : x y z
#
# Youngs Moduli (GPa) = 140.72730 36.53788 74.35835
#
# Poissons Ratio (x) = 0.13680 0.11517
# Poissons Ratio (y) = 0.52689 -0.02886
# Poissons Ratio (z) = 0.21797 -0.01418
#
# Static dielectric constant tensor:
#      x y z
#    x 1.985940 0.000000 -0.025130 
#    y 0.000000 1.869970 0.000000 
#    z -0.025130 0.000000 1.893150 
# 
# From -- ./inp_files/283209.got.cif
#   From: 2010.05.17/outbox.cif.g08.bks.cpg/sg15_142_cif.got.tgz:283209.got - 2010.06.03 18:47:42.
