data_PCOD9275895
_publ_section_title
;
Structure prediction by ZEFSAII (Michael W. Deem and Ramdas Pophale) SiO2 
 PCOD9275895
Probable space group: C 2/C
;
_chemical_formula_sum "Si O2"
_cell_formula_units_Z 48
_cell_length_a 14.956506
_cell_length_b 10.837207
_cell_length_c 25.234214
_cell_angle_alpha 90.000000
_cell_angle_beta 149.917136
_cell_angle_gamma 90.000000
_cell_volume 2050.186591
_symmetry_space_group_name_H-M "C 2/C"
_symmetry_group_IT_number 15
_symmetry_cell_setting 'monoclinic'
loop_
_space_group_symop_operation_xyz
x,y,z
-x,y,1/2-z
-x,-y,-z
x,-y,1/2+z
1/2+x,1/2+y,z
1/2-x,1/2+y,1/2-z
1/2-x,1/2-y,-z
1/2+x,1/2-y,1/2+z
loop_
_atom_site_type_symbol
_atom_site_label
_atom_site_fract_x
_atom_site_fract_y
_atom_site_fract_z
Si Si1 0.528077 0.980648 0.093754
Si Si2 0.804874 0.891311 0.534707
Si Si3 0.365025 0.412517 0.726692
Si Si4 0.595906 0.258953 0.464113
Si Si5 0.305609 0.532964 0.423618
Si Si6 0.221412 0.364053 0.291157
O O1 0.699054 0.993111 0.143553
O O2 0.490467 0.125106 0.081929
O O3 0.597964 0.900498 0.178939
O O4 0.327571 0.931330 0.985282
O O5 0.750000 0.750000 0.500000
O O6 0.009807 0.911639 0.656394
O O7 0.772832 0.966509 0.463561
O O8 0.500000 0.445301 0.750000
O O9 0.311815 0.267109 0.696845
O O10 0.750000 0.250000 0.500000
O O11 0.692407 0.320385 0.564834
O O12 0.422343 0.347642 0.370742
O O13 0.500000 0.500000 0.500000
O O14 0.190539 0.471865 0.318359
#
# Coordination Sequence:
#
# PCOD9275895 Si02
#       6
#     8   8   8   8   8   8
#     4  11  24  41  70  99 137 182 227 284 350 399
#     4  12  23  42  71  97 137 183 227 282 345 404
#     4  11  24  42  66  98 137 176 234 288 336 409
#     4  10  20  39  65  94 134 174 218 290 342 382
#     4  10  21  40  69  97 131 174 231 280 332 403
#     4  10  22  41  67 101 131 177 240 275 327 425
#
# _framework density 23.412503000000001
#
# number of rings (size 3 to 8) (size 9 to 14) (size 15 to 20)
#    0.000    1.333    3.333    3.000    0.000    0.667 
#    0.000    0.000    3.667    0.000    0.000    0.000 
#    0.000    0.000    0.000    0.000    0.000    0.000 
#
# Total GULP energy -133689.902198 kJ/mol
# GULP energy per Si atom -5570.412592 kJ/mol
# Density = 2.335922 g / cm^3
# Si number density = 23.412503 Si / 1000 Ang^3
#
#
#
# Elastic Constant Matrix: (Units=GPa)
#
#
# Indices 1 2 3 4 5 6 
#
# 1 119.9274 11.4949 22.7959 0.0000 36.0412 0.0000
# 2 11.4949 67.9326 -0.7767 0.0001 12.3296 0.0000
# 3 22.7959 -0.7767 49.4075 0.0002 22.9210 0.0000
# 4 0.0000 0.0001 0.0002 34.6373 0.0000 3.9990
# 5 36.0412 12.3296 22.9210 0.0000 43.9178 0.0000
# 6 0.0000 0.0000 0.0000 3.9990 0.0000 44.3050
#
#
#
# Elastic Compliance Matrix: (Units=1/GPa)
#
#
# Indices 1 2 3 4 5 6 
#
# 1 0.011129 -0.000378 -0.001257 0.000000 -0.008371 0.000000
# 2 -0.000378 0.015865 0.003096 0.000000 -0.005759 0.000000
# 3 -0.001257 0.003096 0.027436 0.000000 -0.014156 0.000000
# 4 0.000000 0.000000 0.000000 0.029175 0.000000 -0.002633
# 5 -0.008371 -0.005759 -0.014156 0.000000 0.038644 0.000000
# 6 0.000000 0.000000 0.000000 -0.002633 0.000000 0.022809
#
#
# Mechanical properties :
#
#
# Convention : Reuss Voigt Hill
#
# Bulk Modulus (GPa) = 17.43665 33.81064 25.62365
# Shear Modulus (GPa) = 31.00680 38.15556 34.58118
#
# Velocity S-wave (km/s) = 3.64314 4.04134 3.84740
# Velocity P-wave (km/s) = 5.01601 6.02073 5.54119
#
# Compressibility (1/GPa) = 0.05735047
#
# Stress axis : x y z
#
# Youngs Moduli (GPa) = 89.85298 63.03112 36.44844
#
# Poissons Ratio (x) = 0.02384 0.04583
# Poissons Ratio (y) = 0.03399 -0.11284
# Poissons Ratio (z) = 0.11299 -0.19513
#
# Static dielectric constant tensor:
#      x y z
#    x 2.013120 0.000000 0.086140 
#    y 0.000000 1.909400 0.000000 
#    z 0.086140 0.000000 2.110720 
# 
# From -- ./inp_files/296188.got.cif
#   From: 2010.05.17/outbox.cif.g08.bks.cpg/sg15_149_cif.got.tgz:296188.got - 2010.06.03 18:47:42.
