data_PCOD9275183
_publ_section_title
;
Structure prediction by ZEFSAII (Michael W. Deem and Ramdas Pophale) SiO2 
 PCOD9275183
Probable space group: C 2/C
;
_chemical_formula_sum "Si O2"
_cell_formula_units_Z 56
_cell_length_a 11.467219
_cell_length_b 20.334134
_cell_length_c 12.251353
_cell_angle_alpha 90.000000
_cell_angle_beta 105.478623
_cell_angle_gamma 90.000000
_cell_volume 2753.108082
_symmetry_space_group_name_H-M "C 2/C"
_symmetry_group_IT_number 15
_symmetry_cell_setting 'monoclinic'
loop_
_space_group_symop_operation_xyz
x,y,z
-x,y,1/2-z
-x,-y,-z
x,-y,1/2+z
1/2+x,1/2+y,z
1/2-x,1/2+y,1/2-z
1/2-x,1/2-y,-z
1/2+x,1/2-y,1/2+z
loop_
_atom_site_type_symbol
_atom_site_label
_atom_site_fract_x
_atom_site_fract_y
_atom_site_fract_z
Si Si1 0.193538 0.551240 0.140330
Si Si2 0.133616 0.989931 0.617963
Si Si3 0.134508 0.228609 0.543539
Si Si4 0.565515 0.613074 0.379019
Si Si5 0.782183 0.422009 0.466302
Si Si6 0.506937 0.841997 0.875722
Si Si7 0.629915 0.629963 0.725874
O O1 0.270007 0.531025 0.265343
O O2 0.293850 0.593322 0.098804
O O3 0.151018 0.485796 0.067579
O O4 0.082681 0.596054 0.144196
O O5 0.186837 0.957499 0.522414
O O6 0.007715 0.952560 0.607204
O O7 0.121160 0.067324 0.640730
O O8 0.250000 0.250000 0.500000
O O9 0.058920 0.173952 0.458545
O O10 0.049047 0.288749 0.556100
O O11 0.172203 0.191630 0.664678
O O12 0.500000 0.633182 0.250000
O O13 0.718222 0.387595 0.347611
O O14 0.864796 0.370540 0.552263
O O15 0.500000 0.815917 0.750000
O O16 0.500000 0.640772 0.750000
#
# Coordination Sequence:
#
# PCOD9275183 Si02
#       7
#     8   8   8   8   8   8   8
#     4  10  20  40  64  96 129 167 214 272 331 389
#     4  10  20  38  71 102 128 163 217 287 338 389
#     4  12  26  44  65  91 138 182 223 275 326 397
#     4  10  21  40  70  98 126 170 223 275 336 391
#     4  11  23  40  69  99 132 172 220 272 337 398
#     4  12  25  45  63  92 136 182 220 263 329 401
#     4  11  24  44  68 104 136 170 224 286 337 389
#
# _framework density 20.340648000000002
#
# number of rings (size 3 to 8) (size 9 to 14) (size 15 to 20)
#    0.000    1.143    2.857    4.714    0.000    2.857 
#    0.000    2.143    0.000    0.000    0.000    0.000 
#    0.000    0.000    0.000    0.000    0.000    0.000 
#
# Total GULP energy -156413.259907 kJ/mol
# GULP energy per Si atom -5586.187854 kJ/mol
# Density = 2.029435 g / cm^3
# Si number density = 20.340648 Si / 1000 Ang^3
#
#
#
# Elastic Constant Matrix: (Units=GPa)
#
#
# Indices 1 2 3 4 5 6 
#
# 1 80.3304 28.3716 40.7327 0.0000 -3.6487 0.0000
# 2 28.3716 87.3407 41.6354 0.0000 -4.9320 0.0000
# 3 40.7327 41.6354 102.1370 0.0000 -4.0621 0.0000
# 4 0.0000 0.0000 0.0000 25.7618 0.0000 -16.0805
# 5 -3.6487 -4.9320 -4.0621 0.0000 32.9664 0.0000
# 6 0.0000 0.0000 0.0000 -16.0805 0.0000 29.3370
#
#
#
# Elastic Compliance Matrix: (Units=1/GPa)
#
#
# Indices 1 2 3 4 5 6 
#
# 1 0.016116 -0.002661 -0.005313 0.000000 0.000731 0.000000
# 2 -0.002661 0.014717 -0.004886 0.000000 0.001305 0.000000
# 3 -0.005313 -0.004886 0.013917 0.000000 0.000396 0.000000
# 4 0.000000 0.000000 0.000000 0.059005 0.000000 0.032343
# 5 0.000731 0.001305 0.000396 0.000000 0.030659 0.000000
# 6 0.000000 0.000000 0.000000 0.032343 0.000000 0.051815
#
#
# Mechanical properties :
#
#
# Convention : Reuss Voigt Hill
#
# Bulk Modulus (GPa) = 52.55081 54.58750 53.56916
# Shear Modulus (GPa) = 22.90510 28.21760 25.56135
#
# Velocity S-wave (km/s) = 3.35935 3.72862 3.54879
# Velocity P-wave (km/s) = 6.39831 6.74031 6.57154
#
# Compressibility (1/GPa) = 0.01902920
#
# Stress axis : x y z
#
# Youngs Moduli (GPa) = 62.05108 67.95018 71.85341
#
# Poissons Ratio (x) = 0.18081 0.38178
# Poissons Ratio (y) = 0.16511 0.35108
# Poissons Ratio (z) = 0.32969 0.33201
#
# Static dielectric constant tensor:
#      x y z
#    x 1.704080 0.000000 -0.025700 
#    y 0.000000 1.723390 0.000000 
#    z -0.025700 0.000000 1.786090 
# 
# From -- ./inp_files/89031.got.cif
#   From: 2010.05.17/outbox.cif.g08.bks.cpg/sg15_45_cif.got.tgz:89031.got - 2010.06.03 18:47:42.
