data_PCOD9275893
_publ_section_title
;
Structure prediction by ZEFSAII (Michael W. Deem and Ramdas Pophale) SiO2 
 PCOD9275893
Probable space group: C 2/C
;
_chemical_formula_sum "Si O2"
_cell_formula_units_Z 60
_cell_length_a 11.091526
_cell_length_b 16.823559
_cell_length_c 15.150815
_cell_angle_alpha 90.000000
_cell_angle_beta 113.137571
_cell_angle_gamma 90.000000
_cell_volume 2599.723422
_symmetry_space_group_name_H-M "C 2/C"
_symmetry_group_IT_number 15
_symmetry_cell_setting 'monoclinic'
loop_
_space_group_symop_operation_xyz
x,y,z
-x,y,1/2-z
-x,-y,-z
x,-y,1/2+z
1/2+x,1/2+y,z
1/2-x,1/2+y,1/2-z
1/2-x,1/2-y,-z
1/2+x,1/2-y,1/2+z
loop_
_atom_site_type_symbol
_atom_site_label
_atom_site_fract_x
_atom_site_fract_y
_atom_site_fract_z
Si Si1 0.378870 0.944394 0.668584
Si Si2 0.500000 0.535048 0.750000
Si Si3 0.920788 0.672483 0.038818
Si Si4 0.354260 0.322536 0.117826
Si Si5 0.706305 0.304988 0.098239
Si Si6 0.745146 0.703727 0.230983
Si Si7 0.388388 0.523724 0.896918
Si Si8 0.464708 0.764436 0.100121
O O1 0.500000 0.988126 0.750000
O O2 0.451665 0.900634 0.609002
O O3 0.312239 0.874037 0.709182
O O4 0.251795 0.994220 0.608562
O O5 0.592529 0.594576 0.832356
O O6 0.424350 0.491622 0.808454
O O7 0.943103 0.757324 0.093358
O O8 0.763577 0.664406 0.983605
O O9 0.976665 0.677461 0.957555
O O10 0.301791 0.274999 0.187115
O O11 0.709006 0.224280 0.157387
O O12 0.638017 0.381877 0.120708
O O13 0.863524 0.313892 0.130369
O O14 0.630427 0.293428 0.984051
O O15 0.587166 0.715310 0.175586
O O16 0.500000 0.500000 0.000000
#
# Coordination Sequence:
#
# PCOD9275893 Si02
#       8
#     8   4   8   8   8   8   8   8
#     4  11  24  41  64  96 134 180 227 286 347 413
#     4  12  22  42  70  96 124 188 242 282 344 424
#     4   9  18  36  59  94 128 161 208 283 344 398
#     4   9  18  32  65  94 117 153 227 278 324 408
#     4  11  22  41  66  96 134 175 229 281 350 413
#     4  10  20  39  65  94 129 168 219 283 339 408
#     4  12  27  48  68  97 144 193 238 292 352 430
#     4  10  21  36  63 103 127 168 218 285 347 411
#
# _framework density 23.079378999999999
#
# number of rings (size 3 to 8) (size 9 to 14) (size 15 to 20)
#    0.000    1.600    1.333    4.400    3.733    1.067 
#    9.600    0.667    0.000    0.000    0.000    0.000 
#    0.000    0.000    0.000    0.000    0.000    0.000 
#
# Total GULP energy -167317.957487 kJ/mol
# GULP energy per Si atom -5577.265250 kJ/mol
# Density = 2.302685 g / cm^3
# Si number density = 23.079379 Si / 1000 Ang^3
#
#
#
# Elastic Constant Matrix: (Units=GPa)
#
#
# Indices 1 2 3 4 5 6 
#
# 1 100.4203 -1.2930 20.1439 0.0000 17.8611 0.0000
# 2 -1.2930 33.7314 0.6711 0.0000 4.9396 0.0000
# 3 20.1439 0.6711 81.2783 0.0000 19.3322 0.0000
# 4 0.0000 0.0000 0.0000 19.3932 0.0000 4.1904
# 5 17.8611 4.9396 19.3322 0.0000 52.7965 0.0000
# 6 0.0000 0.0000 0.0000 4.1904 0.0000 27.8744
#
#
#
# Elastic Compliance Matrix: (Units=1/GPa)
#
#
# Indices 1 2 3 4 5 6 
#
# 1 0.010910 0.000904 -0.001986 0.000000 -0.003048 0.000000
# 2 0.000904 0.030148 0.000296 0.000000 -0.003235 0.000000
# 3 -0.001986 0.000296 0.013846 0.000000 -0.004426 0.000000
# 4 0.000000 0.000000 0.000000 0.053296 0.000000 -0.008012
# 5 -0.003048 -0.003235 -0.004426 0.000000 0.021895 0.000000
# 6 0.000000 0.000000 0.000000 -0.008012 0.000000 0.037080
#
#
# Mechanical properties :
#
#
# Convention : Reuss Voigt Hill
#
# Bulk Modulus (GPa) = 18.75009 28.27489 23.51249
# Shear Modulus (GPa) = 26.80611 33.07336 29.93974
#
# Velocity S-wave (km/s) = 3.41174 3.78964 3.60564
# Velocity P-wave (km/s) = 4.86434 5.60591 5.24824
#
# Compressibility (1/GPa) = 0.05333307
#
# Stress axis : x y z
#
# Youngs Moduli (GPa) = 91.65536 33.16917 72.22346
#
# Poissons Ratio (x) = -0.02999 0.14347
# Poissons Ratio (y) = -0.08287 -0.02141
# Poissons Ratio (z) = 0.18207 -0.00983
#
# Static dielectric constant tensor:
#      x y z
#    x 1.981890 0.000000 -0.001490 
#    y 0.000000 1.861450 0.000000 
#    z -0.001490 0.000000 1.902750 
# 
# From -- ./inp_files/146131.got.cif
#   From: 2010.05.17/outbox.cif.g08.bks.cpg/sg15_74_cif.got.tgz:146131.got - 2010.06.03 18:47:42.
