data_PCOD9275598
_publ_section_title
;
Structure prediction by ZEFSAII (Michael W. Deem and Ramdas Pophale) SiO2 
 PCOD9275598
Probable space group: C 2/C
;
_chemical_formula_sum "Si O2"
_cell_formula_units_Z 44
_cell_length_a 18.526415
_cell_length_b 15.929659
_cell_length_c 8.415647
_cell_angle_alpha 90.000000
_cell_angle_beta 108.424679
_cell_angle_gamma 90.000000
_cell_volume 2356.310794
_symmetry_space_group_name_H-M "C 2/C"
_symmetry_group_IT_number 15
_symmetry_cell_setting 'monoclinic'
loop_
_space_group_symop_operation_xyz
x,y,z
-x,y,1/2-z
-x,-y,-z
x,-y,1/2+z
1/2+x,1/2+y,z
1/2-x,1/2+y,1/2-z
1/2-x,1/2-y,-z
1/2+x,1/2-y,1/2+z
loop_
_atom_site_type_symbol
_atom_site_label
_atom_site_fract_x
_atom_site_fract_y
_atom_site_fract_z
Si Si1 0.935473 0.937572 0.519311
Si Si2 0.000000 0.214097 0.250000
Si Si3 0.343556 0.797385 0.227860
Si Si4 0.726478 0.139131 0.143266
Si Si5 0.786671 0.658402 0.023931
Si Si6 0.673926 0.474741 0.322395
O O1 0.970018 0.848855 0.592236
O O2 0.897841 0.982779 0.643181
O O3 0.863329 0.928020 0.352750
O O4 0.000000 0.000000 0.500000
O O5 0.070462 0.267666 0.236995
O O6 0.289674 0.713918 0.191695
O O7 0.332768 0.844215 0.389782
O O8 0.317477 0.849276 0.053716
O O9 0.679021 0.146434 0.275342
O O10 0.769004 0.050152 0.175966
O O11 0.750000 0.750000 0.000000
O O12 0.718753 0.591418 0.959647
#
# Coordination Sequence:
#
# PCOD9275598 Si02
#       6
#     8   4   8   8   8   8
#     4  12  22  35  56  91 130 168 190 246 326 395
#     4  12  24  40  60  88 142 168 198 250 332 400
#     4  10  22  40  59  88 125 169 207 256 313 374
#     4  10  20  39  63  88 120 163 216 260 307 365
#     4  10  23  37  60  90 122 158 214 268 306 363
#     4  12  21  38  61  92 123 159 215 263 311 377
#
# _framework density 18.673258000000001
#
# number of rings (size 3 to 8) (size 9 to 14) (size 15 to 20)
#    0.000    1.091    5.455    1.091    7.636    0.000 
#    0.000    0.909    0.000    1.091    0.000    0.000 
#    0.000    0.000    0.000    0.000    0.000    0.000 
#
# Total GULP energy -122705.089073 kJ/mol
# GULP energy per Si atom -5577.504049 kJ/mol
# Density = 1.863076 g / cm^3
# Si number density = 18.673258 Si / 1000 Ang^3
#
#
#
# Elastic Constant Matrix: (Units=GPa)
#
#
# Indices 1 2 3 4 5 6 
#
# 1 97.1876 24.6794 54.2298 0.0000 -9.9565 0.0000
# 2 24.6794 57.6728 38.9593 0.0000 3.3528 0.0000
# 3 54.2298 38.9593 141.1064 0.0000 -21.1141 0.0000
# 4 0.0000 0.0000 0.0000 28.4981 0.0000 2.2466
# 5 -9.9565 3.3528 -21.1141 0.0000 24.3367 0.0000
# 6 0.0000 0.0000 0.0000 2.2466 0.0000 28.5290
#
#
#
# Elastic Compliance Matrix: (Units=1/GPa)
#
#
# Indices 1 2 3 4 5 6 
#
# 1 0.013584 -0.003324 -0.003910 0.000000 0.002623 0.000000
# 2 -0.003324 0.024104 -0.006985 0.000000 -0.010741 0.000000
# 3 -0.003910 -0.006985 0.011978 0.000000 0.009754 0.000000
# 4 0.000000 0.000000 0.000000 0.035309 0.000000 -0.002781
# 5 0.002623 -0.010741 0.009754 0.000000 0.052105 0.000000
# 6 0.000000 0.000000 0.000000 -0.002781 0.000000 0.035271
#
#
# Mechanical properties :
#
#
# Convention : Reuss Voigt Hill
#
# Bulk Modulus (GPa) = 47.10787 59.07819 53.09303
# Shear Modulus (GPa) = 24.05392 28.14599 26.09996
#
# Velocity S-wave (km/s) = 3.59297 3.88659 3.74266
# Velocity P-wave (km/s) = 6.51880 7.20051 6.86812
#
# Compressibility (1/GPa) = 0.02122787
#
# Stress axis : x y z
#
# Youngs Moduli (GPa) = 73.61548 41.48620 83.48780
#
# Poissons Ratio (x) = 0.13789 0.32648
# Poissons Ratio (y) = 0.24468 0.58316
# Poissons Ratio (z) = 0.28787 0.28978
#
# Static dielectric constant tensor:
#      x y z
#    x 1.628680 0.000000 -0.051300 
#    y 0.000000 1.614560 0.000000 
#    z -0.051300 0.000000 1.767760 
# 
# From -- ./inp_files/55481.got.cif
#   From: 2010.05.17/outbox.cif.g08.bks.cpg/sg15_28_cif.got.tgz:55481.got - 2010.06.03 18:47:42.
