data_PCOD9275958
_publ_section_title
;
Structure prediction by ZEFSAII (Michael W. Deem and Ramdas Pophale) SiO2 
 PCOD9275958
Probable space group: C 2/C
;
_chemical_formula_sum "Si O2"
_cell_formula_units_Z 40
_cell_length_a 8.619257
_cell_length_b 16.656314
_cell_length_c 25.384981
_cell_angle_alpha 90.000000
_cell_angle_beta 31.482111
_cell_angle_gamma 90.000000
_cell_volume 1903.221449
_symmetry_space_group_name_H-M "C 2/C"
_symmetry_group_IT_number 15
_symmetry_cell_setting 'monoclinic'
loop_
_space_group_symop_operation_xyz
x,y,z
-x,y,1/2-z
-x,-y,-z
x,-y,1/2+z
1/2+x,1/2+y,z
1/2-x,1/2+y,1/2-z
1/2-x,1/2-y,-z
1/2+x,1/2-y,1/2+z
loop_
_atom_site_type_symbol
_atom_site_label
_atom_site_fract_x
_atom_site_fract_y
_atom_site_fract_z
Si Si1 0.565456 0.191472 0.851331
Si Si2 0.007781 0.863638 0.362105
Si Si3 0.276420 0.022930 0.639193
Si Si4 0.839804 0.931889 0.512134
Si Si5 0.629858 0.277421 0.938825
O O1 0.615120 0.104084 0.862907
O O2 0.683407 0.253091 0.862259
O O3 0.737620 0.180282 0.746383
O O4 0.220563 0.212831 0.949322
O O5 0.874214 0.940212 0.369252
O O6 0.067091 0.894721 0.403381
O O7 0.753840 0.795930 0.437049
O O8 0.000000 0.984706 0.750000
O O9 0.559451 0.965998 0.560729
O O10 0.735490 0.861351 0.581376
O O11 0.000000 0.000000 0.500000
#
# Coordination Sequence:
#
# PCOD9275958 Si02
#       5
#     8   8   8   8   8
#     4   9  19  41  67  90 124 180 217 259 322 389
#     4  10  22  41  66  91 130 178 219 259 326 393
#     4   9  19  41  63  89 130 174 209 256 331 394
#     4  12  23  39  63 100 132 163 219 278 325 381
#     4  10  20  39  66  91 128 169 221 267 316 382
#
# _framework density 21.016997
#
# number of rings (size 3 to 8) (size 9 to 14) (size 15 to 20)
#    0.000    2.000    2.000    3.000    0.000    0.800 
#    3.600    6.000    0.000    0.000    0.000    0.000 
#    0.000    0.000    0.000    0.000    0.000    0.000 
#
# Total GULP energy -111459.719159 kJ/mol
# GULP energy per Si atom -5572.985958 kJ/mol
# Density = 2.096916 g / cm^3
# Si number density = 21.016997 Si / 1000 Ang^3
#
#
#
# Elastic Constant Matrix: (Units=GPa)
#
#
# Indices 1 2 3 4 5 6 
#
# 1 68.5609 36.0346 53.5849 -0.0197 19.4705 -0.0517
# 2 36.0346 65.1139 32.8778 -0.0290 19.0303 -0.0003
# 3 53.5849 32.8778 140.3413 0.0138 13.5045 -0.1936
# 4 -0.0197 -0.0290 0.0138 17.6202 0.0036 -24.1693
# 5 19.4705 19.0303 13.5045 0.0036 33.2028 0.0991
# 6 -0.0517 -0.0003 -0.1936 -24.1693 0.0991 24.0496
#
#
#
# Elastic Compliance Matrix: (Units=1/GPa)
#
#
# Indices 1 2 3 4 5 6 
#
# 1 0.027569 -0.009109 -0.007638 -0.000171 -0.007839 -0.000142
# 2 -0.009109 0.023203 -0.001241 -0.000086 -0.007452 -0.000085
# 3 -0.007638 -0.001241 0.010233 -0.000174 0.001028 -0.000113
# 4 -0.000171 -0.000086 -0.000174 -0.149924 0.000686 -0.150674
# 5 -0.007839 -0.007452 0.001028 0.000686 0.038566 0.000521
# 6 -0.000142 -0.000085 -0.000113 -0.150674 0.000521 -0.109846
#
#
# Mechanical properties :
#
#
# Convention : Reuss Voigt Hill
#
# Bulk Modulus (GPa) = 39.95320 57.66783 48.81052
# Shear Modulus (GPa) = -43.14870 25.07578 -9.03646
#
# Velocity S-wave (km/s) = -4.53596 3.45790 -2.07580
# Velocity P-wave (km/s) = 2.89518 6.59098 4.18682
#
# Compressibility (1/GPa) = 0.02502928
#
# Stress axis : x y z
#
# Youngs Moduli (GPa) = 36.27269 43.09717 97.71859
#
# Poissons Ratio (x) = 0.39259 0.74639
# Poissons Ratio (y) = 0.33042 0.12124
# Poissons Ratio (z) = 0.27706 0.05347
#
# Static dielectric constant tensor:
#      x y z
#    x 1.827030 0.000010 0.020540 
#    y 0.000010 1.739070 -0.000050 
#    z 0.020540 -0.000050 1.817370 
# 
# From -- ./inp_files/134220.got.cif
#   From: 2010.05.17/outbox.cif.g08.bks.cpg/sg15_68_cif.got.tgz:134220.got - 2010.06.03 18:47:42.
