data_PCOD9275342
_publ_section_title
;
Structure prediction by ZEFSAII (Michael W. Deem and Ramdas Pophale) SiO2 
 PCOD9275342
Probable space group: C 2/C
;
_chemical_formula_sum "Si O2"
_cell_formula_units_Z 48
_cell_length_a 10.439262
_cell_length_b 17.285839
_cell_length_c 22.010513
_cell_angle_alpha 90.000000
_cell_angle_beta 32.638222
_cell_angle_gamma 90.000000
_cell_volume 2142.136544
_symmetry_space_group_name_H-M "C 2/C"
_symmetry_group_IT_number 15
_symmetry_cell_setting 'monoclinic'
loop_
_space_group_symop_operation_xyz
x,y,z
-x,y,1/2-z
-x,-y,-z
x,-y,1/2+z
1/2+x,1/2+y,z
1/2-x,1/2+y,1/2-z
1/2-x,1/2-y,-z
1/2+x,1/2-y,1/2+z
loop_
_atom_site_type_symbol
_atom_site_label
_atom_site_fract_x
_atom_site_fract_y
_atom_site_fract_z
Si Si1 0.094806 0.823159 0.584665
Si Si2 0.826442 0.135174 0.659717
Si Si3 0.638589 0.067149 0.607786
Si Si4 0.149576 0.608751 0.071042
Si Si5 0.241499 0.739336 0.135333
Si Si6 0.329002 0.808018 0.611149
O O1 0.250000 0.750000 0.500000
O O2 0.209137 0.898120 0.507979
O O3 0.120952 0.826429 0.646365
O O4 0.846317 0.804625 0.652242
O O5 0.765850 0.094580 0.619117
O O6 0.623226 0.105310 0.785904
O O7 0.796431 0.226370 0.658819
O O8 0.098584 0.115726 0.565522
O O9 0.626486 0.975525 0.608829
O O10 0.178724 0.674034 0.110829
O O11 0.925904 0.628029 0.118148
O O12 0.000000 0.781480 0.250000
O O13 0.443640 0.791000 0.024108
#
# Coordination Sequence:
#
# PCOD9275342 Si02
#       6
#     8   8   8   8   8   8
#     4  10  20  39  60  88 123 164 209 252 314 388
#     4  10  21  40  65  89 124 169 216 254 316 383
#     4  11  22  37  67  92 123 168 214 261 317 375
#     4  11  23  39  62  96 128 157 211 275 315 362
#     4  10  21  37  63  91 120 165 217 260 308 381
#     4  10  22  42  61  93 130 166 205 268 321 379
#
# _framework density 22.407533999999998
#
# number of rings (size 3 to 8) (size 9 to 14) (size 15 to 20)
#    0.000    1.667    5.000    2.500    2.333    6.000 
#    0.000    0.000    0.000    2.000    0.000    0.000 
#    0.000    0.000    0.000    0.000    0.000    0.000 
#
# Total GULP energy -134273.937884 kJ/mol
# GULP energy per Si atom -5594.747412 kJ/mol
# Density = 2.235653 g / cm^3
# Si number density = 22.407534 Si / 1000 Ang^3
#
#
#
# Elastic Constant Matrix: (Units=GPa)
#
#
# Indices 1 2 3 4 5 6 
#
# 1 110.1085 4.2894 5.1440 -0.0037 -3.6450 -0.0010
# 2 4.2894 50.1168 -20.4774 0.0030 10.0098 0.0029
# 3 5.1440 -20.4774 67.9524 0.0099 -4.5943 -0.0091
# 4 -0.0037 0.0030 0.0099 8.7468 0.0115 -8.7429
# 5 -3.6450 10.0098 -4.5943 0.0115 35.4773 0.0054
# 6 -0.0010 0.0029 -0.0091 -8.7429 0.0054 21.7414
#
#
#
# Elastic Compliance Matrix: (Units=1/GPa)
#
#
# Indices 1 2 3 4 5 6 
#
# 1 0.009229 -0.001467 -0.001058 0.000006 0.001225 0.000002
# 2 -0.001467 0.024139 0.006976 -0.000013 -0.006058 -0.000004
# 3 -0.001058 0.006976 0.016906 -0.000027 0.000112 -0.000005
# 4 0.000006 -0.000013 -0.000027 0.191169 -0.000073 0.076876
# 5 0.001225 -0.006058 0.000112 -0.000073 0.030037 -0.000036
# 6 0.000002 -0.000004 -0.000005 0.076876 -0.000036 0.076909
#
#
# Mechanical properties :
#
#
# Convention : Reuss Voigt Hill
#
# Bulk Modulus (GPa) = 16.89862 22.89887 19.89874
# Shear Modulus (GPa) = 13.91931 29.14120 21.53025
#
# Velocity S-wave (km/s) = 2.49507 3.61017 3.10312
# Velocity P-wave (km/s) = 3.98226 5.25540 4.66249
#
# Compressibility (1/GPa) = 0.05917644
#
# Stress axis : x y z
#
# Youngs Moduli (GPa) = 108.35327 41.42644 59.15064
#
# Poissons Ratio (x) = 0.06076 0.06257
# Poissons Ratio (y) = 0.15893 -0.41262
# Poissons Ratio (z) = 0.11462 -0.28898
#
# Static dielectric constant tensor:
#      x y z
#    x 1.865040 0.000000 -0.006950 
#    y 0.000000 1.753890 0.000010 
#    z -0.006950 0.000010 1.953850 
# 
# From -- ./inp_files/270536.got.cif
#   From: 2010.05.17/outbox.cif.g08.bks.cpg/sg15_136_cif.got.tgz:270536.got - 2010.06.03 18:47:42.
