data_PCOD9275562
_publ_section_title
;
Structure prediction by ZEFSAII (Michael W. Deem and Ramdas Pophale) SiO2 
 PCOD9275562
Probable space group: C 2/C
;
_chemical_formula_sum "Si O2"
_cell_formula_units_Z 64
_cell_length_a 15.894024
_cell_length_b 18.510126
_cell_length_c 13.245059
_cell_angle_alpha 90.000000
_cell_angle_beta 134.809623
_cell_angle_gamma 90.000000
_cell_volume 2764.524145
_symmetry_space_group_name_H-M "C 2/C"
_symmetry_group_IT_number 15
_symmetry_cell_setting 'monoclinic'
loop_
_space_group_symop_operation_xyz
x,y,z
-x,y,1/2-z
-x,-y,-z
x,-y,1/2+z
1/2+x,1/2+y,z
1/2-x,1/2+y,1/2-z
1/2-x,1/2-y,-z
1/2+x,1/2-y,1/2+z
loop_
_atom_site_type_symbol
_atom_site_label
_atom_site_fract_x
_atom_site_fract_y
_atom_site_fract_z
Si Si1 0.644661 0.995766 0.039940
Si Si2 0.344568 0.604399 0.707054
Si Si3 0.495227 0.855134 0.856655
Si Si4 0.115406 0.889427 0.479764
Si Si5 0.446891 0.261412 0.925100
Si Si6 0.782596 0.192466 0.860345
Si Si7 0.371534 0.106602 0.619714
Si Si8 0.321525 0.027432 0.211395
O O1 0.628527 0.991841 0.145909
O O2 0.779708 0.971819 0.140651
O O3 0.629843 0.079275 0.996106
O O4 0.573247 0.928421 0.931722
O O5 0.330880 0.638307 0.582816
O O6 0.480929 0.591633 0.841806
O O7 0.296986 0.648713 0.764883
O O8 0.500000 0.820046 0.750000
O O9 0.365549 0.890084 0.750308
O O10 0.531792 0.802775 0.976057
O O11 0.102531 0.828653 0.553056
O O12 0.183454 0.959959 0.577911
O O13 0.335678 0.241300 0.758941
O O14 0.584025 0.277135 0.004837
O O15 0.736473 0.146185 0.917472
O O16 0.500000 0.140629 0.750000
O O17 0.368518 0.026230 0.666435
#
# Coordination Sequence:
#
# PCOD9275562 Si02
#       8
#     8   8   8   8   8   8   8   8
#     4  12  22  39  67  99 132 170 224 281 345 401
#     4  10  20  39  63 100 136 177 212 277 357 410
#     4  12  22  37  66 103 129 169 222 288 349 407
#     4  10  23  39  61  99 144 178 222 272 347 416
#     4  11  25  44  69 101 140 188 231 279 346 424
#     4  11  25  45  71  96 142 185 231 286 349 408
#     4  12  24  43  69 101 137 177 227 294 344 405
#     4  12  22  39  65  99 137 172 223 287 346 412
#
# _framework density 23.150458
#
# number of rings (size 3 to 8) (size 9 to 14) (size 15 to 20)
#    0.000    0.750    6.250    1.125    5.250    1.000 
#    0.000    0.625    0.000    0.000    0.000    0.000 
#    0.000    0.000    0.000    0.000    0.000    0.000 
#
# Total GULP energy -178368.959260 kJ/mol
# GULP energy per Si atom -5574.029977 kJ/mol
# Density = 2.309777 g / cm^3
# Si number density = 23.150458 Si / 1000 Ang^3
#
#
#
# Elastic Constant Matrix: (Units=GPa)
#
#
# Indices 1 2 3 4 5 6 
#
# 1 82.0604 21.5221 14.8709 0.0000 27.9073 0.0000
# 2 21.5221 27.7293 17.6619 0.0000 15.8335 0.0000
# 3 14.8709 17.6619 65.4495 0.0000 19.6464 0.0000
# 4 0.0000 0.0000 0.0000 17.8559 0.0000 6.5785
# 5 27.9073 15.8335 19.6464 0.0000 22.2060 0.0000
# 6 0.0000 0.0000 0.0000 6.5785 0.0000 33.4102
#
#
#
# Elastic Compliance Matrix: (Units=1/GPa)
#
#
# Indices 1 2 3 4 5 6 
#
# 1 0.022404 -0.003285 0.004827 0.000000 -0.030084 0.000000
# 2 -0.003285 0.062356 -0.005411 0.000000 -0.035546 0.000000
# 3 0.004827 -0.005411 0.022201 0.000000 -0.021850 0.000000
# 4 0.000000 0.000000 0.000000 0.060384 0.000000 -0.011890
# 5 -0.030084 -0.035546 -0.021850 0.000000 0.127517 0.000000
# 6 0.000000 0.000000 0.000000 -0.011890 0.000000 0.032272
#
#
# Mechanical properties :
#
#
# Convention : Reuss Voigt Hill
#
# Bulk Modulus (GPa) = 10.07833 31.48321 20.78077
# Shear Modulus (GPa) = 13.58890 22.77338 18.18114
#
# Velocity S-wave (km/s) = 2.42540 3.13982 2.80544
# Velocity P-wave (km/s) = 3.49375 5.17432 4.41474
#
# Compressibility (1/GPa) = 0.09922283
#
# Stress axis : x y z
#
# Youngs Moduli (GPa) = 44.63475 16.03697 45.04260
#
# Poissons Ratio (x) = 0.05268 -0.21740
# Poissons Ratio (y) = 0.14663 0.24371
# Poissons Ratio (z) = -0.21543 0.08677
#
# Static dielectric constant tensor:
#      x y z
#    x 1.965090 0.000000 0.008040 
#    y 0.000000 1.890690 0.000000 
#    z 0.008040 0.000000 1.947870 
# 
# From -- ./inp_files/163307.got.cif
#   From: 2010.05.17/outbox.cif.g08.bks.cpg/sg15_82_cif.got.tgz:163307.got - 2010.06.03 18:47:42.
