data_PCOD9275018
_publ_section_title
;
Structure prediction by ZEFSAII (Michael W. Deem and Ramdas Pophale) SiO2 
 PCOD9275018
Probable space group: C 2/C
;
_chemical_formula_sum "Si O2"
_cell_formula_units_Z 56
_cell_length_a 15.317119
_cell_length_b 5.913636
_cell_length_c 28.598629
_cell_angle_alpha 90.000000
_cell_angle_beta 71.541508
_cell_angle_gamma 90.000000
_cell_volume 2457.189317
_symmetry_space_group_name_H-M "C 2/C"
_symmetry_group_IT_number 15
_symmetry_cell_setting 'monoclinic'
loop_
_space_group_symop_operation_xyz
x,y,z
-x,y,1/2-z
-x,-y,-z
x,-y,1/2+z
1/2+x,1/2+y,z
1/2-x,1/2+y,1/2-z
1/2-x,1/2-y,-z
1/2+x,1/2-y,1/2+z
loop_
_atom_site_type_symbol
_atom_site_label
_atom_site_fract_x
_atom_site_fract_y
_atom_site_fract_z
Si Si1 0.842414 0.895991 0.486420
Si Si2 0.848587 0.236466 0.646946
Si Si3 0.217424 0.908491 0.905920
Si Si4 0.002977 0.560768 0.444178
Si Si5 0.380087 0.750157 0.406763
Si Si6 0.176909 0.963820 0.159471
Si Si7 0.698372 0.763784 0.751328
O O1 0.750000 0.750000 0.500000
O O2 0.928144 0.759255 0.452199
O O3 0.853493 0.931793 0.539698
O O4 0.833160 0.116811 0.457440
O O5 0.834217 0.982384 0.632189
O O6 0.747008 0.346517 0.666004
O O7 0.879694 0.265180 0.694804
O O8 0.904314 0.355217 0.595938
O O9 0.303893 0.069478 0.903134
O O10 0.263252 0.669941 0.889187
O O11 0.966818 0.362218 0.416806
O O12 0.000000 0.500000 0.500000
O O13 0.399503 0.589299 0.358834
O O14 0.160354 0.796499 0.205835
O O15 0.755884 0.522215 0.754471
#
# Coordination Sequence:
#
# PCOD9275018 Si02
#       7
#     8   8   8   8   8   8   8
#     4  12  23  38  62  89 124 178 224 265 331 417
#     4  10  23  38  63  99 136 167 220 294 354 409
#     4  11  20  38  64  90 126 171 224 273 330 414
#     4  12  26  41  61  99 140 177 226 289 355 414
#     4  11  23  39  62  90 129 177 224 272 342 422
#     4  10  20  38  67  98 122 171 227 276 345 421
#     4  10  20  40  69 107 133 174 232 296 353 424
#
# _framework density 22.790268999999999
#
# number of rings (size 3 to 8) (size 9 to 14) (size 15 to 20)
#    0.000    1.143    4.286    2.143    2.000    3.429 
#    0.000    0.000    0.000    5.143    0.000    0.000 
#    0.000    0.000    0.000    0.000    0.000    0.000 
#
# Total GULP energy -156007.015177 kJ/mol
# GULP energy per Si atom -5571.679113 kJ/mol
# Density = 2.273840 g / cm^3
# Si number density = 22.790269 Si / 1000 Ang^3
#
#
#
# Elastic Constant Matrix: (Units=GPa)
#
#
# Indices 1 2 3 4 5 6 
#
# 1 33.1135 16.4822 11.2746 -0.0001 6.7213 -0.0002
# 2 16.4822 84.6382 15.3577 -0.0009 9.8342 -0.0005
# 3 11.2746 15.3577 126.9670 0.0002 19.2279 0.0002
# 4 -0.0001 -0.0009 0.0002 42.7197 0.0000 13.1388
# 5 6.7213 9.8342 19.2279 0.0000 22.7978 0.0000
# 6 -0.0002 -0.0005 0.0002 13.1388 0.0000 34.8506
#
#
#
# Elastic Compliance Matrix: (Units=1/GPa)
#
#
# Indices 1 2 3 4 5 6 
#
# 1 0.034891 -0.005772 -0.001398 0.000000 -0.006618 0.000000
# 2 -0.005772 0.013463 -0.000567 0.000000 -0.003628 0.000000
# 3 -0.001398 -0.000567 0.009136 0.000000 -0.007049 0.000000
# 4 0.000000 0.000000 0.000000 0.026479 0.000000 -0.009983
# 5 -0.006618 -0.003628 -0.007049 0.000000 0.053325 0.000000
# 6 0.000000 0.000000 0.000000 -0.009983 0.000000 0.032457
#
#
# Mechanical properties :
#
#
# Convention : Reuss Voigt Hill
#
# Bulk Modulus (GPa) = 23.79937 36.77198 30.28567
# Shear Modulus (GPa) = 25.09648 33.51391 29.30519
#
# Velocity S-wave (km/s) = 3.32202 3.83892 3.58979
# Velocity P-wave (km/s) = 5.01796 5.98495 5.52266
#
# Compressibility (1/GPa) = 0.04201793
#
# Stress axis : x y z
#
# Youngs Moduli (GPa) = 28.66036 74.27556 109.45436
#
# Poissons Ratio (x) = 0.42872 0.15301
# Poissons Ratio (y) = 0.16543 0.06201
# Poissons Ratio (z) = 0.04007 0.04208
#
# Static dielectric constant tensor:
#      x y z
#    x 1.947410 0.000000 0.095140 
#    y 0.000000 1.938190 0.000000 
#    z 0.095140 0.000000 1.959000 
# 
# From -- ./inp_files/314846.got.cif
#   From: 2010.05.17/outbox.cif.g08.bks.cpg/sg15_158_cif.got.tgz:314846.got - 2010.06.03 18:47:42.
