data_PCOD9275798
_publ_section_title
;
Structure prediction by ZEFSAII (Michael W. Deem and Ramdas Pophale) SiO2 
 PCOD9275798
Probable space group: C 2/C
;
_chemical_formula_sum "Si O2"
_cell_formula_units_Z 40
_cell_length_a 18.849724
_cell_length_b 11.764612
_cell_length_c 18.082615
_cell_angle_alpha 90.000000
_cell_angle_beta 153.040648
_cell_angle_gamma 90.000000
_cell_volume 1817.964427
_symmetry_space_group_name_H-M "C 2/C"
_symmetry_group_IT_number 15
_symmetry_cell_setting 'monoclinic'
loop_
_space_group_symop_operation_xyz
x,y,z
-x,y,1/2-z
-x,-y,-z
x,-y,1/2+z
1/2+x,1/2+y,z
1/2-x,1/2+y,1/2-z
1/2-x,1/2-y,-z
1/2+x,1/2-y,1/2+z
loop_
_atom_site_type_symbol
_atom_site_label
_atom_site_fract_x
_atom_site_fract_y
_atom_site_fract_z
Si Si1 0.222086 0.340653 0.540164
Si Si2 0.333362 0.920526 0.558619
Si Si3 0.140606 0.195283 0.669442
Si Si4 0.849430 0.801496 0.979757
Si Si5 0.584691 0.798101 0.163934
O O1 0.250000 0.250000 0.500000
O O2 0.259071 0.468127 0.551979
O O3 0.323080 0.295874 0.702826
O O4 0.039927 0.350240 0.395517
O O5 0.500000 0.948959 0.750000
O O6 0.230074 0.863368 0.526251
O O7 0.366768 0.829207 0.524626
O O8 0.232496 0.291002 0.801744
O O9 0.278614 0.132057 0.752037
O O10 0.015411 0.144117 0.610630
O O11 0.025374 0.246762 0.501441
#
# Coordination Sequence:
#
# PCOD9275798 Si02
#       5
#     8   8   8   8   8
#     4  11  22  42  65  88 125 165 213 259 304 368
#     4  11  22  37  64  94 128 162 208 254 320 375
#     4   9  18  39  67  85 130 160 202 264 302 383
#     4  10  20  39  64  96 124 161 204 258 323 367
#     4   9  20  39  66  89 119 170 211 250 310 366
#
# _framework density 22.00263
#
# number of rings (size 3 to 8) (size 9 to 14) (size 15 to 20)
#    0.000    2.000    2.000    1.800    0.000    0.000 
#    7.200   10.000   17.600    0.000    0.000    0.000 
#    0.000    0.000    0.000    0.000    0.000    0.000 
#
# Total GULP energy -111458.971715 kJ/mol
# GULP energy per Si atom -5572.948586 kJ/mol
# Density = 2.195255 g / cm^3
# Si number density = 22.002630 Si / 1000 Ang^3
#
#
#
# Elastic Constant Matrix: (Units=GPa)
#
#
# Indices 1 2 3 4 5 6 
#
# 1 144.7706 23.7612 45.1052 -0.0010 21.5303 0.0000
# 2 23.7612 62.4074 16.4822 -0.0015 -19.9877 0.0000
# 3 45.1052 16.4822 113.9707 -0.0023 -2.7170 0.0001
# 4 -0.0010 -0.0015 -0.0023 -255.5916 -0.0016 8.6955
# 5 21.5303 -19.9877 -2.7170 -0.0016 47.2036 0.0001
# 6 0.0000 0.0000 0.0001 8.6955 0.0001 5.5214
#
#
#
# Elastic Compliance Matrix: (Units=1/GPa)
#
#
# Indices 1 2 3 4 5 6 
#
# 1 0.009765 -0.005014 -0.003301 0.000000 -0.006767 0.000000
# 2 -0.005014 0.021850 -0.000902 0.000000 0.011487 0.000000
# 3 -0.003301 -0.000902 0.010252 0.000000 0.001714 0.000000
# 4 0.000000 0.000000 0.000000 -0.003714 0.000000 0.005848
# 5 -0.006767 0.011487 0.001714 0.000000 0.029234 0.000000
# 6 0.000000 0.000000 0.000000 0.005848 0.000000 0.171904
#
#
# Mechanical properties :
#
#
# Convention : Reuss Voigt Hill
#
# Bulk Modulus (GPa) = 42.67284 54.64952 48.66118
# Shear Modulus (GPa) = 18.82991 -24.85332 -3.01170
#
# Velocity S-wave (km/s) = 2.92858 -3.36454 -1.17122
# Velocity P-wave (km/s) = 5.55626 3.13020 4.50944
#
# Compressibility (1/GPa) = 0.02343411
#
# Stress axis : x y z
#
# Youngs Moduli (GPa) = 102.40450 45.76708 97.54330
#
# Poissons Ratio (x) = 0.22945 0.32199
# Poissons Ratio (y) = 0.51341 0.08797
# Poissons Ratio (z) = 0.33803 0.04128
#
# Static dielectric constant tensor:
#      x y z
#    x 1.927370 0.000000 0.037210 
#    y 0.000000 1.862020 0.000000 
#    z 0.037210 0.000000 1.811610 
# 
# From -- ./inp_files/54229.got.cif
#   From: 2010.05.17/outbox.cif.g08.bks.cpg/sg15_28_cif.got.tgz:54229.got - 2010.06.03 18:47:42.
