data_PCOD9275715
_publ_section_title
;
Structure prediction by ZEFSAII (Michael W. Deem and Ramdas Pophale) SiO2 
 PCOD9275715
Probable space group: C 2/C
;
_chemical_formula_sum "Si O2"
_cell_formula_units_Z 56
_cell_length_a 30.121794
_cell_length_b 8.742841
_cell_length_c 13.721751
_cell_angle_alpha 90.000000
_cell_angle_beta 52.887171
_cell_angle_gamma 90.000000
_cell_volume 2881.680198
_symmetry_space_group_name_H-M "C 2/C"
_symmetry_group_IT_number 15
_symmetry_cell_setting 'monoclinic'
loop_
_space_group_symop_operation_xyz
x,y,z
-x,y,1/2-z
-x,-y,-z
x,-y,1/2+z
1/2+x,1/2+y,z
1/2-x,1/2+y,1/2-z
1/2-x,1/2-y,-z
1/2+x,1/2-y,1/2+z
loop_
_atom_site_type_symbol
_atom_site_label
_atom_site_fract_x
_atom_site_fract_y
_atom_site_fract_z
Si Si1 0.351849 0.320189 0.559799
Si Si2 0.770420 0.658068 0.322068
Si Si3 0.343411 0.042599 0.059971
Si Si4 0.563572 0.538804 0.941375
Si Si5 0.755627 0.989012 0.441255
Si Si6 0.124271 0.995090 0.169760
Si Si7 0.938964 0.250501 0.366793
O O1 0.287445 0.371618 0.660348
O O2 0.397700 0.401687 0.566489
O O3 0.364315 0.375240 0.432459
O O4 0.351447 0.137638 0.567354
O O5 0.823308 0.624399 0.185517
O O6 0.767445 0.830546 0.366838
O O7 0.767989 0.553655 0.421192
O O8 0.292016 0.072204 0.054884
O O9 0.397982 0.109601 0.938439
O O10 0.593996 0.582772 0.800853
O O11 0.500000 0.500000 0.000000
O O12 0.560726 0.663113 0.030218
O O13 0.816009 0.061494 0.376448
O O14 0.086675 0.129873 0.176045
O O15 0.000000 0.293417 0.250000
#
# Coordination Sequence:
#
# PCOD9275715 Si02
#       7
#     8   8   8   8   8   8   8
#     4   9  22  38  61  94 117 155 196 242 300 356
#     4   9  18  36  58  87 126 147 186 235 299 366
#     4  11  22  38  62  90 128 151 189 254 305 355
#     4  11  21  40  65  79 111 165 209 242 282 352
#     4   9  19  35  60  91 114 157 189 234 301 357
#     4  10  20  39  64  86 118 151 207 242 286 363
#     4  11  24  41  55  86 120 156 201 252 296 340
#
# _framework density 19.433108000000001
#
# number of rings (size 3 to 8) (size 9 to 14) (size 15 to 20)
#    0.000    2.000    1.429    2.571    0.000    7.429 
#    2.571    0.714    0.000    0.000    0.000    0.000 
#    0.000    0.000    0.000    0.000    0.000    0.000 
#
# Total GULP energy -156321.076331 kJ/mol
# GULP energy per Si atom -5582.895583 kJ/mol
# Density = 1.938888 g / cm^3
# Si number density = 19.433108 Si / 1000 Ang^3
#
#
#
# Elastic Constant Matrix: (Units=GPa)
#
#
# Indices 1 2 3 4 5 6 
#
# 1 101.4038 12.9012 44.9835 0.0000 -8.3962 0.0000
# 2 12.9012 29.1850 31.3511 0.0000 -5.1451 0.0000
# 3 44.9835 31.3511 134.6003 0.0000 -26.7457 0.0000
# 4 0.0000 0.0000 0.0000 14.3031 0.0000 -9.1147
# 5 -8.3962 -5.1451 -26.7457 0.0000 32.5610 0.0000
# 6 0.0000 0.0000 0.0000 -9.1147 0.0000 21.8349
#
#
#
# Elastic Compliance Matrix: (Units=1/GPa)
#
#
# Indices 1 2 3 4 5 6 
#
# 1 0.011615 -0.001278 -0.003620 0.000000 -0.000180 0.000000
# 2 -0.001278 0.045929 -0.010629 0.000000 -0.001803 0.000000
# 3 -0.003620 -0.010629 0.012662 0.000000 0.007788 0.000000
# 4 0.000000 0.000000 0.000000 0.095253 0.000000 0.039762
# 5 -0.000180 -0.001803 0.007788 0.000000 0.036777 0.000000
# 6 0.000000 0.000000 0.000000 0.039762 0.000000 0.062396
#
#
# Mechanical properties :
#
#
# Convention : Reuss Voigt Hill
#
# Bulk Modulus (GPa) = 25.54057 49.29564 37.41811
# Shear Modulus (GPa) = 16.19498 25.47003 20.83250
#
# Velocity S-wave (km/s) = 2.88995 3.62422 3.27771
# Velocity P-wave (km/s) = 4.93022 6.55249 5.79837
#
# Compressibility (1/GPa) = 0.03915339
#
# Stress axis : x y z
#
# Youngs Moduli (GPa) = 86.09532 21.77269 78.97368
#
# Poissons Ratio (x) = 0.02781 0.28589
# Poissons Ratio (y) = 0.10999 0.83942
# Poissons Ratio (z) = 0.31167 0.23142
#
# Static dielectric constant tensor:
#      x y z
#    x 1.704670 0.000000 0.014780 
#    y 0.000000 1.664480 0.000000 
#    z 0.014780 0.000000 1.669410 
# 
# From -- ./inp_files/125840.got.cif
#   From: 2010.05.17/outbox.cif.g08.bks.cpg/sg15_63_cif.got.tgz:125840.got - 2010.06.03 18:47:42.
