data_PCOD9275502
_publ_section_title
;
Structure prediction by ZEFSAII (Michael W. Deem and Ramdas Pophale) SiO2 
 PCOD9275502
Probable space group: C 2/C
;
_chemical_formula_sum "Si O2"
_cell_formula_units_Z 60
_cell_length_a 23.360358
_cell_length_b 7.742300
_cell_length_c 24.028220
_cell_angle_alpha 90.000000
_cell_angle_beta 35.280062
_cell_angle_gamma 90.000000
_cell_volume 2510.027117
_symmetry_space_group_name_H-M "C 2/C"
_symmetry_group_IT_number 15
_symmetry_cell_setting 'monoclinic'
loop_
_space_group_symop_operation_xyz
x,y,z
-x,y,1/2-z
-x,-y,-z
x,-y,1/2+z
1/2+x,1/2+y,z
1/2-x,1/2+y,1/2-z
1/2-x,1/2-y,-z
1/2+x,1/2-y,1/2+z
loop_
_atom_site_type_symbol
_atom_site_label
_atom_site_fract_x
_atom_site_fract_y
_atom_site_fract_z
Si Si1 0.493826 0.822626 0.817060
Si Si2 0.711287 0.894633 0.662165
Si Si3 0.096786 0.272343 0.499361
Si Si4 0.392064 0.841928 0.529095
Si Si5 0.716297 0.223661 0.588985
Si Si6 0.000000 0.335045 0.250000
Si Si7 0.086981 0.148565 0.389878
Si Si8 0.780540 0.144381 0.706656
O O1 0.500000 0.744168 0.750000
O O2 0.602324 0.829570 0.756437
O O3 0.469567 0.026327 0.822918
O O4 0.430262 0.735926 0.915409
O O5 0.784964 0.738631 0.596272
O O6 0.716929 0.021230 0.605018
O O7 0.744700 0.016616 0.685933
O O8 0.066322 0.465656 0.508400
O O9 0.063971 0.146286 0.475055
O O10 0.298843 0.813294 0.562063
O O11 0.485893 0.716666 0.442931
O O12 0.344361 0.795707 0.626930
O O13 0.750000 0.250000 0.500000
O O14 0.598908 0.267920 0.688294
O O15 0.178648 0.284835 0.312358
O O16 0.139537 0.975524 0.325189
#
# Coordination Sequence:
#
# PCOD9275502 Si02
#       8
#     8   8   8   8   8   4   8   8
#     4   9  19  37  61  87 118 168 211 263 327 385
#     4   9  21  39  60  88 128 164 216 271 323 399
#     4  11  22  38  62  94 125 170 215 265 334 402
#     4  11  23  38  64  96 127 170 217 270 333 399
#     4  10  20  39  62  89 119 170 219 274 331 389
#     4   8  18  38  60  84 120 162 208 262 324 390
#     4  11  23  41  65  93 134 173 219 272 322 405
#     4  10  22  41  62  95 131 172 216 267 330 385
#
# _framework density 23.904126000000002
#
# number of rings (size 3 to 8) (size 9 to 14) (size 15 to 20)
#    0.400    1.600    0.000    3.200    0.000    4.800 
#    0.000    5.333    0.000    0.000    0.000    0.000 
#    0.000    0.000    0.000    0.000    0.000    0.000 
#
# Total GULP energy -167436.314894 kJ/mol
# GULP energy per Si atom -5581.210496 kJ/mol
# Density = 2.384972 g / cm^3
# Si number density = 23.904126 Si / 1000 Ang^3
#
#
#
# Elastic Constant Matrix: (Units=GPa)
#
#
# Indices 1 2 3 4 5 6 
#
# 1 81.2420 26.1942 48.9306 0.0007 -12.2633 -0.0010
# 2 26.1942 52.0097 14.0090 0.0113 5.4018 -0.0105
# 3 48.9306 14.0090 103.0838 0.0065 -6.7721 -0.0042
# 4 0.0007 0.0113 0.0065 32.6280 -0.0024 0.8289
# 5 -12.2633 5.4018 -6.7721 -0.0024 46.0266 0.0013
# 6 -0.0010 -0.0105 -0.0042 0.8289 0.0013 15.7618
#
#
#
# Elastic Compliance Matrix: (Units=1/GPa)
#
#
# Indices 1 2 3 4 5 6 
#
# 1 0.021083 -0.008908 -0.008441 0.000005 0.005421 -0.000008
# 2 -0.008908 0.024077 0.000621 -0.000009 -0.005108 0.000017
# 3 -0.008441 0.000621 0.013602 -0.000003 -0.000320 0.000004
# 4 0.000005 -0.000009 -0.000003 0.030690 0.000004 -0.001614
# 5 0.005421 -0.005108 -0.000320 0.000004 0.023723 -0.000005
# 6 -0.000008 0.000017 0.000004 -0.001614 -0.000005 0.063530
#
#
# Mechanical properties :
#
#
# Convention : Reuss Voigt Hill
#
# Bulk Modulus (GPa) = 39.51612 46.06700 42.79156
# Shear Modulus (GPa) = 22.87337 28.69672 25.78504
#
# Velocity S-wave (km/s) = 3.09670 3.46857 3.28790
# Velocity P-wave (km/s) = 5.41785 5.94598 5.68805
#
# Compressibility (1/GPa) = 0.02530613
#
# Stress axis : x y z
#
# Youngs Moduli (GPa) = 47.43189 41.53380 73.51870
#
# Poissons Ratio (x) = 0.36997 0.62055
# Poissons Ratio (y) = 0.42251 -0.04563
# Poissons Ratio (z) = 0.40036 -0.02578
#
# Static dielectric constant tensor:
#      x y z
#    x 1.964370 0.000000 -0.019090 
#    y 0.000000 1.950510 0.000000 
#    z -0.019090 0.000000 1.862350 
# 
# From -- ./inp_files/303089.got.cif
#   From: 2010.05.17/outbox.cif.g08.bks.cpg/sg15_152_cif.got.tgz:303089.got - 2010.06.03 18:47:42.
