data_PCOD9275548
_publ_section_title
;
Structure prediction by ZEFSAII (Michael W. Deem and Ramdas Pophale) SiO2 
 PCOD9275548
Probable space group: C 2/C
;
_chemical_formula_sum "Si O2"
_cell_formula_units_Z 60
_cell_length_a 12.752502
_cell_length_b 11.844712
_cell_length_c 21.514978
_cell_angle_alpha 90.000000
_cell_angle_beta 66.333547
_cell_angle_gamma 90.000000
_cell_volume 2976.513235
_symmetry_space_group_name_H-M "C 2/C"
_symmetry_group_IT_number 15
_symmetry_cell_setting 'monoclinic'
loop_
_space_group_symop_operation_xyz
x,y,z
-x,y,1/2-z
-x,-y,-z
x,-y,1/2+z
1/2+x,1/2+y,z
1/2-x,1/2+y,1/2-z
1/2-x,1/2-y,-z
1/2+x,1/2-y,1/2+z
loop_
_atom_site_type_symbol
_atom_site_label
_atom_site_fract_x
_atom_site_fract_y
_atom_site_fract_z
Si Si1 0.500000 0.668211 0.750000
Si Si2 0.244895 0.245827 0.329837
Si Si3 0.713193 0.511303 0.874530
Si Si4 0.023023 0.030040 0.618454
Si Si5 0.866231 0.319659 0.271433
Si Si6 0.827285 0.415165 0.475604
Si Si7 0.869452 0.797060 0.898610
Si Si8 0.265901 0.138012 0.538463
O O1 0.619329 0.737175 0.717945
O O2 0.497510 0.589639 0.689842
O O3 0.170482 0.271663 0.286319
O O4 0.215577 0.327653 0.394486
O O5 0.224255 0.120816 0.360252
O O6 0.583162 0.551154 0.900588
O O7 0.788297 0.572281 0.803969
O O8 0.760529 0.549404 0.929143
O O9 0.141407 0.079142 0.565233
O O10 0.038783 0.896401 0.622467
O O11 0.841835 0.234525 0.334274
O O12 0.000000 0.346725 0.250000
O O13 0.906539 0.314290 0.429131
O O14 0.744325 0.350132 0.543251
O O15 0.855411 0.539400 0.496706
O O16 0.250000 0.250000 0.500000
#
# Coordination Sequence:
#
# PCOD9275548 Si02
#       8
#     4   8   8   8   8   8   8   8
#     4  10  22  40  58  96 128 170 210 258 322 392
#     4  11  23  39  67  90 131 167 210 263 321 382
#     4  11  22  38  64  91 123 170 214 263 312 389
#     4  10  21  37  64  93 125 166 218 261 315 378
#     4  11  24  41  60  95 127 162 214 266 325 372
#     4   9  19  39  61  91 126 161 213 256 320 369
#     4   9  20  36  63  89 123 161 204 272 305 368
#     4  10  20  39  62  94 129 167 208 266 314 383
#
# _framework density 20.157813000000001
#
# number of rings (size 3 to 8) (size 9 to 14) (size 15 to 20)
#    0.000    1.867    2.667    0.800    3.733    3.200 
#    2.400    0.000    0.000    7.200    0.000    0.000 
#    0.000    0.000    0.000    0.000    0.000    0.000 
#
# Total GULP energy -167318.854572 kJ/mol
# GULP energy per Si atom -5577.295152 kJ/mol
# Density = 2.011193 g / cm^3
# Si number density = 20.157813 Si / 1000 Ang^3
#
#
#
# Elastic Constant Matrix: (Units=GPa)
#
#
# Indices 1 2 3 4 5 6 
#
# 1 67.3536 21.5472 13.4636 0.0000 -3.5949 0.0000
# 2 21.5472 107.8200 24.0125 0.0000 1.6110 0.0000
# 3 13.4636 24.0125 68.4070 0.0000 9.6571 0.0000
# 4 0.0000 0.0000 0.0000 22.9693 0.0000 9.5261
# 5 -3.5949 1.6110 9.6571 0.0000 10.5633 0.0000
# 6 0.0000 0.0000 0.0000 9.5261 0.0000 7.3724
#
#
#
# Elastic Compliance Matrix: (Units=1/GPa)
#
#
# Indices 1 2 3 4 5 6 
#
# 1 0.016974 -0.002701 -0.003750 0.000000 0.009617 0.000000
# 2 -0.002701 0.010526 -0.003223 0.000000 0.000422 0.000000
# 3 -0.003750 -0.003223 0.019058 0.000000 -0.018208 0.000000
# 4 0.000000 0.000000 0.000000 0.093807 0.000000 -0.121212
# 5 0.009617 0.000422 -0.018208 0.000000 0.114523 0.000000
# 6 0.000000 0.000000 0.000000 -0.121212 0.000000 0.292264
#
#
# Mechanical properties :
#
#
# Convention : Reuss Voigt Hill
#
# Bulk Modulus (GPa) = 36.75078 40.18080 38.46579
# Shear Modulus (GPa) = 8.68704 20.48481 14.58592
#
# Velocity S-wave (km/s) = 2.07819 3.19128 2.69287
# Velocity P-wave (km/s) = 4.90200 5.79270 5.36587
#
# Compressibility (1/GPa) = 0.02721031
#
# Stress axis : x y z
#
# Youngs Moduli (GPa) = 58.91372 95.00404 52.47042
#
# Poissons Ratio (x) = 0.25657 0.19679
# Poissons Ratio (y) = 0.15910 0.16911
# Poissons Ratio (z) = 0.22095 0.30619
#
# Static dielectric constant tensor:
#      x y z
#    x 1.696230 0.000000 -0.032820 
#    y 0.000000 1.751320 0.000000 
#    z -0.032820 0.000000 1.749380 
# 
# From -- ./inp_files/268774.got.cif
#   From: 2010.05.17/outbox.cif.g08.bks.cpg/sg15_135_cif.got.tgz:268774.got - 2010.06.03 18:47:42.
