data_PCOD9275498
_publ_section_title
;
Structure prediction by ZEFSAII (Michael W. Deem and Ramdas Pophale) SiO2 
 PCOD9275498
Probable space group: C 2/C
;
_chemical_formula_sum "Si O2"
_cell_formula_units_Z 60
_cell_length_a 21.985160
_cell_length_b 8.981194
_cell_length_c 17.169404
_cell_angle_alpha 90.000000
_cell_angle_beta 132.555285
_cell_angle_gamma 90.000000
_cell_volume 2497.269706
_symmetry_space_group_name_H-M "C 2/C"
_symmetry_group_IT_number 15
_symmetry_cell_setting 'monoclinic'
loop_
_space_group_symop_operation_xyz
x,y,z
-x,y,1/2-z
-x,-y,-z
x,-y,1/2+z
1/2+x,1/2+y,z
1/2-x,1/2+y,1/2-z
1/2-x,1/2-y,-z
1/2+x,1/2-y,1/2+z
loop_
_atom_site_type_symbol
_atom_site_label
_atom_site_fract_x
_atom_site_fract_y
_atom_site_fract_z
Si Si1 0.153833 0.730904 0.577082
Si Si2 0.122884 0.599434 0.119863
Si Si3 0.289769 0.682627 0.209260
Si Si4 0.000000 0.182125 0.250000
Si Si5 0.511378 0.340160 0.048284
Si Si6 0.323784 0.151163 0.155189
Si Si7 0.387292 0.559058 0.728822
Si Si8 0.831552 0.341178 0.099531
O O1 0.138649 0.560073 0.591829
O O2 0.165080 0.818089 0.669416
O O3 0.233447 0.781661 0.597356
O O4 0.068534 0.795998 0.471191
O O5 0.194548 0.702181 0.144593
O O6 0.038217 0.687873 0.027434
O O7 0.139881 0.593833 0.228586
O O8 0.304916 0.533459 0.173105
O O9 0.327935 0.806796 0.188330
O O10 0.078379 0.278937 0.349372
O O11 0.044814 0.064905 0.231622
O O12 0.589016 0.370764 0.169247
O O13 0.500000 0.500000 0.000000
O O14 0.374632 0.294121 0.167427
O O15 0.323540 0.018784 0.092065
O O16 0.750000 0.250000 0.000000
#
# Coordination Sequence:
#
# PCOD9275498 Si02
#       8
#     8   8   8   4   8   8   8   8
#     4  11  20  36  61  96 139 168 211 274 341 409
#     4  10  21  37  60  96 134 173 207 272 341 410
#     4  10  20  39  62  88 131 168 211 271 338 402
#     4  10  26  46  68  88 134 176 234 288 342 392
#     4  11  23  33  60 100 132 169 218 267 339 411
#     4  10  22  38  69  94 131 174 226 272 351 409
#     4  10  21  43  61  91 128 175 222 279 337 399
#     4  11  25  45  69  99 128 182 239 282 339 416
#
# _framework density 24.026240999999999
#
# number of rings (size 3 to 8) (size 9 to 14) (size 15 to 20)
#    0.000    1.600    4.000    0.400    3.733    0.533 
#    0.000    4.000    0.000    0.000    0.000    0.000 
#    0.000    0.000    0.000    0.000    0.000    0.000 
#
# Total GULP energy -167046.598393 kJ/mol
# GULP energy per Si atom -5568.219946 kJ/mol
# Density = 2.397156 g / cm^3
# Si number density = 24.026241 Si / 1000 Ang^3
#
#
#
# Elastic Constant Matrix: (Units=GPa)
#
#
# Indices 1 2 3 4 5 6 
#
# 1 82.4624 43.8275 25.0835 0.0000 24.7071 0.0000
# 2 43.8275 202.2165 50.6606 0.0000 24.0022 0.0000
# 3 25.0835 50.6606 53.4464 0.0000 21.8340 0.0000
# 4 0.0000 0.0000 0.0000 33.9588 0.0000 2.8324
# 5 24.7071 24.0022 21.8340 0.0000 33.0921 0.0000
# 6 0.0000 0.0000 0.0000 2.8324 0.0000 17.0659
#
#
#
# Elastic Compliance Matrix: (Units=1/GPa)
#
#
# Indices 1 2 3 4 5 6 
#
# 1 0.016690 -0.001962 -0.002004 0.000000 -0.009716 0.000000
# 2 -0.001962 0.006735 -0.005566 0.000000 0.000252 0.000000
# 3 -0.002004 -0.005566 0.031030 0.000000 -0.014940 0.000000
# 4 0.000000 0.000000 0.000000 0.029861 0.000000 -0.004956
# 5 -0.009716 0.000252 -0.014940 0.000000 0.047147 0.000000
# 6 0.000000 0.000000 0.000000 -0.004956 0.000000 0.059419
#
#
# Mechanical properties :
#
#
# Convention : Reuss Voigt Hill
#
# Bulk Modulus (GPa) = 28.25619 64.14093 46.19856
# Shear Modulus (GPa) = 22.54858 31.39363 26.97111
#
# Velocity S-wave (km/s) = 3.06682 3.61867 3.35411
# Velocity P-wave (km/s) = 4.93220 6.64935 5.85408
#
# Compressibility (1/GPa) = 0.03539048
#
# Stress axis : x y z
#
# Youngs Moduli (GPa) = 59.91557 148.47908 32.22657
#
# Poissons Ratio (x) = 0.29132 0.06459
# Poissons Ratio (y) = 0.11756 0.17938
# Poissons Ratio (z) = 0.12008 0.82647
#
# Static dielectric constant tensor:
#      x y z
#    x 2.042260 0.000000 0.049360 
#    y 0.000000 2.116730 0.000000 
#    z 0.049360 0.000000 2.021570 
# 
# From -- ./inp_files/255206.got.cif
#   From: 2010.05.17/outbox.cif.g08.bks.cpg/sg15_128_cif.got.tgz:255206.got - 2010.06.03 18:47:42.
