data_PCOD9275339
_publ_section_title
;
Structure prediction by ZEFSAII (Michael W. Deem and Ramdas Pophale) SiO2 
 PCOD9275339
Probable space group: C 2/C
;
_chemical_formula_sum "Si O2"
_cell_formula_units_Z 56
_cell_length_a 23.590136
_cell_length_b 11.103857
_cell_length_c 28.298990
_cell_angle_alpha 90.000000
_cell_angle_beta 22.529734
_cell_angle_gamma 90.000000
_cell_volume 2840.263397
_symmetry_space_group_name_H-M "C 2/C"
_symmetry_group_IT_number 15
_symmetry_cell_setting 'monoclinic'
loop_
_space_group_symop_operation_xyz
x,y,z
-x,y,1/2-z
-x,-y,-z
x,-y,1/2+z
1/2+x,1/2+y,z
1/2-x,1/2+y,1/2-z
1/2-x,1/2-y,-z
1/2+x,1/2-y,1/2+z
loop_
_atom_site_type_symbol
_atom_site_label
_atom_site_fract_x
_atom_site_fract_y
_atom_site_fract_z
Si Si1 0.060300 0.725854 0.341090
Si Si2 0.577865 0.647874 0.326644
Si Si3 0.121171 0.781964 0.892424
Si Si4 0.470439 0.058391 0.219954
Si Si5 0.108540 0.397472 0.900048
Si Si6 0.423072 0.212233 0.860772
Si Si7 0.376961 0.445239 0.527323
O O1 0.951767 0.828171 0.444510
O O2 0.227490 0.775365 0.202988
O O3 0.995854 0.657955 0.345497
O O4 0.097019 0.623808 0.352592
O O5 0.630542 0.733347 0.329014
O O6 0.732157 0.579939 0.200018
O O7 0.511999 0.714796 0.332636
O O8 0.463378 0.559023 0.440324
O O9 0.117996 0.911485 0.920891
O O10 0.964633 0.724323 0.024806
O O11 0.500000 0.103055 0.250000
O O12 0.294642 0.036279 0.351957
O O13 0.555084 0.931430 0.148133
O O14 0.000000 0.500000 0.000000
O O15 0.500000 0.236362 0.750000
O O16 0.250000 0.250000 0.000000
#
# Coordination Sequence:
#
# PCOD9275339 Si02
#       7
#     8   8   8   8   8   8   8
#     4   9  20  38  57  87 118 155 196 260 303 376
#     4  11  22  35  62  85 115 169 209 249 325 383
#     4   9  20  36  56  86 122 157 201 249 320 385
#     4  10  22  40  63  84 118 168 207 257 320 370
#     4  10  21  33  54  88 121 150 196 256 313 372
#     4  11  26  45  64  92 130 166 222 273 315 379
#     4  10  20  39  60  87 127 157 208 265 311 384
#
# _framework density 19.716481000000002
#
# number of rings (size 3 to 8) (size 9 to 14) (size 15 to 20)
#    0.000    2.000    0.000    3.000    6.000    0.571 
#    5.143    0.714    0.000    0.000    0.000    0.000 
#    0.000    0.000    0.000    0.000    0.000    0.000 
#
# Total GULP energy -155921.692137 kJ/mol
# GULP energy per Si atom -5568.631862 kJ/mol
# Density = 1.967160 g / cm^3
# Si number density = 19.716481 Si / 1000 Ang^3
#
#
#
# Elastic Constant Matrix: (Units=GPa)
#
#
# Indices 1 2 3 4 5 6 
#
# 1 131.3938 29.0424 11.6474 -0.0001 4.0343 0.0000
# 2 29.0424 39.1519 4.3401 -0.0025 4.0270 0.0000
# 3 11.6474 4.3401 85.7476 -0.0025 -2.2303 0.0010
# 4 -0.0001 -0.0025 -0.0025 38.6395 0.0003 -0.6600
# 5 4.0343 4.0270 -2.2303 0.0003 27.9027 -0.0004
# 6 0.0000 0.0000 0.0010 -0.6600 -0.0004 19.9735
#
#
#
# Elastic Compliance Matrix: (Units=1/GPa)
#
#
# Indices 1 2 3 4 5 6 
#
# 1 0.009178 -0.006661 -0.000921 0.000000 -0.000439 0.000000
# 2 -0.006661 0.030932 -0.000753 0.000002 -0.003561 0.000000
# 3 -0.000921 -0.000753 0.011856 0.000001 0.001190 -0.000001
# 4 0.000000 0.000002 0.000001 0.025895 0.000000 0.000856
# 5 -0.000439 -0.003561 0.001190 0.000000 0.036511 0.000001
# 6 0.000000 0.000000 -0.000001 0.000856 0.000001 0.050095
#
#
# Mechanical properties :
#
#
# Convention : Reuss Voigt Hill
#
# Bulk Modulus (GPa) = 28.33181 38.48366 33.40773
# Shear Modulus (GPa) = 25.91962 31.38735 28.65348
#
# Velocity S-wave (km/s) = 3.62970 3.99423 3.81632
# Velocity P-wave (km/s) = 5.65394 6.39005 6.03324
#
# Compressibility (1/GPa) = 0.03529602
#
# Stress axis : x y z
#
# Youngs Moduli (GPa) = 108.95465 32.32856 84.34328
#
# Poissons Ratio (x) = 0.21534 0.07768
# Poissons Ratio (y) = 0.72574 0.06355
# Poissons Ratio (z) = 0.10035 0.02436
#
# Static dielectric constant tensor:
#      x y z
#    x 1.673260 0.000000 0.088920 
#    y 0.000000 1.648870 0.000000 
#    z 0.088920 0.000000 1.726320 
# 
# From -- ./inp_files/318778.got.cif
#   From: 2010.05.17/outbox.cif.g08.bks.cpg/sg15_160_cif.got.tgz:318778.got - 2010.06.03 18:47:42.
