data_PCOD9275476
_publ_section_title
;
Structure prediction by ZEFSAII (Michael W. Deem and Ramdas Pophale) SiO2 
 PCOD9275476
Probable space group: C 2/C
;
_chemical_formula_sum "Si O2"
_cell_formula_units_Z 36
_cell_length_a 11.375809
_cell_length_b 21.296040
_cell_length_c 8.627030
_cell_angle_alpha 90.000000
_cell_angle_beta 116.394875
_cell_angle_gamma 90.000000
_cell_volume 1872.104174
_symmetry_space_group_name_H-M "C 2/C"
_symmetry_group_IT_number 15
_symmetry_cell_setting 'monoclinic'
loop_
_space_group_symop_operation_xyz
x,y,z
-x,y,1/2-z
-x,-y,-z
x,-y,1/2+z
1/2+x,1/2+y,z
1/2-x,1/2+y,1/2-z
1/2-x,1/2-y,-z
1/2+x,1/2-y,1/2+z
loop_
_atom_site_type_symbol
_atom_site_label
_atom_site_fract_x
_atom_site_fract_y
_atom_site_fract_z
Si Si1 0.404330 0.237501 0.058766
Si Si2 0.500000 0.114326 0.250000
Si Si3 0.482677 0.652586 0.420483
Si Si4 0.737664 0.559985 0.099000
Si Si5 0.871674 0.941997 0.284196
O O1 0.500000 0.265214 0.250000
O O2 0.437786 0.163883 0.090436
O O3 0.250000 0.250000 0.000000
O O4 0.456656 0.274495 0.940692
O O5 0.383370 0.071793 0.244451
O O6 0.500000 0.640560 0.250000
O O7 0.350976 0.617924 0.398693
O O8 0.594479 0.618735 0.591086
O O9 0.667298 0.498451 0.125411
O O10 0.737870 0.561334 0.912637
O O11 0.000000 0.954335 0.250000
#
# Coordination Sequence:
#
# PCOD9275476 Si02
#       5
#     8   4   8   8   8
#     4  10  20  39  62  87 118 165 207 241 306 367
#     4  10  24  36  64  80 124 166 202 238 312 368
#     4  11  20  35  63  93 118 150 204 262 295 359
#     4  11  20  39  57  89 121 156 202 249 306 367
#     4  10  21  35  63  91 116 154 203 252 310 357
#
# _framework density 19.229699
#
# number of rings (size 3 to 8) (size 9 to 14) (size 15 to 20)
#    0.667    0.889    2.222    6.667    0.000    0.889 
#    0.000    4.444    4.889    0.000    0.000    0.000 
#    0.000    0.000    0.000    0.000    0.000    0.000 
#
# Total GULP energy -100208.393568 kJ/mol
# GULP energy per Si atom -5567.132976 kJ/mol
# Density = 1.918593 g / cm^3
# Si number density = 19.229699 Si / 1000 Ang^3
#
#
#
# Elastic Constant Matrix: (Units=GPa)
#
#
# Indices 1 2 3 4 5 6 
#
# 1 41.0478 30.0839 39.8845 0.0000 9.7649 0.0000
# 2 30.0839 78.8621 23.7787 0.0000 -4.8199 0.0000
# 3 39.8845 23.7787 98.2232 0.0000 -11.4321 0.0000
# 4 0.0000 0.0000 0.0000 28.9339 0.0000 2.2428
# 5 9.7649 -4.8199 -11.4321 0.0000 36.6357 0.0000
# 6 0.0000 0.0000 0.0000 2.2428 0.0000 29.9388
#
#
#
# Elastic Compliance Matrix: (Units=1/GPa)
#
#
# Indices 1 2 3 4 5 6 
#
# 1 0.078265 -0.022804 -0.030131 0.000000 -0.033263 0.000000
# 2 -0.022804 0.020346 0.005555 0.000000 0.010488 0.000000
# 3 -0.030131 0.005555 0.022923 0.000000 0.015915 0.000000
# 4 0.000000 0.000000 0.000000 0.034763 0.000000 -0.002604
# 5 -0.033263 0.010488 0.015915 0.000000 0.042508 0.000000
# 6 0.000000 0.000000 0.000000 -0.002604 0.000000 0.033597
#
#
# Mechanical properties :
#
#
# Convention : Reuss Voigt Hill
#
# Bulk Modulus (GPa) = 37.34970 45.06971 41.20971
# Shear Modulus (GPa) = 14.87712 27.39409 21.13560
#
# Velocity S-wave (km/s) = 2.78448 3.77844 3.31888
# Velocity P-wave (km/s) = 5.45920 6.52104 6.01360
#
# Compressibility (1/GPa) = 0.02677397
#
# Stress axis : x y z
#
# Youngs Moduli (GPa) = 12.77711 49.15081 43.62342
#
# Poissons Ratio (x) = 1.12083 1.31442
# Poissons Ratio (y) = 0.29137 -0.24233
# Poissons Ratio (z) = 0.38499 -0.27304
#
# Static dielectric constant tensor:
#      x y z
#    x 1.691260 0.000000 0.053490 
#    y 0.000000 1.709460 0.000000 
#    z 0.053490 0.000000 1.750740 
# 
# From -- ./inp_files/30105.got.cif
#   From: 2010.05.17/outbox.cif.g08.bks.cpg/sg15_16_cif.got.tgz:30105.got - 2010.06.03 18:47:42.
