data_PCOD9275416
_publ_section_title
;
Structure prediction by ZEFSAII (Michael W. Deem and Ramdas Pophale) SiO2 
 PCOD9275416
Probable space group: C 2/C
;
_chemical_formula_sum "Si O2"
_cell_formula_units_Z 64
_cell_length_a 14.168230
_cell_length_b 24.999536
_cell_length_c 12.794069
_cell_angle_alpha 90.000000
_cell_angle_beta 45.767961
_cell_angle_gamma 90.000000
_cell_volume 3247.019872
_symmetry_space_group_name_H-M "C 2/C"
_symmetry_group_IT_number 15
_symmetry_cell_setting 'monoclinic'
loop_
_space_group_symop_operation_xyz
x,y,z
-x,y,1/2-z
-x,-y,-z
x,-y,1/2+z
1/2+x,1/2+y,z
1/2-x,1/2+y,1/2-z
1/2-x,1/2-y,-z
1/2+x,1/2-y,1/2+z
loop_
_atom_site_type_symbol
_atom_site_label
_atom_site_fract_x
_atom_site_fract_y
_atom_site_fract_z
Si Si1 0.352400 0.934853 0.358690
Si Si2 0.117671 0.740398 0.860291
Si Si3 0.825332 0.719681 0.035579
Si Si4 0.361605 0.943525 0.799978
Si Si5 0.319690 0.116932 0.686959
Si Si6 0.853308 0.094909 0.872565
Si Si7 0.115701 0.781517 0.087192
Si Si8 0.125022 0.403599 0.943428
O O1 0.500000 0.910726 0.250000
O O2 0.275884 0.895502 0.339872
O O3 0.317091 0.940735 0.508122
O O4 0.364310 0.992069 0.293838
O O5 0.240484 0.763487 0.702269
O O6 0.159703 0.679444 0.851869
O O7 0.085850 0.773378 0.989008
O O8 0.977607 0.737629 0.910348
O O9 0.835772 0.655299 0.043197
O O10 0.750000 0.750000 0.000000
O O11 0.500000 0.926544 0.750000
O O12 0.337746 0.917685 0.704358
O O13 0.241343 0.930155 0.968586
O O14 0.218932 0.093109 0.682678
O O15 0.465769 0.092405 0.561109
O O16 0.866966 0.157036 0.895432
O O17 0.000000 0.072022 0.750000
O O18 0.000000 0.758924 0.250000
O O19 0.250000 0.750000 0.000000
#
# Coordination Sequence:
#
# PCOD9275416 Si02
#       8
#     8   8   8   8   8   8   8   8
#     4   9  21  36  66  94 121 154 202 262 313 361
#     4  11  22  38  61  87 121 162 201 249 299 362
#     4  11  23  39  62  88 124 164 204 247 297 364
#     4  11  22  38  68  95 120 156 206 265 305 359
#     4  10  20  39  61  89 124 164 200 249 311 367
#     4  11  24  39  58  88 129 166 198 247 313 372
#     4  11  22  37  56  88 122 160 201 246 300 357
#     4  10  21  40  61  97 125 153 207 260 304 359
#
# _framework density 19.710381000000002
#
# number of rings (size 3 to 8) (size 9 to 14) (size 15 to 20)
#    0.000    1.500    2.500    2.625    3.500    5.000 
#    0.000    0.625    0.000    0.000    0.000    0.000 
#    0.000    0.000    0.000    0.000    0.000    0.000 
#
# Total GULP energy -178393.508560 kJ/mol
# GULP energy per Si atom -5574.797143 kJ/mol
# Density = 1.966552 g / cm^3
# Si number density = 19.710381 Si / 1000 Ang^3
#
#
#
# Elastic Constant Matrix: (Units=GPa)
#
#
# Indices 1 2 3 4 5 6 
#
# 1 108.0677 28.4539 42.1142 0.0000 23.8987 0.0000
# 2 28.4539 45.8049 16.7310 0.0000 5.3682 0.0000
# 3 42.1142 16.7310 119.0754 0.0000 2.4469 0.0000
# 4 0.0000 0.0000 0.0000 21.7824 0.0000 2.0891
# 5 23.8987 5.3682 2.4469 0.0000 43.4516 0.0000
# 6 0.0000 0.0000 0.0000 2.0891 0.0000 21.9339
#
#
#
# Elastic Compliance Matrix: (Units=1/GPa)
#
#
# Indices 1 2 3 4 5 6 
#
# 1 0.013939 -0.006460 -0.003886 0.000000 -0.006650 0.000000
# 2 -0.006460 0.026319 -0.001421 0.000000 0.000382 0.000000
# 3 -0.003886 -0.001421 0.009936 0.000000 0.001753 0.000000
# 4 0.000000 0.000000 0.000000 0.046332 0.000000 -0.004413
# 5 -0.006650 0.000382 0.001753 0.000000 0.026526 0.000000
# 6 0.000000 0.000000 0.000000 -0.004413 0.000000 0.046012
#
#
# Mechanical properties :
#
#
# Convention : Reuss Voigt Hill
#
# Bulk Modulus (GPa) = 37.50883 49.72733 43.61808
# Shear Modulus (GPa) = 24.81583 29.81020 27.31302
#
# Velocity S-wave (km/s) = 3.55212 3.89319 3.72656
# Velocity P-wave (km/s) = 5.99122 6.74485 6.37918
#
# Compressibility (1/GPa) = 0.02666039
#
# Stress axis : x y z
#
# Youngs Moduli (GPa) = 71.73999 37.99505 100.64496
#
# Poissons Ratio (x) = 0.24546 0.39107
# Poissons Ratio (y) = 0.46347 0.14302
# Poissons Ratio (z) = 0.27875 0.05399
#
# Static dielectric constant tensor:
#      x y z
#    x 1.733270 0.000000 0.044200 
#    y 0.000000 1.723010 0.000000 
#    z 0.044200 0.000000 1.737420 
# 
# From -- ./inp_files/101309.got.cif
#   From: 2010.05.17/outbox.cif.g08.bks.cpg/sg15_51_cif.got.tgz:101309.got - 2010.06.03 18:47:42.
