data_PCOD9275019
_publ_section_title
;
Structure prediction by ZEFSAII (Michael W. Deem and Ramdas Pophale) SiO2 
 PCOD9275019
Probable space group: C 2/C
;
_chemical_formula_sum "Si O2"
_cell_formula_units_Z 52
_cell_length_a 5.123894
_cell_length_b 28.302942
_cell_length_c 16.633613
_cell_angle_alpha 90.000000
_cell_angle_beta 106.681934
_cell_angle_gamma 90.000000
_cell_volume 2310.704464
_symmetry_space_group_name_H-M "C 2/C"
_symmetry_group_IT_number 15
_symmetry_cell_setting 'monoclinic'
loop_
_space_group_symop_operation_xyz
x,y,z
-x,y,1/2-z
-x,-y,-z
x,-y,1/2+z
1/2+x,1/2+y,z
1/2-x,1/2+y,1/2-z
1/2-x,1/2-y,-z
1/2+x,1/2-y,1/2+z
loop_
_atom_site_type_symbol
_atom_site_label
_atom_site_fract_x
_atom_site_fract_y
_atom_site_fract_z
Si Si1 0.058286 0.156547 0.103273
Si Si2 0.740630 0.756113 0.595555
Si Si3 0.280953 0.880751 0.465114
Si Si4 0.208768 0.203527 0.842069
Si Si5 0.197546 0.985856 0.444152
Si Si6 0.000000 0.364791 0.750000
Si Si7 0.745501 0.922497 0.626562
O O1 0.307528 0.169783 0.181708
O O2 0.804127 0.188100 0.107244
O O3 0.021734 0.102207 0.123953
O O4 0.117887 0.151959 0.014772
O O5 0.750000 0.750000 0.500000
O O6 0.469238 0.735524 0.611153
O O7 0.009927 0.730162 0.653134
O O8 0.309025 0.845200 0.393339
O O9 0.537093 0.901944 0.538934
O O10 0.150604 0.930431 0.425292
O O11 0.000000 0.195230 0.750000
O O12 0.186996 0.022256 0.369008
O O13 0.500000 0.000000 0.500000
O O14 0.000000 0.000000 0.500000
O O15 0.149541 0.398886 0.699795
#
# Coordination Sequence:
#
# PCOD9275019 Si02
#       7
#     8   8   8   8   8   4   8
#     4  11  22  39  67  95 130 173 222 275 339 399
#     4  12  26  45  72  97 129 181 231 275 335 409
#     4  10  22  41  69  94 129 176 227 270 330 406
#     4  12  28  46  66 101 139 176 226 285 337 397
#     4  10  20  38  67  98 125 170 224 273 326 396
#     4  10  24  36  58  98 144 168 218 284 348 398
#     4  10  21  39  64  98 134 176 222 279 336 403
#
# _framework density 22.503961
#
# number of rings (size 3 to 8) (size 9 to 14) (size 15 to 20)
#    0.000    1.231    3.077    2.308    5.385    1.231 
#    0.000    1.538    3.385    0.000    0.000    0.000 
#    0.000    0.000    0.000    0.000    0.000    0.000 
#
# Total GULP energy -144970.966887 kJ/mol
# GULP energy per Si atom -5575.806419 kJ/mol
# Density = 2.245274 g / cm^3
# Si number density = 22.503961 Si / 1000 Ang^3
#
#
#
# Elastic Constant Matrix: (Units=GPa)
#
#
# Indices 1 2 3 4 5 6 
#
# 1 77.7650 9.3758 -4.1505 0.0000 -2.8570 0.0000
# 2 9.3758 154.1974 21.8540 0.0000 -5.8600 0.0000
# 3 -4.1505 21.8540 81.7263 0.0000 -10.3349 0.0000
# 4 0.0000 0.0000 0.0000 10.3283 0.0000 2.4915
# 5 -2.8570 -5.8600 -10.3349 0.0000 23.4904 0.0000
# 6 0.0000 0.0000 0.0000 2.4915 0.0000 26.7433
#
#
#
# Elastic Compliance Matrix: (Units=1/GPa)
#
#
# Indices 1 2 3 4 5 6 
#
# 1 0.013096 -0.000887 0.001139 0.000000 0.001873 0.000000
# 2 -0.000887 0.006820 -0.001766 0.000000 0.000817 0.000000
# 3 0.001139 -0.001766 0.013478 0.000000 0.005628 0.000000
# 4 0.000000 0.000000 0.000000 0.099047 0.000000 -0.009228
# 5 0.001873 0.000817 0.005628 0.000000 0.045478 0.000000
# 6 0.000000 0.000000 0.000000 -0.009228 0.000000 0.038252
#
#
# Mechanical properties :
#
#
# Convention : Reuss Voigt Hill
#
# Bulk Modulus (GPa) = 32.92998 40.87194 36.90096
# Shear Modulus (GPa) = 21.80359 31.21968 26.51164
#
# Velocity S-wave (km/s) = 3.11606 3.72868 3.43605
# Velocity P-wave (km/s) = 5.25463 6.06127 5.67231
#
# Compressibility (1/GPa) = 0.03036746
#
# Stress axis : x y z
#
# Youngs Moduli (GPa) = 76.36082 146.61971 74.19726
#
# Poissons Ratio (x) = 0.12998 -0.08451
# Poissons Ratio (y) = 0.06770 0.13100
# Poissons Ratio (z) = -0.08697 0.25886
#
# Static dielectric constant tensor:
#      x y z
#    x 1.919400 0.000000 0.149930 
#    y 0.000000 1.880640 0.000000 
#    z 0.149930 0.000000 2.146500 
# 
# From -- ./inp_files/186277.got.cif
#   From: 2010.05.17/outbox.cif.g08.bks.cpg/sg15_94_cif.got.tgz:186277.got - 2010.06.03 18:47:42.
