data_PCOD9275085
_publ_section_title
;
Structure prediction by ZEFSAII (Michael W. Deem and Ramdas Pophale) SiO2 
 PCOD9275085
Probable space group: C 2/C
;
_chemical_formula_sum "Si O2"
_cell_formula_units_Z 56
_cell_length_a 28.286358
_cell_length_b 6.414781
_cell_length_c 16.231604
_cell_angle_alpha 90.000000
_cell_angle_beta 109.303045
_cell_angle_gamma 90.000000
_cell_volume 2779.666122
_symmetry_space_group_name_H-M "C 2/C"
_symmetry_group_IT_number 15
_symmetry_cell_setting 'monoclinic'
loop_
_space_group_symop_operation_xyz
x,y,z
-x,y,1/2-z
-x,-y,-z
x,-y,1/2+z
1/2+x,1/2+y,z
1/2-x,1/2+y,1/2-z
1/2-x,1/2-y,-z
1/2+x,1/2-y,1/2+z
loop_
_atom_site_type_symbol
_atom_site_label
_atom_site_fract_x
_atom_site_fract_y
_atom_site_fract_z
Si Si1 0.352288 0.504163 0.234790
Si Si2 0.713406 0.889314 0.328952
Si Si3 0.308116 0.767383 0.560707
Si Si4 0.533455 0.184374 0.981352
Si Si5 0.618599 0.118891 0.537347
Si Si6 0.055967 0.938013 0.616990
Si Si7 0.804802 0.678207 0.327405
O O1 0.328176 0.730174 0.225489
O O2 0.328756 0.395923 0.140333
O O3 0.411789 0.521326 0.282404
O O4 0.333742 0.366181 0.300947
O O5 0.764693 0.762791 0.369410
O O6 0.692107 0.009245 0.394434
O O7 0.723828 0.058518 0.263119
O O8 0.250000 0.750000 0.500000
O O9 0.346784 0.763990 0.508222
O O10 0.497488 0.322857 0.902299
O O11 0.548497 0.347266 0.062146
O O12 0.500000 0.000000 0.000000
O O13 0.581006 0.054146 0.976145
O O14 0.588001 0.281980 0.576129
O O15 0.656489 0.981716 0.612716
#
# Coordination Sequence:
#
# PCOD9275085 Si02
#       7
#     8   8   8   8   8   8   8
#     4  11  22  39  62  88 120 167 212 263 314 375
#     4  11  23  39  58  88 125 163 214 262 302 377
#     4  11  28  40  55  93 137 173 210 257 327 396
#     4   9  20  37  65  96 119 148 209 270 320 372
#     4  11  22  39  61  91 127 162 205 263 320 382
#     4  10  20  38  68  95 114 158 217 264 313 379
#     4  11  21  34  62  90 115 165 216 251 305 372
#
# _framework density 20.146304000000001
#
# number of rings (size 3 to 8) (size 9 to 14) (size 15 to 20)
#    0.000    1.429    4.286    0.857    4.000    3.429 
#    0.000    0.000    0.000   20.571    0.000    0.000 
#    0.000    0.000    0.000    0.000    0.000    0.000 
#
# Total GULP energy -156210.042180 kJ/mol
# GULP energy per Si atom -5578.930078 kJ/mol
# Density = 2.010045 g / cm^3
# Si number density = 20.146304 Si / 1000 Ang^3
#
#
#
# Elastic Constant Matrix: (Units=GPa)
#
#
# Indices 1 2 3 4 5 6 
#
# 1 61.4303 4.3651 26.6171 0.0000 19.0075 0.0000
# 2 4.3651 81.8996 18.8507 0.0000 14.5269 0.0000
# 3 26.6171 18.8507 75.4333 0.0000 27.2141 0.0000
# 4 0.0000 0.0000 0.0000 32.3953 0.0000 13.7522
# 5 19.0075 14.5269 27.2141 0.0000 34.5264 0.0000
# 6 0.0000 0.0000 0.0000 13.7522 0.0000 36.0051
#
#
#
# Elastic Compliance Matrix: (Units=1/GPa)
#
#
# Indices 1 2 3 4 5 6 
#
# 1 0.020793 0.001454 -0.004681 0.000000 -0.008369 0.000000
# 2 0.001454 0.013475 -0.002161 0.000000 -0.004767 0.000000
# 3 -0.004681 -0.002161 0.019830 0.000000 -0.012144 0.000000
# 4 0.000000 0.000000 0.000000 0.036842 0.000000 -0.014072
# 5 -0.008369 -0.004767 -0.012144 0.000000 0.045148 0.000000
# 6 0.000000 0.000000 0.000000 -0.014072 0.000000 0.033149
#
#
# Mechanical properties :
#
#
# Convention : Reuss Voigt Hill
#
# Bulk Modulus (GPa) = 23.08290 35.38100 29.23195
# Shear Modulus (GPa) = 25.71305 31.84738 28.78022
#
# Velocity S-wave (km/s) = 3.57643 3.98025 3.78373
# Velocity P-wave (km/s) = 5.34200 6.22281 5.79915
#
# Compressibility (1/GPa) = 0.04332211
#
# Stress axis : x y z
#
# Youngs Moduli (GPa) = 48.09305 74.20902 50.42991
#
# Poissons Ratio (x) = -0.10787 0.23606
# Poissons Ratio (y) = -0.06991 0.10896
# Poissons Ratio (z) = 0.22512 0.16034
#
# Static dielectric constant tensor:
#      x y z
#    x 1.748790 0.000000 0.032540 
#    y 0.000000 1.724980 0.000000 
#    z 0.032540 0.000000 1.752520 
# 
# From -- ./inp_files/223956.got.cif
#   From: 2010.05.17/outbox.cif.g08.bks.cpg/sg15_112_cif.got.tgz:223956.got - 2010.06.03 18:47:42.
