data_PCOD9275518
_publ_section_title
;
Structure prediction by ZEFSAII (Michael W. Deem and Ramdas Pophale) SiO2 
 PCOD9275518
Probable space group: C 2/C
;
_chemical_formula_sum "Si O2"
_cell_formula_units_Z 48
_cell_length_a 23.603851
_cell_length_b 18.722337
_cell_length_c 8.621465
_cell_angle_alpha 90.000000
_cell_angle_beta 44.331120
_cell_angle_gamma 90.000000
_cell_volume 2662.436862
_symmetry_space_group_name_H-M "C 2/C"
_symmetry_group_IT_number 15
_symmetry_cell_setting 'monoclinic'
loop_
_space_group_symop_operation_xyz
x,y,z
-x,y,1/2-z
-x,-y,-z
x,-y,1/2+z
1/2+x,1/2+y,z
1/2-x,1/2+y,1/2-z
1/2-x,1/2-y,-z
1/2+x,1/2-y,1/2+z
loop_
_atom_site_type_symbol
_atom_site_label
_atom_site_fract_x
_atom_site_fract_y
_atom_site_fract_z
Si Si1 0.407618 0.680591 0.486092
Si Si2 0.238672 0.430589 0.798021
Si Si3 0.313096 0.696965 0.965788
Si Si4 0.279471 0.582850 0.573917
Si Si5 0.589107 0.833621 0.140910
Si Si6 0.323687 0.215836 0.748409
O O1 0.500000 0.678118 0.250000
O O2 0.385496 0.674608 0.709393
O O3 0.359463 0.619926 0.486467
O O4 0.378925 0.761993 0.506914
O O5 0.271084 0.375041 0.607505
O O6 0.254096 0.509016 0.702132
O O7 0.281274 0.423983 0.883391
O O8 0.147193 0.401726 0.006297
O O9 0.250000 0.750000 0.000000
O O10 0.341382 0.734739 0.068661
O O11 0.211831 0.641871 0.743720
O O12 0.500000 0.847562 0.250000
O O13 0.599801 0.805465 0.295912
O O14 0.250000 0.250000 0.000000
#
# Coordination Sequence:
#
# PCOD9275518 Si02
#       6
#     8   8   8   8   8   8
#     4  11  22  38  62  93 128 156 202 267 317 360
#     4  11  22  37  62  89 118 167 215 252 304 380
#     4  12  19  36  66  91 118 163 218 247 301 380
#     4  11  21  38  59  90 124 163 213 253 305 370
#     4  10  20  39  62  90 130 158 199 267 317 351
#     4  11  18  38  63  91 121 161 214 253 297 374
#
# _framework density 18.028596
#
# number of rings (size 3 to 8) (size 9 to 14) (size 15 to 20)
#    0.000    1.000    8.333    1.000    0.000    0.000 
#    0.000   14.167    0.000    0.000    0.000    0.000 
#    0.000    0.000    0.000    0.000    0.000    0.000 
#
# Total GULP energy -133706.117231 kJ/mol
# GULP energy per Si atom -5571.088218 kJ/mol
# Density = 1.798756 g / cm^3
# Si number density = 18.028596 Si / 1000 Ang^3
#
#
#
# Elastic Constant Matrix: (Units=GPa)
#
#
# Indices 1 2 3 4 5 6 
#
# 1 104.9048 34.8801 65.6374 0.0000 2.0763 0.0000
# 2 34.8801 130.4840 39.2305 0.0000 1.9536 0.0000
# 3 65.6374 39.2305 112.5101 0.0000 11.6770 0.0000
# 4 0.0000 0.0000 0.0000 34.5434 0.0000 9.6966
# 5 2.0763 1.9536 11.6770 0.0000 16.6051 0.0000
# 6 0.0000 0.0000 0.0000 9.6966 0.0000 25.9836
#
#
#
# Elastic Compliance Matrix: (Units=1/GPa)
#
#
# Indices 1 2 3 4 5 6 
#
# 1 0.015612 -0.001520 -0.009055 0.000000 0.004594 0.000000
# 2 -0.001520 0.008731 -0.002234 0.000000 0.000734 0.000000
# 3 -0.009055 -0.002234 0.015970 0.000000 -0.009836 0.000000
# 4 0.000000 0.000000 0.000000 0.032336 0.000000 -0.012067
# 5 0.004594 0.000734 -0.009836 0.000000 0.066478 0.000000
# 6 0.000000 0.000000 0.000000 -0.012067 0.000000 0.042989
#
#
# Mechanical properties :
#
#
# Convention : Reuss Voigt Hill
#
# Bulk Modulus (GPa) = 68.04434 69.71056 68.87745
# Shear Modulus (GPa) = 23.51468 29.30315 26.40892
#
# Velocity S-wave (km/s) = 3.61543 4.03596 3.83147
# Velocity P-wave (km/s) = 7.43322 7.77620 7.60664
#
# Compressibility (1/GPa) = 0.01469630
#
# Stress axis : x y z
#
# Youngs Moduli (GPa) = 64.05144 114.53926 62.61579
#
# Poissons Ratio (x) = 0.17407 0.56699
# Poissons Ratio (y) = 0.09734 0.13987
# Poissons Ratio (z) = 0.57999 0.25585
#
# Static dielectric constant tensor:
#      x y z
#    x 1.678350 0.000000 0.032570 
#    y 0.000000 1.632660 0.000000 
#    z 0.032570 0.000000 1.649890 
# 
# From -- ./inp_files/47970.got.cif
#   From: 2010.05.17/outbox.cif.g08.bks.cpg/sg15_24_cif.got.tgz:47970.got - 2010.06.03 18:47:42.
