data_PCOD9275208
_publ_section_title
;
Structure prediction by ZEFSAII (Michael W. Deem and Ramdas Pophale) SiO2 
 PCOD9275208
Probable space group: C 2/C
;
_chemical_formula_sum "Si O2"
_cell_formula_units_Z 52
_cell_length_a 11.365876
_cell_length_b 21.486009
_cell_length_c 20.706294
_cell_angle_alpha 90.000000
_cell_angle_beta 155.984832
_cell_angle_gamma 90.000000
_cell_volume 2057.938922
_symmetry_space_group_name_H-M "C 2/C"
_symmetry_group_IT_number 15
_symmetry_cell_setting 'monoclinic'
loop_
_space_group_symop_operation_xyz
x,y,z
-x,y,1/2-z
-x,-y,-z
x,-y,1/2+z
1/2+x,1/2+y,z
1/2-x,1/2+y,1/2-z
1/2-x,1/2-y,-z
1/2+x,1/2-y,1/2+z
loop_
_atom_site_type_symbol
_atom_site_label
_atom_site_fract_x
_atom_site_fract_y
_atom_site_fract_z
Si Si1 0.500000 0.304285 0.750000
Si Si2 0.698321 0.974182 0.156491
Si Si3 0.307015 0.501943 0.512080
Si Si4 0.324351 0.782980 0.786012
Si Si5 0.377813 0.372408 0.497320
Si Si6 0.255239 0.361145 0.931428
Si Si7 0.956322 0.341538 0.395516
O O1 0.700781 0.271890 0.795986
O O2 0.245943 0.339361 0.584128
O O3 0.722725 0.899641 0.167196
O O4 0.003017 0.004090 0.327092
O O5 0.500000 0.000000 0.000000
O O6 0.519273 0.987976 0.131773
O O7 0.397212 0.447198 0.508956
O O8 0.313869 0.572446 0.492634
O O9 0.641397 0.809439 0.925086
O O10 0.127937 0.841797 0.666115
O O11 0.220811 0.722640 0.693811
O O12 0.459717 0.347687 0.467875
O O13 0.087127 0.353398 0.389175
O O14 0.000000 0.366874 0.750000
#
# Coordination Sequence:
#
# PCOD9275208 Si02
#       7
#     4   8   8   8   8   8   8
#     4  10  20  38  74  92 134 192 246 300 374 422
#     4  11  25  42  67 102 147 188 248 306 365 440
#     4  11  23  42  69 107 141 190 245 294 375 446
#     4  10  21  42  66 101 134 189 242 298 369 429
#     4   9  19  38  68  95 137 183 230 291 359 439
#     4  10  21  40  70  99 145 185 231 305 369 433
#     4  10  23  41  68 100 135 192 249 294 362 447
#
# _framework density 25.268001000000002
#
# number of rings (size 3 to 8) (size 9 to 14) (size 15 to 20)
#    0.000    1.846    0.000    4.615    8.615    0.000 
#    8.308    6.923    1.692    2.769    0.000    0.000 
#    0.000    0.000    0.000    0.000    0.000    0.000 
#
# Total GULP energy -145088.964253 kJ/mol
# GULP energy per Si atom -5580.344779 kJ/mol
# Density = 2.521049 g / cm^3
# Si number density = 25.268001 Si / 1000 Ang^3
#
#
#
# Elastic Constant Matrix: (Units=GPa)
#
#
# Indices 1 2 3 4 5 6 
#
# 1 121.7826 55.3462 21.5978 -0.0308 9.0930 -0.0317
# 2 55.3462 163.3853 30.2178 -0.0493 4.5246 -0.0928
# 3 21.5978 30.2178 99.5494 -0.1659 3.5710 -0.3644
# 4 -0.0308 -0.0493 -0.1659 25.9505 -0.0069 -5.2987
# 5 9.0930 4.5246 3.5710 -0.0069 11.8142 -0.0055
# 6 -0.0317 -0.0928 -0.3644 -5.2987 -0.0055 34.2791
#
#
#
# Elastic Compliance Matrix: (Units=1/GPa)
#
#
# Indices 1 2 3 4 5 6 
#
# 1 0.010293 -0.003113 -0.001058 -0.000005 -0.006410 -0.000012
# 2 -0.003113 0.007469 -0.001592 0.000000 0.000017 0.000000
# 3 -0.001058 -0.001592 0.010825 0.000090 -0.001848 0.000123
# 4 -0.000005 0.000000 0.000090 0.039792 0.000002 0.006152
# 5 -0.006410 0.000017 -0.001848 0.000002 0.090129 -0.000011
# 6 -0.000012 0.000000 0.000123 0.006152 -0.000011 0.030125
#
#
# Mechanical properties :
#
#
# Convention : Reuss Voigt Hill
#
# Bulk Modulus (GPa) = 58.61988 66.56010 62.58999
# Shear Modulus (GPa) = 24.28997 32.91243 28.60120
#
# Velocity S-wave (km/s) = 3.10384 3.61298 3.36804
# Velocity P-wave (km/s) = 6.00789 6.61843 6.32054
#
# Compressibility (1/GPa) = 0.01705906
#
# Stress axis : x y z
#
# Youngs Moduli (GPa) = 97.15806 133.88346 92.37815
#
# Poissons Ratio (x) = 0.41683 0.09774
# Poissons Ratio (y) = 0.30249 0.14710
# Poissons Ratio (z) = 0.10280 0.21319
#
# Static dielectric constant tensor:
#      x y z
#    x 2.238620 -0.000210 0.098800 
#    y -0.000210 1.955840 -0.000280 
#    z 0.098800 -0.000280 2.110650 
# 
# From -- ./inp_files/240536.got.cif
#   From: 2010.05.17/outbox.cif.g08.bks.cpg/sg15_121_cif.got.tgz:240536.got - 2010.06.03 18:47:42.
