data_PCOD9275556
_publ_section_title
;
Structure prediction by ZEFSAII (Michael W. Deem and Ramdas Pophale) SiO2 
 PCOD9275556
Probable space group: C 2/C
;
_chemical_formula_sum "Si O2"
_cell_formula_units_Z 60
_cell_length_a 15.769520
_cell_length_b 5.940039
_cell_length_c 30.050917
_cell_angle_alpha 90.000000
_cell_angle_beta 92.391327
_cell_angle_gamma 90.000000
_cell_volume 2812.465040
_symmetry_space_group_name_H-M "C 2/C"
_symmetry_group_IT_number 15
_symmetry_cell_setting 'monoclinic'
loop_
_space_group_symop_operation_xyz
x,y,z
-x,y,1/2-z
-x,-y,-z
x,-y,1/2+z
1/2+x,1/2+y,z
1/2-x,1/2+y,1/2-z
1/2-x,1/2-y,-z
1/2+x,1/2-y,1/2+z
loop_
_atom_site_type_symbol
_atom_site_label
_atom_site_fract_x
_atom_site_fract_y
_atom_site_fract_z
Si Si1 0.790463 0.669563 0.953153
Si Si2 0.780280 0.430493 0.631304
Si Si3 0.500000 0.654921 0.250000
Si Si4 0.354791 0.779401 0.896326
Si Si5 0.965928 0.942028 0.951674
Si Si6 0.420333 0.697823 0.115967
Si Si7 0.096429 0.821406 0.316575
Si Si8 0.050767 0.548119 0.674020
O O1 0.805001 0.411407 0.935318
O O2 0.884328 0.780050 0.952981
O O3 0.735399 0.776231 0.912113
O O4 0.750000 0.750000 0.000000
O O5 0.696447 0.582534 0.629861
O O6 0.853531 0.608262 0.621404
O O7 0.814342 0.313930 0.677596
O O8 0.566258 0.494829 0.277938
O O9 0.442237 0.820039 0.279370
O O10 0.435040 0.656990 0.921546
O O11 0.377496 0.949708 0.856649
O O12 0.049050 0.830285 0.932554
O O13 0.000000 0.000000 0.000000
O O14 0.393978 0.470019 0.138907
O O15 0.506062 0.766203 0.142856
O O16 0.018003 0.649284 0.319049
#
# Coordination Sequence:
#
# PCOD9275556 Si02
#       8
#     8   8   4   8   8   8   8   8
#     4  11  26  42  59  94 137 182 224 272 323 385
#     4  10  24  38  66  94 131 178 213 262 332 393
#     4  10  22  36  72 110 124 152 214 290 328 404
#     4  11  23  43  63  98 135 184 217 268 333 397
#     4  11  25  37  63  95 132 175 229 279 317 377
#     4  10  20  39  62  96 126 171 216 268 318 389
#     4  10  20  40  65 104 126 160 216 271 336 393
#     4  10  20  39  66 102 125 165 216 268 336 392
#
# _framework density 21.333597000000001
#
# number of rings (size 3 to 8) (size 9 to 14) (size 15 to 20)
#    0.000    1.600    2.667    1.200    5.600    1.600 
#    0.000    0.000    0.000    0.000  156.000    0.000 
#    0.000    0.000    0.000    0.000    0.000    0.000 
#
# Total GULP energy -167059.638812 kJ/mol
# GULP energy per Si atom -5568.654627 kJ/mol
# Density = 2.128504 g / cm^3
# Si number density = 21.333597 Si / 1000 Ang^3
#
#
#
# Elastic Constant Matrix: (Units=GPa)
#
#
# Indices 1 2 3 4 5 6 
#
# 1 43.3864 19.9920 38.0199 0.0000 20.3496 0.0000
# 2 19.9920 72.0731 23.6803 0.0000 8.9669 0.0000
# 3 38.0199 23.6803 88.6741 0.0000 9.2167 0.0000
# 4 0.0000 0.0000 0.0000 26.4145 0.0000 6.9357
# 5 20.3496 8.9669 9.2167 0.0000 28.3174 0.0000
# 6 0.0000 0.0000 0.0000 6.9357 0.0000 13.3174
#
#
#
# Elastic Compliance Matrix: (Units=1/GPa)
#
#
# Indices 1 2 3 4 5 6 
#
# 1 0.059854 -0.005537 -0.020592 0.000000 -0.034556 0.000000
# 2 -0.005537 0.016088 -0.001869 0.000000 -0.000507 0.000000
# 3 -0.020592 -0.001869 0.019672 0.000000 0.008987 0.000000
# 4 0.000000 0.000000 0.000000 0.043855 0.000000 -0.022840
# 5 -0.034556 -0.000507 0.008987 0.000000 0.057382 0.000000
# 6 0.000000 0.000000 0.000000 -0.022840 0.000000 0.086985
#
#
# Mechanical properties :
#
#
# Convention : Reuss Voigt Hill
#
# Bulk Modulus (GPa) = 25.24304 40.83533 33.03918
# Shear Modulus (GPa) = 14.16275 21.77263 17.96769
#
# Velocity S-wave (km/s) = 2.57936 3.19812 2.90526
# Velocity P-wave (km/s) = 4.55292 5.72889 5.17442
#
# Compressibility (1/GPa) = 0.03961489
#
# Stress axis : x y z
#
# Youngs Moduli (GPa) = 16.70743 62.15801 50.83496
#
# Poissons Ratio (x) = 0.34419 1.04681
# Poissons Ratio (y) = 0.09252 0.09503
# Poissons Ratio (z) = 0.34404 0.11620
#
# Static dielectric constant tensor:
#      x y z
#    x 1.729620 0.000000 0.066000 
#    y 0.000000 1.829760 0.000000 
#    z 0.066000 0.000000 1.682190 
# 
# From -- ./inp_files/314892.got.cif
#   From: 2010.05.17/outbox.cif.g08.bks.cpg/sg15_158_cif.got.tgz:314892.got - 2010.06.03 18:47:42.
