data_PCOD9275325
_publ_section_title
;
Structure prediction by ZEFSAII (Michael W. Deem and Ramdas Pophale) SiO2 
 PCOD9275325
Probable space group: C 2/C
;
_chemical_formula_sum "Si O2"
_cell_formula_units_Z 36
_cell_length_a 9.977039
_cell_length_b 20.511902
_cell_length_c 7.776552
_cell_angle_alpha 90.000000
_cell_angle_beta 108.326548
_cell_angle_gamma 90.000000
_cell_volume 1510.737337
_symmetry_space_group_name_H-M "C 2/C"
_symmetry_group_IT_number 15
_symmetry_cell_setting 'monoclinic'
loop_
_space_group_symop_operation_xyz
x,y,z
-x,y,1/2-z
-x,-y,-z
x,-y,1/2+z
1/2+x,1/2+y,z
1/2-x,1/2+y,1/2-z
1/2-x,1/2-y,-z
1/2+x,1/2-y,1/2+z
loop_
_atom_site_type_symbol
_atom_site_label
_atom_site_fract_x
_atom_site_fract_y
_atom_site_fract_z
Si Si1 0.816806 0.820727 0.334770
Si Si2 0.000000 0.331315 0.250000
Si Si3 0.552096 0.930863 0.584516
Si Si4 0.352057 0.597350 0.185065
Si Si5 0.373617 0.698528 0.501530
O O1 0.653611 0.795831 0.288141
O O2 0.830607 0.874122 0.486866
O O3 0.844884 0.847813 0.155450
O O4 0.961265 0.777390 0.422683
O O5 0.017591 0.377023 0.425534
O O6 0.500000 0.909104 0.750000
O O7 0.717516 0.942775 0.675816
O O8 0.500000 0.000000 0.500000
O O9 0.500000 0.561950 0.250000
O O10 0.356455 0.657834 0.321303
O O11 0.250000 0.750000 0.500000
#
# Coordination Sequence:
#
# PCOD9275325 Si02
#       5
#     8   4   8   8   8
#     4   9  20  39  58  82 114 156 198 243 302 356
#     4  10  20  40  62  84 116 160 202 248 306 356
#     4  11  21  37  63  89 122 154 201 248 301 370
#     4   9  20  40  63  84 118 159 198 249 305 350
#     4  10  20  39  60  86 117 154 203 251 301 361
#
# _framework density 23.829422999999998
#
# number of rings (size 3 to 8) (size 9 to 14) (size 15 to 20)
#    0.000    2.222    1.111    1.333    0.000    0.889 
#   26.000    1.111    4.889    0.000    0.000    0.000 
#    0.000    0.000    0.000    0.000    0.000    0.000 
#
# Total GULP energy -100347.565678 kJ/mol
# GULP energy per Si atom -5574.864760 kJ/mol
# Density = 2.377519 g / cm^3
# Si number density = 23.829423 Si / 1000 Ang^3
#
#
#
# Elastic Constant Matrix: (Units=GPa)
#
#
# Indices 1 2 3 4 5 6 
#
# 1 240.1234 33.4081 44.9870 0.0000 40.9040 0.0000
# 2 33.4081 38.0842 15.3645 0.0000 8.3028 0.0000
# 3 44.9870 15.3645 112.5846 0.0000 -24.3719 0.0000
# 4 0.0000 0.0000 0.0000 2.6042 0.0000 11.3274
# 5 40.9040 8.3028 -24.3719 0.0000 74.9597 0.0000
# 6 0.0000 0.0000 0.0000 11.3274 0.0000 -21.0217
#
#
#
# Elastic Compliance Matrix: (Units=1/GPa)
#
#
# Indices 1 2 3 4 5 6 
#
# 1 0.005716 -0.003159 -0.002638 0.000000 -0.003627 0.000000
# 2 -0.003159 0.031117 -0.003611 0.000000 -0.002897 0.000000
# 3 -0.002638 -0.003611 0.011647 0.000000 0.005626 0.000000
# 4 0.000000 0.000000 0.000000 0.114838 0.000000 0.061880
# 5 -0.003627 -0.002897 0.005626 0.000000 0.017470 0.000000
# 6 0.000000 0.000000 0.000000 0.061880 0.000000 -0.014226
#
#
# Mechanical properties :
#
#
# Convention : Reuss Voigt Hill
#
# Bulk Modulus (GPa) = 33.71159 64.25684 48.98422
# Shear Modulus (GPa) = 25.60584 31.11061 28.35823
#
# Velocity S-wave (km/s) = 3.28159 3.61717 3.45345
# Velocity P-wave (km/s) = 5.34192 6.66851 6.04174
#
# Compressibility (1/GPa) = 0.02966339
#
# Stress axis : x y z
#
# Youngs Moduli (GPa) = 174.94254 32.13626 85.85765
#
# Poissons Ratio (x) = 0.10153 0.22650
# Poissons Ratio (y) = 0.55269 0.31006
# Poissons Ratio (z) = 0.46151 0.11606
#
# Static dielectric constant tensor:
#      x y z
#    x 1.985480 0.000000 0.065590 
#    y 0.000000 1.848070 0.000000 
#    z 0.065590 0.000000 2.020240 
# 
# From -- ./inp_files/23189.got.cif
#   From: 2010.05.17/outbox.cif.g08.bks.cpg/sg15_12_cif.got.tgz:23189.got - 2010.06.03 18:47:42.
