data_PCOD9275590
_publ_section_title
;
Structure prediction by ZEFSAII (Michael W. Deem and Ramdas Pophale) SiO2 
 PCOD9275590
Probable space group: C 2/C
;
_chemical_formula_sum "Si O2"
_cell_formula_units_Z 40
_cell_length_a 5.430061
_cell_length_b 13.128117
_cell_length_c 25.013007
_cell_angle_alpha 90.000000
_cell_angle_beta 126.842194
_cell_angle_gamma 90.000000
_cell_volume 1426.988430
_symmetry_space_group_name_H-M "C 2/C"
_symmetry_group_IT_number 15
_symmetry_cell_setting 'monoclinic'
loop_
_space_group_symop_operation_xyz
x,y,z
-x,y,1/2-z
-x,-y,-z
x,-y,1/2+z
1/2+x,1/2+y,z
1/2-x,1/2+y,1/2-z
1/2-x,1/2-y,-z
1/2+x,1/2-y,1/2+z
loop_
_atom_site_type_symbol
_atom_site_label
_atom_site_fract_x
_atom_site_fract_y
_atom_site_fract_z
Si Si1 0.380539 0.613957 0.996790
Si Si2 0.191939 0.301413 0.852163
Si Si3 0.797451 0.486728 0.396157
Si Si4 0.204753 0.268776 0.610150
Si Si5 0.924329 0.520063 0.682486
O O1 0.403531 0.694604 0.951462
O O2 0.021821 0.586236 0.959348
O O3 0.500000 0.500000 0.000000
O O4 0.562185 0.662419 0.069615
O O5 0.425644 0.260548 0.838732
O O6 0.013183 0.398718 0.807717
O O7 0.954200 0.237052 0.855270
O O8 0.865890 0.609492 0.406213
O O9 0.447235 0.476684 0.369118
O O10 0.887830 0.453767 0.346970
O O11 0.000000 0.564875 0.750000
#
# Coordination Sequence:
#
# PCOD9275590 Si02
#       5
#     8   8   8   8   8
#     4  12  22  38  63  94 133 160 203 251 321 383
#     4  10  22  39  59  91 123 166 204 249 320 365
#     4  10  23  38  61  93 120 164 207 251 328 366
#     4  10  22  39  56  88 128 160 197 250 300 381
#     4  10  20  39  63  87 118 160 217 259 299 373
#
# _framework density 28.031061000000001
#
# number of rings (size 3 to 8) (size 9 to 14) (size 15 to 20)
#    0.000    1.600    4.000    1.800    0.000    6.400 
#    0.000    0.000    0.000   19.200    0.000    0.000 
#    0.000    0.000    0.000    0.000    0.000    0.000 
#
# Total GULP energy -111875.370616 kJ/mol
# GULP energy per Si atom -5593.768531 kJ/mol
# Density = 2.796726 g / cm^3
# Si number density = 28.031061 Si / 1000 Ang^3
#
#
#
# Elastic Constant Matrix: (Units=GPa)
#
#
# Indices 1 2 3 4 5 6 
#
# 1 210.6780 -3.0852 11.2268 0.0001 -24.7634 0.0001
# 2 -3.0852 176.7863 12.3647 0.0000 -6.3059 0.0000
# 3 11.2268 12.3647 59.3445 0.0001 -31.5847 0.0001
# 4 0.0001 0.0000 0.0001 30.5982 0.0001 -1.7254
# 5 -24.7634 -6.3059 -31.5847 0.0001 37.2190 0.0000
# 6 0.0001 0.0000 0.0001 -1.7254 0.0000 19.9536
#
#
#
# Elastic Compliance Matrix: (Units=1/GPa)
#
#
# Indices 1 2 3 4 5 6 
#
# 1 0.005233 0.000155 0.001540 0.000000 0.004815 0.000000
# 2 0.000155 0.005745 -0.001191 0.000000 0.000066 0.000000
# 3 0.001540 -0.001191 0.031451 0.000000 0.027513 0.000000
# 4 0.000000 0.000000 0.000000 0.032842 0.000000 0.002840
# 5 0.004815 0.000066 0.027513 0.000000 0.053431 0.000000
# 6 0.000000 0.000000 0.000000 0.002840 0.000000 0.050362
#
#
# Mechanical properties :
#
#
# Convention : Reuss Voigt Hill
#
# Bulk Modulus (GPa) = 23.02192 54.20238 38.61215
# Shear Modulus (GPa) = 25.96960 45.97431 35.97196
#
# Velocity S-wave (km/s) = 3.04708 4.05423 3.58619
# Velocity P-wave (km/s) = 4.53987 6.42606 5.56348
#
# Compressibility (1/GPa) = 0.04343687
#
# Stress axis : x y z
#
# Youngs Moduli (GPa) = 191.10429 174.06654 31.79595
#
# Poissons Ratio (x) = -0.02704 -0.04898
# Poissons Ratio (y) = -0.02968 0.03788
# Poissons Ratio (z) = -0.29439 0.20739
#
# Static dielectric constant tensor:
#      x y z
#    x 2.281480 0.000000 -0.005220 
#    y 0.000000 2.218170 0.000000 
#    z -0.005220 0.000000 2.234540 
# 
# From -- ./inp_files/305090.got.cif
#   From: 2010.05.17/outbox.cif.g08.bks.cpg/sg15_153_cif.got.tgz:305090.got - 2010.06.03 18:47:42.
