data_PCOD9275058
_publ_section_title
;
Structure prediction by ZEFSAII (Michael W. Deem and Ramdas Pophale) SiO2 
 PCOD9275058
Probable space group: C 2/C
;
_chemical_formula_sum "Si O2"
_cell_formula_units_Z 52
_cell_length_a 8.001324
_cell_length_b 17.942241
_cell_length_c 24.819059
_cell_angle_alpha 90.000000
_cell_angle_beta 42.084125
_cell_angle_gamma 90.000000
_cell_volume 2388.041633
_symmetry_space_group_name_H-M "C 2/C"
_symmetry_group_IT_number 15
_symmetry_cell_setting 'monoclinic'
loop_
_space_group_symop_operation_xyz
x,y,z
-x,y,1/2-z
-x,-y,-z
x,-y,1/2+z
1/2+x,1/2+y,z
1/2-x,1/2+y,1/2-z
1/2-x,1/2-y,-z
1/2+x,1/2-y,1/2+z
loop_
_atom_site_type_symbol
_atom_site_label
_atom_site_fract_x
_atom_site_fract_y
_atom_site_fract_z
Si Si1 0.307302 0.137282 0.472278
Si Si2 0.843460 0.853930 0.012313
Si Si3 0.019393 0.506040 0.626298
Si Si4 0.500000 0.593250 0.750000
Si Si5 0.904352 0.856889 0.161059
Si Si6 0.703930 0.299623 0.594851
Si Si7 0.500000 0.729505 0.250000
Si Si8 0.000000 0.486125 0.250000
O O1 0.526798 0.189138 0.441717
O O2 0.128170 0.156496 0.464508
O O3 0.115703 0.133092 0.567001
O O4 0.436069 0.059662 0.426076
O O5 0.723743 0.929394 0.065126
O O6 0.690705 0.784811 0.075075
O O7 0.823353 0.849642 0.952331
O O8 0.747543 0.542990 0.687040
O O9 0.037304 0.475483 0.683446
O O10 0.493620 0.644863 0.803543
O O11 0.734127 0.785270 0.192571
O O12 0.732449 0.930068 0.199879
O O13 0.513709 0.313408 0.689899
#
# Coordination Sequence:
#
# PCOD9275058 Si02
#       8
#     8   8   8   4   8   8   4   4
#     4  12  24  43  69 101 136 181 224 283 346 413
#     4  11  23  44  71 100 128 182 230 283 335 416
#     4  11  23  43  67 101 137 177 228 281 350 403
#     4  10  22  37  62 104 130 171 230 286 328 402
#     4  10  20  38  68  89 128 174 232 267 327 403
#     4  11  25  43  68  97 140 171 233 286 340 402
#     4  11  22  45  62  90 136 185 217 284 338 401
#     4   9  18  38  62  92 126 172 211 278 322 407
#
# _framework density 21.775164
#
# number of rings (size 3 to 8) (size 9 to 14) (size 15 to 20)
#    0.000    1.231    3.077    3.692    0.000    4.308 
#    5.538    0.000    0.000    0.000    0.000    0.000 
#    0.000    0.000    0.000    0.000    0.000    0.000 
#
# Total GULP energy -145236.644045 kJ/mol
# GULP energy per Si atom -5586.024771 kJ/mol
# Density = 2.172560 g / cm^3
# Si number density = 21.775164 Si / 1000 Ang^3
#
#
#
# Elastic Constant Matrix: (Units=GPa)
#
#
# Indices 1 2 3 4 5 6 
#
# 1 117.5508 13.4325 59.0317 0.0026 26.0955 0.0004
# 2 13.4325 43.4110 36.5773 -0.0026 6.5719 0.0004
# 3 59.0317 36.5773 161.6010 -0.0054 37.7410 0.0020
# 4 0.0026 -0.0026 -0.0054 -1.4608 -0.0034 13.1469
# 5 26.0955 6.5719 37.7410 -0.0034 36.0940 0.0001
# 6 0.0004 0.0004 0.0020 13.1469 0.0001 17.6172
#
#
#
# Elastic Compliance Matrix: (Units=1/GPa)
#
#
# Indices 1 2 3 4 5 6 
#
# 1 0.011061 -0.000304 -0.002801 0.000006 -0.005013 -0.000004
# 2 -0.000304 0.028588 -0.006874 -0.000004 0.002202 0.000003
# 3 -0.002801 -0.006874 0.010587 -0.000003 -0.007794 0.000001
# 4 0.000006 -0.000004 -0.000003 -0.088717 -0.000009 0.066206
# 5 -0.005013 0.002202 -0.007794 -0.000009 0.039078 0.000007
# 6 -0.000004 0.000003 0.000001 0.066206 0.000007 0.007357
#
#
# Mechanical properties :
#
#
# Convention : Reuss Voigt Hill
#
# Bulk Modulus (GPa) = 33.02605 60.07176 46.54890
# Shear Modulus (GPa) = 131.56202 24.68483 78.12343
#
# Velocity S-wave (km/s) = 7.78136 3.37058 5.99627
# Velocity P-wave (km/s) = 9.79451 6.54179 8.32849
#
# Compressibility (1/GPa) = 0.03027913
#
# Stress axis : x y z
#
# Youngs Moduli (GPa) = 90.40659 34.97948 94.45195
#
# Poissons Ratio (x) = 0.01062 0.26457
# Poissons Ratio (y) = 0.02744 0.64927
# Poissons Ratio (z) = 0.25324 0.24045
#
# Static dielectric constant tensor:
#      x y z
#    x 1.849860 0.000000 0.034440 
#    y 0.000000 1.794930 0.000000 
#    z 0.034440 0.000000 1.770380 
# 
# From -- ./inp_files/289559.got.cif
#   From: 2010.05.17/outbox.cif.g08.bks.cpg/sg15_145_cif.got.tgz:289559.got - 2010.06.03 18:47:42.
