data_PCOD9275727
_publ_section_title
;
Structure prediction by ZEFSAII (Michael W. Deem and Ramdas Pophale) SiO2 
 PCOD9275727
Probable space group: C 2/C
;
_chemical_formula_sum "Si O2"
_cell_formula_units_Z 56
_cell_length_a 10.095940
_cell_length_b 16.896603
_cell_length_c 16.361362
_cell_angle_alpha 90.000000
_cell_angle_beta 73.327406
_cell_angle_gamma 90.000000
_cell_volume 2673.701477
_symmetry_space_group_name_H-M "C 2/C"
_symmetry_group_IT_number 15
_symmetry_cell_setting 'monoclinic'
loop_
_space_group_symop_operation_xyz
x,y,z
-x,y,1/2-z
-x,-y,-z
x,-y,1/2+z
1/2+x,1/2+y,z
1/2-x,1/2+y,1/2-z
1/2-x,1/2-y,-z
1/2+x,1/2-y,1/2+z
loop_
_atom_site_type_symbol
_atom_site_label
_atom_site_fract_x
_atom_site_fract_y
_atom_site_fract_z
Si Si1 0.640530 0.446415 0.169913
Si Si2 0.416908 0.725184 0.848915
Si Si3 0.245509 0.865880 0.849740
Si Si4 0.825494 0.160619 0.599517
Si Si5 0.565328 0.583180 0.079416
Si Si6 0.658472 0.029191 0.728195
Si Si7 0.644271 0.294006 0.698729
O O1 0.500000 0.452501 0.250000
O O2 0.671193 0.353784 0.152392
O O3 0.601055 0.492529 0.093871
O O4 0.771715 0.481613 0.194944
O O5 0.500000 0.743797 0.750000
O O6 0.326562 0.801060 0.888528
O O7 0.530065 0.694872 0.892898
O O8 0.331733 0.944873 0.818514
O O9 0.221143 0.819903 0.767682
O O10 0.095755 0.896493 0.905553
O O11 0.847915 0.120368 0.508783
O O12 0.725426 0.235498 0.625440
O O13 0.759526 0.093533 0.669068
O O14 0.604831 0.627893 0.155925
O O15 0.500000 0.055446 0.750000
O O16 0.500000 0.254746 0.750000
#
# Coordination Sequence:
#
# PCOD9275727 Si02
#       7
#     8   8   8   8   8   8   8
#     4  11  19  44  66  90 125 177 222 259 320 401
#     4  11  21  37  65  91 126 168 218 269 316 387
#     4  11  21  39  66  95 121 172 222 268 317 386
#     4  12  24  40  62  98 133 168 213 279 335 381
#     4  11  23  39  67  95 129 170 218 270 334 394
#     4  12  24  39  67  98 128 169 228 273 318 394
#     4  10  20  39  64  88 121 169 220 257 314 398
#
# _framework density 20.944745999999999
#
# number of rings (size 3 to 8) (size 9 to 14) (size 15 to 20)
#    0.000    0.857    7.143    1.714    0.000    4.000 
#    0.000    0.714    0.000    0.000    0.000    0.000 
#    0.000    0.000    0.000    0.000    0.000    0.000 
#
# Total GULP energy -156433.102242 kJ/mol
# GULP energy per Si atom -5586.896509 kJ/mol
# Density = 2.089708 g / cm^3
# Si number density = 20.944746 Si / 1000 Ang^3
#
#
#
# Elastic Constant Matrix: (Units=GPa)
#
#
# Indices 1 2 3 4 5 6 
#
# 1 108.8606 39.1632 17.2289 0.0000 -2.0479 0.0000
# 2 39.1632 112.7377 -3.2144 0.0000 -4.4967 0.0000
# 3 17.2289 -3.2144 36.0835 0.0000 -3.4580 0.0000
# 4 0.0000 0.0000 0.0000 9.8253 0.0000 15.9979
# 5 -2.0479 -4.4967 -3.4580 0.0000 12.6116 0.0000
# 6 0.0000 0.0000 0.0000 15.9979 0.0000 -3.9164
#
#
#
# Elastic Compliance Matrix: (Units=1/GPa)
#
#
# Indices 1 2 3 4 5 6 
#
# 1 0.011661 -0.004276 -0.006073 0.000000 -0.001296 0.000000
# 2 -0.004276 0.010612 0.003371 0.000000 0.004014 0.000000
# 3 -0.006073 0.003371 0.031769 0.000000 0.008927 0.000000
# 4 0.000000 0.000000 0.000000 0.013302 0.000000 0.054338
# 5 -0.001296 0.004014 0.008927 0.000000 0.082961 0.000000
# 6 0.000000 0.000000 0.000000 0.054338 0.000000 -0.033373
#
#
# Mechanical properties :
#
#
# Convention : Reuss Voigt Hill
#
# Bulk Modulus (GPa) = 24.94547 40.44856 32.69701
# Shear Modulus (GPa) = 34.66236 17.33771 26.00004
#
# Velocity S-wave (km/s) = 4.07251 2.88024 3.52712
# Velocity P-wave (km/s) = 5.83522 5.51498 5.67736
#
# Compressibility (1/GPa) = 0.04008744
#
# Stress axis : x y z
#
# Youngs Moduli (GPa) = 85.75587 94.23585 31.47725
#
# Poissons Ratio (x) = 0.40292 0.19116
# Poissons Ratio (y) = 0.36667 -0.10612
# Poissons Ratio (z) = 0.52079 -0.31771
#
# Static dielectric constant tensor:
#      x y z
#    x 1.777480 0.000000 0.012840 
#    y 0.000000 1.787460 0.000000 
#    z 0.012840 0.000000 1.753250 
# 
# From -- ./inp_files/190922.got.cif
#   From: 2010.05.17/outbox.cif.g08.bks.cpg/sg15_96_cif.got.tgz:190922.got - 2010.06.03 18:47:42.
