data_PCOD9275859
_publ_section_title
;
Structure prediction by ZEFSAII (Michael W. Deem and Ramdas Pophale) SiO2 
 PCOD9275859
Probable space group: C 2/C
;
_chemical_formula_sum "Si O2"
_cell_formula_units_Z 48
_cell_length_a 8.466566
_cell_length_b 15.205735
_cell_length_c 26.466193
_cell_angle_alpha 90.000000
_cell_angle_beta 135.968259
_cell_angle_gamma 90.000000
_cell_volume 2368.244116
_symmetry_space_group_name_H-M "C 2/C"
_symmetry_group_IT_number 15
_symmetry_cell_setting 'monoclinic'
loop_
_space_group_symop_operation_xyz
x,y,z
-x,y,1/2-z
-x,-y,-z
x,-y,1/2+z
1/2+x,1/2+y,z
1/2-x,1/2+y,1/2-z
1/2-x,1/2-y,-z
1/2+x,1/2-y,1/2+z
loop_
_atom_site_type_symbol
_atom_site_label
_atom_site_fract_x
_atom_site_fract_y
_atom_site_fract_z
Si Si1 0.089826 0.234314 0.066516
Si Si2 0.776356 0.635529 0.678118
Si Si3 0.450997 0.413283 0.019642
Si Si4 0.941904 0.799335 0.646840
Si Si5 0.920042 0.262329 0.787439
Si Si6 0.000361 0.597869 0.478019
O O1 0.352601 0.203850 0.133419
O O2 0.983078 0.227664 0.097703
O O3 0.984388 0.167879 0.001633
O O4 0.066658 0.330574 0.036478
O O5 0.606161 0.581908 0.604946
O O6 0.857176 0.718064 0.661829
O O7 0.652129 0.677997 0.697118
O O8 0.000000 0.587752 0.750000
O O9 0.500000 0.500000 0.000000
O O10 0.195709 0.399189 0.980592
O O11 0.744670 0.872198 0.600034
O O12 0.192534 0.820892 0.727536
O O13 0.000000 0.236730 0.750000
O O14 0.000000 0.500000 0.500000
#
# Coordination Sequence:
#
# PCOD9275859 Si02
#       6
#     8   8   8   8   8   8
#     4  11  21  41  67  93 129 175 219 271 334 396
#     4  10  20  39  65  91 126 168 218 267 330 392
#     4  12  25  41  64  97 132 174 223 274 334 398
#     4  10  21  37  66  93 129 169 220 268 332 393
#     4   9  19  37  65  94 122 173 221 268 331 398
#     4  12  24  38  62  97 135 168 221 274 333 395
#
# _framework density 20.268180999999998
#
# number of rings (size 3 to 8) (size 9 to 14) (size 15 to 20)
#    0.000    1.333    3.333    3.000    2.333    0.000 
#    0.000    4.167    0.000    7.000    0.000    0.000 
#    0.000    0.000    0.000    0.000    0.000    0.000 
#
# Total GULP energy -133943.216605 kJ/mol
# GULP energy per Si atom -5580.967359 kJ/mol
# Density = 2.022205 g / cm^3
# Si number density = 20.268181 Si / 1000 Ang^3
#
#
#
# Elastic Constant Matrix: (Units=GPa)
#
#
# Indices 1 2 3 4 5 6 
#
# 1 89.5359 23.8413 46.3049 0.0000 16.7649 0.0000
# 2 23.8413 87.3484 37.8426 0.0000 1.6831 0.0000
# 3 46.3049 37.8426 164.4768 0.0000 19.9707 0.0000
# 4 0.0000 0.0000 0.0000 17.1302 0.0000 -5.6977
# 5 16.7649 1.6831 19.9707 0.0000 37.5407 0.0000
# 6 0.0000 0.0000 0.0000 -5.6977 0.0000 25.0232
#
#
#
# Elastic Compliance Matrix: (Units=1/GPa)
#
#
# Indices 1 2 3 4 5 6 
#
# 1 0.014200 -0.002556 -0.002837 0.000000 -0.004718 0.000000
# 2 -0.002556 0.013215 -0.002552 0.000000 0.001907 0.000000
# 3 -0.002837 -0.002552 0.007802 0.000000 -0.002769 0.000000
# 4 0.000000 0.000000 0.000000 0.063160 0.000000 0.014381
# 5 -0.004718 0.001907 -0.002769 0.000000 0.030132 0.000000
# 6 0.000000 0.000000 0.000000 0.014381 0.000000 0.043237
#
#
# Mechanical properties :
#
#
# Convention : Reuss Voigt Hill
#
# Bulk Modulus (GPa) = 51.74207 61.92652 56.83430
# Shear Modulus (GPa) = 25.76277 31.49698 28.62988
#
# Velocity S-wave (km/s) = 3.56911 3.94637 3.76247
# Velocity P-wave (km/s) = 6.52448 7.16833 6.85397
#
# Compressibility (1/GPa) = 0.01932663
#
# Stress axis : x y z
#
# Youngs Moduli (GPa) = 70.42410 75.67104 128.17193
#
# Poissons Ratio (x) = 0.19340 0.36359
# Poissons Ratio (y) = 0.17999 0.32716
# Poissons Ratio (z) = 0.19978 0.19315
#
# Static dielectric constant tensor:
#      x y z
#    x 1.757530 0.000000 0.035950 
#    y 0.000000 1.716150 0.000000 
#    z 0.035950 0.000000 1.813890 
# 
# From -- ./inp_files/231062.got.cif
#   From: 2010.05.17/outbox.cif.g08.bks.cpg/sg15_116_cif.got.tgz:231062.got - 2010.06.03 18:47:42.
