data_PCOD9275999
_publ_section_title
;
Structure prediction by ZEFSAII (Michael W. Deem and Ramdas Pophale) SiO2 
 PCOD9275999
Probable space group: C 2/C
;
_chemical_formula_sum "Si O2"
_cell_formula_units_Z 40
_cell_length_a 11.057973
_cell_length_b 24.745348
_cell_length_c 8.866325
_cell_angle_alpha 90.000000
_cell_angle_beta 54.797918
_cell_angle_gamma 90.000000
_cell_volume 1982.442859
_symmetry_space_group_name_H-M "C 2/C"
_symmetry_group_IT_number 15
_symmetry_cell_setting 'monoclinic'
loop_
_space_group_symop_operation_xyz
x,y,z
-x,y,1/2-z
-x,-y,-z
x,-y,1/2+z
1/2+x,1/2+y,z
1/2-x,1/2+y,1/2-z
1/2-x,1/2-y,-z
1/2+x,1/2-y,1/2+z
loop_
_atom_site_type_symbol
_atom_site_label
_atom_site_fract_x
_atom_site_fract_y
_atom_site_fract_z
Si Si1 0.500000 0.496913 0.750000
Si Si2 0.216636 0.147642 0.797014
Si Si3 0.053077 0.745583 0.432818
Si Si4 0.419379 0.577766 0.045670
Si Si5 0.500000 0.165863 0.750000
Si Si6 0.766110 0.818186 0.565982
O O1 0.600813 0.536460 0.577681
O O2 0.585049 0.457919 0.802473
O O3 0.159117 0.204860 0.903745
O O4 0.359364 0.132141 0.791823
O O5 0.082619 0.104992 0.905905
O O6 0.248549 0.162754 0.597834
O O7 0.132727 0.710905 0.246065
O O8 0.029949 0.705602 0.587925
O O9 0.905189 0.777080 0.484822
O O10 0.308152 0.627289 0.123419
#
# Coordination Sequence:
#
# PCOD9275999 Si02
#       6
#     4   8   8   8   4   8
#     4  10  20  39  66  98 114 152 205 276 318 336
#     4  11  23  39  57  90 125 166 202 249 300 375
#     4  11  23  39  58  88 127 171 202 247 295 369
#     4  10  21  39  66  96 119 155 206 265 310 360
#     4  12  26  35  56  86 128 168 207 240 300 362
#     4  11  23  39  64  89 129 166 207 244 305 376
#
# _framework density 20.177126999999999
#
# number of rings (size 3 to 8) (size 9 to 14) (size 15 to 20)
#    0.000    1.200    4.000    3.000    5.600    1.600 
#    0.000    0.000    0.000    1.200    0.000    0.000 
#    0.000    0.000    0.000    0.000    0.000    0.000 
#
# Total GULP energy -111716.578606 kJ/mol
# GULP energy per Si atom -5585.828930 kJ/mol
# Density = 2.013120 g / cm^3
# Si number density = 20.177127 Si / 1000 Ang^3
#
#
#
# Elastic Constant Matrix: (Units=GPa)
#
#
# Indices 1 2 3 4 5 6 
#
# 1 108.8155 31.2208 35.2985 0.0000 0.3349 0.0000
# 2 31.2208 119.3274 35.7628 0.0000 2.7277 0.0000
# 3 35.2985 35.7628 61.0233 0.0000 0.0777 0.0000
# 4 0.0000 0.0000 0.0000 10.0241 0.0000 2.7596
# 5 0.3349 2.7277 0.0777 0.0000 20.6314 0.0000
# 6 0.0000 0.0000 0.0000 2.7596 0.0000 22.3553
#
#
#
# Elastic Compliance Matrix: (Units=1/GPa)
#
#
# Indices 1 2 3 4 5 6 
#
# 1 0.011459 -0.001227 -0.005909 0.000000 -0.000002 0.000000
# 2 -0.001227 0.010333 -0.005344 0.000000 -0.001326 0.000000
# 3 -0.005909 -0.005344 0.022936 0.000000 0.000716 0.000000
# 4 0.000000 0.000000 0.000000 0.103269 0.000000 -0.012748
# 5 -0.000002 -0.001326 0.000716 0.000000 0.048642 0.000000
# 6 0.000000 0.000000 0.000000 -0.012748 0.000000 0.046306
#
#
# Mechanical properties :
#
#
# Convention : Reuss Voigt Hill
#
# Bulk Modulus (GPa) = 50.58830 54.85895 52.72362
# Shear Modulus (GPa) = 18.21520 23.06111 20.63816
#
# Velocity S-wave (km/s) = 3.00786 3.38440 3.20167
# Velocity P-wave (km/s) = 6.09832 6.52073 6.31306
#
# Compressibility (1/GPa) = 0.01976742
#
# Stress axis : x y z
#
# Youngs Moduli (GPa) = 87.26917 96.77352 43.59863
#
# Poissons Ratio (x) = 0.11875 0.25763
# Poissons Ratio (y) = 0.10708 0.23301
# Poissons Ratio (z) = 0.51569 0.51720
#
# Static dielectric constant tensor:
#      x y z
#    x 1.805460 0.000000 0.003550 
#    y 0.000000 1.682480 0.000000 
#    z 0.003550 0.000000 1.733660 
# 
# From -- ./inp_files/32968.got.cif
#   From: 2010.05.17/outbox.cif.g08.bks.cpg/sg15_17_cif.got.tgz:32968.got - 2010.06.03 18:47:42.
