data_PCOD9275295
_publ_section_title
;
Structure prediction by ZEFSAII (Michael W. Deem and Ramdas Pophale) SiO2 
 PCOD9275295
Probable space group: C 2/C
;
_chemical_formula_sum "Si O2"
_cell_formula_units_Z 52
_cell_length_a 19.979056
_cell_length_b 22.606458
_cell_length_c 5.302615
_cell_angle_alpha 90.000000
_cell_angle_beta 98.344767
_cell_angle_gamma 90.000000
_cell_volume 2369.600111
_symmetry_space_group_name_H-M "C 2/C"
_symmetry_group_IT_number 15
_symmetry_cell_setting 'monoclinic'
loop_
_space_group_symop_operation_xyz
x,y,z
-x,y,1/2-z
-x,-y,-z
x,-y,1/2+z
1/2+x,1/2+y,z
1/2-x,1/2+y,1/2-z
1/2-x,1/2-y,-z
1/2+x,1/2-y,1/2+z
loop_
_atom_site_type_symbol
_atom_site_label
_atom_site_fract_x
_atom_site_fract_y
_atom_site_fract_z
Si Si1 0.748145 0.316731 0.400184
Si Si2 0.428457 0.250344 0.586420
Si Si3 0.000000 0.163369 0.750000
Si Si4 0.820510 0.348867 0.939534
Si Si5 0.123248 0.145409 0.103011
Si Si6 0.326874 0.021597 0.682896
Si Si7 0.172021 0.023778 0.203699
O O1 0.750000 0.250000 0.500000
O O2 0.770690 0.320983 0.124383
O O3 0.674063 0.342879 0.400544
O O4 0.793438 0.350211 0.637770
O O5 0.500000 0.232453 0.750000
O O6 0.450299 0.292907 0.371990
O O7 0.385286 0.193949 0.483241
O O8 0.386693 0.293413 0.751169
O O9 0.951973 0.129014 0.531213
O O10 0.830085 0.414042 0.059355
O O11 0.159481 0.091788 0.269695
O O12 0.357737 0.980724 0.479385
O O13 0.249487 0.998818 0.698393
O O14 0.141461 0.985388 0.410670
#
# Coordination Sequence:
#
# PCOD9275295 Si02
#       7
#     8   8   4   8   8   8   8
#     4  12  23  36  61 102 134 163 206 274 340 399
#     4  10  24  43  65  95 128 177 218 266 327 393
#     4  10  24  44  64  88 128 178 226 262 324 386
#     4  12  24  41  67  99 135 170 216 271 340 400
#     4  11  23  40  65  90 133 171 217 270 324 388
#     4  10  20  39  59  91 128 167 207 258 322 391
#     4  10  21  37  59  87 122 167 209 257 315 376
#
# _framework density 21.94463
#
# number of rings (size 3 to 8) (size 9 to 14) (size 15 to 20)
#    0.000    1.231    1.538    6.000    6.462    0.000 
#    0.000    0.769    0.000    0.923    0.000    0.000 
#    0.000    0.000    0.000    0.000    0.000    0.000 
#
# Total GULP energy -145093.207105 kJ/mol
# GULP energy per Si atom -5580.507966 kJ/mol
# Density = 2.189468 g / cm^3
# Si number density = 21.944630 Si / 1000 Ang^3
#
#
#
# Elastic Constant Matrix: (Units=GPa)
#
#
# Indices 1 2 3 4 5 6 
#
# 1 80.0679 24.1582 17.0237 0.0000 6.0841 0.0000
# 2 24.1582 64.1552 -15.7818 0.0000 5.2317 0.0000
# 3 17.0237 -15.7818 98.4507 0.0000 -7.1244 0.0000
# 4 0.0000 0.0000 0.0000 32.2130 0.0000 -3.5961
# 5 6.0841 5.2317 -7.1244 0.0000 25.2717 0.0000
# 6 0.0000 0.0000 0.0000 -3.5961 0.0000 21.9494
#
#
#
# Elastic Compliance Matrix: (Units=1/GPa)
#
#
# Indices 1 2 3 4 5 6 
#
# 1 0.015590 -0.006568 -0.004004 0.000000 -0.003522 0.000000
# 2 -0.006568 0.019174 0.004121 0.000000 -0.001226 0.000000
# 3 -0.004004 0.004121 0.011758 0.000000 0.003426 0.000000
# 4 0.000000 0.000000 0.000000 0.031622 0.000000 0.005181
# 5 -0.003522 -0.001226 0.003426 0.000000 0.041637 0.000000
# 6 0.000000 0.000000 0.000000 0.005181 0.000000 0.046408
#
#
# Mechanical properties :
#
#
# Convention : Reuss Voigt Hill
#
# Bulk Modulus (GPa) = 29.74410 32.60822 31.17616
# Shear Modulus (GPa) = 26.27452 30.37173 28.32312
#
# Velocity S-wave (km/s) = 3.46397 3.72427 3.59648
# Velocity P-wave (km/s) = 5.43897 5.77799 5.61104
#
# Compressibility (1/GPa) = 0.03362012
#
# Stress axis : x y z
#
# Youngs Moduli (GPa) = 64.14359 52.15346 85.04788
#
# Poissons Ratio (x) = 0.34255 0.34049
# Poissons Ratio (y) = 0.42131 -0.35045
# Poissons Ratio (z) = 0.25680 -0.21491
#
# Static dielectric constant tensor:
#      x y z
#    x 1.837750 0.000000 0.084240 
#    y 0.000000 1.879760 0.000000 
#    z 0.084240 0.000000 1.967390 
# 
# From -- ./inp_files/13377.got.cif
#   From: 2010.05.17/outbox.cif.g08.bks.cpg/sg15_7_cif.got.tgz:13377.got - 2010.06.03 18:47:42.
