data_PCOD9275320
_publ_section_title
;
Structure prediction by ZEFSAII (Michael W. Deem and Ramdas Pophale) SiO2 
 PCOD9275320
Probable space group: C 2/C
;
_chemical_formula_sum "Si O2"
_cell_formula_units_Z 56
_cell_length_a 8.447514
_cell_length_b 18.660049
_cell_length_c 19.859931
_cell_angle_alpha 90.000000
_cell_angle_beta 66.624102
_cell_angle_gamma 90.000000
_cell_volume 2873.591490
_symmetry_space_group_name_H-M "C 2/C"
_symmetry_group_IT_number 15
_symmetry_cell_setting 'monoclinic'
loop_
_space_group_symop_operation_xyz
x,y,z
-x,y,1/2-z
-x,-y,-z
x,-y,1/2+z
1/2+x,1/2+y,z
1/2-x,1/2+y,1/2-z
1/2-x,1/2-y,-z
1/2+x,1/2-y,1/2+z
loop_
_atom_site_type_symbol
_atom_site_label
_atom_site_fract_x
_atom_site_fract_y
_atom_site_fract_z
Si Si1 0.199240 0.217821 0.904483
Si Si2 0.523687 0.794823 0.448530
Si Si3 0.296475 0.678898 0.274012
Si Si4 0.782660 0.834853 0.618418
Si Si5 0.527052 0.062525 0.325867
Si Si6 0.528769 0.052197 0.555880
Si Si7 0.574471 0.418963 0.495394
O O1 0.390152 0.214870 0.907597
O O2 0.222566 0.253371 0.827736
O O3 0.102034 0.140674 0.930292
O O4 0.090819 0.273479 0.968071
O O5 0.684155 0.741391 0.420689
O O6 0.579730 0.876325 0.436179
O O7 0.500000 0.675285 0.250000
O O8 0.261658 0.681774 0.200510
O O9 0.202197 0.605328 0.311696
O O10 0.623885 0.883871 0.623811
O O11 0.954637 0.879477 0.570344
O O12 0.500000 0.052589 0.250000
O O13 0.509365 0.988649 0.368448
O O14 0.728627 0.073154 0.516590
O O15 0.500000 0.000000 0.500000
O O16 0.500000 0.500000 0.500000
#
# Coordination Sequence:
#
# PCOD9275320 Si02
#       7
#     8   8   8   8   8   8   8
#     4   9  18  34  58  90 110 149 204 245 290 357
#     4   9  18  35  58  85 117 144 193 255 293 351
#     4  11  21  36  61  86 112 160 206 242 299 368
#     4  10  20  39  60  85 120 156 196 250 311 360
#     4  10  23  40  57  87 124 162 195 252 318 375
#     4  11  22  37  60  89 121 154 206 253 299 367
#     4  10  20  39  63  88 123 159 198 253 313 371
#
# _framework density 19.48781
#
# number of rings (size 3 to 8) (size 9 to 14) (size 15 to 20)
#    0.000    2.000    2.857    1.714    2.000    0.000 
#    7.714    2.143    0.000    2.571    0.000    0.000 
#    0.000    0.000    0.000    0.000    0.000    0.000 
#
# Total GULP energy -156090.140129 kJ/mol
# GULP energy per Si atom -5574.647862 kJ/mol
# Density = 1.944345 g / cm^3
# Si number density = 19.487810 Si / 1000 Ang^3
#
#
#
# Elastic Constant Matrix: (Units=GPa)
#
#
# Indices 1 2 3 4 5 6 
#
# 1 13.5465 21.9377 15.2916 0.0000 -9.8411 0.0000
# 2 21.9377 164.8330 51.3599 0.0000 -3.5413 0.0000
# 3 15.2916 51.3599 81.4534 0.0000 -6.2440 0.0000
# 4 0.0000 0.0000 0.0000 30.1505 0.0000 -5.0105
# 5 -9.8411 -3.5413 -6.2440 0.0000 23.3569 0.0000
# 6 0.0000 0.0000 0.0000 -5.0105 0.0000 23.3896
#
#
#
# Elastic Compliance Matrix: (Units=1/GPa)
#
#
# Indices 1 2 3 4 5 6 
#
# 1 0.160735 -0.015104 -0.015963 0.000000 0.061166 0.000000
# 2 -0.015104 0.008970 -0.003271 0.000000 -0.005878 0.000000
# 3 -0.015963 -0.003271 0.017134 0.000000 -0.002641 0.000000
# 4 0.000000 0.000000 0.000000 0.034391 0.000000 0.007367
# 5 0.061166 -0.005878 -0.002641 0.000000 0.066988 0.000000
# 6 0.000000 0.000000 0.000000 0.007367 0.000000 0.044332
#
#
# Mechanical properties :
#
#
# Convention : Reuss Voigt Hill
#
# Bulk Modulus (GPa) = 8.46291 48.55682 28.50986
# Shear Modulus (GPa) = 11.34779 26.79562 19.07170
#
# Velocity S-wave (km/s) = 2.41571 3.71211 3.13173
# Velocity P-wave (km/s) = 3.48324 6.58359 5.26672
#
# Compressibility (1/GPa) = 0.11816269
#
# Stress axis : x y z
#
# Youngs Moduli (GPa) = 6.22141 111.48419 58.36452
#
# Poissons Ratio (x) = 1.68391 0.93166
# Poissons Ratio (y) = 0.09397 0.19090
# Poissons Ratio (z) = 0.09931 0.36465
#
# Static dielectric constant tensor:
#      x y z
#    x 1.721680 0.000000 0.014190 
#    y 0.000000 1.744950 0.000000 
#    z 0.014190 0.000000 1.706400 
# 
# From -- ./inp_files/232574.got.cif
#   From: 2010.05.17/outbox.cif.g08.bks.cpg/sg15_117_cif.got.tgz:232574.got - 2010.06.03 18:47:42.
