data_PCOD9275588
_publ_section_title
;
Structure prediction by ZEFSAII (Michael W. Deem and Ramdas Pophale) SiO2 
 PCOD9275588
Probable space group: C 2/C
;
_chemical_formula_sum "Si O2"
_cell_formula_units_Z 40
_cell_length_a 12.371298
_cell_length_b 7.417486
_cell_length_c 19.012287
_cell_angle_alpha 90.000000
_cell_angle_beta 69.168524
_cell_angle_gamma 90.000000
_cell_volume 1630.595701
_symmetry_space_group_name_H-M "C 2/C"
_symmetry_group_IT_number 15
_symmetry_cell_setting 'monoclinic'
loop_
_space_group_symop_operation_xyz
x,y,z
-x,y,1/2-z
-x,-y,-z
x,-y,1/2+z
1/2+x,1/2+y,z
1/2-x,1/2+y,1/2-z
1/2-x,1/2-y,-z
1/2+x,1/2-y,1/2+z
loop_
_atom_site_type_symbol
_atom_site_label
_atom_site_fract_x
_atom_site_fract_y
_atom_site_fract_z
Si Si1 0.022951 0.977561 0.911725
Si Si2 0.275964 0.472338 0.946151
Si Si3 0.648485 0.827935 0.849016
Si Si4 0.120151 0.622591 0.743921
Si Si5 0.231037 0.372732 0.608595
O O1 0.052049 0.172406 0.871204
O O2 0.904909 0.890920 0.911487
O O3 0.144669 0.877210 0.881048
O O4 0.000000 0.000000 0.000000
O O5 0.182488 0.368150 0.921957
O O6 0.290472 0.669694 0.908746
O O7 0.240376 0.509785 0.034701
O O8 0.766992 0.748699 0.787767
O O9 0.615070 0.009411 0.816979
O O10 0.141420 0.466108 0.680724
O O11 0.000000 0.715086 0.750000
#
# Coordination Sequence:
#
# PCOD9275588 Si02
#       5
#     8   8   8   8   8
#     4   9  20  38  60  88 118 151 194 247 297 344
#     4  10  20  39  63  87 117 153 194 251 294 338
#     4  11  24  39  61  89 118 157 202 241 293 357
#     4  11  24  41  59  86 122 159 194 240 296 356
#     4   9  20  39  61  87 119 153 198 241 293 355
#
# _framework density 24.530912000000001
#
# number of rings (size 3 to 8) (size 9 to 14) (size 15 to 20)
#    0.000    2.000    0.000    2.400    0.000   12.000 
#    0.000   17.000    0.000    0.000    0.000    0.000 
#    0.000    0.000    0.000    0.000    0.000    0.000 
#
# Total GULP energy -111924.628577 kJ/mol
# GULP energy per Si atom -5596.231429 kJ/mol
# Density = 2.447508 g / cm^3
# Si number density = 24.530912 Si / 1000 Ang^3
#
#
#
# Elastic Constant Matrix: (Units=GPa)
#
#
# Indices 1 2 3 4 5 6 
#
# 1 85.0512 9.4869 -10.5006 0.0000 7.2887 0.0000
# 2 9.4869 58.3957 23.2752 0.0000 5.5853 0.0000
# 3 -10.5006 23.2752 60.8679 0.0000 6.9375 0.0000
# 4 0.0000 0.0000 0.0000 49.5558 0.0000 0.1444
# 5 7.2887 5.5853 6.9375 0.0000 27.6240 0.0000
# 6 0.0000 0.0000 0.0000 0.1444 0.0000 9.1273
#
#
#
# Elastic Compliance Matrix: (Units=1/GPa)
#
#
# Indices 1 2 3 4 5 6 
#
# 1 0.012930 -0.003306 0.003920 0.000000 -0.003727 0.000000
# 2 -0.003306 0.021181 -0.008525 0.000000 -0.001269 0.000000
# 3 0.003920 -0.008525 0.020884 0.000000 -0.004555 0.000000
# 4 0.000000 0.000000 0.000000 0.020180 0.000000 -0.000319
# 5 -0.003727 -0.001269 -0.004555 0.000000 0.038585 0.000000
# 6 0.000000 0.000000 0.000000 -0.000319 0.000000 0.109566
#
#
# Mechanical properties :
#
#
# Convention : Reuss Voigt Hill
#
# Bulk Modulus (GPa) = 25.52863 27.64863 26.58863
# Shear Modulus (GPa) = 19.82501 29.39832 24.61166
#
# Velocity S-wave (km/s) = 2.84591 3.46558 3.17091
# Velocity P-wave (km/s) = 4.60741 5.22580 4.92632
#
# Compressibility (1/GPa) = 0.03917171
#
# Stress axis : x y z
#
# Youngs Moduli (GPa) = 77.34066 47.21216 47.88273
#
# Poissons Ratio (x) = 0.15610 -0.18769
# Poissons Ratio (y) = 0.25572 0.40821
# Poissons Ratio (z) = -0.30316 0.40249
#
# Static dielectric constant tensor:
#      x y z
#    x 1.921170 0.000000 0.028890 
#    y 0.000000 1.931930 0.000000 
#    z 0.028890 0.000000 1.939280 
# 
# From -- ./inp_files/195101.got.cif
#   From: 2010.05.17/outbox.cif.g08.bks.cpg/sg15_98_cif.got.tgz:195101.got - 2010.06.03 18:47:42.
