data_PCOD9275944
_publ_section_title
;
Structure prediction by ZEFSAII (Michael W. Deem and Ramdas Pophale) SiO2 
 PCOD9275944
Probable space group: C 2/C
;
_chemical_formula_sum "Si O2"
_cell_formula_units_Z 60
_cell_length_a 24.670037
_cell_length_b 18.030965
_cell_length_c 7.846169
_cell_angle_alpha 90.000000
_cell_angle_beta 47.107039
_cell_angle_gamma 90.000000
_cell_volume 2556.990216
_symmetry_space_group_name_H-M "C 2/C"
_symmetry_group_IT_number 15
_symmetry_cell_setting 'monoclinic'
loop_
_space_group_symop_operation_xyz
x,y,z
-x,y,1/2-z
-x,-y,-z
x,-y,1/2+z
1/2+x,1/2+y,z
1/2-x,1/2+y,1/2-z
1/2-x,1/2-y,-z
1/2+x,1/2-y,1/2+z
loop_
_atom_site_type_symbol
_atom_site_label
_atom_site_fract_x
_atom_site_fract_y
_atom_site_fract_z
Si Si1 0.083034 0.955134 0.638427
Si Si2 0.500000 0.088587 0.250000
Si Si3 0.055932 0.343663 0.966626
Si Si4 0.588349 0.299261 0.548093
Si Si5 0.133013 0.471388 0.971644
Si Si6 0.800411 0.409767 0.340415
Si Si7 0.359423 0.403239 0.638475
Si Si8 0.163496 0.251835 0.239317
O O1 0.117989 0.883172 0.465279
O O2 0.084561 0.925780 0.828912
O O3 0.000000 0.967259 0.750000
O O4 0.126538 0.032359 0.527025
O O5 0.511000 0.138771 0.393043
O O6 0.432495 0.030619 0.393596
O O7 0.095369 0.263960 0.890988
O O8 0.000000 0.348233 0.250000
O O9 0.115491 0.408097 0.872550
O O10 0.500000 0.310300 0.750000
O O11 0.620037 0.262503 0.654299
O O12 0.203081 0.522177 0.780739
O O13 0.144334 0.432975 0.126560
O O14 0.720981 0.403777 0.599590
O O15 0.836364 0.334887 0.187624
O O16 0.364302 0.315916 0.583523
O O17 0.250000 0.250000 0.000000
#
# Coordination Sequence:
#
# PCOD9275944 Si02
#       8
#     8   4   8   8   8   8   8   8
#     4  10  20  39  66  90 118 151 203 265 332 382
#     4  12  24  36  54  96 126 174 216 266 310 378
#     4  11  21  37  59  84 129 171 209 258 313 371
#     4   9  19  34  61  88 117 167 205 255 319 381
#     4  12  21  35  56  83 125 162 211 257 311 357
#     4  11  22  36  59  87 121 165 212 255 308 384
#     4  10  21  39  63  89 117 157 207 256 317 391
#     4   9  19  36  58  86 118 162 213 248 305 393
#
# _framework density 23.465087
#
# number of rings (size 3 to 8) (size 9 to 14) (size 15 to 20)
#    0.000    1.600    3.333    2.400    1.867    0.000 
#    0.000    1.333    2.933    0.800    0.000    0.000 
#    0.000    0.000    0.000    0.000    0.000    0.000 
#
# Total GULP energy -167396.435509 kJ/mol
# GULP energy per Si atom -5579.881184 kJ/mol
# Density = 2.341168 g / cm^3
# Si number density = 23.465087 Si / 1000 Ang^3
#
#
#
# Elastic Constant Matrix: (Units=GPa)
#
#
# Indices 1 2 3 4 5 6 
#
# 1 80.8744 5.7886 7.7754 0.0000 -0.4520 0.0000
# 2 5.7886 192.5056 22.7313 0.0000 10.5004 0.0000
# 3 7.7754 22.7313 21.6639 0.0000 2.7638 0.0000
# 4 0.0000 0.0000 0.0000 27.6701 0.0000 1.6194
# 5 -0.4520 10.5004 2.7638 0.0000 25.9652 0.0000
# 6 0.0000 0.0000 0.0000 1.6194 0.0000 27.0819
#
#
#
# Elastic Compliance Matrix: (Units=1/GPa)
#
#
# Indices 1 2 3 4 5 6 
#
# 1 0.012824 0.000150 -0.004846 0.000000 0.000679 0.000000
# 2 0.000150 0.006011 -0.006135 0.000000 -0.001775 0.000000
# 3 -0.004846 -0.006135 0.054774 0.000000 -0.003434 0.000000
# 4 0.000000 0.000000 0.000000 0.036267 0.000000 -0.002169
# 5 0.000679 -0.001775 -0.003434 0.000000 0.039608 0.000000
# 6 0.000000 0.000000 0.000000 -0.002169 0.000000 0.037055
#
#
# Mechanical properties :
#
#
# Convention : Reuss Voigt Hill
#
# Bulk Modulus (GPa) = 19.25050 40.84828 30.04939
# Shear Modulus (GPa) = 22.17123 33.39336 27.78229
#
# Velocity S-wave (km/s) = 3.07719 3.77650 3.44464
# Velocity P-wave (km/s) = 4.56587 6.03837 5.35299
#
# Compressibility (1/GPa) = 0.05194671
#
# Stress axis : x y z
#
# Youngs Moduli (GPa) = 77.97970 166.35062 18.25681
#
# Poissons Ratio (x) = -0.02489 0.08848
# Poissons Ratio (y) = -0.01167 0.11200
# Poissons Ratio (z) = 0.37790 1.02052
#
# Static dielectric constant tensor:
#      x y z
#    x 1.924330 0.000000 -0.047930 
#    y 0.000000 2.018120 0.000000 
#    z -0.047930 0.000000 1.999250 
# 
# From -- ./inp_files/67012.got.cif
#   From: 2010.05.17/outbox.cif.g08.bks.cpg/sg15_34_cif.got.tgz:67012.got - 2010.06.03 18:47:42.
