data_PCOD9275856
_publ_section_title
;
Structure prediction by ZEFSAII (Michael W. Deem and Ramdas Pophale) SiO2 
 PCOD9275856
Probable space group: C 2/C
;
_chemical_formula_sum "Si O2"
_cell_formula_units_Z 60
_cell_length_a 25.072050
_cell_length_b 17.984358
_cell_length_c 11.199024
_cell_angle_alpha 90.000000
_cell_angle_beta 32.138165
_cell_angle_gamma 90.000000
_cell_volume 2686.248394
_symmetry_space_group_name_H-M "C 2/C"
_symmetry_group_IT_number 15
_symmetry_cell_setting 'monoclinic'
loop_
_space_group_symop_operation_xyz
x,y,z
-x,y,1/2-z
-x,-y,-z
x,-y,1/2+z
1/2+x,1/2+y,z
1/2-x,1/2+y,1/2-z
1/2-x,1/2-y,-z
1/2+x,1/2-y,1/2+z
loop_
_atom_site_type_symbol
_atom_site_label
_atom_site_fract_x
_atom_site_fract_y
_atom_site_fract_z
Si Si1 0.894038 0.521365 0.643564
Si Si2 0.387098 0.460695 0.980512
Si Si3 0.500000 0.098822 0.250000
Si Si4 0.701564 0.721148 0.274186
Si Si5 0.258830 0.410299 0.656490
Si Si6 0.655842 0.654900 0.731129
Si Si7 0.223157 0.133244 0.004175
Si Si8 0.383431 0.786537 0.839825
O O1 0.830575 0.447349 0.746034
O O2 0.823921 0.584204 0.838076
O O3 0.000000 0.500000 0.500000
O O4 0.912882 0.550705 0.472944
O O5 0.500000 0.487169 0.750000
O O6 0.310590 0.528999 0.144206
O O7 0.381531 0.398330 0.094036
O O8 0.348871 0.420841 0.932262
O O9 0.539787 0.147655 0.284270
O O10 0.770960 0.664975 0.219277
O O11 0.747337 0.797101 0.136639
O O12 0.618990 0.744162 0.527495
O O13 0.674054 0.671086 0.212660
O O14 0.338899 0.390053 0.402554
O O15 0.597899 0.730457 0.804461
O O16 0.770231 0.681408 0.541614
#
# Coordination Sequence:
#
# PCOD9275856 Si02
#       8
#     8   8   4   8   8   8   8   8
#     4  11  24  39  63  97 128 168 201 263 322 376
#     4  11  24  42  62  93 124 164 206 263 316 371
#     4  12  22  38  60  96 132 150 212 258 312 378
#     4  10  20  42  65  89 122 169 210 250 317 370
#     4  10  24  41  67  89 125 171 208 258 316 376
#     4  10  21  42  65  85 121 163 210 256 308 378
#     4  10  22  42  64  90 129 165 204 263 316 373
#     4  10  20  39  65  91 119 164 207 256 310 373
#
# _framework density 22.335982999999999
#
# number of rings (size 3 to 8) (size 9 to 14) (size 15 to 20)
#    0.000    1.600    2.667    1.600    5.600    1.600 
#    4.800    0.000    0.000    0.000    0.000    0.000 
#    0.000    0.000    0.000    0.000    0.000    0.000 
#
# Total GULP energy -167470.033458 kJ/mol
# GULP energy per Si atom -5582.334449 kJ/mol
# Density = 2.228515 g / cm^3
# Si number density = 22.335983 Si / 1000 Ang^3
#
#
#
# Elastic Constant Matrix: (Units=GPa)
#
#
# Indices 1 2 3 4 5 6 
#
# 1 64.0890 40.3168 18.2863 0.0000 -3.6845 0.0000
# 2 40.3168 106.6070 15.3101 0.0000 -13.2473 0.0000
# 3 18.2863 15.3101 37.1233 0.0000 -5.3561 0.0000
# 4 0.0000 0.0000 0.0000 20.8926 0.0000 8.4709
# 5 -3.6845 -13.2473 -5.3561 0.0000 34.3610 0.0000
# 6 0.0000 0.0000 0.0000 8.4709 0.0000 36.6743
#
#
#
# Elastic Compliance Matrix: (Units=1/GPa)
#
#
# Indices 1 2 3 4 5 6 
#
# 1 0.022641 -0.007596 -0.008278 0.000000 -0.001791 0.000000
# 2 -0.007596 0.012893 -0.000999 0.000000 0.004001 0.000000
# 3 -0.008278 -0.000999 0.031962 0.000000 0.003709 0.000000
# 4 0.000000 0.000000 0.000000 0.052809 0.000000 -0.012198
# 5 -0.001791 0.004001 0.003709 0.000000 0.031031 0.000000
# 6 0.000000 0.000000 0.000000 -0.012198 0.000000 0.030084
#
#
# Mechanical properties :
#
#
# Convention : Reuss Voigt Hill
#
# Bulk Modulus (GPa) = 29.62904 39.51619 34.57261
# Shear Modulus (GPa) = 22.08314 27.31266 24.69790
#
# Velocity S-wave (km/s) = 3.14774 3.50066 3.32888
# Velocity P-wave (km/s) = 5.14830 5.83692 5.50339
#
# Compressibility (1/GPa) = 0.03375067
#
# Stress axis : x y z
#
# Youngs Moduli (GPa) = 44.16807 77.55858 31.28726
#
# Poissons Ratio (x) = 0.58914 0.25900
# Poissons Ratio (y) = 0.33550 0.03124
# Poissons Ratio (z) = 0.36563 0.07744
#
# Static dielectric constant tensor:
#      x y z
#    x 1.857150 0.000000 0.012720 
#    y 0.000000 1.856970 0.000000 
#    z 0.012720 0.000000 1.799290 
# 
# From -- ./inp_files/123970.got.cif
#   From: 2010.05.17/outbox.cif.g08.bks.cpg/sg15_62_cif.got.tgz:123970.got - 2010.06.03 18:47:42.
