data_PCOD9275343
_publ_section_title
;
Structure prediction by ZEFSAII (Michael W. Deem and Ramdas Pophale) SiO2 
 PCOD9275343
Probable space group: C 2/C
;
_chemical_formula_sum "Si O2"
_cell_formula_units_Z 40
_cell_length_a 5.472521
_cell_length_b 29.521327
_cell_length_c 11.264256
_cell_angle_alpha 90.000000
_cell_angle_beta 77.163650
_cell_angle_gamma 90.000000
_cell_volume 1774.329492
_symmetry_space_group_name_H-M "C 2/C"
_symmetry_group_IT_number 15
_symmetry_cell_setting 'monoclinic'
loop_
_space_group_symop_operation_xyz
x,y,z
-x,y,1/2-z
-x,-y,-z
x,-y,1/2+z
1/2+x,1/2+y,z
1/2-x,1/2+y,1/2-z
1/2-x,1/2-y,-z
1/2+x,1/2-y,1/2+z
loop_
_atom_site_type_symbol
_atom_site_label
_atom_site_fract_x
_atom_site_fract_y
_atom_site_fract_z
Si Si1 0.685765 0.008825 0.622991
Si Si2 0.338645 0.924794 0.011533
Si Si3 0.000000 0.261125 0.750000
Si Si4 0.000000 0.926234 0.250000
Si Si5 0.737619 0.706835 0.914992
Si Si6 0.823280 0.328153 0.978409
O O1 0.500000 0.994029 0.750000
O O2 0.556160 0.043229 0.542633
O O3 0.870285 0.040855 0.672164
O O4 0.793428 0.963236 0.554325
O O5 0.202384 0.903718 0.143532
O O6 0.380522 0.879701 0.932313
O O7 0.793131 0.228659 0.711908
O O8 0.889616 0.292523 0.866348
O O9 0.750000 0.750000 0.000000
O O10 0.472103 0.680518 0.963185
O O11 0.979903 0.679504 0.933983
#
# Coordination Sequence:
#
# PCOD9275343 Si02
#       6
#     8   8   4   4   8   8
#     4   9  20  40  64  87 133 173 206 266 330 390
#     4  10  22  39  61  94 131 163 223 263 326 381
#     4  10  22  45  68  90 128 172 212 270 345 382
#     4  10  20  39  60  88 124 182 204 260 323 386
#     4  10  23  44  64  92 130 167 211 269 342 393
#     4  11  25  41  68 100 127 168 225 276 315 412
#
# _framework density 22.543728000000002
#
# number of rings (size 3 to 8) (size 9 to 14) (size 15 to 20)
#    0.000    2.000    0.000    3.000    4.200    8.000 
#    7.200    0.000    0.000    0.000    0.000    0.000 
#    0.000    0.000    0.000    0.000    0.000    0.000 
#
# Total GULP energy -111357.816279 kJ/mol
# GULP energy per Si atom -5567.890814 kJ/mol
# Density = 2.249242 g / cm^3
# Si number density = 22.543728 Si / 1000 Ang^3
#
#
#
# Elastic Constant Matrix: (Units=GPa)
#
#
# Indices 1 2 3 4 5 6 
#
# 1 108.7827 41.3431 26.6290 0.0000 16.8050 0.0000
# 2 41.3431 122.4659 12.1316 0.0000 9.8264 0.0000
# 3 26.6290 12.1316 70.3679 0.0000 1.7029 0.0000
# 4 0.0000 0.0000 0.0000 28.6833 0.0000 5.1764
# 5 16.8050 9.8264 1.7029 0.0000 43.1633 0.0000
# 6 0.0000 0.0000 0.0000 5.1764 0.0000 39.4691
#
#
#
# Elastic Compliance Matrix: (Units=1/GPa)
#
#
# Indices 1 2 3 4 5 6 
#
# 1 0.011999 -0.003366 -0.003870 0.000000 -0.003753 0.000000
# 2 -0.003366 0.009400 -0.000327 0.000000 -0.000816 0.000000
# 3 -0.003870 -0.000327 0.015708 0.000000 0.000961 0.000000
# 4 0.000000 0.000000 0.000000 0.035709 0.000000 -0.004683
# 5 -0.003753 -0.000816 0.000961 0.000000 0.024777 0.000000
# 6 0.000000 0.000000 0.000000 -0.004683 0.000000 0.025950
#
#
# Mechanical properties :
#
#
# Convention : Reuss Voigt Hill
#
# Bulk Modulus (GPa) = 45.49223 51.31376 48.40299
# Shear Modulus (GPa) = 34.24755 37.03067 35.63911
#
# Velocity S-wave (km/s) = 3.90187 4.05732 3.98035
# Velocity P-wave (km/s) = 6.36575 6.69032 6.53005
#
# Compressibility (1/GPa) = 0.02198178
#
# Stress axis : x y z
#
# Youngs Moduli (GPa) = 83.34070 106.38466 63.66001
#
# Poissons Ratio (x) = 0.35812 0.24634
# Poissons Ratio (y) = 0.28055 0.02081
# Poissons Ratio (z) = 0.32249 0.03478
#
# Static dielectric constant tensor:
#      x y z
#    x 2.600200 0.000000 0.040820 
#    y 0.000000 1.807650 0.000000 
#    z 0.040820 0.000000 3.331670 
# 
# From -- ./inp_files/73386.got.cif
#   From: 2010.05.17/outbox.cif.g08.bks.cpg/sg15_37_cif.got.tgz:73386.got - 2010.06.03 18:47:42.
