data_PCOD9275166
_publ_section_title
;
Structure prediction by ZEFSAII (Michael W. Deem and Ramdas Pophale) SiO2 
 PCOD9275166
Probable space group: C 2/C
;
_chemical_formula_sum "Si O2"
_cell_formula_units_Z 52
_cell_length_a 21.690154
_cell_length_b 21.570268
_cell_length_c 11.987040
_cell_angle_alpha 90.000000
_cell_angle_beta 26.843287
_cell_angle_gamma 90.000000
_cell_volume 2532.431294
_symmetry_space_group_name_H-M "C 2/C"
_symmetry_group_IT_number 15
_symmetry_cell_setting 'monoclinic'
loop_
_space_group_symop_operation_xyz
x,y,z
-x,y,1/2-z
-x,-y,-z
x,-y,1/2+z
1/2+x,1/2+y,z
1/2-x,1/2+y,1/2-z
1/2-x,1/2-y,-z
1/2+x,1/2-y,1/2+z
loop_
_atom_site_type_symbol
_atom_site_label
_atom_site_fract_x
_atom_site_fract_y
_atom_site_fract_z
Si Si1 0.798123 0.907701 0.567032
Si Si2 0.500000 0.941424 0.250000
Si Si3 0.810030 0.471155 0.198675
Si Si4 0.804370 0.266306 0.286678
Si Si5 0.890673 0.138997 0.520707
Si Si6 0.986329 0.380021 0.054247
Si Si7 0.469307 0.646208 0.965914
O O1 0.899278 0.869405 0.323674
O O2 0.862019 0.902809 0.588016
O O3 0.775786 0.981356 0.584565
O O4 0.648883 0.878565 0.795941
O O5 0.438357 0.897061 0.255649
O O6 0.386165 0.985161 0.487756
O O7 0.716136 0.417533 0.299627
O O8 0.929463 0.435950 0.071696
O O9 0.750000 0.250000 0.500000
O O10 0.688581 0.299484 0.396939
O O11 0.919346 0.318031 0.119830
O O12 0.880250 0.209212 0.104623
O O13 0.972588 0.145148 0.503209
O O14 0.000000 0.122904 0.250000
#
# Coordination Sequence:
#
# PCOD9275166 Si02
#       7
#     8   4   8   8   8   8   8
#     4  10  24  46  65  99 135 175 227 266 350 405
#     4  10  20  38  70  94 124 176 210 272 342 378
#     4  10  24  41  67 103 134 168 227 277 335 415
#     4  11  25  45  65  94 134 169 238 275 331 405
#     4  11  25  43  67 101 133 179 222 284 343 392
#     4  10  24  42  68  97 128 177 225 278 326 406
#     4  11  26  43  67  97 134 184 215 281 342 397
#
# _framework density 20.533626999999999
#
# number of rings (size 3 to 8) (size 9 to 14) (size 15 to 20)
#    0.000    1.538    1.538    1.846   12.923    1.231 
#    2.769    0.000    0.000    0.000    0.000    0.000 
#    0.000    0.000    0.000    0.000    0.000    0.000 
#
# Total GULP energy -145003.902393 kJ/mol
# GULP energy per Si atom -5577.073169 kJ/mol
# Density = 2.048689 g / cm^3
# Si number density = 20.533627 Si / 1000 Ang^3
#
#
#
# Elastic Constant Matrix: (Units=GPa)
#
#
# Indices 1 2 3 4 5 6 
#
# 1 113.5005 1.0166 31.6848 0.0002 -20.5546 0.0001
# 2 1.0166 46.8679 35.2146 0.0000 1.5626 -0.0001
# 3 31.6848 35.2146 89.4232 0.0016 -12.0950 -0.0004
# 4 0.0002 0.0000 0.0016 33.4441 -0.0006 7.9974
# 5 -20.5546 1.5626 -12.0950 -0.0006 34.1123 0.0001
# 6 0.0001 -0.0001 -0.0004 7.9974 0.0001 31.4639
#
#
#
# Elastic Compliance Matrix: (Units=1/GPa)
#
#
# Indices 1 2 3 4 5 6 
#
# 1 0.010874 0.002838 -0.004309 0.000000 0.004895 0.000000
# 2 0.002838 0.032219 -0.014350 0.000001 -0.004854 0.000000
# 3 -0.004309 -0.014350 0.019010 -0.000001 0.004801 0.000000
# 4 0.000000 0.000001 -0.000001 0.031836 0.000000 -0.008092
# 5 0.004895 -0.004854 0.004801 0.000000 0.034189 0.000000
# 6 0.000000 0.000000 0.000000 -0.008092 0.000000 0.033839
#
#
# Mechanical properties :
#
#
# Convention : Reuss Voigt Hill
#
# Bulk Modulus (GPa) = 32.82731 42.84708 37.83720
# Shear Modulus (GPa) = 24.53852 31.92908 28.23380
#
# Velocity S-wave (km/s) = 3.46069 3.94758 3.71213
# Velocity P-wave (km/s) = 5.65599 6.45678 6.06961
#
# Compressibility (1/GPa) = 0.03046244
#
# Stress axis : x y z
#
# Youngs Moduli (GPa) = 91.95952 31.03788 52.60444
#
# Poissons Ratio (x) = -0.08810 0.22666
# Poissons Ratio (y) = -0.26101 0.75486
# Poissons Ratio (z) = 0.39623 0.44539
#
# Static dielectric constant tensor:
#      x y z
#    x 1.337540 0.000020 0.088030 
#    y 0.000020 1.733740 0.000000 
#    z 0.088030 0.000000 1.744570 
# 
# From -- ./inp_files/114364.got.cif
#   From: 2010.05.17/outbox.cif.g08.bks.cpg/sg15_58_cif.got.tgz:114364.got - 2010.06.03 18:47:42.
