data_PCOD9275277
_publ_section_title
;
Structure prediction by ZEFSAII (Michael W. Deem and Ramdas Pophale) SiO2 
 PCOD9275277
Probable space group: C 2/C
;
_chemical_formula_sum "Si O2"
_cell_formula_units_Z 56
_cell_length_a 18.926218
_cell_length_b 13.107292
_cell_length_c 12.637722
_cell_angle_alpha 90.000000
_cell_angle_beta 77.535412
_cell_angle_gamma 90.000000
_cell_volume 3061.163621
_symmetry_space_group_name_H-M "C 2/C"
_symmetry_group_IT_number 15
_symmetry_cell_setting 'monoclinic'
loop_
_space_group_symop_operation_xyz
x,y,z
-x,y,1/2-z
-x,-y,-z
x,-y,1/2+z
1/2+x,1/2+y,z
1/2-x,1/2+y,1/2-z
1/2-x,1/2-y,-z
1/2+x,1/2-y,1/2+z
loop_
_atom_site_type_symbol
_atom_site_label
_atom_site_fract_x
_atom_site_fract_y
_atom_site_fract_z
Si Si1 0.824806 0.208856 0.705246
Si Si2 0.092259 0.289015 0.009214
Si Si3 0.546347 0.855109 0.339335
Si Si4 0.143872 0.508815 0.936473
Si Si5 0.334304 0.283369 0.807878
Si Si6 0.707568 0.835146 0.582356
Si Si7 0.280131 0.476957 0.734271
O O1 0.889702 0.242099 0.609238
O O2 0.748693 0.248748 0.679691
O O3 0.831329 0.267299 0.814850
O O4 0.814605 0.087832 0.711582
O O5 0.123180 0.404202 0.000016
O O6 0.136772 0.228799 0.083702
O O7 0.008634 0.294209 0.067913
O O8 0.500000 0.880384 0.250000
O O9 0.577093 0.953479 0.387452
O O10 0.614735 0.787548 0.281113
O O11 0.211310 0.490536 0.835336
O O12 0.162028 0.597048 0.015025
O O13 0.335752 0.399323 0.770175
O O14 0.750000 0.750000 0.500000
O O15 0.754098 0.918632 0.635488
#
# Coordination Sequence:
#
# PCOD9275277 Si02
#       7
#     8   8   8   8   8   8   8
#     4  11  21  37  58  93 120 153 210 254 294 362
#     4  11  23  36  60  90 119 159 206 249 300 367
#     4  10  23  41  60  86 128 165 195 244 313 372
#     4  12  21  38  61  91 123 159 199 251 311 365
#     4  10  20  39  59  84 122 159 200 248 302 363
#     4  11  22  36  58  91 130 155 196 258 318 355
#     4  11  22  36  64  91 118 159 208 256 305 358
#
# _framework density 18.293696000000001
#
# number of rings (size 3 to 8) (size 9 to 14) (size 15 to 20)
#    0.000    1.143    5.714    2.571    4.000    0.000 
#    0.000    1.429    0.000    3.429    0.000    0.000 
#    0.000    0.000    0.000    0.000    0.000    0.000 
#
# Total GULP energy -156297.017438 kJ/mol
# GULP energy per Si atom -5582.036337 kJ/mol
# Density = 1.825206 g / cm^3
# Si number density = 18.293696 Si / 1000 Ang^3
#
#
#
# Elastic Constant Matrix: (Units=GPa)
#
#
# Indices 1 2 3 4 5 6 
#
# 1 39.7913 -0.4960 18.4280 0.0000 4.7286 0.0000
# 2 -0.4960 109.4664 20.9607 0.0000 21.4446 0.0000
# 3 18.4280 20.9607 101.0231 0.0000 -6.6393 0.0000
# 4 0.0000 0.0000 0.0000 29.7866 0.0000 5.6638
# 5 4.7286 21.4446 -6.6393 0.0000 12.8775 0.0000
# 6 0.0000 0.0000 0.0000 5.6638 0.0000 7.8736
#
#
#
# Elastic Compliance Matrix: (Units=1/GPa)
#
#
# Indices 1 2 3 4 5 6 
#
# 1 0.033407 0.008036 -0.009778 0.000000 -0.030690 0.000000
# 2 0.008036 0.017743 -0.007538 0.000000 -0.036384 0.000000
# 3 -0.009778 -0.007538 0.014809 0.000000 0.023779 0.000000
# 4 0.000000 0.000000 0.000000 0.038892 0.000000 -0.027977
# 5 -0.030690 -0.036384 0.023779 0.000000 0.161773 0.000000
# 6 0.000000 0.000000 0.000000 -0.027977 0.000000 0.147132
#
#
# Mechanical properties :
#
#
# Convention : Reuss Voigt Hill
#
# Bulk Modulus (GPa) = 21.09805 36.45178 28.77492
# Shear Modulus (GPa) = 11.15783 24.20009 17.67896
#
# Velocity S-wave (km/s) = 2.47235 3.64107 3.11206
# Velocity P-wave (km/s) = 4.43937 6.13560 5.35507
#
# Compressibility (1/GPa) = 0.04739774
#
# Stress axis : x y z
#
# Youngs Moduli (GPa) = 29.93397 56.36117 67.52528
#
# Poissons Ratio (x) = -0.45292 0.66028
# Poissons Ratio (y) = -0.24055 0.50903
# Poissons Ratio (z) = 0.29270 0.42487
#
# Static dielectric constant tensor:
#      x y z
#    x 1.607540 0.000000 -0.001440 
#    y 0.000000 1.634750 0.000000 
#    z -0.001440 0.000000 1.665620 
# 
# From -- ./inp_files/110978.got.cif
#   From: 2010.05.17/outbox.cif.g08.bks.cpg/sg15_56_cif.got.tgz:110978.got - 2010.06.03 18:47:42.
