data_PCOD9275216
_publ_section_title
;
Structure prediction by ZEFSAII (Michael W. Deem and Ramdas Pophale) SiO2 
 PCOD9275216
Probable space group: C 2/C
;
_chemical_formula_sum "Si O2"
_cell_formula_units_Z 40
_cell_length_a 6.414746
_cell_length_b 12.942706
_cell_length_c 17.880447
_cell_angle_alpha 90.000000
_cell_angle_beta 94.760196
_cell_angle_gamma 90.000000
_cell_volume 1479.388856
_symmetry_space_group_name_H-M "C 2/C"
_symmetry_group_IT_number 15
_symmetry_cell_setting 'monoclinic'
loop_
_space_group_symop_operation_xyz
x,y,z
-x,y,1/2-z
-x,-y,-z
x,-y,1/2+z
1/2+x,1/2+y,z
1/2-x,1/2+y,1/2-z
1/2-x,1/2-y,-z
1/2+x,1/2-y,1/2+z
loop_
_atom_site_type_symbol
_atom_site_label
_atom_site_fract_x
_atom_site_fract_y
_atom_site_fract_z
Si Si1 0.205944 0.392585 0.964570
Si Si2 0.931802 0.592116 0.605015
Si Si3 0.107378 0.734766 0.330473
Si Si4 0.664934 0.528440 0.821293
Si Si5 0.552108 0.682156 0.389268
O O1 0.057686 0.329236 0.903274
O O2 0.429110 0.336366 0.964352
O O3 0.226882 0.504389 0.925946
O O4 0.095993 0.400474 0.040257
O O5 0.084251 0.551790 0.675660
O O6 0.839960 0.706422 0.611531
O O7 0.087328 0.856888 0.342043
O O8 0.352298 0.704557 0.329344
O O9 0.000000 0.705513 0.250000
O O10 0.500000 0.505520 0.750000
O O11 0.651525 0.426053 0.871185
#
# Coordination Sequence:
#
# PCOD9275216 Si02
#       5
#     8   8   8   8   8
#     4   9  20  37  59  77 111 147 178 219 272 319
#     4  10  20  39  53  83 112 140 181 227 262 323
#     4   8  18  36  54  75 107 145 177 219 268 322
#     4  10  21  36  56  81 110 140 182 229 268 316
#     4   9  20  36  55  78 107 143 178 218 275 314
#
# _framework density 27.03819
#
# number of rings (size 3 to 8) (size 9 to 14) (size 15 to 20)
#    1.200    1.600    0.000    0.600    2.800    0.800 
#    3.600    3.000    0.000    0.000    0.000    0.000 
#    0.000    0.000    0.000    0.000    0.000    0.000 
#
# Total GULP energy -111603.894696 kJ/mol
# GULP energy per Si atom -5580.194735 kJ/mol
# Density = 2.697665 g / cm^3
# Si number density = 27.038190 Si / 1000 Ang^3
#
#
#
# Elastic Constant Matrix: (Units=GPa)
#
#
# Indices 1 2 3 4 5 6 
#
# 1 53.7136 47.7066 23.4075 0.0000 -0.5667 0.0000
# 2 47.7066 217.2754 39.8694 0.0000 -8.1243 0.0000
# 3 23.4075 39.8694 126.6221 0.0000 4.9966 0.0000
# 4 0.0000 0.0000 0.0000 33.8665 0.0000 16.7881
# 5 -0.5667 -8.1243 4.9966 0.0000 18.6281 0.0000
# 6 0.0000 0.0000 0.0000 16.7881 0.0000 27.5518
#
#
#
# Elastic Compliance Matrix: (Units=1/GPa)
#
#
# Indices 1 2 3 4 5 6 
#
# 1 0.024138 -0.004783 -0.002934 0.000000 -0.000565 0.000000
# 2 -0.004783 0.005957 -0.001100 0.000000 0.002748 0.000000
# 3 -0.002934 -0.001100 0.008903 0.000000 -0.002957 0.000000
# 4 0.000000 0.000000 0.000000 0.042306 0.000000 -0.025779
# 5 -0.000565 0.002748 -0.002957 0.000000 0.055657 0.000000
# 6 0.000000 0.000000 0.000000 -0.025779 0.000000 0.052003
#
#
# Mechanical properties :
#
#
# Convention : Reuss Voigt Hill
#
# Bulk Modulus (GPa) = 46.80642 68.84201 57.82421
# Shear Modulus (GPa) = 23.39529 35.11779 29.25654
#
# Velocity S-wave (km/s) = 2.94474 3.60783 3.29301
# Velocity P-wave (km/s) = 5.37687 6.54763 5.99092
#
# Compressibility (1/GPa) = 0.02136459
#
# Stress axis : x y z
#
# Youngs Moduli (GPa) = 41.42911 167.86563 112.32241
#
# Poissons Ratio (x) = 0.80283 0.32955
# Poissons Ratio (y) = 0.19814 0.12356
# Poissons Ratio (z) = 0.12155 0.18466
#
# Static dielectric constant tensor:
#      x y z
#    x 2.180170 0.000000 0.011900 
#    y 0.000000 2.059480 0.000000 
#    z 0.011900 0.000000 2.155490 
# 
# From -- ./inp_files/235931.got.cif
#   From: 2010.05.17/outbox.cif.g08.bks.cpg/sg15_118_cif.got.tgz:235931.got - 2010.06.03 18:47:42.
