data_PCOD9275596
_publ_section_title
;
Structure prediction by ZEFSAII (Michael W. Deem and Ramdas Pophale) SiO2 
 PCOD9275596
Probable space group: C 2/C
;
_chemical_formula_sum "Si O2"
_cell_formula_units_Z 64
_cell_length_a 26.345555
_cell_length_b 9.147391
_cell_length_c 14.358592
_cell_angle_alpha 90.000000
_cell_angle_beta 70.805424
_cell_angle_gamma 90.000000
_cell_volume 3267.953566
_symmetry_space_group_name_H-M "C 2/C"
_symmetry_group_IT_number 15
_symmetry_cell_setting 'monoclinic'
loop_
_space_group_symop_operation_xyz
x,y,z
-x,y,1/2-z
-x,-y,-z
x,-y,1/2+z
1/2+x,1/2+y,z
1/2-x,1/2+y,1/2-z
1/2-x,1/2-y,-z
1/2+x,1/2-y,1/2+z
loop_
_atom_site_type_symbol
_atom_site_label
_atom_site_fract_x
_atom_site_fract_y
_atom_site_fract_z
Si Si1 0.006864 0.763509 0.955318
Si Si2 0.702833 0.369502 0.777894
Si Si3 0.982379 0.933651 0.154752
Si Si4 0.137343 0.156704 0.796600
Si Si5 0.875438 0.631373 0.615844
Si Si6 0.302151 0.800713 0.413034
Si Si7 0.316846 0.076257 0.297581
Si Si8 0.390313 0.847737 0.504340
O O1 0.064110 0.687792 0.904922
O O2 0.954695 0.666795 0.963385
O O3 0.001549 0.908018 0.894736
O O4 0.003479 0.817240 0.065227
O O5 0.681800 0.534496 0.786192
O O6 0.665147 0.268191 0.866092
O O7 0.697345 0.295107 0.680554
O O8 0.764318 0.375239 0.771854
O O9 0.918087 0.923750 0.190316
O O10 0.000000 0.909450 0.250000
O O11 0.151723 0.272874 0.707387
O O12 0.128730 0.252073 0.895240
O O13 0.854626 0.532037 0.714418
O O14 0.875236 0.516508 0.531398
O O15 0.250000 0.750000 0.500000
O O16 0.357346 0.786273 0.437146
O O17 0.297420 0.972759 0.391774
#
# Coordination Sequence:
#
# PCOD9275596 Si02
#       8
#     8   8   8   8   8   8   8   8
#     4  10  21  39  62  90 122 164 201 255 314 366
#     4  11  21  39  64  85 117 167 205 245 313 371
#     4  10  22  37  59  90 126 159 202 251 308 375
#     4  10  20  40  59  86 120 161 199 250 310 366
#     4  10  20  39  63  88 118 162 203 243 310 370
#     4  11  23  40  60  92 122 159 210 258 310 368
#     4  10  22  38  60  86 119 162 205 252 307 365
#     4  10  22  38  62  90 126 153 200 258 305 368
#
# _framework density 19.584121
#
# number of rings (size 3 to 8) (size 9 to 14) (size 15 to 20)
#    0.000    1.750    1.250    4.125    1.750    1.000 
#    0.000    3.750    0.000    1.500    0.000    0.000 
#    0.000    0.000    0.000    0.000    0.000    0.000 
#
# Total GULP energy -178565.321139 kJ/mol
# GULP energy per Si atom -5580.166286 kJ/mol
# Density = 1.953955 g / cm^3
# Si number density = 19.584121 Si / 1000 Ang^3
#
#
#
# Elastic Constant Matrix: (Units=GPa)
#
#
# Indices 1 2 3 4 5 6 
#
# 1 90.1899 7.6034 50.0404 0.0000 -7.0081 0.0000
# 2 7.6034 78.1278 23.6785 0.0000 -13.8167 0.0000
# 3 50.0404 23.6785 62.5536 0.0000 -3.0093 0.0000
# 4 0.0000 0.0000 0.0000 23.8637 0.0000 17.1478
# 5 -7.0081 -13.8167 -3.0093 0.0000 38.7236 0.0000
# 6 0.0000 0.0000 0.0000 17.1478 0.0000 -37.7457
#
#
#
# Elastic Compliance Matrix: (Units=1/GPa)
#
#
# Indices 1 2 3 4 5 6 
#
# 1 0.021245 0.004200 -0.018397 0.000000 0.003914 0.000000
# 2 0.004200 0.016215 -0.009217 0.000000 0.005829 0.000000
# 3 -0.018397 -0.009217 0.034001 0.000000 -0.003976 0.000000
# 4 0.000000 0.000000 0.000000 0.031592 0.000000 0.014352
# 5 0.003914 0.005829 -0.003976 0.000000 0.028303 0.000000
# 6 0.000000 0.000000 0.000000 0.014352 0.000000 -0.019973
#
#
# Mechanical properties :
#
#
# Convention : Reuss Voigt Hill
#
# Bulk Modulus (GPa) = 40.59618 43.72397 42.16008
# Shear Modulus (GPa) = 30.04414 14.93825 22.49120
#
# Velocity S-wave (km/s) = 3.92102 2.76483 3.39254
# Velocity P-wave (km/s) = 6.42443 5.70676 6.07620
#
# Compressibility (1/GPa) = 0.02463286
#
# Stress axis : x y z
#
# Youngs Moduli (GPa) = 47.07029 61.67018 29.41117
#
# Poissons Ratio (x) = -0.25902 0.54107
# Poissons Ratio (y) = -0.19770 0.27110
# Poissons Ratio (z) = 0.86593 0.56844
#
# Static dielectric constant tensor:
#      x y z
#    x 1.660300 0.000000 -0.011930 
#    y 0.000000 1.693010 0.000000 
#    z -0.011930 0.000000 1.718550 
# 
# From -- ./inp_files/176579.got.cif
#   From: 2010.05.17/outbox.cif.g08.bks.cpg/sg15_89_cif.got.tgz:176579.got - 2010.06.03 18:47:42.
