data_PCOD9275604
_publ_section_title
;
Structure prediction by ZEFSAII (Michael W. Deem and Ramdas Pophale) SiO2 
 PCOD9275604
Probable space group: C 2/C
;
_chemical_formula_sum "Si O2"
_cell_formula_units_Z 52
_cell_length_a 6.467558
_cell_length_b 23.619427
_cell_length_c 20.825897
_cell_angle_alpha 90.000000
_cell_angle_beta 119.469146
_cell_angle_gamma 90.000000
_cell_volume 2769.761763
_symmetry_space_group_name_H-M "C 2/C"
_symmetry_group_IT_number 15
_symmetry_cell_setting 'monoclinic'
loop_
_space_group_symop_operation_xyz
x,y,z
-x,y,1/2-z
-x,-y,-z
x,-y,1/2+z
1/2+x,1/2+y,z
1/2-x,1/2+y,1/2-z
1/2-x,1/2-y,-z
1/2+x,1/2-y,1/2+z
loop_
_atom_site_type_symbol
_atom_site_label
_atom_site_fract_x
_atom_site_fract_y
_atom_site_fract_z
Si Si1 0.960595 0.033011 0.927177
Si Si2 0.681072 0.162785 0.009336
Si Si3 0.960661 0.494559 0.814843
Si Si4 0.169674 0.459145 0.569740
Si Si5 0.639456 0.641435 0.894906
Si Si6 0.500000 0.428456 0.250000
Si Si7 0.974444 0.767887 0.450008
O O1 0.088327 0.093698 0.942165
O O2 0.683742 0.034266 0.868670
O O3 0.086342 0.993987 0.893036
O O4 0.000000 0.000000 0.000000
O O5 0.718934 0.100259 0.042827
O O6 0.665050 0.209397 0.063522
O O7 0.417044 0.158072 0.937554
O O8 0.868551 0.189914 0.988394
O O9 0.927783 0.454904 0.872692
O O10 0.729750 0.533208 0.773949
O O11 0.000000 0.468489 0.750000
O O12 0.000000 0.500000 0.500000
O O13 0.559389 0.611126 0.818873
O O14 0.479076 0.695576 0.886421
O O15 0.250000 0.750000 0.500000
#
# Coordination Sequence:
#
# PCOD9275604 Si02
#       7
#     8   8   8   8   8   4   8
#     4  12  22  34  60  93 125 165 205 262 317 386
#     4  10  20  39  63  88 127 160 204 268 312 376
#     4  12  23  39  56  89 134 172 207 259 332 388
#     4  12  21  36  59  95 130 163 215 258 324 398
#     4  11  21  35  57  90 124 158 210 252 321 377
#     4  12  24  38  56  90 132 170 204 264 324 400
#     4   9  21  38  60  89 118 157 204 256 313 364
#
# _framework density 18.774180000000001
#
# number of rings (size 3 to 8) (size 9 to 14) (size 15 to 20)
#    0.000    0.923    6.154    0.923    2.154    1.231 
#    0.000    0.000    1.692    0.000    8.000    0.000 
#    0.000    0.000    0.000    0.000    0.000    0.000 
#
# Total GULP energy -144938.199171 kJ/mol
# GULP energy per Si atom -5574.546122 kJ/mol
# Density = 1.873145 g / cm^3
# Si number density = 18.774180 Si / 1000 Ang^3
#
#
#
# Elastic Constant Matrix: (Units=GPa)
#
#
# Indices 1 2 3 4 5 6 
#
# 1 110.8213 37.5223 33.1493 0.0000 7.4895 0.0000
# 2 37.5223 118.2260 23.6002 0.0000 -2.6045 0.0000
# 3 33.1493 23.6002 83.6322 0.0000 -6.4100 0.0000
# 4 0.0000 0.0000 0.0000 22.7359 0.0000 -8.3153
# 5 7.4895 -2.6045 -6.4100 0.0000 35.9323 0.0000
# 6 0.0000 0.0000 0.0000 -8.3153 0.0000 41.5879
#
#
#
# Elastic Compliance Matrix: (Units=1/GPa)
#
#
# Indices 1 2 3 4 5 6 
#
# 1 0.011413 -0.002905 -0.003957 0.000000 -0.003295 0.000000
# 2 -0.002905 0.009704 -0.001507 0.000000 0.001040 0.000000
# 3 -0.003957 -0.001507 0.014200 0.000000 0.003249 0.000000
# 4 0.000000 0.000000 0.000000 0.047454 0.000000 0.009488
# 5 -0.003295 0.001040 0.003249 0.000000 0.029172 0.000000
# 6 0.000000 0.000000 0.000000 0.009488 0.000000 0.025943
#
#
# Mechanical properties :
#
#
# Convention : Reuss Voigt Hill
#
# Bulk Modulus (GPa) = 53.82346 55.69145 54.75746
# Shear Modulus (GPa) = 31.09135 34.61174 32.85155
#
# Velocity S-wave (km/s) = 4.07390 4.29835 4.18763
# Velocity P-wave (km/s) = 7.13162 7.37311 7.25337
#
# Compressibility (1/GPa) = 0.01857926
#
# Stress axis : x y z
#
# Youngs Moduli (GPa) = 87.61617 103.04838 70.42384
#
# Poissons Ratio (x) = 0.29937 0.27865
# Poissons Ratio (y) = 0.25454 0.10614
# Poissons Ratio (z) = 0.34667 0.15531
#
# Static dielectric constant tensor:
#      x y z
#    x 1.741490 0.000000 -0.031870 
#    y 0.000000 1.661280 0.000000 
#    z -0.031870 0.000000 1.653980 
# 
# From -- ./inp_files/228200.got.cif
#   From: 2010.05.17/outbox.cif.g08.bks.cpg/sg15_115_cif.got.tgz:228200.got - 2010.06.03 18:47:42.
