data_PCOD9275638
_publ_section_title
;
Structure prediction by ZEFSAII (Michael W. Deem and Ramdas Pophale) SiO2 
 PCOD9275638
Probable space group: C 2/C
;
_chemical_formula_sum "Si O2"
_cell_formula_units_Z 44
_cell_length_a 12.419148
_cell_length_b 11.797341
_cell_length_c 14.733989
_cell_angle_alpha 90.000000
_cell_angle_beta 65.974145
_cell_angle_gamma 90.000000
_cell_volume 1971.692259
_symmetry_space_group_name_H-M "C 2/C"
_symmetry_group_IT_number 15
_symmetry_cell_setting 'monoclinic'
loop_
_space_group_symop_operation_xyz
x,y,z
-x,y,1/2-z
-x,-y,-z
x,-y,1/2+z
1/2+x,1/2+y,z
1/2-x,1/2+y,1/2-z
1/2-x,1/2-y,-z
1/2+x,1/2-y,1/2+z
loop_
_atom_site_type_symbol
_atom_site_label
_atom_site_fract_x
_atom_site_fract_y
_atom_site_fract_z
Si Si1 0.371582 0.843204 0.248991
Si Si2 0.109286 0.799930 0.932787
Si Si3 0.946904 0.456087 0.612853
Si Si4 0.500000 0.680178 0.750000
Si Si5 0.339094 0.852579 0.910101
Si Si6 0.381956 0.308391 0.111417
O O1 0.500000 0.836248 0.250000
O O2 0.370098 0.742627 0.174816
O O3 0.255380 0.833377 0.350391
O O4 0.362469 0.956394 0.190513
O O5 0.209184 0.888722 0.927556
O O6 0.146159 0.699916 0.993429
O O7 0.974977 0.831426 0.999261
O O8 0.896570 0.328742 0.622707
O O9 0.000000 0.500000 0.500000
O O10 0.065918 0.450045 0.631713
O O11 0.392214 0.754869 0.827412
O O12 0.560264 0.629593 0.819584
#
# Coordination Sequence:
#
# PCOD9275638 Si02
#       6
#     8   8   8   4   8   8
#     4  12  24  36  61  91 127 168 206 242 314 376
#     4   9  18  35  55  86 119 156 194 252 310 347
#     4  10  20  39  63  91 116 158 209 257 302 364
#     4   8  14  28  58  82 108 144 194 246 294 332
#     4   9  16  30  59  86 114 145 198 257 294 346
#     4  10  21  36  60  91 124 157 201 259 305 361
#
# _framework density 22.315854000000002
#
# number of rings (size 3 to 8) (size 9 to 14) (size 15 to 20)
#    0.000    2.545    5.455    0.000    5.091    0.727 
#    0.000    0.000    6.000    2.182    0.000    0.000 
#    0.000    0.000    0.000    0.000    0.000    0.000 
#
# Total GULP energy -122540.034685 kJ/mol
# GULP energy per Si atom -5570.001577 kJ/mol
# Density = 2.226506 g / cm^3
# Si number density = 22.315854 Si / 1000 Ang^3
#
#
#
# Elastic Constant Matrix: (Units=GPa)
#
#
# Indices 1 2 3 4 5 6 
#
# 1 112.9094 15.4958 30.7557 0.0000 -48.0295 0.0000
# 2 15.4958 32.8090 2.8186 0.0000 -14.7094 0.0000
# 3 30.7557 2.8186 77.3938 0.0000 -30.7767 0.0000
# 4 0.0000 0.0000 0.0000 20.7710 0.0000 -4.5452
# 5 -48.0295 -14.7094 -30.7767 0.0000 52.0810 0.0000
# 6 0.0000 0.0000 0.0000 -4.5452 0.0000 14.8201
#
#
#
# Elastic Compliance Matrix: (Units=1/GPa)
#
#
# Indices 1 2 3 4 5 6 
#
# 1 0.014630 -0.001129 -0.000698 0.000000 0.012760 0.000000
# 2 -0.001129 0.035710 0.003588 0.000000 0.011165 0.000000
# 3 -0.000698 0.003588 0.017274 0.000000 0.010577 0.000000
# 4 0.000000 0.000000 0.000000 0.051607 0.000000 0.015828
# 5 0.012760 0.011165 0.010577 0.000000 0.040372 0.000000
# 6 0.000000 0.000000 0.000000 0.015828 0.000000 0.072330
#
#
# Mechanical properties :
#
#
# Convention : Reuss Voigt Hill
#
# Bulk Modulus (GPa) = 14.05779 35.69471 24.87625
# Shear Modulus (GPa) = 19.83234 29.13724 24.48479
#
# Velocity S-wave (km/s) = 2.98436 3.61733 3.31598
# Velocity P-wave (km/s) = 4.26478 5.78591 5.08257
#
# Compressibility (1/GPa) = 0.07113493
#
# Stress axis : x y z
#
# Youngs Moduli (GPa) = 68.35396 28.00336 57.89066
#
# Poissons Ratio (x) = 0.03161 0.04043
# Poissons Ratio (y) = 0.07717 -0.20771
# Poissons Ratio (z) = 0.04774 -0.10047
#
# Static dielectric constant tensor:
#      x y z
#    x 1.897490 0.000000 0.004830 
#    y 0.000000 1.883240 0.000000 
#    z 0.004830 0.000000 1.893630 
# 
# From -- ./inp_files/143343.got.cif
#   From: 2010.05.17/outbox.cif.g08.bks.cpg/sg15_72_cif.got.tgz:143343.got - 2010.06.03 18:47:42.
