data_PCOD9275531
_publ_section_title
;
Structure prediction by ZEFSAII (Michael W. Deem and Ramdas Pophale) SiO2 
 PCOD9275531
Probable space group: C 2/C
;
_chemical_formula_sum "Si O2"
_cell_formula_units_Z 64
_cell_length_a 16.529823
_cell_length_b 7.859654
_cell_length_c 19.717098
_cell_angle_alpha 90.000000
_cell_angle_beta 90.831134
_cell_angle_gamma 90.000000
_cell_volume 2561.350023
_symmetry_space_group_name_H-M "C 2/C"
_symmetry_group_IT_number 15
_symmetry_cell_setting 'monoclinic'
loop_
_space_group_symop_operation_xyz
x,y,z
-x,y,1/2-z
-x,-y,-z
x,-y,1/2+z
1/2+x,1/2+y,z
1/2-x,1/2+y,1/2-z
1/2-x,1/2-y,-z
1/2+x,1/2-y,1/2+z
loop_
_atom_site_type_symbol
_atom_site_label
_atom_site_fract_x
_atom_site_fract_y
_atom_site_fract_z
Si Si1 0.934778 0.797893 0.303010
Si Si2 0.275032 0.146563 0.105222
Si Si3 0.234028 0.799791 0.260625
Si Si4 0.016056 0.175292 0.179948
Si Si5 0.737450 0.995081 0.532640
Si Si6 0.456021 0.167742 0.081902
Si Si7 0.431990 0.124536 0.941053
Si Si8 0.170907 0.134293 0.343644
O O1 0.845961 0.741058 0.281630
O O2 0.000000 0.729586 0.250000
O O3 0.972690 0.751860 0.375564
O O4 0.939366 0.001587 0.299651
O O5 0.240278 0.167815 0.179651
O O6 0.258187 0.320512 0.064395
O O7 0.371483 0.152723 0.118208
O O8 0.250344 0.005901 0.048706
O O9 0.302514 0.793255 0.203311
O O10 0.206849 0.969179 0.302466
O O11 0.926311 0.129001 0.150735
O O12 0.000000 0.273590 0.250000
O O13 0.071927 0.271378 0.127573
O O14 0.641304 0.994446 0.546273
O O15 0.788515 0.870318 0.581181
O O16 0.485514 0.977891 0.067242
O O17 0.437983 0.243223 0.007338
#
# Coordination Sequence:
#
# PCOD9275531 Si02
#       8
#     8   8   8   8   8   8   8   8
#     4  11  19  38  62  86 119 160 199 245 299 363
#     4   9  18  34  61  85 119 152 205 241 304 355
#     4  11  22  38  61  90 119 164 201 257 300 372
#     4  11  24  42  59  87 127 162 197 256 305 362
#     4   9  19  38  61  88 116 162 199 255 296 369
#     4  10  20  39  62  92 121 157 202 252 298 364
#     4  10  23  39  62  91 124 154 201 256 305 351
#     4  11  23  39  60  86 128 157 207 250 313 359
#
# _framework density 24.986823999999999
#
# number of rings (size 3 to 8) (size 9 to 14) (size 15 to 20)
#    0.000    1.750    3.750    1.500    3.500    2.000 
#    0.000    1.250    0.000    8.250    0.000    0.000 
#    0.000    0.000    0.000    0.000    0.000    0.000 
#
# Total GULP energy -178699.868918 kJ/mol
# GULP energy per Si atom -5584.370904 kJ/mol
# Density = 2.492995 g / cm^3
# Si number density = 24.986824 Si / 1000 Ang^3
#
#
#
# Elastic Constant Matrix: (Units=GPa)
#
#
# Indices 1 2 3 4 5 6 
#
# 1 118.8996 -6.8915 8.7743 0.0000 20.8115 0.0000
# 2 -6.8915 28.7131 -4.1042 0.0000 -5.0125 0.0000
# 3 8.7743 -4.1042 104.7922 0.0000 18.7079 0.0000
# 4 0.0000 0.0000 0.0000 19.2622 0.0000 -1.5856
# 5 20.8115 -5.0125 18.7079 0.0000 32.7094 0.0000
# 6 0.0000 0.0000 0.0000 -1.5856 0.0000 35.2004
#
#
#
# Elastic Compliance Matrix: (Units=1/GPa)
#
#
# Indices 1 2 3 4 5 6 
#
# 1 0.009519 0.001276 0.000333 0.000000 -0.006052 0.000000
# 2 0.001276 0.035977 0.000516 0.000000 0.004407 0.000000
# 3 0.000333 0.000516 0.010646 0.000000 -0.006222 0.000000
# 4 0.000000 0.000000 0.000000 0.052108 0.000000 0.002347
# 5 -0.006052 0.004407 -0.006222 0.000000 0.038656 0.000000
# 6 0.000000 0.000000 0.000000 0.002347 0.000000 0.028515
#
#
# Mechanical properties :
#
#
# Convention : Reuss Voigt Hill
#
# Bulk Modulus (GPa) = 16.55884 27.55136 22.05510
# Shear Modulus (GPa) = 26.13675 34.40948 30.27312
#
# Velocity S-wave (km/s) = 3.23773 3.71496 3.48453
# Velocity P-wave (km/s) = 4.54078 5.42693 5.00351
#
# Compressibility (1/GPa) = 0.06039069
#
# Stress axis : x y z
#
# Youngs Moduli (GPa) = 105.05238 27.79588 93.93447
#
# Poissons Ratio (x) = -0.03546 -0.03131
# Poissons Ratio (y) = -0.13403 -0.04842
# Poissons Ratio (z) = -0.03501 -0.01433
#
# Static dielectric constant tensor:
#      x y z
#    x 1.967230 0.000000 0.032070 
#    y 0.000000 2.041510 0.000000 
#    z 0.032070 0.000000 2.131730 
# 
# From -- ./inp_files/247460.got.cif
#   From: 2010.05.17/outbox.cif.g08.bks.cpg/sg15_124_cif.got.tgz:247460.got - 2010.06.03 18:47:42.
