data_PCOD9275966
_publ_section_title
;
Structure prediction by ZEFSAII (Michael W. Deem and Ramdas Pophale) SiO2 
 PCOD9275966
Probable space group: C 2/C
;
_chemical_formula_sum "Si O2"
_cell_formula_units_Z 48
_cell_length_a 8.737220
_cell_length_b 18.906610
_cell_length_c 14.796235
_cell_angle_alpha 90.000000
_cell_angle_beta 90.011444
_cell_angle_gamma 90.000000
_cell_volume 2444.207929
_symmetry_space_group_name_H-M "C 2/C"
_symmetry_group_IT_number 15
_symmetry_cell_setting 'monoclinic'
loop_
_space_group_symop_operation_xyz
x,y,z
-x,y,1/2-z
-x,-y,-z
x,-y,1/2+z
1/2+x,1/2+y,z
1/2-x,1/2+y,1/2-z
1/2-x,1/2-y,-z
1/2+x,1/2-y,1/2+z
loop_
_atom_site_type_symbol
_atom_site_label
_atom_site_fract_x
_atom_site_fract_y
_atom_site_fract_z
Si Si1 0.677396 0.734280 0.268465
Si Si2 0.661586 0.776527 0.913885
Si Si3 0.795758 0.582841 0.326262
Si Si4 0.409879 0.325755 0.347352
Si Si5 0.851432 0.441475 0.629600
Si Si6 0.850657 0.046020 0.983630
O O1 0.500000 0.720768 0.250000
O O2 0.743206 0.750401 0.170842
O O3 0.768342 0.665552 0.304328
O O4 0.736638 0.799002 0.328600
O O5 0.499495 0.737827 0.899068
O O6 0.666245 0.861503 0.908084
O O7 0.750000 0.750000 0.000000
O O8 0.764618 0.549920 0.226608
O O9 0.699572 0.569300 0.416066
O O10 0.967590 0.557733 0.349744
O O11 0.500000 0.337742 0.250000
O O12 0.397406 0.391902 0.414184
O O13 0.783257 0.498754 0.561693
O O14 0.000000 0.000000 0.000000
#
# Coordination Sequence:
#
# PCOD9275966 Si02
#       6
#     8   8   8   8   8   8
#     4  10  22  40  67  94 125 165 220 277 326 381
#     4  10  20  39  66  93 124 170 214 265 328 385
#     4  10  23  43  69  89 128 174 219 264 330 400
#     4  10  23  44  63  95 137 171 215 278 332 388
#     4  10  22  45  65  91 131 175 216 263 329 401
#     4  12  27  39  65 101 132 174 219 270 334 397
#
# _framework density 19.638263999999999
#
# number of rings (size 3 to 8) (size 9 to 14) (size 15 to 20)
#    0.000    1.667    1.667    1.500    9.333    2.000 
#    3.000    0.000    0.000    0.000    0.000    0.000 
#    0.000    0.000    0.000    0.000    0.000    0.000 
#
# Total GULP energy -133685.648973 kJ/mol
# GULP energy per Si atom -5570.235374 kJ/mol
# Density = 1.959357 g / cm^3
# Si number density = 19.638264 Si / 1000 Ang^3
#
#
#
# Elastic Constant Matrix: (Units=GPa)
#
#
# Indices 1 2 3 4 5 6 
#
# 1 72.9365 13.6065 27.2784 0.0000 16.6341 0.0000
# 2 13.6065 43.9978 58.5304 0.0000 14.8177 0.0000
# 3 27.2784 58.5304 146.8937 0.0000 4.0326 0.0000
# 4 0.0000 0.0000 0.0000 4.0586 0.0000 4.2405
# 5 16.6341 14.8177 4.0326 0.0000 26.8938 0.0000
# 6 0.0000 0.0000 0.0000 4.2405 0.0000 26.6452
#
#
#
# Elastic Compliance Matrix: (Units=1/GPa)
#
#
# Indices 1 2 3 4 5 6 
#
# 1 0.017664 0.006360 -0.005440 0.000000 -0.013613 0.000000
# 2 0.006360 0.072912 -0.029142 0.000000 -0.039736 0.000000
# 3 -0.005440 -0.029142 0.018975 0.000000 0.016576 0.000000
# 4 0.000000 0.000000 0.000000 0.295533 0.000000 -0.047033
# 5 -0.013613 -0.039736 0.016576 0.000000 0.065011 0.000000
# 6 0.000000 0.000000 0.000000 -0.047033 0.000000 0.045015
#
#
# Mechanical properties :
#
#
# Convention : Reuss Voigt Hill
#
# Bulk Modulus (GPa) = 18.83084 51.40652 35.11868
# Shear Modulus (GPa) = 8.48526 22.48039 15.48282
#
# Velocity S-wave (km/s) = 2.08090 3.38705 2.81089
# Velocity P-wave (km/s) = 3.92214 6.44435 5.33446
#
# Compressibility (1/GPa) = 0.05310438
#
# Stress axis : x y z
#
# Youngs Moduli (GPa) = 56.61366 13.71511 52.70156
#
# Poissons Ratio (x) = -0.08722 0.28672
# Poissons Ratio (y) = -0.36005 1.53585
# Poissons Ratio (z) = 0.30801 0.39969
#
# Static dielectric constant tensor:
#      x y z
#    x 1.638210 0.000000 -0.302900 
#    y 0.000000 1.683630 0.000000 
#    z -0.302900 0.000000 0.907310 
# 
# From -- ./inp_files/134852.got.cif
#   From: 2010.05.17/outbox.cif.g08.bks.cpg/sg15_68_cif.got.tgz:134852.got - 2010.06.03 18:47:42.
