data_PCOD9275487
_publ_section_title
;
Structure prediction by ZEFSAII (Michael W. Deem and Ramdas Pophale) SiO2 
 PCOD9275487
Probable space group: C 2/C
;
_chemical_formula_sum "Si O2"
_cell_formula_units_Z 48
_cell_length_a 15.924758
_cell_length_b 27.936487
_cell_length_c 8.332127
_cell_angle_alpha 90.000000
_cell_angle_beta 36.078365
_cell_angle_gamma 90.000000
_cell_volume 2182.908802
_symmetry_space_group_name_H-M "C 2/C"
_symmetry_group_IT_number 15
_symmetry_cell_setting 'monoclinic'
loop_
_space_group_symop_operation_xyz
x,y,z
-x,y,1/2-z
-x,-y,-z
x,-y,1/2+z
1/2+x,1/2+y,z
1/2-x,1/2+y,1/2-z
1/2-x,1/2-y,-z
1/2+x,1/2-y,1/2+z
loop_
_atom_site_type_symbol
_atom_site_label
_atom_site_fract_x
_atom_site_fract_y
_atom_site_fract_z
Si Si1 0.429399 0.651245 0.032672
Si Si2 0.582381 0.247966 0.788920
Si Si3 0.192815 0.407389 0.756152
Si Si4 0.563959 0.145083 0.971503
Si Si5 0.384458 0.510066 0.042262
Si Si6 0.671351 0.594996 0.816131
O O1 0.500000 0.646557 0.750000
O O2 0.516028 0.617003 0.020541
O O3 0.449685 0.705316 0.056718
O O4 0.269097 0.633983 0.243982
O O5 0.500000 0.251649 0.750000
O O6 0.750000 0.250000 0.500000
O O7 0.546180 0.197695 0.927393
O O8 0.247749 0.455915 0.756761
O O9 0.254770 0.410359 0.475923
O O10 0.028487 0.393365 0.986698
O O11 0.500000 0.145462 0.250000
O O12 0.728339 0.130237 0.737315
O O13 0.333896 0.456069 0.086573
O O14 0.500000 0.535463 0.750000
O O15 0.500000 0.500000 0.000000
#
# Coordination Sequence:
#
# PCOD9275487 Si02
#       6
#     8   8   8   8   8   8
#     4  10  20  39  66  86 114 163 212 242 295 369
#     4  12  25  41  60  92 129 155 198 262 313 361
#     4  10  20  39  62  88 119 156 203 255 290 364
#     4  10  23  43  63  84 123 168 208 243 306 375
#     4  12  21  38  64  93 122 155 206 256 303 354
#     4  10  21  38  62  91 115 156 208 254 293 359
#
# _framework density 21.989008999999999
#
# number of rings (size 3 to 8) (size 9 to 14) (size 15 to 20)
#    0.000    1.333    3.333    3.000    0.000    2.667 
#    3.000    6.667    0.000    0.000    0.000    0.000 
#    0.000    0.000    0.000    0.000    0.000    0.000 
#
# Total GULP energy -133944.953784 kJ/mol
# GULP energy per Si atom -5581.039741 kJ/mol
# Density = 2.193896 g / cm^3
# Si number density = 21.989009 Si / 1000 Ang^3
#
#
#
# Elastic Constant Matrix: (Units=GPa)
#
#
# Indices 1 2 3 4 5 6 
#
# 1 143.9968 53.4178 28.8247 0.0000 -24.0560 0.0000
# 2 53.4178 156.7846 7.1246 0.0000 -1.6857 0.0000
# 3 28.8247 7.1246 25.5868 0.0000 -17.3842 0.0000
# 4 0.0000 0.0000 0.0000 23.9737 0.0000 -7.4115
# 5 -24.0560 -1.6857 -17.3842 0.0000 24.1629 0.0000
# 6 0.0000 0.0000 0.0000 -7.4115 0.0000 37.8488
#
#
#
# Elastic Compliance Matrix: (Units=1/GPa)
#
#
# Indices 1 2 3 4 5 6 
#
# 1 0.010434 -0.003153 -0.007762 0.000000 0.004583 0.000000
# 2 -0.003153 0.007446 -0.000589 0.000000 -0.003043 0.000000
# 3 -0.007762 -0.000589 0.083557 0.000000 0.052346 0.000000
# 4 0.000000 0.000000 0.000000 0.044400 0.000000 0.008694
# 5 0.004583 -0.003043 0.052346 0.000000 0.083397 0.000000
# 6 0.000000 0.000000 0.000000 0.008694 0.000000 0.028123
#
#
# Mechanical properties :
#
#
# Convention : Reuss Voigt Hill
#
# Bulk Modulus (GPa) = 12.75064 56.12249 34.43657
# Shear Modulus (GPa) = 16.31271 32.99713 24.65492
#
# Velocity S-wave (km/s) = 2.72666 3.87799 3.35212
# Velocity P-wave (km/s) = 3.96537 6.75500 5.53869
#
# Compressibility (1/GPa) = 0.07842743
#
# Stress axis : x y z
#
# Youngs Moduli (GPa) = 95.84374 134.29252 11.96792
#
# Poissons Ratio (x) = 0.42340 0.09290
# Poissons Ratio (y) = 0.30218 0.00705
# Poissons Ratio (z) = 0.74398 0.07915
#
# Static dielectric constant tensor:
#      x y z
#    x 1.820930 0.000000 0.020130 
#    y 0.000000 1.855390 0.000000 
#    z 0.020130 0.000000 1.845110 
# 
# From -- ./inp_files/33374.got.cif
#   From: 2010.05.17/outbox.cif.g08.bks.cpg/sg15_17_cif.got.tgz:33374.got - 2010.06.03 18:47:42.
