data_PCOD9275928
_publ_section_title
;
Structure prediction by ZEFSAII (Michael W. Deem and Ramdas Pophale) SiO2 
 PCOD9275928
Probable space group: C 2/C
;
_chemical_formula_sum "Si O2"
_cell_formula_units_Z 64
_cell_length_a 8.339212
_cell_length_b 15.055072
_cell_length_c 29.058477
_cell_angle_alpha 90.000000
_cell_angle_beta 60.986892
_cell_angle_gamma 90.000000
_cell_volume 3190.398037
_symmetry_space_group_name_H-M "C 2/C"
_symmetry_group_IT_number 15
_symmetry_cell_setting 'monoclinic'
loop_
_space_group_symop_operation_xyz
x,y,z
-x,y,1/2-z
-x,-y,-z
x,-y,1/2+z
1/2+x,1/2+y,z
1/2-x,1/2+y,1/2-z
1/2-x,1/2-y,-z
1/2+x,1/2-y,1/2+z
loop_
_atom_site_type_symbol
_atom_site_label
_atom_site_fract_x
_atom_site_fract_y
_atom_site_fract_z
Si Si1 0.973159 0.793850 0.176795
Si Si2 0.430405 0.922366 0.372454
Si Si3 0.690818 0.782501 0.296556
Si Si4 0.009934 0.054049 0.899935
Si Si5 0.196701 0.352629 0.501565
Si Si6 0.436649 0.795850 0.458375
Si Si7 0.907189 0.859881 0.626410
Si Si8 0.450542 0.886819 0.877384
O O1 0.796517 0.788975 0.234085
O O2 0.997260 0.881749 0.143170
O O3 0.150771 0.791355 0.185894
O O4 0.958462 0.708461 0.144821
O O5 0.540352 0.858812 0.322769
O O6 0.217835 0.936138 0.389249
O O7 0.422331 0.869943 0.421407
O O8 0.537831 0.016000 0.360917
O O9 0.594065 0.689829 0.324498
O O10 0.977276 0.950121 0.893316
O O11 0.862928 0.090997 0.956993
O O12 0.250000 0.250000 0.500000
O O13 0.136782 0.386498 0.559712
O O14 0.034549 0.344159 0.487157
O O15 0.250000 0.750000 0.500000
O O16 0.543492 0.713881 0.419095
O O17 0.701824 0.887451 0.641655
#
# Coordination Sequence:
#
# PCOD9275928 Si02
#       8
#     8   8   8   8   8   8   8   8
#     4  10  20  39  66  82 110 161 201 236 299 350
#     4  10  23  38  56  90 122 145 195 248 295 340
#     4   9  20  42  61  84 117 151 194 254 295 345
#     4  11  22  36  62  88 115 158 197 238 288 358
#     4  12  21  38  61  84 120 158 201 232 283 356
#     4  11  23  39  56  83 121 159 191 239 292 336
#     4   9  20  38  58  84 117 151 200 235 285 354
#     4  10  21  37  61  87 114 158 199 235 282 361
#
# _framework density 20.060193000000002
#
# number of rings (size 3 to 8) (size 9 to 14) (size 15 to 20)
#    0.000    1.750    2.500    2.250    1.750    3.000 
#    2.250    2.500    0.000    0.000    0.000    0.000 
#    0.000    0.000    0.000    0.000    0.000    0.000 
#
# Total GULP energy -178443.605097 kJ/mol
# GULP energy per Si atom -5576.362659 kJ/mol
# Density = 2.001454 g / cm^3
# Si number density = 20.060193 Si / 1000 Ang^3
#
#
#
# Elastic Constant Matrix: (Units=GPa)
#
#
# Indices 1 2 3 4 5 6 
#
# 1 29.2685 5.4195 3.7293 0.0000 -4.1230 0.0000
# 2 5.4195 133.6771 33.7844 0.0000 6.4974 0.0000
# 3 3.7293 33.7844 105.3081 0.0000 -2.3934 0.0000
# 4 0.0000 0.0000 0.0000 8.6724 0.0000 -3.5704
# 5 -4.1230 6.4974 -2.3934 0.0000 24.1774 0.0000
# 6 0.0000 0.0000 0.0000 -3.5704 0.0000 22.3660
#
#
#
# Elastic Compliance Matrix: (Units=1/GPa)
#
#
# Indices 1 2 3 4 5 6 
#
# 1 0.035442 -0.001598 -0.000597 0.000000 0.006414 0.000000
# 2 -0.001598 0.008360 -0.002689 0.000000 -0.002785 0.000000
# 3 -0.000597 -0.002689 0.010417 0.000000 0.001652 0.000000
# 4 0.000000 0.000000 0.000000 0.123419 0.000000 0.019702
# 5 0.006414 -0.002785 0.001652 0.000000 0.043367 0.000000
# 6 0.000000 0.000000 0.000000 0.019702 0.000000 0.047856
#
#
# Mechanical properties :
#
#
# Convention : Reuss Voigt Hill
#
# Bulk Modulus (GPa) = 22.49580 39.34667 30.92124
# Shear Modulus (GPa) = 17.03892 26.06452 21.55172
#
# Velocity S-wave (km/s) = 2.91759 3.60851 3.28129
# Velocity P-wave (km/s) = 4.75271 6.08430 5.45926
#
# Compressibility (1/GPa) = 0.04445274
#
# Stress axis : x y z
#
# Youngs Moduli (GPa) = 28.21519 119.61094 95.99458
#
# Poissons Ratio (x) = 0.19112 0.05728
# Poissons Ratio (y) = 0.04508 0.25812
# Poissons Ratio (z) = 0.01684 0.32162
#
# Static dielectric constant tensor:
#      x y z
#    x 1.769800 0.000000 -0.021140 
#    y 0.000000 1.742250 0.000000 
#    z -0.021140 0.000000 1.689670 
# 
# From -- ./inp_files/308018.got.cif
#   From: 2010.05.17/outbox.cif.g08.bks.cpg/sg15_155_cif.got.tgz:308018.got - 2010.06.03 18:47:42.
