data_PCOD9275696
_publ_section_title
;
Structure prediction by ZEFSAII (Michael W. Deem and Ramdas Pophale) SiO2 
 PCOD9275696
Probable space group: C 2/C
;
_chemical_formula_sum "Si O2"
_cell_formula_units_Z 28
_cell_length_a 13.857282
_cell_length_b 11.295131
_cell_length_c 7.787800
_cell_angle_alpha 90.000000
_cell_angle_beta 76.487005
_cell_angle_gamma 90.000000
_cell_volume 1185.200902
_symmetry_space_group_name_H-M "C 2/C"
_symmetry_group_IT_number 15
_symmetry_cell_setting 'monoclinic'
loop_
_space_group_symop_operation_xyz
x,y,z
-x,y,1/2-z
-x,-y,-z
x,-y,1/2+z
1/2+x,1/2+y,z
1/2-x,1/2+y,1/2-z
1/2-x,1/2-y,-z
1/2+x,1/2-y,1/2+z
loop_
_atom_site_type_symbol
_atom_site_label
_atom_site_fract_x
_atom_site_fract_y
_atom_site_fract_z
Si Si1 0.571780 0.915135 0.582414
Si Si2 0.831639 0.636142 0.791468
Si Si3 0.109531 0.851187 0.515091
Si Si4 0.500000 0.544850 0.750000
O O1 0.500000 0.853787 0.750000
O O2 0.636711 0.844682 0.418413
O O3 0.500000 0.000000 0.500000
O O4 0.641342 0.003596 0.661309
O O5 0.716253 0.651157 0.879293
O O6 0.893586 0.727718 0.882782
O O7 0.029371 0.879469 0.403006
O O8 0.090689 0.956871 0.659652
#
# Coordination Sequence:
#
# PCOD9275696 Si02
#       4
#     8   8   8   4
#     4   9  19  35  60  96 126 161 196 265 314 381
#     4  10  20  39  63  97 128 161 212 259 325 372
#     4  10  22  39  66  90 127 171 209 265 308 386
#     4  10  22  42  62  92 126 174 214 256 316 378
#
# _framework density 23.624687000000002
#
# number of rings (size 3 to 8) (size 9 to 14) (size 15 to 20)
#    0.000    2.286    0.000    1.714    6.000    0.000 
#    7.714    0.000    0.000   24.000    0.000    0.000 
#    0.000    0.000    0.000    0.000    0.000    0.000 
#
# Total GULP energy -78276.389512 kJ/mol
# GULP energy per Si atom -5591.170679 kJ/mol
# Density = 2.357092 g / cm^3
# Si number density = 23.624687 Si / 1000 Ang^3
#
#
#
# Elastic Constant Matrix: (Units=GPa)
#
#
# Indices 1 2 3 4 5 6 
#
# 1 42.0085 19.8154 30.6746 0.0000 -25.1066 0.0000
# 2 19.8154 99.9040 57.8275 0.0000 -5.6801 0.0000
# 3 30.6746 57.8275 210.5613 0.0000 -38.9986 0.0000
# 4 0.0000 0.0000 0.0000 -7.4971 0.0000 -12.3537
# 5 -25.1066 -5.6801 -38.9986 0.0000 46.8358 0.0000
# 6 0.0000 0.0000 0.0000 -12.3537 0.0000 22.0371
#
#
#
# Elastic Compliance Matrix: (Units=1/GPa)
#
#
# Indices 1 2 3 4 5 6 
#
# 1 0.038894 -0.006464 -0.000206 0.000000 0.019894 0.000000
# 2 -0.006464 0.013067 -0.003541 0.000000 -0.004829 0.000000
# 3 -0.000206 -0.003541 0.006682 0.000000 0.005024 0.000000
# 4 0.000000 0.000000 0.000000 -0.069337 0.000000 -0.038869
# 5 0.019894 -0.004829 0.005024 0.000000 0.035613 0.000000
# 6 0.000000 0.000000 0.000000 -0.038869 0.000000 0.023589
#
#
# Mechanical properties :
#
#
# Convention : Reuss Voigt Hill
#
# Bulk Modulus (GPa) = 26.16428 63.23434 44.69931
# Shear Modulus (GPa) = 61.22070 28.55223 44.88646
#
# Velocity S-wave (km/s) = 5.09609 3.48023 4.36361
# Velocity P-wave (km/s) = 6.76209 6.55543 6.65956
#
# Compressibility (1/GPa) = 0.03822004
#
# Stress axis : x y z
#
# Youngs Moduli (GPa) = 25.71095 76.52855 149.64704
#
# Poissons Ratio (x) = 0.49468 0.03087
# Poissons Ratio (y) = 0.16619 0.52996
# Poissons Ratio (z) = 0.00530 0.27102
#
# Static dielectric constant tensor:
#      x y z
#    x 1.871810 0.000000 0.003100 
#    y 0.000000 1.915510 0.000000 
#    z 0.003100 0.000000 1.926790 
# 
# From -- ./inp_files/36400.got.cif
#   From: 2010.05.17/outbox.cif.g08.bks.cpg/sg15_19_cif.got.tgz:36400.got - 2010.06.03 18:47:42.
