data_PCOD9275288
_publ_section_title
;
Structure prediction by ZEFSAII (Michael W. Deem and Ramdas Pophale) SiO2 
 PCOD9275288
Probable space group: C 2/C
;
_chemical_formula_sum "Si O2"
_cell_formula_units_Z 64
_cell_length_a 20.355081
_cell_length_b 4.960527
_cell_length_c 29.619735
_cell_angle_alpha 90.000000
_cell_angle_beta 102.979529
_cell_angle_gamma 90.000000
_cell_volume 2914.348933
_symmetry_space_group_name_H-M "C 2/C"
_symmetry_group_IT_number 15
_symmetry_cell_setting 'monoclinic'
loop_
_space_group_symop_operation_xyz
x,y,z
-x,y,1/2-z
-x,-y,-z
x,-y,1/2+z
1/2+x,1/2+y,z
1/2-x,1/2+y,1/2-z
1/2-x,1/2-y,-z
1/2+x,1/2-y,1/2+z
loop_
_atom_site_type_symbol
_atom_site_label
_atom_site_fract_x
_atom_site_fract_y
_atom_site_fract_z
Si Si1 0.070588 0.294990 0.096248
Si Si2 0.655534 0.737298 0.629931
Si Si3 0.071694 0.455447 0.412146
Si Si4 0.160846 0.566104 0.846007
Si Si5 0.771114 0.075855 0.605369
Si Si6 0.936172 0.811956 0.001841
Si Si7 0.258839 0.953755 0.222345
Si Si8 0.816551 0.093054 0.022874
O O1 0.099882 0.535352 0.130765
O O2 0.068457 0.379171 0.042651
O O3 0.993326 0.264404 0.099205
O O4 0.115881 0.028282 0.107724
O O5 0.702913 0.907047 0.602159
O O6 0.702064 0.665053 0.679791
O O7 0.097590 0.531449 0.366112
O O8 0.056145 0.683275 0.447320
O O9 0.133501 0.296816 0.444102
O O10 0.175653 0.873946 0.862424
O O11 0.170308 0.549634 0.793899
O O12 0.221887 0.366974 0.871454
O O13 0.791208 0.115644 0.556722
O O14 0.863818 0.960846 0.992941
O O15 0.000000 0.000000 0.000000
O O16 0.240560 0.252456 0.235298
O O17 0.750000 0.250000 0.000000
#
# Coordination Sequence:
#
# PCOD9275288 Si02
#       8
#     8   8   8   8   8   8   8   8
#     4  12  25  39  66  88 138 184 234 279 323 401
#     4  11  24  42  65 101 130 173 221 273 353 414
#     4  11  25  42  61  90 133 188 238 279 338 390
#     4  10  21  40  66  94 130 169 215 274 339 413
#     4  10  20  39  59  88 130 168 219 278 332 394
#     4  12  24  42  61  91 133 191 252 289 333 387
#     4  11  22  43  75 104 131 160 207 281 359 434
#     4  11  24  38  59  88 128 178 239 301 338 379
#
# _framework density 21.960308000000001
#
# number of rings (size 3 to 8) (size 9 to 14) (size 15 to 20)
#    0.000    1.000    2.500    5.625    3.500    1.500 
#    0.000    0.000    0.000    4.500    0.000    0.000 
#    0.000    0.000    0.000    0.000    0.000    0.000 
#
# Total GULP energy -178685.189089 kJ/mol
# GULP energy per Si atom -5583.912159 kJ/mol
# Density = 2.191033 g / cm^3
# Si number density = 21.960308 Si / 1000 Ang^3
#
#
#
# Elastic Constant Matrix: (Units=GPa)
#
#
# Indices 1 2 3 4 5 6 
#
# 1 118.4843 13.7173 34.9891 0.0000 -15.1471 0.0000
# 2 13.7173 77.2598 6.6597 0.0004 3.1045 -0.0004
# 3 34.9891 6.6597 62.1490 0.0001 -25.1049 -0.0001
# 4 0.0000 0.0004 0.0001 43.0134 0.0000 -2.4821
# 5 -15.1471 3.1045 -25.1049 0.0000 37.0728 0.0000
# 6 0.0000 -0.0004 -0.0001 -2.4821 0.0000 34.8119
#
#
#
# Elastic Compliance Matrix: (Units=1/GPa)
#
#
# Indices 1 2 3 4 5 6 
#
# 1 0.010270 -0.001389 -0.005356 0.000000 0.000685 0.000000
# 2 -0.001389 0.013468 -0.001853 0.000000 -0.002950 0.000000
# 3 -0.005356 -0.001853 0.025443 0.000000 0.015196 0.000000
# 4 0.000000 0.000000 0.000000 0.023345 0.000000 0.001664
# 5 0.000685 -0.002950 0.015196 0.000000 0.037791 0.000000
# 6 0.000000 0.000000 0.000000 0.001664 0.000000 0.028845
#
#
# Mechanical properties :
#
#
# Convention : Reuss Voigt Hill
#
# Bulk Modulus (GPa) = 31.26501 40.95835 36.11168
# Shear Modulus (GPa) = 29.93658 36.48142 33.20900
#
# Velocity S-wave (km/s) = 3.69618 4.08026 3.89296
# Velocity P-wave (km/s) = 5.69944 6.39450 6.05695
#
# Compressibility (1/GPa) = 0.03198463
#
# Stress axis : x y z
#
# Youngs Moduli (GPa) = 97.36990 74.24868 39.30388
#
# Poissons Ratio (x) = 0.10315 0.21052
# Poissons Ratio (y) = 0.13527 0.07282
# Poissons Ratio (z) = 0.52154 0.13756
#
# Static dielectric constant tensor:
#      x y z
#    x 1.891730 0.000000 -0.013270 
#    y 0.000000 1.865580 0.000000 
#    z -0.013270 0.000000 1.864220 
# 
# From -- ./inp_files/315096.got.cif
#   From: 2010.05.17/outbox.cif.g08.bks.cpg/sg15_158_cif.got.tgz:315096.got - 2010.06.03 18:47:42.
