data_PCOD9275065
_publ_section_title
;
Structure prediction by ZEFSAII (Michael W. Deem and Ramdas Pophale) SiO2 
 PCOD9275065
Probable space group: C 2/C
;
_chemical_formula_sum "Si O2"
_cell_formula_units_Z 52
_cell_length_a 14.235585
_cell_length_b 10.081735
_cell_length_c 16.387492
_cell_angle_alpha 90.000000
_cell_angle_beta 72.697554
_cell_angle_gamma 90.000000
_cell_volume 2245.493972
_symmetry_space_group_name_H-M "C 2/C"
_symmetry_group_IT_number 15
_symmetry_cell_setting 'monoclinic'
loop_
_space_group_symop_operation_xyz
x,y,z
-x,y,1/2-z
-x,-y,-z
x,-y,1/2+z
1/2+x,1/2+y,z
1/2-x,1/2+y,1/2-z
1/2-x,1/2-y,-z
1/2+x,1/2-y,1/2+z
loop_
_atom_site_type_symbol
_atom_site_label
_atom_site_fract_x
_atom_site_fract_y
_atom_site_fract_z
Si Si1 0.608157 0.313682 0.178047
Si Si2 0.500000 0.803607 0.250000
Si Si3 0.424787 0.145807 0.471799
Si Si4 0.925004 0.877664 0.030144
Si Si5 0.583742 0.970753 0.362962
Si Si6 0.368795 0.379459 0.872357
Si Si7 0.196878 0.255264 0.812642
O O1 0.500000 0.287713 0.250000
O O2 0.619361 0.228212 0.092454
O O3 0.614630 0.469347 0.157352
O O4 0.694706 0.279166 0.218668
O O5 0.576603 0.895125 0.279336
O O6 0.533771 0.704883 0.169997
O O7 0.508217 0.246377 0.483771
O O8 0.370655 0.099806 0.568523
O O9 0.473408 0.014196 0.419665
O O10 0.851296 0.876514 0.973056
O O11 0.860319 0.865891 0.128338
O O12 0.000000 0.000000 0.000000
O O13 0.634577 0.109982 0.334682
O O14 0.291912 0.299465 0.837547
#
# Coordination Sequence:
#
# PCOD9275065 Si02
#       7
#     8   4   8   8   8   8   8
#     4  12  21  44  67  93 129 179 224 268 329 408
#     4  12  24  38  68  92 128 174 220 268 332 398
#     4  10  20  38  68  91 124 168 228 257 322 405
#     4  11  20  43  71  95 126 175 220 269 331 398
#     4  10  21  39  63  94 123 172 217 264 329 395
#     4  12  26  41  64 101 133 166 225 279 332 393
#     4  11  26  43  65  97 136 173 220 279 331 389
#
# _framework density 23.157489000000002
#
# number of rings (size 3 to 8) (size 9 to 14) (size 15 to 20)
#    0.000    0.923    6.923    1.385    2.154    0.000 
#    0.000    0.769    0.000    0.000    0.000    0.000 
#    0.000    0.000    0.000    0.000    0.000    0.000 
#
# Total GULP energy -145126.726779 kJ/mol
# GULP energy per Si atom -5581.797184 kJ/mol
# Density = 2.310478 g / cm^3
# Si number density = 23.157489 Si / 1000 Ang^3
#
#
#
# Elastic Constant Matrix: (Units=GPa)
#
#
# Indices 1 2 3 4 5 6 
#
# 1 25.9896 11.2198 26.2947 0.0000 19.4544 0.0000
# 2 11.2198 109.1754 51.9262 0.0000 4.3454 0.0000
# 3 26.2947 51.9262 165.5300 0.0000 34.5500 0.0000
# 4 0.0000 0.0000 0.0000 37.5933 0.0000 18.1177
# 5 19.4544 4.3454 34.5500 0.0000 38.0959 0.0000
# 6 0.0000 0.0000 0.0000 18.1177 0.0000 7.8856
#
#
#
# Elastic Compliance Matrix: (Units=1/GPa)
#
#
# Indices 1 2 3 4 5 6 
#
# 1 0.066156 -0.004270 -0.002738 0.000000 -0.030814 0.000000
# 2 -0.004270 0.011202 -0.003730 0.000000 0.004286 0.000000
# 3 -0.002738 -0.003730 0.008962 0.000000 -0.006304 0.000000
# 4 0.000000 0.000000 0.000000 -0.247925 0.000000 0.569627
# 5 -0.030814 0.004286 -0.006304 0.000000 0.047214 0.000000
# 6 0.000000 0.000000 0.000000 0.569627 0.000000 -1.181949
#
#
# Mechanical properties :
#
#
# Convention : Reuss Voigt Hill
#
# Bulk Modulus (GPa) = 15.42170 53.28629 34.35400
# Shear Modulus (GPa) = -3.98963 30.79856 13.40447
#
# Velocity S-wave (km/s) = -1.31399 3.65082 2.40852
# Velocity P-wave (km/s) = 2.09090 6.38997 4.75413
#
# Compressibility (1/GPa) = 0.06484367
#
# Stress axis : x y z
#
# Youngs Moduli (GPa) = 15.11575 89.26955 111.58021
#
# Poissons Ratio (x) = 0.38119 0.30550
# Poissons Ratio (y) = 0.06455 0.41623
# Poissons Ratio (z) = 0.04139 0.33300
#
# Static dielectric constant tensor:
#      x y z
#    x 2.011540 0.000000 -0.018950 
#    y 0.000000 1.812920 0.000000 
#    z -0.018950 0.000000 1.906050 
# 
# From -- ./inp_files/209176.got.cif
#   From: 2010.05.17/outbox.cif.g08.bks.cpg/sg15_105_cif.got.tgz:209176.got - 2010.06.03 18:47:42.
