data_PCOD9275007
_publ_section_title
;
Structure prediction by ZEFSAII (Michael W. Deem and Ramdas Pophale) SiO2 
 PCOD9275007
Probable space group: C 2/C
;
_chemical_formula_sum "Si O2"
_cell_formula_units_Z 48
_cell_length_a 5.621728
_cell_length_b 17.735712
_cell_length_c 20.774439
_cell_angle_alpha 90.000000
_cell_angle_beta 83.974880
_cell_angle_gamma 90.000000
_cell_volume 2059.880640
_symmetry_space_group_name_H-M "C 2/C"
_symmetry_group_IT_number 15
_symmetry_cell_setting 'monoclinic'
loop_
_space_group_symop_operation_xyz
x,y,z
-x,y,1/2-z
-x,-y,-z
x,-y,1/2+z
1/2+x,1/2+y,z
1/2-x,1/2+y,1/2-z
1/2-x,1/2-y,-z
1/2+x,1/2-y,1/2+z
loop_
_atom_site_type_symbol
_atom_site_label
_atom_site_fract_x
_atom_site_fract_y
_atom_site_fract_z
Si Si1 0.502815 0.167646 0.996032
Si Si2 0.911344 0.050351 0.940403
Si Si3 0.702204 0.731237 0.397527
Si Si4 0.738573 0.196544 0.285145
Si Si5 0.846515 0.892974 0.899875
Si Si6 0.961082 0.154217 0.678616
O O1 0.606629 0.217499 0.051498
O O2 0.262866 0.130199 0.027981
O O3 0.698186 0.103747 0.972155
O O4 0.484638 0.223218 0.936713
O O5 0.060656 0.101655 0.884340
O O6 0.832642 0.981922 0.896450
O O7 0.000000 0.000000 0.000000
O O8 0.600791 0.648847 0.384443
O O9 0.816264 0.788647 0.343695
O O10 0.500000 0.185753 0.250000
O O11 0.696108 0.144248 0.347771
O O12 0.746933 0.284004 0.306639
O O13 0.000000 0.177381 0.250000
O O14 0.000000 0.120202 0.750000
#
# Coordination Sequence:
#
# PCOD9275007 Si02
#       6
#     8   8   8   8   8   8
#     4  10  21  38  60  99 134 175 228 278 350 418
#     4  11  24  41  65 101 151 183 230 292 367 431
#     4  10  20  38  67  95 130 176 232 287 340 418
#     4  11  25  45  74 105 138 186 250 305 355 425
#     4  12  22  38  69  97 136 183 232 296 352 424
#     4  10  22  45  68  94 137 186 240 294 360 431
#
# _framework density 23.302320999999999
#
# number of rings (size 3 to 8) (size 9 to 14) (size 15 to 20)
#    0.000    1.333    3.333    3.000    0.000    2.000 
#    0.000    3.333    0.000    6.000    0.000    0.000 
#    0.000    0.000    0.000    0.000    0.000    0.000 
#
# Total GULP energy -133761.083699 kJ/mol
# GULP energy per Si atom -5573.378487 kJ/mol
# Density = 2.324928 g / cm^3
# Si number density = 23.302321 Si / 1000 Ang^3
#
#
#
# Elastic Constant Matrix: (Units=GPa)
#
#
# Indices 1 2 3 4 5 6 
#
# 1 65.0940 9.2861 32.3680 0.0000 -7.3867 0.0000
# 2 9.2861 106.0596 41.1864 0.0000 -5.7132 0.0000
# 3 32.3680 41.1864 146.3163 0.0000 -3.4078 0.0000
# 4 0.0000 0.0000 0.0000 23.6164 0.0000 26.6978
# 5 -7.3867 -5.7132 -3.4078 0.0000 44.4522 0.0000
# 6 0.0000 0.0000 0.0000 26.6978 0.0000 -11.3867
#
#
#
# Elastic Compliance Matrix: (Units=1/GPa)
#
#
# Indices 1 2 3 4 5 6 
#
# 1 0.017563 0.000100 -0.003852 0.000000 0.002636 0.000000
# 2 0.000100 0.010644 -0.002991 0.000000 0.001155 0.000000
# 3 -0.003852 -0.002991 0.008520 0.000000 -0.000371 0.000000
# 4 0.000000 0.000000 0.000000 0.011599 0.000000 0.027196
# 5 0.002636 0.001155 -0.000371 0.000000 0.023054 0.000000
# 6 0.000000 0.000000 0.000000 0.027196 0.000000 -0.024057
#
#
# Mechanical properties :
#
#
# Convention : Reuss Voigt Hill
#
# Bulk Modulus (GPa) = 43.02921 53.68346 48.35634
# Shear Modulus (GPa) = 72.93330 26.97833 49.95582
#
# Velocity S-wave (km/s) = 5.60060 3.40627 4.63516
# Velocity P-wave (km/s) = 7.76711 6.20951 7.03157
#
# Compressibility (1/GPa) = 0.02324002
#
# Stress axis : x y z
#
# Youngs Moduli (GPa) = 56.93908 93.95168 117.37053
#
# Poissons Ratio (x) = -0.00941 0.45211
# Poissons Ratio (y) = -0.00570 0.35110
# Poissons Ratio (z) = 0.21933 0.28104
#
# Static dielectric constant tensor:
#      x y z
#    x 1.929170 0.000000 0.026840 
#    y 0.000000 1.888980 0.000000 
#    z 0.026840 0.000000 2.058290 
# 
# From -- ./inp_files/260667.got.cif
#   From: 2010.05.17/outbox.cif.g08.bks.cpg/sg15_131_cif.got.tgz:260667.got - 2010.06.03 18:47:42.
