data_PCOD9275286
_publ_section_title
;
Structure prediction by ZEFSAII (Michael W. Deem and Ramdas Pophale) SiO2 
 PCOD9275286
Probable space group: C 2/C
;
_chemical_formula_sum "Si O2"
_cell_formula_units_Z 56
_cell_length_a 12.348638
_cell_length_b 27.911764
_cell_length_c 8.847389
_cell_angle_alpha 90.000000
_cell_angle_beta 76.153817
_cell_angle_gamma 90.000000
_cell_volume 2960.837811
_symmetry_space_group_name_H-M "C 2/C"
_symmetry_group_IT_number 15
_symmetry_cell_setting 'monoclinic'
loop_
_space_group_symop_operation_xyz
x,y,z
-x,y,1/2-z
-x,-y,-z
x,-y,1/2+z
1/2+x,1/2+y,z
1/2-x,1/2+y,1/2-z
1/2-x,1/2-y,-z
1/2+x,1/2-y,1/2+z
loop_
_atom_site_type_symbol
_atom_site_label
_atom_site_fract_x
_atom_site_fract_y
_atom_site_fract_z
Si Si1 0.202657 0.112435 0.938651
Si Si2 0.123719 0.646415 0.142053
Si Si3 0.298029 0.419564 0.714560
Si Si4 0.586973 0.519687 0.848409
Si Si5 0.791957 0.773172 0.637630
Si Si6 0.479441 0.344537 0.580564
Si Si7 0.620706 0.823311 0.287650
O O1 0.163648 0.063033 0.876283
O O2 0.305799 0.137943 0.826225
O O3 0.218594 0.101261 0.111022
O O4 0.095632 0.147341 0.961662
O O5 0.192372 0.597201 0.150364
O O6 0.198860 0.686661 0.205385
O O7 0.000000 0.644245 0.250000
O O8 0.117640 0.660698 0.966264
O O9 0.333095 0.474781 0.718458
O O10 0.404893 0.392658 0.605093
O O11 0.500000 0.535828 0.750000
O O12 0.500000 0.500000 0.000000
O O13 0.750000 0.750000 0.500000
O O14 0.903293 0.801533 0.553953
O O15 0.822327 0.729606 0.737925
O O16 0.500000 0.334892 0.750000
O O17 0.500000 0.820725 0.250000
#
# Coordination Sequence:
#
# PCOD9275286 Si02
#       7
#     8   8   8   8   8   8   8
#     4  11  23  37  62  91 123 161 201 257 304 367
#     4  10  22  41  63  84 120 169 205 252 308 368
#     4  10  20  39  59  88 125 156 198 244 313 368
#     4  12  22  37  63  96 128 157 200 254 312 370
#     4   9  20  36  57  84 119 155 202 254 300 361
#     4   9  17  34  56  82 114 153 192 241 305 357
#     4  11  24  40  58  89 123 160 212 256 303 363
#
# _framework density 18.913564999999998
#
# number of rings (size 3 to 8) (size 9 to 14) (size 15 to 20)
#    0.000    1.714    2.857    1.714    2.000    3.429 
#    0.000    8.571    0.000    3.429    0.000    0.000 
#    0.000    0.000    0.000    0.000    0.000    0.000 
#
# Total GULP energy -156144.046475 kJ/mol
# GULP energy per Si atom -5576.573088 kJ/mol
# Density = 1.887052 g / cm^3
# Si number density = 18.913565 Si / 1000 Ang^3
#
#
#
# Elastic Constant Matrix: (Units=GPa)
#
#
# Indices 1 2 3 4 5 6 
#
# 1 135.6630 56.2804 39.1081 0.0000 -0.5719 0.0000
# 2 56.2804 104.1121 19.7345 0.0000 3.7095 0.0000
# 3 39.1081 19.7345 58.2450 0.0000 -6.7112 0.0000
# 4 0.0000 0.0000 0.0000 21.0237 0.0000 2.5438
# 5 -0.5719 3.7095 -6.7112 0.0000 28.7045 0.0000
# 6 0.0000 0.0000 0.0000 2.5438 0.0000 30.8147
#
#
#
# Elastic Compliance Matrix: (Units=1/GPa)
#
#
# Indices 1 2 3 4 5 6 
#
# 1 0.011069 -0.004857 -0.005847 0.000000 -0.000519 0.000000
# 2 -0.004857 0.012532 -0.001215 0.000000 -0.002000 0.000000
# 3 -0.005847 -0.001215 0.022106 0.000000 0.005209 0.000000
# 4 0.000000 0.000000 0.000000 0.048045 0.000000 -0.003966
# 5 -0.000519 -0.002000 0.005209 0.000000 0.036304 0.000000
# 6 0.000000 0.000000 0.000000 -0.003966 0.000000 0.032779
#
#
# Mechanical properties :
#
#
# Convention : Reuss Voigt Hill
#
# Bulk Modulus (GPa) = 45.72461 58.69622 52.21041
# Shear Modulus (GPa) = 25.77783 28.30172 27.03977
#
# Velocity S-wave (km/s) = 3.69579 3.87249 3.78517
# Velocity P-wave (km/s) = 6.51459 7.14816 6.83872
#
# Compressibility (1/GPa) = 0.02187006
#
# Stress axis : x y z
#
# Youngs Moduli (GPa) = 90.33889 79.79355 45.23558
#
# Poissons Ratio (x) = 0.38757 0.26447
# Poissons Ratio (y) = 0.43879 0.05498
# Poissons Ratio (z) = 0.52817 0.09698
#
# Static dielectric constant tensor:
#      x y z
#    x 1.617560 0.000000 -0.012450 
#    y 0.000000 1.701660 0.000000 
#    z -0.012450 0.000000 1.578980 
# 
# From -- ./inp_files/34199.got.cif
#   From: 2010.05.17/outbox.cif.g08.bks.cpg/sg15_18_cif.got.tgz:34199.got - 2010.06.03 18:47:42.
