data_PCOD9275235
_publ_section_title
;
Structure prediction by ZEFSAII (Michael W. Deem and Ramdas Pophale) SiO2 
 PCOD9275235
Probable space group: C 2/C
;
_chemical_formula_sum "Si O2"
_cell_formula_units_Z 64
_cell_length_a 16.677820
_cell_length_b 26.048158
_cell_length_c 14.802590
_cell_angle_alpha 90.000000
_cell_angle_beta 32.259850
_cell_angle_gamma 90.000000
_cell_volume 3432.416289
_symmetry_space_group_name_H-M "C 2/C"
_symmetry_group_IT_number 15
_symmetry_cell_setting 'monoclinic'
loop_
_space_group_symop_operation_xyz
x,y,z
-x,y,1/2-z
-x,-y,-z
x,-y,1/2+z
1/2+x,1/2+y,z
1/2-x,1/2+y,1/2-z
1/2-x,1/2-y,-z
1/2+x,1/2-y,1/2+z
loop_
_atom_site_type_symbol
_atom_site_label
_atom_site_fract_x
_atom_site_fract_y
_atom_site_fract_z
Si Si1 0.926462 0.026240 0.229456
Si Si2 0.601922 0.874847 0.925266
Si Si3 0.535730 0.383332 0.933094
Si Si4 0.069033 0.531946 0.586217
Si Si5 0.080995 0.093301 0.763606
Si Si6 0.378801 0.798953 0.442013
Si Si7 0.133858 0.183897 0.051967
Si Si8 0.557844 0.913238 0.593751
O O1 0.976776 0.059471 0.096521
O O2 0.749253 0.029220 0.415697
O O3 0.000000 0.048241 0.250000
O O4 0.966743 0.966650 0.181621
O O5 0.784511 0.872993 0.744283
O O6 0.527081 0.878932 0.898974
O O7 0.540269 0.924443 0.039435
O O8 0.562126 0.826394 0.025374
O O9 0.430302 0.348200 0.969933
O O10 0.477666 0.380006 0.090161
O O11 0.019285 0.473598 0.611082
O O12 0.000000 0.544852 0.750000
O O13 0.262050 0.094242 0.583486
O O14 0.000000 0.112759 0.750000
O O15 0.500000 0.791386 0.250000
O O16 0.263272 0.835394 0.496862
O O17 0.318444 0.741878 0.522668
O O18 0.000000 0.187719 0.250000
O O19 0.500000 0.903037 0.750000
#
# Coordination Sequence:
#
# PCOD9275235 Si02
#       8
#     8   8   8   8   8   8   8   8
#     4   9  19  32  51  78 111 145 183 225 267 319
#     4  11  21  34  54  83 108 144 186 224 271 326
#     4  11  21  33  57  80 109 146 185 224 270 328
#     4   9  19  33  51  77 112 147 181 224 270 319
#     4  10  21  37  53  77 108 147 189 227 271 318
#     4  10  22  36  58  84 116 143 178 221 275 334
#     4  10  20  39  57  83 116 147 172 221 280 329
#     4  10  21  37  54  76 110 147 185 232 272 314
#
# _framework density 18.645755999999999
#
# number of rings (size 3 to 8) (size 9 to 14) (size 15 to 20)
#    0.000    2.000    1.250    2.250    3.500    2.000 
#    0.000    0.000    0.000    0.750    0.000    3.500 
#    0.000    0.000    0.000    0.000    0.000    0.000 
#
# Total GULP energy -178353.662074 kJ/mol
# GULP energy per Si atom -5573.551940 kJ/mol
# Density = 1.860332 g / cm^3
# Si number density = 18.645756 Si / 1000 Ang^3
#
#
#
# Elastic Constant Matrix: (Units=GPa)
#
#
# Indices 1 2 3 4 5 6 
#
# 1 109.1403 41.2041 27.2000 0.0075 26.2601 -0.0021
# 2 41.2041 49.7580 21.9506 0.0136 15.8274 -0.0055
# 3 27.2000 21.9506 81.1110 0.0013 27.8811 -0.0056
# 4 0.0075 0.0136 0.0013 34.8486 -0.0053 12.8673
# 5 26.2601 15.8274 27.8811 -0.0053 32.5793 0.0031
# 6 -0.0021 -0.0055 -0.0056 12.8673 0.0031 31.8145
#
#
#
# Elastic Compliance Matrix: (Units=1/GPa)
#
#
# Indices 1 2 3 4 5 6 
#
# 1 0.014551 -0.009890 0.000251 0.000000 -0.007139 0.000000
# 2 -0.009890 0.031210 -0.003766 -0.000014 -0.003968 0.000010
# 3 0.000251 -0.003766 0.017999 -0.000003 -0.013776 0.000005
# 4 0.000000 -0.000014 -0.000003 0.033733 0.000017 -0.013643
# 5 -0.007139 -0.003968 -0.013776 0.000017 0.050166 -0.000015
# 6 0.000000 0.000010 0.000005 -0.013643 -0.000015 0.036950
#
#
# Mechanical properties :
#
#
# Convention : Reuss Voigt Hill
#
# Bulk Modulus (GPa) = 27.06264 46.74652 36.90458
# Shear Modulus (GPa) = 22.34765 29.82546 26.08655
#
# Velocity S-wave (km/s) = 3.46575 4.00382 3.74446
# Velocity P-wave (km/s) = 5.52818 6.81905 6.20726
#
# Compressibility (1/GPa) = 0.03695131
#
# Stress axis : x y z
#
# Youngs Moduli (GPa) = 68.72177 32.04070 55.55765
#
# Poissons Ratio (x) = 0.31687 -0.01392
# Poissons Ratio (y) = 0.67963 0.20922
# Poissons Ratio (z) = -0.01722 0.12066
#
# Static dielectric constant tensor:
#      x y z
#    x 2.068750 -0.000050 -0.292820 
#    y -0.000050 1.678370 0.000040 
#    z -0.292820 0.000040 1.828650 
# 
# From -- ./inp_files/101322.got.cif
#   From: 2010.05.17/outbox.cif.g08.bks.cpg/sg15_51_cif.got.tgz:101322.got - 2010.06.03 18:47:42.
