data_PCOD9275510
_publ_section_title
;
Structure prediction by ZEFSAII (Michael W. Deem and Ramdas Pophale) SiO2 
 PCOD9275510
Probable space group: C 2/C
;
_chemical_formula_sum "Si O2"
_cell_formula_units_Z 40
_cell_length_a 16.441714
_cell_length_b 8.452288
_cell_length_c 16.759840
_cell_angle_alpha 90.000000
_cell_angle_beta 48.191518
_cell_angle_gamma 90.000000
_cell_volume 1736.070741
_symmetry_space_group_name_H-M "C 2/C"
_symmetry_group_IT_number 15
_symmetry_cell_setting 'monoclinic'
loop_
_space_group_symop_operation_xyz
x,y,z
-x,y,1/2-z
-x,-y,-z
x,-y,1/2+z
1/2+x,1/2+y,z
1/2-x,1/2+y,1/2-z
1/2-x,1/2-y,-z
1/2+x,1/2-y,1/2+z
loop_
_atom_site_type_symbol
_atom_site_label
_atom_site_fract_x
_atom_site_fract_y
_atom_site_fract_z
Si Si1 0.108191 0.614359 0.379578
Si Si2 0.578716 0.897583 0.626313
Si Si3 0.321903 0.581004 0.979794
Si Si4 0.301231 0.766138 0.163515
Si Si5 0.984671 0.136226 0.442712
O O1 0.185119 0.725384 0.275559
O O2 0.171208 0.451688 0.356449
O O3 0.073706 0.716204 0.477741
O O4 0.997847 0.588265 0.400838
O O5 0.500000 0.948440 0.750000
O O6 0.619156 0.715014 0.611772
O O7 0.699102 0.973870 0.540400
O O8 0.312498 0.674381 0.071684
O O9 0.404939 0.437684 0.930905
O O10 0.394860 0.690931 0.159005
O O11 0.000000 0.000000 0.500000
#
# Coordination Sequence:
#
# PCOD9275510 Si02
#       5
#     8   8   8   8   8
#     4  12  23  37  65  92 119 159 205 249 301 353
#     4  11  22  37  62  88 124 160 201 237 303 369
#     4  10  22  40  64  89 117 163 201 246 301 358
#     4  11  22  37  63  92 119 157 205 253 297 353
#     4  10  20  39  62  90 119 153 203 255 290 356
#
# _framework density 23.040537
#
# number of rings (size 3 to 8) (size 9 to 14) (size 15 to 20)
#    0.000    1.200    6.000    3.000    0.000    0.000 
#    0.000    1.000    0.000    1.200    0.000    0.000 
#    0.000    0.000    0.000    0.000    0.000    0.000 
#
# Total GULP energy -111735.753159 kJ/mol
# GULP energy per Si atom -5586.787658 kJ/mol
# Density = 2.298810 g / cm^3
# Si number density = 23.040537 Si / 1000 Ang^3
#
#
#
# Elastic Constant Matrix: (Units=GPa)
#
#
# Indices 1 2 3 4 5 6 
#
# 1 82.3897 37.8749 12.0242 0.0000 -34.0570 0.0000
# 2 37.8749 90.6223 14.0826 0.0000 -22.1542 0.0000
# 3 12.0242 14.0826 64.5357 0.0000 -30.5357 0.0000
# 4 0.0000 0.0000 0.0000 25.5851 0.0000 -18.4232
# 5 -34.0570 -22.1542 -30.5357 0.0000 33.7836 0.0000
# 6 0.0000 0.0000 0.0000 -18.4232 0.0000 24.1636
#
#
#
# Elastic Compliance Matrix: (Units=1/GPa)
#
#
# Indices 1 2 3 4 5 6 
#
# 1 0.027440 -0.004574 0.013201 0.000000 0.036595 0.000000
# 2 -0.004574 0.014071 -0.000059 0.000000 0.004563 0.000000
# 3 0.013201 -0.000059 0.033769 0.000000 0.043791 0.000000
# 4 0.000000 0.000000 0.000000 0.086665 0.000000 0.066077
# 5 0.036595 0.004563 0.043791 0.000000 0.109064 0.000000
# 6 0.000000 0.000000 0.000000 0.066077 0.000000 0.091764
#
#
# Mechanical properties :
#
#
# Convention : Reuss Voigt Hill
#
# Bulk Modulus (GPa) = 10.82067 40.61234 25.71651
# Shear Modulus (GPa) = 13.28220 28.27752 20.77986
#
# Velocity S-wave (km/s) = 2.40359 3.50708 3.00639
# Velocity P-wave (km/s) = 3.52272 5.83645 4.82046
#
# Compressibility (1/GPa) = 0.09241569
#
# Stress axis : x y z
#
# Youngs Moduli (GPa) = 36.44254 71.06773 29.61310
#
# Poissons Ratio (x) = 0.32504 -0.39091
# Poissons Ratio (y) = 0.16668 0.00175
# Poissons Ratio (z) = -0.48106 0.00421
#
# Static dielectric constant tensor:
#      x y z
#    x 1.922360 0.000000 -0.000560 
#    y 0.000000 1.879260 0.000000 
#    z -0.000560 0.000000 1.826490 
# 
# From -- ./inp_files/125448.got.cif
#   From: 2010.05.17/outbox.cif.g08.bks.cpg/sg15_63_cif.got.tgz:125448.got - 2010.06.03 18:47:42.
