data_PCOD9275397
_publ_section_title
;
Structure prediction by ZEFSAII (Michael W. Deem and Ramdas Pophale) SiO2 
 PCOD9275397
Probable space group: C 2/C
;
_chemical_formula_sum "Si O2"
_cell_formula_units_Z 60
_cell_length_a 27.466661
_cell_length_b 8.758279
_cell_length_c 14.505030
_cell_angle_alpha 90.000000
_cell_angle_beta 57.777702
_cell_angle_gamma 90.000000
_cell_volume 2951.931716
_symmetry_space_group_name_H-M "C 2/C"
_symmetry_group_IT_number 15
_symmetry_cell_setting 'monoclinic'
loop_
_space_group_symop_operation_xyz
x,y,z
-x,y,1/2-z
-x,-y,-z
x,-y,1/2+z
1/2+x,1/2+y,z
1/2-x,1/2+y,1/2-z
1/2-x,1/2-y,-z
1/2+x,1/2-y,1/2+z
loop_
_atom_site_type_symbol
_atom_site_label
_atom_site_fract_x
_atom_site_fract_y
_atom_site_fract_z
Si Si1 0.308012 0.004196 0.675983
Si Si2 0.925462 0.655170 0.508891
Si Si3 0.794419 0.820641 0.768800
Si Si4 0.863050 0.949291 0.532502
Si Si5 0.120127 0.005820 0.188918
Si Si6 0.987436 0.636162 0.928772
Si Si7 0.884658 0.768673 0.143896
Si Si8 0.000000 0.856682 0.750000
O O1 0.260113 0.929420 0.658656
O O2 0.335298 0.858423 0.699410
O O3 0.362731 0.077405 0.568414
O O4 0.284881 0.139761 0.765543
O O5 0.916775 0.829056 0.485739
O O6 0.968844 0.534567 0.418326
O O7 0.949743 0.653541 0.589279
O O8 0.814880 0.874073 0.646118
O O9 0.844309 0.865718 0.790323
O O10 0.849798 0.970807 0.438946
O O11 0.874500 0.109147 0.571955
O O12 0.115286 0.863358 0.262568
O O13 0.055265 0.052557 0.229115
O O14 0.980126 0.749117 0.852766
O O15 0.943667 0.687274 0.054232
#
# Coordination Sequence:
#
# PCOD9275397 Si02
#       8
#     8   8   8   8   8   8   8   4
#     4  10  20  42  68  89 116 168 200 258 312 361
#     4   9  21  39  61  88 124 164 207 252 309 359
#     4  10  21  41  65  86 126 158 209 255 308 364
#     4  10  20  40  59  92 125 157 204 255 301 364
#     4  11  24  38  61  96 123 167 204 251 307 367
#     4  10  20  39  61  86 126 169 202 253 305 361
#     4  10  21  39  63  88 127 158 207 248 308 364
#     4  12  22  36  62  90 130 160 212 246 302 368
#
# _framework density 20.325673999999999
#
# number of rings (size 3 to 8) (size 9 to 14) (size 15 to 20)
#    0.000    1.867    1.333    4.000    1.867    1.067 
#    9.600    8.667    0.000    0.000    0.000    0.000 
#    0.000    0.000    0.000    0.000    0.000    0.000 
#
# Total GULP energy -167194.004000 kJ/mol
# GULP energy per Si atom -5573.133467 kJ/mol
# Density = 2.027941 g / cm^3
# Si number density = 20.325674 Si / 1000 Ang^3
#
#
#
# Elastic Constant Matrix: (Units=GPa)
#
#
# Indices 1 2 3 4 5 6 
#
# 1 106.0457 45.7846 25.3603 0.0000 4.8767 0.0000
# 2 45.7846 131.5511 22.6927 0.0000 12.7730 0.0000
# 3 25.3603 22.6927 69.5464 0.0000 18.0473 0.0000
# 4 0.0000 0.0000 0.0000 2.7075 0.0000 -4.1913
# 5 4.8767 12.7730 18.0473 0.0000 22.1109 0.0000
# 6 0.0000 0.0000 0.0000 -4.1913 0.0000 35.4117
#
#
#
# Elastic Compliance Matrix: (Units=1/GPa)
#
#
# Indices 1 2 3 4 5 6 
#
# 1 0.011817 -0.003716 -0.003777 0.000000 0.002623 0.000000
# 2 -0.003716 0.009404 -0.000655 0.000000 -0.004078 0.000000
# 3 -0.003777 -0.000655 0.019863 0.000000 -0.015001 0.000000
# 4 0.000000 0.000000 0.000000 0.452187 0.000000 0.053520
# 5 0.002623 -0.004078 -0.015001 0.000000 0.059248 0.000000
# 6 0.000000 0.000000 0.000000 0.053520 0.000000 0.034574
#
#
# Mechanical properties :
#
#
# Convention : Reuss Voigt Hill
#
# Bulk Modulus (GPa) = 40.34414 54.97981 47.66198
# Shear Modulus (GPa) = 8.17460 26.26641 17.22051
#
# Velocity S-wave (km/s) = 2.00762 3.59873 2.91388
# Velocity P-wave (km/s) = 5.02653 6.66153 5.90093
#
# Compressibility (1/GPa) = 0.02478675
#
# Stress axis : x y z
#
# Youngs Moduli (GPa) = 84.62464 106.33960 50.34535
#
# Poissons Ratio (x) = 0.39514 0.19017
# Poissons Ratio (y) = 0.31445 0.03299
# Poissons Ratio (z) = 0.31966 0.06967
#
# Static dielectric constant tensor:
#      x y z
#    x 1.763920 0.000000 -0.057550 
#    y 0.000000 1.774470 0.000000 
#    z -0.057550 0.000000 1.728430 
# 
# From -- ./inp_files/172358.got.cif
#   From: 2010.05.17/outbox.cif.g08.bks.cpg/sg15_87_cif.got.tgz:172358.got - 2010.06.03 18:47:42.
