data_PCOD9275386
_publ_section_title
;
Structure prediction by ZEFSAII (Michael W. Deem and Ramdas Pophale) SiO2 
 PCOD9275386
Probable space group: C 2/C
;
_chemical_formula_sum "Si O2"
_cell_formula_units_Z 40
_cell_length_a 12.890069
_cell_length_b 11.930994
_cell_length_c 13.756499
_cell_angle_alpha 90.000000
_cell_angle_beta 107.110667
_cell_angle_gamma 90.000000
_cell_volume 2021.988868
_symmetry_space_group_name_H-M "C 2/C"
_symmetry_group_IT_number 15
_symmetry_cell_setting 'monoclinic'
loop_
_space_group_symop_operation_xyz
x,y,z
-x,y,1/2-z
-x,-y,-z
x,-y,1/2+z
1/2+x,1/2+y,z
1/2-x,1/2+y,1/2-z
1/2-x,1/2-y,-z
1/2+x,1/2-y,1/2+z
loop_
_atom_site_type_symbol
_atom_site_label
_atom_site_fract_x
_atom_site_fract_y
_atom_site_fract_z
Si Si1 0.579761 0.659757 0.969361
Si Si2 0.869011 0.017129 0.855653
Si Si3 0.029036 0.383848 0.060808
Si Si4 0.205203 0.631950 0.951714
Si Si5 0.762022 0.945885 0.129413
O O1 0.478892 0.587799 0.900718
O O2 0.674044 0.648108 0.915162
O O3 0.616743 0.596900 0.078818
O O4 0.542461 0.783867 0.986413
O O5 0.772665 0.087381 0.879449
O O6 0.837306 0.005971 0.735031
O O7 0.148113 0.399417 0.138584
O O8 0.924278 0.359603 0.097727
O O9 0.000000 0.500000 0.000000
O O10 0.250000 0.750000 0.000000
O O11 0.232559 0.542818 0.044519
#
# Coordination Sequence:
#
# PCOD9275386 Si02
#       5
#     8   8   8   8   8
#     4  10  20  39  61  87 123 155 197 255 302 348
#     4  10  21  37  62  91 115 158 205 248 299 356
#     4  10  21  39  61  84 121 159 193 249 308 352
#     4  10  20  39  61  84 125 160 194 250 303 355
#     4  10  22  37  60  92 117 156 208 241 299 368
#
# _framework density 19.782502999999998
#
# number of rings (size 3 to 8) (size 9 to 14) (size 15 to 20)
#    0.000    2.000    2.000    1.200    0.000    2.400 
#    0.000    0.000    8.800    0.000    0.000    0.000 
#    0.000    0.000    0.000    0.000    0.000    0.000 
#
# Total GULP energy -111598.003280 kJ/mol
# GULP energy per Si atom -5579.900164 kJ/mol
# Density = 1.973748 g / cm^3
# Si number density = 19.782503 Si / 1000 Ang^3
#
#
#
# Elastic Constant Matrix: (Units=GPa)
#
#
# Indices 1 2 3 4 5 6 
#
# 1 123.7065 25.5707 9.3309 0.0000 10.3498 0.0000
# 2 25.5707 85.0345 -2.4012 0.0000 -1.9228 0.0000
# 3 9.3309 -2.4012 81.9127 0.0000 9.9676 0.0000
# 4 0.0000 0.0000 0.0000 7.3283 0.0000 1.9510
# 5 10.3498 -1.9228 9.9676 0.0000 20.1931 0.0000
# 6 0.0000 0.0000 0.0000 1.9510 0.0000 29.9285
#
#
#
# Elastic Compliance Matrix: (Units=1/GPa)
#
#
# Indices 1 2 3 4 5 6 
#
# 1 0.009107 -0.002860 -0.000553 0.000000 -0.004667 0.000000
# 2 -0.002860 0.012687 0.000396 0.000000 0.002478 0.000000
# 3 -0.000553 0.000396 0.013026 0.000000 -0.006109 0.000000
# 4 0.000000 0.000000 0.000000 0.138868 0.000000 -0.009053
# 5 -0.004667 0.002478 -0.006109 0.000000 0.055165 0.000000
# 6 0.000000 0.000000 0.000000 -0.009053 0.000000 0.034003
#
#
# Mechanical properties :
#
#
# Convention : Reuss Voigt Hill
#
# Bulk Modulus (GPa) = 34.73879 39.51717 37.12798
# Shear Modulus (GPa) = 17.95424 28.70020 23.32722
#
# Velocity S-wave (km/s) = 3.01588 3.81305 3.43765
# Velocity P-wave (km/s) = 5.45214 6.27734 5.87924
#
# Compressibility (1/GPa) = 0.02878626
#
# Stress axis : x y z
#
# Youngs Moduli (GPa) = 109.80628 78.82023 76.76899
#
# Poissons Ratio (x) = 0.22540 0.04248
# Poissons Ratio (y) = 0.31401 -0.03041
# Poissons Ratio (z) = 0.06076 -0.03122
#
# Static dielectric constant tensor:
#      x y z
#    x 1.741920 0.000000 0.010610 
#    y 0.000000 1.675140 0.000000 
#    z 0.010610 0.000000 1.662080 
# 
# From -- ./inp_files/141888.got.cif
#   From: 2010.05.17/outbox.cif.g08.bks.cpg/sg15_71_cif.got.tgz:141888.got - 2010.06.03 18:47:42.
