data_PCOD9275762
_publ_section_title
;
Structure prediction by ZEFSAII (Michael W. Deem and Ramdas Pophale) SiO2 
 PCOD9275762
Probable space group: C 2/C
;
_chemical_formula_sum "Si O2"
_cell_formula_units_Z 32
_cell_length_a 8.446149
_cell_length_b 17.046608
_cell_length_c 11.025829
_cell_angle_alpha 90.000000
_cell_angle_beta 96.859587
_cell_angle_gamma 90.000000
_cell_volume 1576.115475
_symmetry_space_group_name_H-M "C 2/C"
_symmetry_group_IT_number 15
_symmetry_cell_setting 'monoclinic'
loop_
_space_group_symop_operation_xyz
x,y,z
-x,y,1/2-z
-x,-y,-z
x,-y,1/2+z
1/2+x,1/2+y,z
1/2-x,1/2+y,1/2-z
1/2-x,1/2-y,-z
1/2+x,1/2-y,1/2+z
loop_
_atom_site_type_symbol
_atom_site_label
_atom_site_fract_x
_atom_site_fract_y
_atom_site_fract_z
Si Si1 0.574402 0.876447 0.523456
Si Si2 0.814915 0.850516 0.335349
Si Si3 0.355161 0.977380 0.329718
Si Si4 0.386656 0.736091 0.608150
O O1 0.685407 0.840651 0.428456
O O2 0.429773 0.920160 0.439299
O O3 0.497561 0.812345 0.603507
O O4 0.676590 0.941140 0.605773
O O5 0.776423 0.931741 0.261477
O O6 0.806955 0.784790 0.229155
O O7 0.992776 0.837287 0.402505
O O8 0.500000 0.992944 0.250000
O O9 0.250000 0.750000 0.500000
#
# Coordination Sequence:
#
# PCOD9275762 Si02
#       4
#     8   8   8   8
#     4  10  20  39  64  92 125 173 212 263 324 381
#     4  10  22  40  63  96 128 166 215 272 309 385
#     4   9  19  37  66  91 126 168 220 259 320 389
#     4  11  22  38  64  92 129 168 214 263 327 375
#
# _framework density 20.303082
#
# number of rings (size 3 to 8) (size 9 to 14) (size 15 to 20)
#    0.000    2.000    2.500    0.750    3.500    0.000 
#    0.000    5.000    0.000    0.000    0.000    0.000 
#    0.000    0.000    0.000    0.000    0.000    0.000 
#
# Total GULP energy -89155.727459 kJ/mol
# GULP energy per Si atom -5572.232966 kJ/mol
# Density = 2.025687 g / cm^3
# Si number density = 20.303082 Si / 1000 Ang^3
#
#
#
# Elastic Constant Matrix: (Units=GPa)
#
#
# Indices 1 2 3 4 5 6 
#
# 1 88.6049 55.6210 48.8918 0.0000 14.3361 0.0000
# 2 55.6210 99.8876 67.1873 0.0000 -15.5982 0.0000
# 3 48.8918 67.1873 107.3190 0.0000 -17.1172 0.0000
# 4 0.0000 0.0000 0.0000 53.6159 0.0000 3.4508
# 5 14.3361 -15.5982 -17.1172 0.0000 43.0490 0.0000
# 6 0.0000 0.0000 0.0000 3.4508 0.0000 14.3803
#
#
#
# Elastic Compliance Matrix: (Units=1/GPa)
#
#
# Indices 1 2 3 4 5 6 
#
# 1 0.024521 -0.011864 -0.006120 0.000000 -0.014898 0.000000
# 2 -0.011864 0.023213 -0.007640 0.000000 0.009324 0.000000
# 3 -0.006120 -0.007640 0.017908 0.000000 0.006390 0.000000
# 4 0.000000 0.000000 0.000000 0.018944 0.000000 -0.004546
# 5 -0.014898 0.009324 0.006390 0.000000 0.034110 0.000000
# 6 0.000000 0.000000 0.000000 -0.004546 0.000000 0.070630
#
#
# Mechanical properties :
#
#
# Convention : Reuss Voigt Hill
#
# Bulk Modulus (GPa) = 69.47431 71.02351 70.24891
# Shear Modulus (GPa) = 20.37712 30.48314 25.43013
#
# Velocity S-wave (km/s) = 3.17148 3.87900 3.54294
# Velocity P-wave (km/s) = 6.90680 7.42427 7.17020
#
# Compressibility (1/GPa) = 0.01439381
#
# Stress axis : x y z
#
# Youngs Moduli (GPa) = 40.78098 43.07970 55.83977
#
# Poissons Ratio (x) = 0.51112 0.34172
# Poissons Ratio (y) = 0.48384 0.42662
# Poissons Ratio (z) = 0.24957 0.32913
#
# Static dielectric constant tensor:
#      x y z
#    x 1.742250 0.000000 0.028590 
#    y 0.000000 1.768190 0.000000 
#    z 0.028590 0.000000 1.749410 
# 
# From -- ./inp_files/75357.got.cif
#   From: 2010.05.17/outbox.cif.g08.bks.cpg/sg15_38_cif.got.tgz:75357.got - 2010.06.03 18:47:42.
