data_PCOD9275592
_publ_section_title
;
Structure prediction by ZEFSAII (Michael W. Deem and Ramdas Pophale) SiO2 
 PCOD9275592
Probable space group: C 2/C
;
_chemical_formula_sum "Si O2"
_cell_formula_units_Z 52
_cell_length_a 10.428553
_cell_length_b 10.865973
_cell_length_c 21.421491
_cell_angle_alpha 90.000000
_cell_angle_beta 58.525408
_cell_angle_gamma 90.000000
_cell_volume 2070.265842
_symmetry_space_group_name_H-M "C 2/C"
_symmetry_group_IT_number 15
_symmetry_cell_setting 'monoclinic'
loop_
_space_group_symop_operation_xyz
x,y,z
-x,y,1/2-z
-x,-y,-z
x,-y,1/2+z
1/2+x,1/2+y,z
1/2-x,1/2+y,1/2-z
1/2-x,1/2-y,-z
1/2+x,1/2-y,1/2+z
loop_
_atom_site_type_symbol
_atom_site_label
_atom_site_fract_x
_atom_site_fract_y
_atom_site_fract_z
Si Si1 0.497671 0.332173 0.344262
Si Si2 0.275271 0.200657 0.121622
Si Si3 0.500000 0.880386 0.750000
Si Si4 0.612844 0.487990 0.529620
Si Si5 0.475793 0.732679 0.147290
Si Si6 0.227602 0.039588 0.240128
Si Si7 0.928348 0.408411 0.469015
O O1 0.611691 0.269930 0.363345
O O2 0.436833 0.220422 0.316795
O O3 0.385975 0.402037 0.419627
O O4 0.604746 0.432923 0.281941
O O5 0.114095 0.263147 0.157091
O O6 0.251329 0.068488 0.161195
O O7 0.349908 0.190749 0.034841
O O8 0.621682 0.963511 0.756085
O O9 0.500000 0.500000 0.500000
O O10 0.543240 0.375936 0.586974
O O11 0.786628 0.465704 0.467993
O O12 0.342324 0.669354 0.217274
O O13 0.453867 0.847015 0.107663
O O14 0.000000 0.500000 0.500000
#
# Coordination Sequence:
#
# PCOD9275592 Si02
#       7
#     8   8   4   8   8   8   8
#     4  10  22  39  67  86 127 174 205 276 336 384
#     4  10  21  43  62  93 126 167 216 264 319 408
#     4  10  24  42  60  98 134 158 226 278 316 408
#     4  10  20  39  63  87 120 167 212 256 328 395
#     4  10  21  39  64  86 124 161 218 256 320 399
#     4  10  23  41  65  94 126 170 216 268 337 387
#     4  11  24  38  62  97 128 166 213 275 320 395
#
# _framework density 25.117546999999998
#
# number of rings (size 3 to 8) (size 9 to 14) (size 15 to 20)
#    0.000    1.846    0.000    4.154    8.615    1.231 
#   22.154    1.538    0.000    0.000    0.000    0.000 
#    0.000    0.000    0.000    0.000    0.000    0.000 
#
# Total GULP energy -145342.093220 kJ/mol
# GULP energy per Si atom -5590.080508 kJ/mol
# Density = 2.506038 g / cm^3
# Si number density = 25.117547 Si / 1000 Ang^3
#
#
#
# Elastic Constant Matrix: (Units=GPa)
#
#
# Indices 1 2 3 4 5 6 
#
# 1 94.6340 4.2247 2.6366 0.0000 23.0134 0.0000
# 2 4.2247 41.9954 6.3401 0.0000 0.5170 0.0000
# 3 2.6366 6.3401 58.7558 0.0000 8.8662 0.0000
# 4 0.0000 0.0000 0.0000 23.5233 0.0000 7.2114
# 5 23.0134 0.5170 8.8662 0.0000 36.9441 0.0000
# 6 0.0000 0.0000 0.0000 7.2114 0.0000 29.7120
#
#
#
# Elastic Compliance Matrix: (Units=1/GPa)
#
#
# Indices 1 2 3 4 5 6 
#
# 1 0.012544 -0.001281 0.000780 0.000000 -0.007983 0.000000
# 2 -0.001281 0.024341 -0.002737 0.000000 0.001115 0.000000
# 3 0.000780 -0.002737 0.017999 0.000000 -0.004767 0.000000
# 4 0.000000 0.000000 0.000000 0.045928 0.000000 -0.011147
# 5 -0.007983 0.001115 -0.004767 0.000000 0.033169 0.000000
# 6 0.000000 0.000000 0.000000 -0.011147 0.000000 0.036362
#
#
# Mechanical properties :
#
#
# Convention : Reuss Voigt Hill
#
# Bulk Modulus (GPa) = 20.65829 24.64311 22.65070
# Shear Modulus (GPa) = 25.91262 30.18146 28.04704
#
# Velocity S-wave (km/s) = 3.21542 3.47018 3.34523
# Velocity P-wave (km/s) = 4.69337 5.08809 4.89471
#
# Compressibility (1/GPa) = 0.04840671
#
# Stress axis : x y z
#
# Youngs Moduli (GPa) = 79.72014 41.08368 55.55767
#
# Poissons Ratio (x) = 0.05264 -0.04334
# Poissons Ratio (y) = 0.10215 0.15207
# Poissons Ratio (z) = -0.06218 0.11245
#
# Static dielectric constant tensor:
#      x y z
#    x 2.000380 0.000000 -0.024960 
#    y 0.000000 2.082780 0.000000 
#    z -0.024960 0.000000 2.032760 
# 
# From -- ./inp_files/237489.got.cif
#   From: 2010.05.17/outbox.cif.g08.bks.cpg/sg15_119_cif.got.tgz:237489.got - 2010.06.03 18:47:42.
