data_PCOD9275771
_publ_section_title
;
Structure prediction by ZEFSAII (Michael W. Deem and Ramdas Pophale) SiO2 
 PCOD9275771
Probable space group: C 2/C
;
_chemical_formula_sum "Si O2"
_cell_formula_units_Z 48
_cell_length_a 22.089654
_cell_length_b 8.333388
_cell_length_c 28.170561
_cell_angle_alpha 90.000000
_cell_angle_beta 28.588225
_cell_angle_gamma 90.000000
_cell_volume 2481.408761
_symmetry_space_group_name_H-M "C 2/C"
_symmetry_group_IT_number 15
_symmetry_cell_setting 'monoclinic'
loop_
_space_group_symop_operation_xyz
x,y,z
-x,y,1/2-z
-x,-y,-z
x,-y,1/2+z
1/2+x,1/2+y,z
1/2-x,1/2+y,1/2-z
1/2-x,1/2-y,-z
1/2+x,1/2-y,1/2+z
loop_
_atom_site_type_symbol
_atom_site_label
_atom_site_fract_x
_atom_site_fract_y
_atom_site_fract_z
Si Si1 0.319629 0.241985 0.515609
Si Si2 0.630561 0.146394 0.719898
Si Si3 0.101495 0.984300 0.971208
Si Si4 0.559589 0.320889 0.595470
Si Si5 0.297960 0.601387 0.410818
Si Si6 0.563981 0.854155 0.660616
O O1 0.379203 0.304032 0.522967
O O2 0.417697 0.221052 0.404377
O O3 0.211260 0.371681 0.574669
O O4 0.244718 0.076118 0.574394
O O5 0.763256 0.058423 0.636579
O O6 0.576136 0.243913 0.801658
O O7 0.648600 0.275820 0.665242
O O8 0.522608 0.012449 0.784081
O O9 0.060817 0.076733 0.047159
O O10 0.000000 0.000000 0.000000
O O11 0.604592 0.409579 0.612574
O O12 0.666607 0.183977 0.517248
O O13 0.500000 0.765493 0.750000
#
# Coordination Sequence:
#
# PCOD9275771 Si02
#       6
#     8   8   8   8   8   8
#     4  11  23  38  64 101 133 163 214 272 323 385
#     4  11  22  42  66  93 135 173 210 261 334 392
#     4  11  26  47  63  88 135 180 221 267 309 375
#     4  10  20  39  64  93 127 170 208 260 333 386
#     4  10  21  34  66 103 127 157 207 270 334 392
#     4  11  20  36  66  99 133 162 196 278 344 380
#
# _framework density 19.343851000000001
#
# number of rings (size 3 to 8) (size 9 to 14) (size 15 to 20)
#    0.000    1.333    3.333    3.500    4.667    2.667 
#    3.000    3.333    0.000    0.000    0.000    0.000 
#    0.000    0.000    0.000    0.000    0.000    0.000 
#
# Total GULP energy -133900.152734 kJ/mol
# GULP energy per Si atom -5579.173031 kJ/mol
# Density = 1.929982 g / cm^3
# Si number density = 19.343851 Si / 1000 Ang^3
#
#
#
# Elastic Constant Matrix: (Units=GPa)
#
#
# Indices 1 2 3 4 5 6 
#
# 1 123.9968 57.1008 41.6543 0.0004 -10.0770 -0.0009
# 2 57.1008 107.6272 54.2388 0.0006 -7.7928 -0.0018
# 3 41.6543 54.2388 152.8270 0.0002 9.0729 -0.0004
# 4 0.0004 0.0006 0.0002 35.6398 0.0000 6.1898
# 5 -10.0770 -7.7928 9.0729 0.0000 14.5041 0.0001
# 6 -0.0009 -0.0018 -0.0004 6.1898 0.0001 23.5498
#
#
#
# Elastic Compliance Matrix: (Units=1/GPa)
#
#
# Indices 1 2 3 4 5 6 
#
# 1 0.011341 -0.004614 -0.001843 0.000000 0.006553 0.000000
# 2 -0.004614 0.014425 -0.004291 0.000000 0.007229 0.000001
# 3 -0.001843 -0.004291 0.009120 0.000000 -0.009291 0.000000
# 4 0.000000 0.000000 0.000000 0.029401 0.000000 -0.007728
# 5 0.006553 0.007229 -0.009291 0.000000 0.083195 0.000000
# 6 0.000000 0.000001 0.000000 -0.007728 0.000000 0.044494
#
#
# Mechanical properties :
#
#
# Convention : Reuss Voigt Hill
#
# Bulk Modulus (GPa) = 74.67734 76.71542 75.69638
# Shear Modulus (GPa) = 22.94265 30.16921 26.55593
#
# Velocity S-wave (km/s) = 3.44763 3.95350 3.70920
# Velocity P-wave (km/s) = 7.38493 7.78364 7.58691
#
# Compressibility (1/GPa) = 0.01339094
#
# Stress axis : x y z
#
# Youngs Moduli (GPa) = 88.17612 69.32377 109.64799
#
# Poissons Ratio (x) = 0.31984 0.20205
# Poissons Ratio (y) = 0.40682 0.47052
# Poissons Ratio (z) = 0.16248 0.29748
#
# Static dielectric constant tensor:
#      x y z
#    x 1.643560 0.000000 0.032320 
#    y 0.000000 1.774640 0.000000 
#    z 0.032320 0.000000 1.721830 
# 
# From -- ./inp_files/300455.got.cif
#   From: 2010.05.17/outbox.cif.g08.bks.cpg/sg15_151_cif.got.tgz:300455.got - 2010.06.03 18:47:42.
