data_PCOD9275541
_publ_section_title
;
Structure prediction by ZEFSAII (Michael W. Deem and Ramdas Pophale) SiO2 
 PCOD9275541
Probable space group: C 2/C
;
_chemical_formula_sum "Si O2"
_cell_formula_units_Z 56
_cell_length_a 8.799343
_cell_length_b 19.912692
_cell_length_c 17.574720
_cell_angle_alpha 90.000000
_cell_angle_beta 110.926610
_cell_angle_gamma 90.000000
_cell_volume 2876.295523
_symmetry_space_group_name_H-M "C 2/C"
_symmetry_group_IT_number 15
_symmetry_cell_setting 'monoclinic'
loop_
_space_group_symop_operation_xyz
x,y,z
-x,y,1/2-z
-x,-y,-z
x,-y,1/2+z
1/2+x,1/2+y,z
1/2-x,1/2+y,1/2-z
1/2-x,1/2-y,-z
1/2+x,1/2-y,1/2+z
loop_
_atom_site_type_symbol
_atom_site_label
_atom_site_fract_x
_atom_site_fract_y
_atom_site_fract_z
Si Si1 0.922267 0.425869 0.992397
Si Si2 0.724628 0.935309 0.856911
Si Si3 0.342376 0.042151 0.321339
Si Si4 0.398161 0.327359 0.985730
Si Si5 0.336620 0.811008 0.422337
Si Si6 0.694320 0.396182 0.267829
Si Si7 0.687522 0.578838 0.591734
O O1 0.814006 0.421805 0.896687
O O2 0.826584 0.417657 0.053447
O O3 0.000000 0.500000 0.000000
O O4 0.058765 0.369490 0.019879
O O5 0.733822 0.925321 0.767860
O O6 0.537859 0.955937 0.842242
O O7 0.773790 0.870701 0.912969
O O8 0.837260 0.998974 0.899289
O O9 0.273528 0.966332 0.310930
O O10 0.431639 0.259068 0.945556
O O11 0.322520 0.305222 0.053016
O O12 0.542307 0.377656 0.031942
O O13 0.279566 0.836790 0.330070
O O14 0.500000 0.396996 0.250000
O O15 0.725915 0.393945 0.183133
#
# Coordination Sequence:
#
# PCOD9275541 Si02
#       7
#     8   8   8   8   8   8   8
#     4  12  21  40  67  92 127 169 206 263 322 377
#     4  10  20  39  62  93 123 160 209 264 316 372
#     4  10  21  36  61  93 121 157 207 258 318 371
#     4  11  23  41  62  96 124 170 214 260 315 388
#     4  11  23  41  63  90 132 166 213 257 323 385
#     4  11  22  40  62  96 125 161 211 271 315 371
#     4  11  23  38  69  94 122 168 217 264 320 375
#
# _framework density 19.469487999999998
#
# number of rings (size 3 to 8) (size 9 to 14) (size 15 to 20)
#    0.000    1.143    5.714    0.429    0.000    3.429 
#    5.143    0.000    3.143    0.000    0.000    0.000 
#    0.000    0.000    0.000    0.000    0.000    0.000 
#
# Total GULP energy -156228.308334 kJ/mol
# GULP energy per Si atom -5579.582441 kJ/mol
# Density = 1.942517 g / cm^3
# Si number density = 19.469488 Si / 1000 Ang^3
#
#
#
# Elastic Constant Matrix: (Units=GPa)
#
#
# Indices 1 2 3 4 5 6 
#
# 1 49.8547 19.1448 40.3935 0.0000 -14.8434 0.0000
# 2 19.1448 97.1090 54.4860 0.0000 9.4656 0.0000
# 3 40.3935 54.4860 132.2058 0.0000 -20.6125 0.0000
# 4 0.0000 0.0000 0.0000 23.4174 0.0000 -3.9132
# 5 -14.8434 9.4656 -20.6125 0.0000 38.6672 0.0000
# 6 0.0000 0.0000 0.0000 -3.9132 0.0000 11.5055
#
#
#
# Elastic Compliance Matrix: (Units=1/GPa)
#
#
# Indices 1 2 3 4 5 6 
#
# 1 0.028783 -0.002997 -0.006241 0.000000 0.008456 0.000000
# 2 -0.002997 0.015567 -0.006842 0.000000 -0.008608 0.000000
# 3 -0.006241 -0.006842 0.013282 0.000000 0.006360 0.000000
# 4 0.000000 0.000000 0.000000 0.045277 0.000000 0.015399
# 5 0.008456 -0.008608 0.006360 0.000000 0.034605 0.000000
# 6 0.000000 0.000000 0.000000 0.015399 0.000000 0.092152
#
#
# Mechanical properties :
#
#
# Convention : Reuss Voigt Hill
#
# Bulk Modulus (GPa) = 39.25834 56.35757 47.80795
# Shear Modulus (GPa) = 18.49688 25.72770 22.11229
#
# Velocity S-wave (km/s) = 3.08562 3.63910 3.37373
# Velocity P-wave (km/s) = 5.73608 6.83131 6.30751
#
# Compressibility (1/GPa) = 0.02547230
#
# Stress axis : x y z
#
# Youngs Moduli (GPa) = 34.74236 64.24041 75.29023
#
# Poissons Ratio (x) = 0.19255 0.46986
# Poissons Ratio (y) = 0.10413 0.51512
# Poissons Ratio (z) = 0.21681 0.43952
#
# Static dielectric constant tensor:
#      x y z
#    x 1.715260 0.000000 -0.010050 
#    y 0.000000 1.673650 0.000000 
#    z -0.010050 0.000000 1.722000 
# 
# From -- ./inp_files/192249.got.cif
#   From: 2010.05.17/outbox.cif.g08.bks.cpg/sg15_97_cif.got.tgz:192249.got - 2010.06.03 18:47:42.
