data_PCOD9275262
_publ_section_title
;
Structure prediction by ZEFSAII (Michael W. Deem and Ramdas Pophale) SiO2 
 PCOD9275262
Probable space group: C 2/C
;
_chemical_formula_sum "Si O2"
_cell_formula_units_Z 52
_cell_length_a 22.192091
_cell_length_b 12.960000
_cell_length_c 7.130267
_cell_angle_alpha 90.000000
_cell_angle_beta 72.296924
_cell_angle_gamma 90.000000
_cell_volume 1953.620406
_symmetry_space_group_name_H-M "C 2/C"
_symmetry_group_IT_number 15
_symmetry_cell_setting 'monoclinic'
loop_
_space_group_symop_operation_xyz
x,y,z
-x,y,1/2-z
-x,-y,-z
x,-y,1/2+z
1/2+x,1/2+y,z
1/2-x,1/2+y,1/2-z
1/2-x,1/2-y,-z
1/2+x,1/2-y,1/2+z
loop_
_atom_site_type_symbol
_atom_site_label
_atom_site_fract_x
_atom_site_fract_y
_atom_site_fract_z
Si Si1 0.425809 0.129003 0.781305
Si Si2 0.171205 0.551569 0.145348
Si Si3 0.083925 0.903338 0.994725
Si Si4 0.500000 0.575647 0.250000
Si Si5 0.740881 0.133588 0.753642
Si Si6 0.573441 0.191114 0.152539
Si Si7 0.658160 0.309339 0.619564
O O1 0.500000 0.107638 0.750000
O O2 0.415282 0.142465 0.565599
O O3 0.403399 0.241487 0.873971
O O4 0.376578 0.039409 0.888035
O O5 0.219421 0.628454 0.988714
O O6 0.215924 0.481404 0.227355
O O7 0.116839 0.630801 0.256060
O O8 0.141837 0.894429 0.794229
O O9 0.058342 0.003426 0.123720
O O10 0.091955 0.810091 0.129221
O O11 0.024524 0.872569 0.915475
O O12 0.702342 0.224247 0.682781
O O13 0.808967 0.145747 0.595426
O O14 0.500000 0.178553 0.250000
#
# Coordination Sequence:
#
# PCOD9275262 Si02
#       7
#     8   8   8   4   8   8   8
#     4  10  22  37  62  96 129 166 208 257 326 385
#     4  11  20  38  58  96 121 170 205 259 309 386
#     4  10  20  39  58  89 116 164 203 260 310 373
#     4  10  22  36  62  86 120 154 214 254 314 374
#     4  10  21  38  64  83 125 164 219 253 305 374
#     4  11  22  36  59  92 132 166 198 259 328 387
#     4   9  20  40  59  86 119 172 205 259 311 365
#
# _framework density 26.617246999999999
#
# number of rings (size 3 to 8) (size 9 to 14) (size 15 to 20)
#    0.000    1.846    5.385    0.462    6.462    2.462 
#    0.000    0.000    0.000    8.308    0.000    0.000 
#    0.000    0.000    0.000    0.000    0.000    0.000 
#
# Total GULP energy -145075.768348 kJ/mol
# GULP energy per Si atom -5579.837244 kJ/mol
# Density = 2.655667 g / cm^3
# Si number density = 26.617247 Si / 1000 Ang^3
#
#
#
# Elastic Constant Matrix: (Units=GPa)
#
#
# Indices 1 2 3 4 5 6 
#
# 1 53.6420 20.1280 29.5762 0.0000 -24.4089 0.0000
# 2 20.1280 63.4988 13.5294 0.0000 -11.3579 0.0000
# 3 29.5762 13.5294 89.3233 0.0000 -37.4641 0.0000
# 4 0.0000 0.0000 0.0000 43.8363 0.0000 -15.2142
# 5 -24.4089 -11.3579 -37.4641 0.0000 56.1018 0.0000
# 6 0.0000 0.0000 0.0000 -15.2142 0.0000 29.9844
#
#
#
# Elastic Compliance Matrix: (Units=1/GPa)
#
#
# Indices 1 2 3 4 5 6 
#
# 1 0.026977 -0.006209 -0.004996 0.000000 0.007144 0.000000
# 2 -0.006209 0.017917 -0.000374 0.000000 0.000676 0.000000
# 3 -0.004996 -0.000374 0.016617 0.000000 0.008847 0.000000
# 4 0.000000 0.000000 0.000000 0.027688 0.000000 0.014049
# 5 0.007144 0.000676 0.008847 0.000000 0.026978 0.000000
# 6 0.000000 0.000000 0.000000 0.014049 0.000000 0.040479
#
#
# Mechanical properties :
#
#
# Convention : Reuss Voigt Hill
#
# Bulk Modulus (GPa) = 26.07364 36.99237 31.53300
# Shear Modulus (GPa) = 25.96066 35.53319 30.74693
#
# Velocity S-wave (km/s) = 3.12642 3.65769 3.40244
# Velocity P-wave (km/s) = 4.78014 5.63616 5.22570
#
# Compressibility (1/GPa) = 0.03835291
#
# Stress axis : x y z
#
# Youngs Moduli (GPa) = 37.06833 55.81242 60.17994
#
# Poissons Ratio (x) = 0.34654 0.30064
# Poissons Ratio (y) = 0.23016 0.02254
# Poissons Ratio (z) = 0.18518 0.02090
#
# Static dielectric constant tensor:
#      x y z
#    x 2.135250 0.000000 0.014220 
#    y 0.000000 2.089590 0.000000 
#    z 0.014220 0.000000 2.302270 
# 
# From -- ./inp_files/65092.got.cif
#   From: 2010.05.17/outbox.cif.g08.bks.cpg/sg15_33_cif.got.tgz:65092.got - 2010.06.03 18:47:42.
