data_PCOD9275252
_publ_section_title
;
Structure prediction by ZEFSAII (Michael W. Deem and Ramdas Pophale) SiO2 
 PCOD9275252
Probable space group: C 2/C
;
_chemical_formula_sum "Si O2"
_cell_formula_units_Z 56
_cell_length_a 6.953873
_cell_length_b 22.024414
_cell_length_c 23.084471
_cell_angle_alpha 90.000000
_cell_angle_beta 116.448168
_cell_angle_gamma 90.000000
_cell_volume 3165.467711
_symmetry_space_group_name_H-M "C 2/C"
_symmetry_group_IT_number 15
_symmetry_cell_setting 'monoclinic'
loop_
_space_group_symop_operation_xyz
x,y,z
-x,y,1/2-z
-x,-y,-z
x,-y,1/2+z
1/2+x,1/2+y,z
1/2-x,1/2+y,1/2-z
1/2-x,1/2-y,-z
1/2+x,1/2-y,1/2+z
loop_
_atom_site_type_symbol
_atom_site_label
_atom_site_fract_x
_atom_site_fract_y
_atom_site_fract_z
Si Si1 0.566976 0.363683 0.085552
Si Si2 0.383317 0.809196 0.034675
Si Si3 0.122706 0.355495 0.959658
Si Si4 0.500000 0.514239 0.250000
Si Si5 0.156646 0.758399 0.378098
Si Si6 0.000000 0.319370 0.750000
Si Si7 0.200212 0.537468 0.808366
Si Si8 0.929885 0.574753 0.327801
O O1 0.740291 0.343356 0.061748
O O2 0.513919 0.309933 0.124957
O O3 0.669970 0.421913 0.129548
O O4 0.342160 0.373306 0.021583
O O5 0.611467 0.789436 0.091405
O O6 0.250000 0.750000 0.000000
O O7 0.442863 0.845614 0.984514
O O8 0.157141 0.292134 0.929440
O O9 0.045332 0.402081 0.900808
O O10 0.630308 0.478961 0.218573
O O11 0.691426 0.550426 0.307008
O O12 0.116748 0.724552 0.311850
O O13 0.891558 0.368295 0.779081
O O14 0.000000 0.570815 0.750000
O O15 0.084374 0.477386 0.820438
#
# Coordination Sequence:
#
# PCOD9275252 Si02
#       8
#     8   8   8   4   8   4   8   8
#     4  11  22  38  59  84 121 159 190 240 294 349
#     4  11  19  36  58  83 114 158 189 227 299 355
#     4  10  21  36  59  88 119 148 193 245 289 350
#     4  10  20  41  62  78 113 156 190 246 294 334
#     4  10  21  36  56  87 120 146 193 239 294 347
#     4  10  20  39  58  86 119 146 190 260 288 342
#     4  10  23  41  60  83 118 156 201 242 288 354
#     4  10  21  40  60  88 114 150 200 246 296 343
#
# _framework density 17.690909000000001
#
# number of rings (size 3 to 8) (size 9 to 14) (size 15 to 20)
#    0.000    1.714    5.000    0.857    0.000    9.143 
#    0.000    1.429    0.000    0.000    0.000    0.000 
#    0.000    0.000    0.000    0.000    0.000    0.000 
#
# Total GULP energy -155962.817872 kJ/mol
# GULP energy per Si atom -5570.100638 kJ/mol
# Density = 1.765064 g / cm^3
# Si number density = 17.690909 Si / 1000 Ang^3
#
#
#
# Elastic Constant Matrix: (Units=GPa)
#
#
# Indices 1 2 3 4 5 6 
#
# 1 144.3260 47.5692 56.6364 0.0000 -8.0549 0.0000
# 2 47.5692 72.1764 62.6353 0.0000 1.8154 0.0000
# 3 56.6364 62.6353 119.2196 0.0000 -1.0072 0.0000
# 4 0.0000 0.0000 0.0000 36.4880 0.0000 4.6918
# 5 -8.0549 1.8154 -1.0072 0.0000 17.1116 0.0000
# 6 0.0000 0.0000 0.0000 4.6918 0.0000 9.2425
#
#
#
# Elastic Compliance Matrix: (Units=1/GPa)
#
#
# Indices 1 2 3 4 5 6 
#
# 1 0.009529 -0.004613 -0.002063 0.000000 0.004854 0.000000
# 2 -0.004613 0.027908 -0.012521 0.000000 -0.005869 0.000000
# 3 -0.002063 -0.012521 0.015957 0.000000 0.001297 0.000000
# 4 0.000000 0.000000 0.000000 0.029320 0.000000 -0.014884
# 5 0.004854 -0.005869 0.001297 0.000000 0.061424 0.000000
# 6 0.000000 0.000000 0.000000 -0.014884 0.000000 0.115752
#
#
# Mechanical properties :
#
#
# Convention : Reuss Voigt Hill
#
# Bulk Modulus (GPa) = 66.65557 74.37820 70.51689
# Shear Modulus (GPa) = 16.48630 23.82717 20.15673
#
# Velocity S-wave (km/s) = 3.05603 3.67394 3.37914
# Velocity P-wave (km/s) = 7.08605 7.75445 7.42777
#
# Compressibility (1/GPa) = 0.01500250
#
# Stress axis : x y z
#
# Youngs Moduli (GPa) = 104.93882 35.83186 62.66929
#
# Poissons Ratio (x) = 0.16528 0.12926
# Poissons Ratio (y) = 0.48404 0.78466
# Poissons Ratio (z) = 0.21645 0.44864
#
# Static dielectric constant tensor:
#      x y z
#    x 1.574700 0.000000 -0.008730 
#    y 0.000000 1.641260 0.000000 
#    z -0.008730 0.000000 1.556700 
# 
# From -- ./inp_files/228187.got.cif
#   From: 2010.05.17/outbox.cif.g08.bks.cpg/sg15_115_cif.got.tgz:228187.got - 2010.06.03 18:47:42.
