data_PCOD9275600
_publ_section_title
;
Structure prediction by ZEFSAII (Michael W. Deem and Ramdas Pophale) SiO2 
 PCOD9275600
Probable space group: C 2/C
;
_chemical_formula_sum "Si O2"
_cell_formula_units_Z 52
_cell_length_a 7.473749
_cell_length_b 12.319201
_cell_length_c 26.510900
_cell_angle_alpha 90.000000
_cell_angle_beta 78.971134
_cell_angle_gamma 90.000000
_cell_volume 2395.794204
_symmetry_space_group_name_H-M "C 2/C"
_symmetry_group_IT_number 15
_symmetry_cell_setting 'monoclinic'
loop_
_space_group_symop_operation_xyz
x,y,z
-x,y,1/2-z
-x,-y,-z
x,-y,1/2+z
1/2+x,1/2+y,z
1/2-x,1/2+y,1/2-z
1/2-x,1/2-y,-z
1/2+x,1/2-y,1/2+z
loop_
_atom_site_type_symbol
_atom_site_label
_atom_site_fract_x
_atom_site_fract_y
_atom_site_fract_z
Si Si1 0.731116 0.052167 0.008396
Si Si2 0.947059 0.140203 0.446742
Si Si3 0.630785 0.043717 0.823987
Si Si4 0.985459 0.376635 0.432230
Si Si5 0.510107 0.450102 0.663231
Si Si6 0.772946 0.398270 0.291612
Si Si7 0.000000 0.200310 0.250000
O O1 0.891093 0.125497 0.021608
O O2 0.626978 0.989183 0.059035
O O3 0.608472 0.116260 0.975606
O O4 0.803202 0.948912 0.972515
O O5 0.020389 0.100206 0.389167
O O6 0.879920 0.263102 0.442936
O O7 0.595767 0.121556 0.873874
O O8 0.734325 0.084508 0.768235
O O9 0.428179 0.028043 0.811178
O O10 0.772768 0.955714 0.837708
O O11 0.416644 0.568438 0.673223
O O12 0.418618 0.377666 0.711836
O O13 0.859173 0.277952 0.287550
#
# Coordination Sequence:
#
# PCOD9275600 Si02
#       7
#     8   8   8   8   8   8   4
#     4  10  23  39  61  90 122 159 203 258 305 360
#     4  11  22  38  63  88 121 163 204 249 312 364
#     4  10  20  39  63  88 123 161 203 255 305 363
#     4  11  21  41  62  88 124 159 204 256 307 361
#     4  12  21  41  65  90 127 164 204 258 307 367
#     4  10  22  40  61  90 127 156 207 259 300 371
#     4  10  22  40  66  90 120 168 204 248 316 370
#
# _framework density 21.704702000000001
#
# number of rings (size 3 to 8) (size 9 to 14) (size 15 to 20)
#    0.000    1.538    3.077    3.692    0.000    0.000 
#    0.000    9.231    0.000    0.000    0.000    0.000 
#    0.000    0.000    0.000    0.000    0.000    0.000 
#
# Total GULP energy -144798.379109 kJ/mol
# GULP energy per Si atom -5569.168427 kJ/mol
# Density = 2.165530 g / cm^3
# Si number density = 21.704702 Si / 1000 Ang^3
#
#
#
# Elastic Constant Matrix: (Units=GPa)
#
#
# Indices 1 2 3 4 5 6 
#
# 1 49.0216 9.4069 0.6377 0.0000 2.4940 0.0000
# 2 9.4069 76.8198 19.3818 0.0000 -1.0437 0.0000
# 3 0.6377 19.3818 92.1413 0.0000 -1.7977 0.0000
# 4 0.0000 0.0000 0.0000 20.8575 0.0000 -5.3470
# 5 2.4940 -1.0437 -1.7977 0.0000 19.8097 0.0000
# 6 0.0000 0.0000 0.0000 -5.3470 0.0000 17.3671
#
#
#
# Elastic Compliance Matrix: (Units=1/GPa)
#
#
# Indices 1 2 3 4 5 6 
#
# 1 0.021055 -0.002709 0.000370 0.000000 -0.002760 0.000000
# 2 -0.002709 0.014100 -0.002931 0.000000 0.000818 0.000000
# 3 0.000370 -0.002931 0.011483 0.000000 0.000841 0.000000
# 4 0.000000 0.000000 0.000000 0.052053 0.000000 0.016026
# 5 -0.002760 0.000818 0.000841 0.000000 0.050947 0.000000
# 6 0.000000 0.000000 0.000000 0.016026 0.000000 0.062514
#
#
# Mechanical properties :
#
#
# Convention : Reuss Voigt Hill
#
# Bulk Modulus (GPa) = 27.70256 30.75951 29.23104
# Shear Modulus (GPa) = 21.30152 24.17725 22.73939
#
# Velocity S-wave (km/s) = 3.13617 3.34116 3.24029
# Velocity P-wave (km/s) = 5.08971 5.39324 5.24367
#
# Compressibility (1/GPa) = 0.03609775
#
# Stress axis : x y z
#
# Youngs Moduli (GPa) = 47.49548 70.92259 87.08286
#
# Poissons Ratio (x) = 0.19214 -0.03225
# Poissons Ratio (y) = 0.12867 0.25526
# Poissons Ratio (z) = -0.01759 0.20789
#
# Static dielectric constant tensor:
#      x y z
#    x 1.866540 0.000000 -0.040000 
#    y 0.000000 1.792900 0.000000 
#    z -0.040000 0.000000 1.795890 
# 
# From -- ./inp_files/287624.got.cif
#   From: 2010.05.17/outbox.cif.g08.bks.cpg/sg15_144_cif.got.tgz:287624.got - 2010.06.03 18:47:42.
