data_PCOD9275807
_publ_section_title
;
Structure prediction by ZEFSAII (Michael W. Deem and Ramdas Pophale) SiO2 
 PCOD9275807
Probable space group: C 2/C
;
_chemical_formula_sum "Si O2"
_cell_formula_units_Z 52
_cell_length_a 18.828351
_cell_length_b 14.134751
_cell_length_c 11.671012
_cell_angle_alpha 90.000000
_cell_angle_beta 50.732880
_cell_angle_gamma 90.000000
_cell_volume 2404.717844
_symmetry_space_group_name_H-M "C 2/C"
_symmetry_group_IT_number 15
_symmetry_cell_setting 'monoclinic'
loop_
_space_group_symop_operation_xyz
x,y,z
-x,y,1/2-z
-x,-y,-z
x,-y,1/2+z
1/2+x,1/2+y,z
1/2-x,1/2+y,1/2-z
1/2-x,1/2-y,-z
1/2+x,1/2-y,1/2+z
loop_
_atom_site_type_symbol
_atom_site_label
_atom_site_fract_x
_atom_site_fract_y
_atom_site_fract_z
Si Si1 0.277897 0.037049 0.264200
Si Si2 0.891605 0.923130 0.721772
Si Si3 0.000000 0.770812 0.750000
Si Si4 0.445615 0.300746 0.475049
Si Si5 0.165249 0.107288 0.599498
Si Si6 0.729104 0.822338 0.287736
Si Si7 0.600472 0.197284 0.430336
O O1 0.208996 0.069857 0.232664
O O2 0.231418 0.067941 0.430951
O O3 0.369687 0.094183 0.142024
O O4 0.285536 0.924475 0.253300
O O5 0.952199 0.894672 0.548758
O O6 0.921526 0.841586 0.780154
O O7 0.894079 0.023380 0.782625
O O8 0.041990 0.708056 0.605681
O O9 0.405436 0.326258 0.394041
O O10 0.364648 0.235634 0.611354
O O11 0.539279 0.245883 0.394772
O O12 0.229141 0.156593 0.628575
O O13 0.808006 0.760299 0.148196
#
# Coordination Sequence:
#
# PCOD9275807 Si02
#       7
#     8   8   4   8   8   8   8
#     4  10  22  40  64  95 129 173 219 267 320 389
#     4   9  19  38  61  90 125 161 213 270 314 378
#     4  10  22  38  62  98 124 170 214 268 332 380
#     4  10  22  40  64  95 133 168 216 273 323 391
#     4  10  20  39  64  97 126 170 220 263 333 385
#     4  11  22  42  67  90 135 177 214 271 322 391
#     4  11  23  42  64  94 133 168 221 268 329 383
#
# _framework density 21.624157
#
# number of rings (size 3 to 8) (size 9 to 14) (size 15 to 20)
#    0.000    1.846    3.077    1.385    0.000    4.308 
#   11.077    9.231    0.000    0.000    0.000    0.000 
#    0.000    0.000    0.000    0.000    0.000    0.000 
#
# Total GULP energy -145212.960038 kJ/mol
# GULP energy per Si atom -5585.113848 kJ/mol
# Density = 2.157494 g / cm^3
# Si number density = 21.624157 Si / 1000 Ang^3
#
#
#
# Elastic Constant Matrix: (Units=GPa)
#
#
# Indices 1 2 3 4 5 6 
#
# 1 42.1545 11.9067 23.2984 0.0000 -0.5896 0.0000
# 2 11.9067 90.9788 42.9959 0.0000 -14.3495 0.0000
# 3 23.2984 42.9959 102.4923 0.0000 2.6246 0.0000
# 4 0.0000 0.0000 0.0000 28.0581 0.0000 -0.0921
# 5 -0.5896 -14.3495 2.6246 0.0000 37.1876 0.0000
# 6 0.0000 0.0000 0.0000 -0.0921 0.0000 20.9119
#
#
#
# Elastic Compliance Matrix: (Units=1/GPa)
#
#
# Indices 1 2 3 4 5 6 
#
# 1 0.027189 -0.000670 -0.005914 0.000000 0.000590 0.000000
# 2 -0.000670 0.015052 -0.006322 0.000000 0.006243 0.000000
# 3 -0.005914 -0.006322 0.013843 0.000000 -0.003510 0.000000
# 4 0.000000 0.000000 0.000000 0.035641 0.000000 0.000157
# 5 0.000590 0.006243 -0.003510 0.000000 0.029557 0.000000
# 6 0.000000 0.000000 0.000000 0.000157 0.000000 0.047820
#
#
# Mechanical properties :
#
#
# Convention : Reuss Voigt Hill
#
# Bulk Modulus (GPa) = 33.03513 43.55861 38.29687
# Shear Modulus (GPa) = 24.38969 27.72648 26.05808
#
# Velocity S-wave (km/s) = 3.36205 3.58467 3.47514
# Velocity P-wave (km/s) = 5.51192 6.10904 5.81815
#
# Compressibility (1/GPa) = 0.03027080
#
# Stress axis : x y z
#
# Youngs Moduli (GPa) = 36.78003 66.43791 72.23761
#
# Poissons Ratio (x) = 0.04452 0.42725
# Poissons Ratio (y) = 0.02465 0.45667
# Poissons Ratio (z) = 0.21753 0.42001
#
# Static dielectric constant tensor:
#      x y z
#    x 1.775840 0.000000 0.004400 
#    y 0.000000 1.794630 0.000000 
#    z 0.004400 0.000000 1.804060 
# 
# From -- ./inp_files/112653.got.cif
#   From: 2010.05.17/outbox.cif.g08.bks.cpg/sg15_57_cif.got.tgz:112653.got - 2010.06.03 18:47:42.
