data_PCOD9275410
_publ_section_title
;
Structure prediction by ZEFSAII (Michael W. Deem and Ramdas Pophale) SiO2 
 PCOD9275410
Probable space group: C 2/C
;
_chemical_formula_sum "Si O2"
_cell_formula_units_Z 48
_cell_length_a 7.690646
_cell_length_b 30.531651
_cell_length_c 16.836037
_cell_angle_alpha 90.000000
_cell_angle_beta 32.304554
_cell_angle_gamma 90.000000
_cell_volume 2112.687700
_symmetry_space_group_name_H-M "C 2/C"
_symmetry_group_IT_number 15
_symmetry_cell_setting 'monoclinic'
loop_
_space_group_symop_operation_xyz
x,y,z
-x,y,1/2-z
-x,-y,-z
x,-y,1/2+z
1/2+x,1/2+y,z
1/2-x,1/2+y,1/2-z
1/2-x,1/2-y,-z
1/2+x,1/2-y,1/2+z
loop_
_atom_site_type_symbol
_atom_site_label
_atom_site_fract_x
_atom_site_fract_y
_atom_site_fract_z
Si Si1 0.590396 0.475948 0.121686
Si Si2 0.762462 0.564292 0.089137
Si Si3 0.474599 0.153565 0.939469
Si Si4 0.344004 0.327127 0.574283
Si Si5 0.339343 0.384557 0.165384
Si Si6 0.183255 0.740145 0.430662
O O1 0.500000 0.475862 0.250000
O O2 0.591142 0.527572 0.099290
O O3 0.389753 0.435869 0.163261
O O4 0.963685 0.461630 0.967885
O O5 0.500000 0.583113 0.250000
O O6 0.947481 0.604147 0.979541
O O7 0.775563 0.148920 0.762913
O O8 0.477891 0.192162 0.002516
O O9 0.132968 0.161166 0.024703
O O10 0.369513 0.365128 0.499126
O O11 0.449076 0.280191 0.497714
O O12 0.000000 0.324487 0.750000
O O13 0.000000 0.380737 0.250000
O O14 0.500000 0.740364 0.250000
O O15 0.250000 0.750000 0.500000
#
# Coordination Sequence:
#
# PCOD9275410 Si02
#       6
#     8   8   8   8   8   8
#     4  10  20  39  61  88 121 162 204 253 312 375
#     4  10  21  35  61  89 122 153 205 260 306 363
#     4  10  20  39  62  86 117 166 208 253 314 378
#     4  10  22  39  58  87 124 158 203 262 315 375
#     4  10  21  41  64  86 125 169 206 256 316 378
#     4  10  20  40  64  86 120 166 208 257 325 380
#
# _framework density 22.719874000000001
#
# number of rings (size 3 to 8) (size 9 to 14) (size 15 to 20)
#    0.000    2.000    1.667    3.000    2.333    0.000 
#    3.000    8.333    0.000    0.000    0.000    0.000 
#    0.000    0.000    0.000    0.000    0.000    0.000 
#
# Total GULP energy -133800.778530 kJ/mol
# GULP energy per Si atom -5575.032439 kJ/mol
# Density = 2.266816 g / cm^3
# Si number density = 22.719874 Si / 1000 Ang^3
#
#
#
# Elastic Constant Matrix: (Units=GPa)
#
#
# Indices 1 2 3 4 5 6 
#
# 1 30.0341 8.1418 -0.6248 0.0000 1.3331 0.0000
# 2 8.1418 158.3618 30.1034 0.0000 16.0116 0.0000
# 3 -0.6248 30.1034 138.5168 0.0000 8.1276 0.0000
# 4 0.0000 0.0000 0.0000 2.6459 0.0000 -10.3964
# 5 1.3331 16.0116 8.1276 0.0000 17.7967 0.0000
# 6 0.0000 0.0000 0.0000 -10.3964 0.0000 19.1818
#
#
#
# Elastic Compliance Matrix: (Units=1/GPa)
#
#
# Indices 1 2 3 4 5 6 
#
# 1 0.033832 -0.001727 0.000602 0.000000 -0.001255 0.000000
# 2 -0.001727 0.007226 -0.001237 0.000000 -0.005807 0.000000
# 3 0.000602 -0.001237 0.007633 0.000000 -0.002418 0.000000
# 4 0.000000 0.000000 0.000000 -0.334579 0.000000 -0.181339
# 5 -0.001255 -0.005807 -0.002418 0.000000 0.062613 0.000000
# 6 0.000000 0.000000 0.000000 -0.181339 0.000000 -0.046151
#
#
# Mechanical properties :
#
#
# Convention : Reuss Voigt Hill
#
# Bulk Modulus (GPa) = 22.74534 44.68372 33.71453
# Shear Modulus (GPa) = -19.99626 27.21104 3.60739
#
# Velocity S-wave (km/s) = -2.96990 3.46450 1.26143
# Velocity P-wave (km/s) = 1.31434 5.97609 4.12226
#
# Compressibility (1/GPa) = 0.04396505
#
# Stress axis : x y z
#
# Youngs Moduli (GPa) = 29.55796 138.39403 131.01290
#
# Poissons Ratio (x) = 0.23898 -0.07881
# Poissons Ratio (y) = 0.05104 0.16212
# Poissons Ratio (z) = -0.01778 0.17125
#
# Static dielectric constant tensor:
#      x y z
#    x 1.975710 0.000000 0.048460 
#    y 0.000000 1.959450 0.000000 
#    z 0.048460 0.000000 1.929450 
# 
# From -- ./inp_files/194147.got.cif
#   From: 2010.05.17/outbox.cif.g08.bks.cpg/sg15_98_cif.got.tgz:194147.got - 2010.06.03 18:47:42.
