data_PCOD9275283
_publ_section_title
;
Structure prediction by ZEFSAII (Michael W. Deem and Ramdas Pophale) SiO2 
 PCOD9275283
Probable space group: C 2/C
;
_chemical_formula_sum "Si O2"
_cell_formula_units_Z 60
_cell_length_a 26.435533
_cell_length_b 9.404648
_cell_length_c 17.836661
_cell_angle_alpha 90.000000
_cell_angle_beta 46.467815
_cell_angle_gamma 90.000000
_cell_volume 3214.953856
_symmetry_space_group_name_H-M "C 2/C"
_symmetry_group_IT_number 15
_symmetry_cell_setting 'monoclinic'
loop_
_space_group_symop_operation_xyz
x,y,z
-x,y,1/2-z
-x,-y,-z
x,-y,1/2+z
1/2+x,1/2+y,z
1/2-x,1/2+y,1/2-z
1/2-x,1/2-y,-z
1/2+x,1/2-y,1/2+z
loop_
_atom_site_type_symbol
_atom_site_label
_atom_site_fract_x
_atom_site_fract_y
_atom_site_fract_z
Si Si1 0.460729 0.144920 0.133323
Si Si2 0.732130 0.930875 0.305089
Si Si3 0.136995 0.949779 0.115692
Si Si4 0.585758 0.138823 0.897478
Si Si5 0.324087 0.660579 0.298215
Si Si6 0.000000 0.768757 0.250000
Si Si7 0.187032 0.272393 0.677158
Si Si8 0.255398 0.565060 0.606690
O O1 0.485946 0.171896 0.192009
O O2 0.387964 0.231858 0.204516
O O3 0.443033 0.982722 0.129004
O O4 0.522253 0.189225 0.014105
O O5 0.648436 0.933719 0.381873
O O6 0.754781 0.790339 0.327120
O O7 0.761311 0.926869 0.190649
O O8 0.769228 0.059123 0.311058
O O9 0.065411 0.872443 0.169678
O O10 0.182551 0.824409 0.108064
O O11 0.134352 0.067439 0.183924
O O12 0.174809 0.022242 0.007219
O O13 0.623710 0.263402 0.813039
O O14 0.279577 0.787128 0.381230
O O15 0.202894 0.435172 0.643485
#
# Coordination Sequence:
#
# PCOD9275283 Si02
#       8
#     8   8   8   8   8   4   8   8
#     4  10  21  41  62  89 119 160 203 246 295 355
#     4  10  21  35  61  94 120 147 203 250 297 356
#     4  10  23  39  56  85 121 159 197 244 298 353
#     4  10  21  38  65  87 125 156 200 244 304 357
#     4  10  21  39  58  91 122 150 195 257 295 355
#     4  10  24  42  58  84 126 160 206 240 290 370
#     4  10  20  39  59  88 117 153 205 250 286 359
#     4  11  19  35  63  83 116 150 195 243 302 344
#
# _framework density 18.662787999999999
#
# number of rings (size 3 to 8) (size 9 to 14) (size 15 to 20)
#    0.000    1.867    2.667    2.400    3.733    0.000 
#    4.800    2.667    0.000    0.000    0.000    0.000 
#    0.000    0.000    0.000    0.000    0.000    0.000 
#
# Total GULP energy -167331.209375 kJ/mol
# GULP energy per Si atom -5577.706979 kJ/mol
# Density = 1.862031 g / cm^3
# Si number density = 18.662788 Si / 1000 Ang^3
#
#
#
# Elastic Constant Matrix: (Units=GPa)
#
#
# Indices 1 2 3 4 5 6 
#
# 1 73.2298 23.7034 14.1571 0.0017 -16.5523 0.0005
# 2 23.7034 73.9203 9.4928 0.0023 -4.3880 0.0008
# 3 14.1571 9.4928 87.1040 0.0020 -17.2632 -0.0001
# 4 0.0017 0.0023 0.0020 21.5894 0.0001 -5.8105
# 5 -16.5523 -4.3880 -17.2632 0.0001 14.7399 -0.0001
# 6 0.0005 0.0008 -0.0001 -5.8105 -0.0001 10.3577
#
#
#
# Elastic Compliance Matrix: (Units=1/GPa)
#
#
# Indices 1 2 3 4 5 6 
#
# 1 0.020333 -0.005374 0.001939 -0.000002 0.023505 -0.000001
# 2 -0.005374 0.015246 -0.001412 -0.000002 -0.003150 -0.000002
# 3 0.001939 -0.001412 0.015194 -0.000002 0.019553 -0.000001
# 4 -0.000002 -0.000002 -0.000002 0.054556 -0.000004 0.030605
# 5 0.023505 -0.003150 0.019553 -0.000004 0.116200 -0.000003
# 6 -0.000001 -0.000002 -0.000001 0.030605 -0.000003 0.113715
#
#
# Mechanical properties :
#
#
# Convention : Reuss Voigt Hill
#
# Bulk Modulus (GPa) = 24.34321 36.55118 30.44719
# Shear Modulus (GPa) = 13.94190 21.79746 17.86968
#
# Velocity S-wave (km/s) = 2.73617 3.42126 3.09771
# Velocity P-wave (km/s) = 4.80148 5.93584 5.39854
#
# Compressibility (1/GPa) = 0.04107922
#
# Stress axis : x y z
#
# Youngs Moduli (GPa) = 49.18126 65.59254 65.81352
#
# Poissons Ratio (x) = 0.35248 -0.12763
# Poissons Ratio (y) = 0.26429 0.09296
# Poissons Ratio (z) = -0.09538 0.09264
#
# Static dielectric constant tensor:
#      x y z
#    x 1.638730 0.000000 -0.002810 
#    y 0.000000 1.645890 0.000000 
#    z -0.002810 0.000000 1.660130 
# 
# From -- ./inp_files/257192.got.cif
#   From: 2010.05.17/outbox.cif.g08.bks.cpg/sg15_129_cif.got.tgz:257192.got - 2010.06.03 18:47:42.
