data_PCOD9275961
_publ_section_title
;
Structure prediction by ZEFSAII (Michael W. Deem and Ramdas Pophale) SiO2 
 PCOD9275961
Probable space group: C 2/C
;
_chemical_formula_sum "Si O2"
_cell_formula_units_Z 44
_cell_length_a 8.725330
_cell_length_b 16.679106
_cell_length_c 13.329292
_cell_angle_alpha 90.000000
_cell_angle_beta 101.583376
_cell_angle_gamma 90.000000
_cell_volume 1900.313975
_symmetry_space_group_name_H-M "C 2/C"
_symmetry_group_IT_number 15
_symmetry_cell_setting 'monoclinic'
loop_
_space_group_symop_operation_xyz
x,y,z
-x,y,1/2-z
-x,-y,-z
x,-y,1/2+z
1/2+x,1/2+y,z
1/2-x,1/2+y,1/2-z
1/2-x,1/2-y,-z
1/2+x,1/2-y,1/2+z
loop_
_atom_site_type_symbol
_atom_site_label
_atom_site_fract_x
_atom_site_fract_y
_atom_site_fract_z
Si Si1 0.423624 0.559991 0.068792
Si Si2 0.349170 0.051726 0.950575
Si Si3 0.335809 0.293080 0.410401
Si Si4 0.286705 0.352732 0.872934
Si Si5 0.000000 0.265176 0.750000
Si Si6 0.005386 0.299102 0.406618
O O1 0.284400 0.510370 0.101122
O O2 0.571572 0.593042 0.150148
O O3 0.500000 0.500000 0.000000
O O4 0.361967 0.632286 0.988914
O O5 0.416464 0.117908 0.883744
O O6 0.282062 0.103364 0.036820
O O7 0.500000 0.000000 0.000000
O O8 0.453498 0.293459 0.333941
O O9 0.153949 0.287787 0.352274
O O10 0.393940 0.213333 0.477055
O O11 0.144001 0.325083 0.786738
O O12 0.376711 0.269155 0.902714
#
# Coordination Sequence:
#
# PCOD9275961 Si02
#       6
#     8   8   8   8   4   8
#     4   9  20  36  65  94 124 158 222 269 308 371
#     4  11  19  36  68  99 119 158 213 281 310 364
#     4  10  21  38  62  98 125 169 214 268 313 384
#     4  10  23  38  62  93 127 170 213 264 311 386
#     4  12  24  38  64  90 140 170 214 258 338 386
#     4  10  20  39  66  92 122 164 235 260 294 378
#
# _framework density 23.154067999999999
#
# number of rings (size 3 to 8) (size 9 to 14) (size 15 to 20)
#    0.000    1.818    3.636    0.545    5.091    0.727 
#    0.000    0.000    8.000   17.455    0.000    0.000 
#    0.000    0.000    0.000    0.000    0.000    0.000 
#
# Total GULP energy -122634.764145 kJ/mol
# GULP energy per Si atom -5574.307461 kJ/mol
# Density = 2.310137 g / cm^3
# Si number density = 23.154068 Si / 1000 Ang^3
#
#
#
# Elastic Constant Matrix: (Units=GPa)
#
#
# Indices 1 2 3 4 5 6 
#
# 1 180.5282 73.7034 26.1636 0.0000 28.8368 0.0000
# 2 73.7034 112.2518 19.5588 0.0000 9.3305 0.0000
# 3 26.1636 19.5588 26.0617 0.0000 -2.0243 0.0000
# 4 0.0000 0.0000 0.0000 3.9770 0.0000 -1.8975
# 5 28.8368 9.3305 -2.0243 0.0000 42.3136 0.0000
# 6 0.0000 0.0000 0.0000 -1.8975 0.0000 62.8671
#
#
#
# Elastic Compliance Matrix: (Units=1/GPa)
#
#
# Indices 1 2 3 4 5 6 
#
# 1 0.009156 -0.004456 -0.006280 0.000000 -0.005558 0.000000
# 2 -0.004456 0.012719 -0.005073 0.000000 -0.000011 0.000000
# 3 -0.006280 -0.005073 0.049084 0.000000 0.007747 0.000000
# 4 0.000000 0.000000 0.000000 0.255119 0.000000 0.007700
# 5 -0.005558 -0.000011 0.007747 0.000000 0.027794 0.000000
# 6 0.000000 0.000000 0.000000 0.007700 0.000000 0.016139
#
#
# Mechanical properties :
#
#
# Convention : Reuss Voigt Hill
#
# Bulk Modulus (GPa) = 25.41821 61.96590 43.69205
# Shear Modulus (GPa) = 12.05568 35.12592 23.59080
#
# Velocity S-wave (km/s) = 2.28430 3.89916 3.19542
# Velocity P-wave (km/s) = 4.23781 6.86235 5.70311
#
# Compressibility (1/GPa) = 0.03934188
#
# Stress axis : x y z
#
# Youngs Moduli (GPa) = 109.21330 78.62271 20.37331
#
# Poissons Ratio (x) = 0.35033 0.12794
# Poissons Ratio (y) = 0.48663 0.10335
# Poissons Ratio (z) = 0.68585 0.39885
#
# Static dielectric constant tensor:
#      x y z
#    x 2.087790 0.000000 0.003770 
#    y 0.000000 1.904440 0.000000 
#    z 0.003770 0.000000 1.932190 
# 
# From -- ./inp_files/134510.got.cif
#   From: 2010.05.17/outbox.cif.g08.bks.cpg/sg15_68_cif.got.tgz:134510.got - 2010.06.03 18:47:42.
