data_PCOD9275617
_publ_section_title
;
Structure prediction by ZEFSAII (Michael W. Deem and Ramdas Pophale) SiO2 
 PCOD9275617
Probable space group: C 2/C
;
_chemical_formula_sum "Si O2"
_cell_formula_units_Z 48
_cell_length_a 30.276786
_cell_length_b 9.512803
_cell_length_c 17.061929
_cell_angle_alpha 90.000000
_cell_angle_beta 29.969392
_cell_angle_gamma 90.000000
_cell_volume 2454.789840
_symmetry_space_group_name_H-M "C 2/C"
_symmetry_group_IT_number 15
_symmetry_cell_setting 'monoclinic'
loop_
_space_group_symop_operation_xyz
x,y,z
-x,y,1/2-z
-x,-y,-z
x,-y,1/2+z
1/2+x,1/2+y,z
1/2-x,1/2+y,1/2-z
1/2-x,1/2-y,-z
1/2+x,1/2-y,1/2+z
loop_
_atom_site_type_symbol
_atom_site_label
_atom_site_fract_x
_atom_site_fract_y
_atom_site_fract_z
Si Si1 0.585028 0.004444 0.811747
Si Si2 0.150708 0.232720 0.120560
Si Si3 0.505823 0.526343 0.336228
Si Si4 0.155213 0.782344 0.426410
Si Si5 0.990971 0.706176 0.357766
Si Si6 0.323389 0.026612 0.674992
O O1 0.572867 0.871985 0.773745
O O2 0.592430 0.142609 0.747550
O O3 0.666107 0.011693 0.747298
O O4 0.500000 0.000000 0.000000
O O5 0.100794 0.086425 0.215994
O O6 0.250000 0.250000 0.000000
O O7 0.148198 0.242569 0.030554
O O8 0.500000 0.521725 0.250000
O O9 0.431825 0.640369 0.472311
O O10 0.486535 0.367857 0.391952
O O11 0.234970 0.890535 0.290761
O O12 0.171899 0.630678 0.364248
O O13 0.904223 0.619445 0.516774
O O14 0.000000 0.701234 0.250000
#
# Coordination Sequence:
#
# PCOD9275617 Si02
#       6
#     8   8   8   8   8   8
#     4  10  21  38  60  90 125 159 205 261 314 375
#     4  11  21  41  65  89 124 166 210 258 321 386
#     4   9  20  37  62  87 115 160 205 252 306 380
#     4  11  22  40  64  89 125 169 214 257 323 382
#     4  10  20  39  63  89 124 162 209 260 323 380
#     4  11  22  38  59  90 123 163 207 268 316 380
#
# _framework density 19.553609000000002
#
# number of rings (size 3 to 8) (size 9 to 14) (size 15 to 20)
#    0.000    1.667    1.667    4.000    0.000    1.333 
#    3.000    5.000    0.000    0.000    0.000    0.000 
#    0.000    0.000    0.000    0.000    0.000    0.000 
#
# Total GULP energy -133928.604964 kJ/mol
# GULP energy per Si atom -5580.358540 kJ/mol
# Density = 1.950910 g / cm^3
# Si number density = 19.553609 Si / 1000 Ang^3
#
#
#
# Elastic Constant Matrix: (Units=GPa)
#
#
# Indices 1 2 3 4 5 6 
#
# 1 64.6550 48.1998 23.5419 0.0000 -9.0027 0.0000
# 2 48.1998 186.0776 51.1684 0.0000 -6.7173 0.0000
# 3 23.5419 51.1684 65.7016 0.0001 -12.3375 0.0000
# 4 0.0000 0.0000 0.0001 36.2887 0.0000 0.0708
# 5 -9.0027 -6.7173 -12.3375 0.0000 34.9638 0.0000
# 6 0.0000 0.0000 0.0000 0.0708 0.0000 17.3115
#
#
#
# Elastic Compliance Matrix: (Units=1/GPa)
#
#
# Indices 1 2 3 4 5 6 
#
# 1 0.020284 -0.004207 -0.003388 0.000000 0.003219 0.000000
# 2 -0.004207 0.007723 -0.004747 0.000000 -0.001274 0.000000
# 3 -0.003388 -0.004747 0.021201 0.000000 0.005697 0.000000
# 4 0.000000 0.000000 0.000000 0.027557 0.000000 -0.000113
# 5 0.003219 -0.001274 0.005697 0.000000 0.031195 0.000000
# 6 0.000000 0.000000 0.000000 -0.000113 0.000000 0.057765
#
#
# Mechanical properties :
#
#
# Convention : Reuss Voigt Hill
#
# Bulk Modulus (GPa) = 40.77252 62.47272 51.62262
# Shear Modulus (GPa) = 25.17840 30.61441 27.89641
#
# Velocity S-wave (km/s) = 3.59229 3.96114 3.78122
# Velocity P-wave (km/s) = 6.17276 7.27597 6.74695
#
# Compressibility (1/GPa) = 0.02452633
#
# Stress axis : x y z
#
# Youngs Moduli (GPa) = 49.29889 129.48372 47.16843
#
# Poissons Ratio (x) = 0.54468 0.15979
# Poissons Ratio (y) = 0.20738 0.22389
# Poissons Ratio (z) = 0.16701 0.61462
#
# Static dielectric constant tensor:
#      x y z
#    x 1.706390 0.000000 -0.022680 
#    y 0.000000 1.672900 0.000000 
#    z -0.022680 0.000000 1.727040 
# 
# From -- ./inp_files/208967.got.cif
#   From: 2010.05.17/outbox.cif.g08.bks.cpg/sg15_105_cif.got.tgz:208967.got - 2010.06.03 18:47:42.
