data_PCOD9275694
_publ_section_title
;
Structure prediction by ZEFSAII (Michael W. Deem and Ramdas Pophale) SiO2 
 PCOD9275694
Probable space group: C 2/C
;
_chemical_formula_sum "Si O2"
_cell_formula_units_Z 44
_cell_length_a 14.935858
_cell_length_b 8.393724
_cell_length_c 15.100785
_cell_angle_alpha 90.000000
_cell_angle_beta 101.623965
_cell_angle_gamma 90.000000
_cell_volume 1854.320763
_symmetry_space_group_name_H-M "C 2/C"
_symmetry_group_IT_number 15
_symmetry_cell_setting 'monoclinic'
loop_
_space_group_symop_operation_xyz
x,y,z
-x,y,1/2-z
-x,-y,-z
x,-y,1/2+z
1/2+x,1/2+y,z
1/2-x,1/2+y,1/2-z
1/2-x,1/2-y,-z
1/2+x,1/2-y,1/2+z
loop_
_atom_site_type_symbol
_atom_site_label
_atom_site_fract_x
_atom_site_fract_y
_atom_site_fract_z
Si Si1 0.157314 0.674390 0.104125
Si Si2 0.000000 0.762605 0.750000
Si Si3 0.337763 0.872822 0.107886
Si Si4 0.876445 0.683920 0.865548
Si Si5 0.192248 0.258909 0.897301
Si Si6 0.524229 0.342876 0.450778
O O1 0.254698 0.766262 0.131370
O O2 0.127949 0.508307 0.145109
O O3 0.071109 0.785429 0.106914
O O4 0.158220 0.644856 0.997564
O O5 0.065880 0.674222 0.832028
O O6 0.077605 0.808627 0.694270
O O7 0.329055 0.058883 0.124047
O O8 0.768305 0.712814 0.843087
O O9 0.929571 0.721380 0.968572
O O10 0.103915 0.147586 0.892810
O O11 0.250000 0.250000 0.000000
O O12 0.500000 0.500000 0.500000
#
# Coordination Sequence:
#
# PCOD9275694 Si02
#       6
#     8   4   8   8   8   8
#     4  11  21  40  68  97 121 173 229 263 318 398
#     4  12  26  42  62  96 140 176 210 276 356 392
#     4  11  23  40  67  96 130 173 218 274 330 399
#     4  11  23  40  66  95 135 170 217 276 330 398
#     4  10  20  39  63  97 126 162 222 275 315 383
#     4  11  21  36  65 100 126 165 222 280 317 381
#
# _framework density 23.728363999999999
#
# number of rings (size 3 to 8) (size 9 to 14) (size 15 to 20)
#    0.000    1.091    5.455    3.818    2.545    1.455 
#    0.000    0.000    0.000    6.545    0.000    0.000 
#    0.000    0.000    0.000    0.000    0.000    0.000 
#
# Total GULP energy -122527.043973 kJ/mol
# GULP energy per Si atom -5569.411090 kJ/mol
# Density = 2.367436 g / cm^3
# Si number density = 23.728364 Si / 1000 Ang^3
#
#
#
# Elastic Constant Matrix: (Units=GPa)
#
#
# Indices 1 2 3 4 5 6 
#
# 1 184.2129 36.0601 0.2041 0.0000 -4.3348 0.0000
# 2 36.0601 71.3221 -15.1505 0.0000 12.5209 0.0000
# 3 0.2041 -15.1505 51.3442 0.0000 -10.4673 0.0000
# 4 0.0000 0.0000 0.0000 -10.9000 0.0000 -3.1093
# 5 -4.3348 12.5209 -10.4673 0.0000 23.2708 0.0000
# 6 0.0000 0.0000 0.0000 -3.1093 0.0000 25.8148
#
#
#
# Elastic Compliance Matrix: (Units=1/GPa)
#
#
# Indices 1 2 3 4 5 6 
#
# 1 0.006240 -0.003789 -0.000540 0.000000 0.002958 0.000000
# 2 -0.003789 0.018264 0.003586 0.000000 -0.008920 0.000000
# 3 -0.000540 0.003586 0.022154 0.000000 0.007935 0.000000
# 4 0.000000 0.000000 0.000000 -0.088696 0.000000 -0.010683
# 5 0.002958 -0.008920 0.007935 0.000000 0.051892 0.000000
# 6 0.000000 0.000000 0.000000 -0.010683 0.000000 0.037451
#
#
# Mechanical properties :
#
#
# Convention : Reuss Voigt Hill
#
# Bulk Modulus (GPa) = 22.13700 38.78960 30.46330
# Shear Modulus (GPa) = 78.30854 26.68816 52.49835
#
# Velocity S-wave (km/s) = 5.75098 3.35735 4.70880
# Velocity P-wave (km/s) = 7.31081 5.60463 6.51382
#
# Compressibility (1/GPa) = 0.04517325
#
# Stress axis : x y z
#
# Youngs Moduli (GPa) = 160.24480 54.75137 45.13785
#
# Poissons Ratio (x) = 0.20746 0.02436
# Poissons Ratio (y) = 0.60719 -0.16186
# Poissons Ratio (z) = 0.08650 -0.19634
#
# Static dielectric constant tensor:
#      x y z
#    x 1.941840 0.000000 -0.163760 
#    y 0.000000 1.961290 0.000000 
#    z -0.163760 0.000000 1.999060 
# 
# From -- ./inp_files/202726.got.cif
#   From: 2010.05.17/outbox.cif.g08.bks.cpg/sg15_102_cif.got.tgz:202726.got - 2010.06.03 18:47:42.
