data_PCOD9275158
_publ_section_title
;
Structure prediction by ZEFSAII (Michael W. Deem and Ramdas Pophale) SiO2 
 PCOD9275158
Probable space group: C 2/C
;
_chemical_formula_sum "Si O2"
_cell_formula_units_Z 44
_cell_length_a 28.012736
_cell_length_b 12.517891
_cell_length_c 16.460272
_cell_angle_alpha 90.000000
_cell_angle_beta 158.901655
_cell_angle_gamma 90.000000
_cell_volume 2077.733489
_symmetry_space_group_name_H-M "C 2/C"
_symmetry_group_IT_number 15
_symmetry_cell_setting 'monoclinic'
loop_
_space_group_symop_operation_xyz
x,y,z
-x,y,1/2-z
-x,-y,-z
x,-y,1/2+z
1/2+x,1/2+y,z
1/2-x,1/2+y,1/2-z
1/2-x,1/2-y,-z
1/2+x,1/2-y,1/2+z
loop_
_atom_site_type_symbol
_atom_site_label
_atom_site_fract_x
_atom_site_fract_y
_atom_site_fract_z
Si Si1 0.135398 0.935230 0.703856
Si Si2 0.607944 0.104535 0.805015
Si Si3 0.000000 0.785093 0.750000
Si Si4 0.532545 0.232822 0.056715
Si Si5 0.693223 0.623729 0.686823
Si Si6 0.009141 0.626150 0.355968
O O1 0.079728 0.818990 0.598635
O O2 0.202764 0.004855 0.740256
O O3 0.236797 0.925904 0.940317
O O4 0.000000 0.000000 0.500000
O O5 0.587366 0.203389 0.834516
O O6 0.541632 0.145277 0.616839
O O7 0.530439 0.998025 0.707430
O O8 0.914682 0.857455 0.554109
O O9 0.644335 0.294274 0.180590
O O10 0.578837 0.181309 0.214384
O O11 0.837302 0.643327 0.879625
O O12 0.000000 0.668772 0.250000
#
# Coordination Sequence:
#
# PCOD9275158 Si02
#       6
#     8   8   4   8   8   8
#     4  10  20  39  60  88 127 163 208 270 315 375
#     4  11  20  41  65  92 123 169 223 262 319 383
#     4  10  20  38  70  88 118 170 218 272 300 382
#     4  10  24  40  66  95 125 174 220 266 320 388
#     4  10  22  41  64  97 130 166 224 266 323 377
#     4  12  23  40  65  95 135 171 209 272 326 388
#
# _framework density 21.176922000000001
#
# number of rings (size 3 to 8) (size 9 to 14) (size 15 to 20)
#    0.000    1.455    2.727    2.182    0.000    5.091 
#    1.636    0.000    0.000    0.000    0.000    0.000 
#    0.000    0.000    0.000    0.000    0.000    0.000 
#
# Total GULP energy -122695.366213 kJ/mol
# GULP energy per Si atom -5577.062101 kJ/mol
# Density = 2.112872 g / cm^3
# Si number density = 21.176922 Si / 1000 Ang^3
#
#
#
# Elastic Constant Matrix: (Units=GPa)
#
#
# Indices 1 2 3 4 5 6 
#
# 1 58.4419 25.9974 -17.4237 0.0000 -13.4568 0.0000
# 2 25.9974 54.3526 28.3281 0.0000 -3.3955 0.0000
# 3 -17.4237 28.3281 54.1435 0.0000 7.7782 0.0000
# 4 0.0000 0.0000 0.0000 59.5954 0.0000 11.0424
# 5 -13.4568 -3.3955 7.7782 0.0000 30.8455 0.0000
# 6 0.0000 0.0000 0.0000 11.0424 0.0000 24.9836
#
#
#
# Elastic Compliance Matrix: (Units=1/GPa)
#
#
# Indices 1 2 3 4 5 6 
#
# 1 0.047652 -0.040953 0.035716 0.000000 0.007274 0.000000
# 2 -0.040953 0.061752 -0.045547 0.000000 0.000417 0.000000
# 3 0.035716 -0.045547 0.054240 0.000000 -0.003110 0.000000
# 4 0.000000 0.000000 0.000000 0.018277 0.000000 -0.008078
# 5 0.007274 0.000417 -0.003110 0.000000 0.036423 0.000000
# 6 0.000000 0.000000 0.000000 -0.008078 0.000000 0.043597
#
#
# Mechanical properties :
#
#
# Convention : Reuss Voigt Hill
#
# Bulk Modulus (GPa) = 16.10932 26.74907 21.42919
# Shear Modulus (GPa) = 13.01403 31.75398 22.38401
#
# Velocity S-wave (km/s) = 2.48168 3.87649 3.25468
# Velocity P-wave (km/s) = 3.97934 5.71794 4.92595
#
# Compressibility (1/GPa) = 0.06207588
#
# Stress axis : x y z
#
# Youngs Moduli (GPa) = 20.98549 16.19390 18.43642
#
# Poissons Ratio (x) = 0.66319 -0.65848
# Poissons Ratio (y) = 0.85942 0.83973
# Poissons Ratio (z) = -0.74953 0.73759
#
# Static dielectric constant tensor:
#      x y z
#    x 1.814810 0.000000 0.019380 
#    y 0.000000 1.795010 0.000000 
#    z 0.019380 0.000000 1.794000 
# 
# From -- ./inp_files/142252.got.cif
#   From: 2010.05.17/outbox.cif.g08.bks.cpg/sg15_72_cif.got.tgz:142252.got - 2010.06.03 18:47:42.
