data_PCOD9275668
_publ_section_title
;
Structure prediction by ZEFSAII (Michael W. Deem and Ramdas Pophale) SiO2 
 PCOD9275668
Probable space group: C 2/C
;
_chemical_formula_sum "Si O2"
_cell_formula_units_Z 40
_cell_length_a 24.903289
_cell_length_b 6.279466
_cell_length_c 12.176031
_cell_angle_alpha 90.000000
_cell_angle_beta 66.595307
_cell_angle_gamma 90.000000
_cell_volume 1747.416185
_symmetry_space_group_name_H-M "C 2/C"
_symmetry_group_IT_number 15
_symmetry_cell_setting 'monoclinic'
loop_
_space_group_symop_operation_xyz
x,y,z
-x,y,1/2-z
-x,-y,-z
x,-y,1/2+z
1/2+x,1/2+y,z
1/2-x,1/2+y,1/2-z
1/2-x,1/2-y,-z
1/2+x,1/2-y,1/2+z
loop_
_atom_site_type_symbol
_atom_site_label
_atom_site_fract_x
_atom_site_fract_y
_atom_site_fract_z
Si Si1 0.910777 0.573938 0.572453
Si Si2 0.276364 0.408066 0.388234
Si Si3 0.692927 0.780055 0.860390
Si Si4 0.991160 0.188586 0.418457
Si Si5 0.886196 0.038182 0.932766
O O1 0.850015 0.464155 0.650129
O O2 0.951757 0.380268 0.499141
O O3 0.899393 0.737265 0.481223
O O4 0.945239 0.700701 0.639886
O O5 0.250000 0.250000 0.500000
O O6 0.272831 0.310983 0.270207
O O7 0.236975 0.617273 0.411498
O O8 0.344479 0.440425 0.362111
O O9 0.652947 0.601196 0.950622
O O10 0.948113 0.080230 0.364827
O O11 0.000000 0.000000 0.500000
#
# Coordination Sequence:
#
# PCOD9275668 Si02
#       5
#     8   8   8   8   8
#     4   9  17  36  62  93 124 163 211 264 326 380
#     4  12  24  42  63  93 128 171 219 264 332 392
#     4  11  24  40  63  94 128 167 214 274 322 394
#     4   8  16  32  64  92 122 167 207 261 329 379
#     4  10  20  39  63  93 126 169 210 263 327 391
#
# _framework density 22.890941000000002
#
# number of rings (size 3 to 8) (size 9 to 14) (size 15 to 20)
#    0.000    2.000    2.000    1.800    0.000    0.000 
#    0.000    0.000    0.000   55.200    0.000    0.000 
#    0.000    0.000    0.000    0.000    0.000    0.000 
#
# Total GULP energy -111662.541617 kJ/mol
# GULP energy per Si atom -5583.127081 kJ/mol
# Density = 2.283884 g / cm^3
# Si number density = 22.890941 Si / 1000 Ang^3
#
#
#
# Elastic Constant Matrix: (Units=GPa)
#
#
# Indices 1 2 3 4 5 6 
#
# 1 153.0585 61.0708 12.5179 0.0000 17.5934 0.0000
# 2 61.0708 133.7941 32.4797 0.0000 5.8160 0.0000
# 3 12.5179 32.4797 62.0494 0.0000 1.1666 0.0000
# 4 0.0000 0.0000 0.0000 25.5564 0.0000 6.9861
# 5 17.5934 5.8160 1.1666 0.0000 23.1193 0.0000
# 6 0.0000 0.0000 0.0000 6.9861 0.0000 58.6454
#
#
#
# Elastic Compliance Matrix: (Units=1/GPa)
#
#
# Indices 1 2 3 4 5 6 
#
# 1 0.008670 -0.003795 0.000344 0.000000 -0.005661 0.000000
# 2 -0.003795 0.010310 -0.004641 0.000000 0.000528 0.000000
# 3 0.000344 -0.004641 0.018477 0.000000 -0.000026 0.000000
# 4 0.000000 0.000000 0.000000 0.040446 0.000000 -0.004818
# 5 -0.005661 0.000528 -0.000026 0.000000 0.047430 0.000000
# 6 0.000000 0.000000 0.000000 -0.004818 0.000000 0.017626
#
#
# Mechanical properties :
#
#
# Convention : Reuss Voigt Hill
#
# Bulk Modulus (GPa) = 47.00937 62.33763 54.67350
# Shear Modulus (GPa) = 30.07804 37.65312 33.86558
#
# Velocity S-wave (km/s) = 3.62881 4.06013 3.85051
# Velocity P-wave (km/s) = 6.17564 7.01934 6.61096
#
# Compressibility (1/GPa) = 0.02127236
#
# Stress axis : x y z
#
# Youngs Moduli (GPa) = 115.33792 96.99240 54.12210
#
# Poissons Ratio (x) = 0.36808 -0.01860
# Poissons Ratio (y) = 0.43770 0.25119
# Poissons Ratio (z) = -0.03965 0.45016
#
# Static dielectric constant tensor:
#      x y z
#    x 1.926010 0.000000 0.005520 
#    y 0.000000 1.868320 0.000000 
#    z 0.005520 0.000000 1.821190 
# 
# From -- ./inp_files/120749.got.cif
#   From: 2010.05.17/outbox.cif.g08.bks.cpg/sg15_61_cif.got.tgz:120749.got - 2010.06.03 18:47:42.
