data_PCOD9275504
_publ_section_title
;
Structure prediction by ZEFSAII (Michael W. Deem and Ramdas Pophale) SiO2 
 PCOD9275504
Probable space group: C 2/C
;
_chemical_formula_sum "Si O2"
_cell_formula_units_Z 60
_cell_length_a 21.601249
_cell_length_b 24.770046
_cell_length_c 5.541381
_cell_angle_alpha 90.000000
_cell_angle_beta 113.406649
_cell_angle_gamma 90.000000
_cell_volume 2720.999467
_symmetry_space_group_name_H-M "C 2/C"
_symmetry_group_IT_number 15
_symmetry_cell_setting 'monoclinic'
loop_
_space_group_symop_operation_xyz
x,y,z
-x,y,1/2-z
-x,-y,-z
x,-y,1/2+z
1/2+x,1/2+y,z
1/2-x,1/2+y,1/2-z
1/2-x,1/2-y,-z
1/2+x,1/2-y,1/2+z
loop_
_atom_site_type_symbol
_atom_site_label
_atom_site_fract_x
_atom_site_fract_y
_atom_site_fract_z
Si Si1 0.500000 0.354972 0.750000
Si Si2 0.790467 0.971900 0.147704
Si Si3 0.709693 0.240438 0.683850
Si Si4 0.921895 0.552385 0.122250
Si Si5 0.760054 0.374568 0.160500
Si Si6 0.369995 0.932204 0.043800
Si Si7 0.567954 0.567656 0.745706
Si Si8 0.374083 0.661237 0.321790
O O1 0.461432 0.393485 0.504373
O O2 0.558337 0.322173 0.711850
O O3 0.756162 0.914501 0.144601
O O4 0.872190 0.968208 0.267286
O O5 0.771765 0.004365 0.360559
O O6 0.750000 0.250000 0.500000
O O7 0.697155 0.176625 0.685121
O O8 0.652172 0.285818 0.583796
O O9 0.750000 0.250000 0.000000
O O10 0.876607 0.497758 0.046543
O O11 0.900144 0.583524 0.330870
O O12 0.000000 0.535457 0.250000
O O13 0.912060 0.581613 0.851837
O O14 0.799370 0.405521 0.008112
O O15 0.686978 0.356899 0.946430
O O16 0.500000 0.540762 0.750000
O O17 0.604320 0.608575 0.990836
#
# Coordination Sequence:
#
# PCOD9275504 Si02
#       8
#     4   8   8   8   8   8   8   8
#     4  10  20  40  70  98 124 180 234 272 348 410
#     4  12  27  40  61  91 135 183 224 283 331 382
#     4  10  23  41  69  97 124 167 209 270 345 410
#     4  10  20  39  62  89 121 176 223 260 314 392
#     4  11  24  43  64  99 138 171 228 279 345 404
#     4  10  21  33  61  90 122 164 217 266 317 378
#     4  10  22  41  66  93 130 176 233 280 339 406
#     4  10  21  42  70  96 132 175 221 286 340 417
#
# _framework density 22.050723000000001
#
# number of rings (size 3 to 8) (size 9 to 14) (size 15 to 20)
#    0.000    1.600    1.333    3.600    7.467    4.800 
#    0.000    0.000    4.400    0.800    0.000    0.000 
#    0.000    0.000    0.000    0.000    0.000    0.000 
#
# Total GULP energy -167508.992472 kJ/mol
# GULP energy per Si atom -5583.633082 kJ/mol
# Density = 2.200053 g / cm^3
# Si number density = 22.050723 Si / 1000 Ang^3
#
#
#
# Elastic Constant Matrix: (Units=GPa)
#
#
# Indices 1 2 3 4 5 6 
#
# 1 151.4313 45.9041 47.9593 0.0000 -18.3108 0.0000
# 2 45.9041 79.6201 25.7228 0.0000 -4.4740 0.0000
# 3 47.9593 25.7228 112.7381 0.0000 -20.6473 0.0000
# 4 0.0000 0.0000 0.0000 13.9726 0.0000 -7.8916
# 5 -18.3108 -4.4740 -20.6473 0.0000 38.6930 0.0000
# 6 0.0000 0.0000 0.0000 -7.8916 0.0000 36.8973
#
#
#
# Elastic Compliance Matrix: (Units=1/GPa)
#
#
# Indices 1 2 3 4 5 6 
#
# 1 0.008945 -0.004248 -0.002384 0.000000 0.002470 0.000000
# 2 -0.004248 0.015577 -0.001979 0.000000 -0.001265 0.000000
# 3 -0.002384 -0.001979 0.011180 0.000000 0.004609 0.000000
# 4 0.000000 0.000000 0.000000 0.081402 0.000000 0.017410
# 5 0.002470 -0.001265 0.004609 0.000000 0.029326 0.000000
# 6 0.000000 0.000000 0.000000 0.017410 0.000000 0.030826
#
#
# Mechanical properties :
#
#
# Convention : Reuss Voigt Hill
#
# Bulk Modulus (GPa) = 54.11021 64.77353 59.44187
# Shear Modulus (GPa) = 24.92062 32.85946 28.89004
#
# Velocity S-wave (km/s) = 3.36542 3.86447 3.62354
# Velocity P-wave (km/s) = 6.30029 7.02501 6.67249
#
# Compressibility (1/GPa) = 0.01848080
#
# Stress axis : x y z
#
# Youngs Moduli (GPa) = 111.79405 64.19682 89.44831
#
# Poissons Ratio (x) = 0.27273 0.21321
# Poissons Ratio (y) = 0.47493 0.17698
# Poissons Ratio (z) = 0.26647 0.12702
#
# Static dielectric constant tensor:
#      x y z
#    x 1.859780 0.000000 0.017280 
#    y 0.000000 1.822660 0.000000 
#    z 0.017280 0.000000 1.838380 
# 
# From -- ./inp_files/14309.got.cif
#   From: 2010.05.17/outbox.cif.g08.bks.cpg/sg15_8_cif.got.tgz:14309.got - 2010.06.03 18:47:42.
