data_PCOD9275462
_publ_section_title
;
Structure prediction by ZEFSAII (Michael W. Deem and Ramdas Pophale) SiO2 
 PCOD9275462
Probable space group: C 2/C
;
_chemical_formula_sum "Si O2"
_cell_formula_units_Z 40
_cell_length_a 17.157700
_cell_length_b 11.134417
_cell_length_c 11.163010
_cell_angle_alpha 90.000000
_cell_angle_beta 115.540738
_cell_angle_gamma 90.000000
_cell_volume 1924.193287
_symmetry_space_group_name_H-M "C 2/C"
_symmetry_group_IT_number 15
_symmetry_cell_setting 'monoclinic'
loop_
_space_group_symop_operation_xyz
x,y,z
-x,y,1/2-z
-x,-y,-z
x,-y,1/2+z
1/2+x,1/2+y,z
1/2-x,1/2+y,1/2-z
1/2-x,1/2-y,-z
1/2+x,1/2-y,1/2+z
loop_
_atom_site_type_symbol
_atom_site_label
_atom_site_fract_x
_atom_site_fract_y
_atom_site_fract_z
Si Si1 0.958851 0.044556 0.597192
Si Si2 0.000000 0.276702 0.750000
Si Si3 0.614542 0.032829 0.211302
Si Si4 0.779894 0.070603 0.926862
Si Si5 0.144757 0.309552 0.517036
Si Si6 0.000000 0.669725 0.750000
O O1 0.000000 0.995929 0.750000
O O2 0.977393 0.186845 0.626271
O O3 0.858241 0.010750 0.523928
O O4 0.000000 0.000000 0.500000
O O5 0.079982 0.363503 0.776594
O O6 0.604703 0.090251 0.075276
O O7 0.713941 0.000378 0.299622
O O8 0.557456 0.916731 0.203055
O O9 0.819086 0.191677 0.893516
O O10 0.720988 0.124254 0.994890
O O11 0.070984 0.264202 0.376839
#
# Coordination Sequence:
#
# PCOD9275462 Si02
#       6
#     8   4   8   8   8   4
#     4  10  23  41  64  91 127 165 214 262 319 376
#     4   9  22  39  62  96 120 167 210 255 318 376
#     4  10  20  39  62  85 129 157 212 257 318 378
#     4  10  23  38  60  92 120 165 209 261 317 374
#     4  10  21  38  60  90 126 159 212 257 315 381
#     4   9  20  37  60  92 118 171 200 261 316 378
#
# _framework density 20.787932000000001
#
# number of rings (size 3 to 8) (size 9 to 14) (size 15 to 20)
#    0.600    1.600    0.000    1.800    4.200    0.800 
#    0.000    6.000    0.000    0.000    0.000    0.000 
#    0.000    0.000    0.000    0.000    0.000    0.000 
#
# Total GULP energy -111525.922066 kJ/mol
# GULP energy per Si atom -5576.296103 kJ/mol
# Density = 2.074062 g / cm^3
# Si number density = 20.787932 Si / 1000 Ang^3
#
#
#
# Elastic Constant Matrix: (Units=GPa)
#
#
# Indices 1 2 3 4 5 6 
#
# 1 74.1082 6.8664 41.1363 0.0000 22.7120 0.0000
# 2 6.8664 57.0838 19.6916 0.0000 13.0306 0.0000
# 3 41.1363 19.6916 92.6987 0.0000 26.6861 0.0000
# 4 0.0000 0.0000 0.0000 22.7482 0.0000 10.4208
# 5 22.7120 13.0306 26.6861 0.0000 45.6118 0.0000
# 6 0.0000 0.0000 0.0000 10.4208 0.0000 11.0983
#
#
#
# Elastic Compliance Matrix: (Units=1/GPa)
#
#
# Indices 1 2 3 4 5 6 
#
# 1 0.019073 0.001475 -0.007121 0.000000 -0.005752 0.000000
# 2 0.001475 0.019542 -0.003592 0.000000 -0.004216 0.000000
# 3 -0.007121 -0.003592 0.016108 0.000000 -0.004852 0.000000
# 4 0.000000 0.000000 0.000000 0.077139 0.000000 -0.072430
# 5 -0.005752 -0.004216 -0.004852 0.000000 0.028831 0.000000
# 6 0.000000 0.000000 0.000000 -0.072430 0.000000 0.158113
#
#
# Mechanical properties :
#
#
# Convention : Reuss Voigt Hill
#
# Bulk Modulus (GPa) = 27.58906 39.91992 33.75449
# Shear Modulus (GPa) = 14.31169 26.30475 20.30822
#
# Velocity S-wave (km/s) = 2.62670 3.56108 3.12897
# Velocity P-wave (km/s) = 4.74341 6.01278 5.41541
#
# Compressibility (1/GPa) = 0.03624625
#
# Stress axis : x y z
#
# Youngs Moduli (GPa) = 52.43036 51.17138 62.08219
#
# Poissons Ratio (x) = -0.07550 0.44211
# Poissons Ratio (y) = -0.07736 0.22302
# Poissons Ratio (z) = 0.37337 0.18383
#
# Static dielectric constant tensor:
#      x y z
#    x 1.765490 0.000000 -0.028180 
#    y 0.000000 1.756760 0.000000 
#    z -0.028180 0.000000 1.740480 
# 
# From -- ./inp_files/103975.got.cif
#   From: 2010.05.17/outbox.cif.g08.bks.cpg/sg15_52_cif.got.tgz:103975.got - 2010.06.03 18:47:42.
