data_PCOD9275029
_publ_section_title
;
Structure prediction by ZEFSAII (Michael W. Deem and Ramdas Pophale) SiO2 
 PCOD9275029
Probable space group: C 2/C
;
_chemical_formula_sum "Si O2"
_cell_formula_units_Z 52
_cell_length_a 28.089628
_cell_length_b 8.043266
_cell_length_c 12.470479
_cell_angle_alpha 90.000000
_cell_angle_beta 55.128123
_cell_angle_gamma 90.000000
_cell_volume 2311.556260
_symmetry_space_group_name_H-M "C 2/C"
_symmetry_group_IT_number 15
_symmetry_cell_setting 'monoclinic'
loop_
_space_group_symop_operation_xyz
x,y,z
-x,y,1/2-z
-x,-y,-z
x,-y,1/2+z
1/2+x,1/2+y,z
1/2-x,1/2+y,1/2-z
1/2-x,1/2-y,-z
1/2+x,1/2-y,1/2+z
loop_
_atom_site_type_symbol
_atom_site_label
_atom_site_fract_x
_atom_site_fract_y
_atom_site_fract_z
Si Si1 0.000000 0.129201 0.750000
Si Si2 0.691515 0.680020 0.623831
Si Si3 0.352792 0.644625 0.599286
Si Si4 0.318668 0.287624 0.911127
Si Si5 0.881686 0.174119 0.969227
Si Si6 0.464445 0.233937 0.064969
Si Si7 0.585696 0.864142 0.366482
O O1 0.937250 0.059865 0.864033
O O2 0.982313 0.223796 0.663431
O O3 0.750000 0.750000 0.500000
O O4 0.687167 0.715208 0.754801
O O5 0.680020 0.482492 0.624249
O O6 0.642987 0.753146 0.606829
O O7 0.343676 0.737175 0.499078
O O8 0.339265 0.453973 0.584299
O O9 0.416075 0.649687 0.574148
O O10 0.360850 0.184833 0.778088
O O11 0.250000 0.250000 0.000000
O O12 0.897573 0.311694 0.034664
O O13 0.434335 0.054024 0.105801
O O14 0.525033 0.233735 0.920879
#
# Coordination Sequence:
#
# PCOD9275029 Si02
#       7
#     4   8   8   8   8   8   8
#     4  10  20  38  68 100 132 168 218 278 340 402
#     4  11  25  43  67  97 130 179 225 272 332 407
#     4  11  24  43  68  99 128 176 224 267 348 394
#     4  11  27  43  65 100 139 173 223 284 330 402
#     4  10  22  42  67  94 134 167 221 279 330 398
#     4  10  23  41  70  98 132 182 221 277 342 398
#     4  10  23  43  64  99 138 175 224 278 333 399
#
# _framework density 22.495667000000001
#
# number of rings (size 3 to 8) (size 9 to 14) (size 15 to 20)
#    0.000    1.538    3.077    0.000    4.308   10.462 
#    0.000    0.000    0.000    0.000    0.000    0.000 
#    0.000    0.000    0.000    0.000    0.000    0.000 
#
# Total GULP energy -144959.205601 kJ/mol
# GULP energy per Si atom -5575.354062 kJ/mol
# Density = 2.244447 g / cm^3
# Si number density = 22.495667 Si / 1000 Ang^3
#
#
#
# Elastic Constant Matrix: (Units=GPa)
#
#
# Indices 1 2 3 4 5 6 
#
# 1 99.4021 7.6686 56.6700 0.0000 2.1494 0.0000
# 2 7.6686 25.2158 19.2874 0.0000 3.0224 0.0000
# 3 56.6700 19.2874 162.4671 0.0000 -2.1744 0.0000
# 4 0.0000 0.0000 0.0000 24.5316 0.0000 -4.4683
# 5 2.1494 3.0224 -2.1744 0.0000 49.7965 0.0000
# 6 0.0000 0.0000 0.0000 -4.4683 0.0000 23.0013
#
#
#
# Elastic Compliance Matrix: (Units=1/GPa)
#
#
# Indices 1 2 3 4 5 6 
#
# 1 0.012588 -0.000415 -0.004351 0.000000 -0.000708 0.000000
# 2 -0.000415 0.044048 -0.005123 0.000000 -0.002879 0.000000
# 3 -0.004351 -0.005123 0.008292 0.000000 0.000861 0.000000
# 4 0.000000 0.000000 0.000000 0.042259 0.000000 0.008209
# 5 -0.000708 -0.002879 0.000861 0.000000 0.020325 0.000000
# 6 0.000000 0.000000 0.000000 0.008209 0.000000 0.045071
#
#
# Mechanical properties :
#
#
# Convention : Reuss Voigt Hill
#
# Bulk Modulus (GPa) = 22.14851 50.48189 36.31520
# Shear Modulus (GPa) = 24.10678 33.02981 28.56830
#
# Velocity S-wave (km/s) = 3.27711 3.83596 3.56750
# Velocity P-wave (km/s) = 4.91796 6.48914 5.75740
#
# Compressibility (1/GPa) = 0.04514977
#
# Stress axis : x y z
#
# Youngs Moduli (GPa) = 79.44046 22.70274 120.59178
#
# Poissons Ratio (x) = 0.00943 0.52469
# Poissons Ratio (y) = 0.03299 0.61777
# Poissons Ratio (z) = 0.34564 0.11630
#
# Static dielectric constant tensor:
#      x y z
#    x 1.939000 0.000000 -0.058060 
#    y 0.000000 1.860520 0.000000 
#    z -0.058060 0.000000 1.872530 
# 
# From -- ./inp_files/121831.got.cif
#   From: 2010.05.17/outbox.cif.g08.bks.cpg/sg15_61_cif.got.tgz:121831.got - 2010.06.03 18:47:42.
