data_PCOD9275576
_publ_section_title
;
Structure prediction by ZEFSAII (Michael W. Deem and Ramdas Pophale) SiO2 
 PCOD9275576
Probable space group: C 2/C
;
_chemical_formula_sum "Si O2"
_cell_formula_units_Z 60
_cell_length_a 16.246471
_cell_length_b 31.716639
_cell_length_c 11.395753
_cell_angle_alpha 90.000000
_cell_angle_beta 30.236721
_cell_angle_gamma 90.000000
_cell_volume 2957.006760
_symmetry_space_group_name_H-M "C 2/C"
_symmetry_group_IT_number 15
_symmetry_cell_setting 'monoclinic'
loop_
_space_group_symop_operation_xyz
x,y,z
-x,y,1/2-z
-x,-y,-z
x,-y,1/2+z
1/2+x,1/2+y,z
1/2-x,1/2+y,1/2-z
1/2-x,1/2-y,-z
1/2+x,1/2-y,1/2+z
loop_
_atom_site_type_symbol
_atom_site_label
_atom_site_fract_x
_atom_site_fract_y
_atom_site_fract_z
Si Si1 0.784809 0.429891 0.308430
Si Si2 0.953573 0.916106 0.100272
Si Si3 0.500000 0.476718 0.250000
Si Si4 0.269702 0.623054 0.392730
Si Si5 0.520554 0.855424 0.001151
Si Si6 0.161939 0.608410 0.123259
Si Si7 0.365905 0.990483 0.812822
Si Si8 0.340478 0.206328 0.866247
O O1 0.644294 0.438218 0.386081
O O2 0.736277 0.411680 0.496682
O O3 0.892741 0.471797 0.187905
O O4 0.887911 0.390677 0.132019
O O5 0.821399 0.892644 0.345540
O O6 0.035490 0.948670 0.090153
O O7 0.083314 0.887001 0.875492
O O8 0.330442 0.499282 0.424276
O O9 0.107313 0.627087 0.512534
O O10 0.277085 0.668332 0.446905
O O11 0.659388 0.858285 0.731842
O O12 0.423074 0.812143 0.144980
O O13 0.139467 0.560013 0.196688
O O14 0.000000 0.618237 0.250000
O O15 0.500000 0.997069 0.750000
O O16 0.500000 0.208778 0.750000
O O17 0.250000 0.250000 0.000000
#
# Coordination Sequence:
#
# PCOD9275576 Si02
#       8
#     8   8   4   8   8   8   8   8
#     4  11  22  37  57  89 118 159 215 261 324 370
#     4  11  22  39  60  83 119 162 210 267 305 373
#     4  10  24  42  52  84 116 162 220 256 322 370
#     4  10  21  37  60  92 121 157 200 253 321 376
#     4  10  20  39  63  85 123 161 198 252 303 382
#     4  10  20  40  55  84 117 165 219 245 305 370
#     4  10  22  39  57  82 119 166 216 273 323 366
#     4   9  20  38  63  96 126 152 191 244 311 379
#
# _framework density 20.290790000000001
#
# number of rings (size 3 to 8) (size 9 to 14) (size 15 to 20)
#    0.000    1.867    1.333    4.000    1.867    3.200 
#    7.200    0.000    0.000    0.800    1.733    0.000 
#    0.000    0.000    0.000    0.000    0.000    0.000 
#
# Total GULP energy -167071.433810 kJ/mol
# GULP energy per Si atom -5569.047794 kJ/mol
# Density = 2.024461 g / cm^3
# Si number density = 20.290790 Si / 1000 Ang^3
#
#
#
# Elastic Constant Matrix: (Units=GPa)
#
#
# Indices 1 2 3 4 5 6 
#
# 1 116.3379 31.6941 26.6734 0.0000 -7.6374 0.0000
# 2 31.6941 118.9546 52.0192 0.0000 9.1891 0.0000
# 3 26.6734 52.0192 126.5966 0.0001 14.3055 0.0000
# 4 0.0000 0.0000 0.0001 14.1729 -0.0001 -1.7811
# 5 -7.6374 9.1891 14.3055 -0.0001 34.8914 0.0000
# 6 0.0000 0.0000 0.0000 -1.7811 0.0000 12.5661
#
#
#
# Elastic Compliance Matrix: (Units=1/GPa)
#
#
# Indices 1 2 3 4 5 6 
#
# 1 0.009763 -0.002188 -0.001536 0.000000 0.003343 0.000000
# 2 -0.002188 0.010773 -0.003765 0.000000 -0.001772 0.000000
# 3 -0.001536 -0.003765 0.010167 0.000000 -0.003513 0.000000
# 4 0.000000 0.000000 0.000000 0.071837 0.000000 0.010182
# 5 0.003343 -0.001772 -0.003513 0.000000 0.031299 0.000000
# 6 0.000000 0.000000 0.000000 0.010182 0.000000 0.081022
#
#
# Mechanical properties :
#
#
# Convention : Reuss Voigt Hill
#
# Bulk Modulus (GPa) = 63.59355 64.74027 64.16691
# Shear Modulus (GPa) = 21.26919 29.09289 25.18104
#
# Velocity S-wave (km/s) = 3.24113 3.79066 3.52662
# Velocity P-wave (km/s) = 6.73912 7.15083 6.94802
#
# Compressibility (1/GPa) = 0.01572487
#
# Stress axis : x y z
#
# Youngs Moduli (GPa) = 102.42433 92.82400 98.35838
#
# Poissons Ratio (x) = 0.20309 0.15106
# Poissons Ratio (y) = 0.22410 0.37036
# Poissons Ratio (z) = 0.15730 0.34952
#
# Static dielectric constant tensor:
#      x y z
#    x 1.767950 0.000000 0.027230 
#    y 0.000000 1.740380 0.000000 
#    z 0.027230 0.000000 1.872060 
# 
# From -- ./inp_files/108589.got.cif
#   From: 2010.05.17/outbox.cif.g08.bks.cpg/sg15_55_cif.got.tgz:108589.got - 2010.06.03 18:47:42.
