data_PCOD9275756
_publ_section_title
;
Structure prediction by ZEFSAII (Michael W. Deem and Ramdas Pophale) SiO2 
 PCOD9275756
Probable space group: C 2/C
;
_chemical_formula_sum "Si O2"
_cell_formula_units_Z 32
_cell_length_a 11.084277
_cell_length_b 7.693713
_cell_length_c 13.630386
_cell_angle_alpha 90.000000
_cell_angle_beta 79.055026
_cell_angle_gamma 90.000000
_cell_volume 1141.245162
_symmetry_space_group_name_H-M "C 2/C"
_symmetry_group_IT_number 15
_symmetry_cell_setting 'monoclinic'
loop_
_space_group_symop_operation_xyz
x,y,z
-x,y,1/2-z
-x,-y,-z
x,-y,1/2+z
1/2+x,1/2+y,z
1/2-x,1/2+y,1/2-z
1/2-x,1/2-y,-z
1/2+x,1/2-y,1/2+z
loop_
_atom_site_type_symbol
_atom_site_label
_atom_site_fract_x
_atom_site_fract_y
_atom_site_fract_z
Si Si1 0.250564 0.953382 0.026512
Si Si2 0.067717 0.423876 0.649103
Si Si3 0.780616 0.134113 0.266495
Si Si4 0.388669 0.605903 0.619402
O O1 0.247596 0.001590 0.139955
O O2 0.250000 0.750000 0.000000
O O3 0.378431 0.014807 0.955667
O O4 0.136651 0.043745 0.987294
O O5 0.183094 0.355617 0.693186
O O6 0.000000 0.522584 0.750000
O O7 0.986401 0.256757 0.627136
O O8 0.744503 0.310733 0.327847
O O9 0.898431 0.061237 0.189639
#
# Coordination Sequence:
#
# PCOD9275756 Si02
#       4
#     8   8   8   8
#     4  11  22  38  64  96 130 171 215 267 330 390
#     4   9  20  37  59  88 126 164 211 262 315 383
#     4  10  20  39  64  91 129 172 213 268 328 385
#     4  10  21  39  63  91 129 171 214 268 328 388
#
# _framework density 28.039546999999999
#
# number of rings (size 3 to 8) (size 9 to 14) (size 15 to 20)
#    0.000    2.000    0.000    5.250    0.000    5.000 
#    0.000    2.500    0.000   63.000    0.000    0.000 
#    0.000    0.000    0.000    0.000    0.000    0.000 
#
# Total GULP energy -89237.598644 kJ/mol
# GULP energy per Si atom -5577.349915 kJ/mol
# Density = 2.797573 g / cm^3
# Si number density = 28.039547 Si / 1000 Ang^3
#
#
#
# Elastic Constant Matrix: (Units=GPa)
#
#
# Indices 1 2 3 4 5 6 
#
# 1 105.2626 22.2430 51.0210 0.0000 21.9834 0.0000
# 2 22.2430 117.0188 29.8002 0.0000 33.4537 0.0000
# 3 51.0210 29.8002 211.1499 0.0000 10.9667 0.0000
# 4 0.0000 0.0000 0.0000 37.6793 0.0000 3.7271
# 5 21.9834 33.4537 10.9667 0.0000 51.4648 0.0000
# 6 0.0000 0.0000 0.0000 3.7271 0.0000 45.4782
#
#
#
# Elastic Compliance Matrix: (Units=1/GPa)
#
#
# Indices 1 2 3 4 5 6 
#
# 1 0.011696 -0.000368 -0.002555 0.000000 -0.004212 0.000000
# 2 -0.000368 0.010786 -0.001089 0.000000 -0.006622 0.000000
# 3 -0.002555 -0.001089 0.005474 0.000000 0.000633 0.000000
# 4 0.000000 0.000000 0.000000 0.026757 0.000000 -0.002193
# 5 -0.004212 -0.006622 0.000633 0.000000 0.025399 0.000000
# 6 0.000000 0.000000 0.000000 -0.002193 0.000000 0.022168
#
#
# Mechanical properties :
#
#
# Convention : Reuss Voigt Hill
#
# Bulk Modulus (GPa) = 50.17446 71.06220 60.61833
# Shear Modulus (GPa) = 42.75307 48.94894 45.85100
#
# Velocity S-wave (km/s) = 3.90903 4.18270 4.04818
# Velocity P-wave (km/s) = 6.18927 6.98035 6.59668
#
# Compressibility (1/GPa) = 0.01993046
#
# Stress axis : x y z
#
# Youngs Moduli (GPa) = 85.49804 92.71154 182.67120
#
# Poissons Ratio (x) = 0.03414 0.46681
# Poissons Ratio (y) = 0.03149 0.19900
# Poissons Ratio (z) = 0.21849 0.10100
#
# Static dielectric constant tensor:
#      x y z
#    x 2.407400 0.000000 -0.185640 
#    y 0.000000 2.365250 0.000000 
#    z -0.185640 0.000000 2.194140 
# 
# From -- ./inp_files/140550.got.cif
#   From: 2010.05.17/outbox.cif.g08.bks.cpg/sg15_71_cif.got.tgz:140550.got - 2010.06.03 18:47:42.
