data_PCOD9275077
_publ_section_title
;
Structure prediction by ZEFSAII (Michael W. Deem and Ramdas Pophale) SiO2 
 PCOD9275077
Probable space group: C 2/C
;
_chemical_formula_sum "Si O2"
_cell_formula_units_Z 28
_cell_length_a 13.611342
_cell_length_b 7.984694
_cell_length_c 17.406772
_cell_angle_alpha 90.000000
_cell_angle_beta 33.581189
_cell_angle_gamma 90.000000
_cell_volume 1046.394150
_symmetry_space_group_name_H-M "C 2/C"
_symmetry_group_IT_number 15
_symmetry_cell_setting 'monoclinic'
loop_
_space_group_symop_operation_xyz
x,y,z
-x,y,1/2-z
-x,-y,-z
x,-y,1/2+z
1/2+x,1/2+y,z
1/2-x,1/2+y,1/2-z
1/2-x,1/2-y,-z
1/2+x,1/2-y,1/2+z
loop_
_atom_site_type_symbol
_atom_site_label
_atom_site_fract_x
_atom_site_fract_y
_atom_site_fract_z
Si Si1 0.000000 0.975103 0.250000
Si Si2 0.055463 0.764887 0.851768
Si Si3 0.342925 0.955655 0.956786
Si Si4 0.772308 0.548005 0.324261
O O1 0.033370 0.095214 0.301162
O O2 0.816617 0.881008 0.389638
O O3 0.209735 0.635574 0.725366
O O4 0.111866 0.849285 0.893931
O O5 0.887969 0.639617 0.961900
O O6 0.537352 0.872310 0.827297
O O7 0.282312 0.977157 0.908495
#
# Coordination Sequence:
#
# PCOD9275077 Si02
#       4
#     4   8   8   8
#     4  12  20  38  64  96 132 172 208 268 332 388
#     4  10  20  38  68  93 126 171 217 267 319 385
#     4   9  21  40  64  93 131 170 212 268 325 387
#     4   9  20  40  67  93 127 169 221 263 323 383
#
# _framework density 26.758559000000002
#
# number of rings (size 3 to 8) (size 9 to 14) (size 15 to 20)
#    1.714    0.571    2.857    0.857    0.000    2.286 
#    0.000    2.857    0.000    3.429    0.000    0.000 
#    0.000    0.000    0.000    0.000    0.000    0.000 
#
# Total GULP energy -78369.306566 kJ/mol
# GULP energy per Si atom -5597.807612 kJ/mol
# Density = 2.669766 g / cm^3
# Si number density = 26.758559 Si / 1000 Ang^3
#
#
#
# Elastic Constant Matrix: (Units=GPa)
#
#
# Indices 1 2 3 4 5 6 
#
# 1 169.3711 49.2127 33.1153 0.0000 3.1720 0.0000
# 2 49.2127 90.4729 24.3201 -0.0001 -2.3261 0.0001
# 3 33.1153 24.3201 180.2235 -0.0001 -28.5726 0.0001
# 4 0.0000 -0.0001 -0.0001 27.5037 0.0001 -16.8002
# 5 3.1720 -2.3261 -28.5726 0.0001 15.6554 0.0000
# 6 0.0000 0.0001 0.0001 -16.8002 0.0000 58.3714
#
#
#
# Elastic Compliance Matrix: (Units=1/GPa)
#
#
# Indices 1 2 3 4 5 6 
#
# 1 0.007404 -0.003710 -0.001667 0.000000 -0.005095 0.000000
# 2 -0.003710 0.013356 -0.000966 0.000000 0.000972 0.000000
# 3 -0.001667 -0.000966 0.008466 0.000000 0.015645 0.000000
# 4 0.000000 0.000000 0.000000 0.044114 0.000000 0.012697
# 5 -0.005095 0.000972 0.015645 0.000000 0.093607 0.000000
# 6 0.000000 0.000000 0.000000 0.012697 0.000000 0.020786
#
#
# Mechanical properties :
#
#
# Convention : Reuss Voigt Hill
#
# Bulk Modulus (GPa) = 60.46817 72.59595 66.53206
# Shear Modulus (GPa) = 24.27979 42.53406 33.40692
#
# Velocity S-wave (km/s) = 3.01552 3.99124 3.53718
# Velocity P-wave (km/s) = 5.89671 6.95909 6.44981
#
# Compressibility (1/GPa) = 0.01653763
#
# Stress axis : x y z
#
# Youngs Moduli (GPa) = 135.06973 74.87361 118.12121
#
# Poissons Ratio (x) = 0.27778 0.19696
# Poissons Ratio (y) = 0.50110 0.11416
# Poissons Ratio (z) = 0.22522 0.07236
#
# Static dielectric constant tensor:
#      x y z
#    x 2.018720 0.000000 -0.080170 
#    y 0.000000 2.077120 0.000000 
#    z -0.080170 0.000000 2.060900 
# 
# From -- ./inp_files/141152.got.cif
#   From: 2010.05.17/outbox.cif.g08.bks.cpg/sg15_71_cif.got.tgz:141152.got - 2010.06.03 18:47:42.
