data_PCOD9275490
_publ_section_title
;
Structure prediction by ZEFSAII (Michael W. Deem and Ramdas Pophale) SiO2 
 PCOD9275490
Probable space group: C 2/C
;
_chemical_formula_sum "Si O2"
_cell_formula_units_Z 56
_cell_length_a 20.994204
_cell_length_b 9.042576
_cell_length_c 18.500592
_cell_angle_alpha 90.000000
_cell_angle_beta 132.186577
_cell_angle_gamma 90.000000
_cell_volume 2602.394359
_symmetry_space_group_name_H-M "C 2/C"
_symmetry_group_IT_number 15
_symmetry_cell_setting 'monoclinic'
loop_
_space_group_symop_operation_xyz
x,y,z
-x,y,1/2-z
-x,-y,-z
x,-y,1/2+z
1/2+x,1/2+y,z
1/2-x,1/2+y,1/2-z
1/2-x,1/2-y,-z
1/2+x,1/2-y,1/2+z
loop_
_atom_site_type_symbol
_atom_site_label
_atom_site_fract_x
_atom_site_fract_y
_atom_site_fract_z
Si Si1 0.345549 0.608132 0.899760
Si Si2 0.839599 0.786730 0.954261
Si Si3 0.823914 0.906529 0.213389
Si Si4 0.879967 0.429922 0.593976
Si Si5 0.977258 0.335094 0.960959
Si Si6 0.238515 0.663114 0.066643
Si Si7 0.919783 0.364338 0.770008
O O1 0.339687 0.460470 0.942407
O O2 0.335573 0.562350 0.807820
O O3 0.433240 0.705212 0.973648
O O4 0.277509 0.722619 0.880947
O O5 0.759343 0.702407 0.856427
O O6 0.840530 0.724383 0.036524
O O7 0.931727 0.731424 0.994747
O O8 0.903820 0.809581 0.244958
O O9 0.808211 0.047814 0.150831
O O10 0.842276 0.556349 0.514442
O O11 0.865131 0.449209 0.668203
O O12 0.982317 0.416323 0.663242
O O13 0.904775 0.369170 0.843792
O O14 0.000000 0.500000 0.000000
O O15 0.250000 0.750000 0.000000
#
# Coordination Sequence:
#
# PCOD9275490 Si02
#       7
#     8   8   8   8   8   8   8
#     4  11  22  39  60  91 126 163 209 263 318 380
#     4  10  21  35  63  88 118 161 209 259 310 378
#     4  10  22  39  62  93 121 165 213 262 317 380
#     4   9  20  40  60  87 123 167 211 247 324 379
#     4  10  20  39  62  88 121 165 209 259 315 377
#     4  11  25  41  62  96 136 164 210 270 325 379
#     4   9  19  36  66  83 119 161 213 253 300 386
#
# _framework density 21.518643999999998
#
# number of rings (size 3 to 8) (size 9 to 14) (size 15 to 20)
#    0.000    2.000    0.000    3.857    4.000    2.286 
#    2.571    0.000   15.714    0.000    0.000    0.000 
#    0.000    0.000    0.000    0.000    0.000    0.000 
#
# Total GULP energy -155898.674341 kJ/mol
# GULP energy per Si atom -5567.809798 kJ/mol
# Density = 2.146967 g / cm^3
# Si number density = 21.518644 Si / 1000 Ang^3
#
#
#
# Elastic Constant Matrix: (Units=GPa)
#
#
# Indices 1 2 3 4 5 6 
#
# 1 47.5558 15.7217 -4.9059 0.0000 8.2060 0.0000
# 2 15.7217 130.7562 37.5613 0.0000 1.1534 0.0000
# 3 -4.9059 37.5613 82.4572 0.0000 -6.1862 0.0000
# 4 0.0000 0.0000 0.0000 30.8477 0.0000 -0.4848
# 5 8.2060 1.1534 -6.1862 0.0000 20.8346 0.0000
# 6 0.0000 0.0000 0.0000 -0.4848 0.0000 39.8070
#
#
#
# Elastic Compliance Matrix: (Units=1/GPa)
#
#
# Indices 1 2 3 4 5 6 
#
# 1 0.023891 -0.003477 0.002367 0.000000 -0.008515 0.000000
# 2 -0.003477 0.009366 -0.004510 0.000000 -0.000488 0.000000
# 3 0.002367 -0.004510 0.014597 0.000000 0.003652 0.000000
# 4 0.000000 0.000000 0.000000 0.032424 0.000000 0.000395
# 5 -0.008515 -0.000488 0.003652 0.000000 0.052462 0.000000
# 6 0.000000 0.000000 0.000000 0.000395 0.000000 0.025126
#
#
# Mechanical properties :
#
#
# Convention : Reuss Voigt Hill
#
# Bulk Modulus (GPa) = 27.31328 39.72482 33.51905
# Shear Modulus (GPa) = 27.57714 32.45733 30.01724
#
# Velocity S-wave (km/s) = 3.58375 3.88794 3.73894
# Velocity P-wave (km/s) = 5.46304 6.21736 5.85236
#
# Compressibility (1/GPa) = 0.03661223
#
# Stress axis : x y z
#
# Youngs Moduli (GPa) = 41.85700 106.77238 68.50919
#
# Poissons Ratio (x) = 0.37128 -0.16214
# Poissons Ratio (y) = 0.14555 0.30896
# Poissons Ratio (z) = -0.09906 0.48152
#
# Static dielectric constant tensor:
#      x y z
#    x 1.898710 0.000000 -0.047400 
#    y 0.000000 1.790320 0.000000 
#    z -0.047400 0.000000 1.851930 
# 
# From -- ./inp_files/218662.got.cif
#   From: 2010.05.17/outbox.cif.g08.bks.cpg/sg15_110_cif.got.tgz:218662.got - 2010.06.03 18:47:42.
