data_PCOD9275922
_publ_section_title
;
Structure prediction by ZEFSAII (Michael W. Deem and Ramdas Pophale) SiO2 
 PCOD9275922
Probable space group: C 2/C
;
_chemical_formula_sum "Si O2"
_cell_formula_units_Z 44
_cell_length_a 13.718184
_cell_length_b 5.134559
_cell_length_c 28.271042
_cell_angle_alpha 90.000000
_cell_angle_beta 115.822288
_cell_angle_gamma 90.000000
_cell_volume 1792.487698
_symmetry_space_group_name_H-M "C 2/C"
_symmetry_group_IT_number 15
_symmetry_cell_setting 'monoclinic'
loop_
_space_group_symop_operation_xyz
x,y,z
-x,y,1/2-z
-x,-y,-z
x,-y,1/2+z
1/2+x,1/2+y,z
1/2-x,1/2+y,1/2-z
1/2-x,1/2-y,-z
1/2+x,1/2-y,1/2+z
loop_
_atom_site_type_symbol
_atom_site_label
_atom_site_fract_x
_atom_site_fract_y
_atom_site_fract_z
Si Si1 0.322768 0.869999 0.761619
Si Si2 0.669879 0.961310 0.941679
Si Si3 0.511402 0.226585 0.657989
Si Si4 0.383374 0.260802 0.479680
Si Si5 0.000000 0.063421 0.750000
Si Si6 0.008717 0.078380 0.580033
O O1 0.432031 0.428863 0.865853
O O2 0.394520 0.746177 0.734520
O O3 0.413708 0.977114 0.816986
O O4 0.254346 0.134112 0.737702
O O5 0.597014 0.140790 0.891791
O O6 0.792167 0.018033 0.953397
O O7 0.604485 0.693735 0.925002
O O8 0.665895 0.040606 0.996705
O O9 0.491757 0.378349 0.702568
O O10 0.477293 0.368763 0.533550
O O11 0.428532 0.203939 0.437152
#
# Coordination Sequence:
#
# PCOD9275922 Si02
#       6
#     8   8   8   8   4   8
#     4  12  27  52  80 107 147 201 255 317 390 450
#     4  10  20  39  65  99 139 184 240 296 370 441
#     4  11  25  47  68 106 144 186 254 311 376 448
#     4   9  20  38  63  95 139 189 233 298 362 439
#     4  12  26  54  74 106 152 200 248 330 376 460
#     4  10  20  40  64  97 139 185 243 295 363 446
#
# _framework density 24.546893000000001
#
# number of rings (size 3 to 8) (size 9 to 14) (size 15 to 20)
#    0.000    1.455    1.818    2.727    0.000    0.000 
#   16.364    0.000    0.000    0.000    0.000    0.000 
#    0.000    0.000    0.000    0.000    0.000    0.000 
#
# Total GULP energy -122866.782605 kJ/mol
# GULP energy per Si atom -5584.853755 kJ/mol
# Density = 2.449102 g / cm^3
# Si number density = 24.546893 Si / 1000 Ang^3
#
#
#
# Elastic Constant Matrix: (Units=GPa)
#
#
# Indices 1 2 3 4 5 6 
#
# 1 111.4990 41.2542 39.3606 0.0000 6.1352 0.0000
# 2 41.2542 139.3226 43.8400 0.0000 -1.4672 0.0000
# 3 39.3606 43.8400 130.8752 0.0000 -9.9591 0.0000
# 4 0.0000 0.0000 0.0000 35.8984 0.0000 17.2246
# 5 6.1352 -1.4672 -9.9591 0.0000 26.5853 0.0000
# 6 0.0000 0.0000 0.0000 17.2246 0.0000 23.0553
#
#
#
# Elastic Compliance Matrix: (Units=1/GPa)
#
#
# Indices 1 2 3 4 5 6 
#
# 1 0.011062 -0.002435 -0.002795 0.000000 -0.003734 0.000000
# 2 -0.002435 0.008568 -0.002119 0.000000 0.000241 0.000000
# 3 -0.002795 -0.002119 0.009503 0.000000 0.004088 0.000000
# 4 0.000000 0.000000 0.000000 0.043422 0.000000 -0.032441
# 5 -0.003734 0.000241 0.004088 0.000000 0.040021 0.000000
# 6 0.000000 0.000000 0.000000 -0.032441 0.000000 0.067610
#
#
# Mechanical properties :
#
#
# Convention : Reuss Voigt Hill
#
# Bulk Modulus (GPa) = 69.28667 70.06738 69.67703
# Shear Modulus (GPa) = 25.03794 34.25727 29.64760
#
# Velocity S-wave (km/s) = 3.19722 3.73981 3.47910
# Velocity P-wave (km/s) = 6.47434 6.87419 6.67726
#
# Compressibility (1/GPa) = 0.01443279
#
# Stress axis : x y z
#
# Youngs Moduli (GPa) = 90.39976 116.71178 105.23484
#
# Poissons Ratio (x) = 0.28422 0.29416
# Poissons Ratio (y) = 0.22015 0.22303
# Poissons Ratio (z) = 0.25269 0.24736
#
# Static dielectric constant tensor:
#      x y z
#    x 2.022860 0.000000 -0.023690 
#    y 0.000000 2.068810 0.000000 
#    z -0.023690 0.000000 1.931600 
# 
# From -- ./inp_files/314651.got.cif
#   From: 2010.05.17/outbox.cif.g08.bks.cpg/sg15_158_cif.got.tgz:314651.got - 2010.06.03 18:47:42.
