data_PCOD9275484
_publ_section_title
;
Structure prediction by ZEFSAII (Michael W. Deem and Ramdas Pophale) SiO2 
 PCOD9275484
Probable space group: C 2/C
;
_chemical_formula_sum "Si O2"
_cell_formula_units_Z 40
_cell_length_a 8.859096
_cell_length_b 9.332166
_cell_length_c 23.731296
_cell_angle_alpha 90.000000
_cell_angle_beta 112.158082
_cell_angle_gamma 90.000000
_cell_volume 1817.076179
_symmetry_space_group_name_H-M "C 2/C"
_symmetry_group_IT_number 15
_symmetry_cell_setting 'monoclinic'
loop_
_space_group_symop_operation_xyz
x,y,z
-x,y,1/2-z
-x,-y,-z
x,-y,1/2+z
1/2+x,1/2+y,z
1/2-x,1/2+y,1/2-z
1/2-x,1/2-y,-z
1/2+x,1/2-y,1/2+z
loop_
_atom_site_type_symbol
_atom_site_label
_atom_site_fract_x
_atom_site_fract_y
_atom_site_fract_z
Si Si1 0.961443 0.086967 0.051935
Si Si2 0.041709 0.816217 0.124057
Si Si3 0.194055 0.857511 0.771296
Si Si4 0.175838 0.823619 0.304827
Si Si5 0.576668 0.151566 0.011781
O O1 0.768170 0.115428 0.031640
O O2 0.009280 0.251037 0.048352
O O3 0.035472 0.985842 0.109926
O O4 0.000000 0.000000 0.000000
O O5 0.202798 0.757838 0.177864
O O6 0.042075 0.731662 0.065454
O O7 0.880646 0.792821 0.139398
O O8 0.234051 0.806544 0.713411
O O9 0.000000 0.846528 0.750000
O O10 0.246821 0.017376 0.800117
O O11 0.000000 0.831316 0.250000
O O12 0.500000 0.000000 0.000000
#
# Coordination Sequence:
#
# PCOD9275484 Si02
#       5
#     8   8   8   8   8
#     4   9  20  39  60  86 124 159 196 248 297 355
#     4  10  20  39  62  87 125 164 195 246 312 359
#     4  10  21  40  62  87 121 158 204 252 299 363
#     4   9  20  39  59  83 118 155 199 251 298 357
#     4  10  21  40  63  91 122 159 207 251 299 364
#
# _framework density 22.013386000000001
#
# number of rings (size 3 to 8) (size 9 to 14) (size 15 to 20)
#    0.000    2.400    0.000    1.200    0.000    5.600 
#    0.000   48.000    0.000    0.000    0.000    0.000 
#    0.000    0.000    0.000    0.000    0.000    0.000 
#
# Total GULP energy -111410.142090 kJ/mol
# GULP energy per Si atom -5570.507104 kJ/mol
# Density = 2.196328 g / cm^3
# Si number density = 22.013386 Si / 1000 Ang^3
#
#
#
# Elastic Constant Matrix: (Units=GPa)
#
#
# Indices 1 2 3 4 5 6 
#
# 1 101.6153 68.4576 48.4800 0.0000 -24.1837 0.0000
# 2 68.4576 144.3497 24.6179 0.0000 -4.1741 0.0000
# 3 48.4800 24.6179 42.7634 0.0000 -13.0554 0.0000
# 4 0.0000 0.0000 0.0000 31.0429 0.0000 -3.1432
# 5 -24.1837 -4.1741 -13.0554 0.0000 37.9097 0.0000
# 6 0.0000 0.0000 0.0000 -3.1432 0.0000 32.7707
#
#
#
# Elastic Compliance Matrix: (Units=1/GPa)
#
#
# Indices 1 2 3 4 5 6 
#
# 1 0.032454 -0.010366 -0.027773 0.000000 0.009997 0.000000
# 2 -0.010366 0.011012 0.004205 0.000000 -0.003952 0.000000
# 3 -0.027773 0.004205 0.052725 0.000000 0.000903 0.000000
# 4 0.000000 0.000000 0.000000 0.032529 0.000000 0.003120
# 5 0.009997 -0.003952 0.000903 0.000000 0.032632 0.000000
# 6 0.000000 0.000000 0.000000 0.003120 0.000000 0.030814
#
#
# Mechanical properties :
#
#
# Convention : Reuss Voigt Hill
#
# Bulk Modulus (GPa) = 35.30490 63.53772 49.42131
# Shear Modulus (GPa) = 18.55465 30.15619 24.35542
#
# Velocity S-wave (km/s) = 2.90639 3.70523 3.32985
# Velocity P-wave (km/s) = 5.22834 6.87247 6.10600
#
# Compressibility (1/GPa) = 0.02832468
#
# Stress axis : x y z
#
# Youngs Moduli (GPa) = 30.81298 90.81004 18.96639
#
# Poissons Ratio (x) = 0.94130 0.52675
# Poissons Ratio (y) = 0.31939 -0.07976
# Poissons Ratio (z) = 0.85576 -0.38190
#
# Static dielectric constant tensor:
#      x y z
#    x 1.637140 0.000000 0.163180 
#    y 0.000000 1.494780 0.000000 
#    z 0.163180 0.000000 1.676700 
# 
# From -- ./inp_files/262516.got.cif
#   From: 2010.05.17/outbox.cif.g08.bks.cpg/sg15_132_cif.got.tgz:262516.got - 2010.06.03 18:47:42.
