data_PCOD9275868
_publ_section_title
;
Structure prediction by ZEFSAII (Michael W. Deem and Ramdas Pophale) SiO2 
 PCOD9275868
Probable space group: C 2/C
;
_chemical_formula_sum "Si O2"
_cell_formula_units_Z 64
_cell_length_a 11.463671
_cell_length_b 23.776466
_cell_length_c 11.304775
_cell_angle_alpha 90.000000
_cell_angle_beta 97.163720
_cell_angle_gamma 90.000000
_cell_volume 3057.239608
_symmetry_space_group_name_H-M "C 2/C"
_symmetry_group_IT_number 15
_symmetry_cell_setting 'monoclinic'
loop_
_space_group_symop_operation_xyz
x,y,z
-x,y,1/2-z
-x,-y,-z
x,-y,1/2+z
1/2+x,1/2+y,z
1/2-x,1/2+y,1/2-z
1/2-x,1/2-y,-z
1/2+x,1/2-y,1/2+z
loop_
_atom_site_type_symbol
_atom_site_label
_atom_site_fract_x
_atom_site_fract_y
_atom_site_fract_z
Si Si1 0.816940 0.614120 0.467060
Si Si2 0.066430 0.833815 0.884047
Si Si3 0.825546 0.623389 0.917468
Si Si4 0.678486 0.957002 0.295594
Si Si5 0.524290 0.046052 0.402290
Si Si6 0.511743 0.794384 0.392405
Si Si7 0.078373 0.086807 0.963609
Si Si8 0.912533 0.004474 0.326442
O O1 0.698387 0.640596 0.398724
O O2 0.789591 0.572808 0.575468
O O3 0.901647 0.581408 0.384906
O O4 0.896746 0.662492 0.537129
O O5 0.000000 0.837117 0.750000
O O6 0.057239 0.768420 0.920304
O O7 0.996159 0.868528 0.973025
O O8 0.866260 0.588666 0.804782
O O9 0.883231 0.685031 0.921211
O O10 0.883191 0.590826 0.034432
O O11 0.685825 0.617051 0.911414
O O12 0.794494 0.983432 0.251797
O O13 0.594257 0.008609 0.315789
O O14 0.500000 0.000000 0.500000
O O15 0.500000 0.800301 0.250000
O O16 0.123205 0.041623 0.066351
O O17 0.989144 0.049154 0.876103
O O18 0.000000 0.036909 0.250000
#
# Coordination Sequence:
#
# PCOD9275868 Si02
#       8
#     8   8   8   8   8   8   8   8
#     4  10  20  39  65  92 125 162 213 258 318 386
#     4  11  24  42  62  89 123 169 219 267 317 374
#     4  11  21  37  61  91 125 163 206 261 316 377
#     4  11  19  36  61  94 129 160 208 257 315 385
#     4   9  21  35  56  92 126 159 196 247 318 378
#     4  10  21  39  66  94 120 160 215 269 322 374
#     4  11  23  37  57  87 125 165 211 249 316 374
#     4  11  21  35  57  89 125 168 205 255 306 389
#
# _framework density 20.933917999999998
#
# number of rings (size 3 to 8) (size 9 to 14) (size 15 to 20)
#    0.000    1.500    5.000    0.750    0.000    0.500 
#    4.500    1.250    0.000    2.250    0.000    0.000 
#    0.000    0.000    0.000    0.000    0.000    0.000 
#
# Total GULP energy -178591.656450 kJ/mol
# GULP energy per Si atom -5580.989264 kJ/mol
# Density = 2.088627 g / cm^3
# Si number density = 20.933918 Si / 1000 Ang^3
#
#
#
# Elastic Constant Matrix: (Units=GPa)
#
#
# Indices 1 2 3 4 5 6 
#
# 1 152.1859 61.6091 26.5981 0.0000 -6.5786 0.0000
# 2 61.6091 122.9221 24.0005 0.0000 -3.3137 0.0000
# 3 26.5981 24.0005 54.4220 0.0000 -1.1409 0.0000
# 4 0.0000 0.0000 0.0000 39.0211 0.0000 12.9280
# 5 -6.5786 -3.3137 -1.1409 0.0000 32.1030 0.0000
# 6 0.0000 0.0000 0.0000 12.9280 0.0000 32.5590
#
#
#
# Elastic Compliance Matrix: (Units=1/GPa)
#
#
# Indices 1 2 3 4 5 6 
#
# 1 0.008596 -0.003785 -0.002505 0.000000 0.001282 0.000000
# 2 -0.003785 0.010588 -0.002815 0.000000 0.000217 0.000000
# 3 -0.002505 -0.002815 0.020839 0.000000 -0.000063 0.000000
# 4 0.000000 0.000000 0.000000 0.029509 0.000000 -0.011717
# 5 0.001282 0.000217 -0.000063 0.000000 0.031433 0.000000
# 6 0.000000 0.000000 0.000000 -0.011717 0.000000 0.035366
#
#
# Mechanical properties :
#
#
# Convention : Reuss Voigt Hill
#
# Bulk Modulus (GPa) = 45.84354 61.54950 53.69652
# Shear Modulus (GPa) = 30.89996 35.22475 33.06236
#
# Velocity S-wave (km/s) = 3.84614 4.10648 3.97844
# Velocity P-wave (km/s) = 6.45526 7.20763 6.84179
#
# Compressibility (1/GPa) = 0.02181332
#
# Stress axis : x y z
#
# Youngs Moduli (GPa) = 116.32773 94.44953 47.98585
#
# Poissons Ratio (x) = 0.35747 0.12022
# Poissons Ratio (y) = 0.44028 0.13508
# Poissons Ratio (z) = 0.29145 0.26587
#
# Static dielectric constant tensor:
#      x y z
#    x 1.777750 0.000000 0.002140 
#    y 0.000000 1.750550 0.000000 
#    z 0.002140 0.000000 1.854990 
# 
# From -- ./inp_files/90820.got.cif
#   From: 2010.05.17/outbox.cif.g08.bks.cpg/sg15_46_cif.got.tgz:90820.got - 2010.06.03 18:47:42.
