data_PCOD9275184
_publ_section_title
;
Structure prediction by ZEFSAII (Michael W. Deem and Ramdas Pophale) SiO2 
 PCOD9275184
Probable space group: C 2/C
;
_chemical_formula_sum "Si O2"
_cell_formula_units_Z 56
_cell_length_a 11.277175
_cell_length_b 31.404724
_cell_length_c 14.726895
_cell_angle_alpha 90.000000
_cell_angle_beta 30.135583
_cell_angle_gamma 90.000000
_cell_volume 2618.494560
_symmetry_space_group_name_H-M "C 2/C"
_symmetry_group_IT_number 15
_symmetry_cell_setting 'monoclinic'
loop_
_space_group_symop_operation_xyz
x,y,z
-x,y,1/2-z
-x,-y,-z
x,-y,1/2+z
1/2+x,1/2+y,z
1/2-x,1/2+y,1/2-z
1/2-x,1/2-y,-z
1/2+x,1/2-y,1/2+z
loop_
_atom_site_type_symbol
_atom_site_label
_atom_site_fract_x
_atom_site_fract_y
_atom_site_fract_z
Si Si1 0.500000 0.644898 0.750000
Si Si2 0.638830 0.922712 0.562638
Si Si3 0.765082 0.443990 0.342778
Si Si4 0.231091 0.970638 0.747107
Si Si5 0.114117 0.297594 0.004603
Si Si6 0.500000 0.485404 0.250000
Si Si7 0.680050 0.648181 0.823309
Si Si8 0.527516 0.702863 0.381284
O O1 0.725216 0.617729 0.565887
O O2 0.584726 0.664078 0.788874
O O3 0.500000 0.918598 0.750000
O O4 0.440887 0.938042 0.623657
O O5 0.853917 0.957228 0.419649
O O6 0.522660 0.450695 0.559452
O O7 0.785347 0.487901 0.272954
O O8 0.710125 0.402498 0.316979
O O9 0.000000 0.438320 0.250000
O O10 0.196389 0.986872 0.668837
O O11 0.233713 0.307727 0.829644
O O12 0.320434 0.296590 0.942922
O O13 0.983271 0.252154 0.081096
O O14 0.937413 0.332134 0.159044
O O15 0.526619 0.669374 0.004420
#
# Coordination Sequence:
#
# PCOD9275184 Si02
#       8
#     4   8   8   8   8   4   8   8
#     4  11  28  44  62  92 132 182 232 278 332 390
#     4  11  22  42  65  84 120 177 232 279 331 392
#     4  11  23  39  63  95 131 169 220 281 334 382
#     4  11  22  39  62  89 127 178 222 268 332 396
#     4  10  20  38  71 102 129 165 207 258 332 404
#     4  11  22  36  60  94 122 162 222 282 334 404
#     4  12  24  43  64  95 135 173 218 279 328 394
#     4  10  20  39  69 103 130 163 207 260 330 404
#
# _framework density 21.386334000000002
#
# number of rings (size 3 to 8) (size 9 to 14) (size 15 to 20)
#    0.000    1.143    1.429    7.286    0.000    3.429 
#    0.000    2.143    0.000    1.714    0.000    0.000 
#    0.000    0.000    0.000    0.000    0.000    0.000 
#
# Total GULP energy -156415.183900 kJ/mol
# GULP energy per Si atom -5586.256568 kJ/mol
# Density = 2.133766 g / cm^3
# Si number density = 21.386334 Si / 1000 Ang^3
#
#
#
# Elastic Constant Matrix: (Units=GPa)
#
#
# Indices 1 2 3 4 5 6 
#
# 1 71.0390 -3.2275 5.5583 0.0000 6.9267 0.0000
# 2 -3.2275 41.3927 18.0357 0.0000 0.0527 0.0000
# 3 5.5583 18.0357 122.4137 0.0000 15.6318 -0.0001
# 4 0.0000 0.0000 0.0000 -30.4270 0.0000 -67.0322
# 5 6.9267 0.0527 15.6318 0.0000 33.4194 0.0000
# 6 0.0000 0.0000 -0.0001 -67.0322 0.0000 -180.7175
#
#
#
# Elastic Compliance Matrix: (Units=1/GPa)
#
#
# Indices 1 2 3 4 5 6 
#
# 1 0.014447 0.001349 -0.000502 0.000000 -0.002762 0.000000
# 2 0.001349 0.026050 -0.004103 0.000000 0.001599 0.000000
# 3 -0.000502 -0.004103 0.009340 0.000000 -0.004258 0.000000
# 4 0.000000 0.000000 0.000000 -0.179752 0.000000 0.066674
# 5 -0.002762 0.001599 -0.004258 0.000000 0.032484 0.000000
# 6 0.000000 0.000000 0.000000 0.066674 0.000000 -0.030264
#
#
# Mechanical properties :
#
#
# Convention : Reuss Voigt Hill
#
# Bulk Modulus (GPa) = 23.08233 30.61982 26.85108
# Shear Modulus (GPa) = -46.84248 -21.24643 -34.04446
#
# Velocity S-wave (km/s) = -4.68514 -3.15534 -3.99416
# Velocity P-wave (km/s) = 4.29546 1.03619 2.94765
#
# Compressibility (1/GPa) = 0.04332318
#
# Stress axis : x y z
#
# Youngs Moduli (GPa) = 69.22040 38.38782 107.06444
#
# Poissons Ratio (x) = -0.05177 0.05375
# Poissons Ratio (y) = -0.09336 0.43933
# Poissons Ratio (z) = 0.03475 0.15752
#
# Static dielectric constant tensor:
#      x y z
#    x 1.814450 0.000000 0.029760 
#    y 0.000000 1.782900 0.000000 
#    z 0.029760 0.000000 1.764720 
# 
# From -- ./inp_files/149285.got.cif
#   From: 2010.05.17/outbox.cif.g08.bks.cpg/sg15_75_cif.got.tgz:149285.got - 2010.06.03 18:47:42.
