data_PCOD9275311
_publ_section_title
;
Structure prediction by ZEFSAII (Michael W. Deem and Ramdas Pophale) SiO2 
 PCOD9275311
Probable space group: C 2/C
;
_chemical_formula_sum "Si O2"
_cell_formula_units_Z 64
_cell_length_a 18.766090
_cell_length_b 17.796801
_cell_length_c 15.279226
_cell_angle_alpha 90.000000
_cell_angle_beta 145.235433
_cell_angle_gamma 90.000000
_cell_volume 2909.702610
_symmetry_space_group_name_H-M "C 2/C"
_symmetry_group_IT_number 15
_symmetry_cell_setting 'monoclinic'
loop_
_space_group_symop_operation_xyz
x,y,z
-x,y,1/2-z
-x,-y,-z
x,-y,1/2+z
1/2+x,1/2+y,z
1/2-x,1/2+y,1/2-z
1/2-x,1/2-y,-z
1/2+x,1/2-y,1/2+z
loop_
_atom_site_type_symbol
_atom_site_label
_atom_site_fract_x
_atom_site_fract_y
_atom_site_fract_z
Si Si1 0.692963 0.048112 0.169522
Si Si2 0.532738 0.813537 0.554354
Si Si3 0.224033 0.378039 0.172447
Si Si4 0.052694 0.834483 0.988130
Si Si5 0.424644 0.421315 0.014625
Si Si6 0.366106 0.796624 0.658236
Si Si7 0.691146 0.412811 0.431589
Si Si8 0.401222 0.446466 0.746529
O O1 0.583097 0.105511 0.076058
O O2 0.789735 0.049458 0.347948
O O3 0.776958 0.076073 0.172780
O O4 0.667097 0.961644 0.122808
O O5 0.391475 0.821441 0.446509
O O6 0.543638 0.754633 0.486532
O O7 0.618216 0.786455 0.721940
O O8 0.310066 0.360377 0.342876
O O9 0.305917 0.381882 0.165373
O O10 0.969698 0.864461 0.986420
O O11 0.994492 0.875659 0.844973
O O12 0.402116 0.384708 0.086606
O O13 0.518647 0.491508 0.117478
O O14 0.500000 0.781526 0.750000
O O15 0.250000 0.750000 0.500000
O O16 0.326068 0.883601 0.599648
O O17 0.649949 0.500809 0.383529
#
# Coordination Sequence:
#
# PCOD9275311 Si02
#       8
#     8   8   8   8   8   8   8   8
#     4  10  20  39  60  83 120 162 211 259 310 381
#     4  12  26  38  61  87 133 174 207 250 335 399
#     4  11  22  41  58  89 125 165 214 267 313 391
#     4  11  23  38  58  92 128 165 214 269 317 381
#     4  11  19  36  60  90 118 159 212 266 310 379
#     4  12  27  41  56  91 140 181 210 254 321 401
#     4  11  22  36  61  89 123 166 214 259 314 370
#     4  10  21  38  61  86 122 162 223 271 301 376
#
# _framework density 21.995374999999999
#
# number of rings (size 3 to 8) (size 9 to 14) (size 15 to 20)
#    0.000    1.000    6.250    2.250    5.250    0.000 
#    0.000    0.000    0.000    0.000    0.000   15.750 
#    0.000    0.000    0.000    0.000    0.000    0.000 
#
# Total GULP energy -178446.324920 kJ/mol
# GULP energy per Si atom -5576.447654 kJ/mol
# Density = 2.194531 g / cm^3
# Si number density = 21.995375 Si / 1000 Ang^3
#
#
#
# Elastic Constant Matrix: (Units=GPa)
#
#
# Indices 1 2 3 4 5 6 
#
# 1 77.0943 13.7345 24.0644 0.0000 7.7155 0.0000
# 2 13.7345 92.3274 38.5863 0.0000 -1.3992 0.0000
# 3 24.0644 38.5863 88.4873 0.0000 7.7038 0.0000
# 4 0.0000 0.0000 0.0000 40.4210 0.0000 -1.8453
# 5 7.7155 -1.3992 7.7038 0.0000 26.3676 0.0000
# 6 0.0000 0.0000 0.0000 -1.8453 0.0000 21.5646
#
#
#
# Elastic Compliance Matrix: (Units=1/GPa)
#
#
# Indices 1 2 3 4 5 6 
#
# 1 0.014477 -0.000831 -0.003286 0.000000 -0.003320 0.000000
# 2 -0.000831 0.013449 -0.005871 0.000000 0.002672 0.000000
# 3 -0.003286 -0.005871 0.015082 0.000000 -0.003757 0.000000
# 4 0.000000 0.000000 0.000000 0.024837 0.000000 0.002125
# 5 -0.003320 0.002672 -0.003757 0.000000 0.040136 0.000000
# 6 0.000000 0.000000 0.000000 0.002125 0.000000 0.046554
#
#
# Mechanical properties :
#
#
# Convention : Reuss Voigt Hill
#
# Bulk Modulus (GPa) = 43.41727 45.63104 44.52416
# Shear Modulus (GPa) = 27.44417 29.77222 28.60819
#
# Velocity S-wave (km/s) = 3.53615 3.68308 3.61036
# Velocity P-wave (km/s) = 6.03776 6.23518 6.13727
#
# Compressibility (1/GPa) = 0.02303231
#
# Stress axis : x y z
#
# Youngs Moduli (GPa) = 69.07495 74.35561 66.30430
#
# Poissons Ratio (x) = 0.06176 0.21786
# Poissons Ratio (y) = 0.05738 0.38929
# Poissons Ratio (z) = 0.22697 0.43657
#
# Static dielectric constant tensor:
#      x y z
#    x 1.861340 0.000000 -0.019940 
#    y 0.000000 1.923810 0.000000 
#    z -0.019940 0.000000 1.843920 
# 
# From -- ./inp_files/216195.got.cif
#   From: 2010.05.17/outbox.cif.g08.bks.cpg/sg15_109_cif.got.tgz:216195.got - 2010.06.03 18:47:42.
