data_PCOD9275145
_publ_section_title
;
Structure prediction by ZEFSAII (Michael W. Deem and Ramdas Pophale) SiO2 
 PCOD9275145
Probable space group: C 2/C
;
_chemical_formula_sum "Si O2"
_cell_formula_units_Z 64
_cell_length_a 11.077687
_cell_length_b 28.237148
_cell_length_c 8.560312
_cell_angle_alpha 90.000000
_cell_angle_beta 87.515960
_cell_angle_gamma 90.000000
_cell_volume 2675.169042
_symmetry_space_group_name_H-M "C 2/C"
_symmetry_group_IT_number 15
_symmetry_cell_setting 'monoclinic'
loop_
_space_group_symop_operation_xyz
x,y,z
-x,y,1/2-z
-x,-y,-z
x,-y,1/2+z
1/2+x,1/2+y,z
1/2-x,1/2+y,1/2-z
1/2-x,1/2-y,-z
1/2+x,1/2-y,1/2+z
loop_
_atom_site_type_symbol
_atom_site_label
_atom_site_fract_x
_atom_site_fract_y
_atom_site_fract_z
Si Si1 0.046396 0.825032 0.585617
Si Si2 0.757279 0.355145 0.376094
Si Si3 0.081589 0.747971 0.090389
Si Si4 0.448419 0.886630 0.603902
Si Si5 0.590886 0.519450 0.866817
Si Si6 0.619160 0.070517 0.850129
Si Si7 0.173814 0.742129 0.773997
Si Si8 0.240984 0.469072 0.870265
O O1 0.132443 0.857500 0.477607
O O2 0.120971 0.780127 0.655254
O O3 0.000000 0.848416 0.750000
O O4 0.947406 0.801366 0.475674
O O5 0.865065 0.357034 0.495463
O O6 0.791133 0.393315 0.241978
O O7 0.765797 0.303009 0.306117
O O8 0.213534 0.734094 0.144699
O O9 0.000000 0.742959 0.250000
O O10 0.081240 0.723979 0.915676
O O11 0.500000 0.860429 0.750000
O O12 0.563151 0.906045 0.505302
O O13 0.361761 0.930667 0.656572
O O14 0.500000 0.545435 0.750000
O O15 0.657582 0.477376 0.767130
O O16 0.500000 0.500000 0.000000
O O17 0.696591 0.542086 0.966765
O O18 0.500000 0.061903 0.750000
O O19 0.680938 0.020907 0.884357
#
# Coordination Sequence:
#
# PCOD9275145 Si02
#       8
#     8   8   8   8   8   8   8   8
#     4  10  22  43  68  95 134 176 217 262 322 397
#     4  11  23  43  61  93 140 168 214 277 329 392
#     4  10  20  38  69  99 126 176 224 254 308 395
#     4  11  24  42  61  95 127 166 216 273 332 399
#     4   9  19  33  59  92 123 152 205 267 315 384
#     4  10  22  39  63  95 124 165 211 273 339 394
#     4  10  22  42  66 100 135 170 220 266 321 391
#     4  11  19  39  69  87 125 169 217 271 327 397
#
# _framework density 23.923722999999999
#
# number of rings (size 3 to 8) (size 9 to 14) (size 15 to 20)
#    0.000    1.750    1.250    3.375    0.000    4.500 
#    9.000    3.125   27.500    0.000    0.000    0.000 
#    0.000    0.000    0.000    0.000    0.000    0.000 
#
# Total GULP energy -178564.794396 kJ/mol
# GULP energy per Si atom -5580.149825 kJ/mol
# Density = 2.386927 g / cm^3
# Si number density = 23.923723 Si / 1000 Ang^3
#
#
#
# Elastic Constant Matrix: (Units=GPa)
#
#
# Indices 1 2 3 4 5 6 
#
# 1 94.6417 17.3140 39.5650 0.0000 -21.1848 0.0000
# 2 17.3140 57.3077 11.9353 0.0000 0.1276 0.0000
# 3 39.5650 11.9353 123.6751 0.0000 -16.4255 0.0000
# 4 0.0000 0.0000 0.0000 -6.5793 0.0000 -9.5766
# 5 -21.1848 0.1276 -16.4255 0.0000 60.9584 0.0000
# 6 0.0000 0.0000 0.0000 -9.5766 0.0000 28.1232
#
#
#
# Elastic Compliance Matrix: (Units=1/GPa)
#
#
# Indices 1 2 3 4 5 6 
#
# 1 0.013478 -0.003354 -0.003490 0.000000 0.003751 0.000000
# 2 -0.003354 0.018658 -0.000921 0.000000 -0.001453 0.000000
# 3 -0.003490 -0.000921 0.009469 0.000000 0.001341 0.000000
# 4 0.000000 0.000000 0.000000 -0.101623 0.000000 -0.034605
# 5 0.003751 -0.001453 0.001341 0.000000 0.018072 0.000000
# 6 0.000000 0.000000 0.000000 -0.034605 0.000000 0.023774
#
#
# Mechanical properties :
#
#
# Convention : Reuss Voigt Hill
#
# Bulk Modulus (GPa) = 38.34861 45.91703 42.13282
# Shear Modulus (GPa) = 826.48931 30.28781 428.38856
#
# Velocity S-wave (km/s) = 18.60695 3.56197 13.39601
# Velocity P-wave (km/s) = 21.85610 6.01262 16.02873
#
# Compressibility (1/GPa) = 0.02607657
#
# Stress axis : x y z
#
# Youngs Moduli (GPa) = 74.19352 53.59678 105.60673
#
# Poissons Ratio (x) = 0.17974 0.36857
# Poissons Ratio (y) = 0.24881 0.09723
# Poissons Ratio (z) = 0.25894 0.04934
#
# Static dielectric constant tensor:
#      x y z
#    x 1.963100 0.000000 -0.050670 
#    y 0.000000 1.881110 0.000000 
#    z -0.050670 0.000000 1.948170 
# 
# From -- ./inp_files/35694.got.cif
#   From: 2010.05.17/outbox.cif.g08.bks.cpg/sg15_18_cif.got.tgz:35694.got - 2010.06.03 18:47:42.
