data_PCOD9275335
_publ_section_title
;
Structure prediction by ZEFSAII (Michael W. Deem and Ramdas Pophale) SiO2 
 PCOD9275335
Probable space group: C 2/C
;
_chemical_formula_sum "Si O2"
_cell_formula_units_Z 60
_cell_length_a 22.983226
_cell_length_b 21.281916
_cell_length_c 11.632067
_cell_angle_alpha 90.000000
_cell_angle_beta 31.931504
_cell_angle_gamma 90.000000
_cell_volume 3009.236562
_symmetry_space_group_name_H-M "C 2/C"
_symmetry_group_IT_number 15
_symmetry_cell_setting 'monoclinic'
loop_
_space_group_symop_operation_xyz
x,y,z
-x,y,1/2-z
-x,-y,-z
x,-y,1/2+z
1/2+x,1/2+y,z
1/2-x,1/2+y,1/2-z
1/2-x,1/2-y,-z
1/2+x,1/2-y,1/2+z
loop_
_atom_site_type_symbol
_atom_site_label
_atom_site_fract_x
_atom_site_fract_y
_atom_site_fract_z
Si Si1 0.632794 0.590377 0.705319
Si Si2 0.699882 0.560951 0.849081
Si Si3 0.195473 0.793610 0.425613
Si Si4 0.838311 0.524824 0.258957
Si Si5 0.857064 0.766612 0.246308
Si Si6 0.585786 0.218309 0.804756
Si Si7 0.950016 0.422472 0.207264
Si Si8 0.500000 0.477527 0.250000
O O1 0.666674 0.562223 0.771702
O O2 0.739217 0.573062 0.449299
O O3 0.614912 0.663164 0.760195
O O4 0.525914 0.563576 0.819422
O O5 0.700570 0.631351 0.897805
O O6 0.807500 0.521470 0.704298
O O7 0.603358 0.522644 0.070237
O O8 0.173994 0.765629 0.336198
O O9 0.313209 0.772870 0.277711
O O10 0.105862 0.768624 0.668102
O O11 0.860916 0.475852 0.324975
O O12 0.948461 0.563052 0.048550
O O13 0.750000 0.750000 0.500000
O O14 0.969050 0.726708 0.063426
O O15 0.592667 0.148013 0.741600
O O16 0.000000 0.427738 0.250000
#
# Coordination Sequence:
#
# PCOD9275335 Si02
#       8
#     8   8   8   8   8   8   8   4
#     4  10  22  38  57  88 119 161 201 252 307 371
#     4  10  20  39  60  87 120 158 206 248 313 370
#     4  10  23  41  64  91 123 167 212 265 312 382
#     4  10  21  38  57  86 123 154 203 253 315 369
#     4  11  24  41  64  90 130 170 209 261 320 382
#     4  11  23  42  64  95 124 167 218 262 319 375
#     4  11  21  36  61  88 118 157 201 260 311 368
#     4  10  22  36  62  88 122 156 208 254 306 366
#
# _framework density 19.938613
#
# number of rings (size 3 to 8) (size 9 to 14) (size 15 to 20)
#    0.000    1.600    1.333    3.200    3.733    1.600 
#    0.000    2.667    0.000    0.000    0.000    0.000 
#    0.000    0.000    0.000    0.000    0.000    0.000 
#
# Total GULP energy -167365.730314 kJ/mol
# GULP energy per Si atom -5578.857677 kJ/mol
# Density = 1.989323 g / cm^3
# Si number density = 19.938613 Si / 1000 Ang^3
#
#
#
# Elastic Constant Matrix: (Units=GPa)
#
#
# Indices 1 2 3 4 5 6 
#
# 1 89.6349 19.8559 3.2837 0.0000 -4.4980 0.0000
# 2 19.8559 39.4609 5.7804 0.0000 4.4583 0.0000
# 3 3.2837 5.7804 64.7977 0.0000 -5.9150 0.0000
# 4 0.0000 0.0000 0.0000 20.7512 0.0000 -13.4853
# 5 -4.4980 4.4583 -5.9150 0.0000 26.5147 0.0000
# 6 0.0000 0.0000 0.0000 -13.4853 0.0000 -24.4640
#
#
#
# Elastic Compliance Matrix: (Units=1/GPa)
#
#
# Indices 1 2 3 4 5 6 
#
# 1 0.012842 -0.006886 0.000274 0.000000 0.003397 0.000000
# 2 -0.006886 0.030016 -0.002956 0.000000 -0.006875 0.000000
# 3 0.000274 -0.002956 0.016059 0.000000 0.004126 0.000000
# 4 0.000000 0.000000 0.000000 0.035480 0.000000 -0.019558
# 5 0.003397 -0.006875 0.004126 0.000000 0.040368 0.000000
# 6 0.000000 0.000000 0.000000 -0.019558 0.000000 -0.030096
#
#
# Mechanical properties :
#
#
# Convention : Reuss Voigt Hill
#
# Bulk Modulus (GPa) = 25.13794 27.97036 26.55415
# Shear Modulus (GPa) = 36.47858 15.55862 26.01860
#
# Velocity S-wave (km/s) = 4.28196 2.79646 3.61631
# Velocity P-wave (km/s) = 6.08949 4.94830 5.54831
#
# Compressibility (1/GPa) = 0.03978051
#
# Stress axis : x y z
#
# Youngs Moduli (GPa) = 77.86845 33.31548 62.26980
#
# Poissons Ratio (x) = 0.22940 -0.01704
# Poissons Ratio (y) = 0.53619 0.18408
# Poissons Ratio (z) = -0.02131 0.09849
#
# Static dielectric constant tensor:
#      x y z
#    x 1.735740 0.000000 -0.003940 
#    y 0.000000 1.687640 0.000000 
#    z -0.003940 0.000000 1.708650 
# 
# From -- ./inp_files/119921.got.cif
#   From: 2010.05.17/outbox.cif.g08.bks.cpg/sg15_60_cif.got.tgz:119921.got - 2010.06.03 18:47:42.
