data_PCOD9275246
_publ_section_title
;
Structure prediction by ZEFSAII (Michael W. Deem and Ramdas Pophale) SiO2 
 PCOD9275246
Probable space group: C 2/C
;
_chemical_formula_sum "Si O2"
_cell_formula_units_Z 48
_cell_length_a 14.391114
_cell_length_b 24.189684
_cell_length_c 9.225464
_cell_angle_alpha 90.000000
_cell_angle_beta 140.689252
_cell_angle_gamma 90.000000
_cell_volume 2034.591787
_symmetry_space_group_name_H-M "C 2/C"
_symmetry_group_IT_number 15
_symmetry_cell_setting 'monoclinic'
loop_
_space_group_symop_operation_xyz
x,y,z
-x,y,1/2-z
-x,-y,-z
x,-y,1/2+z
1/2+x,1/2+y,z
1/2-x,1/2+y,1/2-z
1/2-x,1/2-y,-z
1/2+x,1/2-y,1/2+z
loop_
_atom_site_type_symbol
_atom_site_label
_atom_site_fract_x
_atom_site_fract_y
_atom_site_fract_z
Si Si1 0.952540 0.092643 0.531193
Si Si2 0.187605 0.686924 0.555033
Si Si3 0.928202 0.738736 0.376932
Si Si4 0.186506 0.349961 0.566979
Si Si5 0.893748 0.396718 0.318335
Si Si6 0.864297 0.969512 0.473389
O O1 0.843250 0.134803 0.321486
O O2 0.089399 0.071343 0.601196
O O3 0.865875 0.033923 0.438676
O O4 0.000000 0.109278 0.750000
O O5 0.147121 0.700580 0.340953
O O6 0.357276 0.701264 0.780759
O O7 0.130478 0.630170 0.553078
O O8 0.096651 0.732947 0.537735
O O9 0.881938 0.707990 0.466140
O O10 0.184596 0.355864 0.392374
O O11 0.064120 0.393739 0.481061
O O12 0.799206 0.451599 0.181124
O O13 0.000000 0.961918 0.750000
#
# Coordination Sequence:
#
# PCOD9275246 Si02
#       6
#     8   8   8   8   8   8
#     4  10  22  37  58  84 113 147 187 235 279 329
#     4   9  19  36  55  78 109 147 180 229 279 325
#     4   9  19  36  54  79 112 140 186 230 273 330
#     4  10  21  38  56  84 113 148 187 229 278 333
#     4  10  21  37  59  80 115 150 184 229 278 335
#     4  10  20  39  58  81 115 149 186 230 281 332
#
# _framework density 23.591956
#
# number of rings (size 3 to 8) (size 9 to 14) (size 15 to 20)
#    0.000    2.333    1.667    0.000    2.333    2.667 
#    3.000    0.000    0.000    0.000    0.000    0.000 
#    0.000    0.000    0.000    0.000    0.000    0.000 
#
# Total GULP energy -133937.520660 kJ/mol
# GULP energy per Si atom -5580.730027 kJ/mol
# Density = 2.353826 g / cm^3
# Si number density = 23.591956 Si / 1000 Ang^3
#
#
#
# Elastic Constant Matrix: (Units=GPa)
#
#
# Indices 1 2 3 4 5 6 
#
# 1 26.0589 -2.6706 6.5805 0.0000 1.2719 0.0000
# 2 -2.6706 29.9940 1.5387 0.0000 4.0664 0.0000
# 3 6.5805 1.5387 86.8460 0.0000 9.5690 0.0000
# 4 0.0000 0.0000 0.0000 20.1828 0.0000 12.6864
# 5 1.2719 4.0664 9.5690 0.0000 47.8764 0.0000
# 6 0.0000 0.0000 0.0000 12.6864 0.0000 27.6987
#
#
#
# Elastic Compliance Matrix: (Units=1/GPa)
#
#
# Indices 1 2 3 4 5 6 
#
# 1 0.039552 0.003780 -0.002978 0.000000 -0.000777 0.000000
# 2 0.003780 0.034097 -0.000573 0.000000 -0.002882 0.000000
# 3 -0.002978 -0.000573 0.012001 0.000000 -0.002271 0.000000
# 4 0.000000 0.000000 0.000000 0.069579 0.000000 -0.031868
# 5 -0.000777 -0.002882 -0.002271 0.000000 0.021606 0.000000
# 6 0.000000 0.000000 0.000000 -0.031868 0.000000 0.050699
#
#
# Mechanical properties :
#
#
# Convention : Reuss Voigt Hill
#
# Bulk Modulus (GPa) = 11.61362 17.08846 14.35104
# Shear Modulus (GPa) = 19.54818 28.31493 23.93156
#
# Velocity S-wave (km/s) = 2.88166 3.46814 3.18841
# Velocity P-wave (km/s) = 4.00066 4.82663 4.43293
#
# Compressibility (1/GPa) = 0.08610581
#
# Stress axis : x y z
#
# Youngs Moduli (GPa) = 25.28326 29.32846 83.32881
#
# Poissons Ratio (x) = -0.11085 0.24818
# Poissons Ratio (y) = -0.09556 0.04774
# Poissons Ratio (z) = 0.07530 0.01680
#
# Static dielectric constant tensor:
#      x y z
#    x 1.910450 0.000000 0.001280 
#    y 0.000000 1.876120 0.000000 
#    z 0.001280 0.000000 1.905050 
# 
# From -- ./inp_files/33781.got.cif
#   From: 2010.05.17/outbox.cif.g08.bks.cpg/sg15_17_cif.got.tgz:33781.got - 2010.06.03 18:47:42.
