data_PCOD9275063
_publ_section_title
;
Structure prediction by ZEFSAII (Michael W. Deem and Ramdas Pophale) SiO2 
 PCOD9275063
Probable space group: C 2/C
;
_chemical_formula_sum "Si O2"
_cell_formula_units_Z 60
_cell_length_a 19.653819
_cell_length_b 7.192492
_cell_length_c 18.264022
_cell_angle_alpha 90.000000
_cell_angle_beta 104.071988
_cell_angle_gamma 90.000000
_cell_volume 2504.323722
_symmetry_space_group_name_H-M "C 2/C"
_symmetry_group_IT_number 15
_symmetry_cell_setting 'monoclinic'
loop_
_space_group_symop_operation_xyz
x,y,z
-x,y,1/2-z
-x,-y,-z
x,-y,1/2+z
1/2+x,1/2+y,z
1/2-x,1/2+y,1/2-z
1/2-x,1/2-y,-z
1/2+x,1/2-y,1/2+z
loop_
_atom_site_type_symbol
_atom_site_label
_atom_site_fract_x
_atom_site_fract_y
_atom_site_fract_z
Si Si1 0.162952 0.716390 0.016930
Si Si2 0.305625 0.707205 0.675187
Si Si3 0.750000 0.750000 0.000000
Si Si4 0.013808 0.800007 0.041088
Si Si5 0.631916 0.836174 0.042645
Si Si6 0.562265 0.595495 0.711237
Si Si7 0.205542 0.225423 0.365808
Si Si8 0.839236 0.744997 0.792241
O O1 0.084566 0.724121 0.023838
O O2 0.183154 0.493721 0.020422
O O3 0.216809 0.789917 0.091670
O O4 0.169399 0.781184 0.935721
O O5 0.296339 0.766404 0.589362
O O6 0.381318 0.725122 0.732410
O O7 0.293751 0.482585 0.666251
O O8 0.241703 0.785107 0.706927
O O9 0.821434 0.834345 0.973179
O O10 0.027708 0.817681 0.130512
O O11 0.945478 0.679638 0.006549
O O12 0.000000 0.000000 0.000000
O O13 0.634000 0.867766 0.129913
O O14 0.500000 0.540823 0.750000
O O15 0.607352 0.417679 0.696629
O O16 0.166647 0.337138 0.291378
#
# Coordination Sequence:
#
# PCOD9275063 Si02
#       8
#     8   8   4   8   8   8   8   8
#     4  11  24  43  65  98 135 174 229 283 336 409
#     4  10  21  40  66 101 134 177 228 279 336 417
#     4  10  20  38  68  90 134 166 222 276 332 394
#     4  12  26  41  68  95 134 186 230 275 347 406
#     4  11  23  43  63 100 133 179 222 280 341 409
#     4  11  24  42  68 101 139 179 234 285 340 418
#     4  10  22  40  69  98 130 174 228 281 338 406
#     4  10  21  40  65  96 135 173 221 288 340 401
#
# _framework density 23.958563999999999
#
# number of rings (size 3 to 8) (size 9 to 14) (size 15 to 20)
#    0.000    1.333    4.000    2.000    5.600    0.000 
#    9.600    1.333    0.000    0.000    0.000    0.000 
#    0.000    0.000    0.000    0.000    0.000    0.000 
#
# Total GULP energy -167204.942884 kJ/mol
# GULP energy per Si atom -5573.498096 kJ/mol
# Density = 2.390403 g / cm^3
# Si number density = 23.958564 Si / 1000 Ang^3
#
#
#
# Elastic Constant Matrix: (Units=GPa)
#
#
# Indices 1 2 3 4 5 6 
#
# 1 129.6966 10.6844 63.2472 0.0000 5.5468 0.0000
# 2 10.6844 46.6546 27.5585 0.0000 0.4789 0.0000
# 3 63.2472 27.5585 230.7165 0.0000 24.8187 0.0000
# 4 0.0000 0.0000 0.0000 13.3919 0.0000 4.5965
# 5 5.5468 0.4789 24.8187 0.0000 35.7066 0.0000
# 6 0.0000 0.0000 0.0000 4.5965 0.0000 4.2981
#
#
#
# Elastic Compliance Matrix: (Units=1/GPa)
#
#
# Indices 1 2 3 4 5 6 
#
# 1 0.008921 -0.000627 -0.002402 0.000000 0.000292 0.000000
# 2 -0.000627 0.023205 -0.002785 0.000000 0.001722 0.000000
# 3 -0.002402 -0.002785 0.005708 0.000000 -0.003557 0.000000
# 4 0.000000 0.000000 0.000000 0.117975 0.000000 -0.126165
# 5 0.000292 0.001722 -0.003557 0.000000 0.030410 0.000000
# 6 0.000000 0.000000 0.000000 -0.126165 0.000000 0.367585
#
#
# Mechanical properties :
#
#
# Convention : Reuss Voigt Hill
#
# Bulk Modulus (GPa) = 38.15977 67.78310 52.97144
# Shear Modulus (GPa) = 8.70825 31.05114 19.87970
#
# Velocity S-wave (km/s) = 1.90856 3.60395 2.88367
# Velocity P-wave (km/s) = 4.56276 6.75805 5.76585
#
# Compressibility (1/GPa) = 0.02620561
#
# Stress axis : x y z
#
# Youngs Moduli (GPa) = 112.09718 43.09377 175.18899
#
# Poissons Ratio (x) = 0.02702 0.42081
# Poissons Ratio (y) = 0.07030 0.48793
# Poissons Ratio (z) = 0.26926 0.12002
#
# Static dielectric constant tensor:
#      x y z
#    x 1.800240 0.000000 0.017800 
#    y 0.000000 1.806320 0.000000 
#    z 0.017800 0.000000 1.898620 
# 
# From -- ./inp_files/213925.got.cif
#   From: 2010.05.17/outbox.cif.g08.bks.cpg/sg15_107_cif.got.tgz:213925.got - 2010.06.03 18:47:42.
