data_PCOD9275860
_publ_section_title
;
Structure prediction by ZEFSAII (Michael W. Deem and Ramdas Pophale) SiO2 
 PCOD9275860
Probable space group: C 2/C
;
_chemical_formula_sum "Si O2"
_cell_formula_units_Z 60
_cell_length_a 19.730407
_cell_length_b 11.838603
_cell_length_c 11.412800
_cell_angle_alpha 90.000000
_cell_angle_beta 86.905729
_cell_angle_gamma 90.000000
_cell_volume 2661.920470
_symmetry_space_group_name_H-M "C 2/C"
_symmetry_group_IT_number 15
_symmetry_cell_setting 'monoclinic'
loop_
_space_group_symop_operation_xyz
x,y,z
-x,y,1/2-z
-x,-y,-z
x,-y,1/2+z
1/2+x,1/2+y,z
1/2-x,1/2+y,1/2-z
1/2-x,1/2-y,-z
1/2+x,1/2-y,1/2+z
loop_
_atom_site_type_symbol
_atom_site_label
_atom_site_fract_x
_atom_site_fract_y
_atom_site_fract_z
Si Si1 0.500000 0.032226 0.250000
Si Si2 0.946118 0.686217 0.064793
Si Si3 0.246629 0.995503 0.422947
Si Si4 0.385405 0.874281 0.324282
Si Si5 0.166589 0.080408 0.630808
Si Si6 0.817237 0.848111 0.766239
Si Si7 0.016191 0.919854 0.109160
Si Si8 0.691090 0.271255 0.347615
O O1 0.496711 0.106935 0.132604
O O2 0.432686 0.957846 0.248730
O O3 0.870446 0.688125 0.124972
O O4 0.970590 0.811441 0.089259
O O5 0.932136 0.661244 0.930707
O O6 0.318458 0.941738 0.377647
O O7 0.194473 0.888754 0.418999
O O8 0.232900 0.050843 0.549218
O O9 0.222612 0.095608 0.338392
O O10 0.364374 0.762204 0.253693
O O11 0.095037 0.115355 0.583577
O O12 0.187458 0.176871 0.718596
O O13 0.146227 0.958620 0.687836
O O14 0.759261 0.799011 0.857109
O O15 0.000000 0.951491 0.250000
O O16 0.000000 0.000000 0.000000
#
# Coordination Sequence:
#
# PCOD9275860 Si02
#       8
#     4   8   8   8   8   8   8   8
#     4  12  26  46  68  98 136 186 246 290 356 422
#     4  12  23  47  69  94 140 189 237 289 362 428
#     4  10  22  39  65  97 130 169 223 296 354 425
#     4  11  25  43  69  99 132 188 237 291 355 440
#     4  11  22  39  63  96 132 173 228 285 359 428
#     4  10  22  40  62  96 133 168 225 293 358 420
#     4  12  25  43  71 108 145 189 235 296 364 438
#     4  10  20  39  65  91 126 173 220 276 355 426
#
# _framework density 22.540119000000001
#
# number of rings (size 3 to 8) (size 9 to 14) (size 15 to 20)
#    0.000    1.067    2.000    4.400    1.867    5.867 
#    2.400    1.333    0.000    0.000    0.000    0.000 
#    0.000    0.000    0.000    0.000    0.000    0.000 
#
# Total GULP energy -167311.084706 kJ/mol
# GULP energy per Si atom -5577.036157 kJ/mol
# Density = 2.248882 g / cm^3
# Si number density = 22.540119 Si / 1000 Ang^3
#
#
#
# Elastic Constant Matrix: (Units=GPa)
#
#
# Indices 1 2 3 4 5 6 
#
# 1 63.3447 13.0532 -6.8794 0.0000 6.0184 0.0000
# 2 13.0532 76.3942 36.5889 0.0000 8.3856 0.0000
# 3 -6.8794 36.5889 74.3884 0.0000 17.4196 0.0000
# 4 0.0000 0.0000 0.0000 30.3458 0.0000 4.5976
# 5 6.0184 8.3856 17.4196 0.0000 29.9655 0.0000
# 6 0.0000 0.0000 0.0000 4.5976 0.0000 31.4000
#
#
#
# Elastic Compliance Matrix: (Units=1/GPa)
#
#
# Indices 1 2 3 4 5 6 
#
# 1 0.017920 -0.005061 0.005391 0.000000 -0.005317 0.000000
# 2 -0.005061 0.018553 -0.009974 0.000000 0.001622 0.000000
# 3 0.005391 -0.009974 0.021354 0.000000 -0.010705 0.000000
# 4 0.000000 0.000000 0.000000 0.033701 0.000000 -0.004935
# 5 -0.005317 0.001622 -0.010705 0.000000 0.040209 0.000000
# 6 0.000000 0.000000 0.000000 -0.004935 0.000000 0.032570
#
#
# Mechanical properties :
#
#
# Convention : Reuss Voigt Hill
#
# Bulk Modulus (GPa) = 25.94548 33.29474 29.62011
# Shear Modulus (GPa) = 25.45301 29.76655 27.60978
#
# Velocity S-wave (km/s) = 3.36405 3.63795 3.50368
# Velocity P-wave (km/s) = 5.15993 5.69646 5.43482
#
# Compressibility (1/GPa) = 0.03854237
#
# Stress axis : x y z
#
# Youngs Moduli (GPa) = 55.80305 53.89828 46.82935
#
# Poissons Ratio (x) = 0.27275 -0.25248
# Poissons Ratio (y) = 0.28239 0.46706
# Poissons Ratio (z) = -0.30086 0.53756
#
# Static dielectric constant tensor:
#      x y z
#    x 47.776920 0.000000 48.652910 
#    y 0.000000 1.812830 0.000000 
#    z 48.652910 0.000000 53.648920 
# 
# From -- ./inp_files/111649.got.cif
#   From: 2010.05.17/outbox.cif.g08.bks.cpg/sg15_56_cif.got.tgz:111649.got - 2010.06.03 18:47:42.
