data_PCOD9275289
_publ_section_title
;
Structure prediction by ZEFSAII (Michael W. Deem and Ramdas Pophale) SiO2 
 PCOD9275289
Probable space group: C 2/C
;
_chemical_formula_sum "Si O2"
_cell_formula_units_Z 60
_cell_length_a 22.905567
_cell_length_b 8.511872
_cell_length_c 17.531783
_cell_angle_alpha 90.000000
_cell_angle_beta 119.501866
_cell_angle_gamma 90.000000
_cell_volume 2974.959040
_symmetry_space_group_name_H-M "C 2/C"
_symmetry_group_IT_number 15
_symmetry_cell_setting 'monoclinic'
loop_
_space_group_symop_operation_xyz
x,y,z
-x,y,1/2-z
-x,-y,-z
x,-y,1/2+z
1/2+x,1/2+y,z
1/2-x,1/2+y,1/2-z
1/2-x,1/2-y,-z
1/2+x,1/2-y,1/2+z
loop_
_atom_site_type_symbol
_atom_site_label
_atom_site_fract_x
_atom_site_fract_y
_atom_site_fract_z
Si Si1 0.500000 0.785242 0.750000
Si Si2 0.364392 0.981047 0.649466
Si Si3 0.460812 0.551595 0.861377
Si Si4 0.108261 0.992446 0.955533
Si Si5 0.742494 0.824975 0.803003
Si Si6 0.578481 0.686049 0.284058
Si Si7 0.691218 0.190647 0.517629
Si Si8 0.331357 0.370738 0.365370
O O1 0.435225 0.891565 0.694715
O O2 0.482717 0.672950 0.809543
O O3 0.315335 0.896365 0.678703
O O4 0.336295 0.960308 0.545047
O O5 0.377440 0.158654 0.683016
O O6 0.532336 0.494199 0.938886
O O7 0.423945 0.405364 0.796870
O O8 0.405719 0.631672 0.878093
O O9 0.102954 0.932537 0.865838
O O10 0.156381 0.879753 0.036086
O O11 0.136956 0.168342 0.980250
O O12 0.778969 0.689964 0.877909
O O13 0.711840 0.759775 0.705347
O O14 0.794945 0.964284 0.823721
O O15 0.500000 0.725239 0.250000
O O16 0.750000 0.250000 0.500000
#
# Coordination Sequence:
#
# PCOD9275289 Si02
#       8
#     4   8   8   8   8   8   8   8
#     4  12  18  34  70  90 110 158 204 250 302 342
#     4  11  20  37  61  91 119 149 201 257 299 348
#     4  11  20  38  64  88 116 158 200 251 298 361
#     4  10  20  39  59  89 118 153 203 243 311 355
#     4  10  24  39  56  82 120 165 201 239 302 365
#     4  10  21  34  60  92 120 141 191 253 298 351
#     4   9  19  36  58  82 113 153 202 244 289 363
#     4  11  24  40  59  84 122 163 200 245 301 370
#
# _framework density 20.168346
#
# number of rings (size 3 to 8) (size 9 to 14) (size 15 to 20)
#    0.000    1.600    5.333    0.400    3.733    1.067 
#    0.000    6.000    0.000    2.400    0.000    0.000 
#    0.000    0.000    0.000    0.000    0.000    0.000 
#
# Total GULP energy -167350.453922 kJ/mol
# GULP energy per Si atom -5578.348464 kJ/mol
# Density = 2.012244 g / cm^3
# Si number density = 20.168346 Si / 1000 Ang^3
#
#
#
# Elastic Constant Matrix: (Units=GPa)
#
#
# Indices 1 2 3 4 5 6 
#
# 1 55.7044 -3.0934 5.4085 0.0000 9.0771 0.0000
# 2 -3.0934 39.7665 6.1656 0.0000 7.1200 0.0000
# 3 5.4085 6.1656 78.6698 0.0000 22.1819 0.0000
# 4 0.0000 0.0000 0.0000 25.1199 0.0000 8.0631
# 5 9.0771 7.1200 22.1819 0.0000 20.0986 0.0000
# 6 0.0000 0.0000 0.0000 8.0631 0.0000 18.8199
#
#
#
# Elastic Compliance Matrix: (Units=1/GPa)
#
#
# Indices 1 2 3 4 5 6 
#
# 1 0.019963 0.003464 0.001806 0.000000 -0.012236 0.000000
# 2 0.003464 0.027489 0.001153 0.000000 -0.012575 0.000000
# 3 0.001806 0.001153 0.018644 0.000000 -0.021801 0.000000
# 4 0.000000 0.000000 0.000000 0.046157 0.000000 -0.019775
# 5 -0.012236 -0.012575 -0.021801 0.000000 0.083796 0.000000
# 6 0.000000 0.000000 0.000000 -0.019775 0.000000 0.061607
#
#
# Mechanical properties :
#
#
# Convention : Reuss Voigt Hill
#
# Bulk Modulus (GPa) = 12.66759 21.23358 16.95059
# Shear Modulus (GPa) = 18.44179 23.85167 21.14673
#
# Velocity S-wave (km/s) = 3.02717 3.44267 3.24158
# Velocity P-wave (km/s) = 4.30267 5.13358 4.73638
#
# Compressibility (1/GPa) = 0.07894160
#
# Stress axis : x y z
#
# Youngs Moduli (GPa) = 50.09326 36.37828 53.63728
#
# Poissons Ratio (x) = -0.12600 -0.09688
# Poissons Ratio (y) = -0.17351 -0.06185
# Poissons Ratio (z) = -0.09048 -0.04195
#
# Static dielectric constant tensor:
#      x y z
#    x 1.740760 0.000000 -0.002880 
#    y 0.000000 1.716210 0.000000 
#    z -0.002880 0.000000 1.765400 
# 
# From -- ./inp_files/214305.got.cif
#   From: 2010.05.17/outbox.cif.g08.bks.cpg/sg15_108_cif.got.tgz:214305.got - 2010.06.03 18:47:42.
