data_PCOD9275753
_publ_section_title
;
Structure prediction by ZEFSAII (Michael W. Deem and Ramdas Pophale) SiO2 
 PCOD9275753
Probable space group: C 2/C
;
_chemical_formula_sum "Si O2"
_cell_formula_units_Z 64
_cell_length_a 13.805967
_cell_length_b 19.238571
_cell_length_c 28.249090
_cell_angle_alpha 90.000000
_cell_angle_beta 155.859654
_cell_angle_gamma 90.000000
_cell_volume 3068.590246
_symmetry_space_group_name_H-M "C 2/C"
_symmetry_group_IT_number 15
_symmetry_cell_setting 'monoclinic'
loop_
_space_group_symop_operation_xyz
x,y,z
-x,y,1/2-z
-x,-y,-z
x,-y,1/2+z
1/2+x,1/2+y,z
1/2-x,1/2+y,1/2-z
1/2-x,1/2-y,-z
1/2+x,1/2-y,1/2+z
loop_
_atom_site_type_symbol
_atom_site_label
_atom_site_fract_x
_atom_site_fract_y
_atom_site_fract_z
Si Si1 0.178889 0.431737 0.236262
Si Si2 0.112990 0.782159 0.193974
Si Si3 0.056422 0.159112 0.140731
Si Si4 0.492529 0.068330 0.369933
Si Si5 0.970843 0.945085 0.029064
Si Si6 0.683828 0.303287 0.872112
Si Si7 0.749245 0.856160 0.411338
Si Si8 0.411958 0.191302 0.017828
O O1 0.287125 0.359802 0.265834
O O2 0.082094 0.488223 0.155952
O O3 0.380609 0.466373 0.358645
O O4 0.961434 0.409894 0.173199
O O5 0.312383 0.733492 0.305753
O O6 0.047131 0.744582 0.114266
O O7 0.859296 0.784861 0.106908
O O8 0.876576 0.162993 0.104755
O O9 0.266266 0.107241 0.247638
O O10 0.918475 0.140794 0.032148
O O11 0.704714 0.067795 0.426562
O O12 0.576117 0.116124 0.450884
O O13 0.096143 0.875963 0.065017
O O14 0.000000 0.000000 0.000000
O O15 0.500000 0.328810 0.750000
O O16 0.646501 0.220822 0.861895
O O17 0.943783 0.312122 0.966349
#
# Coordination Sequence:
#
# PCOD9275753 Si02
#       8
#     8   8   8   8   8   8   8   8
#     4  12  23  40  67  93 137 177 217 268 341 402
#     4  10  20  39  64  91 127 166 218 271 336 388
#     4  11  25  42  64  97 134 170 221 284 337 392
#     4  11  24  40  63  96 134 174 217 268 332 403
#     4  12  24  40  61  98 136 174 218 261 338 419
#     4  12  21  40  67  93 118 172 231 272 322 393
#     4  12  25  38  63  99 135 169 211 279 342 402
#     4  10  21  40  66  95 126 173 227 278 323 396
#
# _framework density 20.856483000000001
#
# number of rings (size 3 to 8) (size 9 to 14) (size 15 to 20)
#    0.000    0.750    6.250    3.000    3.500    1.500 
#    0.000    0.000    0.000    4.500    0.000    0.000 
#    0.000    0.000    0.000    0.000    0.000    0.000 
#
# Total GULP energy -178939.648223 kJ/mol
# GULP energy per Si atom -5591.864007 kJ/mol
# Density = 2.080901 g / cm^3
# Si number density = 20.856483 Si / 1000 Ang^3
#
#
#
# Elastic Constant Matrix: (Units=GPa)
#
#
# Indices 1 2 3 4 5 6 
#
# 1 83.2508 20.2640 45.5715 0.0010 29.5922 0.0005
# 2 20.2640 92.3549 6.7860 0.0009 13.6161 -0.0006
# 3 45.5715 6.7860 65.6087 0.0004 23.6111 -0.0037
# 4 0.0010 0.0009 0.0004 23.4828 0.0010 2.4449
# 5 29.5922 13.6161 23.6111 0.0010 34.4586 0.0005
# 6 0.0005 -0.0006 -0.0037 2.4449 0.0005 30.3309
#
#
#
# Elastic Compliance Matrix: (Units=1/GPa)
#
#
# Indices 1 2 3 4 5 6 
#
# 1 0.022846 -0.002597 -0.011825 0.000000 -0.010491 -0.000002
# 2 -0.002597 0.011810 0.001937 0.000000 -0.003763 0.000001
# 3 -0.011825 0.001937 0.026381 0.000000 -0.008687 0.000004
# 4 0.000000 0.000000 0.000000 0.042945 -0.000001 -0.003462
# 5 -0.010491 -0.003763 -0.008687 -0.000001 0.045469 -0.000002
# 6 -0.000002 0.000001 0.000004 -0.003462 -0.000002 0.033249
#
#
# Mechanical properties :
#
#
# Convention : Reuss Voigt Hill
#
# Bulk Modulus (GPa) = 27.72580 42.93972 35.33276
# Shear Modulus (GPa) = 22.75909 28.89399 25.82654
#
# Velocity S-wave (km/s) = 3.30695 3.72610 3.52276
# Velocity P-wave (km/s) = 5.28240 6.25657 5.79001
#
# Compressibility (1/GPa) = 0.03606750
#
# Stress axis : x y z
#
# Youngs Moduli (GPa) = 43.77138 84.67263 37.90592
#
# Poissons Ratio (x) = 0.21991 0.44822
# Poissons Ratio (y) = 0.11368 -0.07342
# Poissons Ratio (z) = 0.51758 -0.16399
#
# Static dielectric constant tensor:
#      x y z
#    x 1.722460 0.000000 0.014260 
#    y 0.000000 1.790540 0.000000 
#    z 0.014260 0.000000 1.747130 
# 
# From -- ./inp_files/314529.got.cif
#   From: 2010.05.17/outbox.cif.g08.bks.cpg/sg15_158_cif.got.tgz:314529.got - 2010.06.03 18:47:42.
