data_PCOD9275412
_publ_section_title
;
Structure prediction by ZEFSAII (Michael W. Deem and Ramdas Pophale) SiO2 
 PCOD9275412
Probable space group: C 2/C
;
_chemical_formula_sum "Si O2"
_cell_formula_units_Z 48
_cell_length_a 19.908258
_cell_length_b 9.077939
_cell_length_c 17.324893
_cell_angle_alpha 90.000000
_cell_angle_beta 124.293795
_cell_angle_gamma 90.000000
_cell_volume 2586.752557
_symmetry_space_group_name_H-M "C 2/C"
_symmetry_group_IT_number 15
_symmetry_cell_setting 'monoclinic'
loop_
_space_group_symop_operation_xyz
x,y,z
-x,y,1/2-z
-x,-y,-z
x,-y,1/2+z
1/2+x,1/2+y,z
1/2-x,1/2+y,1/2-z
1/2-x,1/2-y,-z
1/2+x,1/2-y,1/2+z
loop_
_atom_site_type_symbol
_atom_site_label
_atom_site_fract_x
_atom_site_fract_y
_atom_site_fract_z
Si Si1 0.751426 0.461019 0.418878
Si Si2 0.696482 0.791644 0.643442
Si Si3 0.683628 0.901939 0.380062
Si Si4 0.757142 0.845561 0.848967
Si Si5 0.086626 0.054202 0.527486
Si Si6 0.914162 0.881481 0.655547
O O1 0.801871 0.541048 0.383558
O O2 0.787681 0.523254 0.522011
O O3 0.756372 0.287776 0.408838
O O4 0.658251 0.518140 0.356186
O O5 0.747193 0.706092 0.609673
O O6 0.741400 0.782350 0.753882
O O7 0.612570 0.703985 0.588427
O O8 0.609745 0.790268 0.345396
O O9 0.685048 0.037777 0.321493
O O10 0.841787 0.935223 0.909257
O O11 0.083825 0.086850 0.434368
O O12 0.000000 0.000000 0.500000
O O13 0.000000 0.913819 0.750000
#
# Coordination Sequence:
#
# PCOD9275412 Si02
#       6
#     8   8   8   8   8   8
#     4  11  19  40  65  88 116 160 213 254 295 359
#     4  10  20  39  61  89 122 163 202 246 304 373
#     4  10  20  40  61  85 118 161 209 245 293 367
#     4  11  23  36  66  94 119 157 209 258 302 363
#     4  11  24  42  59  93 128 159 200 256 314 365
#     4  11  23  39  63  87 119 165 201 246 309 365
#
# _framework density 18.556084999999999
#
# number of rings (size 3 to 8) (size 9 to 14) (size 15 to 20)
#    0.000    1.333    5.000    3.500    7.000    0.000 
#    0.000    3.333    0.000    0.000    0.000    0.000 
#    0.000    0.000    0.000    0.000    0.000    0.000 
#
# Total GULP energy -133832.897630 kJ/mol
# GULP energy per Si atom -5576.370735 kJ/mol
# Density = 1.851385 g / cm^3
# Si number density = 18.556085 Si / 1000 Ang^3
#
#
#
# Elastic Constant Matrix: (Units=GPa)
#
#
# Indices 1 2 3 4 5 6 
#
# 1 87.0730 39.1891 35.6039 0.0000 11.5202 0.0000
# 2 39.1891 91.7294 8.8533 0.0000 4.1801 0.0000
# 3 35.6039 8.8533 97.0130 0.0000 4.3240 0.0000
# 4 0.0000 0.0000 0.0000 18.0277 0.0000 0.4717
# 5 11.5202 4.1801 4.3240 0.0000 29.7174 0.0000
# 6 0.0000 0.0000 0.0000 0.4717 0.0000 27.3495
#
#
#
# Elastic Compliance Matrix: (Units=1/GPa)
#
#
# Indices 1 2 3 4 5 6 
#
# 1 0.017429 -0.006681 -0.005564 0.000000 -0.005007 0.000000
# 2 -0.006681 0.013618 0.001187 0.000000 0.000502 0.000000
# 3 -0.005564 0.001187 0.012232 0.000000 0.000210 0.000000
# 4 0.000000 0.000000 0.000000 0.055495 0.000000 -0.000957
# 5 -0.005007 0.000502 0.000210 0.000000 0.035490 0.000000
# 6 0.000000 0.000000 0.000000 -0.000957 0.000000 0.036580
#
#
# Mechanical properties :
#
#
# Convention : Reuss Voigt Hill
#
# Bulk Modulus (GPa) = 47.25007 49.23421 48.24214
# Shear Modulus (GPa) = 24.99810 27.83020 26.41415
#
# Velocity S-wave (km/s) = 3.67436 3.87691 3.77699
# Velocity P-wave (km/s) = 6.59696 6.82868 6.71382
#
# Compressibility (1/GPa) = 0.02116399
#
# Stress axis : x y z
#
# Youngs Moduli (GPa) = 57.37594 73.42962 81.75237
#
# Poissons Ratio (x) = 0.49058 0.45483
# Poissons Ratio (y) = 0.38332 -0.09702
# Poissons Ratio (z) = 0.31921 -0.08714
#
# Static dielectric constant tensor:
#      x y z
#    x 1.659530 0.000000 -0.029750 
#    y 0.000000 1.682840 0.000000 
#    z -0.029750 0.000000 1.636720 
# 
# From -- ./inp_files/213545.got.cif
#   From: 2010.05.17/outbox.cif.g08.bks.cpg/sg15_107_cif.got.tgz:213545.got - 2010.06.03 18:47:42.
