data_PCOD9275131
_publ_section_title
;
Structure prediction by ZEFSAII (Michael W. Deem and Ramdas Pophale) SiO2 
 PCOD9275131
Probable space group: C 2/C
;
_chemical_formula_sum "Si O2"
_cell_formula_units_Z 60
_cell_length_a 18.459098
_cell_length_b 17.014203
_cell_length_c 12.738496
_cell_angle_alpha 90.000000
_cell_angle_beta 42.398153
_cell_angle_gamma 90.000000
_cell_volume 2697.612750
_symmetry_space_group_name_H-M "C 2/C"
_symmetry_group_IT_number 15
_symmetry_cell_setting 'monoclinic'
loop_
_space_group_symop_operation_xyz
x,y,z
-x,y,1/2-z
-x,-y,-z
x,-y,1/2+z
1/2+x,1/2+y,z
1/2-x,1/2+y,1/2-z
1/2-x,1/2-y,-z
1/2+x,1/2-y,1/2+z
loop_
_atom_site_type_symbol
_atom_site_label
_atom_site_fract_x
_atom_site_fract_y
_atom_site_fract_z
Si Si1 0.314798 0.454368 0.051693
Si Si2 0.935449 0.214375 0.109662
Si Si3 0.434581 0.974910 0.224291
Si Si4 0.000000 0.942492 0.250000
Si Si5 0.364750 0.279537 0.917303
Si Si6 0.509337 0.877285 0.944460
Si Si7 0.697766 0.212266 0.301359
Si Si8 0.124359 0.875702 0.312351
O O1 0.413876 0.509303 0.912228
O O2 0.345530 0.369986 0.968684
O O3 0.195966 0.477416 0.134550
O O4 0.314390 0.438779 0.179039
O O5 0.935410 0.227093 0.235922
O O6 0.815897 0.190352 0.207226
O O7 0.958981 0.290462 0.010401
O O8 0.016506 0.146268 0.991786
O O9 0.500000 0.936778 0.250000
O O10 0.494378 0.058847 0.142937
O O11 0.461822 0.922399 0.094542
O O12 0.079390 0.897953 0.246671
O O13 0.250000 0.250000 0.000000
O O14 0.370483 0.231200 0.020194
O O15 0.635959 0.858231 0.814093
O O16 0.691848 0.294053 0.242941
#
# Coordination Sequence:
#
# PCOD9275131 Si02
#       8
#     8   8   8   4   8   8   8   8
#     4  11  24  43  65  96 135 171 219 282 336 399
#     4  10  20  38  69  94 129 168 218 281 339 385
#     4  11  26  42  64  93 136 181 219 267 336 411
#     4  12  26  42  66  96 126 182 222 266 338 410
#     4   9  18  34  64  99 119 158 210 271 337 382
#     4  10  23  40  59  97 126 172 219 267 332 399
#     4   9  20  37  66  92 128 167 216 279 326 386
#     4  10  23  43  62  96 129 166 221 276 326 395
#
# _framework density 22.241887999999999
#
# number of rings (size 3 to 8) (size 9 to 14) (size 15 to 20)
#    0.000    1.867    0.000    3.600    7.467    6.933 
#    4.800    0.667    0.000    0.000    0.000    0.000 
#    0.000    0.000    0.000    0.000    0.000    0.000 
#
# Total GULP energy -167168.807709 kJ/mol
# GULP energy per Si atom -5572.293590 kJ/mol
# Density = 2.219126 g / cm^3
# Si number density = 22.241888 Si / 1000 Ang^3
#
#
#
# Elastic Constant Matrix: (Units=GPa)
#
#
# Indices 1 2 3 4 5 6 
#
# 1 82.4725 -4.3891 12.7677 0.0000 6.7923 0.0000
# 2 -4.3891 25.0226 8.8290 0.0000 10.2146 0.0000
# 3 12.7677 8.8290 40.0934 0.0000 -3.2484 0.0000
# 4 0.0000 0.0000 0.0000 20.1891 0.0000 3.9774
# 5 6.7923 10.2146 -3.2484 0.0000 31.0751 0.0000
# 6 0.0000 0.0000 0.0000 3.9774 0.0000 -26.6492
#
#
#
# Elastic Compliance Matrix: (Units=1/GPa)
#
#
# Indices 1 2 3 4 5 6 
#
# 1 0.014038 0.007294 -0.006575 0.000000 -0.006153 0.000000
# 2 0.007294 0.055870 -0.016382 0.000000 -0.021672 0.000000
# 3 -0.006575 -0.016382 0.031462 0.000000 0.010111 0.000000
# 4 0.000000 0.000000 0.000000 0.048117 0.000000 0.007181
# 5 -0.006153 -0.021672 0.010111 0.000000 0.041706 0.000000
# 6 0.000000 0.000000 0.000000 0.007181 0.000000 -0.036453
#
#
# Mechanical properties :
#
#
# Convention : Reuss Voigt Hill
#
# Bulk Modulus (GPa) = 14.27656 20.22263 17.24960
# Shear Modulus (GPa) = 23.87608 13.61504 18.74556
#
# Velocity S-wave (km/s) = 3.27994 2.47682 2.90626
# Velocity P-wave (km/s) = 4.55815 4.15829 4.36281
#
# Compressibility (1/GPa) = 0.07004490
#
# Stress axis : x y z
#
# Youngs Moduli (GPa) = 71.23434 17.89865 31.78404
#
# Poissons Ratio (x) = -0.13056 0.20899
# Poissons Ratio (y) = -0.51960 0.52068
# Poissons Ratio (z) = 0.46839 0.29321
#
# Static dielectric constant tensor:
#      x y z
#    x 1.904390 0.000000 0.016750 
#    y 0.000000 1.833140 0.000000 
#    z 0.016750 0.000000 1.849390 
# 
# From -- ./inp_files/113788.got.cif
#   From: 2010.05.17/outbox.cif.g08.bks.cpg/sg15_57_cif.got.tgz:113788.got - 2010.06.03 18:47:42.
