data_PCOD9275919
_publ_section_title
;
Structure prediction by ZEFSAII (Michael W. Deem and Ramdas Pophale) SiO2 
 PCOD9275919
Probable space group: C 2/C
;
_chemical_formula_sum "Si O2"
_cell_formula_units_Z 48
_cell_length_a 31.555471
_cell_length_b 6.043554
_cell_length_c 15.152923
_cell_angle_alpha 90.000000
_cell_angle_beta 127.356994
_cell_angle_gamma 90.000000
_cell_volume 2296.993442
_symmetry_space_group_name_H-M "C 2/C"
_symmetry_group_IT_number 15
_symmetry_cell_setting 'monoclinic'
loop_
_space_group_symop_operation_xyz
x,y,z
-x,y,1/2-z
-x,-y,-z
x,-y,1/2+z
1/2+x,1/2+y,z
1/2-x,1/2+y,1/2-z
1/2-x,1/2-y,-z
1/2+x,1/2-y,1/2+z
loop_
_atom_site_type_symbol
_atom_site_label
_atom_site_fract_x
_atom_site_fract_y
_atom_site_fract_z
Si Si1 0.572728 0.097163 0.521872
Si Si2 0.199907 0.396379 0.407634
Si Si3 0.820610 0.436542 0.434601
Si Si4 0.787493 0.726018 0.238854
Si Si5 0.467078 0.304047 0.410290
Si Si6 0.871952 0.071044 0.267105
O O1 0.617259 0.096577 0.503651
O O2 0.513936 0.175198 0.419842
O O3 0.599741 0.266035 0.626468
O O4 0.561305 0.863517 0.556261
O O5 0.250000 0.250000 0.500000
O O6 0.190697 0.560140 0.476533
O O7 0.204692 0.527188 0.321761
O O8 0.151517 0.226207 0.337293
O O9 0.807293 0.657297 0.360803
O O10 0.775472 0.274503 0.338459
O O11 0.823225 0.929726 0.247636
O O12 0.500000 0.500000 0.500000
O O13 0.418512 0.407198 0.295253
#
# Coordination Sequence:
#
# PCOD9275919 Si02
#       6
#     8   8   8   8   8   8
#     4  10  20  39  65  98 121 171 228 270 332 397
#     4  12  25  41  60  99 136 176 217 270 338 404
#     4  12  23  39  67  95 133 173 224 269 329 412
#     4  12  24  44  62  98 134 173 216 274 335 399
#     4   9  19  37  68  92 123 168 220 278 335 384
#     4  11  20  41  64  90 134 172 211 277 337 394
#
# _framework density 20.896882000000002
#
# number of rings (size 3 to 8) (size 9 to 14) (size 15 to 20)
#    0.000    1.000    5.000    2.500    0.000    0.000 
#    0.000    0.000    0.000   24.000    0.000    0.000 
#    0.000    0.000    0.000    0.000    0.000    0.000 
#
# Total GULP energy -133910.921860 kJ/mol
# GULP energy per Si atom -5579.621744 kJ/mol
# Density = 2.084932 g / cm^3
# Si number density = 20.896882 Si / 1000 Ang^3
#
#
#
# Elastic Constant Matrix: (Units=GPa)
#
#
# Indices 1 2 3 4 5 6 
#
# 1 111.5133 14.0961 17.3485 0.0000 27.6178 0.0000
# 2 14.0961 63.3434 11.1807 0.0000 13.9631 0.0001
# 3 17.3485 11.1807 45.3594 0.0000 6.9116 0.0000
# 4 0.0000 0.0000 0.0000 26.9963 0.0000 21.5779
# 5 27.6178 13.9631 6.9116 0.0000 28.3165 0.0000
# 6 0.0000 0.0001 0.0000 21.5779 0.0000 41.1298
#
#
#
# Elastic Compliance Matrix: (Units=1/GPa)
#
#
# Indices 1 2 3 4 5 6 
#
# 1 0.012200 0.000312 -0.003019 0.000000 -0.011317 0.000000
# 2 0.000312 0.018165 -0.003309 0.000000 -0.008454 0.000000
# 3 -0.003019 -0.003309 0.024220 0.000000 -0.001336 0.000000
# 4 0.000000 0.000000 0.000000 0.063792 0.000000 -0.033467
# 5 -0.011317 -0.008454 -0.001336 0.000000 0.050847 0.000000
# 6 0.000000 0.000000 0.000000 -0.033467 0.000000 0.041871
#
#
# Mechanical properties :
#
#
# Convention : Reuss Voigt Hill
#
# Bulk Modulus (GPa) = 23.49906 33.94074 28.71990
# Shear Modulus (GPa) = 21.06935 31.12794 26.09864
#
# Velocity S-wave (km/s) = 3.17874 3.86372 3.53785
# Velocity P-wave (km/s) = 4.97415 6.01512 5.51923
#
# Compressibility (1/GPa) = 0.04255490
#
# Stress axis : x y z
#
# Youngs Moduli (GPa) = 81.96449 55.05057 41.28841
#
# Poissons Ratio (x) = -0.01720 0.12465
# Poissons Ratio (y) = -0.02561 0.13661
# Poissons Ratio (z) = 0.24744 0.18215
#
# Static dielectric constant tensor:
#      x y z
#    x 1.767840 0.000000 0.018970 
#    y 0.000000 1.814760 0.000000 
#    z 0.018970 0.000000 1.701930 
# 
# From -- ./inp_files/179988.got.cif
#   From: 2010.05.17/outbox.cif.g08.bks.cpg/sg15_90_cif.got.tgz:179988.got - 2010.06.03 18:47:42.
