data_PCOD9275474
_publ_section_title
;
Structure prediction by ZEFSAII (Michael W. Deem and Ramdas Pophale) SiO2 
 PCOD9275474
Probable space group: C 2/C
;
_chemical_formula_sum "Si O2"
_cell_formula_units_Z 60
_cell_length_a 21.186305
_cell_length_b 26.360889
_cell_length_c 5.287911
_cell_angle_alpha 90.000000
_cell_angle_beta 81.295146
_cell_angle_gamma 90.000000
_cell_volume 2919.226318
_symmetry_space_group_name_H-M "C 2/C"
_symmetry_group_IT_number 15
_symmetry_cell_setting 'monoclinic'
loop_
_space_group_symop_operation_xyz
x,y,z
-x,y,1/2-z
-x,-y,-z
x,-y,1/2+z
1/2+x,1/2+y,z
1/2-x,1/2+y,1/2-z
1/2-x,1/2-y,-z
1/2+x,1/2-y,1/2+z
loop_
_atom_site_type_symbol
_atom_site_label
_atom_site_fract_x
_atom_site_fract_y
_atom_site_fract_z
Si Si1 0.566862 0.967319 0.654037
Si Si2 0.284672 0.371581 0.398353
Si Si3 0.106056 0.120783 0.022510
Si Si4 0.500000 0.343435 0.250000
Si Si5 0.575732 0.474518 0.758286
Si Si6 0.289655 0.034714 0.356607
Si Si7 0.385334 0.702464 0.122405
Si Si8 0.781536 0.275208 0.228651
O O1 0.500000 0.938713 0.750000
O O2 0.636852 0.945194 0.663572
O O3 0.565089 0.987420 0.366606
O O4 0.254723 0.416315 0.579846
O O5 0.331938 0.333995 0.524355
O O6 0.233651 0.334606 0.291422
O O7 0.330255 0.394384 0.156303
O O8 0.092420 0.084361 0.264314
O O9 0.109623 0.179033 0.101773
O O10 0.044215 0.119210 0.885700
O O11 0.451786 0.308626 0.442432
O O12 0.500000 0.480181 0.750000
O O13 0.602278 0.496862 0.482191
O O14 0.281148 0.004500 0.098038
O O15 0.355181 0.757844 0.163268
O O16 0.750000 0.250000 0.500000
O O17 0.750000 0.250000 0.000000
#
# Coordination Sequence:
#
# PCOD9275474 Si02
#       8
#     8   8   8   4   8   8   8   8
#     4   8  14  28  50  76 104 143 188 230 274 337
#     4  10  23  37  59  86 119 155 200 244 294 357
#     4  11  22  37  58  81 113 153 202 246 295 356
#     4  10  22  36  58  90 110 148 198 252 298 356
#     4  10  23  36  51  72 106 149 194 241 288 332
#     4  10  22  36  56  87 123 160 199 246 297 347
#     4  10  21  38  61  85 115 153 198 248 305 352
#     4  10  20  39  62  87 112 148 195 240 297 358
#
# _framework density 20.55339
#
# number of rings (size 3 to 8) (size 9 to 14) (size 15 to 20)
#    0.000    2.133    1.333    1.200    8.400    1.067 
#    0.000    0.000    1.467    0.000    0.000    1.867 
#    0.000    0.000    0.000    0.000    0.000    0.000 
#
# Total GULP energy -167292.698457 kJ/mol
# GULP energy per Si atom -5576.423282 kJ/mol
# Density = 2.050661 g / cm^3
# Si number density = 20.553390 Si / 1000 Ang^3
#
#
#
# Elastic Constant Matrix: (Units=GPa)
#
#
# Indices 1 2 3 4 5 6 
#
# 1 70.9097 30.5892 23.6403 0.0000 -23.1884 0.0000
# 2 30.5892 60.4590 16.4371 0.0000 -10.6045 0.0000
# 3 23.6403 16.4371 95.4037 0.0000 -5.0942 0.0000
# 4 0.0000 0.0000 0.0000 17.1958 0.0000 0.2621
# 5 -23.1884 -10.6045 -5.0942 0.0000 39.6535 0.0000
# 6 0.0000 0.0000 0.0000 0.2621 0.0000 24.3289
#
#
#
# Elastic Compliance Matrix: (Units=1/GPa)
#
#
# Indices 1 2 3 4 5 6 
#
# 1 0.022331 -0.008532 -0.003512 0.000000 0.010325 0.000000
# 2 -0.008532 0.021368 -0.001539 0.000000 0.000527 0.000000
# 3 -0.003512 -0.001539 0.011565 0.000000 -0.000980 0.000000
# 4 0.000000 0.000000 0.000000 0.058163 0.000000 -0.000626
# 5 0.010325 0.000527 -0.000980 0.000000 0.031272 0.000000
# 6 0.000000 0.000000 0.000000 -0.000626 0.000000 0.041110
#
#
# Mechanical properties :
#
#
# Convention : Reuss Voigt Hill
#
# Bulk Modulus (GPa) = 35.59140 40.90062 38.24601
# Shear Modulus (GPa) = 22.48801 26.64268 24.56535
#
# Velocity S-wave (km/s) = 3.31135 3.60428 3.46091
# Velocity P-wave (km/s) = 5.65457 6.10442 5.88380
#
# Compressibility (1/GPa) = 0.02809668
#
# Stress axis : x y z
#
# Youngs Moduli (GPa) = 44.78180 46.79907 86.46866
#
# Poissons Ratio (x) = 0.39930 0.30368
# Poissons Ratio (y) = 0.38209 0.13308
# Poissons Ratio (z) = 0.15727 0.07203
#
# Static dielectric constant tensor:
#      x y z
#    x 1.778070 0.000000 -0.028720 
#    y 0.000000 1.713360 0.000000 
#    z -0.028720 0.000000 1.772800 
# 
# From -- ./inp_files/14258.got.cif
#   From: 2010.05.17/outbox.cif.g08.bks.cpg/sg15_8_cif.got.tgz:14258.got - 2010.06.03 18:47:42.
