data_PCOD9275637
_publ_section_title
;
Structure prediction by ZEFSAII (Michael W. Deem and Ramdas Pophale) SiO2 
 PCOD9275637
Probable space group: C 2/C
;
_chemical_formula_sum "Si O2"
_cell_formula_units_Z 56
_cell_length_a 20.799921
_cell_length_b 11.183522
_cell_length_c 16.495565
_cell_angle_alpha 90.000000
_cell_angle_beta 40.312299
_cell_angle_gamma 90.000000
_cell_volume 2482.450109
_symmetry_space_group_name_H-M "C 2/C"
_symmetry_group_IT_number 15
_symmetry_cell_setting 'monoclinic'
loop_
_space_group_symop_operation_xyz
x,y,z
-x,y,1/2-z
-x,-y,-z
x,-y,1/2+z
1/2+x,1/2+y,z
1/2-x,1/2+y,1/2-z
1/2-x,1/2-y,-z
1/2+x,1/2-y,1/2+z
loop_
_atom_site_type_symbol
_atom_site_label
_atom_site_fract_x
_atom_site_fract_y
_atom_site_fract_z
Si Si1 0.672175 0.407647 0.053935
Si Si2 0.549055 0.699668 0.952491
Si Si3 0.876300 0.947796 0.560336
Si Si4 0.000000 0.906789 0.750000
Si Si5 0.269448 0.255244 0.730769
Si Si6 0.500000 0.007600 0.750000
Si Si7 0.412614 0.797661 0.220138
Si Si8 0.848256 0.648386 0.487447
O O1 0.583632 0.501272 0.140824
O O2 0.642821 0.268288 0.076674
O O3 0.706214 0.431223 0.929393
O O4 0.752315 0.421636 0.045710
O O5 0.585240 0.579608 0.963937
O O6 0.652597 0.756751 0.826199
O O7 0.473659 0.640311 0.959206
O O8 0.489481 0.787348 0.069875
O O9 0.819246 0.887067 0.689985
O O10 0.943782 0.820158 0.741068
O O11 0.304695 0.198792 0.781816
O O12 0.321904 0.185628 0.604833
O O13 0.570957 0.094078 0.734113
O O14 0.557426 0.929610 0.627533
#
# Coordination Sequence:
#
# PCOD9275637 Si02
#       8
#     8   8   8   4   8   4   8   8
#     4  10  21  39  65  92 122 163 221 271 324 379
#     4  10  20  39  63  90 135 168 214 272 319 394
#     4   9  20  38  60  94 122 167 220 265 325 380
#     4  11  21  38  70  92 129 169 216 280 320 395
#     4  10  23  41  63  95 130 170 225 268 328 395
#     4  11  25  44  64  90 141 167 212 274 330 415
#     4  10  24  41  61 101 127 174 221 258 342 395
#     4  10  24  43  61  98 125 172 221 265 337 392
#
# _framework density 22.55836
#
# number of rings (size 3 to 8) (size 9 to 14) (size 15 to 20)
#    0.000    2.000    1.429    0.429    4.000    2.857 
#   15.429    2.857    0.000    0.000    0.000    0.000 
#    0.000    0.000    0.000    0.000    0.000    0.000 
#
# Total GULP energy -155930.338156 kJ/mol
# GULP energy per Si atom -5568.940648 kJ/mol
# Density = 2.250702 g / cm^3
# Si number density = 22.558360 Si / 1000 Ang^3
#
#
#
# Elastic Constant Matrix: (Units=GPa)
#
#
# Indices 1 2 3 4 5 6 
#
# 1 103.4090 -0.5046 -0.8173 0.0000 3.8983 0.0000
# 2 -0.5046 42.6017 10.0413 0.0000 -9.9740 0.0000
# 3 -0.8173 10.0413 41.7917 0.0000 -5.5730 0.0000
# 4 0.0000 0.0000 0.0000 11.5904 0.0000 -7.4460
# 5 3.8983 -9.9740 -5.5730 0.0000 27.8544 0.0000
# 6 0.0000 0.0000 0.0000 -7.4460 0.0000 18.0560
#
#
#
# Elastic Compliance Matrix: (Units=1/GPa)
#
#
# Indices 1 2 3 4 5 6 
#
# 1 0.009724 -0.000233 0.000055 0.000000 -0.001433 0.000000
# 2 -0.000233 0.026716 -0.005285 0.000000 0.008542 0.000000
# 3 0.000055 -0.005285 0.025629 0.000000 0.003228 0.000000
# 4 0.000000 0.000000 0.000000 0.117374 0.000000 0.048403
# 5 -0.001433 0.008542 0.003228 0.000000 0.039806 0.000000
# 6 0.000000 0.000000 0.000000 0.048403 0.000000 0.075344
#
#
# Mechanical properties :
#
#
# Convention : Reuss Voigt Hill
#
# Bulk Modulus (GPa) = 19.55292 22.80457 21.17874
# Shear Modulus (GPa) = 15.50071 23.43903 19.46987
#
# Velocity S-wave (km/s) = 2.62418 3.22691 2.94102
# Velocity P-wave (km/s) = 4.22709 4.90051 4.57620
#
# Compressibility (1/GPa) = 0.05114327
#
# Stress axis : x y z
#
# Youngs Moduli (GPa) = 102.84181 37.43098 39.01762
#
# Poissons Ratio (x) = 0.00874 -0.00215
# Poissons Ratio (y) = 0.02400 0.20619
# Poissons Ratio (z) = -0.00567 0.19781
#
# Static dielectric constant tensor:
#      x y z
#    x 1.966050 0.000000 0.099200 
#    y 0.000000 1.881050 0.000000 
#    z 0.099200 0.000000 1.952780 
# 
# From -- ./inp_files/219084.got.cif
#   From: 2010.05.17/outbox.cif.g08.bks.cpg/sg15_110_cif.got.tgz:219084.got - 2010.06.03 18:47:42.
