data_PCOD9275882
_publ_section_title
;
Structure prediction by ZEFSAII (Michael W. Deem and Ramdas Pophale) SiO2 
 PCOD9275882
Probable space group: C 2/C
;
_chemical_formula_sum "Si O2"
_cell_formula_units_Z 36
_cell_length_a 14.193777
_cell_length_b 15.826924
_cell_length_c 8.475777
_cell_angle_alpha 90.000000
_cell_angle_beta 114.029927
_cell_angle_gamma 90.000000
_cell_volume 1739.014131
_symmetry_space_group_name_H-M "C 2/C"
_symmetry_group_IT_number 15
_symmetry_cell_setting 'monoclinic'
loop_
_space_group_symop_operation_xyz
x,y,z
-x,y,1/2-z
-x,-y,-z
x,-y,1/2+z
1/2+x,1/2+y,z
1/2-x,1/2+y,1/2-z
1/2-x,1/2-y,-z
1/2+x,1/2-y,1/2+z
loop_
_atom_site_type_symbol
_atom_site_label
_atom_site_fract_x
_atom_site_fract_y
_atom_site_fract_z
Si Si1 0.104789 0.050196 0.522031
Si Si2 0.493790 0.709350 0.931849
Si Si3 0.901296 0.380716 0.952993
Si Si4 0.500000 0.003385 0.250000
Si Si5 0.171737 0.104035 0.222512
O O1 0.118332 0.074048 0.349275
O O2 0.094689 0.138161 0.606204
O O3 0.188217 0.981909 0.633190
O O4 0.000000 0.000000 0.500000
O O5 0.500000 0.727043 0.750000
O O6 0.464869 0.794114 0.003490
O O7 0.596942 0.667255 0.076073
O O8 0.947218 0.436469 0.841921
O O9 0.782556 0.358991 0.840025
O O10 0.917244 0.440696 0.113824
#
# Coordination Sequence:
#
# PCOD9275882 Si02
#       5
#     8   8   8   4   8
#     4  10  20  39  65  93 130 161 206 269 313 377
#     4  11  23  41  63  97 131 164 213 272 317 374
#     4  11  24  45  67  92 128 171 216 266 319 390
#     4  10  24  46  66  88 132 170 214 268 324 376
#     4  11  23  41  67  98 127 173 214 256 334 382
#
# _framework density 20.701384000000001
#
# number of rings (size 3 to 8) (size 9 to 14) (size 15 to 20)
#    0.000    1.333    1.111    6.667    3.111    1.778 
#    8.000    0.000    0.000    0.000    0.000    0.000 
#    0.000    0.000    0.000    0.000    0.000    0.000 
#
# Total GULP energy -100491.219426 kJ/mol
# GULP energy per Si atom -5582.845524 kJ/mol
# Density = 2.065427 g / cm^3
# Si number density = 20.701384 Si / 1000 Ang^3
#
#
#
# Elastic Constant Matrix: (Units=GPa)
#
#
# Indices 1 2 3 4 5 6 
#
# 1 60.3620 22.1922 23.1756 0.0000 15.5477 0.0000
# 2 22.1922 130.6413 6.0550 0.0000 8.0296 0.0000
# 3 23.1756 6.0550 43.5806 0.0000 6.0091 0.0000
# 4 0.0000 0.0000 0.0000 25.8123 0.0000 -0.0654
# 5 15.5477 8.0296 6.0091 0.0000 33.0621 0.0000
# 6 0.0000 0.0000 0.0000 -0.0654 0.0000 20.3444
#
#
#
# Elastic Compliance Matrix: (Units=1/GPa)
#
#
# Indices 1 2 3 4 5 6 
#
# 1 0.024241 -0.003066 -0.011278 0.000000 -0.008605 0.000000
# 2 -0.003066 0.008189 0.000583 0.000000 -0.000653 0.000000
# 3 -0.011278 0.000583 0.028875 0.000000 -0.000086 0.000000
# 4 0.000000 0.000000 0.000000 0.038742 0.000000 0.000124
# 5 -0.008605 -0.000653 -0.000086 0.000000 0.034467 0.000000
# 6 0.000000 0.000000 0.000000 0.000124 0.000000 0.049154
#
#
# Mechanical properties :
#
#
# Convention : Reuss Voigt Hill
#
# Bulk Modulus (GPa) = 29.60304 37.49214 33.54759
# Shear Modulus (GPa) = 22.47702 28.05451 25.26576
#
# Velocity S-wave (km/s) = 3.29868 3.68530 3.49734
# Velocity P-wave (km/s) = 5.37024 6.02153 5.70519
#
# Compressibility (1/GPa) = 0.03378032
#
# Stress axis : x y z
#
# Youngs Moduli (GPa) = 41.25302 122.12238 34.63257
#
# Poissons Ratio (x) = 0.37445 0.39060
# Poissons Ratio (y) = 0.12649 -0.02019
# Poissons Ratio (z) = 0.46527 -0.07118
#
# Static dielectric constant tensor:
#      x y z
#    x 1.748370 0.000000 0.023290 
#    y 0.000000 1.734290 0.000000 
#    z 0.023290 0.000000 1.784390 
# 
# From -- ./inp_files/37649.got.cif
#   From: 2010.05.17/outbox.cif.g08.bks.cpg/sg15_19_cif.got.tgz:37649.got - 2010.06.03 18:47:42.
