data_PCOD9275210
_publ_section_title
;
Structure prediction by ZEFSAII (Michael W. Deem and Ramdas Pophale) SiO2 
 PCOD9275210
Probable space group: C 2/C
;
_chemical_formula_sum "Si O2"
_cell_formula_units_Z 36
_cell_length_a 11.280395
_cell_length_b 17.309272
_cell_length_c 9.220741
_cell_angle_alpha 90.000000
_cell_angle_beta 56.281236
_cell_angle_gamma 90.000000
_cell_volume 1497.522729
_symmetry_space_group_name_H-M "C 2/C"
_symmetry_group_IT_number 15
_symmetry_cell_setting 'monoclinic'
loop_
_space_group_symop_operation_xyz
x,y,z
-x,y,1/2-z
-x,-y,-z
x,-y,1/2+z
1/2+x,1/2+y,z
1/2-x,1/2+y,1/2-z
1/2-x,1/2-y,-z
1/2+x,1/2-y,1/2+z
loop_
_atom_site_type_symbol
_atom_site_label
_atom_site_fract_x
_atom_site_fract_y
_atom_site_fract_z
Si Si1 0.007443 0.083483 0.920626
Si Si2 0.804426 0.614712 0.375339
Si Si3 0.603488 0.701866 0.061498
Si Si4 0.467499 0.153811 0.521873
Si Si5 0.000000 0.529563 0.750000
O O1 0.000000 0.077576 0.750000
O O2 0.855815 0.120910 0.060362
O O3 0.124071 0.138736 0.919073
O O4 0.000000 0.000000 0.000000
O O5 0.903986 0.645885 0.180828
O O6 0.864147 0.527250 0.359637
O O7 0.831876 0.655123 0.510014
O O8 0.500000 0.660127 0.250000
O O9 0.750000 0.750000 0.000000
O O10 0.495829 0.768905 0.086278
O O11 0.476346 0.082623 0.626240
#
# Coordination Sequence:
#
# PCOD9275210 Si02
#       5
#     8   8   8   8   4
#     4  12  31  47  74 104 151 196 240 306 377 448
#     4  10  23  42  68 104 147 175 252 284 378 424
#     4  12  28  49  75 107 150 193 252 305 375 440
#     4  10  22  41  74 104 135 188 238 311 352 441
#     4  10  20  38  76 104 136 190 236 308 360 440
#
# _framework density 24.039701999999998
#
# number of rings (size 3 to 8) (size 9 to 14) (size 15 to 20)
#    0.000    1.333    1.111    4.667   15.556    0.889 
#    0.000    0.000    0.000    0.000    0.000    0.000 
#    0.000    0.000    0.000    0.000    0.000    0.000 
#
# Total GULP energy -100577.098689 kJ/mol
# GULP energy per Si atom -5587.616594 kJ/mol
# Density = 2.398499 g / cm^3
# Si number density = 24.039702 Si / 1000 Ang^3
#
#
#
# Elastic Constant Matrix: (Units=GPa)
#
#
# Indices 1 2 3 4 5 6 
#
# 1 120.3374 29.5317 30.4556 0.0000 13.4753 0.0000
# 2 29.5317 82.8694 3.6673 0.0000 20.9278 0.0000
# 3 30.4556 3.6673 118.2431 0.0000 20.6541 0.0000
# 4 0.0000 0.0000 0.0000 236.3862 0.0000 131.1902
# 5 13.4753 20.9278 20.6541 0.0000 38.4950 0.0000
# 6 0.0000 0.0000 0.0000 131.1902 0.0000 89.4286
#
#
#
# Elastic Compliance Matrix: (Units=1/GPa)
#
#
# Indices 1 2 3 4 5 6 
#
# 1 0.009749 -0.003276 -0.002344 0.000000 -0.000374 0.000000
# 2 -0.003276 0.015194 0.001782 0.000000 -0.008069 0.000000
# 3 -0.002344 0.001782 0.009966 0.000000 -0.005495 0.000000
# 4 0.000000 0.000000 0.000000 0.022762 0.000000 -0.033392
# 5 -0.000374 -0.008069 -0.005495 0.000000 0.033444 0.000000
# 6 0.000000 0.000000 0.000000 -0.033392 0.000000 0.060167
#
#
# Mechanical properties :
#
#
# Convention : Reuss Voigt Hill
#
# Bulk Modulus (GPa) = 36.72142 49.86213 43.29178
# Shear Modulus (GPa) = 29.75572 90.04830 59.90201
#
# Velocity S-wave (km/s) = 3.52202 6.12695 4.99720
# Velocity P-wave (km/s) = 5.64340 8.41661 7.16545
#
# Compressibility (1/GPa) = 0.02723206
#
# Stress axis : x y z
#
# Youngs Moduli (GPa) = 102.57381 65.81702 100.34599
#
# Poissons Ratio (x) = 0.21562 0.23522
# Poissons Ratio (y) = 0.33604 -0.17883
# Poissons Ratio (z) = 0.24045 -0.11729
#
# Static dielectric constant tensor:
#      x y z
#    x 1.991550 0.000000 0.090950 
#    y 0.000000 1.973990 0.000000 
#    z 0.090950 0.000000 2.114410 
# 
# From -- ./inp_files/28987.got.cif
#   From: 2010.05.17/outbox.cif.g08.bks.cpg/sg15_15_cif.got.tgz:28987.got - 2010.06.03 18:47:42.
