data_PCOD9275935
_publ_section_title
;
Structure prediction by ZEFSAII (Michael W. Deem and Ramdas Pophale) SiO2 
 PCOD9275935
Probable space group: C 2/C
;
_chemical_formula_sum "Si O2"
_cell_formula_units_Z 56
_cell_length_a 9.691280
_cell_length_b 22.396780
_cell_length_c 18.621603
_cell_angle_alpha 90.000000
_cell_angle_beta 38.119225
_cell_angle_gamma 90.000000
_cell_volume 2495.054217
_symmetry_space_group_name_H-M "C 2/C"
_symmetry_group_IT_number 15
_symmetry_cell_setting 'monoclinic'
loop_
_space_group_symop_operation_xyz
x,y,z
-x,y,1/2-z
-x,-y,-z
x,-y,1/2+z
1/2+x,1/2+y,z
1/2-x,1/2+y,1/2-z
1/2-x,1/2-y,-z
1/2+x,1/2-y,1/2+z
loop_
_atom_site_type_symbol
_atom_site_label
_atom_site_fract_x
_atom_site_fract_y
_atom_site_fract_z
Si Si1 0.774579 0.036388 0.473035
Si Si2 0.351699 0.778584 0.870811
Si Si3 0.937965 0.790428 0.958017
Si Si4 0.924764 0.842589 0.397198
Si Si5 0.437390 0.085445 0.500770
Si Si6 0.134325 0.118949 0.264148
Si Si7 0.744003 0.601072 0.875151
O O1 0.582627 0.077292 0.513613
O O2 0.797023 0.048919 0.548918
O O3 0.008320 0.058672 0.342792
O O4 0.685065 0.972797 0.482794
O O5 0.500000 0.809399 0.750000
O O6 0.496309 0.723299 0.842109
O O7 0.120066 0.755235 0.930518
O O8 0.257746 0.823986 0.967374
O O9 0.083155 0.830871 0.843938
O O10 0.750000 0.750000 0.000000
O O11 0.811820 0.838162 0.059458
O O12 0.772783 0.872259 0.399049
O O13 0.095001 0.888579 0.364559
O O14 0.620545 0.105188 0.366053
O O15 0.000000 0.140923 0.250000
O O16 0.000000 0.597101 0.750000
#
# Coordination Sequence:
#
# PCOD9275935 Si02
#       7
#     8   8   8   8   8   8   8
#     4   9  21  39  61  91 121 153 208 253 300 375
#     4  10  22  39  57  83 120 156 202 255 301 367
#     4  10  22  36  60  89 119 165 211 254 303 375
#     4  10  23  38  59  86 118 159 201 251 305 371
#     4  10  20  39  66  88 118 161 200 259 309 362
#     4   9  19  36  60  90 123 157 204 261 309 370
#     4  10  23  41  56  87 128 157 201 253 306 370
#
# _framework density 22.444403000000001
#
# number of rings (size 3 to 8) (size 9 to 14) (size 15 to 20)
#    0.000    2.286    0.000    0.857    8.000    2.286 
#    0.000    7.143    0.000    0.000    0.000    0.000 
#    0.000    0.000    0.000    0.000    0.000    0.000 
#
# Total GULP energy -156028.205542 kJ/mol
# GULP energy per Si atom -5572.435912 kJ/mol
# Density = 2.239332 g / cm^3
# Si number density = 22.444403 Si / 1000 Ang^3
#
#
#
# Elastic Constant Matrix: (Units=GPa)
#
#
# Indices 1 2 3 4 5 6 
#
# 1 87.6647 19.8744 9.7326 0.0012 -25.6386 0.0001
# 2 19.8744 29.5955 -3.0564 0.0011 -15.9167 0.0000
# 3 9.7326 -3.0564 52.0299 -0.0009 -0.2640 -0.0005
# 4 0.0012 0.0011 -0.0009 3.2865 0.0011 -10.2049
# 5 -25.6386 -15.9167 -0.2640 0.0011 26.4958 0.0003
# 6 0.0001 0.0000 -0.0005 -10.2049 0.0003 38.1609
#
#
#
# Elastic Compliance Matrix: (Units=1/GPa)
#
#
# Indices 1 2 3 4 5 6 
#
# 1 0.016711 -0.004262 -0.003307 -0.000063 0.013578 -0.000017
# 2 -0.004262 0.051502 0.003959 -0.000142 0.026854 -0.000038
# 3 -0.003307 0.003959 0.020068 0.000039 -0.000622 0.000011
# 4 -0.000063 -0.000142 0.000039 1.793537 -0.000226 0.479622
# 5 0.013578 0.026854 -0.000622 -0.000226 0.067006 -0.000061
# 6 -0.000017 -0.000038 0.000011 0.479622 -0.000061 0.154464
#
#
# Mechanical properties :
#
#
# Convention : Reuss Voigt Hill
#
# Bulk Modulus (GPa) = 12.33643 24.71015 18.52329
# Shear Modulus (GPa) = 2.33915 23.10462 12.72188
#
# Velocity S-wave (km/s) = 1.02199 3.21193 2.38338
# Velocity P-wave (km/s) = 2.62697 4.97883 3.98056
#
# Compressibility (1/GPa) = 0.08106074
#
# Stress axis : x y z
#
# Youngs Moduli (GPa) = 59.83924 19.41673 49.83110
#
# Poissons Ratio (x) = 0.08275 0.16481
# Poissons Ratio (y) = 0.25501 -0.19727
# Poissons Ratio (z) = 0.19792 -0.07687
#
# Static dielectric constant tensor:
#      x y z
#    x 1.878220 0.000000 0.035070 
#    y 0.000000 1.863180 0.000000 
#    z 0.035070 0.000000 1.831420 
# 
# From -- ./inp_files/193828.got.cif
#   From: 2010.05.17/outbox.cif.g08.bks.cpg/sg15_97_cif.got.tgz:193828.got - 2010.06.03 18:47:42.
