data_PCOD9275240
_publ_section_title
;
Structure prediction by ZEFSAII (Michael W. Deem and Ramdas Pophale) SiO2 
 PCOD9275240
Probable space group: C 2/C
;
_chemical_formula_sum "Si O2"
_cell_formula_units_Z 64
_cell_length_a 23.216164
_cell_length_b 11.582684
_cell_length_c 16.383902
_cell_angle_alpha 90.000000
_cell_angle_beta 137.662311
_cell_angle_gamma 90.000000
_cell_volume 2967.248372
_symmetry_space_group_name_H-M "C 2/C"
_symmetry_group_IT_number 15
_symmetry_cell_setting 'monoclinic'
loop_
_space_group_symop_operation_xyz
x,y,z
-x,y,1/2-z
-x,-y,-z
x,-y,1/2+z
1/2+x,1/2+y,z
1/2-x,1/2+y,1/2-z
1/2-x,1/2-y,-z
1/2+x,1/2-y,1/2+z
loop_
_atom_site_type_symbol
_atom_site_label
_atom_site_fract_x
_atom_site_fract_y
_atom_site_fract_z
Si Si1 0.907609 0.760054 0.685631
Si Si2 0.820658 0.987682 0.530111
Si Si3 0.736844 0.923912 0.271079
Si Si4 0.084139 0.430422 0.555934
Si Si5 0.059540 0.935689 0.467489
Si Si6 0.585039 0.344103 0.090061
Si Si7 0.305194 0.924627 0.977375
Si Si8 0.156227 0.807760 0.712659
O O1 0.879107 0.886583 0.627627
O O2 0.839764 0.671096 0.576649
O O3 0.905684 0.765466 0.780523
O O4 0.000000 0.729730 0.750000
O O5 0.749668 0.013637 0.524753
O O6 0.773405 0.935373 0.400813
O O7 0.887382 0.077185 0.559875
O O8 0.319142 0.606447 0.801887
O O9 0.682850 0.810212 0.199521
O O10 0.669941 0.027294 0.192261
O O11 0.883387 0.114347 0.398630
O O12 0.113914 0.459561 0.493815
O O13 0.000000 0.500000 0.500000
O O14 0.078901 0.291050 0.561420
O O15 0.969651 0.873325 0.386667
O O16 0.048717 0.071281 0.479868
O O17 0.236653 0.865094 0.843979
#
# Coordination Sequence:
#
# PCOD9275240 Si02
#       8
#     8   8   8   8   8   8   8   8
#     4  11  23  33  61  97 134 170 213 290 345 380
#     4  10  20  39  57  92 129 166 214 263 338 393
#     4  11  21  39  64  94 131 169 213 274 331 400
#     4  12  26  41  65 100 134 175 227 277 337 401
#     4  10  22  37  67  95 129 173 211 279 322 400
#     4  10  22  39  60  94 135 160 225 262 330 389
#     4  11  20  40  58  93 137 167 213 287 336 396
#     4  11  20  37  65  97 127 170 215 268 350 392
#
# _framework density 21.568804
#
# number of rings (size 3 to 8) (size 9 to 14) (size 15 to 20)
#    0.000    1.250    3.750    3.750    8.750    0.000 
#    0.000    0.000    0.000    3.000   16.250    0.000 
#    0.000    0.000    0.000    0.000    0.000    0.000 
#
# Total GULP energy -178440.967875 kJ/mol
# GULP energy per Si atom -5576.280246 kJ/mol
# Density = 2.151971 g / cm^3
# Si number density = 21.568804 Si / 1000 Ang^3
#
#
#
# Elastic Constant Matrix: (Units=GPa)
#
#
# Indices 1 2 3 4 5 6 
#
# 1 202.3804 43.0362 25.7949 0.0000 37.7588 0.0000
# 2 43.0362 75.8749 21.5624 0.0000 17.9531 0.0000
# 3 25.7949 21.5624 65.1018 0.0000 23.5181 0.0000
# 4 0.0000 0.0000 0.0000 26.6878 0.0000 2.2414
# 5 37.7588 17.9531 23.5181 0.0000 30.2942 0.0000
# 6 0.0000 0.0000 0.0000 2.2414 0.0000 27.1668
#
#
#
# Elastic Compliance Matrix: (Units=1/GPa)
#
#
# Indices 1 2 3 4 5 6 
#
# 1 0.006756 -0.002242 0.000872 0.000000 -0.007770 0.000000
# 2 -0.002242 0.016370 -0.002833 0.000000 -0.004708 0.000000
# 3 0.000872 -0.002833 0.021874 0.000000 -0.016390 0.000000
# 4 0.000000 0.000000 0.000000 0.037732 0.000000 -0.003113
# 5 -0.007770 -0.004708 -0.016390 0.000000 0.058208 0.000000
# 6 0.000000 0.000000 0.000000 -0.003113 0.000000 0.037066
#
#
# Mechanical properties :
#
#
# Convention : Reuss Voigt Hill
#
# Bulk Modulus (GPa) = 27.32548 58.23824 42.78186
# Shear Modulus (GPa) = 25.17502 33.69402 29.43452
#
# Velocity S-wave (km/s) = 3.42013 3.95671 3.69817
# Velocity P-wave (km/s) = 5.31911 6.92343 6.17360
#
# Compressibility (1/GPa) = 0.03659588
#
# Stress axis : x y z
#
# Youngs Moduli (GPa) = 148.00916 61.08697 45.71630
#
# Poissons Ratio (x) = 0.13693 -0.03988
# Poissons Ratio (y) = 0.33178 0.12951
# Poissons Ratio (z) = -0.12911 0.17306
#
# Static dielectric constant tensor:
#      x y z
#    x 1.917630 0.000000 0.062000 
#    y 0.000000 1.784370 0.000000 
#    z 0.062000 0.000000 1.829210 
# 
# From -- ./inp_files/255363.got.cif
#   From: 2010.05.17/outbox.cif.g08.bks.cpg/sg15_128_cif.got.tgz:255363.got - 2010.06.03 18:47:42.
