data_PCOD9275597
_publ_section_title
;
Structure prediction by ZEFSAII (Michael W. Deem and Ramdas Pophale) SiO2 
 PCOD9275597
Probable space group: C 2/C
;
_chemical_formula_sum "Si O2"
_cell_formula_units_Z 40
_cell_length_a 16.470547
_cell_length_b 7.335269
_cell_length_c 14.599330
_cell_angle_alpha 90.000000
_cell_angle_beta 123.705742
_cell_angle_gamma 90.000000
_cell_volume 1467.328460
_symmetry_space_group_name_H-M "C 2/C"
_symmetry_group_IT_number 15
_symmetry_cell_setting 'monoclinic'
loop_
_space_group_symop_operation_xyz
x,y,z
-x,y,1/2-z
-x,-y,-z
x,-y,1/2+z
1/2+x,1/2+y,z
1/2-x,1/2+y,1/2-z
1/2-x,1/2-y,-z
1/2+x,1/2-y,1/2+z
loop_
_atom_site_type_symbol
_atom_site_label
_atom_site_fract_x
_atom_site_fract_y
_atom_site_fract_z
Si Si1 0.538855 0.576861 0.405482
Si Si2 0.879809 0.816049 0.363336
Si Si3 0.924945 0.566696 0.827079
Si Si4 0.857866 0.464495 0.600105
Si Si5 0.815423 0.946157 0.138475
O O1 0.483476 0.389028 0.388530
O O2 0.620606 0.607701 0.534625
O O3 0.595304 0.568802 0.344433
O O4 0.455342 0.729562 0.373967
O O5 0.884820 0.597228 0.364153
O O6 0.808598 0.905166 0.242712
O O7 0.854736 0.569191 0.694976
O O8 0.033026 0.498161 0.865953
O O9 0.840901 0.254458 0.615392
O O10 0.780102 0.512443 0.474080
#
# Coordination Sequence:
#
# PCOD9275597 Si02
#       5
#     8   8   8   8   8
#     4  11  22  37  64  89 120 162 209 252 309 374
#     4  10  22  40  59  91 123 160 205 256 308 373
#     4  10  20  39  63  88 120 163 204 257 312 378
#     4   9  20  37  63  89 122 161 207 250 316 375
#     4  10  20  40  63  88 125 167 198 260 318 366
#
# _framework density 27.260428000000001
#
# number of rings (size 3 to 8) (size 9 to 14) (size 15 to 20)
#    0.000    2.000    2.000    1.200    5.600    0.800 
#    0.000    8.000    0.000    0.000    0.000    0.000 
#    0.000    0.000    0.000    0.000    0.000    0.000 
#
# Total GULP energy -111869.237217 kJ/mol
# GULP energy per Si atom -5593.461861 kJ/mol
# Density = 2.719838 g / cm^3
# Si number density = 27.260428 Si / 1000 Ang^3
#
#
#
# Elastic Constant Matrix: (Units=GPa)
#
#
# Indices 1 2 3 4 5 6 
#
# 1 60.7496 30.3130 29.4467 0.0000 -2.8888 0.0000
# 2 30.3130 128.1539 34.4593 0.0000 -3.5925 0.0000
# 3 29.4467 34.4593 186.4282 0.0000 16.1542 0.0000
# 4 0.0000 0.0000 0.0000 31.7652 0.0000 -0.1576
# 5 -2.8888 -3.5925 16.1542 0.0000 40.0461 0.0000
# 6 0.0000 0.0000 0.0000 -0.1576 0.0000 19.8500
#
#
#
# Elastic Compliance Matrix: (Units=1/GPa)
#
#
# Indices 1 2 3 4 5 6 
#
# 1 0.019770 -0.003923 -0.002581 0.000000 0.002115 0.000000
# 2 -0.003923 0.009066 -0.001142 0.000000 0.000991 0.000000
# 3 -0.002581 -0.001142 0.006225 0.000000 -0.002800 0.000000
# 4 0.000000 0.000000 0.000000 0.031482 0.000000 0.000250
# 5 0.002115 0.000991 -0.002800 0.000000 0.026342 0.000000
# 6 0.000000 0.000000 0.000000 0.000250 0.000000 0.050380
#
#
# Mechanical properties :
#
#
# Convention : Reuss Voigt Hill
#
# Bulk Modulus (GPa) = 50.58276 62.64107 56.61191
# Shear Modulus (GPa) = 30.27599 37.07311 33.67455
#
# Velocity S-wave (km/s) = 3.33621 3.69177 3.51848
# Velocity P-wave (km/s) = 5.78239 6.41879 6.10888
#
# Compressibility (1/GPa) = 0.01976958
#
# Stress axis : x y z
#
# Youngs Moduli (GPa) = 50.58124 110.30341 160.63383
#
# Poissons Ratio (x) = 0.43273 0.41458
# Poissons Ratio (y) = 0.19843 0.18343
# Poissons Ratio (z) = 0.13054 0.12596
#
# Static dielectric constant tensor:
#      x y z
#    x 2.062910 0.000000 0.012480 
#    y 0.000000 2.081060 0.000000 
#    z 0.012480 0.000000 2.165860 
# 
# From -- ./inp_files/218408.got.cif
#   From: 2010.05.17/outbox.cif.g08.bks.cpg/sg15_110_cif.got.tgz:218408.got - 2010.06.03 18:47:42.
