data_PCOD9275060
_publ_section_title
;
Structure prediction by ZEFSAII (Michael W. Deem and Ramdas Pophale) SiO2 
 PCOD9275060
Probable space group: C 2/C
;
_chemical_formula_sum "Si O2"
_cell_formula_units_Z 56
_cell_length_a 12.596402
_cell_length_b 18.824056
_cell_length_c 16.519086
_cell_angle_alpha 90.000000
_cell_angle_beta 147.359424
_cell_angle_gamma 90.000000
_cell_volume 2112.663431
_symmetry_space_group_name_H-M "C 2/C"
_symmetry_group_IT_number 15
_symmetry_cell_setting 'monoclinic'
loop_
_space_group_symop_operation_xyz
x,y,z
-x,y,1/2-z
-x,-y,-z
x,-y,1/2+z
1/2+x,1/2+y,z
1/2-x,1/2+y,1/2-z
1/2-x,1/2-y,-z
1/2+x,1/2-y,1/2+z
loop_
_atom_site_type_symbol
_atom_site_label
_atom_site_fract_x
_atom_site_fract_y
_atom_site_fract_z
Si Si1 0.415183 0.879727 0.112211
Si Si2 0.703654 0.475986 0.768610
Si Si3 0.149440 0.111083 0.654868
Si Si4 0.022143 0.163403 0.394332
Si Si5 0.727989 0.232424 0.675639
Si Si6 0.903885 0.310920 0.577645
Si Si7 0.871729 0.467340 0.541109
O O1 0.500000 0.850562 0.250000
O O2 0.609129 0.888042 0.182850
O O3 0.349171 0.962425 0.081285
O O4 0.220862 0.835018 0.969118
O O5 0.582106 0.533726 0.638722
O O6 0.609696 0.400100 0.723639
O O7 0.904350 0.462336 0.848141
O O8 0.746548 0.514407 0.880962
O O9 0.082646 0.135165 0.523628
O O10 0.112915 0.174113 0.693643
O O11 0.904786 0.235259 0.337314
O O12 0.595874 0.198914 0.520494
O O13 0.876682 0.296570 0.747614
O O14 0.750000 0.250000 0.500000
O O15 0.830991 0.390184 0.550530
#
# Coordination Sequence:
#
# PCOD9275060 Si02
#       7
#     8   8   8   8   8   8   8
#     4   9  22  40  63  97 128 169 218 277 326 381
#     4  10  20  38  68  90 121 171 222 270 322 389
#     4  10  21  41  65  92 134 171 219 270 330 397
#     4  11  22  40  66  95 130 171 223 267 331 398
#     4  12  24  43  68  95 130 179 222 264 336 402
#     4  12  26  45  65  96 137 173 218 275 334 395
#     4  10  21  41  65  92 127 167 218 273 327 383
#
# _framework density 26.506824000000002
#
# number of rings (size 3 to 8) (size 9 to 14) (size 15 to 20)
#    0.000    1.429    4.286    0.857    0.000    3.429 
#    5.143    0.000    0.000    0.000    0.000    0.000 
#    0.000    0.000    0.000    0.000    0.000    0.000 
#
# Total GULP energy -156630.208782 kJ/mol
# GULP energy per Si atom -5593.936028 kJ/mol
# Density = 2.644649 g / cm^3
# Si number density = 26.506824 Si / 1000 Ang^3
#
#
#
# Elastic Constant Matrix: (Units=GPa)
#
#
# Indices 1 2 3 4 5 6 
#
# 1 33.4983 -0.9665 10.6453 0.0016 10.2670 0.0005
# 2 -0.9665 133.7159 19.4256 -0.0004 4.1881 -0.0002
# 3 10.6453 19.4256 66.6298 -0.0025 6.4596 -0.0001
# 4 0.0016 -0.0004 -0.0025 38.4753 0.0004 -1.2231
# 5 10.2670 4.1881 6.4596 0.0004 51.0688 0.0006
# 6 0.0005 -0.0002 -0.0001 -1.2231 0.0006 43.9554
#
#
#
# Elastic Compliance Matrix: (Units=1/GPa)
#
#
# Indices 1 2 3 4 5 6 
#
# 1 0.033390 0.001172 -0.005079 -0.000002 -0.006167 0.000000
# 2 0.001172 0.007857 -0.002422 0.000000 -0.000574 0.000000
# 3 -0.005079 -0.002422 0.016611 0.000001 -0.000881 0.000000
# 4 -0.000002 0.000000 0.000001 0.026014 0.000000 0.000724
# 5 -0.006167 -0.000574 -0.000881 0.000000 0.020980 0.000000
# 6 0.000000 0.000000 0.000000 0.000724 0.000000 0.022770
#
#
# Mechanical properties :
#
#
# Convention : Reuss Voigt Hill
#
# Bulk Modulus (GPa) = 22.12338 32.45030 27.28684
# Shear Modulus (GPa) = 32.18612 40.34921 36.26767
#
# Velocity S-wave (km/s) = 3.48840 3.90580 3.70298
# Velocity P-wave (km/s) = 4.95880 5.71044 5.34784
#
# Compressibility (1/GPa) = 0.04520105
#
# Stress axis : x y z
#
# Youngs Moduli (GPa) = 29.94904 127.27684 60.19968
#
# Poissons Ratio (x) = -0.14921 0.30573
# Poissons Ratio (y) = -0.03511 0.14582
# Poissons Ratio (z) = 0.15210 0.30831
#
# Static dielectric constant tensor:
#      x y z
#    x 2.121560 0.000000 0.032410 
#    y 0.000000 2.101810 0.000000 
#    z 0.032410 0.000000 2.089350 
# 
# From -- ./inp_files/49138.got.cif
#   From: 2010.05.17/outbox.cif.g08.bks.cpg/sg15_25_cif.got.tgz:49138.got - 2010.06.03 18:47:42.
