data_PCOD9275702
_publ_section_title
;
Structure prediction by ZEFSAII (Michael W. Deem and Ramdas Pophale) SiO2 
 PCOD9275702
Probable space group: C 2/C
;
_chemical_formula_sum "Si O2"
_cell_formula_units_Z 44
_cell_length_a 14.733241
_cell_length_b 8.827159
_cell_length_c 14.180011
_cell_angle_alpha 90.000000
_cell_angle_beta 106.770692
_cell_angle_gamma 90.000000
_cell_volume 1765.711411
_symmetry_space_group_name_H-M "C 2/C"
_symmetry_group_IT_number 15
_symmetry_cell_setting 'monoclinic'
loop_
_space_group_symop_operation_xyz
x,y,z
-x,y,1/2-z
-x,-y,-z
x,-y,1/2+z
1/2+x,1/2+y,z
1/2-x,1/2+y,1/2-z
1/2-x,1/2-y,-z
1/2+x,1/2-y,1/2+z
loop_
_atom_site_type_symbol
_atom_site_label
_atom_site_fract_x
_atom_site_fract_y
_atom_site_fract_z
Si Si1 0.269311 0.315711 0.111303
Si Si2 0.438747 0.519222 0.111159
Si Si3 0.000000 0.300520 0.250000
Si Si4 0.888322 0.470695 0.969427
Si Si5 0.621590 0.635227 0.608995
Si Si6 0.324135 0.992400 0.170135
O O1 0.350287 0.442906 0.135945
O O2 0.170561 0.398121 0.100198
O O3 0.307793 0.171206 0.179335
O O4 0.250000 0.250000 0.000000
O O5 0.469251 0.682716 0.159308
O O6 0.530235 0.410061 0.143041
O O7 0.401485 0.541782 0.993924
O O8 0.913092 0.411599 0.243902
O O9 0.873034 0.309600 0.916743
O O10 0.847515 0.467269 0.064743
O O11 0.000000 0.500000 0.000000
O O12 0.725195 0.582333 0.670340
#
# Coordination Sequence:
#
# PCOD9275702 Si02
#       6
#     8   8   4   8   8   8
#     4  10  20  39  64 101 126 172 223 282 321 394
#     4  11  23  41  70  99 136 175 225 283 338 403
#     4  12  26  44  62  98 148 182 214 280 364 402
#     4  11  21  36  67 102 127 165 230 283 323 383
#     4  11  21  41  71  99 125 177 238 274 324 402
#     4  11  23  41  67  97 136 178 219 281 337 409
#
# _framework density 24.919134
#
# number of rings (size 3 to 8) (size 9 to 14) (size 15 to 20)
#    0.000    1.091    5.455    3.818    2.545    0.727 
#    0.000    7.273    0.000    0.000    0.000    0.000 
#    0.000    0.000    0.000    0.000    0.000    0.000 
#
# Total GULP energy -123269.798068 kJ/mol
# GULP energy per Si atom -5603.172639 kJ/mol
# Density = 2.486242 g / cm^3
# Si number density = 24.919134 Si / 1000 Ang^3
#
#
#
# Elastic Constant Matrix: (Units=GPa)
#
#
# Indices 1 2 3 4 5 6 
#
# 1 212.0652 87.8183 53.7606 0.0000 39.4029 0.0000
# 2 87.8183 183.7203 12.8692 0.0000 24.6996 0.0000
# 3 53.7606 12.8692 83.4165 0.0000 10.3684 0.0000
# 4 0.0000 0.0000 0.0000 19.3840 0.0000 28.2934
# 5 39.4029 24.6996 10.3684 0.0000 48.3746 0.0000
# 6 0.0000 0.0000 0.0000 28.2934 0.0000 56.2774
#
#
#
# Elastic Compliance Matrix: (Units=1/GPa)
#
#
# Indices 1 2 3 4 5 6 
#
# 1 0.007631 -0.002843 -0.003994 0.000000 -0.003909 0.000000
# 2 -0.002843 0.006927 0.000940 0.000000 -0.001423 0.000000
# 3 -0.003994 0.000940 0.014458 0.000000 -0.000326 0.000000
# 4 0.000000 0.000000 0.000000 0.193819 0.000000 -0.097442
# 5 -0.003909 -0.001423 -0.000326 0.000000 0.024652 0.000000
# 6 0.000000 0.000000 0.000000 -0.097442 0.000000 0.066758
#
#
# Mechanical properties :
#
#
# Convention : Reuss Voigt Hill
#
# Bulk Modulus (GPa) = 58.06026 87.56647 72.81337
# Shear Modulus (GPa) = 15.07026 46.45746 30.76386
#
# Velocity S-wave (km/s) = 2.46187 4.32247 3.51743
# Velocity P-wave (km/s) = 5.60635 7.75424 6.76607
#
# Compressibility (1/GPa) = 0.01722348
#
# Stress axis : x y z
#
# Youngs Moduli (GPa) = 131.03717 144.35684 69.16820
#
# Poissons Ratio (x) = 0.41034 0.27626
# Poissons Ratio (y) = 0.37248 -0.06503
# Poissons Ratio (z) = 0.52336 -0.13572
#
# Static dielectric constant tensor:
#      x y z
#    x 1.913740 0.000000 -0.047540 
#    y 0.000000 1.897670 0.000000 
#    z -0.047540 0.000000 2.148290 
# 
# From -- ./inp_files/202535.got.cif
#   From: 2010.05.17/outbox.cif.g08.bks.cpg/sg15_102_cif.got.tgz:202535.got - 2010.06.03 18:47:42.
