data_PCOD9275489
_publ_section_title
;
Structure prediction by ZEFSAII (Michael W. Deem and Ramdas Pophale) SiO2 
 PCOD9275489
Probable space group: C 2/C
;
_chemical_formula_sum "Si O2"
_cell_formula_units_Z 40
_cell_length_a 19.306658
_cell_length_b 9.286137
_cell_length_c 11.689649
_cell_angle_alpha 90.000000
_cell_angle_beta 134.146292
_cell_angle_gamma 90.000000
_cell_volume 1503.848834
_symmetry_space_group_name_H-M "C 2/C"
_symmetry_group_IT_number 15
_symmetry_cell_setting 'monoclinic'
loop_
_space_group_symop_operation_xyz
x,y,z
-x,y,1/2-z
-x,-y,-z
x,-y,1/2+z
1/2+x,1/2+y,z
1/2-x,1/2+y,1/2-z
1/2-x,1/2-y,-z
1/2+x,1/2-y,1/2+z
loop_
_atom_site_type_symbol
_atom_site_label
_atom_site_fract_x
_atom_site_fract_y
_atom_site_fract_z
Si Si1 0.126663 0.285028 0.954067
Si Si2 0.151795 0.873600 0.810388
Si Si3 0.455787 0.354026 0.373244
Si Si4 0.693653 0.172267 0.210568
Si Si5 0.164809 0.447803 0.359132
O O1 0.094506 0.202710 0.802848
O O2 0.121323 0.450745 0.908288
O O3 0.058213 0.222721 0.974537
O O4 0.233547 0.249368 0.116731
O O5 0.237527 0.862201 0.815093
O O6 0.123170 0.711888 0.808921
O O7 0.065848 0.975985 0.666706
O O8 0.218255 0.935937 0.989878
O O9 0.393300 0.284542 0.402989
O O10 0.652419 0.030363 0.224778
#
# Coordination Sequence:
#
# PCOD9275489 Si02
#       5
#     8   8   8   8   8
#     4  10  20  39  65  84 122 170 207 239 314 378
#     4  11  21  36  65  95 124 156 209 261 305 354
#     4  10  20  39  62  88 119 171 202 249 310 367
#     4  11  20  39  66  87 124 171 204 243 310 379
#     4  10  21  38  62  95 124 160 204 260 306 361
#
# _framework density 26.598417000000001
#
# number of rings (size 3 to 8) (size 9 to 14) (size 15 to 20)
#    0.000    1.600    4.000    2.400    0.000    0.800 
#    0.000    9.000    8.800    0.000    0.000    0.000 
#    0.000    0.000    0.000    0.000    0.000    0.000 
#
# Total GULP energy -111929.373932 kJ/mol
# GULP energy per Si atom -5596.468697 kJ/mol
# Density = 2.653788 g / cm^3
# Si number density = 26.598417 Si / 1000 Ang^3
#
#
#
# Elastic Constant Matrix: (Units=GPa)
#
#
# Indices 1 2 3 4 5 6 
#
# 1 125.4297 55.2991 15.3929 0.0000 18.7118 0.0000
# 2 55.2991 237.9850 15.8480 0.0000 15.0791 0.0000
# 3 15.3929 15.8480 31.9306 0.0000 16.6333 0.0000
# 4 0.0000 0.0000 0.0000 37.3931 0.0000 -1.4307
# 5 18.7118 15.0791 16.6333 0.0000 46.3399 0.0000
# 6 0.0000 0.0000 0.0000 -1.4307 0.0000 25.8571
#
#
#
# Elastic Compliance Matrix: (Units=1/GPa)
#
#
# Indices 1 2 3 4 5 6 
#
# 1 0.009448 -0.001887 -0.002399 0.000000 -0.002340 0.000000
# 2 -0.001887 0.004746 -0.001277 0.000000 -0.000324 0.000000
# 3 -0.002399 -0.001277 0.039836 0.000000 -0.012914 0.000000
# 4 0.000000 0.000000 0.000000 0.026800 0.000000 0.001483
# 5 -0.002340 -0.000324 -0.012914 0.000000 0.027265 0.000000
# 6 0.000000 0.000000 0.000000 0.001483 0.000000 0.038756
#
#
# Mechanical properties :
#
#
# Convention : Reuss Voigt Hill
#
# Bulk Modulus (GPa) = 23.30849 63.15836 43.23342
# Shear Modulus (GPa) = 29.02272 42.50506 35.76389
#
# Velocity S-wave (km/s) = 3.30683 4.00187 3.67084
# Velocity P-wave (km/s) = 4.83346 6.71938 5.85288
#
# Compressibility (1/GPa) = 0.04290283
#
# Stress axis : x y z
#
# Youngs Moduli (GPa) = 105.84055 210.70069 25.10320
#
# Poissons Ratio (x) = 0.39768 0.06022
# Poissons Ratio (y) = 0.19976 0.03206
# Poissons Ratio (z) = 0.25392 0.26907
#
# Static dielectric constant tensor:
#      x y z
#    x 2.110630 0.000000 -0.050610 
#    y 0.000000 2.156500 0.000000 
#    z -0.050610 0.000000 2.193730 
# 
# From -- ./inp_files/166498.got.cif
#   From: 2010.05.17/outbox.cif.g08.bks.cpg/sg15_84_cif.got.tgz:166498.got - 2010.06.03 18:47:42.
