data_PCOD9275157
_publ_section_title
;
Structure prediction by ZEFSAII (Michael W. Deem and Ramdas Pophale) SiO2 
 PCOD9275157
Probable space group: C 2/C
;
_chemical_formula_sum "Si O2"
_cell_formula_units_Z 48
_cell_length_a 12.047535
_cell_length_b 13.763947
_cell_length_c 15.343975
_cell_angle_alpha 90.000000
_cell_angle_beta 89.142865
_cell_angle_gamma 90.000000
_cell_volume 2544.078290
_symmetry_space_group_name_H-M "C 2/C"
_symmetry_group_IT_number 15
_symmetry_cell_setting 'monoclinic'
loop_
_space_group_symop_operation_xyz
x,y,z
-x,y,1/2-z
-x,-y,-z
x,-y,1/2+z
1/2+x,1/2+y,z
1/2-x,1/2+y,1/2-z
1/2-x,1/2-y,-z
1/2+x,1/2-y,1/2+z
loop_
_atom_site_type_symbol
_atom_site_label
_atom_site_fract_x
_atom_site_fract_y
_atom_site_fract_z
Si Si1 0.511158 0.310543 0.348633
Si Si2 0.577366 0.486011 0.912861
Si Si3 0.465044 0.156984 0.014083
Si Si4 0.177355 0.529043 0.013900
Si Si5 0.241309 0.809099 0.091414
Si Si6 0.449913 0.725429 0.156898
O O1 0.500000 0.277190 0.250000
O O2 0.564373 0.416782 0.356432
O O3 0.568868 0.234351 0.412500
O O4 0.385861 0.317370 0.384872
O O5 0.707199 0.471900 0.935437
O O6 0.538114 0.388050 0.865999
O O7 0.500000 0.500000 0.000000
O O8 0.573924 0.096481 0.046613
O O9 0.498338 0.213570 0.924811
O O10 0.371285 0.077712 0.996749
O O11 0.210423 0.583329 0.924050
O O12 0.319636 0.753065 0.157082
O O13 0.250000 0.750000 0.000000
O O14 0.500000 0.748595 0.250000
#
# Coordination Sequence:
#
# PCOD9275157 Si02
#       6
#     8   8   8   8   8   8
#     4  12  24  39  61  95 126 163 207 260 315 370
#     4  12  20  39  62  88 124 165 211 254 311 376
#     4  10  21  42  62  91 124 160 210 261 312 362
#     4  10  20  38  70  85 116 172 210 248 313 371
#     4  11  18  43  68  82 121 179 204 241 315 386
#     4  11  22  39  66  90 120 167 216 251 304 379
#
# _framework density 18.867343999999999
#
# number of rings (size 3 to 8) (size 9 to 14) (size 15 to 20)
#    0.000    1.000    8.333    0.500    0.000    2.000 
#    3.000    9.167    0.000    0.000    0.000    0.000 
#    0.000    0.000    0.000    0.000    0.000    0.000 
#
# Total GULP energy -133893.266510 kJ/mol
# GULP energy per Si atom -5578.886105 kJ/mol
# Density = 1.882440 g / cm^3
# Si number density = 18.867344 Si / 1000 Ang^3
#
#
#
# Elastic Constant Matrix: (Units=GPa)
#
#
# Indices 1 2 3 4 5 6 
#
# 1 61.8249 18.7041 19.1130 0.0000 13.8330 0.0000
# 2 18.7041 133.2846 40.3103 0.0000 6.5177 0.0000
# 3 19.1130 40.3103 95.5594 0.0000 20.3902 0.0000
# 4 0.0000 0.0000 0.0000 8.9544 0.0000 8.7593
# 5 13.8330 6.5177 20.3902 0.0000 27.8918 0.0000
# 6 0.0000 0.0000 0.0000 8.7593 0.0000 30.0462
#
#
#
# Elastic Compliance Matrix: (Units=1/GPa)
#
#
# Indices 1 2 3 4 5 6 
#
# 1 0.018932 -0.001876 -0.001286 0.000000 -0.008011 0.000000
# 2 -0.001876 0.008799 -0.003669 0.000000 0.001556 0.000000
# 3 -0.001286 -0.003669 0.014159 0.000000 -0.008856 0.000000
# 4 0.000000 0.000000 0.000000 0.156230 0.000000 -0.045546
# 5 -0.008011 0.001556 -0.008856 0.000000 0.045936 0.000000
# 6 0.000000 0.000000 0.000000 -0.045546 0.000000 0.046560
#
#
# Mechanical properties :
#
#
# Convention : Reuss Voigt Hill
#
# Bulk Modulus (GPa) = 35.42408 49.65818 42.54113
# Shear Modulus (GPa) = 15.93936 27.54790 21.74363
#
# Velocity S-wave (km/s) = 2.90972 3.82525 3.39846
# Velocity P-wave (km/s) = 5.48678 6.77398 6.16407
#
# Compressibility (1/GPa) = 0.02822938
#
# Stress axis : x y z
#
# Youngs Moduli (GPa) = 52.81977 113.64286 70.62575
#
# Poissons Ratio (x) = 0.21321 0.09081
# Poissons Ratio (y) = 0.09910 0.25911
# Poissons Ratio (z) = 0.06792 0.41693
#
# Static dielectric constant tensor:
#      x y z
#    x 1.684790 0.000000 0.051020 
#    y 0.000000 1.686910 0.000000 
#    z 0.051020 0.000000 2.034280 
# 
# From -- ./inp_files/143736.got.cif
#   From: 2010.05.17/outbox.cif.g08.bks.cpg/sg15_72_cif.got.tgz:143736.got - 2010.06.03 18:47:42.
