data_PCOD9275411
_publ_section_title
;
Structure prediction by ZEFSAII (Michael W. Deem and Ramdas Pophale) SiO2 
 PCOD9275411
Probable space group: C 2/C
;
_chemical_formula_sum "Si O2"
_cell_formula_units_Z 44
_cell_length_a 14.018123
_cell_length_b 14.648240
_cell_length_c 21.992520
_cell_angle_alpha 90.000000
_cell_angle_beta 31.223478
_cell_angle_gamma 90.000000
_cell_volume 2340.973105
_symmetry_space_group_name_H-M "C 2/C"
_symmetry_group_IT_number 15
_symmetry_cell_setting 'monoclinic'
loop_
_space_group_symop_operation_xyz
x,y,z
-x,y,1/2-z
-x,-y,-z
x,-y,1/2+z
1/2+x,1/2+y,z
1/2-x,1/2+y,1/2-z
1/2-x,1/2-y,-z
1/2+x,1/2-y,1/2+z
loop_
_atom_site_type_symbol
_atom_site_label
_atom_site_fract_x
_atom_site_fract_y
_atom_site_fract_z
Si Si1 0.691293 0.726087 0.222635
Si Si2 0.573350 0.090182 0.858933
Si Si3 0.792499 0.113108 0.861216
Si Si4 0.000000 0.291458 0.750000
Si Si5 0.292396 0.685017 0.420989
Si Si6 0.495081 0.107696 0.127626
O O1 0.643734 0.821892 0.282023
O O2 0.506630 0.664369 0.315618
O O3 0.739755 0.737925 0.125070
O O4 0.847916 0.671821 0.172969
O O5 0.683980 0.080823 0.861398
O O6 0.584593 0.993673 0.819557
O O7 0.359745 0.107062 0.992831
O O8 0.000000 0.073229 0.750000
O O9 0.830774 0.221695 0.831843
O O10 0.673012 0.101743 0.986889
O O11 0.963829 0.348785 0.829767
O O12 0.250000 0.750000 0.500000
#
# Coordination Sequence:
#
# PCOD9275411 Si02
#       6
#     8   8   8   4   8   8
#     4  10  20  39  61  88 126 164 204 264 324 370
#     4  11  22  39  64  94 123 168 214 260 317 382
#     4  10  22  40  64  90 125 172 214 259 314 384
#     4  10  24  42  64  90 134 172 208 260 336 366
#     4   9  20  36  60  85 120 163 204 253 315 378
#     4  12  23  40  66  95 129 168 217 267 311 388
#
# _framework density 18.795603
#
# number of rings (size 3 to 8) (size 9 to 14) (size 15 to 20)
#    0.545    1.091    3.636    1.091    0.000    4.364 
#    0.000    0.000    0.000    5.455    0.000    0.000 
#    0.000    0.000    0.000    0.000    0.000    0.000 
#
# Total GULP energy -122587.557629 kJ/mol
# GULP energy per Si atom -5572.161710 kJ/mol
# Density = 1.875282 g / cm^3
# Si number density = 18.795603 Si / 1000 Ang^3
#
#
#
# Elastic Constant Matrix: (Units=GPa)
#
#
# Indices 1 2 3 4 5 6 
#
# 1 51.2858 -9.2639 14.7837 -0.0005 0.3612 -0.0003
# 2 -9.2639 66.1265 18.1500 -0.0029 -3.6892 0.0002
# 3 14.7837 18.1500 72.3238 -0.0056 1.9176 0.0005
# 4 -0.0005 -0.0029 -0.0056 1.8371 0.0006 4.9693
# 5 0.3612 -3.6892 1.9176 0.0006 32.1789 0.0002
# 6 -0.0003 0.0002 0.0005 4.9693 0.0002 8.8753
#
#
#
# Elastic Compliance Matrix: (Units=1/GPa)
#
#
# Indices 1 2 3 4 5 6 
#
# 1 0.021976 0.004673 -0.005682 0.000012 0.000628 -0.000006
# 2 0.004673 0.017379 -0.005377 -0.000023 0.002260 0.000013
# 3 -0.005682 -0.005377 0.016378 -0.000082 -0.001529 0.000045
# 4 0.000012 -0.000023 -0.000082 -1.057953 0.000020 0.592351
# 5 0.000628 0.002260 -0.001529 0.000020 0.031419 -0.000012
# 6 -0.000006 0.000013 0.000045 0.592351 -0.000012 -0.218987
#
#
# Mechanical properties :
#
#
# Convention : Reuss Voigt Hill
#
# Bulk Modulus (GPa) = 23.27576 26.34175 24.80875
# Shear Modulus (GPa) = -4.30035 19.64934 7.67450
#
# Velocity S-wave (km/s) = -1.51424 3.23681 2.02287
# Velocity P-wave (km/s) = 3.05831 5.29287 4.32249
#
# Compressibility (1/GPa) = 0.04296316
#
# Stress axis : x y z
#
# Youngs Moduli (GPa) = 45.50406 57.54061 61.05802
#
# Poissons Ratio (x) = -0.26890 0.34690
# Poissons Ratio (y) = -0.21265 0.32828
# Poissons Ratio (z) = 0.25853 0.30937
#
# Static dielectric constant tensor:
#      x y z
#    x 1.619700 -0.000010 -0.032620 
#    y -0.000010 1.264160 0.000020 
#    z -0.032620 0.000020 1.703340 
# 
# From -- ./inp_files/244481.got.cif
#   From: 2010.05.17/outbox.cif.g08.bks.cpg/sg15_123_cif.got.tgz:244481.got - 2010.06.03 18:47:42.
