data_PCOD9275861
_publ_section_title
;
Structure prediction by ZEFSAII (Michael W. Deem and Ramdas Pophale) SiO2 
 PCOD9275861
Probable space group: C 2/C
;
_chemical_formula_sum "Si O2"
_cell_formula_units_Z 48
_cell_length_a 19.456427
_cell_length_b 7.692468
_cell_length_c 19.800206
_cell_angle_alpha 90.000000
_cell_angle_beta 139.960933
_cell_angle_gamma 90.000000
_cell_volume 1906.420300
_symmetry_space_group_name_H-M "C 2/C"
_symmetry_group_IT_number 15
_symmetry_cell_setting 'monoclinic'
loop_
_space_group_symop_operation_xyz
x,y,z
-x,y,1/2-z
-x,-y,-z
x,-y,1/2+z
1/2+x,1/2+y,z
1/2-x,1/2+y,1/2-z
1/2-x,1/2-y,-z
1/2+x,1/2-y,1/2+z
loop_
_atom_site_type_symbol
_atom_site_label
_atom_site_fract_x
_atom_site_fract_y
_atom_site_fract_z
Si Si1 0.378052 0.883646 0.649968
Si Si2 0.409924 0.495422 0.727060
Si Si3 0.910172 0.872005 0.369235
Si Si4 0.199612 0.375213 0.518546
Si Si5 0.806828 0.510342 0.236737
Si Si6 0.509351 0.828219 0.053471
O O1 0.500000 0.947914 0.750000
O O2 0.385803 0.677849 0.669669
O O3 0.334752 0.947369 0.545903
O O4 0.310310 0.969493 0.658888
O O5 0.500000 0.402181 0.750000
O O6 0.451800 0.535927 0.833018
O O7 0.294958 0.406720 0.642812
O O8 0.857244 0.690555 0.302374
O O9 0.810349 0.973655 0.324930
O O10 0.999709 0.821486 0.490693
O O11 0.250000 0.250000 0.500000
O O12 0.094389 0.312055 0.477315
O O13 0.886189 0.360083 0.323484
O O14 0.500000 0.000000 0.000000
#
# Coordination Sequence:
#
# PCOD9275861 Si02
#       6
#     8   8   8   8   8   8
#     4  10  20  39  65  91 126 174 218 263 327 397
#     4  10  23  42  63  91 128 171 220 271 324 395
#     4  10  21  40  64  94 127 170 221 271 327 392
#     4  12  24  41  65  98 132 170 221 276 337 395
#     4  10  20  40  63  92 130 171 218 270 326 394
#     4  10  21  39  67  93 128 173 218 262 335 400
#
# _framework density 25.178076999999998
#
# number of rings (size 3 to 8) (size 9 to 14) (size 15 to 20)
#    0.000    1.667    1.667    3.500    2.333    0.667 
#   12.000    0.833    0.000    0.000    0.000    0.000 
#    0.000    0.000    0.000    0.000    0.000    0.000 
#
# Total GULP energy -134504.687206 kJ/mol
# GULP energy per Si atom -5604.361967 kJ/mol
# Density = 2.512077 g / cm^3
# Si number density = 25.178077 Si / 1000 Ang^3
#
#
#
# Elastic Constant Matrix: (Units=GPa)
#
#
# Indices 1 2 3 4 5 6 
#
# 1 127.3049 7.7619 38.4201 0.0000 9.4856 0.0000
# 2 7.7619 78.3249 8.0349 0.0000 5.4755 0.0001
# 3 38.4201 8.0349 110.6175 0.0000 9.0044 0.0000
# 4 0.0000 0.0000 0.0000 27.2563 0.0000 4.5476
# 5 9.4856 5.4755 9.0044 0.0000 36.9284 0.0000
# 6 0.0000 0.0001 0.0000 4.5476 0.0000 30.0873
#
#
#
# Elastic Compliance Matrix: (Units=1/GPa)
#
#
# Indices 1 2 3 4 5 6 
#
# 1 0.008879 -0.000475 -0.002928 0.000000 -0.001496 0.000000
# 2 -0.000475 0.012996 -0.000645 0.000000 -0.001648 0.000000
# 3 -0.002928 -0.000645 0.010238 0.000000 -0.001649 0.000000
# 4 0.000000 0.000000 0.000000 0.037638 0.000000 -0.005689
# 5 -0.001496 -0.001648 -0.001649 0.000000 0.028110 0.000000
# 6 0.000000 0.000000 0.000000 -0.005689 0.000000 0.034096
#
#
# Mechanical properties :
#
#
# Convention : Reuss Voigt Hill
#
# Bulk Modulus (GPa) = 41.63545 47.18679 44.41112
# Shear Modulus (GPa) = 33.77046 36.32311 35.04679
#
# Velocity S-wave (km/s) = 3.66630 3.80234 3.73494
# Velocity P-wave (km/s) = 5.87321 6.16920 6.02302
#
# Compressibility (1/GPa) = 0.02401799
#
# Stress axis : x y z
#
# Youngs Moduli (GPa) = 112.62320 76.94831 97.67479
#
# Poissons Ratio (x) = 0.03655 0.28596
# Poissons Ratio (y) = 0.05349 0.06299
# Poissons Ratio (z) = 0.32972 0.04962
#
# Static dielectric constant tensor:
#      x y z
#    x 1.888420 0.000000 0.020750 
#    y 0.000000 2.042480 0.000000 
#    z 0.020750 0.000000 1.913510 
# 
# From -- ./inp_files/247275.got.cif
#   From: 2010.05.17/outbox.cif.g08.bks.cpg/sg15_124_cif.got.tgz:247275.got - 2010.06.03 18:47:42.
