data_PCOD9275778
_publ_section_title
;
Structure prediction by ZEFSAII (Michael W. Deem and Ramdas Pophale) SiO2 
 PCOD9275778
Probable space group: C 2/C
;
_chemical_formula_sum "Si O2"
_cell_formula_units_Z 48
_cell_length_a 22.335072
_cell_length_b 26.197500
_cell_length_c 11.483501
_cell_angle_alpha 90.000000
_cell_angle_beta 158.949681
_cell_angle_gamma 90.000000
_cell_volume 2413.476024
_symmetry_space_group_name_H-M "C 2/C"
_symmetry_group_IT_number 15
_symmetry_cell_setting 'monoclinic'
loop_
_space_group_symop_operation_xyz
x,y,z
-x,y,1/2-z
-x,-y,-z
x,-y,1/2+z
1/2+x,1/2+y,z
1/2-x,1/2+y,1/2-z
1/2-x,1/2-y,-z
1/2+x,1/2-y,1/2+z
loop_
_atom_site_type_symbol
_atom_site_label
_atom_site_fract_x
_atom_site_fract_y
_atom_site_fract_z
Si Si1 0.000000 0.944209 0.750000
Si Si2 0.274850 0.296755 0.136717
Si Si3 0.414883 0.098541 0.223858
Si Si4 0.000000 0.240483 0.750000
Si Si5 0.133659 0.204772 0.238923
Si Si6 0.181684 0.996918 0.269877
Si Si7 0.756286 0.597453 0.526153
O O1 0.861822 0.980254 0.439788
O O2 0.896816 0.912581 0.659640
O O3 0.467766 0.299091 0.516468
O O4 0.250000 0.250000 0.000000
O O5 0.200002 0.351361 0.964432
O O6 0.157673 0.277807 0.026504
O O7 0.500000 0.099643 0.250000
O O8 0.569957 0.097643 0.591516
O O9 0.299895 0.048503 0.029115
O O10 0.948873 0.210296 0.540375
O O11 0.250000 0.250000 0.500000
O O12 0.229778 0.151940 0.419979
O O13 0.257255 0.051719 0.434696
O O14 0.000000 0.000000 0.000000
#
# Coordination Sequence:
#
# PCOD9275778 Si02
#       7
#     4   8   8   4   8   8   8
#     4  10  20  39  64  94 124 171 212 272 324 390
#     4  10  21  39  66  96 132 172 218 269 329 390
#     4  12  22  40  69  94 127 172 219 271 323 390
#     4  10  22  43  62  96 140 173 212 280 336 382
#     4  11  25  41  67  98 133 178 223 269 330 405
#     4  10  22  39  63  93 127 165 215 271 329 386
#     4  11  23  39  63  95 128 165 225 265 327 396
#
# _framework density 19.888328000000001
#
# number of rings (size 3 to 8) (size 9 to 14) (size 15 to 20)
#    0.000    1.333    2.500    4.500    0.000    1.333 
#    0.000    1.667    3.667    0.000    0.000    0.000 
#    0.000    0.000    0.000    0.000    0.000    0.000 
#
# Total GULP energy -133779.576269 kJ/mol
# GULP energy per Si atom -5574.149011 kJ/mol
# Density = 1.984306 g / cm^3
# Si number density = 19.888328 Si / 1000 Ang^3
#
#
#
# Elastic Constant Matrix: (Units=GPa)
#
#
# Indices 1 2 3 4 5 6 
#
# 1 33.2063 28.9976 24.2574 0.0000 -1.6301 0.0000
# 2 28.9976 197.0020 86.1857 0.0000 -7.5298 0.0000
# 3 24.2574 86.1857 169.2408 0.0000 -5.0762 0.0000
# 4 0.0000 0.0000 0.0000 43.4629 0.0000 5.8557
# 5 -1.6301 -7.5298 -5.0762 0.0000 38.6022 0.0000
# 6 0.0000 0.0000 0.0000 5.8557 0.0000 17.6682
#
#
#
# Elastic Compliance Matrix: (Units=1/GPa)
#
#
# Indices 1 2 3 4 5 6 
#
# 1 0.035821 -0.003883 -0.003147 0.000000 0.000341 0.000000
# 2 -0.003883 0.006979 -0.002973 0.000000 0.000806 0.000000
# 3 -0.003147 -0.002973 0.007884 0.000000 0.000324 0.000000
# 4 0.000000 0.000000 0.000000 0.024083 0.000000 -0.007982
# 5 0.000341 0.000806 0.000324 0.000000 0.026120 0.000000
# 6 0.000000 0.000000 0.000000 -0.007982 0.000000 0.059244
#
#
# Mechanical properties :
#
#
# Convention : Reuss Voigt Hill
#
# Bulk Modulus (GPa) = 32.59682 75.37008 53.98345
# Shear Modulus (GPa) = 26.26557 37.28057 31.77307
#
# Velocity S-wave (km/s) = 3.63802 4.33424 4.00130
# Velocity P-wave (km/s) = 5.83716 7.93892 6.96774
#
# Compressibility (1/GPa) = 0.03067784
#
# Stress axis : x y z
#
# Youngs Moduli (GPa) = 27.91661 143.28033 126.84412
#
# Poissons Ratio (x) = 0.55636 0.39913
# Poissons Ratio (y) = 0.10840 0.37717
# Poissons Ratio (z) = 0.08784 0.42604
#
# Static dielectric constant tensor:
#      x y z
#    x 0.597930 0.000000 -0.485960 
#    y 0.000000 1.717020 0.000000 
#    z -0.485960 0.000000 1.514490 
# 
# From -- ./inp_files/120375.got.cif
#   From: 2010.05.17/outbox.cif.g08.bks.cpg/sg15_61_cif.got.tgz:120375.got - 2010.06.03 18:47:42.
