data_PCOD9275960
_publ_section_title
;
Structure prediction by ZEFSAII (Michael W. Deem and Ramdas Pophale) SiO2 
 PCOD9275960
Probable space group: C 2/C
;
_chemical_formula_sum "Si O2"
_cell_formula_units_Z 52
_cell_length_a 5.242896
_cell_length_b 29.312117
_cell_length_c 14.667307
_cell_angle_alpha 90.000000
_cell_angle_beta 81.054324
_cell_angle_gamma 90.000000
_cell_volume 2226.659221
_symmetry_space_group_name_H-M "C 2/C"
_symmetry_group_IT_number 15
_symmetry_cell_setting 'monoclinic'
loop_
_space_group_symop_operation_xyz
x,y,z
-x,y,1/2-z
-x,-y,-z
x,-y,1/2+z
1/2+x,1/2+y,z
1/2-x,1/2+y,1/2-z
1/2-x,1/2-y,-z
1/2+x,1/2-y,1/2+z
loop_
_atom_site_type_symbol
_atom_site_label
_atom_site_fract_x
_atom_site_fract_y
_atom_site_fract_z
Si Si1 0.226437 0.954878 0.805575
Si Si2 0.000000 0.000000 0.500000
Si Si3 0.981544 0.728888 0.546745
Si Si4 0.000000 0.709237 0.750000
Si Si5 0.646009 0.408596 0.068246
Si Si6 0.237340 0.353993 0.773343
Si Si7 0.500000 0.351499 0.250000
Si Si8 0.337529 0.871154 0.512151
O O1 0.500000 0.971714 0.750000
O O2 0.154248 0.968482 0.912013
O O3 0.000000 0.969402 0.750000
O O4 0.239505 0.899337 0.791487
O O5 0.043649 0.040200 0.571803
O O6 0.250000 0.750000 0.500000
O O7 0.750000 0.750000 0.500000
O O8 0.954200 0.734486 0.656651
O O9 0.021311 0.675149 0.526172
O O10 0.737916 0.678781 0.774987
O O11 0.617542 0.383585 0.165917
O O12 0.949058 0.408717 0.025182
O O13 0.441461 0.380509 0.016122
O O14 0.500000 0.327851 0.750000
O O15 0.000000 0.325724 0.750000
O O16 0.196082 0.369532 0.878074
#
# Coordination Sequence:
#
# PCOD9275960 Si02
#       8
#     8   4   8   4   8   8   4   8
#     4  10  22  42  62  93 135 184 234 303 374 419
#     4  12  28  44  74 106 152 200 262 330 372 446
#     4  12  26  48  79 116 151 193 248 315 385 469
#     4  12  24  52  80 106 159 198 247 320 390 454
#     4  12  25  43  72 107 140 201 253 309 380 437
#     4  10  20  39  66  91 134 184 231 289 361 434
#     4  12  22  46  74 108 141 208 253 308 376 472
#     4  12  24  48  75 102 148 192 249 305 383 461
#
# _framework density 23.353370999999999
#
# number of rings (size 3 to 8) (size 9 to 14) (size 15 to 20)
#    0.000    0.615    3.077    6.462    1.077    2.462 
#    5.538    0.000    0.000    0.000    0.000    0.000 
#    0.000    0.000    0.000    0.000    0.000    0.000 
#
# Total GULP energy -144910.473340 kJ/mol
# GULP energy per Si atom -5573.479744 kJ/mol
# Density = 2.330022 g / cm^3
# Si number density = 23.353371 Si / 1000 Ang^3
#
#
#
# Elastic Constant Matrix: (Units=GPa)
#
#
# Indices 1 2 3 4 5 6 
#
# 1 159.8891 -9.6714 47.9273 0.0000 -1.4671 0.0000
# 2 -9.6714 68.4802 17.4313 0.0000 1.7891 0.0000
# 3 47.9273 17.4313 158.0892 0.0000 3.3079 0.0000
# 4 0.0000 0.0000 0.0000 42.5289 0.0000 3.8585
# 5 -1.4671 1.7891 3.3079 0.0000 36.5995 0.0000
# 6 0.0000 0.0000 0.0000 3.8585 0.0000 0.9652
#
#
#
# Elastic Compliance Matrix: (Units=1/GPa)
#
#
# Indices 1 2 3 4 5 6 
#
# 1 0.007049 0.001575 -0.002319 0.000000 0.000415 0.000000
# 2 0.001575 0.015389 -0.002164 0.000000 -0.000494 0.000000
# 3 -0.002319 -0.002164 0.007281 0.000000 -0.000645 0.000000
# 4 0.000000 0.000000 0.000000 0.036895 0.000000 -0.147491
# 5 0.000415 -0.000494 -0.000645 0.000000 0.027422 0.000000
# 6 0.000000 0.000000 0.000000 -0.147491 0.000000 1.625661
#
#
# Mechanical properties :
#
#
# Convention : Reuss Voigt Hill
#
# Bulk Modulus (GPa) = 41.83783 55.31476 48.57630
# Shear Modulus (GPa) = 2.88437 38.07014 20.47726
#
# Velocity S-wave (km/s) = 1.11256 4.04193 2.96437
# Velocity P-wave (km/s) = 4.42768 6.74687 5.70634
#
# Compressibility (1/GPa) = 0.02390181
#
# Stress axis : x y z
#
# Youngs Moduli (GPa) = 141.87187 64.98180 137.34821
#
# Poissons Ratio (x) = -0.10234 0.31854
# Poissons Ratio (y) = -0.22344 0.29722
# Poissons Ratio (z) = 0.32904 0.14062
#
# Static dielectric constant tensor:
#      x y z
#    x 1.967280 0.000000 -0.030030 
#    y 0.000000 1.774600 0.000000 
#    z -0.030030 0.000000 1.858510 
# 
# From -- ./inp_files/130754.got.cif
#   From: 2010.05.17/outbox.cif.g08.bks.cpg/sg15_66_cif.got.tgz:130754.got - 2010.06.03 18:47:42.
