data_PCOD9275543
_publ_section_title
;
Structure prediction by ZEFSAII (Michael W. Deem and Ramdas Pophale) SiO2 
 PCOD9275543
Probable space group: C 2/C
;
_chemical_formula_sum "Si O2"
_cell_formula_units_Z 60
_cell_length_a 12.346039
_cell_length_b 15.221578
_cell_length_c 17.445694
_cell_angle_alpha 90.000000
_cell_angle_beta 81.702836
_cell_angle_gamma 90.000000
_cell_volume 3244.186594
_symmetry_space_group_name_H-M "C 2/C"
_symmetry_group_IT_number 15
_symmetry_cell_setting 'monoclinic'
loop_
_space_group_symop_operation_xyz
x,y,z
-x,y,1/2-z
-x,-y,-z
x,-y,1/2+z
1/2+x,1/2+y,z
1/2-x,1/2+y,1/2-z
1/2-x,1/2-y,-z
1/2+x,1/2-y,1/2+z
loop_
_atom_site_type_symbol
_atom_site_label
_atom_site_fract_x
_atom_site_fract_y
_atom_site_fract_z
Si Si1 0.068233 0.757372 0.509365
Si Si2 0.760299 0.303413 0.781109
Si Si3 0.017806 0.106603 0.892366
Si Si4 0.709821 0.471157 0.113598
Si Si5 0.500000 0.257968 0.250000
Si Si6 0.679152 0.201610 0.939681
Si Si7 0.121354 0.021654 0.276040
Si Si8 0.261052 0.319083 0.890580
O O1 0.052882 0.848068 0.465949
O O2 0.150714 0.702838 0.447545
O O3 0.133962 0.777179 0.579516
O O4 0.948668 0.717416 0.532264
O O5 0.892081 0.300732 0.773828
O O6 0.714803 0.244296 0.854717
O O7 0.694257 0.394967 0.789607
O O8 0.742766 0.278572 0.693921
O O9 0.902049 0.059438 0.914469
O O10 0.009071 0.178932 0.824188
O O11 0.099854 0.034049 0.853327
O O12 0.796548 0.402240 0.071994
O O13 0.683733 0.461649 0.207178
O O14 0.729421 0.575147 0.107281
O O15 0.750000 0.250000 0.000000
O O16 0.000000 0.042330 0.250000
#
# Coordination Sequence:
#
# PCOD9275543 Si02
#       8
#     8   8   8   8   4   8   8   8
#     4  11  24  41  64  95 127 166 206 252 322 377
#     4  11  23  38  66  91 124 164 209 258 310 375
#     4  11  18  37  64  90 121 158 210 257 300 365
#     4  10  20  39  62  93 125 160 210 259 310 358
#     4  12  18  38  66  88 114 168 204 252 304 372
#     4  12  24  39  64 100 124 158 216 266 306 361
#     4   9  20  36  64  96 121 162 212 259 307 362
#     4  10  25  43  63  89 128 173 199 254 325 381
#
# _framework density 18.494620000000001
#
# number of rings (size 3 to 8) (size 9 to 14) (size 15 to 20)
#    0.000    1.333    6.000    0.000    5.600    2.133 
#    0.000    0.000   11.733    0.000    0.000    0.000 
#    0.000    0.000    0.000    0.000    0.000    0.000 
#
# Total GULP energy -167273.446999 kJ/mol
# GULP energy per Si atom -5575.781567 kJ/mol
# Density = 1.845253 g / cm^3
# Si number density = 18.494620 Si / 1000 Ang^3
#
#
#
# Elastic Constant Matrix: (Units=GPa)
#
#
# Indices 1 2 3 4 5 6 
#
# 1 115.4791 30.0423 39.9985 0.0000 -9.0293 0.0000
# 2 30.0423 52.4473 21.3790 0.0000 -4.2674 0.0000
# 3 39.9985 21.3790 85.2257 0.0000 10.5957 0.0000
# 4 0.0000 0.0000 0.0000 14.4279 0.0000 9.6679
# 5 -9.0293 -4.2674 10.5957 0.0000 10.3817 0.0000
# 6 0.0000 0.0000 0.0000 9.6679 0.0000 -22.4407
#
#
#
# Elastic Compliance Matrix: (Units=1/GPa)
#
#
# Indices 1 2 3 4 5 6 
#
# 1 0.013698 -0.003052 -0.008004 0.000000 0.018828 0.000000
# 2 -0.003052 0.024607 -0.006492 0.000000 0.014086 0.000000
# 3 -0.008004 -0.006492 0.020978 0.000000 -0.031040 0.000000
# 4 0.000000 0.000000 0.000000 0.053783 0.000000 0.023171
# 5 0.018828 0.014086 -0.031040 0.000000 0.150168 0.000000
# 6 0.000000 0.000000 0.000000 0.023171 0.000000 -0.034579
#
#
# Mechanical properties :
#
#
# Convention : Reuss Voigt Hill
#
# Bulk Modulus (GPa) = 41.34353 48.44352 44.89352
# Shear Modulus (GPa) = 18.39506 11.25596 14.82551
#
# Velocity S-wave (km/s) = 3.15718 2.46967 2.83435
# Velocity P-wave (km/s) = 5.97438 5.86366 5.91928
#
# Compressibility (1/GPa) = 0.02418758
#
# Stress axis : x y z
#
# Youngs Moduli (GPa) = 73.00309 40.63869 47.67000
#
# Poissons Ratio (x) = 0.12402 0.38156
# Poissons Ratio (y) = 0.22278 0.30946
# Poissons Ratio (z) = 0.58433 0.26381
#
# Static dielectric constant tensor:
#      x y z
#    x 1.637220 0.000000 -0.000160 
#    y 0.000000 1.652670 0.000000 
#    z -0.000160 0.000000 1.673470 
# 
# From -- ./inp_files/197891.got.cif
#   From: 2010.05.17/outbox.cif.g08.bks.cpg/sg15_99_cif.got.tgz:197891.got - 2010.06.03 18:47:42.
