data_PCOD9275136
_publ_section_title
;
Structure prediction by ZEFSAII (Michael W. Deem and Ramdas Pophale) SiO2 
 PCOD9275136
Probable space group: C 2/C
;
_chemical_formula_sum "Si O2"
_cell_formula_units_Z 64
_cell_length_a 17.127192
_cell_length_b 9.375035
_cell_length_c 26.950436
_cell_angle_alpha 90.000000
_cell_angle_beta 34.977819
_cell_angle_gamma 90.000000
_cell_volume 2480.709723
_symmetry_space_group_name_H-M "C 2/C"
_symmetry_group_IT_number 15
_symmetry_cell_setting 'monoclinic'
loop_
_space_group_symop_operation_xyz
x,y,z
-x,y,1/2-z
-x,-y,-z
x,-y,1/2+z
1/2+x,1/2+y,z
1/2-x,1/2+y,1/2-z
1/2-x,1/2-y,-z
1/2+x,1/2-y,1/2+z
loop_
_atom_site_type_symbol
_atom_site_label
_atom_site_fract_x
_atom_site_fract_y
_atom_site_fract_z
Si Si1 0.587019 0.900515 0.597337
Si Si2 0.531133 0.213030 0.614992
Si Si3 0.860801 0.129525 0.351630
Si Si4 0.308427 0.907778 0.701624
Si Si5 0.357222 0.075910 0.584082
Si Si6 0.437296 0.564126 0.099570
Si Si7 0.269827 0.844423 0.322797
Si Si8 0.168860 0.826123 0.969988
O O1 0.676254 0.871862 0.599372
O O2 0.634686 0.792552 0.529832
O O3 0.609050 0.063850 0.569704
O O4 0.423472 0.880585 0.682826
O O5 0.605846 0.333196 0.609275
O O6 0.508339 0.282839 0.572727
O O7 0.402398 0.163626 0.717558
O O8 0.812758 0.279420 0.352512
O O9 0.000000 0.092123 0.250000
O O10 0.755234 0.008845 0.390053
O O11 0.328529 0.045750 0.656772
O O12 0.159244 0.926560 0.801186
O O13 0.320612 0.775978 0.657545
O O14 0.351040 0.239078 0.570367
O O15 0.500000 0.000000 0.500000
O O16 0.321527 0.485475 0.125738
O O17 0.560702 0.452255 0.033279
#
# Coordination Sequence:
#
# PCOD9275136 Si02
#       8
#     8   8   8   8   8   8   8   8
#     4  11  22  41  61  96 129 174 216 273 339 396
#     4  10  22  36  64  92 131 172 219 273 333 408
#     4   9  20  38  63  96 135 181 217 272 344 413
#     4  10  20  38  69  96 129 170 235 270 326 403
#     4  11  21  41  67  97 130 175 222 281 333 402
#     4  11  21  39  68 102 124 175 229 287 322 398
#     4   9  17  36  63  94 127 166 222 279 326 384
#     4  11  25  40  66  94 140 174 217 282 342 381
#
# _framework density 25.79907
#
# number of rings (size 3 to 8) (size 9 to 14) (size 15 to 20)
#    0.000    1.750    3.750    1.500    3.500    0.500 
#    0.000    1.250    5.500    2.250    0.000    0.000 
#    0.000    0.000    0.000    0.000    0.000    0.000 
#
# Total GULP energy -178845.081024 kJ/mol
# GULP energy per Si atom -5588.908782 kJ/mol
# Density = 2.574035 g / cm^3
# Si number density = 25.799070 Si / 1000 Ang^3
#
#
#
# Elastic Constant Matrix: (Units=GPa)
#
#
# Indices 1 2 3 4 5 6 
#
# 1 136.7458 10.8691 34.4684 0.0000 -29.3657 -0.0002
# 2 10.8691 123.4460 29.8576 0.0000 -14.7934 -0.0003
# 3 34.4684 29.8576 79.6502 -0.0001 -19.6120 0.0001
# 4 0.0000 0.0000 -0.0001 34.9959 0.0000 -4.2069
# 5 -29.3657 -14.7934 -19.6120 0.0000 38.9334 0.0000
# 6 -0.0002 -0.0003 0.0001 -4.2069 0.0000 49.4146
#
#
#
# Elastic Compliance Matrix: (Units=1/GPa)
#
#
# Indices 1 2 3 4 5 6 
#
# 1 0.009204 0.000550 -0.002772 0.000000 0.005754 0.000000
# 2 0.000550 0.009072 -0.003068 0.000000 0.002316 0.000000
# 3 -0.002772 -0.003068 0.016100 0.000000 0.004853 0.000000
# 4 0.000000 0.000000 0.000000 0.028870 0.000000 0.002458
# 5 0.005754 0.002316 0.004853 0.000000 0.033350 0.000000
# 6 0.000000 0.000000 0.000000 0.002458 0.000000 0.020446
#
#
# Mechanical properties :
#
#
# Convention : Reuss Voigt Hill
#
# Bulk Modulus (GPa) = 42.02743 54.47024 48.24884
# Shear Modulus (GPa) = 36.88559 42.31190 39.59874
#
# Velocity S-wave (km/s) = 3.78527 4.05415 3.92202
# Velocity P-wave (km/s) = 5.95231 6.56308 6.26514
#
# Compressibility (1/GPa) = 0.02379398
#
# Stress axis : x y z
#
# Youngs Moduli (GPa) = 108.65304 110.22947 62.11308
#
# Poissons Ratio (x) = -0.06059 0.17218
# Poissons Ratio (y) = -0.05973 0.19058
# Poissons Ratio (z) = 0.30119 0.33822
#
# Static dielectric constant tensor:
#      x y z
#    x 2.311420 0.000000 -0.063270 
#    y 0.000000 2.105180 0.000000 
#    z -0.063270 0.000000 2.034910 
# 
# From -- ./inp_files/316200.got.cif
#   From: 2010.05.17/outbox.cif.g08.bks.cpg/sg15_159_cif.got.tgz:316200.got - 2010.06.03 18:47:42.
