data_PCOD9275496
_publ_section_title
;
Structure prediction by ZEFSAII (Michael W. Deem and Ramdas Pophale) SiO2 
 PCOD9275496
Probable space group: C 2/C
;
_chemical_formula_sum "Si O2"
_cell_formula_units_Z 40
_cell_length_a 27.254680
_cell_length_b 7.367551
_cell_length_c 10.590158
_cell_angle_alpha 90.000000
_cell_angle_beta 125.214362
_cell_angle_gamma 90.000000
_cell_volume 1737.356475
_symmetry_space_group_name_H-M "C 2/C"
_symmetry_group_IT_number 15
_symmetry_cell_setting 'monoclinic'
loop_
_space_group_symop_operation_xyz
x,y,z
-x,y,1/2-z
-x,-y,-z
x,-y,1/2+z
1/2+x,1/2+y,z
1/2-x,1/2+y,1/2-z
1/2-x,1/2-y,-z
1/2+x,1/2-y,1/2+z
loop_
_atom_site_type_symbol
_atom_site_label
_atom_site_fract_x
_atom_site_fract_y
_atom_site_fract_z
Si Si1 0.669683 0.446219 0.595451
Si Si2 0.153490 0.649889 0.377014
Si Si3 0.513834 0.093976 0.148544
Si Si4 0.699767 0.935946 0.206570
Si Si5 0.036168 0.977620 0.424667
O O1 0.670475 0.349373 0.457202
O O2 0.676901 0.269509 0.697109
O O3 0.728248 0.566558 0.698324
O O4 0.605322 0.535196 0.525377
O O5 0.082680 0.651740 0.248244
O O6 0.182914 0.571954 0.293973
O O7 0.171438 0.525657 0.525687
O O8 0.500000 0.973205 0.250000
O O9 0.466825 0.258939 0.093685
O O10 0.500000 0.000000 0.000000
O O11 0.000000 0.048905 0.250000
O O12 0.000000 0.000000 0.500000
#
# Coordination Sequence:
#
# PCOD9275496 Si02
#       5
#     8   8   8   8   8
#     4  10  22  41  63  91 128 164 215 258 319 378
#     4  10  20  39  62  88 128 162 212 257 322 367
#     4  11  20  39  65  90 125 163 209 267 316 377
#     4  10  22  37  63  90 129 167 206 260 320 373
#     4  11  23  43  64  91 127 167 211 267 319 384
#
# _framework density 23.023484
#
# number of rings (size 3 to 8) (size 9 to 14) (size 15 to 20)
#    1.200    0.400    4.000    3.000    0.000    4.800 
#    0.000    4.000    0.000    0.000    0.000    0.000 
#    0.000    0.000    0.000    0.000    0.000    0.000 
#
# Total GULP energy -111577.127648 kJ/mol
# GULP energy per Si atom -5578.856382 kJ/mol
# Density = 2.297108 g / cm^3
# Si number density = 23.023484 Si / 1000 Ang^3
#
#
#
# Elastic Constant Matrix: (Units=GPa)
#
#
# Indices 1 2 3 4 5 6 
#
# 1 128.1543 11.9653 54.1313 0.0000 3.4112 0.0000
# 2 11.9653 28.3241 16.0030 0.0000 -4.6395 0.0000
# 3 54.1313 16.0030 125.1462 0.0000 2.5708 0.0000
# 4 0.0000 0.0000 0.0000 7.1062 0.0000 -1.9370
# 5 3.4112 -4.6395 2.5708 0.0000 63.6970 0.0000
# 6 0.0000 0.0000 0.0000 -1.9370 0.0000 29.2833
#
#
#
# Elastic Compliance Matrix: (Units=1/GPa)
#
#
# Indices 1 2 3 4 5 6 
#
# 1 0.009652 -0.001947 -0.003916 0.000000 -0.000501 0.000000
# 2 -0.001947 0.039018 -0.004211 0.000000 0.003116 0.000000
# 3 -0.003916 -0.004211 0.010233 0.000000 -0.000510 0.000000
# 4 0.000000 0.000000 0.000000 0.143307 0.000000 0.009479
# 5 -0.000501 0.003116 -0.000510 0.000000 0.015974 0.000000
# 6 0.000000 0.000000 0.000000 0.009479 0.000000 0.034776
#
#
# Mechanical properties :
#
#
# Convention : Reuss Voigt Hill
#
# Bulk Modulus (GPa) = 25.80292 49.53599 37.66945
# Shear Modulus (GPa) = 17.48090 33.31896 25.39993
#
# Velocity S-wave (km/s) = 2.75846 3.80830 3.32508
# Velocity P-wave (km/s) = 4.62353 6.39528 5.58017
#
# Compressibility (1/GPa) = 0.03875531
#
# Stress axis : x y z
#
# Youngs Moduli (GPa) = 103.60350 25.62930 97.71968
#
# Poissons Ratio (x) = 0.04990 0.38264
# Poissons Ratio (y) = 0.20173 0.41152
# Poissons Ratio (z) = 0.40568 0.10793
#
# Static dielectric constant tensor:
#      x y z
#    x 1.929910 0.000000 -0.129070 
#    y 0.000000 1.991710 0.000000 
#    z -0.129070 0.000000 2.038800 
# 
# From -- ./inp_files/125352.got.cif
#   From: 2010.05.17/outbox.cif.g08.bks.cpg/sg15_63_cif.got.tgz:125352.got - 2010.06.03 18:47:42.
