data_PCOD9275141
_publ_section_title
;
Structure prediction by ZEFSAII (Michael W. Deem and Ramdas Pophale) SiO2 
 PCOD9275141
Probable space group: C 2/C
;
_chemical_formula_sum "Si O2"
_cell_formula_units_Z 40
_cell_length_a 16.584467
_cell_length_b 9.555913
_cell_length_c 19.941502
_cell_angle_alpha 90.000000
_cell_angle_beta 148.785868
_cell_angle_gamma 90.000000
_cell_volume 1637.799751
_symmetry_space_group_name_H-M "C 2/C"
_symmetry_group_IT_number 15
_symmetry_cell_setting 'monoclinic'
loop_
_space_group_symop_operation_xyz
x,y,z
-x,y,1/2-z
-x,-y,-z
x,-y,1/2+z
1/2+x,1/2+y,z
1/2-x,1/2+y,1/2-z
1/2-x,1/2-y,-z
1/2+x,1/2-y,1/2+z
loop_
_atom_site_type_symbol
_atom_site_label
_atom_site_fract_x
_atom_site_fract_y
_atom_site_fract_z
Si Si1 0.396186 0.189429 0.978409
Si Si2 0.085759 0.832008 0.380409
Si Si3 0.553495 0.602367 0.433470
Si Si4 0.948447 0.406047 0.046228
Si Si5 0.267580 0.452202 0.820153
O O1 0.349429 0.557457 0.931193
O O2 0.509093 0.151594 0.997379
O O3 0.277539 0.304243 0.866265
O O4 0.332993 0.037908 0.956894
O O5 0.250000 0.750000 0.500000
O O6 0.014024 0.766440 0.397808
O O7 0.896336 0.480094 0.314590
O O8 0.095432 0.995336 0.404744
O O9 0.585449 0.763819 0.438813
O O10 0.375502 0.575194 0.331597
O O11 0.000000 0.194873 0.750000
#
# Coordination Sequence:
#
# PCOD9275141 Si02
#       5
#     8   8   8   8   8
#     4   9  22  38  63 101 125 171 229 265 355 403
#     4  11  26  45  68  91 135 193 230 275 326 424
#     4   9  21  39  59  98 127 168 232 272 345 398
#     4  10  20  38  69  98 132 166 214 304 348 396
#     4   9  19  36  63  92 135 165 208 295 343 408
#
# _framework density 24.423010999999999
#
# number of rings (size 3 to 8) (size 9 to 14) (size 15 to 20)
#    0.000    2.400    0.000    1.200    8.400   14.400 
#    0.000    2.000    0.000    0.000    0.000    0.000 
#    0.000    0.000    0.000    0.000    0.000    0.000 
#
# Total GULP energy -111725.807508 kJ/mol
# GULP energy per Si atom -5586.290375 kJ/mol
# Density = 2.436742 g / cm^3
# Si number density = 24.423011 Si / 1000 Ang^3
#
#
#
# Elastic Constant Matrix: (Units=GPa)
#
#
# Indices 1 2 3 4 5 6 
#
# 1 83.8480 51.9937 39.3769 0.0000 -24.9153 0.0000
# 2 51.9937 269.8890 67.0857 -0.0001 -7.0230 0.0000
# 3 39.3769 67.0857 128.6537 -0.0003 -28.8941 -0.0001
# 4 0.0000 -0.0001 -0.0003 21.9044 -0.0001 -6.1008
# 5 -24.9153 -7.0230 -28.8941 -0.0001 32.7390 0.0000
# 6 0.0000 0.0000 -0.0001 -6.1008 0.0000 42.6605
#
#
#
# Elastic Compliance Matrix: (Units=1/GPa)
#
#
# Indices 1 2 3 4 5 6 
#
# 1 0.017775 -0.002782 -0.001354 0.000000 0.011735 0.000000
# 2 -0.002782 0.004738 -0.002327 0.000000 -0.003155 0.000000
# 3 -0.001354 -0.002327 0.011296 0.000000 0.008440 0.000000
# 4 0.000000 0.000000 0.000000 0.047547 0.000000 0.006800
# 5 0.011735 -0.003155 0.008440 0.000000 0.046248 0.000000
# 6 0.000000 0.000000 0.000000 0.006800 0.000000 0.024413
#
#
# Mechanical properties :
#
#
# Convention : Reuss Voigt Hill
#
# Bulk Modulus (GPa) = 47.88962 88.81148 68.35055
# Shear Modulus (GPa) = 29.08599 41.05639 35.07119
#
# Velocity S-wave (km/s) = 3.45472 4.10451 3.79356
# Velocity P-wave (km/s) = 5.96359 7.67499 6.87277
#
# Compressibility (1/GPa) = 0.02088135
#
# Stress axis : x y z
#
# Youngs Moduli (GPa) = 56.26013 211.07399 88.52399
#
# Poissons Ratio (x) = 0.58728 0.11984
# Poissons Ratio (y) = 0.15654 0.20604
# Poissons Ratio (z) = 0.07616 0.49127
#
# Static dielectric constant tensor:
#      x y z
#    x 2.024170 0.000000 0.052710 
#    y 0.000000 2.010500 0.000000 
#    z 0.052710 0.000000 1.980850 
# 
# From -- ./inp_files/272957.got.cif
#   From: 2010.05.17/outbox.cif.g08.bks.cpg/sg15_137_cif.got.tgz:272957.got - 2010.06.03 18:47:42.
