data_PCOD9275130
_publ_section_title
;
Structure prediction by ZEFSAII (Michael W. Deem and Ramdas Pophale) SiO2 
 PCOD9275130
Probable space group: C 2/C
;
_chemical_formula_sum "Si O2"
_cell_formula_units_Z 48
_cell_length_a 11.502875
_cell_length_b 12.387074
_cell_length_c 20.575900
_cell_angle_alpha 90.000000
_cell_angle_beta 128.309555
_cell_angle_gamma 90.000000
_cell_volume 2300.502359
_symmetry_space_group_name_H-M "C 2/C"
_symmetry_group_IT_number 15
_symmetry_cell_setting 'monoclinic'
loop_
_space_group_symop_operation_xyz
x,y,z
-x,y,1/2-z
-x,-y,-z
x,-y,1/2+z
1/2+x,1/2+y,z
1/2-x,1/2+y,1/2-z
1/2-x,1/2-y,-z
1/2+x,1/2-y,1/2+z
loop_
_atom_site_type_symbol
_atom_site_label
_atom_site_fract_x
_atom_site_fract_y
_atom_site_fract_z
Si Si1 0.762243 0.561262 0.991724
Si Si2 0.825835 0.782830 0.820662
Si Si3 0.834853 0.735289 0.112262
Si Si4 0.883484 0.675175 0.517132
Si Si5 0.942596 0.008031 0.906750
Si Si6 0.139939 0.757808 0.137711
O O1 0.772986 0.668383 0.950854
O O2 0.595396 0.523163 0.920681
O O3 0.777092 0.618521 0.067222
O O4 0.858873 0.453676 0.018224
O O5 0.684657 0.755681 0.817696
O O6 0.865561 0.904637 0.851814
O O7 0.778422 0.775602 0.729685
O O8 0.966724 0.713349 0.894274
O O9 0.991994 0.744465 0.130604
O O10 0.750000 0.750000 0.500000
O O11 0.881746 0.699843 0.439035
O O12 0.846209 0.115064 0.870142
O O13 0.000000 0.000000 0.000000
#
# Coordination Sequence:
#
# PCOD9275130 Si02
#       6
#     8   8   8   8   8   8
#     4  10  20  38  69  93 130 174 220 272 336 395
#     4  12  24  42  70  98 133 176 225 277 336 395
#     4  10  22  41  66  99 129 175 222 276 334 400
#     4  12  24  42  67  98 134 175 222 279 328 393
#     4  11  19  43  68  91 134 187 216 262 337 416
#     4  11  26  42  66 102 131 175 232 271 336 398
#
# _framework density 20.865006000000001
#
# number of rings (size 3 to 8) (size 9 to 14) (size 15 to 20)
#    0.000    1.000    5.000    2.500    0.000    6.000 
#    0.000    1.667    0.000    0.000    0.000    0.000 
#    0.000    0.000    0.000    0.000    0.000    0.000 
#
# Total GULP energy -133834.206666 kJ/mol
# GULP energy per Si atom -5576.425278 kJ/mol
# Density = 2.081752 g / cm^3
# Si number density = 20.865006 Si / 1000 Ang^3
#
#
#
# Elastic Constant Matrix: (Units=GPa)
#
#
# Indices 1 2 3 4 5 6 
#
# 1 79.5773 22.8486 35.3247 0.0000 2.0100 0.0000
# 2 22.8486 176.9293 61.5957 0.0000 2.5633 0.0000
# 3 35.3247 61.5957 152.9271 0.0000 -4.5557 0.0000
# 4 0.0000 0.0000 0.0000 25.0076 0.0000 5.4940
# 5 2.0100 2.5633 -4.5557 0.0000 19.3484 0.0000
# 6 0.0000 0.0000 0.0000 5.4940 0.0000 22.2073
#
#
#
# Elastic Compliance Matrix: (Units=1/GPa)
#
#
# Indices 1 2 3 4 5 6 
#
# 1 0.014181 -0.000743 -0.003039 0.000000 -0.002090 0.000000
# 2 -0.000743 0.006657 -0.002551 0.000000 -0.001405 0.000000
# 3 -0.003039 -0.002551 0.008347 0.000000 0.002619 0.000000
# 4 0.000000 0.000000 0.000000 0.042286 0.000000 -0.010461
# 5 -0.002090 -0.001405 0.002619 0.000000 0.052704 0.000000
# 6 0.000000 0.000000 0.000000 -0.010461 0.000000 0.047618
#
#
# Mechanical properties :
#
#
# Convention : Reuss Voigt Hill
#
# Bulk Modulus (GPa) = 60.53940 72.10797 66.32368
# Shear Modulus (GPa) = 26.32057 32.62364 29.47211
#
# Velocity S-wave (km/s) = 3.55557 3.95847 3.76242
# Velocity P-wave (km/s) = 6.77746 7.45164 7.12253
#
# Compressibility (1/GPa) = 0.01651817
#
# Stress axis : x y z
#
# Youngs Moduli (GPa) = 70.51445 150.22884 119.80941
#
# Poissons Ratio (x) = 0.11165 0.36406
# Poissons Ratio (y) = 0.05241 0.30567
# Poissons Ratio (z) = 0.21427 0.38328
#
# Static dielectric constant tensor:
#      x y z
#    x 1.847410 0.000000 -0.013370 
#    y 0.000000 1.756390 0.000000 
#    z -0.013370 0.000000 1.757350 
# 
# From -- ./inp_files/237760.got.cif
#   From: 2010.05.17/outbox.cif.g08.bks.cpg/sg15_119_cif.got.tgz:237760.got - 2010.06.03 18:47:42.
