data_PCOD9275095
_publ_section_title
;
Structure prediction by ZEFSAII (Michael W. Deem and Ramdas Pophale) SiO2 
 PCOD9275095
Probable space group: C 2/C
;
_chemical_formula_sum "Si O2"
_cell_formula_units_Z 36
_cell_length_a 25.956465
_cell_length_b 4.988099
_cell_length_c 17.063462
_cell_angle_alpha 90.000000
_cell_angle_beta 143.294527
_cell_angle_gamma 90.000000
_cell_volume 1320.481356
_symmetry_space_group_name_H-M "C 2/C"
_symmetry_group_IT_number 15
_symmetry_cell_setting 'monoclinic'
loop_
_space_group_symop_operation_xyz
x,y,z
-x,y,1/2-z
-x,-y,-z
x,-y,1/2+z
1/2+x,1/2+y,z
1/2-x,1/2+y,1/2-z
1/2-x,1/2-y,-z
1/2+x,1/2-y,1/2+z
loop_
_atom_site_type_symbol
_atom_site_label
_atom_site_fract_x
_atom_site_fract_y
_atom_site_fract_z
Si Si1 0.699760 0.095626 0.708451
Si Si2 0.000000 0.402856 0.250000
Si Si3 0.838305 0.232269 0.703038
Si Si4 0.313486 0.932913 0.028949
Si Si5 0.515119 0.180713 0.440544
O O1 0.720120 0.794877 0.702234
O O2 0.674732 0.011715 0.766589
O O3 0.616453 0.239936 0.569157
O O4 0.903710 0.278003 0.127476
O O5 0.996237 0.547425 0.159549
O O6 0.839219 0.310053 0.613070
O O7 0.932445 0.118884 0.841479
O O8 0.752113 0.064264 0.613228
O O9 0.250000 0.750000 0.000000
O O10 0.500000 0.000000 0.500000
#
# Coordination Sequence:
#
# PCOD9275095 Si02
#       5
#     8   4   8   8   8
#     4  11  24  42  68 101 143 189 245 301 368 446
#     4  10  20  38  68  96 144 192 246 302 388 434
#     4   9  21  41  63  94 138 185 237 308 368 433
#     4  10  21  39  66  98 141 185 248 307 367 448
#     4   9  20  42  64 101 141 186 251 303 370 444
#
# _framework density 27.262788
#
# number of rings (size 3 to 8) (size 9 to 14) (size 15 to 20)
#    0.000    2.222    0.000    1.333    6.222    0.000 
#    8.000   13.333    0.000    0.000    0.000    0.000 
#    0.000    0.000    0.000    0.000    0.000    0.000 
#
# Total GULP energy -100210.069347 kJ/mol
# GULP energy per Si atom -5567.226075 kJ/mol
# Density = 2.720074 g / cm^3
# Si number density = 27.262788 Si / 1000 Ang^3
#
#
#
# Elastic Constant Matrix: (Units=GPa)
#
#
# Indices 1 2 3 4 5 6 
#
# 1 102.7626 25.6430 48.8436 0.0004 7.1597 0.0004
# 2 25.6430 78.4511 49.6401 0.0023 7.2141 0.0008
# 3 48.8436 49.6401 241.3111 0.0002 52.6101 0.0000
# 4 0.0004 0.0023 0.0002 15.7880 0.0000 -0.3543
# 5 7.1597 7.2141 52.6101 0.0000 82.5565 0.0000
# 6 0.0004 0.0008 0.0000 -0.3543 0.0000 43.6488
#
#
#
# Elastic Compliance Matrix: (Units=1/GPa)
#
#
# Indices 1 2 3 4 5 6 
#
# 1 0.011209 -0.002539 -0.001838 0.000000 0.000421 0.000000
# 2 -0.002539 0.015269 -0.002769 -0.000002 0.000650 0.000000
# 3 -0.001838 -0.002769 0.005805 0.000000 -0.003298 0.000000
# 4 0.000000 -0.000002 0.000000 0.063351 0.000000 0.000514
# 5 0.000421 0.000650 -0.003298 0.000000 0.014121 0.000000
# 6 0.000000 0.000000 0.000000 0.000514 0.000000 0.022914
#
#
# Mechanical properties :
#
#
# Convention : Reuss Voigt Hill
#
# Bulk Modulus (GPa) = 55.58709 74.53093 65.05901
# Shear Modulus (GPa) = 32.68850 48.29184 40.49017
#
# Velocity S-wave (km/s) = 3.46644 4.21330 3.85799
# Velocity P-wave (km/s) = 6.03781 7.14609 6.61520
#
# Compressibility (1/GPa) = 0.01798979
#
# Stress axis : x y z
#
# Youngs Moduli (GPa) = 89.21185 65.49218 172.27590
#
# Poissons Ratio (x) = 0.16632 0.31670
# Poissons Ratio (y) = 0.22655 0.47699
# Poissons Ratio (z) = 0.16400 0.18133
#
# Static dielectric constant tensor:
#      x y z
#    x 2.249070 0.000000 -0.025490 
#    y 0.000000 2.136900 0.000000 
#    z -0.025490 0.000000 2.479270 
# 
# From -- ./inp_files/258496.got.cif
#   From: 2010.05.17/outbox.cif.g08.bks.cpg/sg15_130_cif.got.tgz:258496.got - 2010.06.03 18:47:42.
