data_PCOD9275580
_publ_section_title
;
Structure prediction by ZEFSAII (Michael W. Deem and Ramdas Pophale) SiO2 
 PCOD9275580
Probable space group: C 2/C
;
_chemical_formula_sum "Si O2"
_cell_formula_units_Z 64
_cell_length_a 11.308052
_cell_length_b 19.153754
_cell_length_c 19.062495
_cell_angle_alpha 90.000000
_cell_angle_beta 132.830073
_cell_angle_gamma 90.000000
_cell_volume 3027.934293
_symmetry_space_group_name_H-M "C 2/C"
_symmetry_group_IT_number 15
_symmetry_cell_setting 'monoclinic'
loop_
_space_group_symop_operation_xyz
x,y,z
-x,y,1/2-z
-x,-y,-z
x,-y,1/2+z
1/2+x,1/2+y,z
1/2-x,1/2+y,1/2-z
1/2-x,1/2-y,-z
1/2+x,1/2-y,1/2+z
loop_
_atom_site_type_symbol
_atom_site_label
_atom_site_fract_x
_atom_site_fract_y
_atom_site_fract_z
Si Si1 0.327070 0.899233 0.978178
Si Si2 0.463829 0.436525 0.432841
Si Si3 0.734032 0.829138 0.962684
Si Si4 0.924751 0.990879 0.153692
Si Si5 0.668519 0.121372 0.581782
Si Si6 0.690025 0.695646 0.310489
Si Si7 0.185646 0.777631 0.645739
Si Si8 0.680363 0.678898 0.543355
O O1 0.279144 0.868554 0.883239
O O2 0.206206 0.963193 0.940508
O O3 0.514760 0.916180 0.053342
O O4 0.287872 0.839422 0.019421
O O5 0.500000 0.500000 0.500000
O O6 0.609573 0.380506 0.478482
O O7 0.439629 0.468940 0.346739
O O8 0.326886 0.390797 0.412836
O O9 0.701919 0.815679 0.867316
O O10 0.750000 0.750000 0.000000
O O11 0.632380 0.863700 0.984365
O O12 0.827545 0.925386 0.145982
O O13 0.000000 0.029658 0.250000
O O14 0.692871 0.195172 0.630902
O O15 0.500000 0.691540 0.250000
O O16 0.721768 0.704814 0.240707
O O17 0.755829 0.761772 0.380169
O O18 0.000524 0.802125 0.555856
#
# Coordination Sequence:
#
# PCOD9275580 Si02
#       8
#     8   8   8   8   8   8   8   8
#     4  12  22  40  63  90 129 165 208 256 322 378
#     4  10  20  39  63  86 118 166 213 250 316 381
#     4   8  18  36  62  86 119 162 204 254 313 375
#     4  11  25  40  62  93 122 163 218 263 310 379
#     4  10  21  41  62  88 126 165 208 256 319 374
#     4  12  23  35  61  99 125 164 212 260 317 377
#     4  10  20  39  63  90 126 161 209 262 310 373
#     4  11  22  39  64  91 127 166 207 262 319 378
#
# _framework density 21.136521999999999
#
# number of rings (size 3 to 8) (size 9 to 14) (size 15 to 20)
#    0.000    1.500    3.750    1.875    1.750    0.000 
#    0.000    0.625    0.000    0.000    0.000    0.000 
#    0.000    0.000    0.000    0.000    0.000    0.000 
#
# Total GULP energy -178434.858740 kJ/mol
# GULP energy per Si atom -5576.089336 kJ/mol
# Density = 2.108841 g / cm^3
# Si number density = 21.136522 Si / 1000 Ang^3
#
#
#
# Elastic Constant Matrix: (Units=GPa)
#
#
# Indices 1 2 3 4 5 6 
#
# 1 82.1202 12.4340 34.0107 0.0000 -26.5911 0.0000
# 2 12.4340 46.1605 6.5813 0.0000 -10.3771 0.0000
# 3 34.0107 6.5813 74.7537 0.0000 -31.7807 0.0000
# 4 0.0000 0.0000 0.0000 21.1782 0.0000 -1.5744
# 5 -26.5911 -10.3771 -31.7807 0.0000 40.7018 0.0000
# 6 0.0000 0.0000 0.0000 -1.5744 0.0000 34.5110
#
#
#
# Elastic Compliance Matrix: (Units=1/GPa)
#
#
# Indices 1 2 3 4 5 6 
#
# 1 0.016559 -0.002308 -0.004463 0.000000 0.006745 0.000000
# 2 -0.002308 0.023327 0.001323 0.000000 0.005472 0.000000
# 3 -0.004463 0.001323 0.021249 0.000000 0.014013 0.000000
# 4 0.000000 0.000000 0.000000 0.047379 0.000000 0.002161
# 5 0.006745 0.005472 0.014013 0.000000 0.041312 0.000000
# 6 0.000000 0.000000 0.000000 0.002161 0.000000 0.029075
#
#
# Mechanical properties :
#
#
# Convention : Reuss Voigt Hill
#
# Bulk Modulus (GPa) = 19.90501 34.34293 27.12397
# Shear Modulus (GPa) = 24.20794 29.27875 26.74334
#
# Velocity S-wave (km/s) = 3.38792 3.72589 3.56092
# Velocity P-wave (km/s) = 4.97411 5.89857 5.45596
#
# Compressibility (1/GPa) = 0.05023860
#
# Stress axis : x y z
#
# Youngs Moduli (GPa) = 60.38909 42.86910 47.06141
#
# Poissons Ratio (x) = 0.09893 0.21004
# Poissons Ratio (y) = 0.13937 -0.06226
# Poissons Ratio (z) = 0.26953 -0.05671
#
# Static dielectric constant tensor:
#      x y z
#    x 1.620070 0.000000 -0.027550 
#    y 0.000000 0.906870 0.000000 
#    z -0.027550 0.000000 1.783300 
# 
# From -- ./inp_files/200411.got.cif
#   From: 2010.05.17/outbox.cif.g08.bks.cpg/sg15_101_cif.got.tgz:200411.got - 2010.06.03 18:47:42.
