data_PCOD9275782
_publ_section_title
;
Structure prediction by ZEFSAII (Michael W. Deem and Ramdas Pophale) SiO2 
 PCOD9275782
Probable space group: C 2/C
;
_chemical_formula_sum "Si O2"
_cell_formula_units_Z 44
_cell_length_a 25.063270
_cell_length_b 4.953385
_cell_length_c 13.457604
_cell_angle_alpha 90.000000
_cell_angle_beta 78.700779
_cell_angle_gamma 90.000000
_cell_volume 1638.351650
_symmetry_space_group_name_H-M "C 2/C"
_symmetry_group_IT_number 15
_symmetry_cell_setting 'monoclinic'
loop_
_space_group_symop_operation_xyz
x,y,z
-x,y,1/2-z
-x,-y,-z
x,-y,1/2+z
1/2+x,1/2+y,z
1/2-x,1/2+y,1/2-z
1/2-x,1/2-y,-z
1/2+x,1/2-y,1/2+z
loop_
_atom_site_type_symbol
_atom_site_label
_atom_site_fract_x
_atom_site_fract_y
_atom_site_fract_z
Si Si1 0.774265 0.537924 0.868338
Si Si2 0.082917 0.701549 0.869620
Si Si3 0.500000 0.726959 0.250000
Si Si4 0.574988 0.390693 0.077526
Si Si5 0.357120 0.091146 0.988025
Si Si6 0.320901 0.461832 0.232574
O O1 0.796213 0.531453 0.972915
O O2 0.711335 0.517155 0.860920
O O3 0.794222 0.816838 0.814323
O O4 0.805943 0.313156 0.792464
O O5 0.118016 0.938906 0.806459
O O6 0.039846 0.600889 0.805739
O O7 0.125735 0.497323 0.906785
O O8 0.051754 0.819181 0.976913
O O9 0.533769 0.529892 0.165837
O O10 0.604574 0.109449 0.092352
O O11 0.622400 0.610703 0.041809
#
# Coordination Sequence:
#
# PCOD9275782 Si02
#       6
#     8   8   4   8   8   8
#     4  10  20  39  64  94 127 168 205 250 309 374
#     4  10  25  41  66  94 126 165 214 257 314 369
#     4  12  22  48  66  90 126 172 204 270 314 368
#     4  10  25  43  62  96 124 161 214 257 311 375
#     4  10  22  42  62  92 130 154 210 258 306 372
#     4  10  22  38  64  94 127 166 210 249 309 372
#
# _framework density 26.856263999999999
#
# number of rings (size 3 to 8) (size 9 to 14) (size 15 to 20)
#    1.091    0.727    0.000    3.818    2.545    2.182 
#    3.273    0.909    0.000    0.000    0.000    0.000 
#    0.000    0.000    0.000    0.000    0.000    0.000 
#
# Total GULP energy -123169.704185 kJ/mol
# GULP energy per Si atom -5598.622918 kJ/mol
# Density = 2.679514 g / cm^3
# Si number density = 26.856264 Si / 1000 Ang^3
#
#
#
# Elastic Constant Matrix: (Units=GPa)
#
#
# Indices 1 2 3 4 5 6 
#
# 1 110.8743 1.2320 80.3717 0.0000 49.8917 0.0000
# 2 1.2320 77.1362 36.4111 0.0000 7.4987 0.0000
# 3 80.3717 36.4111 108.3349 0.0000 29.3195 0.0000
# 4 0.0000 0.0000 0.0000 -17.6949 0.0000 -27.3694
# 5 49.8917 7.4987 29.3195 0.0000 82.8881 0.0000
# 6 0.0000 0.0000 0.0000 -27.3694 0.0000 3.0044
#
#
#
# Elastic Compliance Matrix: (Units=1/GPa)
#
#
# Indices 1 2 3 4 5 6 
#
# 1 0.032132 0.012341 -0.024826 0.000000 -0.011676 0.000000
# 2 0.012341 0.020166 -0.014851 0.000000 -0.003999 0.000000
# 3 -0.024826 -0.014851 0.031221 0.000000 0.005243 0.000000
# 4 0.000000 0.000000 0.000000 -0.003745 0.000000 -0.034116
# 5 -0.011676 -0.003999 0.005243 0.000000 0.017599 0.000000
# 6 0.000000 0.000000 0.000000 -0.034116 0.000000 0.022057
#
#
# Mechanical properties :
#
#
# Convention : Reuss Voigt Hill
#
# Bulk Modulus (GPa) = 34.66586 59.15277 46.90932
# Shear Modulus (GPa) = 27.21571 25.52822 26.37197
#
# Velocity S-wave (km/s) = 3.18682 3.08644 3.13703
# Velocity P-wave (km/s) = 5.14559 5.89703 5.53408
#
# Compressibility (1/GPa) = 0.02884682
#
# Stress axis : x y z
#
# Youngs Moduli (GPa) = 31.12153 49.58896 32.02988
#
# Poissons Ratio (x) = -0.61196 0.79517
# Poissons Ratio (y) = -0.38406 0.47566
# Poissons Ratio (z) = 0.77262 0.73642
#
# Static dielectric constant tensor:
#      x y z
#    x 2.110920 0.000000 0.069400 
#    y 0.000000 2.042400 0.000000 
#    z 0.069400 0.000000 2.122400 
# 
# From -- ./inp_files/175442.got.cif
#   From: 2010.05.17/outbox.cif.g08.bks.cpg/sg15_88_cif.got.tgz:175442.got - 2010.06.03 18:47:42.
