data_PCOD9275879
_publ_section_title
;
Structure prediction by ZEFSAII (Michael W. Deem and Ramdas Pophale) SiO2 
 PCOD9275879
Probable space group: C 2/C
;
_chemical_formula_sum "Si O2"
_cell_formula_units_Z 40
_cell_length_a 8.137887
_cell_length_b 15.610146
_cell_length_c 25.847618
_cell_angle_alpha 90.000000
_cell_angle_beta 147.977019
_cell_angle_gamma 90.000000
_cell_volume 1741.115161
_symmetry_space_group_name_H-M "C 2/C"
_symmetry_group_IT_number 15
_symmetry_cell_setting 'monoclinic'
loop_
_space_group_symop_operation_xyz
x,y,z
-x,y,1/2-z
-x,-y,-z
x,-y,1/2+z
1/2+x,1/2+y,z
1/2-x,1/2+y,1/2-z
1/2-x,1/2-y,-z
1/2+x,1/2-y,1/2+z
loop_
_atom_site_type_symbol
_atom_site_label
_atom_site_fract_x
_atom_site_fract_y
_atom_site_fract_z
Si Si1 0.173071 0.543321 0.470094
Si Si2 0.899415 0.973667 0.139742
Si Si3 0.529763 0.374645 0.982140
Si Si4 0.698841 0.834153 0.208068
Si Si5 0.161089 0.846887 0.676421
O O1 0.214727 0.567117 0.541481
O O2 0.433949 0.470851 0.530916
O O3 0.252858 0.616932 0.450226
O O4 0.849985 0.490918 0.380903
O O5 0.999441 0.070722 0.156161
O O6 0.186423 0.910684 0.224838
O O7 0.853002 0.352786 0.095643
O O8 0.480577 0.319400 0.917324
O O9 0.674905 0.734396 0.217900
O O10 0.000000 0.830533 0.250000
O O11 0.500000 0.875194 0.750000
#
# Coordination Sequence:
#
# PCOD9275879 Si02
#       5
#     8   8   8   8   8
#     4   9  20  37  65  94 125 168 214 258 325 380
#     4  10  21  39  65  94 130 168 208 267 322 377
#     4  10  20  39  65  93 125 171 214 262 317 387
#     4  11  22  39  67  93 128 171 214 260 319 387
#     4  10  24  40  64  95 126 168 221 263 316 383
#
# _framework density 22.973782
#
# number of rings (size 3 to 8) (size 9 to 14) (size 15 to 20)
#    0.000    2.000    2.000    0.600    8.400    0.000 
#    0.000    1.000   13.200    0.000    0.000    0.000 
#    0.000    0.000    0.000    0.000    0.000    0.000 
#
# Total GULP energy -111338.853060 kJ/mol
# GULP energy per Si atom -5566.942653 kJ/mol
# Density = 2.292149 g / cm^3
# Si number density = 22.973782 Si / 1000 Ang^3
#
#
#
# Elastic Constant Matrix: (Units=GPa)
#
#
# Indices 1 2 3 4 5 6 
#
# 1 72.0279 33.3979 11.7454 -0.0001 12.7175 0.0000
# 2 33.3979 101.8936 29.3901 -0.0008 -0.8286 -0.0002
# 3 11.7454 29.3901 95.7452 -0.0034 12.6557 -0.0006
# 4 -0.0001 -0.0008 -0.0034 27.7265 0.0003 4.3705
# 5 12.7175 -0.8286 12.6557 0.0003 18.7826 -0.0001
# 6 0.0000 -0.0002 -0.0006 4.3705 -0.0001 16.6724
#
#
#
# Elastic Compliance Matrix: (Units=1/GPa)
#
#
# Indices 1 2 3 4 5 6 
#
# 1 0.019416 -0.006969 0.001686 0.000000 -0.014590 0.000000
# 2 -0.006969 0.013422 -0.004355 0.000000 0.008245 0.000000
# 3 0.001686 -0.004355 0.012899 0.000002 -0.010025 0.000000
# 4 0.000000 0.000000 0.000002 0.037621 -0.000002 -0.009862
# 5 -0.014590 0.008245 -0.010025 -0.000002 0.070238 0.000001
# 6 0.000000 0.000000 0.000000 -0.009862 0.000001 0.062565
#
#
# Mechanical properties :
#
#
# Convention : Reuss Voigt Hill
#
# Bulk Modulus (GPa) = 37.79120 46.52594 42.15857
# Shear Modulus (GPa) = 20.47025 25.64518 23.05771
#
# Velocity S-wave (km/s) = 2.98824 3.34470 3.17149
# Velocity P-wave (km/s) = 5.32837 5.93395 5.63930
#
# Compressibility (1/GPa) = 0.02646119
#
# Stress axis : x y z
#
# Youngs Moduli (GPa) = 51.50404 74.50717 77.52241
#
# Poissons Ratio (x) = 0.51923 -0.13069
# Poissons Ratio (y) = 0.35893 0.33760
# Poissons Ratio (z) = -0.08683 0.32447
#
# Static dielectric constant tensor:
#      x y z
#    x 1.981360 0.000000 -0.085760 
#    y 0.000000 1.901690 0.000000 
#    z -0.085760 0.000000 1.947140 
# 
# From -- ./inp_files/133793.got.cif
#   From: 2010.05.17/outbox.cif.g08.bks.cpg/sg15_67_cif.got.tgz:133793.got - 2010.06.03 18:47:42.
