data_PCOD9275427
_publ_section_title
;
Structure prediction by ZEFSAII (Michael W. Deem and Ramdas Pophale) SiO2 
 PCOD9275427
Probable space group: C 2/C
;
_chemical_formula_sum "Si O2"
_cell_formula_units_Z 48
_cell_length_a 14.935243
_cell_length_b 11.439049
_cell_length_c 15.748795
_cell_angle_alpha 90.000000
_cell_angle_beta 116.501454
_cell_angle_gamma 90.000000
_cell_volume 2407.882174
_symmetry_space_group_name_H-M "C 2/C"
_symmetry_group_IT_number 15
_symmetry_cell_setting 'monoclinic'
loop_
_space_group_symop_operation_xyz
x,y,z
-x,y,1/2-z
-x,-y,-z
x,-y,1/2+z
1/2+x,1/2+y,z
1/2-x,1/2+y,1/2-z
1/2-x,1/2-y,-z
1/2+x,1/2-y,1/2+z
loop_
_atom_site_type_symbol
_atom_site_label
_atom_site_fract_x
_atom_site_fract_y
_atom_site_fract_z
Si Si1 0.430190 0.502780 0.793072
Si Si2 0.520098 0.751064 0.884363
Si Si3 0.908247 0.525261 0.264576
Si Si4 0.613644 0.321816 0.576872
Si Si5 0.790501 0.592627 0.059059
Si Si6 0.787500 0.415390 0.361891
O O1 0.500000 0.448034 0.750000
O O2 0.484980 0.623949 0.840805
O O3 0.418502 0.411957 0.865369
O O4 0.320545 0.539057 0.712913
O O5 0.446744 0.847608 0.812818
O O6 0.630739 0.798253 0.904177
O O7 0.525493 0.745159 0.989443
O O8 0.822968 0.523597 0.156858
O O9 0.869903 0.465955 0.333117
O O10 0.000000 0.471510 0.250000
O O11 0.674287 0.386926 0.527633
O O12 0.694261 0.224150 0.639296
O O13 0.803437 0.551037 0.967716
#
# Coordination Sequence:
#
# PCOD9275427 Si02
#       6
#     8   8   8   8   8   8
#     4  12  23  38  63  91 128 162 207 255 309 363
#     4  10  21  37  64  88 118 159 213 251 300 362
#     4  10  21  39  63  90 122 161 206 254 307 365
#     4  11  22  38  61  91 124 160 206 256 309 364
#     4  10  20  39  61  91 118 160 208 250 302 366
#     4  11  23  39  65  89 127 162 205 256 311 367
#
# _framework density 19.934531
#
# number of rings (size 3 to 8) (size 9 to 14) (size 15 to 20)
#    0.000    1.333    1.667    7.000    0.000    6.667 
#    0.000    0.000    0.000    3.000    0.000    0.000 
#    0.000    0.000    0.000    0.000    0.000    0.000 
#
# Total GULP energy -133676.926990 kJ/mol
# GULP energy per Si atom -5569.871958 kJ/mol
# Density = 1.988916 g / cm^3
# Si number density = 19.934531 Si / 1000 Ang^3
#
#
#
# Elastic Constant Matrix: (Units=GPa)
#
#
# Indices 1 2 3 4 5 6 
#
# 1 80.2414 33.7139 65.4188 0.0000 -30.4385 0.0000
# 2 33.7139 42.8077 41.8658 0.0000 -23.2703 0.0000
# 3 65.4188 41.8658 143.3975 0.0000 -23.1872 0.0000
# 4 0.0000 0.0000 0.0000 33.4761 0.0000 -8.6774
# 5 -30.4385 -23.2703 -23.1872 0.0000 45.9394 0.0000
# 6 0.0000 0.0000 0.0000 -8.6774 0.0000 9.3437
#
#
#
# Elastic Compliance Matrix: (Units=1/GPa)
#
#
# Indices 1 2 3 4 5 6 
#
# 1 0.025572 -0.007256 -0.008060 0.000000 0.009200 0.000000
# 2 -0.007256 0.043499 -0.007191 0.000000 0.013597 0.000000
# 3 -0.008060 -0.007191 0.012302 0.000000 -0.002774 0.000000
# 4 0.000000 0.000000 0.000000 0.039343 0.000000 0.036537
# 5 0.009200 0.013597 -0.002774 0.000000 0.033351 0.000000
# 6 0.000000 0.000000 0.000000 0.036537 0.000000 0.140956
#
#
# Mechanical properties :
#
#
# Convention : Reuss Voigt Hill
#
# Bulk Modulus (GPa) = 27.50387 60.93818 44.22102
# Shear Modulus (GPa) = 14.19827 26.11505 20.15666
#
# Velocity S-wave (km/s) = 2.67169 3.62337 3.18330
# Velocity P-wave (km/s) = 4.83159 6.93835 5.97850
#
# Compressibility (1/GPa) = 0.03635852
#
# Stress axis : x y z
#
# Youngs Moduli (GPa) = 39.10514 22.98917 81.29018
#
# Poissons Ratio (x) = 0.16681 0.65521
# Poissons Ratio (y) = 0.28374 0.58456
# Poissons Ratio (z) = 0.31519 0.16531
#
# Static dielectric constant tensor:
#      x y z
#    x 1.744880 0.000000 0.048240 
#    y 0.000000 1.734120 0.000000 
#    z 0.048240 0.000000 1.809020 
# 
# From -- ./inp_files/152196.got.cif
#   From: 2010.05.17/outbox.cif.g08.bks.cpg/sg15_77_cif.got.tgz:152196.got - 2010.06.03 18:47:42.
