data_PCOD9275068
_publ_section_title
;
Structure prediction by ZEFSAII (Michael W. Deem and Ramdas Pophale) SiO2 
 PCOD9275068
Probable space group: C 2/C
;
_chemical_formula_sum "Si O2"
_cell_formula_units_Z 64
_cell_length_a 28.512080
_cell_length_b 8.644519
_cell_length_c 15.444729
_cell_angle_alpha 90.000000
_cell_angle_beta 45.699517
_cell_angle_gamma 90.000000
_cell_volume 2724.413739
_symmetry_space_group_name_H-M "C 2/C"
_symmetry_group_IT_number 15
_symmetry_cell_setting 'monoclinic'
loop_
_space_group_symop_operation_xyz
x,y,z
-x,y,1/2-z
-x,-y,-z
x,-y,1/2+z
1/2+x,1/2+y,z
1/2-x,1/2+y,1/2-z
1/2-x,1/2-y,-z
1/2+x,1/2-y,1/2+z
loop_
_atom_site_type_symbol
_atom_site_label
_atom_site_fract_x
_atom_site_fract_y
_atom_site_fract_z
Si Si1 0.447436 0.568846 0.687098
Si Si2 0.679579 0.412967 0.606280
Si Si3 0.663327 0.068651 0.842249
Si Si4 0.297139 0.582126 0.216801
Si Si5 0.968097 0.578198 0.957116
Si Si6 0.575107 0.567802 0.981300
Si Si7 0.058043 0.393259 0.736905
Si Si8 0.679025 0.053815 0.619270
O O1 0.390194 0.493760 0.818209
O O2 0.434758 0.509814 0.605326
O O3 0.522351 0.522227 0.607628
O O4 0.437730 0.752398 0.700967
O O5 0.695673 0.427203 0.688254
O O6 0.674833 0.230679 0.591399
O O7 0.743709 0.484308 0.478667
O O8 0.683125 0.244687 0.834284
O O9 0.653487 0.051236 0.751134
O O10 0.723296 0.959353 0.789608
O O11 0.596789 0.022204 0.975430
O O12 0.348591 0.467360 0.103000
O O13 0.945409 0.753858 0.990402
O O14 0.024165 0.550431 0.814573
O O15 0.000000 0.500000 0.000000
O O16 0.132776 0.441608 0.623085
O O17 0.000000 0.332969 0.750000
#
# Coordination Sequence:
#
# PCOD9275068 Si02
#       8
#     8   8   8   8   8   8   8   8
#     4  10  20  39  63  93 123 161 200 258 312 373
#     4   9  21  40  66  88 122 166 209 248 313 376
#     4  11  22  39  64  92 129 160 210 258 315 369
#     4  10  22  38  63  98 125 162 204 266 309 367
#     4  12  22  40  67  92 118 166 211 260 312 370
#     4  10  20  38  68  92 121 156 214 254 309 368
#     4  12  26  41  60  94 130 163 207 263 318 372
#     4  10  21  43  63  88 123 169 209 251 307 380
#
# _framework density 23.491292000000001
#
# number of rings (size 3 to 8) (size 9 to 14) (size 15 to 20)
#    0.000    1.500    2.500    2.250    5.250    1.500 
#    6.750    1.250    0.000    0.000    0.000    0.000 
#    0.000    0.000    0.000    0.000    0.000    0.000 
#
# Total GULP energy -178745.640442 kJ/mol
# GULP energy per Si atom -5585.801264 kJ/mol
# Density = 2.343783 g / cm^3
# Si number density = 23.491292 Si / 1000 Ang^3
#
#
#
# Elastic Constant Matrix: (Units=GPa)
#
#
# Indices 1 2 3 4 5 6 
#
# 1 71.1347 13.3954 18.1112 0.0000 -28.5394 0.0000
# 2 13.3954 87.0143 17.7314 -0.0006 -15.2187 0.0002
# 3 18.1112 17.7314 79.8027 -0.0001 -37.8630 0.0001
# 4 0.0000 -0.0006 -0.0001 36.3791 0.0000 -12.2350
# 5 -28.5394 -15.2187 -37.8630 0.0000 39.2672 0.0000
# 6 0.0000 0.0002 0.0001 -12.2350 0.0000 20.2081
#
#
#
# Elastic Compliance Matrix: (Units=1/GPa)
#
#
# Indices 1 2 3 4 5 6 
#
# 1 0.020731 -0.000768 0.004559 0.000000 0.019165 0.000000
# 2 -0.000768 0.012389 -0.001042 0.000000 0.003239 0.000000
# 3 0.004559 -0.001042 0.024162 0.000000 0.026208 0.000000
# 4 0.000000 0.000000 0.000000 0.034517 0.000000 0.020898
# 5 0.019165 0.003239 0.026208 0.000000 0.065922 0.000000
# 6 0.000000 0.000000 0.000000 0.020898 0.000000 0.062138
#
#
# Mechanical properties :
#
#
# Convention : Reuss Voigt Hill
#
# Bulk Modulus (GPa) = 15.92858 37.38086 26.65472
# Shear Modulus (GPa) = 21.25052 31.75180 26.50116
#
# Velocity S-wave (km/s) = 3.01094 3.68046 3.36240
# Velocity P-wave (km/s) = 4.34546 5.83165 5.14253
#
# Compressibility (1/GPa) = 0.06278025
#
# Stress axis : x y z
#
# Youngs Moduli (GPa) = 48.23696 80.71420 41.38689
#
# Poissons Ratio (x) = 0.06202 -0.18868
# Poissons Ratio (y) = 0.03707 0.04312
# Poissons Ratio (z) = -0.21991 0.08409
#
# Static dielectric constant tensor:
#      x y z
#    x 1.933930 0.000000 0.046090 
#    y 0.000000 1.834730 0.000000 
#    z 0.046090 0.000000 1.926110 
# 
# From -- ./inp_files/224600.got.cif
#   From: 2010.05.17/outbox.cif.g08.bks.cpg/sg15_113_cif.got.tgz:224600.got - 2010.06.03 18:47:42.
