data_PCOD9275299
_publ_section_title
;
Structure prediction by ZEFSAII (Michael W. Deem and Ramdas Pophale) SiO2 
 PCOD9275299
Probable space group: C 2/C
;
_chemical_formula_sum "Si O2"
_cell_formula_units_Z 64
_cell_length_a 8.871199
_cell_length_b 22.664095
_cell_length_c 15.813419
_cell_angle_alpha 90.000000
_cell_angle_beta 97.508136
_cell_angle_gamma 90.000000
_cell_volume 3152.150353
_symmetry_space_group_name_H-M "C 2/C"
_symmetry_group_IT_number 15
_symmetry_cell_setting 'monoclinic'
loop_
_space_group_symop_operation_xyz
x,y,z
-x,y,1/2-z
-x,-y,-z
x,-y,1/2+z
1/2+x,1/2+y,z
1/2-x,1/2+y,1/2-z
1/2-x,1/2-y,-z
1/2+x,1/2-y,1/2+z
loop_
_atom_site_type_symbol
_atom_site_label
_atom_site_fract_x
_atom_site_fract_y
_atom_site_fract_z
Si Si1 0.158259 0.708242 0.560247
Si Si2 0.394944 0.085336 0.037515
Si Si3 0.681700 0.453485 0.253589
Si Si4 0.898421 0.247327 0.156396
Si Si5 0.680212 0.317552 0.250537
Si Si6 0.370054 0.388015 0.669963
Si Si7 0.720060 0.981244 0.570101
Si Si8 0.336628 0.059778 0.211729
O O1 0.250000 0.750000 0.500000
O O2 0.131828 0.643356 0.519268
O O3 0.252064 0.703216 0.654612
O O4 0.993715 0.729960 0.583060
O O5 0.565863 0.057743 0.048157
O O6 0.352098 0.098901 0.130462
O O7 0.288116 0.031098 0.000991
O O8 0.500000 0.455267 0.250000
O O9 0.725332 0.386239 0.240293
O O10 0.764265 0.478786 0.343655
O O11 0.731264 0.502818 0.190187
O O12 0.747088 0.281156 0.176003
O O13 0.872681 0.178294 0.140130
O O14 0.000000 0.252334 0.250000
O O15 0.500000 0.313705 0.250000
O O16 0.500000 0.398345 0.750000
O O17 0.357518 0.434977 0.593303
O O18 0.222405 0.400936 0.715766
O O19 0.500000 0.035860 0.250000
#
# Coordination Sequence:
#
# PCOD9275299 Si02
#       8
#     8   8   8   8   8   8   8   8
#     4  11  25  45  65  97 139 175 218 282 332 392
#     4  11  23  37  63  97 128 166 215 268 337 381
#     4  10  20  40  62  93 131 166 216 265 328 389
#     4   9  22  42  67  95 121 179 223 263 322 388
#     4  10  22  42  71  94 128 178 229 270 317 402
#     4  10  21  40  64  90 127 162 218 266 317 388
#     4  10  20  39  59  92 130 161 205 271 323 393
#     4  11  21  36  63  94 118 169 214 266 318 392
#
# _framework density 20.303599999999999
#
# number of rings (size 3 to 8) (size 9 to 14) (size 15 to 20)
#    0.000    1.750    3.750    1.500    5.250    5.000 
#    0.000    7.500    0.000    0.000    0.000    0.000 
#    0.000    0.000    0.000    0.000    0.000    0.000 
#
# Total GULP energy -178260.265529 kJ/mol
# GULP energy per Si atom -5570.633298 kJ/mol
# Density = 2.025739 g / cm^3
# Si number density = 20.303600 Si / 1000 Ang^3
#
#
#
# Elastic Constant Matrix: (Units=GPa)
#
#
# Indices 1 2 3 4 5 6 
#
# 1 72.5760 39.5436 25.9874 0.0000 -6.2251 0.0000
# 2 39.5436 116.9653 42.3617 0.0000 -7.9131 0.0000
# 3 25.9874 42.3617 74.2781 0.0000 -10.6476 0.0000
# 4 0.0000 0.0000 0.0000 10.4486 0.0000 1.7126
# 5 -6.2251 -7.9131 -10.6476 0.0000 28.1410 0.0000
# 6 0.0000 0.0000 0.0000 1.7126 0.0000 25.8274
#
#
#
# Elastic Compliance Matrix: (Units=1/GPa)
#
#
# Indices 1 2 3 4 5 6 
#
# 1 0.017622 -0.004668 -0.003312 0.000000 0.001332 0.000000
# 2 -0.004668 0.012026 -0.005169 0.000000 0.000393 0.000000
# 3 -0.003312 -0.005169 0.018246 0.000000 0.004717 0.000000
# 4 0.000000 0.000000 0.000000 0.096759 0.000000 -0.006416
# 5 0.001332 0.000393 0.004717 0.000000 0.037726 0.000000
# 6 0.000000 0.000000 0.000000 -0.006416 0.000000 0.039144
#
#
# Mechanical properties :
#
#
# Convention : Reuss Voigt Hill
#
# Bulk Modulus (GPa) = 46.30520 53.28943 49.79731
# Shear Modulus (GPa) = 19.60623 23.27852 21.44238
#
# Velocity S-wave (km/s) = 3.11087 3.38971 3.25328
# Velocity P-wave (km/s) = 5.97990 6.45162 6.22024
#
# Compressibility (1/GPa) = 0.02159585
#
# Stress axis : x y z
#
# Youngs Moduli (GPa) = 56.74612 83.14975 54.80617
#
# Poissons Ratio (x) = 0.38814 0.18153
# Poissons Ratio (y) = 0.26489 0.28331
# Poissons Ratio (z) = 0.18796 0.42983
#
# Static dielectric constant tensor:
#      x y z
#    x 1.805090 0.000000 0.008390 
#    y 0.000000 1.724790 0.000000 
#    z 0.008390 0.000000 1.733420 
# 
# From -- ./inp_files/137861.got.cif
#   From: 2010.05.17/outbox.cif.g08.bks.cpg/sg15_69_cif.got.tgz:137861.got - 2010.06.03 18:47:42.
