data_PCOD9275818
_publ_section_title
;
Structure prediction by ZEFSAII (Michael W. Deem and Ramdas Pophale) SiO2 
 PCOD9275818
Probable space group: C 2/C
;
_chemical_formula_sum "Si O2"
_cell_formula_units_Z 40
_cell_length_a 7.683468
_cell_length_b 25.105898
_cell_length_c 11.424579
_cell_angle_alpha 90.000000
_cell_angle_beta 48.651976
_cell_angle_gamma 90.000000
_cell_volume 1654.420267
_symmetry_space_group_name_H-M "C 2/C"
_symmetry_group_IT_number 15
_symmetry_cell_setting 'monoclinic'
loop_
_space_group_symop_operation_xyz
x,y,z
-x,y,1/2-z
-x,-y,-z
x,-y,1/2+z
1/2+x,1/2+y,z
1/2-x,1/2+y,1/2-z
1/2-x,1/2-y,-z
1/2+x,1/2-y,1/2+z
loop_
_atom_site_type_symbol
_atom_site_label
_atom_site_fract_x
_atom_site_fract_y
_atom_site_fract_z
Si Si1 0.744768 0.409989 0.358852
Si Si2 0.117364 0.698357 0.405610
Si Si3 0.495433 0.690859 0.447312
Si Si4 0.265630 0.500525 0.434531
Si Si5 0.271705 0.389363 0.391730
O O1 0.559252 0.364432 0.467255
O O2 0.731793 0.457205 0.458843
O O3 0.746786 0.424030 0.221265
O O4 0.000000 0.382847 0.250000
O O5 0.300644 0.693743 0.431482
O O6 0.259122 0.691730 0.224352
O O7 0.021991 0.757887 0.462580
O O8 0.931185 0.651553 0.497696
O O9 0.500000 0.513600 0.250000
O O10 0.286706 0.439518 0.472225
O O11 0.000000 0.500000 0.500000
O O12 0.500000 0.357461 0.250000
#
# Coordination Sequence:
#
# PCOD9275818 Si02
#       5
#     8   8   8   8   8
#     4  12  23  42  69  99 138 182 238 288 350 424
#     4  10  20  39  65 102 136 174 230 288 350 415
#     4  10  21  35  71 100 131 177 231 291 344 414
#     4  11  25  43  70 102 141 189 236 294 357 419
#     4  11  25  46  66  98 144 186 229 294 355 425
#
# _framework density 24.177652999999999
#
# number of rings (size 3 to 8) (size 9 to 14) (size 15 to 20)
#    0.000    1.200    4.000    1.200    8.400    3.200 
#    0.000    5.000    0.000    0.000    0.000    0.000 
#    0.000    0.000    0.000    0.000    0.000    0.000 
#
# Total GULP energy -111544.514164 kJ/mol
# GULP energy per Si atom -5577.225708 kJ/mol
# Density = 2.412262 g / cm^3
# Si number density = 24.177653 Si / 1000 Ang^3
#
#
#
# Elastic Constant Matrix: (Units=GPa)
#
#
# Indices 1 2 3 4 5 6 
#
# 1 30.4846 34.4179 42.0779 0.0000 -16.4397 0.0000
# 2 34.4179 221.4943 130.7055 0.0000 -13.1343 0.0000
# 3 42.0779 130.7055 200.0810 0.0000 -37.5910 0.0000
# 4 0.0000 0.0000 0.0000 51.4759 0.0000 -6.7057
# 5 -16.4397 -13.1343 -37.5910 0.0000 42.5025 0.0000
# 6 0.0000 0.0000 0.0000 -6.7057 0.0000 36.8596
#
#
#
# Elastic Compliance Matrix: (Units=1/GPa)
#
#
# Indices 1 2 3 4 5 6 
#
# 1 0.052987 -0.003873 -0.005981 0.000000 0.014008 0.000000
# 2 -0.003873 0.007834 -0.004953 0.000000 -0.003458 0.000000
# 3 -0.005981 -0.004953 0.010517 0.000000 0.005457 0.000000
# 4 0.000000 0.000000 0.000000 0.019898 0.000000 0.003620
# 5 0.014008 -0.003458 0.005457 0.000000 0.032704 0.000000
# 6 0.000000 0.000000 0.000000 0.003620 0.000000 0.027789
#
#
# Mechanical properties :
#
#
# Convention : Reuss Voigt Hill
#
# Bulk Modulus (GPa) = 23.96781 96.27364 60.12073
# Shear Modulus (GPa) = 25.60800 42.49151 34.04975
#
# Velocity S-wave (km/s) = 3.25800 4.19677 3.75682
# Velocity P-wave (km/s) = 4.90790 7.96175 6.61351
#
# Compressibility (1/GPa) = 0.04172262
#
# Stress axis : x y z
#
# Youngs Moduli (GPa) = 18.87273 127.64161 95.08598
#
# Poissons Ratio (x) = 0.49440 0.56873
# Poissons Ratio (y) = 0.07310 0.47096
# Poissons Ratio (z) = 0.11288 0.63221
#
# Static dielectric constant tensor:
#      x y z
#    x 2.315230 0.000000 0.017910 
#    y 0.000000 1.908760 0.000000 
#    z 0.017910 0.000000 1.930890 
# 
# From -- ./inp_files/82007.got.cif
#   From: 2010.05.17/outbox.cif.g08.bks.cpg/sg15_42_cif.got.tgz:82007.got - 2010.06.03 18:47:42.
