data_PCOD9275706
_publ_section_title
;
Structure prediction by ZEFSAII (Michael W. Deem and Ramdas Pophale) SiO2 
 PCOD9275706
Probable space group: C 2/C
;
_chemical_formula_sum "Si O2"
_cell_formula_units_Z 24
_cell_length_a 20.336806
_cell_length_b 5.012343
_cell_length_c 8.809158
_cell_angle_alpha 90.000000
_cell_angle_beta 74.597403
_cell_angle_gamma 90.000000
_cell_volume 865.710167
_symmetry_space_group_name_H-M "C 2/C"
_symmetry_group_IT_number 15
_symmetry_cell_setting 'monoclinic'
loop_
_space_group_symop_operation_xyz
x,y,z
-x,y,1/2-z
-x,-y,-z
x,-y,1/2+z
1/2+x,1/2+y,z
1/2-x,1/2+y,1/2-z
1/2-x,1/2-y,-z
1/2+x,1/2-y,1/2+z
loop_
_atom_site_type_symbol
_atom_site_label
_atom_site_fract_x
_atom_site_fract_y
_atom_site_fract_z
Si Si1 0.047480 0.647201 0.347822
Si Si2 0.868209 0.740054 0.926510
Si Si3 0.758115 0.957400 0.345400
O O1 0.093756 0.807820 0.439167
O O2 0.088267 0.424228 0.224453
O O3 0.000000 0.791501 0.250000
O O4 0.000000 0.500000 0.500000
O O5 0.831036 0.994715 0.878020
O O6 0.805223 0.552372 0.014682
O O7 0.755739 0.168796 0.210265
#
# Coordination Sequence:
#
# PCOD9275706 Si02
#       3
#     8   8   8
#     4   9  18  37  68  99 138 186 235 285 340 414
#     4  10  20  39  64 105 135 185 228 289 345 415
#     4  11  24  43  70 107 143 182 225 293 352 420
#
# _framework density 27.722906999999999
#
# number of rings (size 3 to 8) (size 9 to 14) (size 15 to 20)
#    0.000    2.000    3.333    0.000    0.000    5.333 
#    0.000    0.000    0.000   26.000    0.000    0.000 
#    0.000    0.000    0.000    0.000    0.000    0.000 
#
# Total GULP energy -67291.093246 kJ/mol
# GULP energy per Si atom -5607.591104 kJ/mol
# Density = 2.765981 g / cm^3
# Si number density = 27.722907 Si / 1000 Ang^3
#
#
#
# Elastic Constant Matrix: (Units=GPa)
#
#
# Indices 1 2 3 4 5 6 
#
# 1 193.6538 23.4919 79.2472 0.0000 75.5617 0.0000
# 2 23.4919 53.9245 28.5918 0.0000 24.9978 0.0000
# 3 79.2472 28.5918 200.2189 0.0000 0.6414 0.0000
# 4 0.0000 0.0000 0.0000 58.2115 0.0000 10.5300
# 5 75.5617 24.9978 0.6414 0.0000 104.9525 0.0000
# 6 0.0000 0.0000 0.0000 10.5300 0.0000 18.4179
#
#
#
# Elastic Compliance Matrix: (Units=1/GPa)
#
#
# Indices 1 2 3 4 5 6 
#
# 1 0.009301 0.001206 -0.003831 0.000000 -0.006960 0.000000
# 2 0.001206 0.022919 -0.003730 0.000000 -0.006305 0.000000
# 3 -0.003831 -0.003730 0.007032 0.000000 0.003604 0.000000
# 4 0.000000 0.000000 0.000000 0.019160 0.000000 -0.010954
# 5 -0.006960 -0.006305 0.003604 0.000000 0.016019 0.000000
# 6 0.000000 0.000000 0.000000 -0.010954 0.000000 0.060558
#
#
# Mechanical properties :
#
#
# Convention : Reuss Voigt Hill
#
# Bulk Modulus (GPa) = 37.67619 78.93989 58.30804
# Shear Modulus (GPa) = 31.93900 57.41413 44.67656
#
# Velocity S-wave (km/s) = 3.39791 4.55576 4.01875
# Velocity P-wave (km/s) = 5.38648 7.49731 6.52778
#
# Compressibility (1/GPa) = 0.02654196
#
# Stress axis : x y z
#
# Youngs Moduli (GPa) = 107.51119 43.63116 142.20387
#
# Poissons Ratio (x) = -0.05262 0.54485
# Poissons Ratio (y) = -0.12967 0.53044
# Poissons Ratio (z) = 0.41192 0.16275
#
# Static dielectric constant tensor:
#      x y z
#    x 2.286030 0.000000 0.015110 
#    y 0.000000 2.075200 0.000000 
#    z 0.015110 0.000000 2.155380 
# 
# From -- ./inp_files/53111.got.cif
#   From: 2010.05.17/outbox.cif.g08.bks.cpg/sg15_27_cif.got.tgz:53111.got - 2010.06.03 18:47:42.
