data_PCOD9275048
_publ_section_title
;
Structure prediction by ZEFSAII (Michael W. Deem and Ramdas Pophale) SiO2 
 PCOD9275048
Probable space group: C 2/C
;
_chemical_formula_sum "Si O2"
_cell_formula_units_Z 44
_cell_length_a 28.326899
_cell_length_b 9.648470
_cell_length_c 27.762312
_cell_angle_alpha 90.000000
_cell_angle_beta 17.962112
_cell_angle_gamma 90.000000
_cell_volume 2339.971760
_symmetry_space_group_name_H-M "C 2/C"
_symmetry_group_IT_number 15
_symmetry_cell_setting 'monoclinic'
loop_
_space_group_symop_operation_xyz
x,y,z
-x,y,1/2-z
-x,-y,-z
x,-y,1/2+z
1/2+x,1/2+y,z
1/2-x,1/2+y,1/2-z
1/2-x,1/2-y,-z
1/2+x,1/2-y,1/2+z
loop_
_atom_site_type_symbol
_atom_site_label
_atom_site_fract_x
_atom_site_fract_y
_atom_site_fract_z
Si Si1 0.911445 0.621336 0.677564
Si Si2 0.016229 0.161906 0.310015
Si Si3 0.750000 0.250000 0.500000
Si Si4 0.245124 0.341351 0.677542
Si Si5 0.289434 0.849070 0.675188
Si Si6 0.417784 0.431613 0.176499
O O1 0.970579 0.709794 0.665296
O O2 0.850728 0.470460 0.750036
O O3 0.772321 0.707032 0.788549
O O4 0.048052 0.614530 0.506140
O O5 0.855444 0.171703 0.439160
O O6 0.043689 0.024861 0.314623
O O7 0.144571 0.181817 0.145076
O O8 0.205619 0.334574 0.772577
O O9 0.424021 0.371894 0.497624
O O10 0.193779 0.196605 0.704615
O O11 0.167948 0.966942 0.777744
#
# Coordination Sequence:
#
# PCOD9275048 Si02
#       6
#     8   8   4   8   8   8
#     4  11  21  36  59  84 120 154 204 249 295 344
#     4  10  21  39  62  91 108 143 189 255 302 356
#     4  10  20  38  68  84 106 134 190 238 302 366
#     4  12  22  36  56  84 124 172 197 237 291 349
#     4  11  21  36  55  85 120 166 213 245 272 337
#     4  11  23  37  56  85 125 157 205 245 294 348
#
# _framework density 18.803644999999999
#
# number of rings (size 3 to 8) (size 9 to 14) (size 15 to 20)
#    0.000    1.091    0.000    9.818    0.000    0.000 
#    0.000    0.000    0.000   19.636    0.000    0.000 
#    0.000    0.000    0.000    0.000    0.000    0.000 
#
# Total GULP energy -122471.637409 kJ/mol
# GULP energy per Si atom -5566.892610 kJ/mol
# Density = 1.876085 g / cm^3
# Si number density = 18.803645 Si / 1000 Ang^3
#
#
#
# Elastic Constant Matrix: (Units=GPa)
#
#
# Indices 1 2 3 4 5 6 
#
# 1 61.3501 46.0668 -3.0700 0.0008 -1.3265 -0.0008
# 2 46.0668 106.1584 -1.6875 -0.0005 -19.4980 -0.0003
# 3 -3.0700 -1.6875 48.5200 0.0011 -6.1656 -0.0003
# 4 0.0008 -0.0005 0.0011 21.8965 -0.0006 -10.3593
# 5 -1.3265 -19.4980 -6.1656 -0.0006 27.1117 0.0003
# 6 -0.0008 -0.0003 -0.0003 -10.3593 0.0003 8.1488
#
#
#
# Elastic Compliance Matrix: (Units=1/GPa)
#
#
# Indices 1 2 3 4 5 6 
#
# 1 0.025514 -0.012479 0.000204 -0.000001 -0.007680 0.000001
# 2 -0.012479 0.017052 0.001322 0.000002 0.011953 0.000001
# 3 0.000204 0.001322 0.021410 -0.000001 0.005830 -0.000001
# 4 -0.000001 0.000002 -0.000001 0.114587 0.000002 0.145671
# 5 -0.007680 0.011953 0.005830 0.000002 0.046431 0.000001
# 6 0.000001 0.000001 -0.000001 0.145671 0.000001 0.307904
#
#
# Mechanical properties :
#
#
# Convention : Reuss Voigt Hill
#
# Bulk Modulus (GPa) = 23.76920 33.18303 28.47611
# Shear Modulus (GPa) = 8.79004 23.07936 15.93470
#
# Velocity S-wave (km/s) = 2.16444 3.50721 2.91422
# Velocity P-wave (km/s) = 4.34909 5.83833 5.14785
#
# Compressibility (1/GPa) = 0.04207125
#
# Stress axis : x y z
#
# Youngs Moduli (GPa) = 39.19352 58.64560 46.70757
#
# Poissons Ratio (x) = 0.73185 -0.00955
# Poissons Ratio (y) = 0.48910 -0.06177
# Poissons Ratio (z) = -0.00801 -0.07755
#
# Static dielectric constant tensor:
#      x y z
#    x 1.651170 0.000000 -0.023180 
#    y 0.000000 1.653920 0.000000 
#    z -0.023180 0.000000 1.664980 
# 
# From -- ./inp_files/68306.got.cif
#   From: 2010.05.17/outbox.cif.g08.bks.cpg/sg15_35_cif.got.tgz:68306.got - 2010.06.03 18:47:42.
