data_PCOD9275232
_publ_section_title
;
Structure prediction by ZEFSAII (Michael W. Deem and Ramdas Pophale) SiO2 
 PCOD9275232
Probable space group: C 2/C
;
_chemical_formula_sum "Si O2"
_cell_formula_units_Z 60
_cell_length_a 13.728887
_cell_length_b 26.014068
_cell_length_c 9.161773
_cell_angle_alpha 90.000000
_cell_angle_beta 112.202420
_cell_angle_gamma 90.000000
_cell_volume 3029.464929
_symmetry_space_group_name_H-M "C 2/C"
_symmetry_group_IT_number 15
_symmetry_cell_setting 'monoclinic'
loop_
_space_group_symop_operation_xyz
x,y,z
-x,y,1/2-z
-x,-y,-z
x,-y,1/2+z
1/2+x,1/2+y,z
1/2-x,1/2+y,1/2-z
1/2-x,1/2-y,-z
1/2+x,1/2-y,1/2+z
loop_
_atom_site_type_symbol
_atom_site_label
_atom_site_fract_x
_atom_site_fract_y
_atom_site_fract_z
Si Si1 0.883091 0.334991 0.716689
Si Si2 0.384780 0.604538 0.889166
Si Si3 0.233086 0.431800 0.814389
Si Si4 0.500000 0.476047 0.250000
Si Si5 0.293167 0.314370 0.121971
Si Si6 0.409762 0.340691 0.916687
Si Si7 0.287643 0.472209 0.539053
Si Si8 0.246173 0.227441 0.335423
O O1 0.866387 0.395959 0.713682
O O2 0.806862 0.317549 0.541508
O O3 0.837700 0.312854 0.842967
O O4 0.000000 0.318790 0.750000
O O5 0.453741 0.560536 0.849249
O O6 0.323080 0.635075 0.729438
O O7 0.300987 0.577326 0.945093
O O8 0.470003 0.640860 0.018721
O O9 0.333646 0.391812 0.877323
O O10 0.231166 0.457031 0.654901
O O11 0.243323 0.477762 0.934216
O O12 0.593432 0.511751 0.355281
O O13 0.269491 0.271819 0.229561
O O14 0.388412 0.310928 0.058298
O O15 0.361373 0.303224 0.766167
O O16 0.250000 0.250000 0.500000
#
# Coordination Sequence:
#
# PCOD9275232 Si02
#       8
#     8   8   8   4   8   8   8   8
#     4  10  23  46  69  85 121 170 219 257 317 380
#     4  12  21  33  61  92 129 162 209 250 310 388
#     4  10  22  38  59  87 121 165 211 251 311 371
#     4  12  18  36  48  96 128 170 204 238 302 412
#     4  10  21  38  64  87 123 163 208 253 321 378
#     4  10  20  39  56  89 129 167 207 248 314 389
#     4  12  22  34  59  87 134 170 198 254 321 372
#     4  10  23  42  66  94 127 158 209 268 317 368
#
# _framework density 19.805478999999998
#
# number of rings (size 3 to 8) (size 9 to 14) (size 15 to 20)
#    0.000    1.600    4.000    3.600    3.733    2.133 
#    0.000    2.667    0.000    0.000    0.000    0.000 
#    0.000    0.000    0.000    0.000    0.000    0.000 
#
# Total GULP energy -167474.844589 kJ/mol
# GULP energy per Si atom -5582.494820 kJ/mol
# Density = 1.976040 g / cm^3
# Si number density = 19.805479 Si / 1000 Ang^3
#
#
#
# Elastic Constant Matrix: (Units=GPa)
#
#
# Indices 1 2 3 4 5 6 
#
# 1 32.2993 15.6387 19.2601 0.0000 0.0071 0.0000
# 2 15.6387 74.3993 51.8048 0.0000 -11.4684 0.0000
# 3 19.2601 51.8048 106.0086 0.0000 -19.9999 0.0000
# 4 0.0000 0.0000 0.0000 42.4256 0.0000 3.2322
# 5 0.0071 -11.4684 -19.9999 0.0000 23.0860 0.0000
# 6 0.0000 0.0000 0.0000 3.2322 0.0000 7.9415
#
#
#
# Elastic Compliance Matrix: (Units=1/GPa)
#
#
# Indices 1 2 3 4 5 6 
#
# 1 0.036713 -0.004911 -0.005657 0.000000 -0.007352 0.000000
# 2 -0.004911 0.021093 -0.008891 0.000000 0.002777 0.000000
# 3 -0.005657 -0.008891 0.016703 0.000000 0.010055 0.000000
# 4 0.000000 0.000000 0.000000 0.024325 0.000000 -0.009900
# 5 -0.007352 0.002777 0.010055 0.000000 0.053409 0.000000
# 6 0.000000 0.000000 0.000000 -0.009900 0.000000 0.129950
#
#
# Mechanical properties :
#
#
# Convention : Reuss Voigt Hill
#
# Bulk Modulus (GPa) = 28.09843 42.90162 35.50003
# Shear Modulus (GPa) = 15.01613 23.09087 19.05350
#
# Velocity S-wave (km/s) = 2.75649 3.41821 3.10503
# Velocity P-wave (km/s) = 4.93447 6.10634 5.55141
#
# Compressibility (1/GPa) = 0.03558917
#
# Stress axis : x y z
#
# Youngs Moduli (GPa) = 27.23804 47.41014 59.86892
#
# Poissons Ratio (x) = 0.23284 0.33869
# Poissons Ratio (y) = 0.13377 0.53232
# Poissons Ratio (z) = 0.15409 0.42154
#
# Static dielectric constant tensor:
#      x y z
#    x 2.106620 0.000000 -0.207430 
#    y 0.000000 1.755090 0.000000 
#    z -0.207430 0.000000 1.803800 
# 
# From -- ./inp_files/42703.got.cif
#   From: 2010.05.17/outbox.cif.g08.bks.cpg/sg15_22_cif.got.tgz:42703.got - 2010.06.03 18:47:42.
