data_PCOD9275703
_publ_section_title
;
Structure prediction by ZEFSAII (Michael W. Deem and Ramdas Pophale) SiO2 
 PCOD9275703
Probable space group: C 2/C
;
_chemical_formula_sum "Si O2"
_cell_formula_units_Z 48
_cell_length_a 9.738691
_cell_length_b 17.321073
_cell_length_c 20.485155
_cell_angle_alpha 90.000000
_cell_angle_beta 35.362273
_cell_angle_gamma 90.000000
_cell_volume 1999.868190
_symmetry_space_group_name_H-M "C 2/C"
_symmetry_group_IT_number 15
_symmetry_cell_setting 'monoclinic'
loop_
_space_group_symop_operation_xyz
x,y,z
-x,y,1/2-z
-x,-y,-z
x,-y,1/2+z
1/2+x,1/2+y,z
1/2-x,1/2+y,1/2-z
1/2-x,1/2-y,-z
1/2+x,1/2-y,1/2+z
loop_
_atom_site_type_symbol
_atom_site_label
_atom_site_fract_x
_atom_site_fract_y
_atom_site_fract_z
Si Si1 0.373434 0.624223 0.231547
Si Si2 0.534511 0.517194 0.874470
Si Si3 0.000000 0.892655 0.250000
Si Si4 0.334850 0.233750 0.894615
Si Si5 0.324800 0.778216 0.062249
Si Si6 0.500000 0.909009 0.250000
Si Si7 0.320757 0.128814 0.434660
O O1 0.500000 0.601016 0.250000
O O2 0.489538 0.573576 0.129093
O O3 0.432047 0.714143 0.202642
O O4 0.094829 0.608695 0.336606
O O5 0.512608 0.556026 0.810489
O O6 0.790883 0.540097 0.801819
O O7 0.341060 0.553476 0.998208
O O8 0.773872 0.834484 0.343326
O O9 0.390601 0.149322 0.846621
O O10 0.250000 0.250000 0.000000
O O11 0.106814 0.269258 0.945813
O O12 0.224199 0.691123 0.104807
O O13 0.240287 0.822155 0.029765
#
# Coordination Sequence:
#
# PCOD9275703 Si02
#       7
#     8   8   4   8   8   4   8
#     4  12  25  46  71 105 143 188 249 305 360 438
#     4  11  25  45  69 102 145 194 234 303 377 434
#     4  10  22  35  71 104 132 178 246 294 358 437
#     4  12  25  43  73 106 137 189 250 299 357 435
#     4  10  20  39  64 101 131 172 234 298 352 418
#     4  12  24  49  71 102 152 192 242 306 368 431
#     4  10  22  41  68  94 140 184 228 296 367 412
#
# _framework density 24.001581000000002
#
# number of rings (size 3 to 8) (size 9 to 14) (size 15 to 20)
#    0.000    1.000    5.000    1.000    7.000    3.333 
#    3.000    1.667    0.000    0.000    0.000    0.000 
#    0.000    0.000    0.000    0.000    0.000    0.000 
#
# Total GULP energy -134197.041373 kJ/mol
# GULP energy per Si atom -5591.543391 kJ/mol
# Density = 2.394695 g / cm^3
# Si number density = 24.001581 Si / 1000 Ang^3
#
#
#
# Elastic Constant Matrix: (Units=GPa)
#
#
# Indices 1 2 3 4 5 6 
#
# 1 69.3839 18.7298 12.1414 0.0080 -11.7709 -0.0009
# 2 18.7298 66.8672 -1.6178 0.0163 -0.9896 -0.0012
# 3 12.1414 -1.6178 86.5043 0.1041 -16.7862 -0.0258
# 4 0.0080 0.0163 0.1041 -4.2343 -0.0160 26.4542
# 5 -11.7709 -0.9896 -16.7862 -0.0160 41.8266 0.0012
# 6 -0.0009 -0.0012 -0.0258 26.4542 0.0012 7.8063
#
#
#
# Elastic Compliance Matrix: (Units=1/GPa)
#
#
# Indices 1 2 3 4 5 6 
#
# 1 0.016617 -0.004637 -0.001662 -0.000003 0.003899 0.000006
# 2 -0.004637 0.016266 0.000842 0.000005 -0.000582 -0.000012
# 3 -0.001662 0.000842 0.012712 0.000025 0.004654 -0.000043
# 4 -0.000003 0.000005 0.000025 -0.010651 0.000004 0.036096
# 5 0.003899 -0.000582 0.004654 0.000004 0.026860 -0.000002
# 6 0.000006 -0.000012 -0.000043 0.036096 -0.000002 0.005778
#
#
# Mechanical properties :
#
#
# Convention : Reuss Voigt Hill
#
# Bulk Modulus (GPa) = 28.83486 31.25133 30.04310
# Shear Modulus (GPa) = 55.52173 21.97985 38.75079
#
# Velocity S-wave (km/s) = 4.81485 3.02945 4.02246
# Velocity P-wave (km/s) = 6.55364 5.02847 5.84105
#
# Compressibility (1/GPa) = 0.03468024
#
# Stress axis : x y z
#
# Youngs Moduli (GPa) = 60.18038 61.47949 78.66436
#
# Poissons Ratio (x) = 0.28508 0.13076
# Poissons Ratio (y) = 0.27905 -0.06624
# Poissons Ratio (z) = 0.10004 -0.05177
#
# Static dielectric constant tensor:
#      x y z
#    x 1.992020 -0.000010 0.059420 
#    y -0.000010 1.934530 0.000000 
#    z 0.059420 0.000000 1.914460 
# 
# From -- ./inp_files/293335.got.cif
#   From: 2010.05.17/outbox.cif.g08.bks.cpg/sg15_147_cif.got.tgz:293335.got - 2010.06.03 18:47:42.
