data_PCOD9275546
_publ_section_title
;
Structure prediction by ZEFSAII (Michael W. Deem and Ramdas Pophale) SiO2 
 PCOD9275546
Probable space group: C 2/C
;
_chemical_formula_sum "Si O2"
_cell_formula_units_Z 52
_cell_length_a 9.908153
_cell_length_b 21.174796
_cell_length_c 12.643683
_cell_angle_alpha 90.000000
_cell_angle_beta 99.892732
_cell_angle_gamma 90.000000
_cell_volume 2613.241701
_symmetry_space_group_name_H-M "C 2/C"
_symmetry_group_IT_number 15
_symmetry_cell_setting 'monoclinic'
loop_
_space_group_symop_operation_xyz
x,y,z
-x,y,1/2-z
-x,-y,-z
x,-y,1/2+z
1/2+x,1/2+y,z
1/2-x,1/2+y,1/2-z
1/2-x,1/2-y,-z
1/2+x,1/2-y,1/2+z
loop_
_atom_site_type_symbol
_atom_site_label
_atom_site_fract_x
_atom_site_fract_y
_atom_site_fract_z
Si Si1 0.083398 0.872736 0.940218
Si Si2 0.656599 0.035981 0.304222
Si Si3 0.202350 0.118512 0.003186
Si Si4 0.375281 0.169940 0.849439
Si Si5 0.375270 0.496375 0.159521
Si Si6 0.168341 0.393507 0.373451
Si Si7 0.500000 0.285412 0.750000
O O1 0.067614 0.945036 0.900300
O O2 0.090484 0.829140 0.837995
O O3 0.214615 0.870248 0.032501
O O4 0.944566 0.855574 0.982236
O O5 0.500000 0.047400 0.250000
O O6 0.661510 0.969276 0.368192
O O7 0.717250 0.091530 0.384516
O O8 0.753427 0.023621 0.215994
O O9 0.288906 0.166211 0.943611
O O10 0.175897 0.058256 0.923681
O O11 0.306343 0.131899 0.742304
O O12 0.520938 0.134605 0.885285
O O13 0.409226 0.238933 0.809707
O O14 0.500000 0.473367 0.250000
#
# Coordination Sequence:
#
# PCOD9275546 Si02
#       7
#     8   8   8   8   8   8   4
#     4  12  23  39  67  92 125 173 213 261 324 380
#     4  12  22  36  60  94 134 170 204 260 323 391
#     4  12  24  38  63 100 125 170 213 266 324 388
#     4  10  24  42  63  89 128 164 224 270 306 379
#     4  12  22  37  59  96 136 161 199 264 330 390
#     4  10  20  39  62  94 120 170 207 257 329 375
#     4  10  24  48  64  88 130 176 222 268 312 376
#
# _framework density 19.898655999999999
#
# number of rings (size 3 to 8) (size 9 to 14) (size 15 to 20)
#    0.000    0.923    6.923    1.385    2.154    4.308 
#    0.000    0.000    0.000    3.692    0.000    0.000 
#    0.000    0.000    0.000    0.000    0.000    0.000 
#
# Total GULP energy -145396.969836 kJ/mol
# GULP energy per Si atom -5592.191148 kJ/mol
# Density = 1.985337 g / cm^3
# Si number density = 19.898656 Si / 1000 Ang^3
#
#
#
# Elastic Constant Matrix: (Units=GPa)
#
#
# Indices 1 2 3 4 5 6 
#
# 1 95.7679 -0.8233 51.8295 0.0000 0.6794 0.0000
# 2 -0.8233 52.3675 20.1424 0.0000 4.1625 0.0000
# 3 51.8295 20.1424 91.3978 0.0000 20.4432 0.0000
# 4 0.0000 0.0000 0.0000 23.1782 0.0000 -3.7273
# 5 0.6794 4.1625 20.4432 0.0000 48.4561 0.0000
# 6 0.0000 0.0000 0.0000 -3.7273 0.0000 10.5567
#
#
#
# Elastic Compliance Matrix: (Units=1/GPa)
#
#
# Indices 1 2 3 4 5 6 
#
# 1 0.016532 0.004253 -0.011239 0.000000 0.004145 0.000000
# 2 0.004253 0.021960 -0.007527 0.000000 0.001229 0.000000
# 3 -0.011239 -0.007527 0.020752 0.000000 -0.007951 0.000000
# 4 0.000000 0.000000 0.000000 0.045741 0.000000 0.016150
# 5 0.004145 0.001229 -0.007951 0.000000 0.023828 0.000000
# 6 0.000000 0.000000 0.000000 0.016150 0.000000 0.100429
#
#
# Mechanical properties :
#
#
# Convention : Reuss Voigt Hill
#
# Bulk Modulus (GPa) = 33.09190 42.42560 37.75875
# Shear Modulus (GPa) = 18.63319 27.66384 23.14851
#
# Velocity S-wave (km/s) = 3.06339 3.73263 3.41445
# Velocity P-wave (km/s) = 5.40174 6.32011 5.87889
#
# Compressibility (1/GPa) = 0.03021887
#
# Stress axis : x y z
#
# Youngs Moduli (GPa) = 60.48986 45.53739 48.18869
#
# Poissons Ratio (x) = -0.19369 0.54160
# Poissons Ratio (y) = -0.25729 0.36270
# Poissons Ratio (z) = 0.67985 0.34274
#
# Static dielectric constant tensor:
#      x y z
#    x 1.696730 0.000000 -0.025640 
#    y 0.000000 1.693790 0.000000 
#    z -0.025640 0.000000 1.705320 
# 
# From -- ./inp_files/80789.got.cif
#   From: 2010.05.17/outbox.cif.g08.bks.cpg/sg15_41_cif.got.tgz:80789.got - 2010.06.03 18:47:42.
