data_PCOD9275563
_publ_section_title
;
Structure prediction by ZEFSAII (Michael W. Deem and Ramdas Pophale) SiO2 
 PCOD9275563
Probable space group: C 2/C
;
_chemical_formula_sum "Si O2"
_cell_formula_units_Z 48
_cell_length_a 8.979820
_cell_length_b 14.809817
_cell_length_c 14.876520
_cell_angle_alpha 90.000000
_cell_angle_beta 87.912583
_cell_angle_gamma 90.000000
_cell_volume 1977.107975
_symmetry_space_group_name_H-M "C 2/C"
_symmetry_group_IT_number 15
_symmetry_cell_setting 'monoclinic'
loop_
_space_group_symop_operation_xyz
x,y,z
-x,y,1/2-z
-x,-y,-z
x,-y,1/2+z
1/2+x,1/2+y,z
1/2-x,1/2+y,1/2-z
1/2-x,1/2-y,-z
1/2+x,1/2-y,1/2+z
loop_
_atom_site_type_symbol
_atom_site_label
_atom_site_fract_x
_atom_site_fract_y
_atom_site_fract_z
Si Si1 0.459414 0.673059 0.499523
Si Si2 0.389735 0.581268 0.668899
Si Si3 0.132598 0.117232 0.320175
Si Si4 0.048123 0.460647 0.354063
Si Si5 0.323163 0.199903 0.731874
Si Si6 0.883255 0.372060 0.527046
O O1 0.482607 0.601935 0.578386
O O2 0.564505 0.652177 0.414446
O O3 0.734919 0.700598 0.288675
O O4 0.470482 0.776905 0.530629
O O5 0.500000 0.586412 0.750000
O O6 0.310692 0.483955 0.668654
O O7 0.270511 0.660599 0.684472
O O8 0.209897 0.153949 0.027774
O O9 0.000000 0.106870 0.250000
O O10 0.173146 0.380699 0.341397
O O11 0.096091 0.556459 0.393211
O O12 0.000000 0.471349 0.250000
O O13 0.938055 0.420701 0.433549
O O14 0.500000 0.211365 0.750000
#
# Coordination Sequence:
#
# PCOD9275563 Si02
#       6
#     8   8   8   8   8   8
#     4  11  22  42  66  95 135 177 228 270 327 412
#     4  11  26  43  67 102 136 172 224 285 343 386
#     4  10  23  42  67  94 130 181 222 271 339 403
#     4  10  20  39  63 100 137 169 221 283 330 378
#     4  10  21  42  71  95 127 178 228 268 323 411
#     4  10  23  36  68 103 127 177 231 271 325 405
#
# _framework density 24.277885999999999
#
# number of rings (size 3 to 8) (size 9 to 14) (size 15 to 20)
#    0.000    1.667    1.667    2.500   11.667    0.667 
#    0.000    6.667    0.000    0.000    0.000    0.000 
#    0.000    0.000    0.000    0.000    0.000    0.000 
#
# Total GULP energy -134127.937286 kJ/mol
# GULP energy per Si atom -5588.664054 kJ/mol
# Density = 2.422263 g / cm^3
# Si number density = 24.277886 Si / 1000 Ang^3
#
#
#
# Elastic Constant Matrix: (Units=GPa)
#
#
# Indices 1 2 3 4 5 6 
#
# 1 19.7922 20.0518 -4.3136 0.0000 -0.2366 0.0000
# 2 20.0518 202.2166 59.6369 0.0000 15.9750 0.0000
# 3 -4.3136 59.6369 91.4178 0.0000 13.8742 0.0000
# 4 0.0000 0.0000 0.0000 40.2730 0.0000 -0.3101
# 5 -0.2366 15.9750 13.8742 0.0000 26.4552 0.0000
# 6 0.0000 0.0000 0.0000 -0.3101 0.0000 19.1431
#
#
#
# Elastic Compliance Matrix: (Units=1/GPa)
#
#
# Indices 1 2 3 4 5 6 
#
# 1 0.061070 -0.008610 0.008286 0.000000 0.001400 0.000000
# 2 -0.008610 0.007412 -0.004944 0.000000 -0.001960 0.000000
# 3 0.008286 -0.004944 0.015309 0.000000 -0.004969 0.000000
# 4 0.000000 0.000000 0.000000 0.024834 0.000000 0.000402
# 5 0.001400 -0.001960 -0.004969 0.000000 0.041602 0.000000
# 6 0.000000 0.000000 0.000000 0.000402 0.000000 0.052245
#
#
# Mechanical properties :
#
#
# Convention : Reuss Voigt Hill
#
# Bulk Modulus (GPa) = 13.65087 51.57520 32.61303
# Shear Modulus (GPa) = 21.05919 33.04435 27.05177
#
# Velocity S-wave (km/s) = 2.94840 3.69330 3.34167
# Velocity P-wave (km/s) = 4.15039 6.28308 5.32460
#
# Compressibility (1/GPa) = 0.07325542
#
# Stress axis : x y z
#
# Youngs Moduli (GPa) = 16.37455 134.91906 65.32024
#
# Poissons Ratio (x) = 1.16165 -0.54124
# Poissons Ratio (y) = 0.14098 0.32294
# Poissons Ratio (z) = -0.13568 0.66704
#
# Static dielectric constant tensor:
#      x y z
#    x 1.997170 0.000000 0.017690 
#    y 0.000000 1.976080 0.000000 
#    z 0.017690 0.000000 1.941210 
# 
# From -- ./inp_files/144090.got.cif
#   From: 2010.05.17/outbox.cif.g08.bks.cpg/sg15_73_cif.got.tgz:144090.got - 2010.06.03 18:47:42.
