data_PCOD9275916
_publ_section_title
;
Structure prediction by ZEFSAII (Michael W. Deem and Ramdas Pophale) SiO2 
 PCOD9275916
Probable space group: C 2/C
;
_chemical_formula_sum "Si O2"
_cell_formula_units_Z 40
_cell_length_a 16.041379
_cell_length_b 7.475046
_cell_length_c 23.124616
_cell_angle_alpha 90.000000
_cell_angle_beta 144.826824
_cell_angle_gamma 90.000000
_cell_volume 1597.313081
_symmetry_space_group_name_H-M "C 2/C"
_symmetry_group_IT_number 15
_symmetry_cell_setting 'monoclinic'
loop_
_space_group_symop_operation_xyz
x,y,z
-x,y,1/2-z
-x,-y,-z
x,-y,1/2+z
1/2+x,1/2+y,z
1/2-x,1/2+y,1/2-z
1/2-x,1/2-y,-z
1/2+x,1/2-y,1/2+z
loop_
_atom_site_type_symbol
_atom_site_label
_atom_site_fract_x
_atom_site_fract_y
_atom_site_fract_z
Si Si1 0.958682 0.374398 0.790205
Si Si2 0.044063 0.041184 0.340301
Si Si3 0.692988 0.454772 0.708571
Si Si4 0.415861 0.808103 0.918053
Si Si5 0.377336 0.055646 0.517120
O O1 0.000000 0.432066 0.750000
O O2 0.019002 0.173340 0.830558
O O3 0.790855 0.364822 0.714241
O O4 0.032847 0.517571 0.874291
O O5 0.945215 0.120822 0.335384
O O6 0.000000 0.095019 0.250000
O O7 0.212509 0.073816 0.441763
O O8 0.636686 0.631394 0.644180
O O9 0.808061 0.457222 0.827798
O O10 0.403821 0.804218 0.980024
O O11 0.575719 0.871679 0.990594
#
# Coordination Sequence:
#
# PCOD9275916 Si02
#       5
#     8   8   8   8   8
#     4  10  23  41  63  89 131 166 213 269 314 365
#     4  11  20  36  68  95 122 169 218 256 312 383
#     4  11  20  41  61  97 125 170 207 262 321 369
#     4  10  22  38  68  93 131 167 210 265 316 386
#     4  10  20  39  65  97 122 168 224 254 312 389
#
# _framework density 25.042054
#
# number of rings (size 3 to 8) (size 9 to 14) (size 15 to 20)
#    0.000    1.600    6.000    0.600    0.000    0.000 
#    3.600    2.000    8.800    0.000    0.000    0.000 
#    0.000    0.000    0.000    0.000    0.000    0.000 
#
# Total GULP energy -111600.779640 kJ/mol
# GULP energy per Si atom -5580.038982 kJ/mol
# Density = 2.498506 g / cm^3
# Si number density = 25.042054 Si / 1000 Ang^3
#
#
#
# Elastic Constant Matrix: (Units=GPa)
#
#
# Indices 1 2 3 4 5 6 
#
# 1 277.4860 35.0578 79.2441 0.0000 -8.0164 0.0000
# 2 35.0578 69.4805 32.0638 0.0000 -16.2951 0.0001
# 3 79.2441 32.0638 58.6438 0.0000 -13.4444 0.0000
# 4 0.0000 0.0000 0.0000 27.3262 0.0000 -15.3024
# 5 -8.0164 -16.2951 -13.4444 0.0000 63.1565 0.0000
# 6 0.0000 0.0001 0.0000 -15.3024 0.0000 23.9351
#
#
#
# Elastic Compliance Matrix: (Units=1/GPa)
#
#
# Indices 1 2 3 4 5 6 
#
# 1 0.005960 0.000796 -0.008692 0.000000 -0.000889 0.000000
# 2 0.000796 0.019862 -0.011288 0.000000 0.002823 0.000000
# 3 -0.008692 -0.011288 0.035796 0.000000 0.003604 0.000000
# 4 0.000000 0.000000 0.000000 0.057003 0.000000 0.036444
# 5 -0.000889 0.002823 0.003604 0.000000 0.017216 0.000000
# 6 0.000000 0.000000 0.000000 0.036444 0.000000 0.065079
#
#
# Mechanical properties :
#
#
# Convention : Reuss Voigt Hill
#
# Bulk Modulus (GPa) = 43.01252 77.59353 60.30303
# Shear Modulus (GPa) = 20.24005 40.16653 30.20329
#
# Velocity S-wave (km/s) = 2.84604 4.00930 3.47667
# Velocity P-wave (km/s) = 5.29277 7.24466 6.34423
#
# Compressibility (1/GPa) = 0.02324905
#
# Stress axis : x y z
#
# Youngs Moduli (GPa) = 167.78773 50.34702 27.93626
#
# Poissons Ratio (x) = -0.04006 0.24283
# Poissons Ratio (y) = -0.13351 0.31534
# Poissons Ratio (z) = 1.45846 0.56831
#
# Static dielectric constant tensor:
#      x y z
#    x 2.003440 0.000000 0.007740 
#    y 0.000000 2.084950 0.000000 
#    z 0.007740 0.000000 1.991220 
# 
# From -- ./inp_files/272952.got.cif
#   From: 2010.05.17/outbox.cif.g08.bks.cpg/sg15_137_cif.got.tgz:272952.got - 2010.06.03 18:47:42.
