data_PCOD9275383
_publ_section_title
;
Structure prediction by ZEFSAII (Michael W. Deem and Ramdas Pophale) SiO2 
 PCOD9275383
Probable space group: C 2/C
;
_chemical_formula_sum "Si O2"
_cell_formula_units_Z 44
_cell_length_a 12.635595
_cell_length_b 27.783780
_cell_length_c 6.600695
_cell_angle_alpha 90.000000
_cell_angle_beta 52.746803
_cell_angle_gamma 90.000000
_cell_volume 1844.473528
_symmetry_space_group_name_H-M "C 2/C"
_symmetry_group_IT_number 15
_symmetry_cell_setting 'monoclinic'
loop_
_space_group_symop_operation_xyz
x,y,z
-x,y,1/2-z
-x,-y,-z
x,-y,1/2+z
1/2+x,1/2+y,z
1/2-x,1/2+y,1/2-z
1/2-x,1/2-y,-z
1/2+x,1/2-y,1/2+z
loop_
_atom_site_type_symbol
_atom_site_label
_atom_site_fract_x
_atom_site_fract_y
_atom_site_fract_z
Si Si1 0.106248 0.057586 0.428275
Si Si2 0.317118 0.545930 0.624277
Si Si3 0.307293 0.341299 0.701770
Si Si4 0.000000 0.218756 0.250000
Si Si5 0.073333 0.707794 0.351253
Si Si6 0.892974 0.619864 0.724114
O O1 0.147988 0.109645 0.453792
O O2 0.946161 0.049521 0.622885
O O3 0.197821 0.011811 0.378145
O O4 0.134054 0.061717 0.153930
O O5 0.190736 0.580485 0.806708
O O6 0.425461 0.313586 0.673032
O O7 0.220323 0.311664 0.642996
O O8 0.207506 0.353520 0.004871
O O9 0.910707 0.255493 0.482114
O O10 0.000000 0.732410 0.250000
O O11 0.976298 0.661874 0.514647
O O12 0.000000 0.594460 0.750000
#
# Coordination Sequence:
#
# PCOD9275383 Si02
#       6
#     8   8   8   4   8   8
#     4   9  18  33  57  85 113 152 195 236 290 352
#     4   9  17  32  55  82 114 151 191 239 287 348
#     4  10  20  39  61  84 116 163 200 237 305 353
#     4  12  22  42  66  82 118 166 194 254 302 342
#     4  11  24  39  60  89 120 152 201 250 296 356
#     4   9  18  37  57  82 117 157 193 236 295 360
#
# _framework density 23.855046000000002
#
# number of rings (size 3 to 8) (size 9 to 14) (size 15 to 20)
#    0.000    2.182    2.727    2.727    0.000    2.182 
#    0.000    9.091    8.000    0.000    0.000    0.000 
#    0.000    0.000    0.000    0.000    0.000    0.000 
#
# Total GULP energy -122763.527728 kJ/mol
# GULP energy per Si atom -5580.160351 kJ/mol
# Density = 2.380075 g / cm^3
# Si number density = 23.855046 Si / 1000 Ang^3
#
#
#
# Elastic Constant Matrix: (Units=GPa)
#
#
# Indices 1 2 3 4 5 6 
#
# 1 97.2605 40.6035 -9.9361 0.0000 -14.4732 0.0000
# 2 40.6035 119.5081 13.4049 0.0000 -19.9953 0.0000
# 3 -9.9361 13.4049 26.7933 0.0000 -8.8920 0.0000
# 4 0.0000 0.0000 0.0000 27.1782 0.0000 -5.9119
# 5 -14.4732 -19.9953 -8.8920 0.0000 25.5946 0.0000
# 6 0.0000 0.0000 0.0000 -5.9119 0.0000 53.9155
#
#
#
# Elastic Compliance Matrix: (Units=1/GPa)
#
#
# Indices 1 2 3 4 5 6 
#
# 1 0.014551 -0.004755 0.010482 0.000000 0.008155 0.000000
# 2 -0.004755 0.011346 -0.006093 0.000000 0.004058 0.000000
# 3 0.010482 -0.006093 0.050464 0.000000 0.018699 0.000000
# 4 0.000000 0.000000 0.000000 0.037693 0.000000 0.004133
# 5 0.008155 0.004058 0.018699 0.000000 0.053349 0.000000
# 6 0.000000 0.000000 0.000000 0.004133 0.000000 0.019001
#
#
# Mechanical properties :
#
#
# Convention : Reuss Voigt Hill
#
# Bulk Modulus (GPa) = 13.22267 36.85628 25.03948
# Shear Modulus (GPa) = 23.54657 34.63698 29.09178
#
# Velocity S-wave (km/s) = 3.14517 3.81462 3.49596
# Velocity P-wave (km/s) = 4.32949 5.90638 5.17831
#
# Compressibility (1/GPa) = 0.07562768
#
# Stress axis : x y z
#
# Youngs Moduli (GPa) = 68.72338 88.14040 19.81613
#
# Poissons Ratio (x) = 0.41911 -0.20770
# Poissons Ratio (y) = 0.32678 0.12074
# Poissons Ratio (z) = -0.72033 0.53704
#
# Static dielectric constant tensor:
#      x y z
#    x 1.976360 0.000000 0.047980 
#    y 0.000000 1.901060 0.000000 
#    z 0.047980 0.000000 1.970560 
# 
# From -- ./inp_files/35059.got.cif
#   From: 2010.05.17/outbox.cif.g08.bks.cpg/sg15_18_cif.got.tgz:35059.got - 2010.06.03 18:47:42.
