data_PCOD9275050
_publ_section_title
;
Structure prediction by ZEFSAII (Michael W. Deem and Ramdas Pophale) SiO2 
 PCOD9275050
Probable space group: C 2/C
;
_chemical_formula_sum "Si O2"
_cell_formula_units_Z 52
_cell_length_a 10.461401
_cell_length_b 25.132674
_cell_length_c 12.375024
_cell_angle_alpha 90.000000
_cell_angle_beta 130.015571
_cell_angle_gamma 90.000000
_cell_volume 2491.893636
_symmetry_space_group_name_H-M "C 2/C"
_symmetry_group_IT_number 15
_symmetry_cell_setting 'monoclinic'
loop_
_space_group_symop_operation_xyz
x,y,z
-x,y,1/2-z
-x,-y,-z
x,-y,1/2+z
1/2+x,1/2+y,z
1/2-x,1/2+y,1/2-z
1/2-x,1/2-y,-z
1/2+x,1/2-y,1/2+z
loop_
_atom_site_type_symbol
_atom_site_label
_atom_site_fract_x
_atom_site_fract_y
_atom_site_fract_z
Si Si1 0.976444 0.277900 0.106442
Si Si2 0.734005 0.547276 0.086077
Si Si3 0.160977 0.071041 0.597407
Si Si4 0.638692 0.663690 0.415668
Si Si5 0.193823 0.696561 0.527942
Si Si6 0.000000 0.369537 0.750000
Si Si7 0.182359 0.909966 0.345980
O O1 0.940146 0.215333 0.067949
O O2 0.000000 0.284917 0.250000
O O3 0.817499 0.311795 0.978437
O O4 0.130067 0.292348 0.113959
O O5 0.745474 0.485775 0.121363
O O6 0.850842 0.590958 0.205715
O O7 0.539716 0.562367 0.999229
O O8 0.783667 0.555833 0.987108
O O9 0.177820 0.114247 0.513298
O O10 0.234612 0.091258 0.751059
O O11 0.500000 0.649514 0.250000
O O12 0.250000 0.750000 0.500000
O O13 0.054954 0.668427 0.377593
O O14 0.327815 0.649186 0.610492
O O15 0.000000 0.935562 0.250000
#
# Coordination Sequence:
#
# PCOD9275050 Si02
#       7
#     8   8   8   8   8   4   8
#     4  10  23  43  61  93 139 172 219 275 340 407
#     4   9  21  40  59  92 125 164 212 277 327 388
#     4  10  20  38  68  84 122 174 219 265 328 396
#     4  10  23  38  62  93 127 172 219 277 324 402
#     4  11  25  39  67  97 128 175 215 271 340 406
#     4  10  24  42  60 100 134 160 220 282 330 398
#     4   9  20  39  58  91 122 158 215 267 318 398
#
# _framework density 20.867663
#
# number of rings (size 3 to 8) (size 9 to 14) (size 15 to 20)
#    0.000    2.154    0.000    0.923    9.692    5.538 
#    4.154    1.538    0.000    0.000    0.000    0.000 
#    0.000    0.000    0.000    0.000    0.000    0.000 
#
# Total GULP energy -144875.798112 kJ/mol
# GULP energy per Si atom -5572.146081 kJ/mol
# Density = 2.082017 g / cm^3
# Si number density = 20.867663 Si / 1000 Ang^3
#
#
#
# Elastic Constant Matrix: (Units=GPa)
#
#
# Indices 1 2 3 4 5 6 
#
# 1 38.2742 30.1586 15.5958 0.0000 -9.4390 0.0000
# 2 30.1586 145.6706 53.6526 0.0000 -18.5787 0.0000
# 3 15.5958 53.6526 93.7172 0.0000 -10.9757 0.0000
# 4 0.0000 0.0000 0.0000 27.7531 0.0000 6.2354
# 5 -9.4390 -18.5787 -10.9757 0.0000 22.8915 0.0000
# 6 0.0000 0.0000 0.0000 6.2354 0.0000 10.2842
#
#
#
# Elastic Compliance Matrix: (Units=1/GPa)
#
#
# Indices 1 2 3 4 5 6 
#
# 1 0.032947 -0.005157 -0.001515 0.000000 0.008674 0.000000
# 2 -0.005157 0.010070 -0.004449 0.000000 0.003913 0.000000
# 3 -0.001515 -0.004449 0.013745 0.000000 0.002355 0.000000
# 4 0.000000 0.000000 0.000000 0.041714 0.000000 -0.025291
# 5 0.008674 0.003913 0.002355 0.000000 0.051566 0.000000
# 6 0.000000 0.000000 0.000000 -0.025291 0.000000 0.112570
#
#
# Mechanical properties :
#
#
# Convention : Reuss Voigt Hill
#
# Bulk Modulus (GPa) = 28.96725 52.94177 40.95451
# Shear Modulus (GPa) = 16.87134 24.06945 20.47039
#
# Velocity S-wave (km/s) = 2.84648 3.39991 3.13543
# Velocity P-wave (km/s) = 4.97140 6.39045 5.72506
#
# Compressibility (1/GPa) = 0.03452174
#
# Stress axis : x y z
#
# Youngs Moduli (GPa) = 30.35177 99.30445 72.75339
#
# Poissons Ratio (x) = 0.51211 0.11020
# Poissons Ratio (y) = 0.15652 0.32364
# Poissons Ratio (z) = 0.04597 0.44176
#
# Static dielectric constant tensor:
#      x y z
#    x 1.774410 0.000000 -0.002670 
#    y 0.000000 1.719750 0.000000 
#    z -0.002670 0.000000 1.812410 
# 
# From -- ./inp_files/91330.got.cif
#   From: 2010.05.17/outbox.cif.g08.bks.cpg/sg15_46_cif.got.tgz:91330.got - 2010.06.03 18:47:42.
