data_PCOD9275648
_publ_section_title
;
Structure prediction by ZEFSAII (Michael W. Deem and Ramdas Pophale) SiO2 
 PCOD9275648
Probable space group: C 2/C
;
_chemical_formula_sum "Si O2"
_cell_formula_units_Z 40
_cell_length_a 20.536281
_cell_length_b 8.980879
_cell_length_c 14.690874
_cell_angle_alpha 90.000000
_cell_angle_beta 137.114828
_cell_angle_gamma 90.000000
_cell_volume 1843.895737
_symmetry_space_group_name_H-M "C 2/C"
_symmetry_group_IT_number 15
_symmetry_cell_setting 'monoclinic'
loop_
_space_group_symop_operation_xyz
x,y,z
-x,y,1/2-z
-x,-y,-z
x,-y,1/2+z
1/2+x,1/2+y,z
1/2-x,1/2+y,1/2-z
1/2-x,1/2-y,-z
1/2+x,1/2-y,1/2+z
loop_
_atom_site_type_symbol
_atom_site_label
_atom_site_fract_x
_atom_site_fract_y
_atom_site_fract_z
Si Si1 0.282579 0.895323 0.087634
Si Si2 0.662858 0.835061 0.965034
Si Si3 0.387705 0.468690 0.357760
Si Si4 0.781291 0.279778 0.277136
Si Si5 0.402551 0.453996 0.156408
O O1 0.320837 0.854040 0.225474
O O2 0.347605 0.008005 0.096006
O O3 0.250000 0.750000 0.000000
O O4 0.180775 0.977751 0.988940
O O5 0.583989 0.709235 0.872609
O O6 0.750000 0.750000 0.000000
O O7 0.682950 0.850777 0.091941
O O8 0.500000 0.500000 0.500000
O O9 0.332867 0.320268 0.339194
O O10 0.320286 0.610514 0.314823
O O11 0.380587 0.452583 0.240815
O O12 0.500000 0.544540 0.250000
#
# Coordination Sequence:
#
# PCOD9275648 Si02
#       5
#     8   8   8   8   8
#     4  11  21  38  64  97 130 170 219 277 341 397
#     4  10  20  39  63  91 129 177 220 266 345 405
#     4  12  25  43  72 105 135 182 235 281 346 412
#     4  12  22  42  71 100 140 178 227 290 341 408
#     4  11  22  42  66  94 136 179 229 279 332 414
#
# _framework density 21.693200999999998
#
# number of rings (size 3 to 8) (size 9 to 14) (size 15 to 20)
#    0.000    0.800    6.000    4.800    0.000    0.000 
#    0.000    2.000    4.400    0.000    0.000    0.000 
#    0.000    0.000    0.000    0.000    0.000    0.000 
#
# Total GULP energy -111368.995415 kJ/mol
# GULP energy per Si atom -5568.449771 kJ/mol
# Density = 2.164383 g / cm^3
# Si number density = 21.693201 Si / 1000 Ang^3
#
#
#
# Elastic Constant Matrix: (Units=GPa)
#
#
# Indices 1 2 3 4 5 6 
#
# 1 57.0675 31.6326 36.3252 0.0000 -25.5228 0.0000
# 2 31.6326 118.1472 40.8118 0.0000 -7.7647 0.0000
# 3 36.3252 40.8118 128.6676 0.0000 -25.9040 0.0000
# 4 0.0000 0.0000 0.0000 30.9159 0.0000 -15.5077
# 5 -25.5228 -7.7647 -25.9040 0.0000 66.4471 0.0000
# 6 0.0000 0.0000 0.0000 -15.5077 0.0000 24.9447
#
#
#
# Elastic Compliance Matrix: (Units=1/GPa)
#
#
# Indices 1 2 3 4 5 6 
#
# 1 0.026666 -0.005132 -0.004296 0.000000 0.007968 0.000000
# 2 -0.005132 0.010493 -0.002202 0.000000 -0.001604 0.000000
# 3 -0.004296 -0.002202 0.010091 0.000000 0.002026 0.000000
# 4 0.000000 0.000000 0.000000 0.047004 0.000000 0.029221
# 5 0.007968 -0.001604 0.002026 0.000000 0.018713 0.000000
# 6 0.000000 0.000000 0.000000 0.029221 0.000000 0.058255
#
#
# Mechanical properties :
#
#
# Convention : Reuss Voigt Hill
#
# Bulk Modulus (GPa) = 41.68454 57.93573 49.81013
# Shear Modulus (GPa) = 24.69378 37.46905 31.08142
#
# Velocity S-wave (km/s) = 3.37756 4.16050 3.78930
# Velocity P-wave (km/s) = 5.87092 7.06006 6.49277
#
# Compressibility (1/GPa) = 0.02398971
#
# Stress axis : x y z
#
# Youngs Moduli (GPa) = 37.50089 95.29813 99.09354
#
# Poissons Ratio (x) = 0.48905 0.42575
# Poissons Ratio (y) = 0.19244 0.21825
# Poissons Ratio (z) = 0.16112 0.20989
#
# Static dielectric constant tensor:
#      x y z
#    x 1.973690 0.000000 0.052300 
#    y 0.000000 1.951380 0.000000 
#    z 0.052300 0.000000 1.808190 
# 
# From -- ./inp_files/171657.got.cif
#   From: 2010.05.17/outbox.cif.g08.bks.cpg/sg15_86_cif.got.tgz:171657.got - 2010.06.03 18:47:42.
