data_PCOD9275845
_publ_section_title
;
Structure prediction by ZEFSAII (Michael W. Deem and Ramdas Pophale) SiO2 
 PCOD9275845
Probable space group: C 2/C
;
_chemical_formula_sum "Si O2"
_cell_formula_units_Z 48
_cell_length_a 17.813575
_cell_length_b 30.034967
_cell_length_c 9.354205
_cell_angle_alpha 90.000000
_cell_angle_beta 30.288741
_cell_angle_gamma 90.000000
_cell_volume 2524.201386
_symmetry_space_group_name_H-M "C 2/C"
_symmetry_group_IT_number 15
_symmetry_cell_setting 'monoclinic'
loop_
_space_group_symop_operation_xyz
x,y,z
-x,y,1/2-z
-x,-y,-z
x,-y,1/2+z
1/2+x,1/2+y,z
1/2-x,1/2+y,1/2-z
1/2-x,1/2-y,-z
1/2+x,1/2-y,1/2+z
loop_
_atom_site_type_symbol
_atom_site_label
_atom_site_fract_x
_atom_site_fract_y
_atom_site_fract_z
Si Si1 0.595634 0.720405 0.443511
Si Si2 0.073128 0.961279 0.785425
Si Si3 0.069121 0.460064 0.295941
Si Si4 0.854122 0.274106 0.710105
Si Si5 0.416516 0.129077 0.030565
Si Si6 0.595513 0.618143 0.449789
O O1 0.762689 0.732600 0.214412
O O2 0.513684 0.751746 0.466775
O O3 0.592044 0.669078 0.404395
O O4 0.500000 0.722371 0.750000
O O5 0.252742 0.964834 0.488341
O O6 0.041488 0.915062 0.918129
O O7 0.000000 0.962587 0.750000
O O8 0.000000 0.000000 0.000000
O O9 0.000000 0.463463 0.250000
O O10 0.000000 0.500000 0.500000
O O11 0.015057 0.410571 0.434893
O O12 0.873525 0.327579 0.694033
O O13 0.750000 0.250000 0.000000
O O14 0.263433 0.108043 0.223978
O O15 0.500000 0.145761 0.750000
O O16 0.500000 0.614149 0.750000
#
# Coordination Sequence:
#
# PCOD9275845 Si02
#       6
#     8   8   8   8   8   8
#     4   8  16  32  56  82 113 150 201 248 298 369
#     4  12  25  41  63  95 127 160 212 270 322 382
#     4  11  23  44  65  91 126 169 215 261 323 390
#     4   9  17  34  57  87 116 158 204 250 306 376
#     4  10  20  40  66  85 124 171 214 257 325 389
#     4  10  20  39  65  90 122 172 211 254 323 390
#
# _framework density 19.015916000000001
#
# number of rings (size 3 to 8) (size 9 to 14) (size 15 to 20)
#    0.000    2.000    3.333    2.500    2.333    0.000 
#    3.000    6.667    0.000    0.000    0.000    0.000 
#    0.000    0.000    0.000    0.000    0.000    0.000 
#
# Total GULP energy -133789.741684 kJ/mol
# GULP energy per Si atom -5574.572570 kJ/mol
# Density = 1.897263 g / cm^3
# Si number density = 19.015916 Si / 1000 Ang^3
#
#
#
# Elastic Constant Matrix: (Units=GPa)
#
#
# Indices 1 2 3 4 5 6 
#
# 1 147.5605 85.7112 46.0252 0.0000 -26.1389 0.0000
# 2 85.7112 139.0778 39.7123 0.0000 -4.6981 0.0000
# 3 46.0252 39.7123 69.3685 -0.0001 -14.8207 0.0000
# 4 0.0000 0.0000 -0.0001 30.3456 0.0000 -2.6028
# 5 -26.1389 -4.6981 -14.8207 0.0000 34.4126 0.0000
# 6 0.0000 0.0000 0.0000 -2.6028 0.0000 30.3405
#
#
#
# Elastic Compliance Matrix: (Units=1/GPa)
#
#
# Indices 1 2 3 4 5 6 
#
# 1 0.013150 -0.006960 -0.003094 0.000000 0.007705 0.000000
# 2 -0.006960 0.012313 -0.003526 0.000000 -0.005124 0.000000
# 3 -0.003094 -0.003526 0.019694 0.000000 0.005651 0.000000
# 4 0.000000 0.000000 0.000000 0.033198 0.000000 0.002848
# 5 0.007705 -0.005124 0.005651 0.000000 0.036646 0.000000
# 6 0.000000 0.000000 0.000000 0.002848 0.000000 0.033204
#
#
# Mechanical properties :
#
#
# Convention : Reuss Voigt Hill
#
# Bulk Modulus (GPa) = 55.56370 77.65604 66.60987
# Shear Modulus (GPa) = 27.56888 31.32361 29.44625
#
# Velocity S-wave (km/s) = 3.81173 4.06301 3.93937
# Velocity P-wave (km/s) = 6.97534 7.93327 7.46968
#
# Compressibility (1/GPa) = 0.01799736
#
# Stress axis : x y z
#
# Youngs Moduli (GPa) = 76.04746 81.21229 50.77625
#
# Poissons Ratio (x) = 0.56526 0.15709
# Poissons Ratio (y) = 0.52931 0.17904
# Poissons Ratio (z) = 0.23527 0.28635
#
# Static dielectric constant tensor:
#      x y z
#    x 1.651650 0.000000 -0.008030 
#    y 0.000000 1.677360 0.000000 
#    z -0.008030 0.000000 1.744150 
# 
# From -- ./inp_files/52733.got.cif
#   From: 2010.05.17/outbox.cif.g08.bks.cpg/sg15_27_cif.got.tgz:52733.got - 2010.06.03 18:47:42.
