data_PCOD9275468
_publ_section_title
;
Structure prediction by ZEFSAII (Michael W. Deem and Ramdas Pophale) SiO2 
 PCOD9275468
Probable space group: C 2/C
;
_chemical_formula_sum "Si O2"
_cell_formula_units_Z 60
_cell_length_a 8.552388
_cell_length_b 30.633816
_cell_length_c 11.495025
_cell_angle_alpha 90.000000
_cell_angle_beta 83.509590
_cell_angle_gamma 90.000000
_cell_volume 2992.305784
_symmetry_space_group_name_H-M "C 2/C"
_symmetry_group_IT_number 15
_symmetry_cell_setting 'monoclinic'
loop_
_space_group_symop_operation_xyz
x,y,z
-x,y,1/2-z
-x,-y,-z
x,-y,1/2+z
1/2+x,1/2+y,z
1/2-x,1/2+y,1/2-z
1/2-x,1/2-y,-z
1/2+x,1/2-y,1/2+z
loop_
_atom_site_type_symbol
_atom_site_label
_atom_site_fract_x
_atom_site_fract_y
_atom_site_fract_z
Si Si1 0.357809 0.693309 0.530776
Si Si2 0.262643 0.988460 0.509157
Si Si3 0.500000 0.330985 0.250000
Si Si4 0.445402 0.360588 0.629976
Si Si5 0.439130 0.538394 0.137403
Si Si6 0.049428 0.438668 0.381753
Si Si7 0.276631 0.149442 0.560765
Si Si8 0.013809 0.276361 0.109342
O O1 0.414644 0.696669 0.658175
O O2 0.407526 0.647787 0.468694
O O3 0.172720 0.699938 0.551300
O O4 0.457102 0.728716 0.448409
O O5 0.397345 0.954386 0.466974
O O6 0.095734 0.965681 0.546665
O O7 0.216756 0.017737 0.401861
O O8 0.324497 0.022452 0.601857
O O9 0.366186 0.356131 0.333864
O O10 0.500000 0.341314 0.750000
O O11 0.408306 0.410830 0.657064
O O12 0.298479 0.346145 0.561651
O O13 0.500000 0.516725 0.250000
O O14 0.115546 0.392923 0.425722
O O15 0.000000 0.434961 0.250000
O O16 0.368775 0.194143 0.579929
O O17 0.000000 0.273811 0.250000
#
# Coordination Sequence:
#
# PCOD9275468 Si02
#       8
#     8   8   4   8   8   8   8   8
#     4  10  23  41  64  95 126 165 209 254 310 375
#     4  10  22  39  59  88 123 158 205 255 312 372
#     4  10  22  40  62  94 128 168 206 258 308 366
#     4  10  22  41  63  87 124 165 211 257 311 372
#     4  10  20  39  62  86 118 161 205 255 308 367
#     4  11  23  38  60  92 123 160 204 257 315 370
#     4  11  23  41  64  94 126 166 208 262 314 371
#     4  11  22  42  66  94 129 162 207 257 315 370
#
# _framework density 20.051425999999999
#
# number of rings (size 3 to 8) (size 9 to 14) (size 15 to 20)
#    0.000    1.600    2.667    1.600    1.867    3.200 
#    6.000    0.000    0.000    0.000    0.000    0.000 
#    0.000    0.000    0.000    0.000    0.000    0.000 
#
# Total GULP energy -167091.835826 kJ/mol
# GULP energy per Si atom -5569.727861 kJ/mol
# Density = 2.000579 g / cm^3
# Si number density = 20.051426 Si / 1000 Ang^3
#
#
#
# Elastic Constant Matrix: (Units=GPa)
#
#
# Indices 1 2 3 4 5 6 
#
# 1 94.0478 33.3938 34.3200 0.0000 12.7483 0.0000
# 2 33.3938 36.0156 24.2552 0.0000 3.5717 0.0000
# 3 34.3200 24.2552 119.2832 0.0000 33.3653 0.0000
# 4 0.0000 0.0000 0.0000 10.1486 0.0000 -0.9666
# 5 12.7483 3.5717 33.3653 0.0000 38.2752 0.0000
# 6 0.0000 0.0000 0.0000 -0.9666 0.0000 11.6271
#
#
#
# Elastic Compliance Matrix: (Units=1/GPa)
#
#
# Indices 1 2 3 4 5 6 
#
# 1 0.016524 -0.014393 -0.000878 0.000000 -0.003395 0.000000
# 2 -0.014393 0.045082 -0.006864 0.000000 0.006570 0.000000
# 3 -0.000878 -0.006864 0.012921 0.000000 -0.010331 0.000000
# 4 0.000000 0.000000 0.000000 0.099322 0.000000 0.008257
# 5 -0.003395 0.006570 -0.010331 0.000000 0.035650 0.000000
# 6 0.000000 0.000000 0.000000 0.008257 0.000000 0.086693
#
#
# Mechanical properties :
#
#
# Convention : Reuss Voigt Hill
#
# Bulk Modulus (GPa) = 33.04905 48.14272 40.59589
# Shear Modulus (GPa) = 14.26338 22.50202 18.38270
#
# Velocity S-wave (km/s) = 2.66999 3.35358 3.03112
# Velocity P-wave (km/s) = 5.10128 6.24957 5.70439
#
# Compressibility (1/GPa) = 0.03025805
#
# Stress axis : x y z
#
# Youngs Moduli (GPa) = 60.51752 22.18173 77.39129
#
# Poissons Ratio (x) = 0.31927 0.06793
# Poissons Ratio (y) = 0.87105 0.53119
# Poissons Ratio (z) = 0.05312 0.15225
#
# Static dielectric constant tensor:
#      x y z
#    x 1.720370 0.000000 0.014680 
#    y 0.000000 1.741620 0.000000 
#    z 0.014680 0.000000 1.761190 
# 
# From -- ./inp_files/82212.got.cif
#   From: 2010.05.17/outbox.cif.g08.bks.cpg/sg15_42_cif.got.tgz:82212.got - 2010.06.03 18:47:42.
