data_PCOD9275871
_publ_section_title
;
Structure prediction by ZEFSAII (Michael W. Deem and Ramdas Pophale) SiO2 
 PCOD9275871
Probable space group: C 2/C
;
_chemical_formula_sum "Si O2"
_cell_formula_units_Z 44
_cell_length_a 5.033013
_cell_length_b 25.605016
_cell_length_c 15.594026
_cell_angle_alpha 90.000000
_cell_angle_beta 78.719966
_cell_angle_gamma 90.000000
_cell_volume 1970.788193
_symmetry_space_group_name_H-M "C 2/C"
_symmetry_group_IT_number 15
_symmetry_cell_setting 'monoclinic'
loop_
_space_group_symop_operation_xyz
x,y,z
-x,y,1/2-z
-x,-y,-z
x,-y,1/2+z
1/2+x,1/2+y,z
1/2-x,1/2+y,1/2-z
1/2-x,1/2-y,-z
1/2+x,1/2-y,1/2+z
loop_
_atom_site_type_symbol
_atom_site_label
_atom_site_fract_x
_atom_site_fract_y
_atom_site_fract_z
Si Si1 0.360744 0.175245 0.118887
Si Si2 0.083575 0.198449 0.485125
Si Si3 0.212527 0.163293 0.658907
Si Si4 0.500000 0.750820 0.250000
Si Si5 0.213813 0.561896 0.313877
Si Si6 0.707337 0.950131 0.314079
O O1 0.685783 0.174140 0.091406
O O2 0.283810 0.114833 0.133059
O O3 0.201165 0.196950 0.045338
O O4 0.239572 0.212848 0.200850
O O5 0.250000 0.250000 0.500000
O O6 0.060936 0.172460 0.579440
O O7 0.406529 0.210630 0.678413
O O8 0.344762 0.106067 0.640231
O O9 0.000000 0.161241 0.750000
O O10 0.500000 0.558329 0.250000
O O11 0.176352 0.505876 0.363540
O O12 0.000000 0.567812 0.250000
O O13 0.500000 0.953394 0.250000
O O14 0.000000 0.948127 0.250000
#
# Coordination Sequence:
#
# PCOD9275871 Si02
#       6
#     8   8   8   4   8   8
#     4  12  26  41  63  97 128 167 206 262 318 376
#     4  12  26  43  60  92 137 163 204 263 326 367
#     4  11  24  41  66  92 124 170 217 256 314 384
#     4  12  24  38  70  92 128 162 224 250 310 394
#     4  10  20  39  65  92 126 165 214 260 308 373
#     4   9  19  36  62  92 120 160 214 263 304 363
#
# _framework density 22.326091000000002
#
# number of rings (size 3 to 8) (size 9 to 14) (size 15 to 20)
#    0.000    1.091    3.636    2.727    2.545    0.000 
#    0.000    1.818    0.000    0.000    0.000    0.000 
#    0.000    0.000    0.000    0.000    0.000    0.000 
#
# Total GULP energy -122747.178059 kJ/mol
# GULP energy per Si atom -5579.417184 kJ/mol
# Density = 2.227528 g / cm^3
# Si number density = 22.326091 Si / 1000 Ang^3
#
#
#
# Elastic Constant Matrix: (Units=GPa)
#
#
# Indices 1 2 3 4 5 6 
#
# 1 113.4262 -8.1802 10.4272 0.0000 8.5269 0.0000
# 2 -8.1802 153.3546 23.1986 0.0000 5.7216 0.0000
# 3 10.4272 23.1986 60.9976 0.0000 9.0248 0.0000
# 4 0.0000 0.0000 0.0000 306.9507 0.0000 21.1560
# 5 8.5269 5.7216 9.0248 0.0000 34.2777 0.0000
# 6 0.0000 0.0000 0.0000 21.1560 0.0000 27.8804
#
#
#
# Elastic Compliance Matrix: (Units=1/GPa)
#
#
# Indices 1 2 3 4 5 6 
#
# 1 0.009169 0.000802 -0.001577 0.000000 -0.002000 0.000000
# 2 0.000802 0.006997 -0.002701 0.000000 -0.000656 0.000000
# 3 -0.001577 -0.002701 0.018278 0.000000 -0.003969 0.000000
# 4 0.000000 0.000000 0.000000 0.003438 0.000000 -0.002609
# 5 -0.002000 -0.000656 -0.003969 0.000000 0.030826 0.000000
# 6 0.000000 0.000000 0.000000 -0.002609 0.000000 0.037847
#
#
# Mechanical properties :
#
#
# Convention : Reuss Voigt Hill
#
# Bulk Modulus (GPa) = 36.37245 42.07438 39.22342
# Shear Modulus (GPa) = 40.75983 93.97728 67.36856
#
# Velocity S-wave (km/s) = 4.27741 6.49495 5.49912
# Velocity P-wave (km/s) = 6.38136 8.66788 7.61098
#
# Compressibility (1/GPa) = 0.02749334
#
# Stress axis : x y z
#
# Youngs Moduli (GPa) = 109.05790 142.92437 54.71014
#
# Poissons Ratio (x) = -0.11466 0.08626
# Poissons Ratio (y) = -0.08749 0.14777
# Poissons Ratio (z) = 0.17195 0.38604
#
# Static dielectric constant tensor:
#      x y z
#    x 1.841410 0.000000 -0.102910 
#    y 0.000000 1.991760 0.000000 
#    z -0.102910 0.000000 1.997750 
# 
# From -- ./inp_files/129377.got.cif
#   From: 2010.05.17/outbox.cif.g08.bks.cpg/sg15_65_cif.got.tgz:129377.got - 2010.06.03 18:47:42.
