data_PCOD9275811
_publ_section_title
;
Structure prediction by ZEFSAII (Michael W. Deem and Ramdas Pophale) SiO2 
 PCOD9275811
Probable space group: C 2/C
;
_chemical_formula_sum "Si O2"
_cell_formula_units_Z 60
_cell_length_a 22.051839
_cell_length_b 9.821399
_cell_length_c 20.986090
_cell_angle_alpha 90.000000
_cell_angle_beta 30.753043
_cell_angle_gamma 90.000000
_cell_volume 2324.119135
_symmetry_space_group_name_H-M "C 2/C"
_symmetry_group_IT_number 15
_symmetry_cell_setting 'monoclinic'
loop_
_space_group_symop_operation_xyz
x,y,z
-x,y,1/2-z
-x,-y,-z
x,-y,1/2+z
1/2+x,1/2+y,z
1/2-x,1/2+y,1/2-z
1/2-x,1/2-y,-z
1/2+x,1/2-y,1/2+z
loop_
_atom_site_type_symbol
_atom_site_label
_atom_site_fract_x
_atom_site_fract_y
_atom_site_fract_z
Si Si1 0.000000 0.365884 0.750000
Si Si2 0.515572 0.209531 0.662026
Si Si3 0.034769 0.144661 0.608398
Si Si4 0.744422 0.415022 0.003363
Si Si5 0.176137 0.212509 0.913281
Si Si6 0.830295 0.053065 0.297813
Si Si7 0.883970 0.473617 0.186521
Si Si8 0.988197 0.713647 0.487420
O O1 0.999850 0.263706 0.689468
O O2 0.123539 0.447116 0.638885
O O3 0.500000 0.190328 0.750000
O O4 0.638175 0.263345 0.520935
O O5 0.418788 0.325506 0.735966
O O6 0.481248 0.080117 0.649593
O O7 0.131674 0.058138 0.560033
O O8 0.087009 0.205924 0.496648
O O9 0.918274 0.062026 0.692004
O O10 0.750000 0.250000 0.000000
O O11 0.724189 0.483422 0.089933
O O12 0.236488 0.359868 0.841676
O O13 0.261034 0.085210 0.824133
O O14 0.059385 0.199810 0.975401
O O15 0.915577 0.627273 0.140507
O O16 0.908086 0.389080 0.099907
#
# Coordination Sequence:
#
# PCOD9275811 Si02
#       8
#     4   8   8   8   8   8   8   8
#     4  10  22  40  60 106 150 174 234 284 362 454
#     4  10  22  44  68  95 136 187 239 295 359 427
#     4  11  21  40  66 109 139 187 233 296 376 431
#     4  10  20  39  64  98 148 176 227 288 365 437
#     4  10  24  45  70 100 136 192 253 294 354 440
#     4  11  22  43  71 100 148 189 231 308 364 428
#     4   9  22  46  62  96 134 182 245 286 358 431
#     4  10  23  42  69  97 142 186 233 312 356 427
#
# _framework density 25.816231999999999
#
# number of rings (size 3 to 8) (size 9 to 14) (size 15 to 20)
#    0.000    1.867    2.667    0.800    1.867    9.600 
#   12.000    2.000    0.000    0.000    0.000    0.000 
#    0.000    0.000    0.000    0.000    0.000    0.000 
#
# Total GULP energy -167831.911914 kJ/mol
# GULP energy per Si atom -5594.397064 kJ/mol
# Density = 2.575747 g / cm^3
# Si number density = 25.816232 Si / 1000 Ang^3
#
#
#
# Elastic Constant Matrix: (Units=GPa)
#
#
# Indices 1 2 3 4 5 6 
#
# 1 70.6925 9.5173 16.3038 0.0000 23.1723 0.0000
# 2 9.5173 66.0724 20.2882 -0.0001 13.0921 0.0001
# 3 16.3038 20.2882 114.9795 0.0000 3.9737 0.0000
# 4 0.0000 -0.0001 0.0000 44.9585 0.0000 -4.8983
# 5 23.1723 13.0921 3.9737 0.0000 39.0179 0.0000
# 6 0.0000 0.0001 0.0000 -4.8983 0.0000 20.0241
#
#
#
# Elastic Compliance Matrix: (Units=1/GPa)
#
#
# Indices 1 2 3 4 5 6 
#
# 1 0.018107 0.000175 -0.002232 0.000000 -0.010585 0.000000
# 2 0.000175 0.017083 -0.002847 0.000000 -0.005546 0.000000
# 3 -0.002232 -0.002847 0.009471 0.000000 0.001317 0.000000
# 4 0.000000 0.000000 0.000000 0.022852 0.000000 0.005590
# 5 -0.010585 -0.005546 0.001317 0.000000 0.033642 0.000000
# 6 0.000000 0.000000 0.000000 0.005590 0.000000 0.051307
#
#
# Mechanical properties :
#
#
# Convention : Reuss Voigt Hill
#
# Bulk Modulus (GPa) = 28.69452 38.21812 33.45632
# Shear Modulus (GPa) = 28.75405 34.50911 31.63158
#
# Velocity S-wave (km/s) = 3.34098 3.66009 3.50417
# Velocity P-wave (km/s) = 5.10117 5.71819 5.41847
#
# Compressibility (1/GPa) = 0.03484986
#
# Stress axis : x y z
#
# Youngs Moduli (GPa) = 55.22827 58.53785 105.58901
#
# Poissons Ratio (x) = -0.01023 0.23573
# Poissons Ratio (y) = -0.00965 0.30066
# Poissons Ratio (z) = 0.12330 0.16668
#
# Static dielectric constant tensor:
#      x y z
#    x 2.068190 0.000000 -0.022080 
#    y 0.000000 2.061540 0.000000 
#    z -0.022080 0.000000 2.090390 
# 
# From -- ./inp_files/255550.got.cif
#   From: 2010.05.17/outbox.cif.g08.bks.cpg/sg15_128_cif.got.tgz:255550.got - 2010.06.03 18:47:42.
