data_PCOD9275971
_publ_section_title
;
Structure prediction by ZEFSAII (Michael W. Deem and Ramdas Pophale) SiO2 
 PCOD9275971
Probable space group: C 2/C
;
_chemical_formula_sum "Si O2"
_cell_formula_units_Z 52
_cell_length_a 18.272495
_cell_length_b 8.046841
_cell_length_c 14.751435
_cell_angle_alpha 90.000000
_cell_angle_beta 103.303358
_cell_angle_gamma 90.000000
_cell_volume 2110.785957
_symmetry_space_group_name_H-M "C 2/C"
_symmetry_group_IT_number 15
_symmetry_cell_setting 'monoclinic'
loop_
_space_group_symop_operation_xyz
x,y,z
-x,y,1/2-z
-x,-y,-z
x,-y,1/2+z
1/2+x,1/2+y,z
1/2-x,1/2+y,1/2-z
1/2-x,1/2-y,-z
1/2+x,1/2-y,1/2+z
loop_
_atom_site_type_symbol
_atom_site_label
_atom_site_fract_x
_atom_site_fract_y
_atom_site_fract_z
Si Si1 0.313140 0.890873 0.025611
Si Si2 0.542539 0.602720 0.935647
Si Si3 0.815673 0.421008 0.697780
Si Si4 0.905371 0.289238 0.882931
Si Si5 0.150344 0.063649 0.222257
Si Si6 0.308729 0.401115 0.083753
Si Si7 0.000000 0.894634 0.750000
O O1 0.377808 0.832573 0.976039
O O2 0.273218 0.060218 0.977816
O O3 0.250000 0.750000 0.000000
O O4 0.329187 0.924070 0.135484
O O5 0.495769 0.772477 0.910568
O O6 0.630817 0.592627 0.979903
O O7 0.535520 0.509302 0.837967
O O8 0.500000 0.500000 0.000000
O O9 0.866258 0.416471 0.802046
O O10 0.727479 0.388873 0.694214
O O11 0.835096 0.263097 0.642642
O O12 0.876470 0.109418 0.834826
O O13 0.074139 0.172702 0.217097
O O14 0.182269 0.032003 0.332330
#
# Coordination Sequence:
#
# PCOD9275971 Si02
#       7
#     8   8   8   8   8   8   4
#     4  12  22  37  62  98 131 171 225 279 328 398
#     4  10  20  39  66  93 128 179 223 273 331 396
#     4  11  22  37  63  94 135 176 215 278 348 386
#     4  10  21  39  63  96 131 172 221 280 327 392
#     4   9  17  36  59  91 123 172 210 276 332 381
#     4  10  22  38  60  97 127 169 231 270 327 412
#     4   8  18  32  56  90 126 160 230 268 312 404
#
# _framework density 24.635372
#
# number of rings (size 3 to 8) (size 9 to 14) (size 15 to 20)
#    0.000    1.846    3.077    2.308    2.154    0.000 
#    0.000    0.769    0.000    0.000    8.000    2.154 
#    0.000    0.000    0.000    0.000    0.000    0.000 
#
# Total GULP energy -144943.059764 kJ/mol
# GULP energy per Si atom -5574.733068 kJ/mol
# Density = 2.457930 g / cm^3
# Si number density = 24.635372 Si / 1000 Ang^3
#
#
#
# Elastic Constant Matrix: (Units=GPa)
#
#
# Indices 1 2 3 4 5 6 
#
# 1 91.9465 6.7734 47.7154 0.0000 -21.6735 0.0000
# 2 6.7734 45.0290 12.7922 0.0000 -3.8056 0.0000
# 3 47.7154 12.7922 99.7000 0.0000 -10.9163 0.0000
# 4 0.0000 0.0000 0.0000 32.3547 0.0000 4.2342
# 5 -21.6735 -3.8056 -10.9163 0.0000 42.9124 0.0000
# 6 0.0000 0.0000 0.0000 4.2342 0.0000 26.6209
#
#
#
# Elastic Compliance Matrix: (Units=1/GPa)
#
#
# Indices 1 2 3 4 5 6 
#
# 1 0.015969 0.000110 -0.006966 0.000000 0.006303 0.000000
# 2 0.000110 0.023123 -0.002869 0.000000 0.001376 0.000000
# 3 -0.006966 -0.002869 0.013701 0.000000 -0.000288 0.000000
# 4 0.000000 0.000000 0.000000 0.031564 0.000000 -0.005020
# 5 0.006303 0.001376 -0.000288 0.000000 0.026535 0.000000
# 6 0.000000 0.000000 0.000000 -0.005020 0.000000 0.038363
#
#
# Mechanical properties :
#
#
# Convention : Reuss Voigt Hill
#
# Bulk Modulus (GPa) = 29.99271 41.24860 35.62066
# Shear Modulus (GPa) = 27.80566 31.67056 29.73811
#
# Velocity S-wave (km/s) = 3.36324 3.58938 3.47815
# Velocity P-wave (km/s) = 5.22331 5.82736 5.53358
#
# Compressibility (1/GPa) = 0.03334143
#
# Stress axis : x y z
#
# Youngs Moduli (GPa) = 62.62255 43.24759 72.98885
#
# Poissons Ratio (x) = -0.00474 0.50847
# Poissons Ratio (y) = -0.00687 0.20938
# Poissons Ratio (z) = 0.43626 0.12406
#
# Static dielectric constant tensor:
#      x y z
#    x 1.984340 0.000000 0.121280 
#    y 0.000000 2.076280 0.000000 
#    z 0.121280 0.000000 1.858640 
# 
# From -- ./inp_files/166343.got.cif
#   From: 2010.05.17/outbox.cif.g08.bks.cpg/sg15_84_cif.got.tgz:166343.got - 2010.06.03 18:47:42.
