data_PCOD9275557
_publ_section_title
;
Structure prediction by ZEFSAII (Michael W. Deem and Ramdas Pophale) SiO2 
 PCOD9275557
Probable space group: C 2/C
;
_chemical_formula_sum "Si O2"
_cell_formula_units_Z 44
_cell_length_a 12.939957
_cell_length_b 10.973111
_cell_length_c 18.146137
_cell_angle_alpha 90.000000
_cell_angle_beta 127.617689
_cell_angle_gamma 90.000000
_cell_volume 2040.927047
_symmetry_space_group_name_H-M "C 2/C"
_symmetry_group_IT_number 15
_symmetry_cell_setting 'monoclinic'
loop_
_space_group_symop_operation_xyz
x,y,z
-x,y,1/2-z
-x,-y,-z
x,-y,1/2+z
1/2+x,1/2+y,z
1/2-x,1/2+y,1/2-z
1/2-x,1/2-y,-z
1/2+x,1/2-y,1/2+z
loop_
_atom_site_type_symbol
_atom_site_label
_atom_site_fract_x
_atom_site_fract_y
_atom_site_fract_z
Si Si1 0.855655 0.293724 0.825443
Si Si2 0.917320 0.709224 0.851261
Si Si3 0.000000 0.174350 0.750000
Si Si4 0.773447 0.471260 0.378563
Si Si5 0.319091 0.881743 0.047254
Si Si6 0.075592 0.881463 0.014272
O O1 0.713505 0.234024 0.749313
O O2 0.814710 0.430635 0.832761
O O3 0.917645 0.222820 0.921436
O O4 0.948819 0.260496 0.795820
O O5 0.867872 0.641356 0.903100
O O6 0.032201 0.631204 0.864775
O O7 0.996878 0.828415 0.910007
O O8 0.126023 0.084145 0.816831
O O9 0.805544 0.537996 0.468551
O O10 0.222386 0.928532 0.066188
O O11 0.250000 0.750000 0.000000
O O12 0.000000 0.000000 0.000000
#
# Coordination Sequence:
#
# PCOD9275557 Si02
#       6
#     8   8   4   8   8   8
#     4  11  24  43  69  95 134 177 221 278 337 401
#     4  10  24  41  64  97 131 173 224 270 343 398
#     4  10  26  44  66 102 134 184 224 268 358 400
#     4  11  22  43  70  88 140 174 214 286 332 398
#     4  10  20  39  62  97 121 169 224 265 334 399
#     4  11  24  43  66  98 136 172 228 280 330 410
#
# _framework density 21.558831000000001
#
# number of rings (size 3 to 8) (size 9 to 14) (size 15 to 20)
#    0.000    1.455    3.636    1.636   10.182    0.727 
#    6.545    4.545    0.000    0.000    0.000    0.000 
#    0.000    0.000    0.000    0.000    0.000    0.000 
#
# Total GULP energy -122530.355087 kJ/mol
# GULP energy per Si atom -5569.561595 kJ/mol
# Density = 2.150976 g / cm^3
# Si number density = 21.558831 Si / 1000 Ang^3
#
#
#
# Elastic Constant Matrix: (Units=GPa)
#
#
# Indices 1 2 3 4 5 6 
#
# 1 155.2206 33.6288 30.0661 0.0000 36.4558 0.0000
# 2 33.6288 52.5896 13.9567 0.0000 15.8422 0.0000
# 3 30.0661 13.9567 67.9753 0.0000 19.8648 0.0000
# 4 0.0000 0.0000 0.0000 23.0618 0.0000 -2.4358
# 5 36.4558 15.8422 19.8648 0.0000 34.7687 0.0000
# 6 0.0000 0.0000 0.0000 -2.4358 0.0000 33.8341
#
#
#
# Elastic Compliance Matrix: (Units=1/GPa)
#
#
# Indices 1 2 3 4 5 6 
#
# 1 0.009121 -0.003291 -0.001203 0.000000 -0.007377 0.000000
# 2 -0.003291 0.023436 -0.001493 0.000000 -0.006375 0.000000
# 3 -0.001203 -0.001493 0.017985 0.000000 -0.008334 0.000000
# 4 0.000000 0.000000 0.000000 0.043694 0.000000 0.003146
# 5 -0.007377 -0.006375 -0.008334 0.000000 0.044163 0.000000
# 6 0.000000 0.000000 0.000000 0.003146 0.000000 0.029782
#
#
# Mechanical properties :
#
#
# Convention : Reuss Voigt Hill
#
# Bulk Modulus (GPa) = 25.92813 47.89876 36.91345
# Shear Modulus (GPa) = 25.90508 31.54182 28.72345
#
# Velocity S-wave (km/s) = 3.47017 3.82914 3.65407
# Velocity P-wave (km/s) = 5.30178 6.46651 5.91289
#
# Compressibility (1/GPa) = 0.03856814
#
# Stress axis : x y z
#
# Youngs Moduli (GPa) = 109.63713 42.66884 55.60064
#
# Poissons Ratio (x) = 0.14043 0.06688
# Poissons Ratio (y) = 0.36082 0.08303
# Poissons Ratio (z) = 0.13187 0.06372
#
# Static dielectric constant tensor:
#      x y z
#    x 1.893520 0.000000 -0.090140 
#    y 0.000000 1.817740 0.000000 
#    z -0.090140 0.000000 1.702670 
# 
# From -- ./inp_files/196645.got.cif
#   From: 2010.05.17/outbox.cif.g08.bks.cpg/sg15_99_cif.got.tgz:196645.got - 2010.06.03 18:47:42.
