data_PCOD9275737
_publ_section_title
;
Structure prediction by ZEFSAII (Michael W. Deem and Ramdas Pophale) SiO2 
 PCOD9275737
Probable space group: C 2/C
;
_chemical_formula_sum "Si O2"
_cell_formula_units_Z 40
_cell_length_a 8.940513
_cell_length_b 22.518806
_cell_length_c 12.198592
_cell_angle_alpha 90.000000
_cell_angle_beta 127.060005
_cell_angle_gamma 90.000000
_cell_volume 1959.850790
_symmetry_space_group_name_H-M "C 2/C"
_symmetry_group_IT_number 15
_symmetry_cell_setting 'monoclinic'
loop_
_space_group_symop_operation_xyz
x,y,z
-x,y,1/2-z
-x,-y,-z
x,-y,1/2+z
1/2+x,1/2+y,z
1/2-x,1/2+y,1/2-z
1/2-x,1/2-y,-z
1/2+x,1/2-y,1/2+z
loop_
_atom_site_type_symbol
_atom_site_label
_atom_site_fract_x
_atom_site_fract_y
_atom_site_fract_z
Si Si1 0.509507 0.571404 0.623038
Si Si2 0.356848 0.310318 0.281295
Si Si3 0.179533 0.502682 0.879045
Si Si4 0.785108 0.789787 0.623329
Si Si5 0.481541 0.876102 0.110912
O O1 0.500000 0.570289 0.750000
O O2 0.539209 0.639612 0.598765
O O3 0.685984 0.535571 0.650616
O O4 0.319476 0.541156 0.500316
O O5 0.500000 0.294263 0.250000
O O6 0.295447 0.251528 0.316039
O O7 0.178962 0.348640 0.158053
O O8 0.081065 0.555270 0.906388
O O9 0.000000 0.470019 0.750000
O O10 0.750000 0.750000 0.500000
O O11 0.672243 0.847769 0.536931
O O12 0.000000 0.801570 0.750000
O O13 0.500000 0.857440 0.250000
#
# Coordination Sequence:
#
# PCOD9275737 Si02
#       5
#     8   8   8   8   8
#     4  10  21  37  62  90 120 166 203 252 316 373
#     4  11  22  39  62  90 131 166 205 255 324 369
#     4  10  20  39  64  89 124 161 209 260 307 371
#     4  12  21  38  67  91 118 165 215 251 303 379
#     4  11  20  41  65  90 121 168 209 257 310 370
#
# _framework density 20.409717000000001
#
# number of rings (size 3 to 8) (size 9 to 14) (size 15 to 20)
#    0.000    1.200    8.000    0.000    0.000    2.400 
#    0.000    0.000    0.000    0.000    0.000    0.000 
#    0.000    0.000    0.000    0.000    0.000    0.000 
#
# Total GULP energy -111414.143059 kJ/mol
# GULP energy per Si atom -5570.707153 kJ/mol
# Density = 2.036326 g / cm^3
# Si number density = 20.409717 Si / 1000 Ang^3
#
#
#
# Elastic Constant Matrix: (Units=GPa)
#
#
# Indices 1 2 3 4 5 6 
#
# 1 106.5230 31.1744 64.1238 0.0000 28.8491 0.0000
# 2 31.1744 69.9528 56.0564 0.0000 21.4350 0.0000
# 3 64.1238 56.0564 126.0210 0.0000 45.6018 0.0000
# 4 0.0000 0.0000 0.0000 18.9612 0.0000 19.8094
# 5 28.8491 21.4350 45.6018 0.0000 31.9838 0.0000
# 6 0.0000 0.0000 0.0000 19.8094 0.0000 13.2008
#
#
#
# Elastic Compliance Matrix: (Units=1/GPa)
#
#
# Indices 1 2 3 4 5 6 
#
# 1 0.013942 -0.000692 -0.004965 0.000000 -0.005032 0.000000
# 2 -0.000692 0.022290 -0.009055 0.000000 -0.001404 0.000000
# 3 -0.004965 -0.009055 0.022048 0.000000 -0.020889 0.000000
# 4 0.000000 0.000000 0.000000 -0.092893 0.000000 0.139397
# 5 -0.005032 -0.001404 -0.020889 0.000000 0.066529 0.000000
# 6 0.000000 0.000000 0.000000 0.139397 0.000000 -0.133428
#
#
# Mechanical properties :
#
#
# Convention : Reuss Voigt Hill
#
# Bulk Modulus (GPa) = 34.65520 67.24513 50.95016
# Shear Modulus (GPa) = -80.03907 22.90530 -28.56688
#
# Velocity S-wave (km/s) = -6.26907 3.35367 -3.74528
# Velocity P-wave (km/s) = 5.94854 6.92931 2.51298
#
# Compressibility (1/GPa) = 0.02885570
#
# Stress axis : x y z
#
# Youngs Moduli (GPa) = 71.72534 44.86311 45.35528
#
# Poissons Ratio (x) = 0.03106 0.22520
# Poissons Ratio (y) = 0.04966 0.41068
# Poissons Ratio (z) = 0.35613 0.40622
#
# Static dielectric constant tensor:
#      x y z
#    x 1.796480 0.000000 0.022710 
#    y 0.000000 1.797770 0.000000 
#    z 0.022710 0.000000 1.791750 
# 
# From -- ./inp_files/81001.got.cif
#   From: 2010.05.17/outbox.cif.g08.bks.cpg/sg15_41_cif.got.tgz:81001.got - 2010.06.03 18:47:42.
