data_PCOD9275196
_publ_section_title
;
Structure prediction by ZEFSAII (Michael W. Deem and Ramdas Pophale) SiO2 
 PCOD9275196
Probable space group: C 2/C
;
_chemical_formula_sum "Si O2"
_cell_formula_units_Z 60
_cell_length_a 9.942339
_cell_length_b 13.192261
_cell_length_c 21.494850
_cell_angle_alpha 90.000000
_cell_angle_beta 122.176015
_cell_angle_gamma 90.000000
_cell_volume 2386.306196
_symmetry_space_group_name_H-M "C 2/C"
_symmetry_group_IT_number 15
_symmetry_cell_setting 'monoclinic'
loop_
_space_group_symop_operation_xyz
x,y,z
-x,y,1/2-z
-x,-y,-z
x,-y,1/2+z
1/2+x,1/2+y,z
1/2-x,1/2+y,1/2-z
1/2-x,1/2-y,-z
1/2+x,1/2-y,1/2+z
loop_
_atom_site_type_symbol
_atom_site_label
_atom_site_fract_x
_atom_site_fract_y
_atom_site_fract_z
Si Si1 0.000000 0.086841 0.750000
Si Si2 0.986825 0.245273 0.502483
Si Si3 0.661003 0.735180 0.253816
Si Si4 0.776945 0.404836 0.895542
Si Si5 0.628190 0.718271 0.895807
Si Si6 0.549737 0.408598 0.617359
Si Si7 0.672681 0.056722 0.686765
Si Si8 0.391650 0.066892 0.167771
O O1 0.932816 0.156346 0.678145
O O2 0.855415 0.016876 0.737651
O O3 0.815398 0.297625 0.450348
O O4 0.968817 0.193808 0.565993
O O5 0.120074 0.331827 0.534942
O O6 0.003346 0.158893 0.454918
O O7 0.500000 0.760051 0.250000
O O8 0.755779 0.671325 0.329666
O O9 0.627762 0.666289 0.186408
O O10 0.710919 0.836748 0.229872
O O11 0.614817 0.440045 0.890092
O O12 0.857125 0.506807 0.888841
O O13 0.617769 0.839708 0.882096
O O14 0.711117 0.469130 0.637249
O O15 0.509407 0.022215 0.677574
O O16 0.500000 0.113277 0.250000
#
# Coordination Sequence:
#
# PCOD9275196 Si02
#       8
#     4   8   8   8   8   8   8   8
#     4  12  26  42  66 108 142 180 242 304 350 414
#     4  10  20  38  72 104 136 189 237 282 371 423
#     4  10  23  44  67 103 141 179 234 300 354 411
#     4  11  23  43  72 105 144 182 238 298 354 429
#     4  10  21  42  69 104 138 184 235 296 346 431
#     4  10  23  41  71  99 140 189 233 288 356 427
#     4  12  25  38  67 105 136 183 232 296 352 421
#     4  11  21  37  67  98 134 173 232 283 349 406
#
# _framework density 25.143463000000001
#
# number of rings (size 3 to 8) (size 9 to 14) (size 15 to 20)
#    0.000    1.333    2.000    4.000    4.667    0.000 
#    0.000    2.667    0.000    0.800    0.000    0.000 
#    0.000    0.000    0.000    0.000    0.000    0.000 
#
# Total GULP energy -167258.128900 kJ/mol
# GULP energy per Si atom -5575.270963 kJ/mol
# Density = 2.508623 g / cm^3
# Si number density = 25.143463 Si / 1000 Ang^3
#
#
#
# Elastic Constant Matrix: (Units=GPa)
#
#
# Indices 1 2 3 4 5 6 
#
# 1 159.5738 34.5531 28.8713 0.0000 1.0075 0.0000
# 2 34.5531 83.8823 28.0313 0.0000 -7.1127 0.0000
# 3 28.8713 28.0313 99.3779 0.0000 -11.6766 0.0000
# 4 0.0000 0.0000 0.0000 17.0535 0.0000 2.6702
# 5 1.0075 -7.1127 -11.6766 0.0000 46.8503 0.0000
# 6 0.0000 0.0000 0.0000 2.6702 0.0000 21.0535
#
#
#
# Elastic Compliance Matrix: (Units=1/GPa)
#
#
# Indices 1 2 3 4 5 6 
#
# 1 0.007078 -0.002505 -0.001455 0.000000 -0.000895 0.000000
# 2 -0.002505 0.014105 -0.003083 0.000000 0.001427 0.000000
# 3 -0.001455 -0.003083 0.011645 0.000000 0.002465 0.000000
# 4 0.000000 0.000000 0.000000 0.059827 0.000000 -0.007588
# 5 -0.000895 0.001427 0.002465 0.000000 0.022195 0.000000
# 6 0.000000 0.000000 0.000000 -0.007588 0.000000 0.048460
#
#
# Mechanical properties :
#
#
# Convention : Reuss Voigt Hill
#
# Bulk Modulus (GPa) = 53.35892 58.41616 55.88754
# Shear Modulus (GPa) = 27.22672 33.74999 30.48835
#
# Velocity S-wave (km/s) = 3.29425 3.66771 3.48598
# Velocity P-wave (km/s) = 5.97807 6.42026 6.20310
#
# Compressibility (1/GPa) = 0.01874101
#
# Stress axis : x y z
#
# Youngs Moduli (GPa) = 141.28163 70.89822 85.87717
#
# Poissons Ratio (x) = 0.17763 0.12494
# Poissons Ratio (y) = 0.35396 0.26476
# Poissons Ratio (z) = 0.20554 0.21858
#
# Static dielectric constant tensor:
#      x y z
#    x 2.118220 0.000000 -0.113290 
#    y 0.000000 2.066790 0.000000 
#    z -0.113290 0.000000 2.187010 
# 
# From -- ./inp_files/238810.got.cif
#   From: 2010.05.17/outbox.cif.g08.bks.cpg/sg15_120_cif.got.tgz:238810.got - 2010.06.03 18:47:42.
