data_PCOD9275574
_publ_section_title
;
Structure prediction by ZEFSAII (Michael W. Deem and Ramdas Pophale) SiO2 
 PCOD9275574
Probable space group: C 2/C
;
_chemical_formula_sum "Si O2"
_cell_formula_units_Z 52
_cell_length_a 9.411507
_cell_length_b 21.126068
_cell_length_c 16.904869
_cell_angle_alpha 90.000000
_cell_angle_beta 48.448618
_cell_angle_gamma 90.000000
_cell_volume 2515.364403
_symmetry_space_group_name_H-M "C 2/C"
_symmetry_group_IT_number 15
_symmetry_cell_setting 'monoclinic'
loop_
_space_group_symop_operation_xyz
x,y,z
-x,y,1/2-z
-x,-y,-z
x,-y,1/2+z
1/2+x,1/2+y,z
1/2-x,1/2+y,1/2-z
1/2-x,1/2-y,-z
1/2+x,1/2-y,1/2+z
loop_
_atom_site_type_symbol
_atom_site_label
_atom_site_fract_x
_atom_site_fract_y
_atom_site_fract_z
Si Si1 0.500000 0.856208 0.750000
Si Si2 0.256805 0.327524 0.104537
Si Si3 0.112610 0.478114 0.378309
Si Si4 0.500000 0.710050 0.250000
Si Si5 0.512799 0.152136 0.540338
Si Si6 0.740871 0.893863 0.802352
Si Si7 0.000000 0.435623 0.250000
Si Si8 0.832883 0.223010 0.050639
O O1 0.602449 0.895016 0.779639
O O2 0.337542 0.813542 0.847135
O O3 0.176649 0.386092 0.185089
O O4 0.161288 0.259871 0.163262
O O5 0.172431 0.342738 0.049161
O O6 0.480791 0.320082 0.028677
O O7 0.137464 0.403811 0.387144
O O8 0.274127 0.531992 0.309273
O O9 0.005759 0.472946 0.331533
O O10 0.000000 0.500000 0.500000
O O11 0.593428 0.657705 0.274380
O O12 0.623051 0.135421 0.419138
O O13 0.405714 0.218086 0.575091
O O14 0.750000 0.250000 0.000000
#
# Coordination Sequence:
#
# PCOD9275574 Si02
#       8
#     4   8   8   4   8   8   4   8
#     4  12  25  38  62  90 125 170 204 258 344 390
#     4  10  21  37  65  91 123 161 214 269 316 382
#     4   9  20  38  63  89 123 171 214 262 321 373
#     4  11  20  36  60  94 118 157 210 254 320 375
#     4  10  20  39  63  85 119 163 209 263 312 377
#     4  11  22  37  59  87 123 163 206 261 312 388
#     4   9  19  40  68  94 123 177 220 266 328 389
#     4  12  23  40  59  97 132 164 204 268 335 394
#
# _framework density 20.672948000000002
#
# number of rings (size 3 to 8) (size 9 to 14) (size 15 to 20)
#    0.000    1.538    3.077    1.846    2.154    2.462 
#    0.000    2.308    0.000    2.769    0.000    0.000 
#    0.000    0.000    0.000    0.000    0.000    0.000 
#
# Total GULP energy -144823.508726 kJ/mol
# GULP energy per Si atom -5570.134951 kJ/mol
# Density = 2.062590 g / cm^3
# Si number density = 20.672948 Si / 1000 Ang^3
#
#
#
# Elastic Constant Matrix: (Units=GPa)
#
#
# Indices 1 2 3 4 5 6 
#
# 1 97.5699 20.3310 40.9593 0.0000 4.2894 0.0000
# 2 20.3310 109.8493 39.9003 0.0000 -11.9550 0.0000
# 3 40.9593 39.9003 89.6715 0.0000 -7.2005 0.0000
# 4 0.0000 0.0000 0.0000 10.7191 0.0000 3.0708
# 5 4.2894 -11.9550 -7.2005 0.0000 43.4266 0.0000
# 6 0.0000 0.0000 0.0000 3.0708 0.0000 13.9448
#
#
#
# Elastic Compliance Matrix: (Units=1/GPa)
#
#
# Indices 1 2 3 4 5 6 
#
# 1 0.012924 -0.000523 -0.005863 0.000000 -0.002393 0.000000
# 2 -0.000523 0.011094 -0.004508 0.000000 0.002358 0.000000
# 3 -0.005863 -0.004508 0.015996 0.000000 0.001990 0.000000
# 4 0.000000 0.000000 0.000000 0.099574 0.000000 -0.021927
# 5 -0.002393 0.002358 0.001990 0.000000 0.024243 0.000000
# 6 0.000000 0.000000 0.000000 -0.021927 0.000000 0.076540
#
#
# Mechanical properties :
#
#
# Convention : Reuss Voigt Hill
#
# Bulk Modulus (GPa) = 54.86633 55.49687 55.18160
# Shear Modulus (GPa) = 18.64037 26.67809 22.65923
#
# Velocity S-wave (km/s) = 3.00606 3.59623 3.31430
# Velocity P-wave (km/s) = 6.21661 6.64434 6.43403
#
# Compressibility (1/GPa) = 0.01822611
#
# Stress axis : x y z
#
# Youngs Moduli (GPa) = 77.37273 90.13572 62.51672
#
# Poissons Ratio (x) = 0.04713 0.36653
# Poissons Ratio (y) = 0.04046 0.28185
# Poissons Ratio (z) = 0.45363 0.40637
#
# Static dielectric constant tensor:
#      x y z
#    x 1.764630 0.000000 0.037680 
#    y 0.000000 1.744510 0.000000 
#    z 0.037680 0.000000 1.790800 
# 
# From -- ./inp_files/136030.got.cif
#   From: 2010.05.17/outbox.cif.g08.bks.cpg/sg15_69_cif.got.tgz:136030.got - 2010.06.03 18:47:42.
