data_PCOD9275115
_publ_section_title
;
Structure prediction by ZEFSAII (Michael W. Deem and Ramdas Pophale) SiO2 
 PCOD9275115
Probable space group: C 2/C
;
_chemical_formula_sum "Si O2"
_cell_formula_units_Z 44
_cell_length_a 6.710157
_cell_length_b 13.795711
_cell_length_c 24.325586
_cell_angle_alpha 90.000000
_cell_angle_beta 131.499933
_cell_angle_gamma 90.000000
_cell_volume 1686.540103
_symmetry_space_group_name_H-M "C 2/C"
_symmetry_group_IT_number 15
_symmetry_cell_setting 'monoclinic'
loop_
_space_group_symop_operation_xyz
x,y,z
-x,y,1/2-z
-x,-y,-z
x,-y,1/2+z
1/2+x,1/2+y,z
1/2-x,1/2+y,1/2-z
1/2-x,1/2-y,-z
1/2+x,1/2-y,1/2+z
loop_
_atom_site_type_symbol
_atom_site_label
_atom_site_fract_x
_atom_site_fract_y
_atom_site_fract_z
Si Si1 0.016403 0.660941 0.986250
Si Si2 0.650255 0.692232 0.115177
Si Si3 0.500000 0.518454 0.750000
Si Si4 0.378869 0.485414 0.416234
Si Si5 0.672970 0.977610 0.593821
Si Si6 0.942224 0.331002 0.301377
O O1 0.327844 0.686282 0.048658
O O2 0.986856 0.607904 0.039075
O O3 0.799016 0.737698 0.927528
O O4 0.987711 0.577675 0.934285
O O5 0.772796 0.586806 0.127920
O O6 0.664851 0.748115 0.175955
O O7 0.334746 0.456579 0.677086
O O8 0.707822 0.588502 0.756988
O O9 0.500000 0.500000 0.500000
O O10 0.612249 0.493820 0.413549
O O11 0.203820 0.390060 0.371169
O O12 0.000000 0.296311 0.250000
#
# Coordination Sequence:
#
# PCOD9275115 Si02
#       6
#     8   8   4   8   8   8
#     4   9  18  37  67  96 131 179 233 289 360 415
#     4  10  21  43  70 103 139 181 242 315 352 431
#     4  12  24  44  68 100 150 194 238 298 378 458
#     4  11  24  44  75 106 138 190 254 306 369 443
#     4  10  20  38  68  99 136 191 229 297 375 423
#     4  12  25  48  72 103 152 200 241 304 387 450
#
# _framework density 26.088913999999999
#
# number of rings (size 3 to 8) (size 9 to 14) (size 15 to 20)
#    0.000    1.455    3.636    3.273    2.545    0.000 
#    8.182    5.455    0.000    0.000    0.000    0.000 
#    0.000    0.000    0.000    0.000    0.000    0.000 
#
# Total GULP energy -122679.460791 kJ/mol
# GULP energy per Si atom -5576.339127 kJ/mol
# Density = 2.602953 g / cm^3
# Si number density = 26.088914 Si / 1000 Ang^3
#
#
#
# Elastic Constant Matrix: (Units=GPa)
#
#
# Indices 1 2 3 4 5 6 
#
# 1 103.1191 -3.8207 29.7324 0.0000 -17.1948 0.0000
# 2 -3.8207 73.8779 33.7792 0.0000 -19.0072 0.0000
# 3 29.7324 33.7792 159.7222 0.0000 -45.4240 0.0000
# 4 0.0000 0.0000 0.0000 25.1733 0.0000 -1.5229
# 5 -17.1948 -19.0072 -45.4240 0.0000 38.6375 0.0000
# 6 0.0000 0.0000 0.0000 -1.5229 0.0000 30.3480
#
#
#
# Elastic Compliance Matrix: (Units=1/GPa)
#
#
# Indices 1 2 3 4 5 6 
#
# 1 0.010891 0.002289 -0.001221 0.000000 0.004537 0.000000
# 2 0.002289 0.016279 -0.001956 0.000000 0.006728 0.000000
# 3 -0.001221 -0.001956 0.009725 0.000000 0.009928 0.000000
# 4 0.000000 0.000000 0.000000 0.039846 0.000000 0.002000
# 5 0.004537 0.006728 0.009928 0.000000 0.042882 0.000000
# 6 0.000000 0.000000 0.000000 0.002000 0.000000 0.033051
#
#
# Mechanical properties :
#
#
# Convention : Reuss Voigt Hill
#
# Bulk Modulus (GPa) = 28.47373 50.67788 39.57580
# Shear Modulus (GPa) = 30.09201 37.30031 33.69616
#
# Velocity S-wave (km/s) = 3.39992 3.78529 3.59777
# Velocity P-wave (km/s) = 5.13326 6.21062 5.69746
#
# Compressibility (1/GPa) = 0.03512010
#
# Stress axis : x y z
#
# Youngs Moduli (GPa) = 91.81908 61.42754 102.82558
#
# Poissons Ratio (x) = -0.14060 0.12556
# Poissons Ratio (y) = -0.21016 0.20108
# Poissons Ratio (z) = 0.11212 0.12012
#
# Static dielectric constant tensor:
#      x y z
#    x 2.579470 0.000000 -0.057860 
#    y 0.000000 2.615550 0.000000 
#    z -0.057860 0.000000 2.051980 
# 
# From -- ./inp_files/288947.got.cif
#   From: 2010.05.17/outbox.cif.g08.bks.cpg/sg15_145_cif.got.tgz:288947.got - 2010.06.03 18:47:42.
