data_PCOD9275306
_publ_section_title
;
Structure prediction by ZEFSAII (Michael W. Deem and Ramdas Pophale) SiO2 
 PCOD9275306
Probable space group: C 2/C
;
_chemical_formula_sum "Si O2"
_cell_formula_units_Z 40
_cell_length_a 10.106751
_cell_length_b 18.457721
_cell_length_c 7.857357
_cell_angle_alpha 90.000000
_cell_angle_beta 90.116584
_cell_angle_gamma 90.000000
_cell_volume 1465.767979
_symmetry_space_group_name_H-M "C 2/C"
_symmetry_group_IT_number 15
_symmetry_cell_setting 'monoclinic'
loop_
_space_group_symop_operation_xyz
x,y,z
-x,y,1/2-z
-x,-y,-z
x,-y,1/2+z
1/2+x,1/2+y,z
1/2-x,1/2+y,1/2-z
1/2-x,1/2-y,-z
1/2+x,1/2-y,1/2+z
loop_
_atom_site_type_symbol
_atom_site_label
_atom_site_fract_x
_atom_site_fract_y
_atom_site_fract_z
Si Si1 0.283899 0.783785 0.278377
Si Si2 0.058031 0.106941 0.920475
Si Si3 0.895785 0.332319 0.604490
Si Si4 0.234649 0.113332 0.511984
Si Si5 0.731638 0.966516 0.841730
O O1 0.155103 0.830032 0.349973
O O2 0.237642 0.701649 0.307296
O O3 0.396758 0.798763 0.417034
O O4 0.303570 0.815593 0.090839
O O5 0.000000 0.068577 0.750000
O O6 0.921114 0.132231 0.003972
O O7 0.140277 0.057355 0.047685
O O8 0.885879 0.418574 0.577562
O O9 0.000000 0.315519 0.750000
O O10 0.268123 0.067060 0.346004
O O11 0.273383 0.052297 0.654179
#
# Coordination Sequence:
#
# PCOD9275306 Si02
#       5
#     8   8   8   8   8
#     4   9  20  37  60  84 110 145 186 224 275 337
#     4   9  17  32  55  81 111 145 178 223 279 328
#     4  10  20  39  60  81 110 148 186 226 275 331
#     4  11  20  35  53  81 116 145 185 231 275 326
#     4  11  22  33  53  83 114 148 186 228 278 333
#
# _framework density 27.289449000000001
#
# number of rings (size 3 to 8) (size 9 to 14) (size 15 to 20)
#    0.000    2.000    0.000    6.600    0.000    2.400 
#    0.000    5.000    0.000    0.000    0.000    0.000 
#    0.000    0.000    0.000    0.000    0.000    0.000 
#
# Total GULP energy -111727.904895 kJ/mol
# GULP energy per Si atom -5586.395245 kJ/mol
# Density = 2.722734 g / cm^3
# Si number density = 27.289449 Si / 1000 Ang^3
#
#
#
# Elastic Constant Matrix: (Units=GPa)
#
#
# Indices 1 2 3 4 5 6 
#
# 1 72.9415 4.5881 13.2629 0.0000 28.2361 0.0000
# 2 4.5881 138.5784 20.7991 0.0000 8.5557 0.0000
# 3 13.2629 20.7991 155.5340 0.0000 39.7371 0.0000
# 4 0.0000 0.0000 0.0000 46.8179 0.0000 0.2555
# 5 28.2361 8.5557 39.7371 0.0000 43.8804 0.0000
# 6 0.0000 0.0000 0.0000 0.2555 0.0000 19.2277
#
#
#
# Elastic Compliance Matrix: (Units=1/GPa)
#
#
# Indices 1 2 3 4 5 6 
#
# 1 0.018690 -0.000059 0.001931 0.000000 -0.013764 0.000000
# 2 -0.000059 0.007381 -0.000812 0.000000 -0.000666 0.000000
# 3 0.001931 -0.000812 0.008652 0.000000 -0.008919 0.000000
# 4 0.000000 0.000000 0.000000 0.021361 0.000000 -0.000284
# 5 -0.013764 -0.000666 -0.008919 0.000000 0.039853 0.000000
# 6 0.000000 0.000000 0.000000 -0.000284 0.000000 0.052012
#
#
# Mechanical properties :
#
#
# Convention : Reuss Voigt Hill
#
# Bulk Modulus (GPa) = 27.14207 49.37268 38.25737
# Shear Modulus (GPa) = 31.62346 43.87878 37.75112
#
# Velocity S-wave (km/s) = 3.40783 4.01422 3.72339
# Velocity P-wave (km/s) = 5.04500 6.29418 5.70389
#
# Compressibility (1/GPa) = 0.03684318
#
# Stress axis : x y z
#
# Youngs Moduli (GPa) = 53.50381 135.48203 115.57828
#
# Poissons Ratio (x) = 0.00797 -0.22313
# Poissons Ratio (y) = 0.00315 0.09383
# Poissons Ratio (z) = -0.10329 0.10999
#
# Static dielectric constant tensor:
#      x y z
#    x 2.213040 0.000000 -0.153300 
#    y 0.000000 2.124960 0.000000 
#    z -0.153300 0.000000 2.295470 
# 
# From -- ./inp_files/30284.got.cif
#   From: 2010.05.17/outbox.cif.g08.bks.cpg/sg15_16_cif.got.tgz:30284.got - 2010.06.03 18:47:42.
