data_PCOD9275626
_publ_section_title
;
Structure prediction by ZEFSAII (Michael W. Deem and Ramdas Pophale) SiO2 
 PCOD9275626
Probable space group: C 2/C
;
_chemical_formula_sum "Si O2"
_cell_formula_units_Z 48
_cell_length_a 29.839142
_cell_length_b 7.755909
_cell_length_c 9.618094
_cell_angle_alpha 90.000000
_cell_angle_beta 71.870891
_cell_angle_gamma 90.000000
_cell_volume 2115.413070
_symmetry_space_group_name_H-M "C 2/C"
_symmetry_group_IT_number 15
_symmetry_cell_setting 'monoclinic'
loop_
_space_group_symop_operation_xyz
x,y,z
-x,y,1/2-z
-x,-y,-z
x,-y,1/2+z
1/2+x,1/2+y,z
1/2-x,1/2+y,1/2-z
1/2-x,1/2-y,-z
1/2+x,1/2-y,1/2+z
loop_
_atom_site_type_symbol
_atom_site_label
_atom_site_fract_x
_atom_site_fract_y
_atom_site_fract_z
Si Si1 0.635056 0.306706 0.811805
Si Si2 0.600648 0.045714 0.466358
Si Si3 0.447338 0.860165 0.750068
Si Si4 0.187990 0.718261 0.233040
Si Si5 0.118611 0.935498 0.107689
Si Si6 0.266234 0.854889 0.348786
O O1 0.607081 0.145030 0.896617
O O2 0.618453 0.383063 0.683227
O O3 0.688534 0.247026 0.750786
O O4 0.628073 0.451082 0.936161
O O5 0.585589 0.001593 0.637671
O O6 0.560726 0.129092 0.407294
O O7 0.649368 0.142690 0.380551
O O8 0.500000 0.887472 0.750000
O O9 0.428140 0.673763 0.816140
O O10 0.160070 0.820270 0.139769
O O11 0.224785 0.839916 0.276309
O O12 0.216170 0.551236 0.146583
O O13 0.250000 0.750000 0.500000
#
# Coordination Sequence:
#
# PCOD9275626 Si02
#       6
#     8   8   8   8   8   8
#     4  10  23  39  58  86 121 159 201 244 300 351
#     4   9  21  37  62  86 120 152 197 243 302 359
#     4  10  20  39  63  90 117 152 195 248 305 368
#     4  10  23  40  58  87 120 162 200 250 292 350
#     4  10  23  41  61  84 122 162 196 252 305 356
#     4  11  25  36  62  89 120 160 209 243 291 349
#
# _framework density 22.690602999999999
#
# number of rings (size 3 to 8) (size 9 to 14) (size 15 to 20)
#    0.000    2.000    0.000    1.500   16.333    2.000 
#    0.000    4.167    0.000    0.000    0.000    0.000 
#    0.000    0.000    0.000    0.000    0.000    0.000 
#
# Total GULP energy -134257.739758 kJ/mol
# GULP energy per Si atom -5594.072490 kJ/mol
# Density = 2.263896 g / cm^3
# Si number density = 22.690603 Si / 1000 Ang^3
#
#
#
# Elastic Constant Matrix: (Units=GPa)
#
#
# Indices 1 2 3 4 5 6 
#
# 1 53.7605 2.3678 -14.2523 0.0000 -0.2036 0.0000
# 2 2.3678 76.4459 -11.4678 0.0000 -9.5111 0.0000
# 3 -14.2523 -11.4678 51.9464 0.0000 5.0054 0.0000
# 4 0.0000 0.0000 0.0000 37.0910 0.0000 4.1854
# 5 -0.2036 -9.5111 5.0054 0.0000 9.5419 0.0000
# 6 0.0000 0.0000 0.0000 4.1854 0.0000 2.0816
#
#
#
# Elastic Compliance Matrix: (Units=1/GPa)
#
#
# Indices 1 2 3 4 5 6 
#
# 1 0.020122 -0.000093 0.005759 0.000000 -0.002685 0.000000
# 2 -0.000093 0.015126 0.001960 0.000000 0.014047 0.000000
# 3 0.005759 0.001960 0.022185 0.000000 -0.009561 0.000000
# 4 0.000000 0.000000 0.000000 0.034873 0.000000 -0.070115
# 5 -0.002685 0.014047 -0.009561 0.000000 0.123760 0.000000
# 6 0.000000 0.000000 0.000000 -0.070115 0.000000 0.621366
#
#
# Mechanical properties :
#
#
# Convention : Reuss Voigt Hill
#
# Bulk Modulus (GPa) = 13.75840 15.04979 14.40410
# Shear Modulus (GPa) = 5.90732 23.44326 14.67529
#
# Velocity S-wave (km/s) = 1.61526 3.21778 2.54590
# Velocity P-wave (km/s) = 3.09118 4.52245 3.87350
#
# Compressibility (1/GPa) = 0.07268288
#
# Stress axis : x y z
#
# Youngs Moduli (GPa) = 49.69770 66.11266 45.07643
#
# Poissons Ratio (x) = 0.00617 -0.25958
# Poissons Ratio (y) = 0.00464 -0.08835
# Poissons Ratio (z) = -0.28620 -0.12959
#
# Static dielectric constant tensor:
#      x y z
#    x 1.813140 0.000000 0.002100 
#    y 0.000000 1.878930 0.000000 
#    z 0.002100 0.000000 1.852130 
# 
# From -- ./inp_files/68577.got.cif
#   From: 2010.05.17/outbox.cif.g08.bks.cpg/sg15_35_cif.got.tgz:68577.got - 2010.06.03 18:47:42.
