data_PCOD9275723
_publ_section_title
;
Structure prediction by ZEFSAII (Michael W. Deem and Ramdas Pophale) SiO2 
 PCOD9275723
Probable space group: C 2/C
;
_chemical_formula_sum "Si O2"
_cell_formula_units_Z 48
_cell_length_a 11.017153
_cell_length_b 14.228338
_cell_length_c 14.596386
_cell_angle_alpha 90.000000
_cell_angle_beta 99.624403
_cell_angle_gamma 90.000000
_cell_volume 2255.863084
_symmetry_space_group_name_H-M "C 2/C"
_symmetry_group_IT_number 15
_symmetry_cell_setting 'monoclinic'
loop_
_space_group_symop_operation_xyz
x,y,z
-x,y,1/2-z
-x,-y,-z
x,-y,1/2+z
1/2+x,1/2+y,z
1/2-x,1/2+y,1/2-z
1/2-x,1/2-y,-z
1/2+x,1/2-y,1/2+z
loop_
_atom_site_type_symbol
_atom_site_label
_atom_site_fract_x
_atom_site_fract_y
_atom_site_fract_z
Si Si1 0.192748 0.575179 0.815997
Si Si2 0.352655 0.294834 0.904307
Si Si3 0.073097 0.251757 0.890560
Si Si4 0.500000 0.233862 0.750000
Si Si5 0.500000 0.909512 0.750000
Si Si6 0.147246 0.002031 0.012220
Si Si7 0.390480 0.556211 0.684453
O O1 0.272292 0.568900 0.918728
O O2 0.287699 0.581762 0.744492
O O3 0.102105 0.663534 0.804955
O O4 0.112300 0.480602 0.786047
O O5 0.215559 0.255420 0.875141
O O6 0.433150 0.289392 0.823390
O O7 0.324944 0.398123 0.938379
O O8 0.420498 0.243982 0.998508
O O9 0.040549 0.147081 0.851932
O O10 0.996483 0.335400 0.834428
O O11 0.172379 0.002317 0.907515
O O12 0.000000 0.000000 0.000000
O O13 0.500000 0.502071 0.750000
#
# Coordination Sequence:
#
# PCOD9275723 Si02
#       7
#     8   8   8   4   4   8   8
#     4  11  24  39  60  99 129 164 206 265 321 360
#     4  10  22  40  63  89 122 167 210 256 315 374
#     4  10  20  39  64  88 117 167 218 251 301 387
#     4  11  24  42  66  91 136 166 204 265 320 378
#     4  11  22  38  64  93 128 158 216 265 308 376
#     4  11  23  40  62  93 127 161 213 262 312 372
#     4  11  21  38  66  87 123 171 212 252 308 386
#
# _framework density 21.277888000000001
#
# number of rings (size 3 to 8) (size 9 to 14) (size 15 to 20)
#    0.000    1.333    5.833    0.000    0.000    2.667 
#    0.000    4.167    0.000    0.000    0.000    0.000 
#    0.000    0.000    0.000    0.000    0.000    0.000 
#
# Total GULP energy -133937.120268 kJ/mol
# GULP energy per Si atom -5580.713344 kJ/mol
# Density = 2.122946 g / cm^3
# Si number density = 21.277888 Si / 1000 Ang^3
#
#
#
# Elastic Constant Matrix: (Units=GPa)
#
#
# Indices 1 2 3 4 5 6 
#
# 1 68.9420 -3.1065 44.0129 0.0000 6.8662 0.0000
# 2 -3.1065 31.3552 15.5430 0.0000 6.9837 0.0000
# 3 44.0129 15.5430 139.7938 0.0000 3.3989 0.0000
# 4 0.0000 0.0000 0.0000 2.1658 0.0000 1.3816
# 5 6.8662 6.9837 3.3989 0.0000 41.7282 0.0000
# 6 0.0000 0.0000 0.0000 1.3816 0.0000 16.0683
#
#
#
# Elastic Compliance Matrix: (Units=1/GPa)
#
#
# Indices 1 2 3 4 5 6 
#
# 1 0.019420 0.006061 -0.006699 0.000000 -0.003664 0.000000
# 2 0.006061 0.036882 -0.005846 0.000000 -0.006694 0.000000
# 3 -0.006699 -0.005846 0.009881 0.000000 0.001276 0.000000
# 4 0.000000 0.000000 0.000000 0.488511 0.000000 -0.042003
# 5 -0.003664 -0.006694 0.001276 0.000000 0.025584 0.000000
# 6 0.000000 0.000000 0.000000 -0.042003 0.000000 0.065846
#
#
# Mechanical properties :
#
#
# Convention : Reuss Voigt Hill
#
# Bulk Modulus (GPa) = 18.79192 39.22110 29.00651
# Shear Modulus (GPa) = 7.38737 24.23525 15.81131
#
# Velocity S-wave (km/s) = 1.86531 3.37855 2.72892
# Velocity P-wave (km/s) = 3.67288 5.80451 4.85707
#
# Compressibility (1/GPa) = 0.05321435
#
# Stress axis : x y z
#
# Youngs Moduli (GPa) = 51.49457 27.11357 101.19965
#
# Poissons Ratio (x) = -0.16433 0.67792
# Poissons Ratio (y) = -0.31209 0.59163
# Poissons Ratio (z) = 0.34495 0.15851
#
# Static dielectric constant tensor:
#      x y z
#    x 1.718820 0.000000 -0.026240 
#    y 0.000000 1.954390 0.000000 
#    z -0.026240 0.000000 1.729590 
# 
# From -- ./inp_files/87502.got.cif
#   From: 2010.05.17/outbox.cif.g08.bks.cpg/sg15_44_cif.got.tgz:87502.got - 2010.06.03 18:47:42.
