data_PCOD9275207
_publ_section_title
;
Structure prediction by ZEFSAII (Michael W. Deem and Ramdas Pophale) SiO2 
 PCOD9275207
Probable space group: C 2/C
;
_chemical_formula_sum "Si O2"
_cell_formula_units_Z 44
_cell_length_a 14.132999
_cell_length_b 27.891445
_cell_length_c 10.720186
_cell_angle_alpha 90.000000
_cell_angle_beta 32.002563
_cell_angle_gamma 90.000000
_cell_volume 2239.486557
_symmetry_space_group_name_H-M "C 2/C"
_symmetry_group_IT_number 15
_symmetry_cell_setting 'monoclinic'
loop_
_space_group_symop_operation_xyz
x,y,z
-x,y,1/2-z
-x,-y,-z
x,-y,1/2+z
1/2+x,1/2+y,z
1/2-x,1/2+y,1/2-z
1/2-x,1/2-y,-z
1/2+x,1/2-y,1/2+z
loop_
_atom_site_type_symbol
_atom_site_label
_atom_site_fract_x
_atom_site_fract_y
_atom_site_fract_z
Si Si1 0.978656 0.619403 0.132046
Si Si2 0.225754 0.046400 0.771717
Si Si3 0.340818 0.435815 0.627776
Si Si4 0.169410 0.684187 0.708486
Si Si5 0.698627 0.911745 0.049028
Si Si6 0.500000 0.729358 0.250000
O O1 0.000000 0.636295 0.250000
O O2 0.779618 0.600718 0.318601
O O3 0.102180 0.572042 0.978343
O O4 0.063067 0.658825 0.941335
O O5 0.214449 0.068758 0.922576
O O6 0.235610 0.989886 0.785831
O O7 0.054634 0.058533 0.875649
O O8 0.313163 0.419732 0.800350
O O9 0.170364 0.644295 0.600435
O O10 0.379104 0.696909 0.476850
O O11 0.091191 0.733805 0.745246
O O12 0.500000 0.933515 0.250000
#
# Coordination Sequence:
#
# PCOD9275207 Si02
#       6
#     8   8   8   8   8   4
#     4  11  24  41  61  85 131 167 203 245 308 376
#     4  10  24  36  57  88 115 172 214 252 299 345
#     4  11  22  38  58  84 125 163 215 260 291 350
#     4  10  21  40  61 100 113 157 194 258 324 362
#     4  11  20  37  62  88 124 152 203 258 309 352
#     4  10  20  38  74  88 122 140 202 266 316 386
#
# _framework density 19.647359000000002
#
# number of rings (size 3 to 8) (size 9 to 14) (size 15 to 20)
#    0.000    1.455    4.545    1.091    7.636    0.727 
#    0.000    0.909    0.000    0.000    0.000    0.000 
#    0.000    0.000    0.000    0.000    0.000    0.000 
#
# Total GULP energy -122499.017484 kJ/mol
# GULP energy per Si atom -5568.137158 kJ/mol
# Density = 1.960264 g / cm^3
# Si number density = 19.647359 Si / 1000 Ang^3
#
#
#
# Elastic Constant Matrix: (Units=GPa)
#
#
# Indices 1 2 3 4 5 6 
#
# 1 -5.2626 4.4244 17.3504 0.0000 -60.0398 0.0000
# 2 4.4244 72.2575 17.4666 0.0000 -22.3760 0.0000
# 3 17.3504 17.4666 42.4304 0.0000 -21.9304 0.0000
# 4 0.0000 0.0000 0.0000 7.9549 0.0000 -23.6562
# 5 -60.0398 -22.3760 -21.9304 0.0000 -9.6005 0.0000
# 6 0.0000 0.0000 0.0000 -23.6562 0.0000 10.1568
#
#
#
# Elastic Compliance Matrix: (Units=1/GPa)
#
#
# Indices 1 2 3 4 5 6 
#
# 1 0.009987 -0.004051 -0.013674 0.000000 -0.021781 0.000000
# 2 -0.004051 0.015234 -0.004527 0.000000 0.000170 0.000000
# 3 -0.013674 -0.004527 0.036996 0.000000 0.011556 0.000000
# 4 0.000000 0.000000 0.000000 -0.021212 0.000000 -0.049405
# 5 -0.021781 0.000170 0.011556 0.000000 0.005261 0.000000
# 6 0.000000 0.000000 0.000000 -0.049405 0.000000 -0.016614
#
#
# Mechanical properties :
#
#
# Convention : Reuss Voigt Hill
#
# Bulk Modulus (GPa) = 56.45530 20.87867 38.66699
# Shear Modulus (GPa) = 62.45243 6.38117 34.41680
#
# Velocity S-wave (km/s) = 5.64408 1.80413 4.18990
# Velocity P-wave (km/s) = 8.44221 3.87165 6.56736
#
# Compressibility (1/GPa) = 0.01771313
#
# Stress axis : x y z
#
# Youngs Moduli (GPa) = 100.12829 65.64163 27.03013
#
# Poissons Ratio (x) = 0.26592 0.36961
# Poissons Ratio (y) = 0.40563 0.12237
# Poissons Ratio (z) = 1.36914 0.29716
#
# Static dielectric constant tensor:
#      x y z
#    x 1.754840 0.000000 -0.110940 
#    y 0.000000 1.710110 0.000000 
#    z -0.110940 0.000000 1.825000 
# 
# From -- ./inp_files/101041.got.cif
#   From: 2010.05.17/outbox.cif.g08.bks.cpg/sg15_51_cif.got.tgz:101041.got - 2010.06.03 18:47:42.
