data_PCOD9275354
_publ_section_title
;
Structure prediction by ZEFSAII (Michael W. Deem and Ramdas Pophale) SiO2 
 PCOD9275354
Probable space group: C 2/C
;
_chemical_formula_sum "Si O2"
_cell_formula_units_Z 64
_cell_length_a 17.226096
_cell_length_b 15.545078
_cell_length_c 14.975928
_cell_angle_alpha 90.000000
_cell_angle_beta 50.053431
_cell_angle_gamma 90.000000
_cell_volume 3074.446870
_symmetry_space_group_name_H-M "C 2/C"
_symmetry_group_IT_number 15
_symmetry_cell_setting 'monoclinic'
loop_
_space_group_symop_operation_xyz
x,y,z
-x,y,1/2-z
-x,-y,-z
x,-y,1/2+z
1/2+x,1/2+y,z
1/2-x,1/2+y,1/2-z
1/2-x,1/2-y,-z
1/2+x,1/2-y,1/2+z
loop_
_atom_site_type_symbol
_atom_site_label
_atom_site_fract_x
_atom_site_fract_y
_atom_site_fract_z
Si Si1 0.278625 0.294518 0.647353
Si Si2 0.812797 0.396087 0.072071
Si Si3 0.608053 0.334611 0.620730
Si Si4 0.390189 0.096973 0.328227
Si Si5 0.266218 0.265295 0.123101
Si Si6 0.392817 0.513557 0.810519
Si Si7 0.686441 0.947231 0.231065
Si Si8 0.603483 0.542663 0.391644
O O1 0.319100 0.206107 0.577257
O O2 0.196511 0.339705 0.644348
O O3 0.226104 0.271440 0.781958
O O4 0.369963 0.361475 0.596368
O O5 0.696817 0.420621 0.136117
O O6 0.844156 0.437215 0.142869
O O7 0.870422 0.430063 0.944193
O O8 0.500000 0.316700 0.750000
O O9 0.631874 0.290392 0.507196
O O10 0.699623 0.300497 0.614700
O O11 0.620799 0.438217 0.606600
O O12 0.500000 0.138864 0.250000
O O13 0.383276 0.012439 0.271565
O O14 0.200331 0.352860 0.179787
O O15 0.500000 0.557061 0.750000
O O16 0.398618 0.461276 0.713699
O O17 0.799182 0.987615 0.150453
O O18 0.500000 0.500000 0.500000
#
# Coordination Sequence:
#
# PCOD9275354 Si02
#       8
#     8   8   8   8   8   8   8   8
#     4  10  22  43  62  89 135 168 212 271 329 393
#     4  10  22  43  64  90 129 169 213 267 325 396
#     4  10  21  35  60  95 128 164 217 269 332 383
#     4  11  24  43  63  88 122 171 217 264 321 388
#     4  10  20  39  60  89 128 167 205 273 329 387
#     4  10  21  36  61  96 123 163 212 269 331 388
#     4   9  22  40  62  88 122 164 213 262 319 387
#     4  10  21  37  63  94 122 163 207 265 333 384
#
# _framework density 20.816754
#
# number of rings (size 3 to 8) (size 9 to 14) (size 15 to 20)
#    0.000    2.000    1.250    1.125    7.000    1.500 
#   11.250    0.000    0.000    0.000    0.000    0.000 
#    0.000    0.000    0.000    0.000    0.000    0.000 
#
# Total GULP energy -178629.263765 kJ/mol
# GULP energy per Si atom -5582.164493 kJ/mol
# Density = 2.076937 g / cm^3
# Si number density = 20.816754 Si / 1000 Ang^3
#
#
#
# Elastic Constant Matrix: (Units=GPa)
#
#
# Indices 1 2 3 4 5 6 
#
# 1 60.5878 18.8968 32.7718 0.0000 0.3774 0.0000
# 2 18.8968 81.9107 15.5603 0.0000 2.5061 0.0000
# 3 32.7718 15.5603 84.0769 0.0000 17.5215 0.0000
# 4 0.0000 0.0000 0.0000 17.3601 0.0000 1.3970
# 5 0.3774 2.5061 17.5215 0.0000 20.5962 0.0000
# 6 0.0000 0.0000 0.0000 1.3970 0.0000 18.6844
#
#
#
# Elastic Compliance Matrix: (Units=1/GPa)
#
#
# Indices 1 2 3 4 5 6 
#
# 1 0.023061 -0.003664 -0.010108 0.000000 0.008622 0.000000
# 2 -0.003664 0.013241 -0.000852 0.000000 -0.000820 0.000000
# 3 -0.010108 -0.000852 0.019364 0.000000 -0.016184 0.000000
# 4 0.000000 0.000000 0.000000 0.057952 0.000000 -0.004333
# 5 0.008622 -0.000820 -0.016184 0.000000 0.062263 0.000000
# 6 0.000000 0.000000 0.000000 -0.004333 0.000000 0.053845
#
#
# Mechanical properties :
#
#
# Convention : Reuss Voigt Hill
#
# Bulk Modulus (GPa) = 37.85053 40.11480 38.98267
# Shear Modulus (GPa) = 18.67219 21.95123 20.31171
#
# Velocity S-wave (km/s) = 2.99821 3.25083 3.12707
# Velocity P-wave (km/s) = 5.49617 5.77951 5.63962
#
# Compressibility (1/GPa) = 0.02641971
#
# Stress axis : x y z
#
# Youngs Moduli (GPa) = 43.36297 75.52579 51.64212
#
# Poissons Ratio (x) = 0.27672 0.52198
# Poissons Ratio (y) = 0.15888 0.04398
# Poissons Ratio (z) = 0.43829 0.06431
#
# Static dielectric constant tensor:
#      x y z
#    x 1.718330 0.000000 0.035320 
#    y 0.000000 1.741330 0.000000 
#    z 0.035320 0.000000 1.877960 
# 
# From -- ./inp_files/162525.got.cif
#   From: 2010.05.17/outbox.cif.g08.bks.cpg/sg15_82_cif.got.tgz:162525.got - 2010.06.03 18:47:42.
