data_PCOD9275125
_publ_section_title
;
Structure prediction by ZEFSAII (Michael W. Deem and Ramdas Pophale) SiO2 
 PCOD9275125
Probable space group: C 2/C
;
_chemical_formula_sum "Si O2"
_cell_formula_units_Z 36
_cell_length_a 27.671685
_cell_length_b 10.064982
_cell_length_c 20.863389
_cell_angle_alpha 90.000000
_cell_angle_beta 14.293694
_cell_angle_gamma 90.000000
_cell_volume 1434.633990
_symmetry_space_group_name_H-M "C 2/C"
_symmetry_group_IT_number 15
_symmetry_cell_setting 'monoclinic'
loop_
_space_group_symop_operation_xyz
x,y,z
-x,y,1/2-z
-x,-y,-z
x,-y,1/2+z
1/2+x,1/2+y,z
1/2-x,1/2+y,1/2-z
1/2-x,1/2-y,-z
1/2+x,1/2-y,1/2+z
loop_
_atom_site_type_symbol
_atom_site_label
_atom_site_fract_x
_atom_site_fract_y
_atom_site_fract_z
Si Si1 0.000000 0.177118 0.250000
Si Si2 0.751586 0.038772 0.024766
Si Si3 0.103694 0.667378 0.807390
Si Si4 0.262929 0.682936 0.884702
Si Si5 0.677903 0.791583 0.351315
O O1 0.803619 0.245596 0.527955
O O2 0.927641 0.068423 0.290759
O O3 0.787647 0.170164 0.021816
O O4 0.605666 0.953561 0.255504
O O5 0.699459 0.084834 0.021684
O O6 0.138252 0.627654 0.836993
O O7 0.898380 0.738323 0.063959
O O8 0.500805 0.684194 0.575518
O O9 0.173576 0.657928 0.930049
#
# Coordination Sequence:
#
# PCOD9275125 Si02
#       5
#     4   8   8   8   8
#     4   8  18  38  64  88 120 174 208 242 316 390
#     4   9  19  38  63  93 118 179 204 267 305 393
#     4   9  21  40  65  89 133 167 215 252 331 373
#     4  10  20  38  69  90 134 155 225 261 327 361
#     4  10  21  36  63 100 126 167 201 279 308 376
#
# _framework density 25.093506999999999
#
# number of rings (size 3 to 8) (size 9 to 14) (size 15 to 20)
#    1.333    1.333    0.000    1.333    0.000    7.111 
#    0.000    1.111   14.667    0.000    0.000    0.000 
#    0.000    0.000    0.000    0.000    0.000    0.000 
#
# Total GULP energy -100360.385080 kJ/mol
# GULP energy per Si atom -5575.576949 kJ/mol
# Density = 2.503639 g / cm^3
# Si number density = 25.093507 Si / 1000 Ang^3
#
#
#
# Elastic Constant Matrix: (Units=GPa)
#
#
# Indices 1 2 3 4 5 6 
#
# 1 227.5235 54.0902 67.5631 0.0003 11.1182 -0.0017
# 2 54.0902 35.9416 28.8531 -0.0002 8.0242 -0.0007
# 3 67.5631 28.8531 188.9355 -0.0069 -5.6739 0.0054
# 4 0.0003 -0.0002 -0.0069 36.9995 0.0007 -21.9369
# 5 11.1182 8.0242 -5.6739 0.0007 41.3425 0.0017
# 6 -0.0017 -0.0007 0.0054 -21.9369 0.0017 86.0553
#
#
#
# Elastic Compliance Matrix: (Units=1/GPa)
#
#
# Indices 1 2 3 4 5 6 
#
# 1 0.007013 -0.009693 -0.001032 0.000000 -0.000146 0.000000
# 2 -0.009693 0.047164 -0.003949 0.000000 -0.007089 0.000001
# 3 -0.001032 -0.003949 0.006322 0.000001 0.001912 0.000000
# 4 0.000000 0.000000 0.000001 0.031840 -0.000001 0.008116
# 5 -0.000146 -0.007089 0.001912 -0.000001 0.025866 -0.000001
# 6 0.000000 0.000001 0.000000 0.008116 -0.000001 0.013689
#
#
# Mechanical properties :
#
#
# Convention : Reuss Voigt Hill
#
# Bulk Modulus (GPa) = 32.10228 83.71262 57.90745
# Shear Modulus (GPa) = 29.13296 53.00573 41.06934
#
# Velocity S-wave (km/s) = 3.41101 4.60099 4.04994
# Velocity P-wave (km/s) = 5.32298 7.85227 6.70792
#
# Compressibility (1/GPa) = 0.03115043
#
# Stress axis : x y z
#
# Youngs Moduli (GPa) = 142.58829 21.20264 158.16898
#
# Poissons Ratio (x) = 0.20553 0.16323
# Poissons Ratio (y) = 1.38216 0.62463
# Poissons Ratio (z) = 0.14715 0.08373
#
# Static dielectric constant tensor:
#      x y z
#    x 1.953210 0.000000 -0.033420 
#    y 0.000000 2.016990 0.000000 
#    z -0.033420 0.000000 2.105490 
# 
# From -- ./inp_files/219487.got.cif
#   From: 2010.05.17/outbox.cif.g08.bks.cpg/sg15_110_cif.got.tgz:219487.got - 2010.06.03 18:47:42.
