data_PCOD9275046
_publ_section_title
;
Structure prediction by ZEFSAII (Michael W. Deem and Ramdas Pophale) SiO2 
 PCOD9275046
Probable space group: C 2/C
;
_chemical_formula_sum "Si O2"
_cell_formula_units_Z 40
_cell_length_a 18.909421
_cell_length_b 10.663704
_cell_length_c 25.951513
_cell_angle_alpha 90.000000
_cell_angle_beta 161.386036
_cell_angle_gamma 90.000000
_cell_volume 1670.316087
_symmetry_space_group_name_H-M "C 2/C"
_symmetry_group_IT_number 15
_symmetry_cell_setting 'monoclinic'
loop_
_space_group_symop_operation_xyz
x,y,z
-x,y,1/2-z
-x,-y,-z
x,-y,1/2+z
1/2+x,1/2+y,z
1/2-x,1/2+y,1/2-z
1/2-x,1/2-y,-z
1/2+x,1/2-y,1/2+z
loop_
_atom_site_type_symbol
_atom_site_label
_atom_site_fract_x
_atom_site_fract_y
_atom_site_fract_z
Si Si1 0.742874 0.750063 0.556013
Si Si2 0.870242 0.027784 0.527506
Si Si3 0.824126 0.109870 0.387057
Si Si4 0.323966 0.109769 0.886957
Si Si5 0.870584 0.472215 0.527754
O O1 0.750000 0.750000 0.500000
O O2 0.410560 0.750063 0.437733
O O3 0.628110 0.881803 0.489030
O O4 0.000000 0.750269 0.750000
O O5 0.760333 0.098588 0.403631
O O6 0.113158 0.081912 0.705805
O O7 0.871288 0.881819 0.510506
O O8 0.749780 0.036001 0.499836
O O9 0.000000 0.000000 0.500000
O O10 0.260321 0.098456 0.903641
O O11 0.386607 0.917909 0.794072
O O12 0.500000 0.000000 0.000000
#
# Coordination Sequence:
#
# PCOD9275046 Si02
#       5
#     8   8   8   8   8
#     4  10  20  38  68 106 138 172 221 282 351 404
#     4  11  24  44  74 104 138 180 239 293 346 410
#     4  12  28  46  70 101 144 190 230 287 356 417
#     4  12  28  46  70 101 144 190 230 287 356 417
#     4  11  24  44  74 104 138 180 239 293 346 410
#
# _framework density 23.947562000000001
#
# number of rings (size 3 to 8) (size 9 to 14) (size 15 to 20)
#    0.000    0.800    0.000    8.400    5.600    4.800 
#    0.000    0.000    0.000    0.000    0.000    0.000 
#    0.000    0.000    0.000    0.000    0.000    0.000 
#
# Total GULP energy -111928.962944 kJ/mol
# GULP energy per Si atom -5596.448147 kJ/mol
# Density = 2.389306 g / cm^3
# Si number density = 23.947562 Si / 1000 Ang^3
#
#
#
# Elastic Constant Matrix: (Units=GPa)
#
#
# Indices 1 2 3 4 5 6 
#
# 1 99.8571 34.4872 8.7968 0.0622 -16.1245 -0.0188
# 2 34.4872 211.1965 32.4270 -0.1027 4.2585 0.0020
# 3 8.7968 32.4270 110.1728 -0.1222 -31.7617 0.0114
# 4 0.0622 -0.1027 -0.1222 39.0279 0.0022 -0.2317
# 5 -16.1245 4.2585 -31.7617 0.0022 44.0085 0.0033
# 6 -0.0188 0.0020 0.0114 -0.2317 0.0033 33.2693
#
#
#
# Elastic Compliance Matrix: (Units=1/GPa)
#
#
# Indices 1 2 3 4 5 6 
#
# 1 0.011520 -0.002183 0.001263 -0.000020 0.005344 0.000006
# 2 -0.002183 0.005507 -0.002312 0.000011 -0.003001 0.000000
# 3 0.001263 -0.002312 0.012443 0.000030 0.009667 -0.000004
# 4 -0.000020 0.000011 0.000030 0.025624 0.000012 0.000178
# 5 0.005344 -0.003001 0.009667 0.000012 0.031948 -0.000003
# 6 0.000006 0.000000 -0.000004 0.000178 -0.000003 0.030059
#
#
# Mechanical properties :
#
#
# Convention : Reuss Voigt Hill
#
# Bulk Modulus (GPa) = 43.46499 63.62760 53.54629
# Shear Modulus (GPa) = 38.10040 46.29551 42.19796
#
# Velocity S-wave (km/s) = 3.99305 4.40159 4.20229
# Velocity P-wave (km/s) = 6.28083 7.24287 6.77894
#
# Compressibility (1/GPa) = 0.02300702
#
# Stress axis : x y z
#
# Youngs Moduli (GPa) = 86.80718 181.59306 80.36591
#
# Poissons Ratio (x) = 0.39638 -0.10151
# Poissons Ratio (y) = 0.18948 0.18578
# Poissons Ratio (z) = -0.10965 0.41978
#
# Static dielectric constant tensor:
#      x y z
#    x 1.966370 -0.000030 0.026580 
#    y -0.000030 1.956870 -0.000070 
#    z 0.026580 -0.000070 1.815800 
# 
# From -- ./inp_files/244424.got.cif
#   From: 2010.05.17/outbox.cif.g08.bks.cpg/sg15_123_cif.got.tgz:244424.got - 2010.06.03 18:47:42.
