data_PCOD9275403
_publ_section_title
;
Structure prediction by ZEFSAII (Michael W. Deem and Ramdas Pophale) SiO2 
 PCOD9275403
Probable space group: C 2/C
;
_chemical_formula_sum "Si O2"
_cell_formula_units_Z 60
_cell_length_a 16.157885
_cell_length_b 9.471006
_cell_length_c 28.322509
_cell_angle_alpha 90.000000
_cell_angle_beta 134.396066
_cell_angle_gamma 90.000000
_cell_volume 3096.899941
_symmetry_space_group_name_H-M "C 2/C"
_symmetry_group_IT_number 15
_symmetry_cell_setting 'monoclinic'
loop_
_space_group_symop_operation_xyz
x,y,z
-x,y,1/2-z
-x,-y,-z
x,-y,1/2+z
1/2+x,1/2+y,z
1/2-x,1/2+y,1/2-z
1/2-x,1/2-y,-z
1/2+x,1/2-y,1/2+z
loop_
_atom_site_type_symbol
_atom_site_label
_atom_site_fract_x
_atom_site_fract_y
_atom_site_fract_z
Si Si1 0.067533 0.926288 0.870945
Si Si2 0.261743 0.358614 0.206104
Si Si3 0.176448 0.958872 0.679497
Si Si4 0.440820 0.124223 0.945526
Si Si5 0.248777 0.083375 0.006031
Si Si6 0.000000 0.929212 0.250000
Si Si7 0.375178 0.570537 0.446519
Si Si8 0.125407 0.326547 0.444104
O O1 0.078036 0.758016 0.880546
O O2 0.958633 0.966271 0.860188
O O3 0.175461 0.012873 0.934789
O O4 0.049030 0.974682 0.811021
O O5 0.222453 0.200393 0.202530
O O6 0.266849 0.444196 0.257412
O O7 0.163435 0.421863 0.131392
O O8 0.387497 0.354370 0.229533
O O9 0.182759 0.983553 0.625478
O O10 0.387366 0.258366 0.951539
O O11 0.541184 0.197962 0.954352
O O12 0.500000 0.000000 0.000000
O O13 0.250000 0.250000 0.000000
O O14 0.193482 0.038340 0.033572
O O15 0.367444 0.995523 0.054661
O O16 0.500000 0.500000 0.500000
O O17 0.250000 0.250000 0.500000
#
# Coordination Sequence:
#
# PCOD9275403 Si02
#       8
#     8   8   8   8   8   4   8   8
#     4  10  20  43  61  86 124 167 206 253 306 377
#     4  10  23  43  65  89 125 167 209 261 306 378
#     4  10  21  43  63  87 126 162 211 255 313 371
#     4  11  23  39  64  93 125 159 213 254 306 377
#     4  11  23  36  62  94 129 156 204 260 315 361
#     4  10  24  40  68  86 122 174 208 248 320 374
#     4  11  20  39  61  90 123 164 198 260 315 365
#     4  10  20  39  61  87 123 162 197 255 303 364
#
# _framework density 19.374213000000001
#
# number of rings (size 3 to 8) (size 9 to 14) (size 15 to 20)
#    0.000    1.600    4.000    1.600    7.467    1.067 
#    9.600    0.000    0.000    0.800    0.000    0.000 
#    0.000    0.000    0.000    0.000    0.000    0.000 
#
# Total GULP energy -167060.464921 kJ/mol
# GULP energy per Si atom -5568.682164 kJ/mol
# Density = 1.933012 g / cm^3
# Si number density = 19.374213 Si / 1000 Ang^3
#
#
#
# Elastic Constant Matrix: (Units=GPa)
#
#
# Indices 1 2 3 4 5 6 
#
# 1 54.1735 -10.7092 10.2125 0.0000 -9.3287 0.0000
# 2 -10.7092 75.3425 35.8799 0.0000 -4.5039 0.0000
# 3 10.2125 35.8799 120.3816 0.0000 -14.9317 0.0000
# 4 0.0000 0.0000 0.0000 30.3024 0.0000 3.1411
# 5 -9.3287 -4.5039 -14.9317 0.0000 30.8682 0.0000
# 6 0.0000 0.0000 0.0000 3.1411 0.0000 25.2659
#
#
#
# Elastic Compliance Matrix: (Units=1/GPa)
#
#
# Indices 1 2 3 4 5 6 
#
# 1 0.020775 0.004424 -0.002364 0.000000 0.005780 0.000000
# 2 0.004424 0.016411 -0.005110 0.000000 0.001260 0.000000
# 3 -0.002364 -0.005110 0.010478 0.000000 0.003608 0.000000
# 4 0.000000 0.000000 0.000000 0.033432 0.000000 -0.004156
# 5 0.005780 0.001260 0.003608 0.000000 0.036072 0.000000
# 6 0.000000 0.000000 0.000000 -0.004156 0.000000 0.040096
#
#
# Mechanical properties :
#
#
# Convention : Reuss Voigt Hill
#
# Bulk Modulus (GPa) = 24.05964 35.62934 29.84449
# Shear Modulus (GPa) = 28.21391 31.58824 29.90108
#
# Velocity S-wave (km/s) = 3.82024 4.04224 3.93280
# Velocity P-wave (km/s) = 5.64839 6.34163 6.00502
#
# Compressibility (1/GPa) = 0.04156339
#
# Stress axis : x y z
#
# Youngs Moduli (GPa) = 48.13512 60.93649 95.43635
#
# Poissons Ratio (x) = -0.26960 0.22562
# Poissons Ratio (y) = -0.21297 0.48771
# Poissons Ratio (z) = 0.11380 0.31140
#
# Static dielectric constant tensor:
#      x y z
#    x 2.140450 0.000000 -0.047310 
#    y 0.000000 1.648870 0.000000 
#    z -0.047310 0.000000 1.732040 
# 
# From -- ./inp_files/298407.got.cif
#   From: 2010.05.17/outbox.cif.g08.bks.cpg/sg15_150_cif.got.tgz:298407.got - 2010.06.03 18:47:42.
