data_PCOD9275481
_publ_section_title
;
Structure prediction by ZEFSAII (Michael W. Deem and Ramdas Pophale) SiO2 
 PCOD9275481
Probable space group: C 2/C
;
_chemical_formula_sum "Si O2"
_cell_formula_units_Z 56
_cell_length_a 12.965035
_cell_length_b 13.254233
_cell_length_c 17.194163
_cell_angle_alpha 90.000000
_cell_angle_beta 120.603370
_cell_angle_gamma 90.000000
_cell_volume 2543.122233
_symmetry_space_group_name_H-M "C 2/C"
_symmetry_group_IT_number 15
_symmetry_cell_setting 'monoclinic'
loop_
_space_group_symop_operation_xyz
x,y,z
-x,y,1/2-z
-x,-y,-z
x,-y,1/2+z
1/2+x,1/2+y,z
1/2-x,1/2+y,1/2-z
1/2-x,1/2-y,-z
1/2+x,1/2-y,1/2+z
loop_
_atom_site_type_symbol
_atom_site_label
_atom_site_fract_x
_atom_site_fract_y
_atom_site_fract_z
Si Si1 0.576898 0.286091 0.998652
Si Si2 0.071666 0.106883 0.646597
Si Si3 0.829943 0.196010 0.133062
Si Si4 0.079379 0.398184 0.023708
Si Si5 0.500000 0.127607 0.750000
Si Si6 0.000000 0.035122 0.250000
Si Si7 0.819837 0.523569 0.794791
Si Si8 0.533884 0.161850 0.174322
O O1 0.541614 0.373501 0.045105
O O2 0.690620 0.221667 0.074572
O O3 0.620834 0.328765 0.934116
O O4 0.474071 0.201810 0.955630
O O5 0.994671 0.034670 0.672005
O O6 0.204697 0.061329 0.704651
O O7 0.062823 0.220242 0.677011
O O8 0.895542 0.299959 0.179388
O O9 0.885092 0.109042 0.208103
O O10 0.189173 0.431605 0.120881
O O11 0.000000 0.500000 0.000000
O O12 0.069827 0.368371 0.928757
O O13 0.438894 0.066686 0.796649
O O14 0.850869 0.405713 0.803038
O O15 0.500000 0.141520 0.250000
#
# Coordination Sequence:
#
# PCOD9275481 Si02
#       8
#     8   8   8   8   4   4   8   8
#     4  10  20  39  62  87 123 157 199 255 308 352
#     4  11  24  40  61  87 124 165 195 251 304 371
#     4  10  22  37  62  91 119 156 205 256 299 364
#     4   9  20  34  59  87 117 151 198 247 298 350
#     4  11  18  35  60  94 114 145 208 259 286 354
#     4  11  26  41  60  86 126 165 204 245 314 364
#     4  11  21  37  63  89 117 159 204 246 304 353
#     4  10  21  40  61  84 120 160 200 245 301 359
#
# _framework density 22.020175999999999
#
# number of rings (size 3 to 8) (size 9 to 14) (size 15 to 20)
#    0.000    1.714    4.286    0.000    6.000    0.571 
#    0.000    0.714    0.000    0.000    0.000    0.000 
#    0.000    0.000    0.000    0.000    0.000    0.000 
#
# Total GULP energy -156197.426064 kJ/mol
# GULP energy per Si atom -5578.479502 kJ/mol
# Density = 2.197006 g / cm^3
# Si number density = 22.020176 Si / 1000 Ang^3
#
#
#
# Elastic Constant Matrix: (Units=GPa)
#
#
# Indices 1 2 3 4 5 6 
#
# 1 53.1503 10.1099 5.0976 0.0000 -20.0876 0.0000
# 2 10.1099 98.8531 10.6772 0.0000 -4.4709 0.0000
# 3 5.0976 10.6772 32.6000 0.0000 -20.4526 0.0000
# 4 0.0000 0.0000 0.0000 40.8148 0.0000 -8.1146
# 5 -20.0876 -4.4709 -20.4526 0.0000 39.6542 0.0000
# 6 0.0000 0.0000 0.0000 -8.1146 0.0000 18.4144
#
#
#
# Elastic Compliance Matrix: (Units=1/GPa)
#
#
# Indices 1 2 3 4 5 6 
#
# 1 0.024570 -0.002541 0.006829 0.000000 0.015682 0.000000
# 2 -0.002541 0.010770 -0.004695 0.000000 -0.002495 0.000000
# 3 0.006829 -0.004695 0.048762 0.000000 0.028080 0.000000
# 4 0.000000 0.000000 0.000000 0.026854 0.000000 0.011833
# 5 0.015682 -0.002495 0.028080 0.000000 0.047364 0.000000
# 6 0.000000 0.000000 0.000000 0.011833 0.000000 0.059520
#
#
# Mechanical properties :
#
#
# Convention : Reuss Voigt Hill
#
# Bulk Modulus (GPa) = 12.00668 26.26366 19.13517
# Shear Modulus (GPa) = 20.29089 30.35792 25.32441
#
# Velocity S-wave (km/s) = 3.03886 3.71703 3.39492
# Velocity P-wave (km/s) = 4.21632 5.51133 4.90674
#
# Compressibility (1/GPa) = 0.08328697
#
# Stress axis : x y z
#
# Youngs Moduli (GPa) = 40.70024 92.84868 20.50794
#
# Poissons Ratio (x) = 0.23594 -0.14005
# Poissons Ratio (y) = 0.10343 0.09629
# Poissons Ratio (z) = -0.27794 0.43594
#
# Static dielectric constant tensor:
#      x y z
#    x 1.874070 0.000000 -0.053900 
#    y 0.000000 1.802830 0.000000 
#    z -0.053900 0.000000 1.854310 
# 
# From -- ./inp_files/205526.got.cif
#   From: 2010.05.17/outbox.cif.g08.bks.cpg/sg15_103_cif.got.tgz:205526.got - 2010.06.03 18:47:42.
