data_PCOD9275909
_publ_section_title
;
Structure prediction by ZEFSAII (Michael W. Deem and Ramdas Pophale) SiO2 
 PCOD9275909
Probable space group: C 2/C
;
_chemical_formula_sum "Si O2"
_cell_formula_units_Z 56
_cell_length_a 17.405416
_cell_length_b 19.551517
_cell_length_c 14.517214
_cell_angle_alpha 90.000000
_cell_angle_beta 148.130721
_cell_angle_gamma 90.000000
_cell_volume 2608.363600
_symmetry_space_group_name_H-M "C 2/C"
_symmetry_group_IT_number 15
_symmetry_cell_setting 'monoclinic'
loop_
_space_group_symop_operation_xyz
x,y,z
-x,y,1/2-z
-x,-y,-z
x,-y,1/2+z
1/2+x,1/2+y,z
1/2-x,1/2+y,1/2-z
1/2-x,1/2-y,-z
1/2+x,1/2-y,1/2+z
loop_
_atom_site_type_symbol
_atom_site_label
_atom_site_fract_x
_atom_site_fract_y
_atom_site_fract_z
Si Si1 0.215419 0.369084 0.767319
Si Si2 0.971529 0.183432 0.111359
Si Si3 0.928216 0.341852 0.582475
Si Si4 0.865903 0.955122 0.774965
Si Si5 0.078402 0.063551 0.926655
Si Si6 0.201146 0.268030 0.230520
Si Si7 0.169090 0.480339 0.929642
O O1 0.264375 0.433471 0.756067
O O2 0.210045 0.300687 0.703605
O O3 0.068382 0.374202 0.674023
O O4 0.362360 0.364036 0.978721
O O5 0.033223 0.109231 0.145822
O O6 0.066114 0.239983 0.152542
O O7 0.000000 0.191892 0.250000
O O8 0.807390 0.188431 0.904807
O O9 0.845649 0.301742 0.415820
O O10 0.832052 0.404762 0.523497
O O11 0.000000 0.308591 0.750000
O O12 0.752515 0.966804 0.577936
O O13 0.966898 0.022758 0.877468
O O14 0.000000 0.069491 0.750000
O O15 0.229101 0.024090 0.056431
O O16 0.000000 0.498121 0.750000
#
# Coordination Sequence:
#
# PCOD9275909 Si02
#       7
#     8   8   8   8   8   8   8
#     4  11  22  43  61  97 135 173 230 273 334 401
#     4  11  23  47  69  97 134 174 222 286 340 398
#     4  11  23  44  66  97 142 181 221 280 335 400
#     4  10  24  41  65 101 131 169 227 280 338 406
#     4  10  20  39  65  95 131 171 220 270 336 402
#     4  11  25  43  69  98 133 177 237 272 329 409
#     4  10  20  41  65  93 133 175 219 270 342 407
#
# _framework density 21.469398999999999
#
# number of rings (size 3 to 8) (size 9 to 14) (size 15 to 20)
#    0.000    1.429    4.286    2.143    0.000    7.429 
#    5.143    1.429    0.000    0.000    0.000    0.000 
#    0.000    0.000    0.000    0.000    0.000    0.000 
#
# Total GULP energy -155962.295157 kJ/mol
# GULP energy per Si atom -5570.081970 kJ/mol
# Density = 2.142053 g / cm^3
# Si number density = 21.469399 Si / 1000 Ang^3
#
#
#
# Elastic Constant Matrix: (Units=GPa)
#
#
# Indices 1 2 3 4 5 6 
#
# 1 117.7676 17.5642 16.3576 0.0000 -11.6190 0.0000
# 2 17.5642 48.6023 29.3336 0.0000 -1.6561 0.0000
# 3 16.3576 29.3336 103.6092 0.0000 -3.7950 0.0000
# 4 0.0000 0.0000 0.0000 34.7395 0.0000 -7.4175
# 5 -11.6190 -1.6561 -3.7950 0.0000 38.4632 0.0000
# 6 0.0000 0.0000 0.0000 -7.4175 0.0000 19.0263
#
#
#
# Elastic Compliance Matrix: (Units=1/GPa)
#
#
# Indices 1 2 3 4 5 6 
#
# 1 0.009262 -0.002935 -0.000535 0.000000 0.002619 0.000000
# 2 -0.002935 0.025751 -0.006844 0.000000 -0.000453 0.000000
# 3 -0.000535 -0.006844 0.011699 0.000000 0.000698 0.000000
# 4 0.000000 0.000000 0.000000 0.031399 0.000000 0.012241
# 5 0.002619 -0.000453 0.000698 0.000000 0.026839 0.000000
# 6 0.000000 0.000000 0.000000 0.012241 0.000000 0.057331
#
#
# Mechanical properties :
#
#
# Convention : Reuss Voigt Hill
#
# Bulk Modulus (GPa) = 38.33757 44.05443 41.19600
# Shear Modulus (GPa) = 26.09545 32.22736 29.16141
#
# Velocity S-wave (km/s) = 3.49014 3.87859 3.68948
# Velocity P-wave (km/s) = 5.84270 6.37355 6.11388
#
# Compressibility (1/GPa) = 0.02608407
#
# Stress axis : x y z
#
# Youngs Moduli (GPa) = 107.97143 38.83372 85.47478
#
# Poissons Ratio (x) = 0.11396 0.04577
# Poissons Ratio (y) = 0.31686 0.58497
# Poissons Ratio (z) = 0.05781 0.26577
#
# Static dielectric constant tensor:
#      x y z
#    x 1.884210 0.000000 -0.149790 
#    y 0.000000 1.776870 0.000000 
#    z -0.149790 0.000000 1.955160 
# 
# From -- ./inp_files/163822.got.cif
#   From: 2010.05.17/outbox.cif.g08.bks.cpg/sg15_82_cif.got.tgz:163822.got - 2010.06.03 18:47:42.
