data_PCOD9275527
_publ_section_title
;
Structure prediction by ZEFSAII (Michael W. Deem and Ramdas Pophale) SiO2 
 PCOD9275527
Probable space group: C 2/C
;
_chemical_formula_sum "Si O2"
_cell_formula_units_Z 48
_cell_length_a 23.466755
_cell_length_b 16.055341
_cell_length_c 12.061681
_cell_angle_alpha 90.000000
_cell_angle_beta 155.353090
_cell_angle_gamma 90.000000
_cell_volume 1895.145597
_symmetry_space_group_name_H-M "C 2/C"
_symmetry_group_IT_number 15
_symmetry_cell_setting 'monoclinic'
loop_
_space_group_symop_operation_xyz
x,y,z
-x,y,1/2-z
-x,-y,-z
x,-y,1/2+z
1/2+x,1/2+y,z
1/2-x,1/2+y,1/2-z
1/2-x,1/2-y,-z
1/2+x,1/2-y,1/2+z
loop_
_atom_site_type_symbol
_atom_site_label
_atom_site_fract_x
_atom_site_fract_y
_atom_site_fract_z
Si Si1 0.625784 0.125259 0.322429
Si Si2 0.292257 0.469215 0.576938
Si Si3 0.676238 0.838132 0.237010
Si Si4 0.626097 0.722670 0.677538
Si Si5 0.983888 0.894699 0.090450
Si Si6 0.398064 0.212379 0.644416
O O1 0.656188 0.181706 0.264820
O O2 0.740282 0.166799 0.604520
O O3 0.662883 0.028948 0.372334
O O4 0.467928 0.139836 0.071552
O O5 0.271299 0.417558 0.426234
O O6 0.412289 0.533262 0.761670
O O7 0.343249 0.419016 0.777384
O O8 0.640336 0.825169 0.305295
O O9 0.763214 0.756619 0.358298
O O10 0.544654 0.687163 0.639714
O O11 0.512084 0.718820 0.382329
O O12 0.000000 0.885615 0.250000
O O13 0.500000 0.156755 0.750000
#
# Coordination Sequence:
#
# PCOD9275527 Si02
#       6
#     8   8   8   8   8   8
#     4   9  19  36  62  83 125 165 189 266 326 351
#     4  10  20  39  62  91 129 162 213 267 321 382
#     4  10  20  39  62  91 130 164 212 270 316 380
#     4   9  18  40  61  90 123 163 216 258 306 382
#     4  10  21  39  66  90 121 175 219 260 315 389
#     4  10  21  39  65  92 126 177 215 262 317 382
#
# _framework density 25.327869
#
# number of rings (size 3 to 8) (size 9 to 14) (size 15 to 20)
#    0.000    2.333    1.667    0.500    0.000    0.667 
#   15.000    0.833    0.000    0.000    0.000    0.000 
#    0.000    0.000    0.000    0.000    0.000    0.000 
#
# Total GULP energy -133863.390656 kJ/mol
# GULP energy per Si atom -5577.641277 kJ/mol
# Density = 2.527022 g / cm^3
# Si number density = 25.327869 Si / 1000 Ang^3
#
#
#
# Elastic Constant Matrix: (Units=GPa)
#
#
# Indices 1 2 3 4 5 6 
#
# 1 76.6004 -8.5529 6.8380 0.0000 -12.5444 0.0000
# 2 -8.5529 78.2264 23.9746 0.0000 -6.1498 0.0000
# 3 6.8380 23.9746 147.4373 0.0000 -9.4746 0.0000
# 4 0.0000 0.0000 0.0000 19.7730 0.0000 -3.1467
# 5 -12.5444 -6.1498 -9.4746 0.0000 49.6228 0.0000
# 6 0.0000 0.0000 0.0000 -3.1467 0.0000 20.3084
#
#
#
# Elastic Compliance Matrix: (Units=1/GPa)
#
#
# Indices 1 2 3 4 5 6 
#
# 1 0.013944 0.002039 -0.000745 0.000000 0.003636 0.000000
# 2 0.002039 0.013831 -0.002228 0.000000 0.001804 0.000000
# 3 -0.000745 -0.002228 0.007238 0.000000 0.000918 0.000000
# 4 0.000000 0.000000 0.000000 0.051853 0.000000 0.008034
# 5 0.003636 0.001804 0.000918 0.000000 0.021470 0.000000
# 6 0.000000 0.000000 0.000000 0.008034 0.000000 0.050485
#
#
# Mechanical properties :
#
#
# Convention : Reuss Voigt Hill
#
# Bulk Modulus (GPa) = 30.16945 38.53149 34.35047
# Shear Modulus (GPa) = 29.11424 36.60780 32.86102
#
# Velocity S-wave (km/s) = 3.39410 3.80591 3.60589
# Velocity P-wave (km/s) = 5.22468 5.87872 5.56132
#
# Compressibility (1/GPa) = 0.03314612
#
# Stress axis : x y z
#
# Youngs Moduli (GPa) = 71.71434 72.30215 138.15426
#
# Poissons Ratio (x) = -0.14740 0.10287
# Poissons Ratio (y) = -0.14620 0.30776
# Poissons Ratio (z) = 0.05340 0.16106
#
# Static dielectric constant tensor:
#      x y z
#    x 2.252220 0.000000 -0.030800 
#    y 0.000000 2.053000 0.000000 
#    z -0.030800 0.000000 2.071950 
# 
# From -- ./inp_files/182984.got.cif
#   From: 2010.05.17/outbox.cif.g08.bks.cpg/sg15_92_cif.got.tgz:182984.got - 2010.06.03 18:47:42.
