data_PCOD9275206
_publ_section_title
;
Structure prediction by ZEFSAII (Michael W. Deem and Ramdas Pophale) SiO2 
 PCOD9275206
Probable space group: C 2/C
;
_chemical_formula_sum "Si O2"
_cell_formula_units_Z 48
_cell_length_a 23.991482
_cell_length_b 6.918499
_cell_length_c 13.788036
_cell_angle_alpha 90.000000
_cell_angle_beta 68.822670
_cell_angle_gamma 90.000000
_cell_volume 2134.050784
_symmetry_space_group_name_H-M "C 2/C"
_symmetry_group_IT_number 15
_symmetry_cell_setting 'monoclinic'
loop_
_space_group_symop_operation_xyz
x,y,z
-x,y,1/2-z
-x,-y,-z
x,-y,1/2+z
1/2+x,1/2+y,z
1/2-x,1/2+y,1/2-z
1/2-x,1/2-y,-z
1/2+x,1/2-y,1/2+z
loop_
_atom_site_type_symbol
_atom_site_label
_atom_site_fract_x
_atom_site_fract_y
_atom_site_fract_z
Si Si1 0.558297 0.492233 0.528093
Si Si2 0.235200 0.349755 0.112751
Si Si3 0.395793 0.931746 0.258033
Si Si4 0.750000 0.250000 0.000000
Si Si5 0.849383 0.326863 0.608009
Si Si6 0.872810 0.332590 0.954794
Si Si7 0.000000 0.829727 0.750000
O O1 0.500000 0.500000 0.500000
O O2 0.605003 0.328174 0.466079
O O3 0.586788 0.703127 0.503947
O O4 0.539323 0.452340 0.650715
O O5 0.166580 0.315169 0.186672
O O6 0.284577 0.272934 0.157307
O O7 0.250000 0.250000 0.000000
O O8 0.241427 0.577061 0.087730
O O9 0.453836 0.798026 0.215244
O O10 0.380624 0.078532 0.181213
O O11 0.406030 0.055305 0.349498
O O12 0.678920 0.302207 0.054700
O O13 0.839224 0.506728 0.540520
#
# Coordination Sequence:
#
# PCOD9275206 Si02
#       7
#     8   8   8   4   8   8   4
#     4  12  28  46  73 104 141 198 248 306 360 446
#     4  11  21  47  72 102 144 189 235 303 366 423
#     4  11  27  43  74 107 144 196 236 305 367 440
#     4  10  20  38  74 100 132 186 228 282 366 422
#     4  12  25  49  73 107 148 186 246 304 365 440
#     4  11  24  45  71 104 140 188 235 304 365 424
#     4  12  26  50  72 104 152 200 246 304 380 436
#
# _framework density 22.492435
#
# number of rings (size 3 to 8) (size 9 to 14) (size 15 to 20)
#    0.000    0.667    6.667    1.000    4.667    4.000 
#    3.000    0.000    0.000    0.000    0.000    0.000 
#    0.000    0.000    0.000    0.000    0.000    0.000 
#
# Total GULP energy -133640.370352 kJ/mol
# GULP energy per Si atom -5568.348765 kJ/mol
# Density = 2.244124 g / cm^3
# Si number density = 22.492435 Si / 1000 Ang^3
#
#
#
# Elastic Constant Matrix: (Units=GPa)
#
#
# Indices 1 2 3 4 5 6 
#
# 1 110.2765 44.4584 7.0002 0.0000 -9.9528 0.0000
# 2 44.4584 52.8394 13.1777 0.0000 -1.3941 0.0000
# 3 7.0002 13.1777 35.3574 0.0000 -0.0289 0.0000
# 4 0.0000 0.0000 0.0000 11.4424 0.0000 7.7277
# 5 -9.9528 -1.3941 -0.0289 0.0000 36.7603 0.0000
# 6 0.0000 0.0000 0.0000 7.7277 0.0000 32.8147
#
#
#
# Elastic Compliance Matrix: (Units=1/GPa)
#
#
# Indices 1 2 3 4 5 6 
#
# 1 0.014231 -0.012328 0.001780 0.000000 0.003387 0.000000
# 2 -0.012328 0.031567 -0.009326 0.000000 -0.002148 0.000000
# 3 0.001780 -0.009326 0.031406 0.000000 0.000153 0.000000
# 4 0.000000 0.000000 0.000000 0.103923 0.000000 -0.024473
# 5 0.003387 -0.002148 0.000153 0.000000 0.028039 0.000000
# 6 0.000000 0.000000 0.000000 -0.024473 0.000000 0.036238
#
#
# Mechanical properties :
#
#
# Convention : Reuss Voigt Hill
#
# Bulk Modulus (GPa) = 26.69823 36.41622 31.55722
# Shear Modulus (GPa) = 16.79893 25.12593 20.96243
#
# Velocity S-wave (km/s) = 2.73586 3.34591 3.05614
# Velocity P-wave (km/s) = 4.67713 5.58143 5.14917
#
# Compressibility (1/GPa) = 0.03745567
#
# Stress axis : x y z
#
# Youngs Moduli (GPa) = 70.26903 31.67824 31.84090
#
# Poissons Ratio (x) = 0.39054 -0.05668
# Poissons Ratio (y) = 0.86630 0.29695
# Poissons Ratio (z) = -0.12508 0.29544
#
# Static dielectric constant tensor:
#      x y z
#    x 1.903580 0.000000 0.016070 
#    y 0.000000 1.872190 0.000000 
#    z 0.016070 0.000000 1.868490 
# 
# From -- ./inp_files/166167.got.cif
#   From: 2010.05.17/outbox.cif.g08.bks.cpg/sg15_84_cif.got.tgz:166167.got - 2010.06.03 18:47:42.
