data_PCOD9275480
_publ_section_title
;
Structure prediction by ZEFSAII (Michael W. Deem and Ramdas Pophale) SiO2 
 PCOD9275480
Probable space group: C 2/C
;
_chemical_formula_sum "Si O2"
_cell_formula_units_Z 52
_cell_length_a 8.691255
_cell_length_b 17.698269
_cell_length_c 23.910334
_cell_angle_alpha 90.000000
_cell_angle_beta 47.388314
_cell_angle_gamma 90.000000
_cell_volume 2706.777497
_symmetry_space_group_name_H-M "C 2/C"
_symmetry_group_IT_number 15
_symmetry_cell_setting 'monoclinic'
loop_
_space_group_symop_operation_xyz
x,y,z
-x,y,1/2-z
-x,-y,-z
x,-y,1/2+z
1/2+x,1/2+y,z
1/2-x,1/2+y,1/2-z
1/2-x,1/2-y,-z
1/2+x,1/2-y,1/2+z
loop_
_atom_site_type_symbol
_atom_site_label
_atom_site_fract_x
_atom_site_fract_y
_atom_site_fract_z
Si Si1 0.801027 0.910775 0.894897
Si Si2 0.346716 0.853007 0.029355
Si Si3 0.571799 0.247903 0.668818
Si Si4 0.613560 0.893281 0.351163
Si Si5 0.333944 0.553579 0.511158
Si Si6 0.000000 0.987156 0.250000
Si Si7 0.992201 0.812210 0.470102
O O1 0.914708 0.829069 0.864865
O O2 0.893726 0.960395 0.822664
O O3 0.553775 0.891972 0.952866
O O4 0.827259 0.954866 0.946506
O O5 0.327214 0.878847 0.098198
O O6 0.154967 0.861123 0.034130
O O7 0.381578 0.762339 0.020727
O O8 0.500000 0.257969 0.750000
O O9 0.441678 0.184960 0.666607
O O10 0.807715 0.216477 0.613032
O O11 0.401276 0.943905 0.405866
O O12 0.809851 0.935018 0.275160
O O13 0.500000 0.500000 0.500000
O O14 0.419120 0.637901 0.501787
#
# Coordination Sequence:
#
# PCOD9275480 Si02
#       7
#     8   8   8   8   8   4   8
#     4  10  22  41  63  86 122 163 205 245 312 369
#     4   9  19  38  65  87 115 155 206 253 288 359
#     4  10  20  39  62  87 122 166 199 247 309 368
#     4  10  24  38  60  88 121 158 203 248 303 361
#     4  10  22  38  63  86 118 159 203 255 303 357
#     4  12  26  38  60  94 128 160 196 254 314 374
#     4   9  19  35  62  92 114 148 211 252 289 357
#
# _framework density 19.211037000000001
#
# number of rings (size 3 to 8) (size 9 to 14) (size 15 to 20)
#    0.000    2.154    0.769    0.923    6.462    6.154 
#    0.000    0.000    3.385    0.000    0.000    0.000 
#    0.000    0.000    0.000    0.000    0.000    0.000 
#
# Total GULP energy -145083.403942 kJ/mol
# GULP energy per Si atom -5580.130921 kJ/mol
# Density = 1.916731 g / cm^3
# Si number density = 19.211037 Si / 1000 Ang^3
#
#
#
# Elastic Constant Matrix: (Units=GPa)
#
#
# Indices 1 2 3 4 5 6 
#
# 1 80.1843 28.2021 16.3569 0.0001 -7.3609 0.0000
# 2 28.2021 80.9267 26.3253 -0.0012 -13.6710 0.0004
# 3 16.3569 26.3253 62.6005 -0.0012 1.1291 0.0004
# 4 0.0001 -0.0012 -0.0012 18.8510 -0.0010 -0.2481
# 5 -7.3609 -13.6710 1.1291 -0.0010 16.5799 0.0001
# 6 0.0000 0.0004 0.0004 -0.2481 0.0001 38.7525
#
#
#
# Elastic Compliance Matrix: (Units=1/GPa)
#
#
# Indices 1 2 3 4 5 6 
#
# 1 0.014580 -0.003731 -0.002305 0.000000 0.003554 0.000000
# 2 -0.003731 0.018264 -0.006956 0.000001 0.013877 0.000000
# 3 -0.002305 -0.006956 0.019648 0.000000 -0.008097 0.000000
# 4 0.000000 0.000001 0.000000 0.053052 0.000004 0.000340
# 5 0.003554 0.013877 -0.008097 0.000004 0.073885 0.000000
# 6 0.000000 0.000000 0.000000 0.000340 0.000000 0.025807
#
#
# Mechanical properties :
#
#
# Convention : Reuss Voigt Hill
#
# Bulk Modulus (GPa) = 37.72383 40.60888 39.16636
# Shear Modulus (GPa) = 20.82853 25.02517 22.92685
#
# Velocity S-wave (km/s) = 3.29629 3.61313 3.45834
# Velocity P-wave (km/s) = 5.84521 6.21213 6.03146
#
# Compressibility (1/GPa) = 0.02650844
#
# Stress axis : x y z
#
# Youngs Moduli (GPa) = 68.58785 54.75225 50.89644
#
# Poissons Ratio (x) = 0.20427 0.11730
# Poissons Ratio (y) = 0.25589 0.35404
# Poissons Ratio (z) = 0.15808 0.38086
#
# Static dielectric constant tensor:
#      x y z
#    x 1.669890 0.000000 -0.012530 
#    y 0.000000 1.717850 0.000000 
#    z -0.012530 0.000000 1.641720 
# 
# From -- ./inp_files/190465.got.cif
#   From: 2010.05.17/outbox.cif.g08.bks.cpg/sg15_96_cif.got.tgz:190465.got - 2010.06.03 18:47:42.
