data_PCOD9275688
_publ_section_title
;
Structure prediction by ZEFSAII (Michael W. Deem and Ramdas Pophale) SiO2 
 PCOD9275688
Probable space group: C 2/C
;
_chemical_formula_sum "Si O2"
_cell_formula_units_Z 44
_cell_length_a 8.540311
_cell_length_b 14.915070
_cell_length_c 13.425300
_cell_angle_alpha 90.000000
_cell_angle_beta 75.932208
_cell_angle_gamma 90.000000
_cell_volume 1658.817691
_symmetry_space_group_name_H-M "C 2/C"
_symmetry_group_IT_number 15
_symmetry_cell_setting 'monoclinic'
loop_
_space_group_symop_operation_xyz
x,y,z
-x,y,1/2-z
-x,-y,-z
x,-y,1/2+z
1/2+x,1/2+y,z
1/2-x,1/2+y,1/2-z
1/2-x,1/2-y,-z
1/2+x,1/2-y,1/2+z
loop_
_atom_site_type_symbol
_atom_site_label
_atom_site_fract_x
_atom_site_fract_y
_atom_site_fract_z
Si Si1 0.500000 0.298805 0.250000
Si Si2 0.166043 0.936144 0.377644
Si Si3 0.975751 0.538536 0.616095
Si Si4 0.402047 0.211068 0.534507
Si Si5 0.158500 0.648356 0.323953
Si Si6 0.524342 0.612924 0.112359
O O1 0.562646 0.366186 0.327008
O O2 0.638891 0.220784 0.238865
O O3 0.360447 0.928209 0.355291
O O4 0.118708 0.922378 0.499774
O O5 0.107162 0.034806 0.354342
O O6 0.000000 0.500000 0.500000
O O7 0.864784 0.624253 0.608395
O O8 0.903757 0.452398 0.680868
O O9 0.250000 0.250000 0.500000
O O10 0.545109 0.186269 0.432870
O O11 0.460827 0.291170 0.592218
O O12 0.341189 0.634265 0.327486
#
# Coordination Sequence:
#
# PCOD9275688 Si02
#       6
#     4   8   8   8   8   8
#     4  12  26  42  62  96 140 176 212 272 356 400
#     4  11  23  40  68  96 135 168 223 279 327 405
#     4  10  20  39  63  96 125 163 222 275 319 380
#     4  11  21  36  65  99 126 163 223 278 314 382
#     4  11  23  40  65  95 131 173 213 272 333 400
#     4  11  21  40  68  98 120 176 227 268 326 393
#
# _framework density 26.524916000000001
#
# number of rings (size 3 to 8) (size 9 to 14) (size 15 to 20)
#    0.000    1.091    5.455    3.818    2.545    1.455 
#    0.000    0.000    0.000    5.455    0.000    0.000 
#    0.000    0.000    0.000    0.000    0.000    0.000 
#
# Total GULP energy -123093.462253 kJ/mol
# GULP energy per Si atom -5595.157375 kJ/mol
# Density = 2.646454 g / cm^3
# Si number density = 26.524916 Si / 1000 Ang^3
#
#
#
# Elastic Constant Matrix: (Units=GPa)
#
#
# Indices 1 2 3 4 5 6 
#
# 1 156.1544 60.3137 53.1858 0.0000 33.5302 0.0000
# 2 60.3137 239.7025 48.3774 0.0000 33.4319 0.0000
# 3 53.1858 48.3774 106.5147 0.0000 26.9380 0.0000
# 4 0.0000 0.0000 0.0000 35.1612 0.0000 21.2016
# 5 33.5302 33.4319 26.9380 0.0000 69.0008 0.0000
# 6 0.0000 0.0000 0.0000 21.2016 0.0000 43.0195
#
#
#
# Elastic Compliance Matrix: (Units=1/GPa)
#
#
# Indices 1 2 3 4 5 6 
#
# 1 0.008401 -0.001170 -0.003078 0.000000 -0.002314 0.000000
# 2 -0.001170 0.004913 -0.001319 0.000000 -0.001297 0.000000
# 3 -0.003078 -0.001319 0.012188 0.000000 -0.002623 0.000000
# 4 0.000000 0.000000 0.000000 0.040466 0.000000 -0.019943
# 5 -0.002314 -0.001297 -0.002623 0.000000 0.017269 0.000000
# 6 0.000000 0.000000 0.000000 -0.019943 0.000000 0.033074
#
#
# Mechanical properties :
#
#
# Convention : Reuss Voigt Hill
#
# Bulk Modulus (GPa) = 69.60270 91.79171 80.69721
# Shear Modulus (GPa) = 37.81114 52.13595 44.97354
#
# Velocity S-wave (km/s) = 3.77967 4.43826 4.12214
# Velocity P-wave (km/s) = 6.73389 7.80674 7.29008
#
# Compressibility (1/GPa) = 0.01436726
#
# Stress axis : x y z
#
# Youngs Moduli (GPa) = 119.03198 203.52558 82.04691
#
# Poissons Ratio (x) = 0.23810 0.25257
# Poissons Ratio (y) = 0.13925 0.10825
# Poissons Ratio (z) = 0.36643 0.26853
#
# Static dielectric constant tensor:
#      x y z
#    x 2.152810 0.000000 -0.076910 
#    y 0.000000 1.984480 0.000000 
#    z -0.076910 0.000000 2.325280 
# 
# From -- ./inp_files/188966.got.cif
#   From: 2010.05.17/outbox.cif.g08.bks.cpg/sg15_95_cif.got.tgz:188966.got - 2010.06.03 18:47:42.
