data_PCOD9275466
_publ_section_title
;
Structure prediction by ZEFSAII (Michael W. Deem and Ramdas Pophale) SiO2 
 PCOD9275466
Probable space group: C 2/C
;
_chemical_formula_sum "Si O2"
_cell_formula_units_Z 40
_cell_length_a 13.624239
_cell_length_b 9.183892
_cell_length_c 28.587007
_cell_angle_alpha 90.000000
_cell_angle_beta 30.323893
_cell_angle_gamma 90.000000
_cell_volume 1805.936336
_symmetry_space_group_name_H-M "C 2/C"
_symmetry_group_IT_number 15
_symmetry_cell_setting 'monoclinic'
loop_
_space_group_symop_operation_xyz
x,y,z
-x,y,1/2-z
-x,-y,-z
x,-y,1/2+z
1/2+x,1/2+y,z
1/2-x,1/2+y,1/2-z
1/2-x,1/2-y,-z
1/2+x,1/2-y,1/2+z
loop_
_atom_site_type_symbol
_atom_site_label
_atom_site_fract_x
_atom_site_fract_y
_atom_site_fract_z
Si Si1 0.530154 0.839817 0.407658
Si Si2 0.404687 0.656784 0.548291
Si Si3 0.585752 0.173345 0.367002
Si Si4 0.478903 0.174585 0.691571
Si Si5 0.906530 0.647489 0.237294
O O1 0.456210 0.767549 0.485425
O O2 0.431881 0.812390 0.397483
O O3 0.734089 0.760418 0.314432
O O4 0.548755 0.013206 0.402378
O O5 0.500000 0.500000 0.500000
O O6 0.479697 0.713473 0.567070
O O7 0.168774 0.657285 0.645665
O O8 0.493371 0.192301 0.353269
O O9 0.820011 0.199834 0.264725
O O10 0.361298 0.021610 0.743799
O O11 0.000000 0.647139 0.250000
#
# Coordination Sequence:
#
# PCOD9275466 Si02
#       5
#     8   8   8   8   8
#     4  10  22  39  60  90 122 152 198 252 297 345
#     4  12  23  39  61  89 124 160 197 246 297 352
#     4  10  22  39  61  87 118 156 200 243 295 357
#     4  10  21  40  63  86 117 162 201 239 295 359
#     4  10  20  39  62  86 116 156 202 242 292 359
#
# _framework density 22.149175
#
# number of rings (size 3 to 8) (size 9 to 14) (size 15 to 20)
#    0.000    1.600    0.000    5.400    0.000    3.200 
#    0.000   13.000    0.000    0.000    0.000    0.000 
#    0.000    0.000    0.000    0.000    0.000    0.000 
#
# Total GULP energy -111505.359586 kJ/mol
# GULP energy per Si atom -5575.267979 kJ/mol
# Density = 2.209876 g / cm^3
# Si number density = 22.149175 Si / 1000 Ang^3
#
#
#
# Elastic Constant Matrix: (Units=GPa)
#
#
# Indices 1 2 3 4 5 6 
#
# 1 137.1934 47.7720 33.4839 0.0000 45.5016 0.0000
# 2 47.7720 95.3660 47.8835 -0.0001 25.0776 0.0000
# 3 33.4839 47.8835 72.7785 -0.0002 31.1309 0.0000
# 4 0.0000 -0.0001 -0.0002 42.7266 0.0000 17.9382
# 5 45.5016 25.0776 31.1309 0.0000 40.9894 0.0000
# 6 0.0000 0.0000 0.0000 17.9382 0.0000 28.8485
#
#
#
# Elastic Compliance Matrix: (Units=1/GPa)
#
#
# Indices 1 2 3 4 5 6 
#
# 1 0.012507 -0.004076 0.002666 0.000000 -0.013414 0.000000
# 2 -0.004076 0.017177 -0.010170 0.000000 0.001740 0.000000
# 3 0.002666 -0.010170 0.026379 0.000000 -0.016772 0.000000
# 4 0.000000 0.000000 0.000000 0.031673 0.000000 -0.019695
# 5 -0.013414 0.001740 -0.016772 0.000000 0.050961 0.000000
# 6 0.000000 0.000000 0.000000 -0.019695 0.000000 0.046910
#
#
# Mechanical properties :
#
#
# Convention : Reuss Voigt Hill
#
# Bulk Modulus (GPa) = 30.39377 62.62409 46.50893
# Shear Modulus (GPa) = 22.75474 34.25946 28.50710
#
# Velocity S-wave (km/s) = 3.20869 3.93715 3.59144
# Velocity P-wave (km/s) = 5.24211 7.00024 6.18398
#
# Compressibility (1/GPa) = 0.03290147
#
# Stress axis : x y z
#
# Youngs Moduli (GPa) = 79.95750 58.21879 37.90862
#
# Poissons Ratio (x) = 0.23730 -0.10105
# Poissons Ratio (y) = 0.32590 0.38553
# Poissons Ratio (z) = -0.21313 0.59209
#
# Static dielectric constant tensor:
#      x y z
#    x 1.969550 0.000000 0.041490 
#    y 0.000000 1.771320 0.000000 
#    z 0.041490 0.000000 1.879980 
# 
# From -- ./inp_files/202474.got.cif
#   From: 2010.05.17/outbox.cif.g08.bks.cpg/sg15_102_cif.got.tgz:202474.got - 2010.06.03 18:47:42.
