data_PCOD9275917
_publ_section_title
;
Structure prediction by ZEFSAII (Michael W. Deem and Ramdas Pophale) SiO2 
 PCOD9275917
Probable space group: C 2/C
;
_chemical_formula_sum "Si O2"
_cell_formula_units_Z 56
_cell_length_a 10.359639
_cell_length_b 14.860183
_cell_length_c 14.099449
_cell_angle_alpha 90.000000
_cell_angle_beta 85.581936
_cell_angle_gamma 90.000000
_cell_volume 2164.105854
_symmetry_space_group_name_H-M "C 2/C"
_symmetry_group_IT_number 15
_symmetry_cell_setting 'monoclinic'
loop_
_space_group_symop_operation_xyz
x,y,z
-x,y,1/2-z
-x,-y,-z
x,-y,1/2+z
1/2+x,1/2+y,z
1/2-x,1/2+y,1/2-z
1/2-x,1/2-y,-z
1/2+x,1/2-y,1/2+z
loop_
_atom_site_type_symbol
_atom_site_label
_atom_site_fract_x
_atom_site_fract_y
_atom_site_fract_z
Si Si1 0.958452 0.278782 0.396588
Si Si2 0.791857 0.595985 0.621023
Si Si3 0.629780 0.475186 0.299781
Si Si4 0.122324 0.402660 0.945970
Si Si5 0.009424 0.859670 0.059387
Si Si6 0.062591 0.312784 0.656890
Si Si7 0.795995 0.827639 0.763384
O O1 0.093564 0.331603 0.379417
O O2 0.982413 0.190795 0.462296
O O3 0.109179 0.242301 0.193293
O O4 0.863638 0.349020 0.456883
O O5 0.743489 0.569987 0.731104
O O6 0.848957 0.506149 0.569081
O O7 0.661158 0.617888 0.567651
O O8 0.500000 0.452013 0.250000
O O9 0.590057 0.438823 0.406195
O O10 0.646213 0.582040 0.286862
O O11 0.212707 0.358486 0.859960
O O12 0.973499 0.377900 0.925572
O O13 0.989346 0.779158 0.136979
O O14 0.204423 0.291504 0.684519
O O15 0.000000 0.361284 0.750000
#
# Coordination Sequence:
#
# PCOD9275917 Si02
#       7
#     8   8   8   8   8   8   8
#     4  11  22  39  65 100 137 172 222 291 349 396
#     4  10  20  39  65  97 131 173 231 280 329 411
#     4   9  20  41  62  87 128 175 224 272 334 408
#     4   9  20  40  62  89 132 179 219 273 345 411
#     4  10  21  41  65  93 133 183 224 274 346 410
#     4   9  18  37  63  87 123 175 222 267 333 406
#     4  10  21  39  62  95 129 169 229 283 332 404
#
# _framework density 25.876738
#
# number of rings (size 3 to 8) (size 9 to 14) (size 15 to 20)
#    0.000    2.286    0.000    2.571    0.000    1.143 
#    0.000   33.571    0.000    0.000    0.000    0.000 
#    0.000    0.000    0.000    0.000    0.000    0.000 
#
# Total GULP energy -156472.143586 kJ/mol
# GULP energy per Si atom -5588.290842 kJ/mol
# Density = 2.581784 g / cm^3
# Si number density = 25.876738 Si / 1000 Ang^3
#
#
#
# Elastic Constant Matrix: (Units=GPa)
#
#
# Indices 1 2 3 4 5 6 
#
# 1 122.8263 80.2267 55.9619 0.0000 2.7171 0.0000
# 2 80.2267 139.1402 69.9651 0.0000 -7.0306 0.0000
# 3 55.9619 69.9651 90.3523 0.0000 -13.2063 0.0000
# 4 0.0000 0.0000 0.0000 41.6188 0.0000 -20.8184
# 5 2.7171 -7.0306 -13.2063 0.0000 38.6795 0.0000
# 6 0.0000 0.0000 0.0000 -20.8184 0.0000 42.7732
#
#
#
# Elastic Compliance Matrix: (Units=1/GPa)
#
#
# Indices 1 2 3 4 5 6 
#
# 1 0.014352 -0.006092 -0.004717 0.000000 -0.003726 0.000000
# 2 -0.006092 0.014394 -0.007292 0.000000 0.000555 0.000000
# 3 -0.004717 -0.007292 0.020514 0.000000 0.006010 0.000000
# 4 0.000000 0.000000 0.000000 0.031760 0.000000 0.015458
# 5 -0.003726 0.000555 0.006010 0.000000 0.028268 0.000000
# 6 0.000000 0.000000 0.000000 0.015458 0.000000 0.030903
#
#
# Mechanical properties :
#
#
# Convention : Reuss Voigt Hill
#
# Bulk Modulus (GPa) = 76.57284 84.95847 80.76566
# Shear Modulus (GPa) = 27.66318 34.35863 31.01091
#
# Velocity S-wave (km/s) = 3.27316 3.64783 3.46556
# Velocity P-wave (km/s) = 6.62875 7.11656 6.87698
#
# Compressibility (1/GPa) = 0.01305946
#
# Stress axis : x y z
#
# Youngs Moduli (GPa) = 69.67710 69.47232 48.74631
#
# Poissons Ratio (x) = 0.42321 0.22992
# Poissons Ratio (y) = 0.42445 0.35547
# Poissons Ratio (z) = 0.32864 0.50660
#
# Static dielectric constant tensor:
#      x y z
#    x 2.099270 0.000000 -0.036660 
#    y 0.000000 2.056530 0.000000 
#    z -0.036660 0.000000 2.085970 
# 
# From -- ./inp_files/153516.got.cif
#   From: 2010.05.17/outbox.cif.g08.bks.cpg/sg15_77_cif.got.tgz:153516.got - 2010.06.03 18:47:42.
