data_PCOD9275788
_publ_section_title
;
Structure prediction by ZEFSAII (Michael W. Deem and Ramdas Pophale) SiO2 
 PCOD9275788
Probable space group: C 2/C
;
_chemical_formula_sum "Si O2"
_cell_formula_units_Z 64
_cell_length_a 13.699513
_cell_length_b 20.010832
_cell_length_c 10.849132
_cell_angle_alpha 90.000000
_cell_angle_beta 92.823664
_cell_angle_gamma 90.000000
_cell_volume 2970.555429
_symmetry_space_group_name_H-M "C 2/C"
_symmetry_group_IT_number 15
_symmetry_cell_setting 'monoclinic'
loop_
_space_group_symop_operation_xyz
x,y,z
-x,y,1/2-z
-x,-y,-z
x,-y,1/2+z
1/2+x,1/2+y,z
1/2-x,1/2+y,1/2-z
1/2-x,1/2-y,-z
1/2+x,1/2-y,1/2+z
loop_
_atom_site_type_symbol
_atom_site_label
_atom_site_fract_x
_atom_site_fract_y
_atom_site_fract_z
Si Si1 0.699316 0.609411 0.663167
Si Si2 0.405981 0.030554 0.329461
Si Si3 0.161758 0.341737 0.545750
Si Si4 0.641643 0.754855 0.046971
Si Si5 0.288924 0.542891 0.348674
Si Si6 0.816865 0.401002 0.422956
Si Si7 0.357002 0.335299 0.715360
Si Si8 0.448913 0.298423 0.469740
O O1 0.782250 0.636021 0.574234
O O2 0.674947 0.532382 0.628452
O O3 0.747886 0.611028 0.800166
O O4 0.605527 0.655434 0.632354
O O5 0.500000 0.026757 0.250000
O O6 0.403644 0.096870 0.411778
O O7 0.309336 0.035079 0.238489
O O8 0.388439 0.963498 0.405769
O O9 0.248658 0.329941 0.649632
O O10 0.103979 0.273386 0.528861
O O11 0.622657 0.833840 0.050151
O O12 0.634601 0.722222 0.181928
O O13 0.562767 0.715911 0.960010
O O14 0.750000 0.750000 0.000000
O O15 0.254256 0.579513 0.469899
O O16 0.360456 0.592525 0.280706
O O17 0.429558 0.329101 0.604748
#
# Coordination Sequence:
#
# PCOD9275788 Si02
#       8
#     8   8   8   8   8   8   8   8
#     4  10  21  41  66  99 129 179 230 272 337 409
#     4  10  23  36  61  99 136 180 231 277 339 425
#     4  10  20  39  64  94 134 176 220 279 335 410
#     4  12  25  41  65  96 133 174 220 285 348 406
#     4  10  21  39  66  93 134 186 216 284 353 392
#     4  11  22  41  64  93 138 182 217 277 353 405
#     4  10  21  42  65  93 131 177 223 271 343 399
#     4  11  24  40  69  99 129 174 231 281 332 413
#
# _framework density 21.544791
#
# number of rings (size 3 to 8) (size 9 to 14) (size 15 to 20)
#    0.000    1.500    2.500    3.375    3.500    3.500 
#    0.000    2.500    0.000    0.000    0.000    0.000 
#    0.000    0.000    0.000    0.000    0.000    0.000 
#
# Total GULP energy -179026.712503 kJ/mol
# GULP energy per Si atom -5594.584766 kJ/mol
# Density = 2.149575 g / cm^3
# Si number density = 21.544791 Si / 1000 Ang^3
#
#
#
# Elastic Constant Matrix: (Units=GPa)
#
#
# Indices 1 2 3 4 5 6 
#
# 1 92.4402 45.7876 3.4423 0.0000 -7.8079 0.0000
# 2 45.7876 152.1880 20.0363 0.0000 3.7562 0.0000
# 3 3.4423 20.0363 32.5628 0.0000 6.8072 0.0000
# 4 0.0000 0.0000 0.0000 24.7426 0.0000 -6.1600
# 5 -7.8079 3.7562 6.8072 0.0000 9.3680 0.0000
# 6 0.0000 0.0000 0.0000 -6.1600 0.0000 12.2418
#
#
#
# Elastic Compliance Matrix: (Units=1/GPa)
#
#
# Indices 1 2 3 4 5 6 
#
# 1 0.014373 -0.004441 -0.001961 0.000000 0.015185 0.000000
# 2 -0.004441 0.008523 -0.003876 0.000000 -0.004303 0.000000
# 3 -0.001961 -0.003876 0.039287 0.000000 -0.028628 0.000000
# 4 0.000000 0.000000 0.000000 0.046205 0.000000 0.023250
# 5 0.015185 -0.004303 -0.028628 0.000000 0.141930 0.000000
# 6 0.000000 0.000000 0.000000 0.023250 0.000000 0.093387
#
#
# Mechanical properties :
#
#
# Convention : Reuss Voigt Hill
#
# Bulk Modulus (GPa) = 24.02267 46.19149 35.10708
# Shear Modulus (GPa) = 13.22276 23.13214 18.17745
#
# Velocity S-wave (km/s) = 2.48005 3.28026 2.90781
# Velocity P-wave (km/s) = 4.40173 5.98607 5.25396
#
# Compressibility (1/GPa) = 0.04162734
#
# Stress axis : x y z
#
# Youngs Moduli (GPa) = 69.57422 117.32467 25.45401
#
# Poissons Ratio (x) = 0.52103 0.04992
# Poissons Ratio (y) = 0.30897 0.09865
# Poissons Ratio (z) = 0.13646 0.45470
#
# Static dielectric constant tensor:
#      x y z
#    x 1.753950 0.000000 0.002610 
#    y 0.000000 1.794210 0.000000 
#    z 0.002610 0.000000 1.755340 
# 
# From -- ./inp_files/98774.got.cif
#   From: 2010.05.17/outbox.cif.g08.bks.cpg/sg15_50_cif.got.tgz:98774.got - 2010.06.03 18:47:42.
