data_PCOD9275965
_publ_section_title
;
Structure prediction by ZEFSAII (Michael W. Deem and Ramdas Pophale) SiO2 
 PCOD9275965
Probable space group: C 2/C
;
_chemical_formula_sum "Si O2"
_cell_formula_units_Z 56
_cell_length_a 25.727539
_cell_length_b 7.388217
_cell_length_c 13.051232
_cell_angle_alpha 90.000000
_cell_angle_beta 97.152539
_cell_angle_gamma 90.000000
_cell_volume 2461.481512
_symmetry_space_group_name_H-M "C 2/C"
_symmetry_group_IT_number 15
_symmetry_cell_setting 'monoclinic'
loop_
_space_group_symop_operation_xyz
x,y,z
-x,y,1/2-z
-x,-y,-z
x,-y,1/2+z
1/2+x,1/2+y,z
1/2-x,1/2+y,1/2-z
1/2-x,1/2-y,-z
1/2+x,1/2-y,1/2+z
loop_
_atom_site_type_symbol
_atom_site_label
_atom_site_fract_x
_atom_site_fract_y
_atom_site_fract_z
Si Si1 0.730485 0.841451 0.096828
Si Si2 0.949581 0.635954 0.427618
Si Si3 0.354787 0.830090 0.163671
Si Si4 0.240818 0.969350 0.203911
Si Si5 0.359046 0.618316 0.948665
Si Si6 0.965319 0.550013 0.651341
Si Si7 0.619524 0.783910 0.102015
O O1 0.764136 0.974843 0.173098
O O2 0.732217 0.677002 0.176076
O O3 0.670483 0.897056 0.074809
O O4 0.750000 0.750000 0.000000
O O5 0.902982 0.772988 0.395618
O O6 0.965428 0.669467 0.548825
O O7 0.000754 0.627655 0.369889
O O8 0.926039 0.431000 0.419610
O O9 0.298737 0.921056 0.174663
O O10 0.403895 0.970530 0.160876
O O11 0.372849 0.738495 0.275437
O O12 0.353049 0.707351 0.060465
O O13 0.195526 0.871619 0.127549
O O14 0.377337 0.407236 0.956237
O O15 0.000000 0.634961 0.750000
#
# Coordination Sequence:
#
# PCOD9275965 Si02
#       7
#     8   8   8   8   8   8   8
#     4  10  24  38  60  94 128 173 216 265 331 393
#     4  10  22  41  68  90 126 166 215 271 323 378
#     4  10  21  40  66  91 130 177 205 273 335 373
#     4  10  23  39  63  95 132 170 218 269 321 408
#     4  10  23  40  64  97 128 169 218 264 324 398
#     4  10  20  39  66  93 120 166 217 262 321 387
#     4  10  22  42  61  92 132 163 216 271 319 394
#
# _framework density 22.750527999999999
#
# number of rings (size 3 to 8) (size 9 to 14) (size 15 to 20)
#    0.000    2.000    1.429    0.429    8.000    6.857 
#    2.571    6.429    0.000    0.000    0.000    0.000 
#    0.000    0.000    0.000    0.000    0.000    0.000 
#
# Total GULP energy -155957.403268 kJ/mol
# GULP energy per Si atom -5569.907260 kJ/mol
# Density = 2.269875 g / cm^3
# Si number density = 22.750528 Si / 1000 Ang^3
#
#
#
# Elastic Constant Matrix: (Units=GPa)
#
#
# Indices 1 2 3 4 5 6 
#
# 1 106.4199 19.8817 42.5508 0.0000 11.8967 0.0000
# 2 19.8817 49.8999 6.2268 0.0000 9.0832 0.0000
# 3 42.5508 6.2268 78.2032 0.0000 -2.7055 0.0000
# 4 0.0000 0.0000 0.0000 24.5285 0.0000 -2.8600
# 5 11.8967 9.0832 -2.7055 0.0000 42.4961 0.0000
# 6 0.0000 0.0000 0.0000 -2.8600 0.0000 17.7182
#
#
#
# Elastic Compliance Matrix: (Units=1/GPa)
#
#
# Indices 1 2 3 4 5 6 
#
# 1 0.013303 -0.003809 -0.007051 0.000000 -0.003359 0.000000
# 2 -0.003809 0.022203 0.000178 0.000000 -0.003668 0.000000
# 3 -0.007051 0.000178 0.016713 0.000000 0.003000 0.000000
# 4 0.000000 0.000000 0.000000 0.041551 0.000000 0.006707
# 5 -0.003359 -0.003668 0.003000 0.000000 0.025447 0.000000
# 6 0.000000 0.000000 0.000000 0.006707 0.000000 0.057522
#
#
# Mechanical properties :
#
#
# Convention : Reuss Voigt Hill
#
# Bulk Modulus (GPa) = 32.40993 41.31574 36.86283
# Shear Modulus (GPa) = 23.99350 28.00614 25.99982
#
# Velocity S-wave (km/s) = 3.25104 3.51238 3.38423
# Velocity P-wave (km/s) = 5.32626 5.88633 5.61328
#
# Compressibility (1/GPa) = 0.03085474
#
# Stress axis : x y z
#
# Youngs Moduli (GPa) = 75.16969 45.03840 59.83199
#
# Poissons Ratio (x) = 0.17156 0.42189
# Poissons Ratio (y) = 0.28633 -0.01064
# Poissons Ratio (z) = 0.53004 -0.00801
#
# Static dielectric constant tensor:
#      x y z
#    x 1.872550 0.000000 -0.189540 
#    y 0.000000 1.727060 0.000000 
#    z -0.189540 0.000000 1.413050 
# 
# From -- ./inp_files/121881.got.cif
#   From: 2010.05.17/outbox.cif.g08.bks.cpg/sg15_61_cif.got.tgz:121881.got - 2010.06.03 18:47:42.
