data_PCOD9275371
_publ_section_title
;
Structure prediction by ZEFSAII (Michael W. Deem and Ramdas Pophale) SiO2 
 PCOD9275371
Probable space group: C 2/C
;
_chemical_formula_sum "Si O2"
_cell_formula_units_Z 64
_cell_length_a 22.363782
_cell_length_b 5.313828
_cell_length_c 22.844515
_cell_angle_alpha 90.000000
_cell_angle_beta 109.574770
_cell_angle_gamma 90.000000
_cell_volume 2557.879758
_symmetry_space_group_name_H-M "C 2/C"
_symmetry_group_IT_number 15
_symmetry_cell_setting 'monoclinic'
loop_
_space_group_symop_operation_xyz
x,y,z
-x,y,1/2-z
-x,-y,-z
x,-y,1/2+z
1/2+x,1/2+y,z
1/2-x,1/2+y,1/2-z
1/2-x,1/2-y,-z
1/2+x,1/2-y,1/2+z
loop_
_atom_site_type_symbol
_atom_site_label
_atom_site_fract_x
_atom_site_fract_y
_atom_site_fract_z
Si Si1 0.842924 0.165480 0.705089
Si Si2 0.296747 0.984749 0.848958
Si Si3 0.542919 0.677980 0.552110
Si Si4 0.140846 0.953437 0.905460
Si Si5 0.161589 0.351416 0.515032
Si Si6 0.941144 0.660490 0.086249
Si Si7 0.432421 0.089159 0.703900
Si Si8 0.132772 0.024772 0.171236
O O1 0.769873 0.095273 0.695666
O O2 0.887471 0.411373 0.729447
O O3 0.875537 0.972194 0.761683
O O4 0.837563 0.168848 0.632106
O O5 0.344067 0.211422 0.847924
O O6 0.319847 0.715686 0.829303
O O7 0.292663 0.946973 0.918475
O O8 0.500000 0.500000 0.500000
O O9 0.605384 0.742980 0.537027
O O10 0.498319 0.899104 0.561698
O O11 0.567983 0.544263 0.618606
O O12 0.182568 0.848389 0.972218
O O13 0.117353 0.765112 0.847226
O O14 0.076318 0.045964 0.915042
O O15 0.123938 0.553118 0.463168
O O16 0.956774 0.577397 0.156473
O O17 0.500000 0.191988 0.750000
#
# Coordination Sequence:
#
# PCOD9275371 Si02
#       8
#     8   8   8   8   8   8   8   8
#     4  11  25  45  70  94 135 182 230 277 355 410
#     4  11  26  45  73  99 138 176 232 295 340 414
#     4  11  20  37  68  97 133 177 223 282 348 403
#     4  10  23  41  64  97 136 181 225 281 337 420
#     4  10  22  41  65  99 138 176 230 287 346 404
#     4  10  20  39  60  95 133 172 220 280 343 405
#     4  10  23  41  63  94 131 172 224 279 336 417
#     4  11  26  44  69 105 135 179 231 292 347 408
#
# _framework density 25.020724000000001
#
# number of rings (size 3 to 8) (size 9 to 14) (size 15 to 20)
#    0.000    1.500    1.250    2.625    5.250    4.500 
#    0.000    5.625    0.000    0.000    0.000    0.000 
#    0.000    0.000    0.000    0.000    0.000    0.000 
#
# Total GULP energy -178150.176294 kJ/mol
# GULP energy per Si atom -5567.193009 kJ/mol
# Density = 2.496378 g / cm^3
# Si number density = 25.020724 Si / 1000 Ang^3
#
#
#
# Elastic Constant Matrix: (Units=GPa)
#
#
# Indices 1 2 3 4 5 6 
#
# 1 33.9820 -12.2806 0.5355 -0.0002 5.6276 -0.0002
# 2 -12.2806 40.7423 15.9903 -0.0004 -13.9363 0.0003
# 3 0.5355 15.9903 128.5349 -0.0001 -1.7974 -0.0002
# 4 -0.0002 -0.0004 -0.0001 38.1837 0.0000 -12.4526
# 5 5.6276 -13.9363 -1.7974 0.0000 47.0542 0.0000
# 6 -0.0002 0.0003 -0.0002 -12.4526 0.0000 -13.5129
#
#
#
# Elastic Compliance Matrix: (Units=1/GPa)
#
#
# Indices 1 2 3 4 5 6 
#
# 1 0.033325 0.010264 -0.001430 0.000000 -0.001000 0.000000
# 2 0.010264 0.031934 -0.003902 0.000000 0.008082 0.000000
# 3 -0.001430 -0.003902 0.008262 0.000000 -0.000669 0.000000
# 4 0.000000 0.000000 0.000000 0.020137 0.000000 -0.018557
# 5 -0.001000 0.008082 -0.000669 0.000000 0.023740 0.000000
# 6 0.000000 0.000000 0.000000 -0.018557 0.000000 -0.056902
#
#
# Mechanical properties :
#
#
# Convention : Reuss Voigt Hill
#
# Bulk Modulus (GPa) = 11.99270 23.52773 17.76022
# Shear Modulus (GPa) = 63.75341 27.61262 45.68301
#
# Velocity S-wave (km/s) = 5.05327 3.32564 4.27758
# Velocity P-wave (km/s) = 6.23305 4.91632 5.61343
#
# Compressibility (1/GPa) = 0.08338403
#
# Stress axis : x y z
#
# Youngs Moduli (GPa) = 30.00778 31.31441 121.03495
#
# Poissons Ratio (x) = -0.32140 0.17304
# Poissons Ratio (y) = -0.30799 0.47234
# Poissons Ratio (z) = 0.04290 0.12220
#
# Static dielectric constant tensor:
#      x y z
#    x 2.142300 0.000000 -0.020880 
#    y 0.000000 2.333160 0.000000 
#    z -0.020880 0.000000 2.148010 
# 
# From -- ./inp_files/281214.got.cif
#   From: 2010.05.17/outbox.cif.g08.bks.cpg/sg15_141_cif.got.tgz:281214.got - 2010.06.03 18:47:42.
