data_PCOD9275838
_publ_section_title
;
Structure prediction by ZEFSAII (Michael W. Deem and Ramdas Pophale) SiO2 
 PCOD9275838
Probable space group: C 2/C
;
_chemical_formula_sum "Si O2"
_cell_formula_units_Z 48
_cell_length_a 9.918480
_cell_length_b 17.193790
_cell_length_c 20.232954
_cell_angle_alpha 90.000000
_cell_angle_beta 138.315897
_cell_angle_gamma 90.000000
_cell_volume 2294.630761
_symmetry_space_group_name_H-M "C 2/C"
_symmetry_group_IT_number 15
_symmetry_cell_setting 'monoclinic'
loop_
_space_group_symop_operation_xyz
x,y,z
-x,y,1/2-z
-x,-y,-z
x,-y,1/2+z
1/2+x,1/2+y,z
1/2-x,1/2+y,1/2-z
1/2-x,1/2-y,-z
1/2+x,1/2-y,1/2+z
loop_
_atom_site_type_symbol
_atom_site_label
_atom_site_fract_x
_atom_site_fract_y
_atom_site_fract_z
Si Si1 0.292994 0.457819 0.148260
Si Si2 0.531641 0.211162 0.407699
Si Si3 0.892947 0.460213 0.556862
Si Si4 0.904903 0.768246 0.495626
Si Si5 0.775945 0.703170 0.802010
Si Si6 0.877912 0.603804 0.642722
O O1 0.500000 0.494375 0.250000
O O2 0.283512 0.371918 0.176624
O O3 0.104338 0.508580 0.103733
O O4 0.269061 0.450507 0.061244
O O5 0.750000 0.250000 0.500000
O O6 0.567168 0.123346 0.397188
O O7 0.422087 0.208278 0.440408
O O8 0.396327 0.259994 0.306725
O O9 0.830251 0.530431 0.580360
O O10 0.750000 0.750000 0.500000
O O11 0.827216 0.845869 0.430899
O O12 0.121251 0.765830 0.611398
O O13 0.955838 0.665951 0.823605
O O14 0.000000 0.572786 0.750000
#
# Coordination Sequence:
#
# PCOD9275838 Si02
#       6
#     8   8   8   8   8   8
#     4  10  20  39  65  89 126 167 210 267 334 382
#     4  12  24  42  65  96 132 173 220 276 326 393
#     4  10  23  40  62  95 128 165 221 273 319 401
#     4  10  22  40  67  97 125 169 221 268 327 388
#     4  10  21  38  67  91 127 171 219 268 329 391
#     4  10  20  42  65  90 131 174 211 274 340 390
#
# _framework density 20.918399999999998
#
# number of rings (size 3 to 8) (size 9 to 14) (size 15 to 20)
#    0.000    1.667    3.333    1.000    2.333    1.333 
#    6.000    0.833    0.000    0.000    0.000    0.000 
#    0.000    0.000    0.000    0.000    0.000    0.000 
#
# Total GULP energy -133823.013933 kJ/mol
# GULP energy per Si atom -5575.958914 kJ/mol
# Density = 2.087079 g / cm^3
# Si number density = 20.918400 Si / 1000 Ang^3
#
#
#
# Elastic Constant Matrix: (Units=GPa)
#
#
# Indices 1 2 3 4 5 6 
#
# 1 16.4512 -3.3626 11.5690 0.0000 6.1827 0.0000
# 2 -3.3626 97.7907 45.6350 0.0000 15.7071 0.0000
# 3 11.5690 45.6350 181.0149 0.0000 7.8603 -0.0001
# 4 0.0000 0.0000 0.0000 14.8985 0.0000 20.6379
# 5 6.1827 15.7071 7.8603 0.0000 23.2904 0.0000
# 6 0.0000 0.0000 -0.0001 20.6379 0.0000 -27.1784
#
#
#
# Elastic Compliance Matrix: (Units=1/GPa)
#
#
# Indices 1 2 3 4 5 6 
#
# 1 0.076298 0.009456 -0.006195 0.000000 -0.024541 0.000000
# 2 0.009456 0.013980 -0.003664 0.000000 -0.010702 0.000000
# 3 -0.006195 -0.003664 0.006764 0.000000 0.001833 0.000000
# 4 0.000000 0.000000 0.000000 0.032712 0.000000 0.024840
# 5 -0.024541 -0.010702 0.001833 0.000000 0.056050 0.000000
# 6 0.000000 0.000000 0.000000 0.024840 0.000000 -0.017932
#
#
# Mechanical properties :
#
#
# Convention : Reuss Voigt Hill
#
# Bulk Modulus (GPa) = 10.39102 44.77107 27.58104
# Shear Modulus (GPa) = 24.90585 18.29646 21.60116
#
# Velocity S-wave (km/s) = 3.45428 2.96067 3.21696
# Velocity P-wave (km/s) = 4.57029 5.75644 5.19732
#
# Compressibility (1/GPa) = 0.09623697
#
# Stress axis : x y z
#
# Youngs Moduli (GPa) = 13.10652 71.53147 147.83104
#
# Poissons Ratio (x) = -0.67641 0.91576
# Poissons Ratio (y) = -0.12394 0.54166
# Poissons Ratio (z) = 0.08119 0.26210
#
# Static dielectric constant tensor:
#      x y z
#    x 1.832530 0.000000 0.006800 
#    y 0.000000 1.758420 0.000000 
#    z 0.006800 0.000000 1.748570 
# 
# From -- ./inp_files/87792.got.cif
#   From: 2010.05.17/outbox.cif.g08.bks.cpg/sg15_44_cif.got.tgz:87792.got - 2010.06.03 18:47:42.
