data_PCOD9275064
_publ_section_title
;
Structure prediction by ZEFSAII (Michael W. Deem and Ramdas Pophale) SiO2 
 PCOD9275064
Probable space group: C 2/C
;
_chemical_formula_sum "Si O2"
_cell_formula_units_Z 52
_cell_length_a 10.813229
_cell_length_b 15.052155
_cell_length_c 13.829562
_cell_angle_alpha 90.000000
_cell_angle_beta 81.098454
_cell_angle_gamma 90.000000
_cell_volume 2223.821759
_symmetry_space_group_name_H-M "C 2/C"
_symmetry_group_IT_number 15
_symmetry_cell_setting 'monoclinic'
loop_
_space_group_symop_operation_xyz
x,y,z
-x,y,1/2-z
-x,-y,-z
x,-y,1/2+z
1/2+x,1/2+y,z
1/2-x,1/2+y,1/2-z
1/2-x,1/2-y,-z
1/2+x,1/2-y,1/2+z
loop_
_atom_site_type_symbol
_atom_site_label
_atom_site_fract_x
_atom_site_fract_y
_atom_site_fract_z
Si Si1 0.500000 0.296399 0.250000
Si Si2 0.847405 0.913587 0.900822
Si Si3 0.343886 0.617200 0.936430
Si Si4 0.056903 0.219354 0.389442
Si Si5 0.398847 0.079417 0.426768
Si Si6 0.615870 0.879378 0.037361
Si Si7 0.292171 0.172696 0.250174
O O1 0.591542 0.350844 0.169343
O O2 0.401398 0.237616 0.199698
O O3 0.765878 0.901022 0.813411
O O4 0.975866 0.864733 0.866655
O O5 0.873366 0.012062 0.936360
O O6 0.759738 0.863484 0.990638
O O7 0.394598 0.685006 0.011748
O O8 0.194891 0.612027 0.975766
O O9 0.175279 0.229763 0.305358
O O10 0.960051 0.300601 0.404120
O O11 0.535656 0.098684 0.450290
O O12 0.355697 0.128325 0.336054
O O13 0.386056 0.974409 0.409547
#
# Coordination Sequence:
#
# PCOD9275064 Si02
#       7
#     4   8   8   8   8   8   8
#     4  12  24  40  64  96 118 166 214 262 308 372
#     4  11  23  40  60  92 130 168 202 261 312 373
#     4  10  23  40  63  91 123 166 213 255 311 373
#     4  11  22  40  64  90 126 166 209 259 308 372
#     4   9  20  41  65  91 122 166 204 261 315 368
#     4  10  20  38  68  91 120 163 216 253 310 374
#     4  11  23  39  62  90 130 164 206 262 314 366
#
# _framework density 23.383171000000001
#
# number of rings (size 3 to 8) (size 9 to 14) (size 15 to 20)
#    0.000    1.538    0.000    5.077    2.154    2.462 
#    2.769    0.000    6.769    0.000    0.000    0.000 
#    0.000    0.000    0.000    0.000    0.000    0.000 
#
# Total GULP energy -145191.702227 kJ/mol
# GULP energy per Si atom -5584.296239 kJ/mol
# Density = 2.332995 g / cm^3
# Si number density = 23.383171 Si / 1000 Ang^3
#
#
#
# Elastic Constant Matrix: (Units=GPa)
#
#
# Indices 1 2 3 4 5 6 
#
# 1 79.8374 25.8628 13.1024 0.0000 -33.4989 0.0000
# 2 25.8628 109.2762 24.3310 0.0000 -27.2073 0.0000
# 3 13.1024 24.3310 50.3696 0.0000 -24.0307 0.0000
# 4 0.0000 0.0000 0.0000 12.2866 0.0000 -4.0465
# 5 -33.4989 -27.2073 -24.0307 0.0000 37.9169 0.0000
# 6 0.0000 0.0000 0.0000 -4.0465 0.0000 27.7352
#
#
#
# Elastic Compliance Matrix: (Units=1/GPa)
#
#
# Indices 1 2 3 4 5 6 
#
# 1 0.020736 -0.000814 0.004961 0.000000 0.020880 0.000000
# 2 -0.000814 0.011354 -0.002478 0.000000 0.005858 0.000000
# 3 0.004961 -0.002478 0.030105 0.000000 0.021684 0.000000
# 4 0.000000 0.000000 0.000000 0.085497 0.000000 0.012474
# 5 0.020880 0.005858 0.021684 0.000000 0.062767 0.000000
# 6 0.000000 0.000000 0.000000 0.012474 0.000000 0.037875
#
#
# Mechanical properties :
#
#
# Convention : Reuss Voigt Hill
#
# Bulk Modulus (GPa) = 15.25954 40.67506 27.96730
# Shear Modulus (GPa) = 18.73776 27.33354 23.03565
#
# Velocity S-wave (km/s) = 2.83386 3.42269 3.14210
# Velocity P-wave (km/s) = 4.15303 5.74913 5.01499
#
# Compressibility (1/GPa) = 0.06553279
#
# Stress axis : x y z
#
# Youngs Moduli (GPa) = 48.22545 88.07571 33.21673
#
# Poissons Ratio (x) = 0.07165 -0.16478
# Poissons Ratio (y) = 0.03923 0.08232
# Poissons Ratio (z) = -0.23923 0.21828
#
# Static dielectric constant tensor:
#      x y z
#    x 1.867900 0.000000 0.005390 
#    y 0.000000 1.897970 0.000000 
#    z 0.005390 0.000000 1.913490 
# 
# From -- ./inp_files/144158.got.cif
#   From: 2010.05.17/outbox.cif.g08.bks.cpg/sg15_73_cif.got.tgz:144158.got - 2010.06.03 18:47:42.
