data_PCOD9275234
_publ_section_title
;
Structure prediction by ZEFSAII (Michael W. Deem and Ramdas Pophale) SiO2 
 PCOD9275234
Probable space group: C 2/C
;
_chemical_formula_sum "Si O2"
_cell_formula_units_Z 64
_cell_length_a 34.061585
_cell_length_b 14.562599
_cell_length_c 9.650446
_cell_angle_alpha 90.000000
_cell_angle_beta 132.764700
_cell_angle_gamma 90.000000
_cell_volume 3514.268536
_symmetry_space_group_name_H-M "C 2/C"
_symmetry_group_IT_number 15
_symmetry_cell_setting 'monoclinic'
loop_
_space_group_symop_operation_xyz
x,y,z
-x,y,1/2-z
-x,-y,-z
x,-y,1/2+z
1/2+x,1/2+y,z
1/2-x,1/2+y,1/2-z
1/2-x,1/2-y,-z
1/2+x,1/2-y,1/2+z
loop_
_atom_site_type_symbol
_atom_site_label
_atom_site_fract_x
_atom_site_fract_y
_atom_site_fract_z
Si Si1 0.220869 0.599597 0.364837
Si Si2 0.046191 0.583328 0.972025
Si Si3 0.348483 0.410766 0.154974
Si Si4 0.866084 0.261533 0.868001
Si Si5 0.212785 0.428610 0.527478
Si Si6 0.471140 0.123147 0.044717
Si Si7 0.840367 0.908339 0.808482
Si Si8 0.370196 0.232786 0.702244
O O1 0.284747 0.605009 0.523921
O O2 0.191584 0.696292 0.308821
O O3 0.200883 0.525067 0.426777
O O4 0.206115 0.564054 0.176212
O O5 0.057595 0.474455 0.989120
O O6 0.000000 0.602088 0.750000
O O7 0.093890 0.653286 0.059417
O O8 0.019073 0.600703 0.054663
O O9 0.377440 0.325333 0.298270
O O10 0.359844 0.504868 0.264456
O O11 0.357096 0.415884 0.010127
O O12 0.866852 0.236916 0.032930
O O13 0.275335 0.407734 0.649501
O O14 0.174700 0.346429 0.386817
O O15 0.500000 0.160987 0.250000
O O16 0.427587 0.188481 0.871969
O O17 0.859764 0.816036 0.781159
#
# Coordination Sequence:
#
# PCOD9275234 Si02
#       8
#     8   8   8   8   8   8   8   8
#     4   9  19  34  52  81 115 147 181 220 268 322
#     4  10  20  39  57  82 114 147 177 219 275 324
#     4  10  21  37  56  79 109 147 184 226 272 321
#     4  11  21  34  57  81 112 146 184 224 269 325
#     4   9  19  34  53  80 115 147 180 222 268 322
#     4  10  22  37  59  82 114 145 180 222 270 326
#     4  10  21  37  56  79 110 145 185 227 272 320
#     4  11  21  35  55  83 111 145 184 225 271 323
#
# _framework density 18.211472000000001
#
# number of rings (size 3 to 8) (size 9 to 14) (size 15 to 20)
#    0.000    2.000    1.250    2.250    1.750    2.000 
#    0.000    0.000    0.000    1.500    0.000    0.000 
#    0.000    0.000    0.000    0.000    0.000    0.000 
#
# Total GULP energy -178569.657676 kJ/mol
# GULP energy per Si atom -5580.301802 kJ/mol
# Density = 1.817002 g / cm^3
# Si number density = 18.211472 Si / 1000 Ang^3
#
#
#
# Elastic Constant Matrix: (Units=GPa)
#
#
# Indices 1 2 3 4 5 6 
#
# 1 40.9030 17.5332 14.7460 0.0000 -17.3814 0.0000
# 2 17.5332 68.9900 45.6572 0.0000 -19.7319 0.0000
# 3 14.7460 45.6572 66.1149 0.0000 -14.9033 0.0000
# 4 0.0000 0.0000 0.0000 20.2012 0.0000 -7.5842
# 5 -17.3814 -19.7319 -14.9033 0.0000 22.6338 0.0000
# 6 0.0000 0.0000 0.0000 -7.5842 0.0000 25.9054
#
#
#
# Elastic Compliance Matrix: (Units=1/GPa)
#
#
# Indices 1 2 3 4 5 6 
#
# 1 0.036556 -0.000518 -0.001843 0.000000 0.026408 0.000000
# 2 -0.000518 0.030461 -0.017642 0.000000 0.014541 0.000000
# 3 -0.001843 -0.017642 0.028105 0.000000 0.001710 0.000000
# 4 0.000000 0.000000 0.000000 0.055615 0.000000 0.016282
# 5 0.026408 0.014541 0.001710 0.000000 0.078265 0.000000
# 6 0.000000 0.000000 0.000000 0.016282 0.000000 0.043369
#
#
# Mechanical properties :
#
#
# Convention : Reuss Voigt Hill
#
# Bulk Modulus (GPa) = 18.14341 36.87564 27.50953
# Shear Modulus (GPa) = 15.11723 20.28618 17.70170
#
# Velocity S-wave (km/s) = 2.88426 3.34117 3.12109
# Velocity P-wave (km/s) = 4.59088 5.93103 5.30346
#
# Compressibility (1/GPa) = 0.05511642
#
# Stress axis : x y z
#
# Youngs Moduli (GPa) = 27.35496 32.82903 35.58094
#
# Poissons Ratio (x) = 0.01700 0.06558
# Poissons Ratio (y) = 0.01416 0.62772
# Poissons Ratio (z) = 0.05042 0.57917
#
# Static dielectric constant tensor:
#      x y z
#    x 1.651600 0.000000 -0.001810 
#    y 0.000000 1.613140 0.000000 
#    z -0.001810 0.000000 1.625130 
# 
# From -- ./inp_files/70147.got.cif
#   From: 2010.05.17/outbox.cif.g08.bks.cpg/sg15_36_cif.got.tgz:70147.got - 2010.06.03 18:47:42.
