data_PCOD9275214
_publ_section_title
;
Structure prediction by ZEFSAII (Michael W. Deem and Ramdas Pophale) SiO2 
 PCOD9275214
Probable space group: C 2/C
;
_chemical_formula_sum "Si O2"
_cell_formula_units_Z 56
_cell_length_a 20.479466
_cell_length_b 14.775335
_cell_length_c 9.503781
_cell_angle_alpha 90.000000
_cell_angle_beta 75.622817
_cell_angle_gamma 90.000000
_cell_volume 2785.695666
_symmetry_space_group_name_H-M "C 2/C"
_symmetry_group_IT_number 15
_symmetry_cell_setting 'monoclinic'
loop_
_space_group_symop_operation_xyz
x,y,z
-x,y,1/2-z
-x,-y,-z
x,-y,1/2+z
1/2+x,1/2+y,z
1/2-x,1/2+y,1/2-z
1/2-x,1/2-y,-z
1/2+x,1/2-y,1/2+z
loop_
_atom_site_type_symbol
_atom_site_label
_atom_site_fract_x
_atom_site_fract_y
_atom_site_fract_z
Si Si1 0.985954 0.706854 0.603733
Si Si2 0.562958 0.307990 0.137740
Si Si3 0.876159 0.450025 0.190121
Si Si4 0.293769 0.328462 0.551783
Si Si5 0.217103 0.506284 0.517471
Si Si6 0.899814 0.653393 0.160877
Si Si7 0.248147 0.181084 0.131243
O O1 0.961302 0.778435 0.502921
O O2 0.931499 0.626637 0.645693
O O3 0.000000 0.744677 0.750000
O O4 0.054009 0.667194 0.499940
O O5 0.500000 0.356583 0.250000
O O6 0.576453 0.219616 0.228042
O O7 0.637267 0.346409 0.069839
O O8 0.825414 0.436703 0.346499
O O9 0.906829 0.549477 0.202333
O O10 0.832737 0.463060 0.071595
O O11 0.250000 0.250000 0.500000
O O12 0.253845 0.423000 0.571168
O O13 0.300850 0.297944 0.711186
O O14 0.264967 0.579594 0.418138
O O15 0.823195 0.676210 0.159382
O O16 0.250000 0.250000 0.000000
#
# Coordination Sequence:
#
# PCOD9275214 Si02
#       7
#     8   8   8   8   8   8   8
#     4  11  22  32  55  84 125 167 202 251 306 371
#     4  10  23  40  60  85 120 164 214 256 306 382
#     4  11  20  35  54  84 127 167 195 250 306 374
#     4  12  22  41  69  90 124 175 207 256 325 372
#     4  11  23  39  59  94 128 155 217 260 304 380
#     4  10  20  39  51  89 121 164 211 241 301 381
#     4  11  25  39  63  96 127 161 212 270 312 367
#
# _framework density 20.102698
#
# number of rings (size 3 to 8) (size 9 to 14) (size 15 to 20)
#    0.000    1.143    4.286    3.857    6.000    1.714 
#    0.000    0.000    0.000    0.857    0.000    0.000 
#    0.000    0.000    0.000    0.000    0.000    0.000 
#
# Total GULP energy -156376.823116 kJ/mol
# GULP energy per Si atom -5584.886540 kJ/mol
# Density = 2.005694 g / cm^3
# Si number density = 20.102698 Si / 1000 Ang^3
#
#
#
# Elastic Constant Matrix: (Units=GPa)
#
#
# Indices 1 2 3 4 5 6 
#
# 1 64.7786 9.9254 31.9740 0.0000 -15.8022 0.0000
# 2 9.9254 38.9536 16.8145 0.0000 5.0322 0.0000
# 3 31.9740 16.8145 147.5396 0.0000 -4.4546 0.0000
# 4 0.0000 0.0000 0.0000 25.6919 0.0000 -2.2965
# 5 -15.8022 5.0322 -4.4546 0.0000 44.4318 0.0000
# 6 0.0000 0.0000 0.0000 -2.2965 0.0000 19.9739
#
#
#
# Elastic Compliance Matrix: (Units=1/GPa)
#
#
# Indices 1 2 3 4 5 6 
#
# 1 0.019585 -0.004385 -0.003530 0.000000 0.007108 0.000000
# 2 -0.004385 0.028496 -0.002449 0.000000 -0.005032 0.000000
# 3 -0.003530 -0.002449 0.007816 0.000000 -0.000194 0.000000
# 4 0.000000 0.000000 0.000000 0.039327 0.000000 0.004522
# 5 0.007108 -0.005032 -0.000194 0.000000 0.025585 0.000000
# 6 0.000000 0.000000 0.000000 0.004522 0.000000 0.050585
#
#
# Mechanical properties :
#
#
# Convention : Reuss Voigt Hill
#
# Bulk Modulus (GPa) = 28.43393 40.96662 34.70027
# Shear Modulus (GPa) = 24.52825 30.85670 27.69247
#
# Velocity S-wave (km/s) = 3.49685 3.92210 3.71556
# Velocity P-wave (km/s) = 5.52078 6.39792 5.97547
#
# Compressibility (1/GPa) = 0.03516926
#
# Stress axis : x y z
#
# Youngs Moduli (GPa) = 51.05821 35.09242 127.94051
#
# Poissons Ratio (x) = 0.15388 0.45165
# Poissons Ratio (y) = 0.22388 0.31336
# Poissons Ratio (z) = 0.18024 0.08595
#
# Static dielectric constant tensor:
#      x y z
#    x 1.756080 0.000000 -0.040200 
#    y 0.000000 1.689020 0.000000 
#    z -0.040200 0.000000 1.774530 
# 
# From -- ./inp_files/61483.got.cif
#   From: 2010.05.17/outbox.cif.g08.bks.cpg/sg15_31_cif.got.tgz:61483.got - 2010.06.03 18:47:42.
