data_PCOD9275881
_publ_section_title
;
Structure prediction by ZEFSAII (Michael W. Deem and Ramdas Pophale) SiO2 
 PCOD9275881
Probable space group: C 2/C
;
_chemical_formula_sum "Si O2"
_cell_formula_units_Z 60
_cell_length_a 26.932389
_cell_length_b 7.321048
_cell_length_c 23.529472
_cell_angle_alpha 90.000000
_cell_angle_beta 31.213812
_cell_angle_gamma 90.000000
_cell_volume 2404.282750
_symmetry_space_group_name_H-M "C 2/C"
_symmetry_group_IT_number 15
_symmetry_cell_setting 'monoclinic'
loop_
_space_group_symop_operation_xyz
x,y,z
-x,y,1/2-z
-x,-y,-z
x,-y,1/2+z
1/2+x,1/2+y,z
1/2-x,1/2+y,1/2-z
1/2-x,1/2-y,-z
1/2+x,1/2-y,1/2+z
loop_
_atom_site_type_symbol
_atom_site_label
_atom_site_fract_x
_atom_site_fract_y
_atom_site_fract_z
Si Si1 0.639192 0.004191 0.467418
Si Si2 0.850481 0.405532 0.828450
Si Si3 0.131874 0.592733 0.852018
Si Si4 0.966951 0.708700 0.662689
Si Si5 0.347136 0.497815 0.122654
Si Si6 0.500000 0.675689 0.750000
Si Si7 0.125987 0.095570 0.527105
Si Si8 0.137537 0.073922 0.767495
O O1 0.577439 0.149795 0.563269
O O2 0.754794 0.000436 0.350701
O O3 0.615558 0.028082 0.423488
O O4 0.612449 0.807021 0.520114
O O5 0.899904 0.601151 0.772578
O O6 0.910333 0.300710 0.818247
O O7 0.735171 0.422463 0.943565
O O8 0.869919 0.265882 0.756768
O O9 0.061463 0.607567 0.868825
O O10 0.235554 0.544736 0.726306
O O11 0.139981 0.793909 0.870972
O O12 0.928462 0.911782 0.690495
O O13 0.385049 0.486559 0.021750
O O14 0.381241 0.396086 0.146642
O O15 0.549322 0.560208 0.651561
#
# Coordination Sequence:
#
# PCOD9275881 Si02
#       8
#     8   8   8   8   8   4   8   8
#     4   9  18  36  60  90 133 164 208 268 313 392
#     4  11  23  43  67  95 131 171 227 273 322 387
#     4   9  17  29  56  88 127 169 202 252 324 393
#     4  11  19  37  64  93 125 175 213 251 332 395
#     4   9  17  33  58  95 130 166 207 257 335 401
#     4  12  24  42  66  92 122 184 232 272 326 364
#     4  10  20  39  65  93 128 170 223 272 323 386
#     4   9  22  40  61 100 139 164 207 275 331 397
#
# _framework density 24.955469000000001
#
# number of rings (size 3 to 8) (size 9 to 14) (size 15 to 20)
#    0.000    2.133    2.667    1.600    0.000    0.000 
#    2.400    1.333    0.000    2.400    0.000    0.000 
#    0.000    0.000    0.000    0.000    0.000    0.000 
#
# Total GULP energy -167632.899924 kJ/mol
# GULP energy per Si atom -5587.763331 kJ/mol
# Density = 2.489867 g / cm^3
# Si number density = 24.955469 Si / 1000 Ang^3
#
#
#
# Elastic Constant Matrix: (Units=GPa)
#
#
# Indices 1 2 3 4 5 6 
#
# 1 91.2768 0.9366 27.4112 0.1232 3.9797 -0.0727
# 2 0.9366 40.0511 22.3079 0.1784 -5.4919 -0.1417
# 3 27.4112 22.3079 145.8004 0.1534 15.5068 -0.1449
# 4 0.1232 0.1784 0.1534 22.4675 -0.0902 -4.4905
# 5 3.9797 -5.4919 15.5068 -0.0902 30.8250 0.0582
# 6 -0.0727 -0.1417 -0.1449 -4.4905 0.0582 23.5388
#
#
#
# Elastic Compliance Matrix: (Units=1/GPa)
#
#
# Indices 1 2 3 4 5 6 
#
# 1 0.011651 0.001003 -0.002327 -0.000053 -0.000155 0.000018
# 2 0.001003 0.029057 -0.005463 -0.000148 0.007795 0.000097
# 3 -0.002327 -0.005463 0.008667 -0.000019 -0.005033 0.000022
# 4 -0.000053 -0.000148 -0.000019 0.046275 0.000109 0.008827
# 5 -0.000155 0.007795 -0.005033 0.000109 0.036382 -0.000054
# 6 0.000018 0.000097 0.000022 0.008827 -0.000054 0.044168
#
#
# Mechanical properties :
#
#
# Convention : Reuss Voigt Hill
#
# Bulk Modulus (GPa) = 27.93240 42.04885 34.99063
# Shear Modulus (GPa) = 24.78802 30.46444 27.62623
#
# Velocity S-wave (km/s) = 3.15507 3.49772 3.33080
# Velocity P-wave (km/s) = 4.94872 5.76178 5.37066
#
# Compressibility (1/GPa) = 0.03580072
#
# Stress axis : x y z
#
# Youngs Moduli (GPa) = 85.82830 34.41454 115.37354
#
# Poissons Ratio (x) = -0.03451 0.26852
# Poissons Ratio (y) = -0.08608 0.63031
# Poissons Ratio (z) = 0.19975 0.18802
#
# Static dielectric constant tensor:
#      x y z
#    x 2.041270 0.000000 0.009650 
#    y 0.000000 1.976270 0.000000 
#    z 0.009650 0.000000 2.000650 
# 
# From -- ./inp_files/284287.got.cif
#   From: 2010.05.17/outbox.cif.g08.bks.cpg/sg15_143_cif.got.tgz:284287.got - 2010.06.03 18:47:42.
