data_PCOD9275023
_publ_section_title
;
Structure prediction by ZEFSAII (Michael W. Deem and Ramdas Pophale) SiO2 
 PCOD9275023
Probable space group: C 2/C
;
_chemical_formula_sum "Si O2"
_cell_formula_units_Z 56
_cell_length_a 11.798569
_cell_length_b 14.942037
_cell_length_c 17.678425
_cell_angle_alpha 90.000000
_cell_angle_beta 61.134641
_cell_angle_gamma 90.000000
_cell_volume 2729.393251
_symmetry_space_group_name_H-M "C 2/C"
_symmetry_group_IT_number 15
_symmetry_cell_setting 'monoclinic'
loop_
_space_group_symop_operation_xyz
x,y,z
-x,y,1/2-z
-x,-y,-z
x,-y,1/2+z
1/2+x,1/2+y,z
1/2-x,1/2+y,1/2-z
1/2-x,1/2-y,-z
1/2+x,1/2-y,1/2+z
loop_
_atom_site_type_symbol
_atom_site_label
_atom_site_fract_x
_atom_site_fract_y
_atom_site_fract_z
Si Si1 0.842040 0.423286 0.124253
Si Si2 0.154659 0.793353 0.095389
Si Si3 0.551344 0.598964 0.500957
Si Si4 0.174190 0.786639 0.452049
Si Si5 0.563393 0.892726 0.946471
Si Si6 0.641681 0.101672 0.123169
Si Si7 0.141016 0.586496 0.705033
O O1 0.740463 0.358905 0.117375
O O2 0.839523 0.524597 0.093431
O O3 0.820282 0.421140 0.220160
O O4 0.986476 0.392878 0.051011
O O5 0.112270 0.704865 0.154780
O O6 0.250000 0.750000 0.000000
O O7 0.049228 0.854122 0.085321
O O8 0.500000 0.500000 0.500000
O O9 0.460441 0.665067 0.482382
O O10 0.703571 0.597547 0.436647
O O11 0.250000 0.750000 0.500000
O O12 0.135179 0.700559 0.414935
O O13 0.258734 0.858370 0.378286
O O14 0.449937 0.907634 0.921172
O O15 0.621210 0.013869 0.179611
O O16 0.000000 0.632051 0.750000
#
# Coordination Sequence:
#
# PCOD9275023 Si02
#       7
#     8   8   8   8   8   8   8
#     4  11  23  40  70 101 137 174 235 294 346 405
#     4  10  20  38  67  99 126 171 228 279 331 414
#     4  11  21  39  69 101 133 174 231 286 339 414
#     4  12  27  43  70 107 138 186 234 287 357 431
#     4  11  22  43  75  99 131 188 241 274 344 446
#     4  11  21  43  72  99 130 183 239 278 345 423
#     4  12  26  44  65 103 144 179 227 303 354 404
#
# _framework density 20.517379999999999
#
# number of rings (size 3 to 8) (size 9 to 14) (size 15 to 20)
#    0.000    0.857    7.143    1.714    4.000    1.143 
#    0.000    0.714    0.000    0.000    0.000    0.000 
#    0.000    0.000    0.000    0.000    0.000    0.000 
#
# Total GULP energy -156114.907036 kJ/mol
# GULP energy per Si atom -5575.532394 kJ/mol
# Density = 2.047068 g / cm^3
# Si number density = 20.517380 Si / 1000 Ang^3
#
#
#
# Elastic Constant Matrix: (Units=GPa)
#
#
# Indices 1 2 3 4 5 6 
#
# 1 114.1499 69.3561 45.8662 0.0000 16.5323 0.0000
# 2 69.3561 190.9680 51.9607 0.0000 12.9750 0.0000
# 3 45.8662 51.9607 90.8887 0.0000 12.1863 0.0000
# 4 0.0000 0.0000 0.0000 8.8932 0.0000 14.4032
# 5 16.5323 12.9750 12.1863 0.0000 29.2802 0.0000
# 6 0.0000 0.0000 0.0000 14.4032 0.0000 49.6057
#
#
#
# Elastic Compliance Matrix: (Units=1/GPa)
#
#
# Indices 1 2 3 4 5 6 
#
# 1 0.013045 -0.003334 -0.004117 0.000000 -0.004175 0.000000
# 2 -0.003334 0.007104 -0.002340 0.000000 -0.000292 0.000000
# 3 -0.004117 -0.002340 0.014793 0.000000 -0.002795 0.000000
# 4 0.000000 0.000000 0.000000 0.212261 0.000000 -0.061631
# 5 -0.004175 -0.000292 -0.002795 0.000000 0.037802 0.000000
# 6 0.000000 0.000000 0.000000 -0.061631 0.000000 0.038054
#
#
# Mechanical properties :
#
#
# Convention : Reuss Voigt Hill
#
# Bulk Modulus (GPa) = 65.10585 81.15250 73.12918
# Shear Modulus (GPa) = 14.37772 32.81074 23.59423
#
# Velocity S-wave (km/s) = 2.65006 4.00330 3.39479
# Velocity P-wave (km/s) = 6.41597 7.81073 7.14745
#
# Compressibility (1/GPa) = 0.01535960
#
# Stress axis : x y z
#
# Youngs Moduli (GPa) = 76.65792 140.77245 67.60125
#
# Poissons Ratio (x) = 0.46930 0.27834
# Poissons Ratio (y) = 0.25556 0.15816
# Poissons Ratio (z) = 0.31563 0.32936
#
# Static dielectric constant tensor:
#      x y z
#    x 1.758340 0.000000 -0.006480 
#    y 0.000000 1.780190 0.000000 
#    z -0.006480 0.000000 1.787920 
# 
# From -- ./inp_files/197754.got.cif
#   From: 2010.05.17/outbox.cif.g08.bks.cpg/sg15_99_cif.got.tgz:197754.got - 2010.06.03 18:47:42.
