data_PCOD9275877
_publ_section_title
;
Structure prediction by ZEFSAII (Michael W. Deem and Ramdas Pophale) SiO2 
 PCOD9275877
Probable space group: C 2/C
;
_chemical_formula_sum "Si O2"
_cell_formula_units_Z 44
_cell_length_a 14.072340
_cell_length_b 9.425970
_cell_length_c 17.932793
_cell_angle_alpha 90.000000
_cell_angle_beta 125.403343
_cell_angle_gamma 90.000000
_cell_volume 1938.866924
_symmetry_space_group_name_H-M "C 2/C"
_symmetry_group_IT_number 15
_symmetry_cell_setting 'monoclinic'
loop_
_space_group_symop_operation_xyz
x,y,z
-x,y,1/2-z
-x,-y,-z
x,-y,1/2+z
1/2+x,1/2+y,z
1/2-x,1/2+y,1/2-z
1/2-x,1/2-y,-z
1/2+x,1/2-y,1/2+z
loop_
_atom_site_type_symbol
_atom_site_label
_atom_site_fract_x
_atom_site_fract_y
_atom_site_fract_z
Si Si1 0.840499 0.356337 0.597644
Si Si2 0.264468 0.098739 0.900518
Si Si3 0.631116 0.498251 0.089556
Si Si4 0.584446 0.758868 0.152137
Si Si5 0.673508 0.785168 0.538321
Si Si6 0.500000 0.918595 0.250000
O O1 0.848953 0.196831 0.634318
O O2 0.840559 0.358168 0.508638
O O3 0.717441 0.417215 0.573178
O O4 0.929133 0.472862 0.666606
O O5 0.321573 0.151555 0.850917
O O6 0.271484 0.930254 0.906590
O O7 0.622134 0.594243 0.159541
O O8 0.672344 0.336661 0.100942
O O9 0.500000 0.500000 0.000000
O O10 0.572386 0.816982 0.229203
O O11 0.459769 0.788050 0.053708
O O12 0.750000 0.750000 0.500000
#
# Coordination Sequence:
#
# PCOD9275877 Si02
#       6
#     8   8   8   8   8   4
#     4  10  21  38  66  94 128 172 225 283 328 412
#     4  10  20  39  65  93 120 168 233 272 316 399
#     4   9  19  37  64  96 125 160 223 273 321 388
#     4  10  22  37  62  92 126 175 214 278 326 411
#     4  11  18  34  64 100 117 160 217 278 326 381
#     4  12  22  40  62  92 142 182 224 278 374 386
#
# _framework density 22.693667000000001
#
# number of rings (size 3 to 8) (size 9 to 14) (size 15 to 20)
#    0.000    1.818    3.636    0.545    0.000    0.000 
#    0.000    7.273    0.000    5.455    0.000    0.000 
#    0.000    0.000    0.000    0.000    0.000    0.000 
#
# Total GULP energy -122743.811924 kJ/mol
# GULP energy per Si atom -5579.264178 kJ/mol
# Density = 2.264201 g / cm^3
# Si number density = 22.693667 Si / 1000 Ang^3
#
#
#
# Elastic Constant Matrix: (Units=GPa)
#
#
# Indices 1 2 3 4 5 6 
#
# 1 46.6053 25.5804 3.8613 0.0000 -18.2123 0.0000
# 2 25.5804 213.0071 9.0829 0.0000 -19.6087 0.0000
# 3 3.8613 9.0829 30.9392 0.0000 -11.3091 0.0000
# 4 0.0000 0.0000 0.0000 17.5220 0.0000 2.8567
# 5 -18.2123 -19.6087 -11.3091 0.0000 39.4198 0.0000
# 6 0.0000 0.0000 0.0000 2.8567 0.0000 30.8112
#
#
#
# Elastic Compliance Matrix: (Units=1/GPa)
#
#
# Indices 1 2 3 4 5 6 
#
# 1 0.027211 -0.002239 0.001619 0.000000 0.011922 0.000000
# 2 -0.002239 0.005115 -0.000749 0.000000 0.001295 0.000000
# 3 0.001619 -0.000749 0.036281 0.000000 0.010784 0.000000
# 4 0.000000 0.000000 0.000000 0.057947 0.000000 -0.005373
# 5 0.011922 0.001295 0.010784 0.000000 0.034614 0.000000
# 6 0.000000 0.000000 0.000000 -0.005373 0.000000 0.032954
#
#
# Mechanical properties :
#
#
# Convention : Reuss Voigt Hill
#
# Bulk Modulus (GPa) = 15.18165 40.84453 28.01309
# Shear Modulus (GPa) = 22.85031 34.35239 28.60135
#
# Velocity S-wave (km/s) = 3.17661 3.89491 3.55395
# Velocity P-wave (km/s) = 4.48986 6.18582 5.40478
#
# Compressibility (1/GPa) = 0.06586897
#
# Stress axis : x y z
#
# Youngs Moduli (GPa) = 36.75034 195.51376 27.56251
#
# Poissons Ratio (x) = 0.43782 -0.04463
# Poissons Ratio (y) = 0.08230 0.02064
# Poissons Ratio (z) = -0.05951 0.14639
#
# Static dielectric constant tensor:
#      x y z
#    x 1.770420 0.000000 0.059560 
#    y 0.000000 1.923300 0.000000 
#    z 0.059560 0.000000 1.852190 
# 
# From -- ./inp_files/202803.got.cif
#   From: 2010.05.17/outbox.cif.g08.bks.cpg/sg15_102_cif.got.tgz:202803.got - 2010.06.03 18:47:42.
