data_PCOD9275599
_publ_section_title
;
Structure prediction by ZEFSAII (Michael W. Deem and Ramdas Pophale) SiO2 
 PCOD9275599
Probable space group: C 2/C
;
_chemical_formula_sum "Si O2"
_cell_formula_units_Z 64
_cell_length_a 13.066849
_cell_length_b 14.330403
_cell_length_c 20.398334
_cell_angle_alpha 90.000000
_cell_angle_beta 113.259454
_cell_angle_gamma 90.000000
_cell_volume 3509.215282
_symmetry_space_group_name_H-M "C 2/C"
_symmetry_group_IT_number 15
_symmetry_cell_setting 'monoclinic'
loop_
_space_group_symop_operation_xyz
x,y,z
-x,y,1/2-z
-x,-y,-z
x,-y,1/2+z
1/2+x,1/2+y,z
1/2-x,1/2+y,1/2-z
1/2-x,1/2-y,-z
1/2+x,1/2-y,1/2+z
loop_
_atom_site_type_symbol
_atom_site_label
_atom_site_fract_x
_atom_site_fract_y
_atom_site_fract_z
Si Si1 0.580144 0.010973 0.457272
Si Si2 0.504727 0.367785 0.452482
Si Si3 0.309404 0.484602 0.460160
Si Si4 0.786486 0.714383 0.813549
Si Si5 0.724035 0.562771 0.191668
Si Si6 0.430050 0.950362 0.297917
Si Si7 0.156411 0.292540 0.022274
Si Si8 0.423487 0.602732 0.792946
O O1 0.616597 0.117080 0.474164
O O2 0.500000 0.000000 0.500000
O O3 0.701571 0.961204 0.477235
O O4 0.506029 0.985890 0.376211
O O5 0.388052 0.400688 0.454644
O O6 0.600509 0.446920 0.483311
O O7 0.553994 0.278757 0.501314
O O8 0.485571 0.352318 0.370737
O O9 0.266223 0.536625 0.383120
O O10 0.793493 0.826259 0.806209
O O11 0.880928 0.650947 0.803750
O O12 0.795532 0.691430 0.893224
O O13 0.673905 0.672301 0.754622
O O14 0.831306 0.523919 0.257552
O O15 0.625311 0.496233 0.193658
O O16 0.500000 0.942609 0.250000
O O17 0.250000 0.250000 0.000000
O O18 0.500000 0.586486 0.750000
#
# Coordination Sequence:
#
# PCOD9275599 Si02
#       8
#     8   8   8   8   8   8   8   8
#     4  12  24  40  63  94 126 163 209 267 315 370
#     4  10  21  38  63  89 119 166 206 253 312 372
#     4  10  20  39  63  88 121 162 210 252 313 374
#     4  11  23  41  60  91 123 161 206 252 310 370
#     4  10  21  40  62  87 120 165 206 248 304 377
#     4  11  24  42  64  87 128 168 205 252 317 377
#     4  12  22  38  63  93 124 159 210 259 312 367
#     4  10  23  37  59  90 122 153 204 260 303 358
#
# _framework density 18.237694999999999
#
# number of rings (size 3 to 8) (size 9 to 14) (size 15 to 20)
#    0.000    1.250    5.000    0.750    1.750    1.000 
#    0.000    0.625    2.750    0.000    0.000    0.000 
#    0.000    0.000    0.000    0.000    0.000    0.000 
#
# Total GULP energy -178475.827087 kJ/mol
# GULP energy per Si atom -5577.369596 kJ/mol
# Density = 1.819619 g / cm^3
# Si number density = 18.237695 Si / 1000 Ang^3
#
#
#
# Elastic Constant Matrix: (Units=GPa)
#
#
# Indices 1 2 3 4 5 6 
#
# 1 90.1603 13.3245 37.1584 0.0000 -2.7618 0.0000
# 2 13.3245 82.2753 10.8932 0.0000 4.8755 0.0000
# 3 37.1584 10.8932 113.8059 0.0000 0.1089 0.0000
# 4 0.0000 0.0000 0.0000 20.9772 0.0000 1.2182
# 5 -2.7618 4.8755 0.1089 0.0000 31.3869 0.0000
# 6 0.0000 0.0000 0.0000 1.2182 0.0000 17.7966
#
#
#
# Elastic Compliance Matrix: (Units=1/GPa)
#
#
# Indices 1 2 3 4 5 6 
#
# 1 0.013074 -0.001657 -0.004112 0.000000 0.001422 0.000000
# 2 -0.001657 0.012636 -0.000666 0.000000 -0.002106 0.000000
# 3 -0.004112 -0.000666 0.010193 0.000000 -0.000294 0.000000
# 4 0.000000 0.000000 0.000000 0.047861 0.000000 -0.003276
# 5 0.001422 -0.002106 -0.000294 0.000000 0.032314 0.000000
# 6 0.000000 0.000000 0.000000 -0.003276 0.000000 0.056415
#
#
# Mechanical properties :
#
#
# Convention : Reuss Voigt Hill
#
# Bulk Modulus (GPa) = 43.41577 45.44374 44.42975
# Shear Modulus (GPa) = 25.90121 29.02317 27.46219
#
# Velocity S-wave (km/s) = 3.77265 3.99354 3.88466
# Velocity P-wave (km/s) = 6.54479 6.79971 6.67347
#
# Compressibility (1/GPa) = 0.02303311
#
# Stress axis : x y z
#
# Youngs Moduli (GPa) = 76.48537 79.14048 98.10251
#
# Poissons Ratio (x) = 0.13116 0.40336
# Poissons Ratio (y) = 0.12676 0.06537
# Poissons Ratio (z) = 0.31448 0.05273
#
# Static dielectric constant tensor:
#      x y z
#    x 1.648010 0.000000 0.013100 
#    y 0.000000 1.664650 0.000000 
#    z 0.013100 0.000000 1.557920 
# 
# From -- ./inp_files/238761.got.cif
#   From: 2010.05.17/outbox.cif.g08.bks.cpg/sg15_120_cif.got.tgz:238761.got - 2010.06.03 18:47:42.
