data_PCOD9275353
_publ_section_title
;
Structure prediction by ZEFSAII (Michael W. Deem and Ramdas Pophale) SiO2 
 PCOD9275353
Probable space group: C 2/C
;
_chemical_formula_sum "Si O2"
_cell_formula_units_Z 52
_cell_length_a 20.682902
_cell_length_b 13.448771
_cell_length_c 18.451271
_cell_angle_alpha 90.000000
_cell_angle_beta 147.558215
_cell_angle_gamma 90.000000
_cell_volume 2753.236157
_symmetry_space_group_name_H-M "C 2/C"
_symmetry_group_IT_number 15
_symmetry_cell_setting 'monoclinic'
loop_
_space_group_symop_operation_xyz
x,y,z
-x,y,1/2-z
-x,-y,-z
x,-y,1/2+z
1/2+x,1/2+y,z
1/2-x,1/2+y,1/2-z
1/2-x,1/2-y,-z
1/2+x,1/2-y,1/2+z
loop_
_atom_site_type_symbol
_atom_site_label
_atom_site_fract_x
_atom_site_fract_y
_atom_site_fract_z
Si Si1 0.801668 0.798447 0.309003
Si Si2 0.758095 0.571358 0.464166
Si Si3 0.643331 0.092789 0.780747
Si Si4 0.416073 0.228639 0.550434
Si Si5 0.613086 0.098395 0.159420
Si Si6 0.344746 0.938198 0.424607
Si Si7 0.000000 0.883543 0.750000
O O1 0.714676 0.838409 0.290894
O O2 0.916987 0.775159 0.470623
O O3 0.800328 0.693043 0.266150
O O4 0.769049 0.879647 0.217034
O O5 0.806652 0.589316 0.590961
O O6 0.791287 0.672623 0.452018
O O7 0.817716 0.479225 0.478620
O O8 0.614819 0.557073 0.330301
O O9 0.512127 0.141317 0.654484
O O10 0.644551 0.981096 0.751182
O O11 0.448217 0.313375 0.637832
O O12 0.630243 0.034771 0.102100
O O13 0.470660 0.121988 0.036178
#
# Coordination Sequence:
#
# PCOD9275353 Si02
#       7
#     8   8   8   8   8   8   4
#     4  11  21  37  59  94 125 159 209 259 312 366
#     4  12  22  40  60  93 130 166 207 265 319 376
#     4  11  22  37  65  96 124 163 218 260 311 377
#     4  12  20  35  62  92 124 161 204 259 315 376
#     4  10  20  39  60  89 126 169 213 256 305 381
#     4  10  22  39  62  88 126 171 213 255 310 386
#     4  12  24  34  56 100 130 154 196 272 342 362
#
# _framework density 18.886865
#
# number of rings (size 3 to 8) (size 9 to 14) (size 15 to 20)
#    0.000    0.923    6.154    3.231    0.000    0.000 
#    0.000    4.615    0.000    0.000    0.000    0.000 
#    0.000    0.000    0.000    0.000    0.000    0.000 
#
# Total GULP energy -144776.630243 kJ/mol
# GULP energy per Si atom -5568.331932 kJ/mol
# Density = 1.884388 g / cm^3
# Si number density = 18.886865 Si / 1000 Ang^3
#
#
#
# Elastic Constant Matrix: (Units=GPa)
#
#
# Indices 1 2 3 4 5 6 
#
# 1 79.2551 45.3581 34.0378 0.0000 0.2401 0.0000
# 2 45.3581 63.3482 31.2413 0.0000 -3.0026 0.0000
# 3 34.0378 31.2413 74.2436 0.0000 -2.6462 0.0000
# 4 0.0000 0.0000 0.0000 22.4762 0.0000 -2.5799
# 5 0.2401 -3.0026 -2.6462 0.0000 27.0079 0.0000
# 6 0.0000 0.0000 0.0000 -2.5799 0.0000 31.9316
#
#
#
# Elastic Compliance Matrix: (Units=1/GPa)
#
#
# Indices 1 2 3 4 5 6 
#
# 1 0.022620 -0.014067 -0.004530 0.000000 -0.002209 0.000000
# 2 -0.014067 0.028720 -0.005537 0.000000 0.002776 0.000000
# 3 -0.004530 -0.005537 0.017918 0.000000 0.001180 0.000000
# 4 0.000000 0.000000 0.000000 0.044908 0.000000 0.003628
# 5 -0.002209 0.002776 0.001180 0.000000 0.037470 0.000000
# 6 0.000000 0.000000 0.000000 0.003628 0.000000 0.031610
#
#
# Mechanical properties :
#
#
# Convention : Reuss Voigt Hill
#
# Bulk Modulus (GPa) = 47.64116 48.68014 48.16065
# Shear Modulus (GPa) = 20.96329 23.36376 22.16353
#
# Velocity S-wave (km/s) = 3.33519 3.52097 3.42934
# Velocity P-wave (km/s) = 6.33329 6.50847 6.42148
#
# Compressibility (1/GPa) = 0.02099025
#
# Stress axis : x y z
#
# Youngs Moduli (GPa) = 44.20804 34.81854 55.80959
#
# Poissons Ratio (x) = 0.48980 0.25281
# Poissons Ratio (y) = 0.62188 0.30903
# Poissons Ratio (z) = 0.20026 0.19280
#
# Static dielectric constant tensor:
#      x y z
#    x 1.692620 0.000000 0.023530 
#    y 0.000000 1.674840 0.000000 
#    z 0.023530 0.000000 1.720230 
# 
# From -- ./inp_files/112323.got.cif
#   From: 2010.05.17/outbox.cif.g08.bks.cpg/sg15_57_cif.got.tgz:112323.got - 2010.06.03 18:47:42.
