data_PCOD9275422
_publ_section_title
;
Structure prediction by ZEFSAII (Michael W. Deem and Ramdas Pophale) SiO2 
 PCOD9275422
Probable space group: C 2/C
;
_chemical_formula_sum "Si O2"
_cell_formula_units_Z 56
_cell_length_a 15.786403
_cell_length_b 10.338322
_cell_length_c 16.298000
_cell_angle_alpha 90.000000
_cell_angle_beta 70.297450
_cell_angle_gamma 90.000000
_cell_volume 2504.190534
_symmetry_space_group_name_H-M "C 2/C"
_symmetry_group_IT_number 15
_symmetry_cell_setting 'monoclinic'
loop_
_space_group_symop_operation_xyz
x,y,z
-x,y,1/2-z
-x,-y,-z
x,-y,1/2+z
1/2+x,1/2+y,z
1/2-x,1/2+y,1/2-z
1/2-x,1/2-y,-z
1/2+x,1/2-y,1/2+z
loop_
_atom_site_type_symbol
_atom_site_label
_atom_site_fract_x
_atom_site_fract_y
_atom_site_fract_z
Si Si1 0.040232 0.408114 0.323231
Si Si2 0.391666 0.261480 0.938019
Si Si3 0.256952 0.015982 0.760843
Si Si4 0.160329 0.676238 0.051405
Si Si5 0.654648 0.247708 0.241283
Si Si6 0.029499 0.667824 0.421503
Si Si7 0.741286 0.429004 0.450451
O O1 0.146919 0.410144 0.277624
O O2 0.023547 0.517087 0.397834
O O3 0.000000 0.456118 0.250000
O O4 0.983613 0.278633 0.362340
O O5 0.306892 0.194578 0.921129
O O6 0.407196 0.202175 0.023658
O O7 0.350279 0.402213 0.970283
O O8 0.192715 0.106870 0.728225
O O9 0.220925 0.024618 0.865556
O O10 0.279025 0.863868 0.740655
O O11 0.138456 0.699904 0.154254
O O12 0.191400 0.529585 0.029830
O O13 0.072700 0.710606 0.028399
O O14 0.250000 0.750000 0.000000
O O15 0.569106 0.238281 0.328337
#
# Coordination Sequence:
#
# PCOD9275422 Si02
#       7
#     8   8   8   8   8   8   8
#     4  11  20  35  59  91 123 154 205 259 302 358
#     4  11  21  35  63  89 118 155 198 252 307 367
#     4  10  20  39  61  90 120 162 199 254 306 367
#     4  11  24  40  60  89 121 161 207 255 303 366
#     4  10  22  40  64  88 124 160 204 254 311 360
#     4  11  21  38  63  88 114 163 211 252 302 370
#     4  10  21  40  58  88 128 154 192 252 321 351
#
# _framework density 22.362515999999999
#
# number of rings (size 3 to 8) (size 9 to 14) (size 15 to 20)
#    0.000    1.429    4.286    2.571    2.000    1.143 
#    0.000    2.143    0.000    0.000    0.000    0.000 
#    0.000    0.000    0.000    0.000    0.000    0.000 
#
# Total GULP energy -156152.870192 kJ/mol
# GULP energy per Si atom -5576.888221 kJ/mol
# Density = 2.231162 g / cm^3
# Si number density = 22.362516 Si / 1000 Ang^3
#
#
#
# Elastic Constant Matrix: (Units=GPa)
#
#
# Indices 1 2 3 4 5 6 
#
# 1 65.3361 11.1849 9.6110 0.0000 1.0764 0.0000
# 2 11.1849 23.1832 -1.0464 0.0000 -2.1564 0.0000
# 3 9.6110 -1.0464 62.4226 0.0000 -4.8479 0.0000
# 4 0.0000 0.0000 0.0000 20.6928 0.0000 -5.2137
# 5 1.0764 -2.1564 -4.8479 0.0000 28.2737 0.0000
# 6 0.0000 0.0000 0.0000 -5.2137 0.0000 22.9181
#
#
#
# Elastic Compliance Matrix: (Units=1/GPa)
#
#
# Indices 1 2 3 4 5 6 
#
# 1 0.017244 -0.008621 -0.002941 0.000000 -0.001818 0.000000
# 2 -0.008621 0.047815 0.002471 0.000000 0.004399 0.000000
# 3 -0.002941 0.002471 0.016761 0.000000 0.003174 0.000000
# 4 0.000000 0.000000 0.000000 0.051264 0.000000 0.011662
# 5 -0.001818 0.004399 0.003174 0.000000 0.036318 0.000000
# 6 0.000000 0.000000 0.000000 0.011662 0.000000 0.046287
#
#
# Mechanical properties :
#
#
# Convention : Reuss Voigt Hill
#
# Bulk Modulus (GPa) = 15.71433 21.16010 18.43722
# Shear Modulus (GPa) = 19.60148 23.12308 21.36228
#
# Velocity S-wave (km/s) = 2.96384 3.21909 3.09410
# Velocity P-wave (km/s) = 4.33068 4.82697 4.58554
#
# Compressibility (1/GPa) = 0.06363620
#
# Stress axis : x y z
#
# Youngs Moduli (GPa) = 57.99151 20.91406 59.66395
#
# Poissons Ratio (x) = 0.18031 0.17546
# Poissons Ratio (y) = 0.49996 -0.14740
# Poissons Ratio (z) = 0.17054 -0.05167
#
# Static dielectric constant tensor:
#      x y z
#    x 1.820100 0.000000 -0.020410 
#    y 0.000000 2.071780 0.000000 
#    z -0.020410 0.000000 1.865120 
# 
# From -- ./inp_files/203955.got.cif
#   From: 2010.05.17/outbox.cif.g08.bks.cpg/sg15_102_cif.got.tgz:203955.got - 2010.06.03 18:47:42.
