data_PCOD9275056
_publ_section_title
;
Structure prediction by ZEFSAII (Michael W. Deem and Ramdas Pophale) SiO2 
 PCOD9275056
Probable space group: C 2/C
;
_chemical_formula_sum "Si O2"
_cell_formula_units_Z 40
_cell_length_a 11.733697
_cell_length_b 8.424452
_cell_length_c 19.251900
_cell_angle_alpha 90.000000
_cell_angle_beta 49.299845
_cell_angle_gamma 90.000000
_cell_volume 1442.763951
_symmetry_space_group_name_H-M "C 2/C"
_symmetry_group_IT_number 15
_symmetry_cell_setting 'monoclinic'
loop_
_space_group_symop_operation_xyz
x,y,z
-x,y,1/2-z
-x,-y,-z
x,-y,1/2+z
1/2+x,1/2+y,z
1/2-x,1/2+y,1/2-z
1/2-x,1/2-y,-z
1/2+x,1/2-y,1/2+z
loop_
_atom_site_type_symbol
_atom_site_label
_atom_site_fract_x
_atom_site_fract_y
_atom_site_fract_z
Si Si1 0.893321 0.311097 0.489342
Si Si2 0.500000 0.873232 0.250000
Si Si3 0.000000 0.000000 0.000000
Si Si4 0.341216 0.681675 0.205845
Si Si5 0.822672 0.580153 0.434983
Si Si6 0.035313 0.156705 0.814547
O O1 0.750000 0.250000 0.500000
O O2 0.859414 0.498251 0.495543
O O3 0.051042 0.279578 0.387498
O O4 0.921309 0.187088 0.539345
O O5 0.378829 0.753301 0.265421
O O6 0.423055 0.980016 0.338947
O O7 0.843144 0.058196 0.028713
O O8 0.169754 0.715122 0.258576
O O9 0.402208 0.502382 0.172599
O O10 0.888196 0.755724 0.400829
O O11 0.000000 0.105401 0.750000
#
# Coordination Sequence:
#
# PCOD9275056 Si02
#       6
#     8   4   4   8   8   8
#     4   9  20  38  61  89 125 174 212 266 322 390
#     4  10  20  40  66  96 128 176 218 280 334 398
#     4  10  20  38  68  88 128 180 214 260 334 384
#     4  11  23  40  67  95 135 169 224 280 338 394
#     4  10  21  38  64  93 132 168 221 270 332 389
#     4  12  24  40  65 101 130 171 218 276 335 397
#
# _framework density 27.724564000000001
#
# number of rings (size 3 to 8) (size 9 to 14) (size 15 to 20)
#    0.000    1.600    2.000    3.600    2.800    0.000 
#    0.000    4.000    4.400    6.000    0.000    0.000 
#    0.000    0.000    0.000    0.000    0.000    0.000 
#
# Total GULP energy -111469.878335 kJ/mol
# GULP energy per Si atom -5573.493917 kJ/mol
# Density = 2.766146 g / cm^3
# Si number density = 27.724564 Si / 1000 Ang^3
#
#
#
# Elastic Constant Matrix: (Units=GPa)
#
#
# Indices 1 2 3 4 5 6 
#
# 1 157.3903 74.8126 52.6317 0.0000 -46.5224 0.0000
# 2 74.8126 190.0333 36.2869 0.0000 -20.7631 0.0000
# 3 52.6317 36.2869 78.7798 0.0000 -44.9795 0.0000
# 4 0.0000 0.0000 0.0000 11.9914 0.0000 -14.8960
# 5 -46.5224 -20.7631 -44.9795 0.0000 53.5529 0.0000
# 6 0.0000 0.0000 0.0000 -14.8960 0.0000 59.5588
#
#
#
# Elastic Compliance Matrix: (Units=1/GPa)
#
#
# Indices 1 2 3 4 5 6 
#
# 1 0.010230 -0.002983 -0.002011 0.000000 0.006041 0.000000
# 2 -0.002983 0.006640 -0.002066 0.000000 -0.001752 0.000000
# 3 -0.002011 -0.002066 0.026004 0.000000 0.019293 0.000000
# 4 0.000000 0.000000 0.000000 0.120981 0.000000 0.030258
# 5 0.006041 -0.001752 0.019293 0.000000 0.039446 0.000000
# 6 0.000000 0.000000 0.000000 0.030258 0.000000 0.024358
#
#
# Mechanical properties :
#
#
# Convention : Reuss Voigt Hill
#
# Bulk Modulus (GPa) = 34.77858 83.74063 59.25961
# Shear Modulus (GPa) = 19.89157 42.51875 31.20516
#
# Velocity S-wave (km/s) = 2.68147 3.92039 3.35855
# Velocity P-wave (km/s) = 4.70729 7.12479 6.03826
#
# Compressibility (1/GPa) = 0.02875333
#
# Stress axis : x y z
#
# Youngs Moduli (GPa) = 97.75328 150.60987 38.45544
#
# Poissons Ratio (x) = 0.44930 0.07734
# Poissons Ratio (y) = 0.29162 0.07944
# Poissons Ratio (z) = 0.19660 0.31112
#
# Static dielectric constant tensor:
#      x y z
#    x 2.161120 0.000000 0.191870 
#    y 0.000000 2.288800 0.000000 
#    z 0.191870 0.000000 2.602430 
# 
# From -- ./inp_files/195117.got.cif
#   From: 2010.05.17/outbox.cif.g08.bks.cpg/sg15_98_cif.got.tgz:195117.got - 2010.06.03 18:47:42.
