data_PCOD9275372
_publ_section_title
;
Structure prediction by ZEFSAII (Michael W. Deem and Ramdas Pophale) SiO2 
 PCOD9275372
Probable space group: C 2/C
;
_chemical_formula_sum "Si O2"
_cell_formula_units_Z 56
_cell_length_a 13.036232
_cell_length_b 13.584124
_cell_length_c 17.819078
_cell_angle_alpha 90.000000
_cell_angle_beta 52.701271
_cell_angle_gamma 90.000000
_cell_volume 2510.163394
_symmetry_space_group_name_H-M "C 2/C"
_symmetry_group_IT_number 15
_symmetry_cell_setting 'monoclinic'
loop_
_space_group_symop_operation_xyz
x,y,z
-x,y,1/2-z
-x,-y,-z
x,-y,1/2+z
1/2+x,1/2+y,z
1/2-x,1/2+y,1/2-z
1/2-x,1/2-y,-z
1/2+x,1/2-y,1/2+z
loop_
_atom_site_type_symbol
_atom_site_label
_atom_site_fract_x
_atom_site_fract_y
_atom_site_fract_z
Si Si1 0.338958 0.970567 0.708042
Si Si2 0.518926 0.815673 0.557518
Si Si3 0.781978 0.221496 0.569543
Si Si4 0.385259 0.341963 0.752153
Si Si5 0.053738 0.843037 0.305512
Si Si6 0.861622 0.024170 0.596529
Si Si7 0.160072 0.307271 0.346752
O O1 0.465873 0.908995 0.627891
O O2 0.228810 0.920884 0.704483
O O3 0.263858 0.960676 0.821875
O O4 0.365354 0.086142 0.680699
O O5 0.403795 0.776444 0.553494
O O6 0.540620 0.729385 0.607866
O O7 0.631504 0.825279 0.447002
O O8 0.750000 0.250000 0.500000
O O9 0.664900 0.252418 0.674528
O O10 0.806050 0.106876 0.566868
O O11 0.500000 0.385884 0.750000
O O12 0.411762 0.286060 0.660945
O O13 0.093077 0.929031 0.344275
O O14 0.188734 0.785462 0.233301
O O15 0.000000 0.874000 0.250000
O O16 0.000000 0.000000 0.500000
#
# Coordination Sequence:
#
# PCOD9275372 Si02
#       7
#     8   8   8   8   8   8   8
#     4  10  21  40  61  91 131 170 216 269 330 388
#     4  10  21  38  66  88 123 175 210 267 329 396
#     4  10  20  39  60  96 128 165 218 269 331 392
#     4  11  22  38  67  96 130 177 220 274 328 390
#     4  10  22  42  63  89 127 167 217 264 322 396
#     4  10  22  39  64  92 130 168 214 277 326 383
#     4  11  21  42  64  91 135 170 215 278 334 387
#
# _framework density 22.309305999999999
#
# number of rings (size 3 to 8) (size 9 to 14) (size 15 to 20)
#    0.000    1.714    5.714    1.286    6.000    2.857 
#    5.143    0.714    0.000    0.000    0.000    0.000 
#    0.000    0.000    0.000    0.000    0.000    0.000 
#
# Total GULP energy -155992.105498 kJ/mol
# GULP energy per Si atom -5571.146625 kJ/mol
# Density = 2.225853 g / cm^3
# Si number density = 22.309306 Si / 1000 Ang^3
#
#
#
# Elastic Constant Matrix: (Units=GPa)
#
#
# Indices 1 2 3 4 5 6 
#
# 1 54.3005 -1.7966 0.6152 0.0000 25.6011 0.0000
# 2 -1.7966 45.2790 11.1045 0.0000 18.3470 0.0000
# 3 0.6152 11.1045 150.7108 0.0000 14.6245 0.0000
# 4 0.0000 0.0000 0.0000 28.4123 0.0000 3.4489
# 5 25.6011 18.3470 14.6245 0.0000 23.1808 0.0000
# 6 0.0000 0.0000 0.0000 3.4489 0.0000 9.9209
#
#
#
# Elastic Compliance Matrix: (Units=1/GPa)
#
#
# Indices 1 2 3 4 5 6 
#
# 1 0.118698 0.085333 0.013318 0.000000 -0.207031 0.000000
# 2 0.085333 0.093860 0.009682 0.000000 -0.174639 0.000000
# 3 0.013318 0.009682 0.008563 0.000000 -0.027774 0.000000
# 4 0.000000 0.000000 0.000000 0.036747 0.000000 -0.012775
# 5 -0.207031 -0.174639 -0.027774 0.000000 0.427531 0.000000
# 6 0.000000 0.000000 0.000000 -0.012775 0.000000 0.105239
#
#
# Mechanical properties :
#
#
# Convention : Reuss Voigt Hill
#
# Bulk Modulus (GPa) = 2.28422 30.01514 16.14968
# Shear Modulus (GPa) = 6.94542 28.32729 17.63635
#
# Velocity S-wave (km/s) = 1.76635 3.56722 2.81470
# Velocity P-wave (km/s) = 2.27730 5.51816 4.22115
#
# Compressibility (1/GPa) = 0.43778634
#
# Stress axis : x y z
#
# Youngs Moduli (GPa) = 8.42477 10.65414 116.78789
#
# Poissons Ratio (x) = -0.90915 -1.55536
# Poissons Ratio (y) = -0.71891 -1.13079
# Poissons Ratio (z) = -0.11220 -0.10316
#
# Static dielectric constant tensor:
#      x y z
#    x 1.870120 0.000000 -0.043880 
#    y 0.000000 1.883450 0.000000 
#    z -0.043880 0.000000 1.915580 
# 
# From -- ./inp_files/205338.got.cif
#   From: 2010.05.17/outbox.cif.g08.bks.cpg/sg15_103_cif.got.tgz:205338.got - 2010.06.03 18:47:42.
