data_PCOD9275129
_publ_section_title
;
Structure prediction by ZEFSAII (Michael W. Deem and Ramdas Pophale) SiO2 
 PCOD9275129
Probable space group: C 2/C
;
_chemical_formula_sum "Si O2"
_cell_formula_units_Z 48
_cell_length_a 12.602556
_cell_length_b 22.503696
_cell_length_c 9.952360
_cell_angle_alpha 90.000000
_cell_angle_beta 132.125021
_cell_angle_gamma 90.000000
_cell_volume 2093.422500
_symmetry_space_group_name_H-M "C 2/C"
_symmetry_group_IT_number 15
_symmetry_cell_setting 'monoclinic'
loop_
_space_group_symop_operation_xyz
x,y,z
-x,y,1/2-z
-x,-y,-z
x,-y,1/2+z
1/2+x,1/2+y,z
1/2-x,1/2+y,1/2-z
1/2-x,1/2-y,-z
1/2+x,1/2-y,1/2+z
loop_
_atom_site_type_symbol
_atom_site_label
_atom_site_fract_x
_atom_site_fract_y
_atom_site_fract_z
Si Si1 0.609695 0.313933 0.964822
Si Si2 0.431472 0.597172 0.483715
Si Si3 0.889128 0.383591 0.766188
Si Si4 0.862767 0.482315 0.200094
Si Si5 0.376107 0.179112 0.536357
Si Si6 0.672348 0.488321 0.280098
O O1 0.500000 0.308642 0.750000
O O2 0.527403 0.349339 0.009399
O O3 0.657771 0.246939 0.041151
O O4 0.743955 0.346315 0.010257
O O5 0.280613 0.620751 0.415387
O O6 0.379496 0.552138 0.321408
O O7 0.537728 0.555323 0.657123
O O8 0.920112 0.453837 0.801171
O O9 0.000000 0.359053 0.750000
O O10 0.907949 0.356142 0.928656
O O11 0.780980 0.459715 0.261896
O O12 0.000000 0.450883 0.250000
O O13 0.749970 0.498479 0.986334
O O14 0.500000 0.182760 0.750000
#
# Coordination Sequence:
#
# PCOD9275129 Si02
#       6
#     8   8   8   8   8   8
#     4  10  20  38  69  93 127 162 221 279 323 373
#     4  10  22  39  66  94 131 171 221 275 325 386
#     4  10  22  41  63  89 137 173 205 270 335 391
#     4  10  22  40  60  92 134 173 213 272 320 387
#     4  10  22  40  66  98 125 166 222 272 326 388
#     4  10  23  38  65  95 126 174 226 261 324 395
#
# _framework density 22.92896
#
# number of rings (size 3 to 8) (size 9 to 14) (size 15 to 20)
#    0.000    2.000    1.667    0.500    2.333    8.000 
#    0.000    5.000    7.333    1.000    0.000    0.000 
#    0.000    0.000    0.000    0.000    0.000    0.000 
#
# Total GULP energy -134098.929080 kJ/mol
# GULP energy per Si atom -5587.455378 kJ/mol
# Density = 2.287677 g / cm^3
# Si number density = 22.928960 Si / 1000 Ang^3
#
#
#
# Elastic Constant Matrix: (Units=GPa)
#
#
# Indices 1 2 3 4 5 6 
#
# 1 209.0683 33.4608 48.7455 0.0000 6.9831 0.0000
# 2 33.4608 66.5095 11.5649 0.0000 -10.1942 0.0000
# 3 48.7455 11.5649 110.0758 0.0000 5.4694 0.0000
# 4 0.0000 0.0000 0.0000 10.6848 0.0000 6.4022
# 5 6.9831 -10.1942 5.4694 0.0000 35.3196 0.0000
# 6 0.0000 0.0000 0.0000 6.4022 0.0000 28.3601
#
#
#
# Elastic Compliance Matrix: (Units=1/GPa)
#
#
# Indices 1 2 3 4 5 6 
#
# 1 0.005793 -0.002780 -0.002193 0.000000 -0.001608 0.000000
# 2 -0.002780 0.017466 -0.000889 0.000000 0.005728 0.000000
# 3 -0.002193 -0.000889 0.010219 0.000000 -0.001405 0.000000
# 4 0.000000 0.000000 0.000000 0.108231 0.000000 -0.024433
# 5 -0.001608 0.005728 -0.001405 0.000000 0.030502 0.000000
# 6 0.000000 0.000000 0.000000 -0.024433 0.000000 0.040776
#
#
# Mechanical properties :
#
#
# Convention : Reuss Voigt Hill
#
# Bulk Modulus (GPa) = 45.96639 63.68845 54.82742
# Shear Modulus (GPa) = 21.55516 34.33172 27.94344
#
# Velocity S-wave (km/s) = 3.06941 3.87370 3.49477
# Velocity P-wave (km/s) = 5.71424 6.91695 6.34416
#
# Compressibility (1/GPa) = 0.02175503
#
# Stress axis : x y z
#
# Youngs Moduli (GPa) = 172.61878 57.25277 97.85489
#
# Poissons Ratio (x) = 0.15914 0.21464
# Poissons Ratio (y) = 0.47980 0.08698
# Poissons Ratio (z) = 0.37864 0.05089
#
# Static dielectric constant tensor:
#      x y z
#    x 2.331870 0.000000 0.199470 
#    y 0.000000 1.899910 0.000000 
#    z 0.199470 0.000000 1.931730 
# 
# From -- ./inp_files/33786.got.cif
#   From: 2010.05.17/outbox.cif.g08.bks.cpg/sg15_17_cif.got.tgz:33786.got - 2010.06.03 18:47:42.
