data_PCOD9275656
_publ_section_title
;
Structure prediction by ZEFSAII (Michael W. Deem and Ramdas Pophale) SiO2 
 PCOD9275656
Probable space group: C 2/C
;
_chemical_formula_sum "Si O2"
_cell_formula_units_Z 56
_cell_length_a 7.999097
_cell_length_b 24.026101
_cell_length_c 16.910800
_cell_angle_alpha 90.000000
_cell_angle_beta 123.619603
_cell_angle_gamma 90.000000
_cell_volume 2706.410028
_symmetry_space_group_name_H-M "C 2/C"
_symmetry_group_IT_number 15
_symmetry_cell_setting 'monoclinic'
loop_
_space_group_symop_operation_xyz
x,y,z
-x,y,1/2-z
-x,-y,-z
x,-y,1/2+z
1/2+x,1/2+y,z
1/2-x,1/2+y,1/2-z
1/2-x,1/2-y,-z
1/2+x,1/2-y,1/2+z
loop_
_atom_site_type_symbol
_atom_site_label
_atom_site_fract_x
_atom_site_fract_y
_atom_site_fract_z
Si Si1 0.205722 0.457379 0.756930
Si Si2 0.558562 0.619651 0.418654
Si Si3 0.416163 0.670375 0.900540
Si Si4 0.571659 0.059440 0.047881
Si Si5 0.212363 0.086447 0.758556
Si Si6 0.168172 0.349019 0.060216
Si Si7 0.726967 0.779523 0.577884
O O1 0.383823 0.422142 0.844820
O O2 0.181716 0.438636 0.660170
O O3 0.232160 0.524066 0.752731
O O4 0.000000 0.447291 0.750000
O O5 0.532551 0.647555 0.498189
O O6 0.767123 0.585017 0.470809
O O7 0.605165 0.672464 0.372880
O O8 0.303907 0.622022 0.824705
O O9 0.621952 0.678533 0.905583
O O10 0.292539 0.727853 0.868383
O O11 0.370718 0.095939 0.001812
O O12 0.500000 0.000000 0.000000
O O13 0.338746 0.124488 0.853522
O O14 0.000000 0.081370 0.750000
O O15 0.987708 0.309612 0.987162
O O16 0.750000 0.750000 0.500000
#
# Coordination Sequence:
#
# PCOD9275656 Si02
#       7
#     8   8   8   8   8   8   8
#     4  12  25  39  62  95 131 170 214 264 319 389
#     4  10  23  41  63  89 127 166 212 262 322 382
#     4  10  21  39  65  95 124 165 217 264 317 376
#     4  11  22  39  62  88 129 171 203 251 323 377
#     4  10  22  38  61  93 130 166 207 260 321 384
#     4  10  20  39  63  92 127 166 214 261 315 383
#     4   9  20  40  63  86 120 167 211 265 320 373
#
# _framework density 20.691617000000001
#
# number of rings (size 3 to 8) (size 9 to 14) (size 15 to 20)
#    0.000    1.714    1.429    2.571    4.000    1.714 
#    0.000   10.000    0.000    6.857    0.000    0.000 
#    0.000    0.000    0.000    0.000    0.000    0.000 
#
# Total GULP energy -156067.170593 kJ/mol
# GULP energy per Si atom -5573.827521 kJ/mol
# Density = 2.064452 g / cm^3
# Si number density = 20.691617 Si / 1000 Ang^3
#
#
#
# Elastic Constant Matrix: (Units=GPa)
#
#
# Indices 1 2 3 4 5 6 
#
# 1 75.4165 34.3333 10.8937 0.0000 0.2284 0.0000
# 2 34.3333 99.0812 12.7071 0.0000 -15.2450 0.0000
# 3 10.8937 12.7071 75.7289 0.0000 -14.2000 0.0000
# 4 0.0000 0.0000 0.0000 5.1592 0.0000 0.5064
# 5 0.2284 -15.2450 -14.2000 0.0000 13.2605 0.0000
# 6 0.0000 0.0000 0.0000 0.5064 0.0000 26.4956
#
#
#
# Elastic Compliance Matrix: (Units=1/GPa)
#
#
# Indices 1 2 3 4 5 6 
#
# 1 0.017219 -0.007465 -0.003615 0.000000 -0.012750 0.000000
# 2 -0.007465 0.015530 0.002302 0.000000 0.020448 0.000000
# 3 -0.003615 0.002302 0.017326 0.000000 0.021262 0.000000
# 4 0.000000 0.000000 0.000000 0.194194 0.000000 -0.003712
# 5 -0.012750 0.020448 0.021262 0.000000 0.121908 0.000000
# 6 0.000000 0.000000 0.000000 -0.003712 0.000000 0.037813
#
#
# Mechanical properties :
#
#
# Convention : Reuss Voigt Hill
#
# Bulk Modulus (GPa) = 30.75069 40.67721 35.71395
# Shear Modulus (GPa) = 11.56376 21.80255 16.68316
#
# Velocity S-wave (km/s) = 2.36659 3.24958 2.84258
# Velocity P-wave (km/s) = 4.72878 5.81216 5.29823
#
# Compressibility (1/GPa) = 0.03251959
#
# Stress axis : x y z
#
# Youngs Moduli (GPa) = 58.07611 64.38985 57.71799
#
# Poissons Ratio (x) = 0.48065 0.20866
# Poissons Ratio (y) = 0.43352 -0.13288
# Poissons Ratio (z) = 0.20995 -0.14824
#
# Static dielectric constant tensor:
#      x y z
#    x 1.788560 0.000000 -0.009440 
#    y 0.000000 1.723850 0.000000 
#    z -0.009440 0.000000 1.773650 
# 
# From -- ./inp_files/193300.got.cif
#   From: 2010.05.17/outbox.cif.g08.bks.cpg/sg15_97_cif.got.tgz:193300.got - 2010.06.03 18:47:42.
