data_PCOD9275939
_publ_section_title
;
Structure prediction by ZEFSAII (Michael W. Deem and Ramdas Pophale) SiO2 
 PCOD9275939
Probable space group: C 2/C
;
_chemical_formula_sum "Si O2"
_cell_formula_units_Z 52
_cell_length_a 13.115258
_cell_length_b 9.827544
_cell_length_c 23.847811
_cell_angle_alpha 90.000000
_cell_angle_beta 126.818185
_cell_angle_gamma 90.000000
_cell_volume 2460.673819
_symmetry_space_group_name_H-M "C 2/C"
_symmetry_group_IT_number 15
_symmetry_cell_setting 'monoclinic'
loop_
_space_group_symop_operation_xyz
x,y,z
-x,y,1/2-z
-x,-y,-z
x,-y,1/2+z
1/2+x,1/2+y,z
1/2-x,1/2+y,1/2-z
1/2-x,1/2-y,-z
1/2+x,1/2-y,1/2+z
loop_
_atom_site_type_symbol
_atom_site_label
_atom_site_fract_x
_atom_site_fract_y
_atom_site_fract_z
Si Si1 0.220376 0.874326 0.948250
Si Si2 0.500000 0.267576 0.250000
Si Si3 0.408269 0.252330 0.338398
Si Si4 0.650846 0.744733 0.304832
Si Si5 0.163956 0.613653 0.459168
Si Si6 0.290335 0.947155 0.648374
Si Si7 0.973446 0.012384 0.425828
O O1 0.202280 0.819536 0.879739
O O2 0.250000 0.750000 0.000000
O O3 0.088496 0.936928 0.926899
O O4 0.319350 0.000114 0.987317
O O5 0.446537 0.324021 0.291526
O O6 0.613366 0.170976 0.306520
O O7 0.260668 0.205746 0.294988
O O8 0.518543 0.145502 0.392756
O O9 0.429255 0.364542 0.392376
O O10 0.500000 0.707998 0.250000
O O11 0.659244 0.909633 0.311547
O O12 0.250000 0.750000 0.500000
O O13 0.220992 0.543223 0.422386
O O14 0.153390 0.901464 0.625410
O O15 0.000000 0.000000 0.500000
#
# Coordination Sequence:
#
# PCOD9275939 Si02
#       7
#     8   4   8   8   8   8   8
#     4  12  23  39  67  98 131 170 231 278 331 403
#     4  10  22  40  66  92 124 176 230 270 316 412
#     4  10  23  42  66  96 131 177 231 273 339 413
#     4  11  24  43  62  97 141 177 219 281 344 412
#     4  11  20  40  68  96 128 169 222 282 329 393
#     4  10  20  39  66  89 124 180 223 254 333 408
#     4  11  20  40  67  94 130 178 217 275 339 399
#
# _framework density 21.132424
#
# number of rings (size 3 to 8) (size 9 to 14) (size 15 to 20)
#    0.000    1.231    5.385    0.923    2.154    0.615 
#    1.385    0.000    0.000    0.000    0.000    0.000 
#    0.000    0.000    0.000    0.000    0.000    0.000 
#
# Total GULP energy -144816.166740 kJ/mol
# GULP energy per Si atom -5569.852567 kJ/mol
# Density = 2.108433 g / cm^3
# Si number density = 21.132424 Si / 1000 Ang^3
#
#
#
# Elastic Constant Matrix: (Units=GPa)
#
#
# Indices 1 2 3 4 5 6 
#
# 1 130.1407 -4.7933 31.0889 0.0000 21.6699 0.0000
# 2 -4.7933 36.3260 8.7713 0.0000 7.7271 0.0000
# 3 31.0889 8.7713 89.2166 0.0000 -3.9426 0.0000
# 4 0.0000 0.0000 0.0000 28.0913 0.0000 -0.9753
# 5 21.6699 7.7271 -3.9426 0.0000 38.7619 0.0000
# 6 0.0000 0.0000 0.0000 -0.9753 0.0000 23.9394
#
#
#
# Elastic Compliance Matrix: (Units=1/GPa)
#
#
# Indices 1 2 3 4 5 6 
#
# 1 0.009923 0.003732 -0.004121 0.000000 -0.006711 0.000000
# 2 0.003732 0.031027 -0.004738 0.000000 -0.008753 0.000000
# 3 -0.004121 -0.004738 0.013314 0.000000 0.004603 0.000000
# 4 0.000000 0.000000 0.000000 0.035649 0.000000 0.001452
# 5 -0.006711 -0.008753 0.004603 0.000000 0.031763 0.000000
# 6 0.000000 0.000000 0.000000 0.001452 0.000000 0.041831
#
#
# Mechanical properties :
#
#
# Convention : Reuss Voigt Hill
#
# Bulk Modulus (GPa) = 22.72199 36.20192 29.46196
# Shear Modulus (GPa) = 26.53474 32.86627 29.70051
#
# Velocity S-wave (km/s) = 3.54735 3.94795 3.75300
# Velocity P-wave (km/s) = 5.24917 6.16035 5.72292
#
# Compressibility (1/GPa) = 0.04401023
#
# Stress axis : x y z
#
# Youngs Moduli (GPa) = 100.77131 32.23005 75.10858
#
# Poissons Ratio (x) = -0.12029 0.30956
# Poissons Ratio (y) = -0.37609 0.35585
# Poissons Ratio (z) = 0.41533 0.15270
#
# Static dielectric constant tensor:
#      x y z
#    x 1.778380 0.000000 -0.379060 
#    y 0.000000 1.785770 0.000000 
#    z -0.379060 0.000000 0.882030 
# 
# From -- ./inp_files/237687.got.cif
#   From: 2010.05.17/outbox.cif.g08.bks.cpg/sg15_119_cif.got.tgz:237687.got - 2010.06.03 18:47:42.
