data_PCOD9275551
_publ_section_title
;
Structure prediction by ZEFSAII (Michael W. Deem and Ramdas Pophale) SiO2 
 PCOD9275551
Probable space group: C 2/C
;
_chemical_formula_sum "Si O2"
_cell_formula_units_Z 56
_cell_length_a 8.855950
_cell_length_b 17.087477
_cell_length_c 25.182330
_cell_angle_alpha 90.000000
_cell_angle_beta 45.243024
_cell_angle_gamma 90.000000
_cell_volume 2706.003229
_symmetry_space_group_name_H-M "C 2/C"
_symmetry_group_IT_number 15
_symmetry_cell_setting 'monoclinic'
loop_
_space_group_symop_operation_xyz
x,y,z
-x,y,1/2-z
-x,-y,-z
x,-y,1/2+z
1/2+x,1/2+y,z
1/2-x,1/2+y,1/2-z
1/2-x,1/2-y,-z
1/2+x,1/2-y,1/2+z
loop_
_atom_site_type_symbol
_atom_site_label
_atom_site_fract_x
_atom_site_fract_y
_atom_site_fract_z
Si Si1 0.478217 0.716016 0.384324
Si Si2 0.277632 0.910615 0.287140
Si Si3 0.298687 0.376066 0.424086
Si Si4 0.249350 0.131575 0.683672
Si Si5 0.524803 0.739870 0.988483
Si Si6 0.356180 0.572740 0.017894
Si Si7 0.214895 0.582614 0.168875
O O1 0.622696 0.789980 0.333169
O O2 0.458130 0.728405 0.452561
O O3 0.246742 0.722189 0.415641
O O4 0.596261 0.633422 0.352225
O O5 0.500000 0.872248 0.250000
O O6 0.299164 0.927966 0.218839
O O7 0.053193 0.867543 0.351595
O O8 0.259331 0.991739 0.323294
O O9 0.209775 0.395787 0.386862
O O10 0.260495 0.436111 0.482429
O O11 0.174021 0.297083 0.470720
O O12 0.000000 0.149447 0.750000
O O13 0.492762 0.652062 0.976355
O O14 0.500000 0.500000 0.000000
O O15 0.212662 0.590374 0.105336
O O16 0.000000 0.610639 0.250000
#
# Coordination Sequence:
#
# PCOD9275551 Si02
#       7
#     8   8   8   8   8   8   8
#     4   9  18  36  61  87 122 166 206 254 323 377
#     4  10  21  37  64  92 122 163 211 260 316 382
#     4  10  20  39  62  95 123 164 212 260 317 374
#     4   9  19  35  61  90 121 163 208 259 318 378
#     4   9  20  35  61  92 128 157 210 267 309 377
#     4  11  21  37  65  94 125 165 214 258 314 384
#     4  10  21  38  64  89 124 162 207 259 312 377
#
# _framework density 20.694728999999999
#
# number of rings (size 3 to 8) (size 9 to 14) (size 15 to 20)
#    0.000    2.286    1.429    0.857    2.000    1.143 
#    0.000    0.714   25.143    0.000    0.000    0.000 
#    0.000    0.000    0.000    0.000    0.000    0.000 
#
# Total GULP energy -155902.124822 kJ/mol
# GULP energy per Si atom -5567.933029 kJ/mol
# Density = 2.064763 g / cm^3
# Si number density = 20.694729 Si / 1000 Ang^3
#
#
#
# Elastic Constant Matrix: (Units=GPa)
#
#
# Indices 1 2 3 4 5 6 
#
# 1 104.9226 36.0582 58.8490 -0.0005 9.6520 0.0007
# 2 36.0582 46.9339 19.4313 -0.0003 -4.2288 0.0006
# 3 58.8490 19.4313 92.0641 -0.0001 11.7968 0.0009
# 4 -0.0005 -0.0003 -0.0001 27.9752 0.0006 -1.7694
# 5 9.6520 -4.2288 11.7968 0.0006 55.2006 -0.0004
# 6 0.0007 0.0006 0.0009 -1.7694 -0.0004 17.5713
#
#
#
# Elastic Compliance Matrix: (Units=1/GPa)
#
#
# Indices 1 2 3 4 5 6 
#
# 1 0.018651 -0.010616 -0.009417 0.000000 -0.002062 0.000000
# 2 -0.010616 0.029857 -0.000048 0.000000 0.004154 0.000000
# 3 -0.009417 -0.000048 0.017151 0.000000 -0.002022 -0.000001
# 4 0.000000 0.000000 0.000000 0.035975 0.000000 0.003623
# 5 -0.002062 0.004154 -0.002022 0.000000 0.019227 0.000000
# 6 0.000000 0.000000 -0.000001 0.003623 0.000000 0.057276
#
#
# Mechanical properties :
#
#
# Convention : Reuss Voigt Hill
#
# Bulk Modulus (GPa) = 39.22141 52.51084 45.86612
# Shear Modulus (GPa) = 22.04624 28.78822 25.41723
#
# Velocity S-wave (km/s) = 3.26745 3.73378 3.50837
# Velocity P-wave (km/s) = 5.76441 6.63455 6.21473
#
# Compressibility (1/GPa) = 0.02549628
#
# Stress axis : x y z
#
# Youngs Moduli (GPa) = 53.61753 33.49347 58.30631
#
# Poissons Ratio (x) = 0.35556 0.54907
# Poissons Ratio (y) = 0.56919 0.00280
# Poissons Ratio (z) = 0.50492 0.00161
#
# Static dielectric constant tensor:
#      x y z
#    x 1.823170 0.000000 0.013780 
#    y 0.000000 1.732700 0.000000 
#    z 0.013780 0.000000 1.807440 
# 
# From -- ./inp_files/289679.got.cif
#   From: 2010.05.17/outbox.cif.g08.bks.cpg/sg15_145_cif.got.tgz:289679.got - 2010.06.03 18:47:42.
