data_PCOD9275078
_publ_section_title
;
Structure prediction by ZEFSAII (Michael W. Deem and Ramdas Pophale) SiO2 
 PCOD9275078
Probable space group: C 2/C
;
_chemical_formula_sum "Si O2"
_cell_formula_units_Z 40
_cell_length_a 10.352151
_cell_length_b 24.713419
_cell_length_c 8.115642
_cell_angle_alpha 90.000000
_cell_angle_beta 62.152039
_cell_angle_gamma 90.000000
_cell_volume 1835.828213
_symmetry_space_group_name_H-M "C 2/C"
_symmetry_group_IT_number 15
_symmetry_cell_setting 'monoclinic'
loop_
_space_group_symop_operation_xyz
x,y,z
-x,y,1/2-z
-x,-y,-z
x,-y,1/2+z
1/2+x,1/2+y,z
1/2-x,1/2+y,1/2-z
1/2-x,1/2-y,-z
1/2+x,1/2-y,1/2+z
loop_
_atom_site_type_symbol
_atom_site_label
_atom_site_fract_x
_atom_site_fract_y
_atom_site_fract_z
Si Si1 0.547741 0.370536 0.033154
Si Si2 0.342214 0.719821 0.246996
Si Si3 0.659761 0.053852 0.665343
Si Si4 0.151628 0.968675 0.756395
Si Si5 0.735738 0.833241 0.121806
O O1 0.500000 0.373897 0.250000
O O2 0.396021 0.359329 0.031008
O O3 0.640775 0.318309 0.921386
O O4 0.618607 0.424710 0.917743
O O5 0.500000 0.724235 0.250000
O O6 0.288588 0.780839 0.251033
O O7 0.228840 0.691266 0.441552
O O8 0.500000 0.027485 0.750000
O O9 0.733243 0.054856 0.442262
O O10 0.641131 0.115800 0.732646
O O11 0.772050 0.021157 0.712361
O O12 0.000000 0.979531 0.750000
#
# Coordination Sequence:
#
# PCOD9275078 Si02
#       5
#     8   8   8   8   8
#     4  11  23  40  67  99 132 177 233 278 330 412
#     4   9  18  39  65  95 128 168 222 280 335 407
#     4  12  26  43  68 104 139 177 228 290 344 400
#     4  12  25  46  70  98 136 185 233 278 336 416
#     4  10  20  38  68  93 127 173 227 272 340 403
#
# _framework density 21.788530000000002
#
# number of rings (size 3 to 8) (size 9 to 14) (size 15 to 20)
#    0.000    1.200    4.000    2.400    2.800    0.800 
#    0.000    0.000    0.000    0.000    0.000    0.000 
#    0.000    0.000    0.000    0.000    0.000    0.000 
#
# Total GULP energy -111665.731381 kJ/mol
# GULP energy per Si atom -5583.286569 kJ/mol
# Density = 2.173894 g / cm^3
# Si number density = 21.788530 Si / 1000 Ang^3
#
#
#
# Elastic Constant Matrix: (Units=GPa)
#
#
# Indices 1 2 3 4 5 6 
#
# 1 45.6471 41.2372 26.5583 0.0000 -19.5707 0.0000
# 2 41.2372 188.5824 58.2083 0.0000 10.5740 0.0000
# 3 26.5583 58.2083 122.3444 0.0000 9.8120 0.0000
# 4 0.0000 0.0000 0.0000 33.5610 0.0000 -22.8760
# 5 -19.5707 10.5740 9.8120 0.0000 25.2676 0.0000
# 6 0.0000 0.0000 0.0000 -22.8760 0.0000 -128.6412
#
#
#
# Elastic Compliance Matrix: (Units=1/GPa)
#
#
# Indices 1 2 3 4 5 6 
#
# 1 0.074262 -0.015758 -0.014208 0.000000 0.069631 0.000000
# 2 -0.015758 0.009615 0.000153 0.000000 -0.016288 0.000000
# 3 -0.014208 0.000153 0.012461 0.000000 -0.015907 0.000000
# 4 0.000000 0.000000 0.000000 0.026575 0.000000 -0.004726
# 5 0.069631 -0.016288 -0.015907 0.000000 0.106501 0.000000
# 6 0.000000 0.000000 0.000000 -0.004726 0.000000 -0.006933
#
#
# Mechanical properties :
#
#
# Convention : Reuss Voigt Hill
#
# Bulk Modulus (GPa) = 27.23918 67.62015 47.42966
# Shear Modulus (GPa) = 16.98688 1.40883 9.19785
#
# Velocity S-wave (km/s) = 2.79521 0.80498 2.05684
# Velocity P-wave (km/s) = 4.79023 5.65386 5.23987
#
# Compressibility (1/GPa) = 0.03671183
#
# Stress axis : x y z
#
# Youngs Moduli (GPa) = 13.46577 104.00816 80.24985
#
# Poissons Ratio (x) = 1.63893 1.14019
# Poissons Ratio (y) = 0.21219 -0.01224
# Poissons Ratio (z) = 0.19132 -0.01586
#
# Static dielectric constant tensor:
#      x y z
#    x 1.860770 0.000000 -0.013950 
#    y 0.000000 1.853970 0.000000 
#    z -0.013950 0.000000 1.836870 
# 
# From -- ./inp_files/31756.got.cif
#   From: 2010.05.17/outbox.cif.g08.bks.cpg/sg15_16_cif.got.tgz:31756.got - 2010.06.03 18:47:42.
