data_PCOD9275363
_publ_section_title
;
Structure prediction by ZEFSAII (Michael W. Deem and Ramdas Pophale) SiO2 
 PCOD9275363
Probable space group: C 2/C
;
_chemical_formula_sum "Si O2"
_cell_formula_units_Z 44
_cell_length_a 25.337486
_cell_length_b 8.761286
_cell_length_c 29.350989
_cell_angle_alpha 90.000000
_cell_angle_beta 161.981123
_cell_angle_gamma 90.000000
_cell_volume 2015.471249
_symmetry_space_group_name_H-M "C 2/C"
_symmetry_group_IT_number 15
_symmetry_cell_setting 'monoclinic'
loop_
_space_group_symop_operation_xyz
x,y,z
-x,y,1/2-z
-x,-y,-z
x,-y,1/2+z
1/2+x,1/2+y,z
1/2-x,1/2+y,1/2-z
1/2-x,1/2-y,-z
1/2+x,1/2-y,1/2+z
loop_
_atom_site_type_symbol
_atom_site_label
_atom_site_fract_x
_atom_site_fract_y
_atom_site_fract_z
Si Si1 0.000000 0.785787 0.250000
Si Si2 0.170696 0.364826 0.336957
Si Si3 0.697449 0.004366 0.445949
Si Si4 0.158784 0.096126 0.611949
Si Si5 0.695474 0.509046 0.362801
Si Si6 0.002192 0.580173 0.953110
O O1 0.153120 0.668338 0.388214
O O2 0.056961 0.872794 0.249054
O O3 0.271609 0.399133 0.466565
O O4 0.256575 0.454912 0.366043
O O5 0.148582 0.183391 0.312693
O O6 0.984652 0.431490 0.190849
O O7 0.786681 0.999319 0.567679
O O8 0.315987 0.100863 0.776952
O O9 0.082148 0.257070 0.532240
O O10 0.000000 0.000000 0.500000
O O11 0.869605 0.492383 0.476749
O O12 0.000000 0.500000 0.000000
#
# Coordination Sequence:
#
# PCOD9275363 Si02
#       6
#     4   8   8   8   8   8
#     4  10  22  36  58  96 126 172 208 266 328 384
#     4   9  20  36  64  91 120 170 213 267 319 385
#     4  10  20  39  60  90 131 162 215 262 327 388
#     4  11  23  45  69  97 133 171 224 276 331 394
#     4  11  21  40  62  89 133 165 223 263 329 394
#     4  11  25  45  68  96 132 174 224 277 332 399
#
# _framework density 21.831122000000001
#
# number of rings (size 3 to 8) (size 9 to 14) (size 15 to 20)
#    0.000    1.818    1.818    3.273    0.000    2.909 
#    9.818    0.000    0.000    0.000    0.000    0.000 
#    0.000    0.000    0.000    0.000    0.000    0.000 
#
# Total GULP energy -122509.242037 kJ/mol
# GULP energy per Si atom -5568.601911 kJ/mol
# Density = 2.178143 g / cm^3
# Si number density = 21.831122 Si / 1000 Ang^3
#
#
#
# Elastic Constant Matrix: (Units=GPa)
#
#
# Indices 1 2 3 4 5 6 
#
# 1 143.1884 19.4029 66.3034 0.0058 7.8245 -0.0060
# 2 19.4029 72.1224 20.3892 0.0280 24.4744 -0.0011
# 3 66.3034 20.3892 106.2781 0.1397 8.3857 -0.0227
# 4 0.0058 0.0280 0.1397 26.0057 -0.0174 1.4209
# 5 7.8245 24.4744 8.3857 -0.0174 32.8327 -0.0065
# 6 -0.0060 -0.0011 -0.0227 1.4209 -0.0065 36.6742
#
#
#
# Elastic Compliance Matrix: (Units=1/GPa)
#
#
# Indices 1 2 3 4 5 6 
#
# 1 0.009885 -0.000921 -0.005979 0.000031 -0.000142 -0.000003
# 2 -0.000921 0.019332 -0.002056 -0.000019 -0.013666 -0.000003
# 3 -0.005979 -0.002056 0.013574 -0.000070 -0.000509 0.000010
# 4 0.000031 -0.000019 -0.000070 0.038535 0.000044 -0.001493
# 5 -0.000142 -0.013666 -0.000509 0.000044 0.040808 0.000005
# 6 -0.000003 -0.000003 0.000010 -0.001493 0.000005 0.027325
#
#
# Mechanical properties :
#
#
# Convention : Reuss Voigt Hill
#
# Bulk Modulus (GPa) = 40.19427 59.30887 49.75157
# Shear Modulus (GPa) = 28.46341 33.46874 30.96607
#
# Velocity S-wave (km/s) = 3.61473 3.91970 3.77030
# Velocity P-wave (km/s) = 5.98942 6.90735 6.46470
#
# Compressibility (1/GPa) = 0.02487917
#
# Stress axis : x y z
#
# Youngs Moduli (GPa) = 101.16379 51.72846 73.66941
#
# Poissons Ratio (x) = 0.04763 0.44047
# Poissons Ratio (y) = 0.09315 0.15146
# Poissons Ratio (z) = 0.60487 0.10635
#
# Static dielectric constant tensor:
#      x y z
#    x 1.826290 0.000200 -0.016610 
#    y 0.000200 2.562770 0.000150 
#    z -0.016610 0.000150 2.071410 
# 
# From -- ./inp_files/318672.got.cif
#   From: 2010.05.17/outbox.cif.g08.bks.cpg/sg15_160_cif.got.tgz:318672.got - 2010.06.03 18:47:42.
