data_PCOD9275968
_publ_section_title
;
Structure prediction by ZEFSAII (Michael W. Deem and Ramdas Pophale) SiO2 
 PCOD9275968
Probable space group: C 2/C
;
_chemical_formula_sum "Si O2"
_cell_formula_units_Z 40
_cell_length_a 11.088411
_cell_length_b 22.918614
_cell_length_c 10.391747
_cell_angle_alpha 90.000000
_cell_angle_beta 139.228789
_cell_angle_gamma 90.000000
_cell_volume 1724.591017
_symmetry_space_group_name_H-M "C 2/C"
_symmetry_group_IT_number 15
_symmetry_cell_setting 'monoclinic'
loop_
_space_group_symop_operation_xyz
x,y,z
-x,y,1/2-z
-x,-y,-z
x,-y,1/2+z
1/2+x,1/2+y,z
1/2-x,1/2+y,1/2-z
1/2-x,1/2-y,-z
1/2+x,1/2-y,1/2+z
loop_
_atom_site_type_symbol
_atom_site_label
_atom_site_fract_x
_atom_site_fract_y
_atom_site_fract_z
Si Si1 0.776289 0.037172 0.927409
Si Si2 0.568290 0.582777 0.956429
Si Si3 0.924496 0.439399 0.997340
Si Si4 0.501357 0.172376 0.406316
Si Si5 0.084707 0.202521 0.681442
O O1 0.759090 0.050316 0.065806
O O2 0.602263 0.071468 0.730385
O O3 0.936430 0.057711 0.962052
O O4 0.770943 0.966270 0.915625
O O5 0.500000 0.580531 0.750000
O O6 0.555618 0.651925 0.977307
O O7 0.909270 0.384175 0.893985
O O8 0.000000 0.500000 0.000000
O O9 0.500000 0.164062 0.250000
O O10 0.713519 0.176637 0.627669
O O11 0.411960 0.233899 0.379893
O O12 0.000000 0.219135 0.750000
#
# Coordination Sequence:
#
# PCOD9275968 Si02
#       5
#     8   8   8   8   8
#     4  10  22  39  62  92 131 165 208 268 316 401
#     4  10  20  39  66  93 126 162 215 267 330 371
#     4  11  24  38  61  92 131 173 213 258 332 381
#     4  11  23  41  64  98 129 171 226 269 324 383
#     4  10  21  38  66  95 128 167 220 277 320 379
#
# _framework density 23.193905000000001
#
# number of rings (size 3 to 8) (size 9 to 14) (size 15 to 20)
#    0.000    1.600    2.000    3.600    5.600    1.600 
#    0.000    1.000    0.000    0.000    0.000    0.000 
#    0.000    0.000    0.000    0.000    0.000    0.000 
#
# Total GULP energy -111355.467368 kJ/mol
# GULP energy per Si atom -5567.773368 kJ/mol
# Density = 2.314111 g / cm^3
# Si number density = 23.193905 Si / 1000 Ang^3
#
#
#
# Elastic Constant Matrix: (Units=GPa)
#
#
# Indices 1 2 3 4 5 6 
#
# 1 140.7391 68.8588 17.2796 0.0000 -6.7142 0.0000
# 2 68.8588 234.9360 42.1970 0.0000 -22.1844 0.0000
# 3 17.2796 42.1970 77.4556 0.0000 -3.3182 0.0000
# 4 0.0000 0.0000 0.0000 24.9027 0.0000 10.3689
# 5 -6.7142 -22.1844 -3.3182 0.0000 16.0415 0.0000
# 6 0.0000 0.0000 0.0000 10.3689 0.0000 17.3122
#
#
#
# Elastic Compliance Matrix: (Units=1/GPa)
#
#
# Indices 1 2 3 4 5 6 
#
# 1 0.008319 -0.002318 -0.000586 0.000000 0.000154 0.000000
# 2 -0.002318 0.006027 -0.002473 0.000000 0.006853 0.000000
# 3 -0.000586 -0.002473 0.014359 0.000000 -0.000695 0.000000
# 4 0.000000 0.000000 0.000000 0.053498 0.000000 -0.032042
# 5 0.000154 0.006853 -0.000695 0.000000 0.071737 0.000000
# 6 0.000000 0.000000 0.000000 -0.032042 0.000000 0.076954
#
#
# Mechanical properties :
#
#
# Convention : Reuss Voigt Hill
#
# Bulk Modulus (GPa) = 55.70956 78.86684 67.28820
# Shear Modulus (GPa) = 20.19124 33.30430 26.74777
#
# Velocity S-wave (km/s) = 2.95369 3.79345 3.39960
# Velocity P-wave (km/s) = 5.97525 7.29822 6.66962
#
# Compressibility (1/GPa) = 0.01795024
#
# Stress axis : x y z
#
# Youngs Moduli (GPa) = 120.20679 165.91216 69.64377
#
# Poissons Ratio (x) = 0.38465 0.04083
# Poissons Ratio (y) = 0.27869 0.17221
# Poissons Ratio (z) = 0.07047 0.41027
#
# Static dielectric constant tensor:
#      x y z
#    x 1.955860 0.000000 -0.169610 
#    y 0.000000 1.914380 0.000000 
#    z -0.169610 0.000000 1.924600 
# 
# From -- ./inp_files/89881.got.cif
#   From: 2010.05.17/outbox.cif.g08.bks.cpg/sg15_45_cif.got.tgz:89881.got - 2010.06.03 18:47:42.
