data_PCOD9275199
_publ_section_title
;
Structure prediction by ZEFSAII (Michael W. Deem and Ramdas Pophale) SiO2 
 PCOD9275199
Probable space group: C 2/C
;
_chemical_formula_sum "Si O2"
_cell_formula_units_Z 44
_cell_length_a 12.683759
_cell_length_b 13.990505
_cell_length_c 12.342990
_cell_angle_alpha 90.000000
_cell_angle_beta 65.727283
_cell_angle_gamma 90.000000
_cell_volume 1996.667048
_symmetry_space_group_name_H-M "C 2/C"
_symmetry_group_IT_number 15
_symmetry_cell_setting 'monoclinic'
loop_
_space_group_symop_operation_xyz
x,y,z
-x,y,1/2-z
-x,-y,-z
x,-y,1/2+z
1/2+x,1/2+y,z
1/2-x,1/2+y,1/2-z
1/2-x,1/2-y,-z
1/2+x,1/2-y,1/2+z
loop_
_atom_site_type_symbol
_atom_site_label
_atom_site_fract_x
_atom_site_fract_y
_atom_site_fract_z
Si Si1 0.532342 0.251627 0.514375
Si Si2 0.114357 0.099500 0.133961
Si Si3 0.658034 0.855771 0.486725
Si Si4 0.147356 0.442422 0.880232
Si Si5 0.000000 0.399568 0.750000
Si Si6 0.425826 0.392941 0.391937
O O1 0.612339 0.302350 0.568887
O O2 0.400382 0.210547 0.581480
O O3 0.594994 0.155920 0.448132
O O4 0.505455 0.335968 0.441210
O O5 0.217014 0.078149 0.173871
O O6 0.000000 0.106960 0.250000
O O7 0.101843 0.003385 0.067379
O O8 0.796353 0.847484 0.437557
O O9 0.631449 0.965215 0.462201
O O10 0.585570 0.843188 0.630447
O O11 0.087123 0.457671 0.790136
O O12 0.500000 0.393007 0.250000
#
# Coordination Sequence:
#
# PCOD9275199 Si02
#       6
#     8   8   8   8   4   8
#     4  11  21  38  67  90 127 163 215 261 315 372
#     4  10  23  42  60  91 132 165 207 260 320 380
#     4  10  23  43  64  96 129 162 215 260 315 378
#     4  10  23  43  63  95 127 162 214 261 316 377
#     4  10  20  38  72  86 124 166 206 258 312 356
#     4  10  23  41  64  93 130 166 214 257 312 381
#
# _framework density 22.036724
#
# number of rings (size 3 to 8) (size 9 to 14) (size 15 to 20)
#    0.000    1.818    0.000    3.818    7.636    1.455 
#   16.364    0.000    0.000    0.000    0.000    0.000 
#    0.000    0.000    0.000    0.000    0.000    0.000 
#
# Total GULP energy -122520.048596 kJ/mol
# GULP energy per Si atom -5569.093118 kJ/mol
# Density = 2.198657 g / cm^3
# Si number density = 22.036724 Si / 1000 Ang^3
#
#
#
# Elastic Constant Matrix: (Units=GPa)
#
#
# Indices 1 2 3 4 5 6 
#
# 1 128.4916 25.5260 51.7796 0.0000 0.4426 0.0000
# 2 25.5260 97.0626 22.3746 0.0000 7.7072 0.0000
# 3 51.7796 22.3746 44.0874 0.0000 -3.0480 0.0000
# 4 0.0000 0.0000 0.0000 22.1817 0.0000 4.0651
# 5 0.4426 7.7072 -3.0480 0.0000 32.3030 0.0000
# 6 0.0000 0.0000 0.0000 4.0651 0.0000 45.6716
#
#
#
# Elastic Compliance Matrix: (Units=1/GPa)
#
#
# Indices 1 2 3 4 5 6 
#
# 1 0.014897 0.000343 -0.017806 0.000000 -0.001966 0.000000
# 2 0.000343 0.012050 -0.006762 0.000000 -0.003518 0.000000
# 3 -0.017806 -0.006762 0.047464 0.000000 0.006336 0.000000
# 4 0.000000 0.000000 0.000000 0.045830 0.000000 -0.004079
# 5 -0.001966 -0.003518 0.006336 0.000000 0.032421 0.000000
# 6 0.000000 0.000000 0.000000 -0.004079 0.000000 0.022259
#
#
# Mechanical properties :
#
#
# Convention : Reuss Voigt Hill
#
# Bulk Modulus (GPa) = 38.51722 52.11134 45.31428
# Shear Modulus (GPa) = 21.54951 31.36201 26.45576
#
# Velocity S-wave (km/s) = 3.13052 3.77659 3.46863
# Velocity P-wave (km/s) = 5.53023 6.53572 6.05389
#
# Compressibility (1/GPa) = 0.02596242
#
# Stress axis : x y z
#
# Youngs Moduli (GPa) = 67.12940 82.98437 21.06846
#
# Poissons Ratio (x) = -0.02847 0.37514
# Poissons Ratio (y) = -0.02303 0.14246
# Poissons Ratio (z) = 1.19529 0.56112
#
# Static dielectric constant tensor:
#      x y z
#    x 1.875670 0.000000 0.007100 
#    y 0.000000 1.901220 0.000000 
#    z 0.007100 0.000000 1.774630 
# 
# From -- ./inp_files/86070.got.cif
#   From: 2010.05.17/outbox.cif.g08.bks.cpg/sg15_44_cif.got.tgz:86070.got - 2010.06.03 18:47:42.
