data_PCOD9275855
_publ_section_title
;
Structure prediction by ZEFSAII (Michael W. Deem and Ramdas Pophale) SiO2 
 PCOD9275855
Probable space group: C 2/C
;
_chemical_formula_sum "Si O2"
_cell_formula_units_Z 60
_cell_length_a 24.210908
_cell_length_b 9.703022
_cell_length_c 14.382855
_cell_angle_alpha 90.000000
_cell_angle_beta 68.272507
_cell_angle_gamma 90.000000
_cell_volume 3138.758435
_symmetry_space_group_name_H-M "C 2/C"
_symmetry_group_IT_number 15
_symmetry_cell_setting 'monoclinic'
loop_
_space_group_symop_operation_xyz
x,y,z
-x,y,1/2-z
-x,-y,-z
x,-y,1/2+z
1/2+x,1/2+y,z
1/2-x,1/2+y,1/2-z
1/2-x,1/2-y,-z
1/2+x,1/2-y,1/2+z
loop_
_atom_site_type_symbol
_atom_site_label
_atom_site_fract_x
_atom_site_fract_y
_atom_site_fract_z
Si Si1 0.789321 0.444754 0.341733
Si Si2 0.882297 0.587114 0.551627
Si Si3 0.117836 0.777689 0.772074
Si Si4 0.617133 0.147842 0.313629
Si Si5 0.000000 0.711188 0.750000
Si Si6 0.256672 0.102345 0.542519
Si Si7 0.491302 0.966489 0.895722
Si Si8 0.678331 0.562319 0.767695
O O1 0.829080 0.306275 0.312296
O O2 0.834776 0.565012 0.278699
O O3 0.766165 0.487683 0.457354
O O4 0.733710 0.435532 0.305405
O O5 0.898715 0.679048 0.630581
O O6 0.880171 0.429084 0.588313
O O7 0.816210 0.618690 0.564590
O O8 0.928191 0.609964 0.439403
O O9 0.059021 0.791169 0.745447
O O10 0.142313 0.920514 0.795790
O O11 0.549154 0.116373 0.324859
O O12 0.636773 0.304771 0.307765
O O13 0.015904 0.605778 0.657124
O O14 0.250000 0.250000 0.500000
O O15 0.204865 0.069739 0.647086
O O16 0.500000 0.000000 0.000000
#
# Coordination Sequence:
#
# PCOD9275855 Si02
#       8
#     8   8   8   8   4   8   8   8
#     4  11  21  41  64  93 124 173 215 256 323 376
#     4  10  21  41  67  93 121 166 222 260 316 371
#     4  11  23  40  64  93 131 173 201 271 323 377
#     4  10  20  41  64  91 119 169 205 262 315 363
#     4  12  20  40  66  92 124 166 216 262 318 376
#     4  12  23  38  67  94 127 167 217 268 313 386
#     4  10  20  39  65  91 116 158 222 262 292 377
#     4  12  24  42  62  95 140 158 210 268 331 378
#
# _framework density 19.115838
#
# number of rings (size 3 to 8) (size 9 to 14) (size 15 to 20)
#    0.000    1.067    8.000    2.400    0.000    0.533 
#    4.800    2.667    0.000    0.000    0.000    0.000 
#    0.000    0.000    0.000    0.000    0.000    0.000 
#
# Total GULP energy -167368.968099 kJ/mol
# GULP energy per Si atom -5578.965603 kJ/mol
# Density = 1.907233 g / cm^3
# Si number density = 19.115838 Si / 1000 Ang^3
#
#
#
# Elastic Constant Matrix: (Units=GPa)
#
#
# Indices 1 2 3 4 5 6 
#
# 1 107.0467 49.5647 19.7519 0.0000 -8.9186 0.0000
# 2 49.5647 97.1322 4.2812 0.0000 -6.4757 0.0000
# 3 19.7519 4.2812 65.5165 0.0000 -5.5250 0.0000
# 4 0.0000 0.0000 0.0000 19.9209 0.0000 0.6247
# 5 -8.9186 -6.4757 -5.5250 0.0000 28.2213 0.0000
# 6 0.0000 0.0000 0.0000 0.6247 0.0000 12.3321
#
#
#
# Elastic Compliance Matrix: (Units=1/GPa)
#
#
# Indices 1 2 3 4 5 6 
#
# 1 0.013092 -0.006398 -0.003359 0.000000 0.002011 0.000000
# 2 -0.006398 0.013598 0.001152 0.000000 0.001324 0.000000
# 3 -0.003359 0.001152 0.016404 0.000000 0.002414 0.000000
# 4 0.000000 0.000000 0.000000 0.050278 0.000000 -0.002547
# 5 0.002011 0.001324 0.002414 0.000000 0.036846 0.000000
# 6 0.000000 0.000000 0.000000 -0.002547 0.000000 0.081218
#
#
# Mechanical properties :
#
#
# Convention : Reuss Voigt Hill
#
# Bulk Modulus (GPa) = 38.63554 46.32121 42.47837
# Shear Modulus (GPa) = 21.07258 25.16802 23.12030
#
# Velocity S-wave (km/s) = 3.32379 3.63244 3.48154
# Velocity P-wave (km/s) = 5.91483 6.47127 6.19930
#
# Compressibility (1/GPa) = 0.02588291
#
# Stress axis : x y z
#
# Youngs Moduli (GPa) = 76.38466 73.54228 60.95936
#
# Poissons Ratio (x) = 0.47054 0.20477
# Poissons Ratio (y) = 0.48873 -0.07023
# Poissons Ratio (z) = 0.25659 -0.08472
#
# Static dielectric constant tensor:
#      x y z
#    x 1.738100 0.000000 -0.020850 
#    y 0.000000 1.647380 0.000000 
#    z -0.020850 0.000000 1.698990 
# 
# From -- ./inp_files/171878.got.cif
#   From: 2010.05.17/outbox.cif.g08.bks.cpg/sg15_86_cif.got.tgz:171878.got - 2010.06.03 18:47:42.
