data_PCOD9275439
_publ_section_title
;
Structure prediction by ZEFSAII (Michael W. Deem and Ramdas Pophale) SiO2 
 PCOD9275439
Probable space group: C 2/C
;
_chemical_formula_sum "Si O2"
_cell_formula_units_Z 44
_cell_length_a 11.486836
_cell_length_b 32.976775
_cell_length_c 5.397208
_cell_angle_alpha 90.000000
_cell_angle_beta 71.782909
_cell_angle_gamma 90.000000
_cell_volume 1941.985447
_symmetry_space_group_name_H-M "C 2/C"
_symmetry_group_IT_number 15
_symmetry_cell_setting 'monoclinic'
loop_
_space_group_symop_operation_xyz
x,y,z
-x,y,1/2-z
-x,-y,-z
x,-y,1/2+z
1/2+x,1/2+y,z
1/2-x,1/2+y,1/2-z
1/2-x,1/2-y,-z
1/2+x,1/2-y,1/2+z
loop_
_atom_site_type_symbol
_atom_site_label
_atom_site_fract_x
_atom_site_fract_y
_atom_site_fract_z
Si Si1 0.500000 0.107586 0.750000
Si Si2 0.852737 0.977189 0.371463
Si Si3 0.874738 0.331722 0.679615
Si Si4 0.138735 0.755964 0.269145
Si Si5 0.772012 0.604109 0.609417
Si Si6 0.579700 0.343852 0.449601
O O1 0.593705 0.137177 0.552466
O O2 0.406312 0.088744 0.613594
O O3 0.793430 0.933942 0.470288
O O4 0.000000 0.973554 0.250000
O O5 0.816646 0.006697 0.622213
O O6 0.850217 0.286730 0.595463
O O7 0.000000 0.327485 0.750000
O O8 0.785900 0.356088 0.924282
O O9 0.142538 0.799351 0.397948
O O10 0.000000 0.756545 0.250000
O O11 0.250000 0.750000 0.000000
O O12 0.677576 0.620073 0.879235
O O13 0.500000 0.347807 0.250000
O O14 0.500000 0.345595 0.750000
#
# Coordination Sequence:
#
# PCOD9275439 Si02
#       6
#     4   8   8   8   8   8
#     4  10  24  38  66  98 128 190 226 274 332 416
#     4  10  24  45  73 105 135 173 218 276 349 416
#     4   9  20  39  60  92 133 182 229 276 337 402
#     4  10  20  39  61  92 136 181 236 289 348 403
#     4  11  23  43  70  96 141 175 231 280 344 412
#     4  11  26  42  66 103 136 182 235 294 346 400
#
# _framework density 22.657222999999998
#
# number of rings (size 3 to 8) (size 9 to 14) (size 15 to 20)
#    0.000    1.818    1.818    0.545    6.364    2.182 
#    0.000    5.455    0.000    0.000    0.000    0.000 
#    0.000    0.000    0.000    0.000    0.000    0.000 
#
# Total GULP energy -122678.462766 kJ/mol
# GULP energy per Si atom -5576.293762 kJ/mol
# Density = 2.260565 g / cm^3
# Si number density = 22.657223 Si / 1000 Ang^3
#
#
#
# Elastic Constant Matrix: (Units=GPa)
#
#
# Indices 1 2 3 4 5 6 
#
# 1 99.7867 9.4014 24.1659 0.0000 4.0656 0.0000
# 2 9.4014 83.0735 -1.1373 0.0000 -7.3561 0.0000
# 3 24.1659 -1.1373 83.8963 0.0000 -13.1327 0.0000
# 4 0.0000 0.0000 0.0000 -15.5210 0.0000 2.8224
# 5 4.0656 -7.3561 -13.1327 0.0000 37.3434 0.0000
# 6 0.0000 0.0000 0.0000 2.8224 0.0000 -38.3199
#
#
#
# Elastic Compliance Matrix: (Units=1/GPa)
#
#
# Indices 1 2 3 4 5 6 
#
# 1 0.011175 -0.001565 -0.003682 0.000000 -0.002820 0.000000
# 2 -0.001565 0.012497 0.001092 0.000000 0.003016 0.000000
# 3 -0.003682 0.001092 0.013854 0.000000 0.005488 0.000000
# 4 0.000000 0.000000 0.000000 -0.065303 0.000000 -0.004810
# 5 -0.002820 0.003016 0.005488 0.000000 0.029610 0.000000
# 6 0.000000 0.000000 0.000000 -0.004810 0.000000 -0.026450
#
#
# Mechanical properties :
#
#
# Convention : Reuss Voigt Hill
#
# Bulk Modulus (GPa) = 34.22597 36.84627 35.53612
# Shear Modulus (GPa) = -760.90473 12.32226 -374.29124
#
# Velocity S-wave (km/s) = -18.34563 2.33460 -12.86685
# Velocity P-wave (km/s) = 20.82333 4.85437 14.31862
#
# Compressibility (1/GPa) = 0.02921758
#
# Stress axis : x y z
#
# Youngs Moduli (GPa) = 89.48341 80.02140 72.18237
#
# Poissons Ratio (x) = 0.12522 0.26574
# Poissons Ratio (y) = 0.14002 -0.07884
# Poissons Ratio (z) = 0.32944 -0.08740
#
# Static dielectric constant tensor:
#      x y z
#    x -9.199830 0.000000 3.377480 
#    y 0.000000 1.812530 0.000000 
#    z 3.377480 0.000000 1.101020 
# 
# From -- ./inp_files/5801.got.cif
#   From: 2010.05.17/outbox.cif.g08.bks.cpg/sg15_3_cif.got.tgz:5801.got - 2010.06.03 18:47:42.
