data_PCOD9275558
_publ_section_title
;
Structure prediction by ZEFSAII (Michael W. Deem and Ramdas Pophale) SiO2 
 PCOD9275558
Probable space group: C 2/C
;
_chemical_formula_sum "Si O2"
_cell_formula_units_Z 52
_cell_length_a 16.461556
_cell_length_b 9.584761
_cell_length_c 17.297216
_cell_angle_alpha 90.000000
_cell_angle_beta 118.246021
_cell_angle_gamma 90.000000
_cell_volume 2404.178055
_symmetry_space_group_name_H-M "C 2/C"
_symmetry_group_IT_number 15
_symmetry_cell_setting 'monoclinic'
loop_
_space_group_symop_operation_xyz
x,y,z
-x,y,1/2-z
-x,-y,-z
x,-y,1/2+z
1/2+x,1/2+y,z
1/2-x,1/2+y,1/2-z
1/2-x,1/2-y,-z
1/2+x,1/2-y,1/2+z
loop_
_atom_site_type_symbol
_atom_site_label
_atom_site_fract_x
_atom_site_fract_y
_atom_site_fract_z
Si Si1 0.500000 0.029337 0.250000
Si Si2 0.298183 0.603384 0.660744
Si Si3 0.357905 0.103159 0.442993
Si Si4 0.555960 0.712849 0.876635
Si Si5 0.859081 0.116829 0.855912
Si Si6 0.034398 0.391961 0.118343
Si Si7 0.847021 0.822518 0.920491
O O1 0.452935 0.138148 0.169581
O O2 0.553170 0.927920 0.215594
O O3 0.230180 0.496196 0.587423
O O4 0.396257 0.610657 0.663471
O O5 0.302236 0.574355 0.753860
O O6 0.253930 0.758068 0.635625
O O7 0.328676 0.247652 0.390193
O O8 0.426333 0.122756 0.546665
O O9 0.422260 0.020051 0.410672
O O10 0.459047 0.658362 0.866037
O O11 0.620563 0.721341 0.980107
O O12 0.858428 0.985156 0.911789
O O13 0.087077 0.256747 0.110770
#
# Coordination Sequence:
#
# PCOD9275558 Si02
#       7
#     4   8   8   8   8   8   8
#     4  12  20  38  68  94 128 168 228 274 324 386
#     4  11  23  40  64 101 131 170 228 276 313 389
#     4  10  20  40  65  90 134 171 218 261 330 394
#     4  12  22  42  68  98 128 176 223 266 329 397
#     4  12  22  43  69  94 135 179 216 269 339 397
#     4  10  20  39  62  97 122 173 219 272 317 400
#     4  11  25  42  69  98 133 175 224 267 338 397
#
# _framework density 21.629014000000002
#
# number of rings (size 3 to 8) (size 9 to 14) (size 15 to 20)
#    0.000    0.923    4.615    3.692    0.000    1.231 
#    2.769    0.769    0.000    0.000    0.000    0.000 
#    0.000    0.000    0.000    0.000    0.000    0.000 
#
# Total GULP energy -145244.602668 kJ/mol
# GULP energy per Si atom -5586.330872 kJ/mol
# Density = 2.157979 g / cm^3
# Si number density = 21.629014 Si / 1000 Ang^3
#
#
#
# Elastic Constant Matrix: (Units=GPa)
#
#
# Indices 1 2 3 4 5 6 
#
# 1 47.7238 16.1211 -2.3841 0.0000 -1.0186 0.0000
# 2 16.1211 107.4181 -12.8211 0.0000 -6.0656 0.0000
# 3 -2.3841 -12.8211 30.4764 0.0000 -8.5434 0.0000
# 4 0.0000 0.0000 0.0000 -352.9969 0.0000 71.2278
# 5 -1.0186 -6.0656 -8.5434 0.0000 29.7097 0.0000
# 6 0.0000 0.0000 0.0000 71.2278 0.0000 4.1598
#
#
#
# Elastic Compliance Matrix: (Units=1/GPa)
#
#
# Indices 1 2 3 4 5 6 
#
# 1 0.022078 -0.003251 0.000419 0.000000 0.000214 0.000000
# 2 -0.003251 0.010620 0.005210 0.000000 0.003555 0.000000
# 3 0.000419 0.005210 0.038438 0.000000 0.012131 0.000000
# 4 0.000000 0.000000 0.000000 -0.000636 0.000000 0.010888
# 5 0.000214 0.003555 0.012131 0.000000 0.037881 0.000000
# 6 0.000000 0.000000 0.000000 0.010888 0.000000 0.053960
#
#
# Mechanical properties :
#
#
# Convention : Reuss Voigt Hill
#
# Bulk Modulus (GPa) = 13.17682 20.82778 17.00230
# Shear Modulus (GPa) = 27.34014 -51.51197 -12.08591
#
# Velocity S-wave (km/s) = 3.55920 -4.88547 -2.36642
# Velocity P-wave (km/s) = 4.79541 4.70886 0.64135
#
# Compressibility (1/GPa) = 0.07589085
#
# Stress axis : x y z
#
# Youngs Moduli (GPa) = 45.29464 94.16254 26.01625
#
# Poissons Ratio (x) = 0.30615 -0.01091
# Poissons Ratio (y) = 0.14726 -0.13554
# Poissons Ratio (z) = -0.01899 -0.49058
#
# Static dielectric constant tensor:
#      x y z
#    x 1.804900 0.000000 0.024270 
#    y 0.000000 1.771380 0.000000 
#    z 0.024270 0.000000 1.838290 
# 
# From -- ./inp_files/209681.got.cif
#   From: 2010.05.17/outbox.cif.g08.bks.cpg/sg15_105_cif.got.tgz:209681.got - 2010.06.03 18:47:42.
