data_PCOD9275204
_publ_section_title
;
Structure prediction by ZEFSAII (Michael W. Deem and Ramdas Pophale) SiO2 
 PCOD9275204
Probable space group: C 2/C
;
_chemical_formula_sum "Si O2"
_cell_formula_units_Z 44
_cell_length_a 8.279780
_cell_length_b 27.287736
_cell_length_c 12.770389
_cell_angle_alpha 90.000000
_cell_angle_beta 131.162498
_cell_angle_gamma 90.000000
_cell_volume 2172.183487
_symmetry_space_group_name_H-M "C 2/C"
_symmetry_group_IT_number 15
_symmetry_cell_setting 'monoclinic'
loop_
_space_group_symop_operation_xyz
x,y,z
-x,y,1/2-z
-x,-y,-z
x,-y,1/2+z
1/2+x,1/2+y,z
1/2-x,1/2+y,1/2-z
1/2-x,1/2-y,-z
1/2+x,1/2-y,1/2+z
loop_
_atom_site_type_symbol
_atom_site_label
_atom_site_fract_x
_atom_site_fract_y
_atom_site_fract_z
Si Si1 0.682982 0.693278 0.742108
Si Si2 0.566208 0.500907 0.646327
Si Si3 0.000000 0.851966 0.750000
Si Si4 0.031822 0.774961 0.947372
Si Si5 0.861126 0.585554 0.797098
Si Si6 0.803774 0.442149 0.891654
O O1 0.500000 0.685360 0.750000
O O2 0.576649 0.708135 0.585287
O O3 0.817334 0.643279 0.785659
O O4 0.840752 0.736104 0.850161
O O5 0.500000 0.500000 0.500000
O O6 0.638745 0.556110 0.699069
O O7 0.772837 0.466939 0.764923
O O8 0.640592 0.522442 0.385461
O O9 0.987711 0.819436 0.848704
O O10 0.201400 0.888297 0.843406
O O11 0.250000 0.750000 0.000000
O O12 0.000000 0.576265 0.750000
O O13 0.983626 0.564117 0.950960
#
# Coordination Sequence:
#
# PCOD9275204 Si02
#       6
#     8   8   4   8   8   8
#     4  12  28  43  68 102 144 177 222 291 353 402
#     4  10  21  39  63  93 133 167 217 284 330 388
#     4  10  20  38  72  98 126 166 244 274 326 402
#     4  12  22  45  72  99 130 183 231 280 333 415
#     4  12  23  42  68  97 129 183 234 271 339 419
#     4  10  23  40  66  97 130 173 221 281 337 403
#
# _framework density 20.256115000000001
#
# number of rings (size 3 to 8) (size 9 to 14) (size 15 to 20)
#    0.000    1.091    3.636    4.364    5.091    0.000 
#    0.000    0.000    0.000    0.000    0.000    0.000 
#    0.000    0.000    0.000    0.000    0.000    0.000 
#
# Total GULP energy -122822.143893 kJ/mol
# GULP energy per Si atom -5582.824722 kJ/mol
# Density = 2.021001 g / cm^3
# Si number density = 20.256115 Si / 1000 Ang^3
#
#
#
# Elastic Constant Matrix: (Units=GPa)
#
#
# Indices 1 2 3 4 5 6 
#
# 1 68.1862 22.0408 34.0556 0.0000 -14.7343 0.0000
# 2 22.0408 114.2370 50.3410 0.0000 -2.4706 0.0000
# 3 34.0556 50.3410 186.2537 0.0000 -15.6855 0.0000
# 4 0.0000 0.0000 0.0000 21.3609 0.0000 3.2685
# 5 -14.7343 -2.4706 -15.6855 0.0000 27.9064 0.0000
# 6 0.0000 0.0000 0.0000 3.2685 0.0000 35.8349
#
#
#
# Elastic Compliance Matrix: (Units=1/GPa)
#
#
# Indices 1 2 3 4 5 6 
#
# 1 0.018243 -0.002473 -0.001968 0.000000 0.008307 0.000000
# 2 -0.002473 0.010284 -0.002478 0.000000 -0.001788 0.000000
# 3 -0.001968 -0.002478 0.006605 0.000000 0.002454 0.000000
# 4 0.000000 0.000000 0.000000 0.047477 0.000000 -0.004330
# 5 0.008307 -0.001788 0.002454 0.000000 0.041442 0.000000
# 6 0.000000 0.000000 0.000000 -0.004330 0.000000 0.028301
#
#
# Mechanical properties :
#
#
# Convention : Reuss Voigt Hill
#
# Bulk Modulus (GPa) = 46.95936 64.61685 55.78811
# Shear Modulus (GPa) = 28.85381 34.50308 31.67844
#
# Velocity S-wave (km/s) = 3.77828 4.13163 3.95890
# Velocity P-wave (km/s) = 6.50131 7.39795 6.96408
#
# Compressibility (1/GPa) = 0.02129501
#
# Stress axis : x y z
#
# Youngs Moduli (GPa) = 54.81576 97.23643 151.39446
#
# Poissons Ratio (x) = 0.24047 0.29789
# Poissons Ratio (y) = 0.13556 0.37516
# Poissons Ratio (z) = 0.10786 0.24096
#
# Static dielectric constant tensor:
#      x y z
#    x 1.755200 0.000000 -0.069420 
#    y 0.000000 1.716700 0.000000 
#    z -0.069420 0.000000 1.876300 
# 
# From -- ./inp_files/81574.got.cif
#   From: 2010.05.17/outbox.cif.g08.bks.cpg/sg15_41_cif.got.tgz:81574.got - 2010.06.03 18:47:42.
