data_PCOD9275751
_publ_section_title
;
Structure prediction by ZEFSAII (Michael W. Deem and Ramdas Pophale) SiO2 
 PCOD9275751
Probable space group: C 2/C
;
_chemical_formula_sum "Si O2"
_cell_formula_units_Z 32
_cell_length_a 12.457934
_cell_length_b 6.037111
_cell_length_c 17.933245
_cell_angle_alpha 90.000000
_cell_angle_beta 66.089099
_cell_angle_gamma 90.000000
_cell_volume 1233.003448
_symmetry_space_group_name_H-M "C 2/C"
_symmetry_group_IT_number 15
_symmetry_cell_setting 'monoclinic'
loop_
_space_group_symop_operation_xyz
x,y,z
-x,y,1/2-z
-x,-y,-z
x,-y,1/2+z
1/2+x,1/2+y,z
1/2-x,1/2+y,1/2-z
1/2-x,1/2-y,-z
1/2+x,1/2-y,1/2+z
loop_
_atom_site_type_symbol
_atom_site_label
_atom_site_fract_x
_atom_site_fract_y
_atom_site_fract_z
Si Si1 0.610047 0.876625 0.364099
Si Si2 0.274913 0.460934 0.178533
Si Si3 0.753433 0.417931 0.566727
Si Si4 0.069614 0.729860 0.156614
O O1 0.606557 0.607325 0.354924
O O2 0.719224 0.909870 0.274399
O O3 0.641392 0.911582 0.442831
O O4 0.509507 0.044702 0.363932
O O5 0.280505 0.237481 0.130272
O O6 0.177210 0.590904 0.159627
O O7 0.750000 0.250000 0.500000
O O8 0.635963 0.564523 0.599800
O O9 0.000000 0.808692 0.250000
#
# Coordination Sequence:
#
# PCOD9275751 Si02
#       4
#     8   8   8   8
#     4  10  20  39  65  92 125 177 231 279 342 409
#     4  10  20  39  64  91 125 176 227 284 338 413
#     4  11  24  40  62  97 140 174 218 289 355 405
#     4   9  22  39  63  98 127 174 239 280 333 417
#
# _framework density 25.952888000000002
#
# number of rings (size 3 to 8) (size 9 to 14) (size 15 to 20)
#    0.000    2.000    2.500    0.000    0.000   10.000 
#    0.000    2.500    0.000    0.000    0.000    0.000 
#    0.000    0.000    0.000    0.000    0.000    0.000 
#
# Total GULP energy -89191.607111 kJ/mol
# GULP energy per Si atom -5574.475444 kJ/mol
# Density = 2.589382 g / cm^3
# Si number density = 25.952888 Si / 1000 Ang^3
#
#
#
# Elastic Constant Matrix: (Units=GPa)
#
#
# Indices 1 2 3 4 5 6 
#
# 1 148.6456 36.0048 13.8108 0.0000 26.7245 0.0000
# 2 36.0048 99.9578 24.7788 0.0000 -0.6441 0.0001
# 3 13.8108 24.7788 73.9763 0.0000 16.0730 0.0000
# 4 0.0000 0.0000 0.0000 33.6063 0.0000 12.2084
# 5 26.7245 -0.6441 16.0730 0.0000 31.1431 0.0000
# 6 0.0000 0.0001 0.0000 12.2084 0.0000 55.6569
#
#
#
# Elastic Compliance Matrix: (Units=1/GPa)
#
#
# Indices 1 2 3 4 5 6 
#
# 1 0.009015 -0.003647 0.001392 0.000000 -0.008530 0.000000
# 2 -0.003647 0.012544 -0.004795 0.000000 0.005864 0.000000
# 3 0.001392 -0.004795 0.017058 0.000000 -0.010097 0.000000
# 4 0.000000 0.000000 0.000000 0.032333 0.000000 -0.007092
# 5 -0.008530 0.005864 -0.010097 0.000000 0.044762 0.000000
# 6 0.000000 0.000000 0.000000 -0.007092 0.000000 0.019523
#
#
# Mechanical properties :
#
#
# Convention : Reuss Voigt Hill
#
# Bulk Modulus (GPa) = 40.78842 52.41874 46.60358
# Shear Modulus (GPa) = 31.74447 40.61361 36.17904
#
# Velocity S-wave (km/s) = 3.50116 3.96017 3.73772
# Velocity P-wave (km/s) = 5.66521 6.41499 6.05172
#
# Compressibility (1/GPa) = 0.02451676
#
# Stress axis : x y z
#
# Youngs Moduli (GPa) = 110.92552 79.71692 58.62378
#
# Poissons Ratio (x) = 0.29075 -0.08160
# Poissons Ratio (y) = 0.40457 0.28110
# Poissons Ratio (z) = -0.15440 0.38224
#
# Static dielectric constant tensor:
#      x y z
#    x 2.110310 0.000000 -0.043100 
#    y 0.000000 2.373980 0.000000 
#    z -0.043100 0.000000 2.035460 
# 
# From -- ./inp_files/201850.got.cif
#   From: 2010.05.17/outbox.cif.g08.bks.cpg/sg15_101_cif.got.tgz:201850.got - 2010.06.03 18:47:42.
