data_PCOD9275619
_publ_section_title
;
Structure prediction by ZEFSAII (Michael W. Deem and Ramdas Pophale) SiO2 
 PCOD9275619
Probable space group: C 2/C
;
_chemical_formula_sum "Si O2"
_cell_formula_units_Z 60
_cell_length_a 15.378670
_cell_length_b 17.379856
_cell_length_c 12.284444
_cell_angle_alpha 90.000000
_cell_angle_beta 118.332193
_cell_angle_gamma 90.000000
_cell_volume 2890.062053
_symmetry_space_group_name_H-M "C 2/C"
_symmetry_group_IT_number 15
_symmetry_cell_setting 'monoclinic'
loop_
_space_group_symop_operation_xyz
x,y,z
-x,y,1/2-z
-x,-y,-z
x,-y,1/2+z
1/2+x,1/2+y,z
1/2-x,1/2+y,1/2-z
1/2-x,1/2-y,-z
1/2+x,1/2-y,1/2+z
loop_
_atom_site_type_symbol
_atom_site_label
_atom_site_fract_x
_atom_site_fract_y
_atom_site_fract_z
Si Si1 0.329049 0.701698 0.882825
Si Si2 0.209936 0.929044 0.812873
Si Si3 0.805127 0.340667 0.464741
Si Si4 0.000000 0.579445 0.750000
Si Si5 0.604214 0.587994 0.753285
Si Si6 0.169461 0.329363 0.445669
Si Si7 0.755226 0.314251 0.662909
Si Si8 0.098267 0.469574 0.111893
O O1 0.384230 0.629047 0.859949
O O2 0.217335 0.679262 0.853732
O O3 0.323946 0.767103 0.787208
O O4 0.356675 0.749637 0.008020
O O5 0.194925 0.873903 0.700197
O O6 0.127649 0.996037 0.771242
O O7 0.309420 0.976478 0.851999
O O8 0.245633 0.875859 0.935901
O O9 0.694769 0.371955 0.371945
O O10 0.816784 0.350683 0.600641
O O11 0.810329 0.251520 0.433927
O O12 0.876182 0.389797 0.431614
O O13 0.066335 0.627615 0.872508
O O14 0.078356 0.533262 0.727474
O O15 0.500000 0.603115 0.750000
O O16 0.000000 0.500000 0.000000
#
# Coordination Sequence:
#
# PCOD9275619 Si02
#       8
#     8   8   8   4   8   8   8   8
#     4   9  20  41  62  86 120 165 201 259 321 354
#     4  10  21  38  62  86 125 165 204 251 316 364
#     4   9  20  39  59  88 124 155 207 257 307 367
#     4  12  22  36  60  94 126 160 202 254 308 384
#     4  10  21  39  60  88 121 162 207 258 304 369
#     4  10  20  39  63  89 125 161 205 257 310 377
#     4   9  18  38  63  85 114 169 199 249 311 370
#     4  11  23  37  57  94 125 158 201 249 317 373
#
# _framework density 20.7608
#
# number of rings (size 3 to 8) (size 9 to 14) (size 15 to 20)
#    0.000    2.133    1.333    2.400    1.867    2.133 
#    9.600    2.667   17.600    0.000    0.000    0.000 
#    0.000    0.000    0.000    0.000    0.000    0.000 
#
# Total GULP energy -167048.167037 kJ/mol
# GULP energy per Si atom -5568.272235 kJ/mol
# Density = 2.071355 g / cm^3
# Si number density = 20.760800 Si / 1000 Ang^3
#
#
#
# Elastic Constant Matrix: (Units=GPa)
#
#
# Indices 1 2 3 4 5 6 
#
# 1 89.6068 21.9778 26.3070 0.0000 -18.3834 0.0000
# 2 21.9778 91.8218 30.7861 0.0000 -15.9215 0.0000
# 3 26.3070 30.7861 73.2176 0.0000 -27.2408 0.0000
# 4 0.0000 0.0000 0.0000 25.1065 0.0000 -4.3315
# 5 -18.3834 -15.9215 -27.2408 0.0000 24.6947 0.0000
# 6 0.0000 0.0000 0.0000 -4.3315 0.0000 12.8512
#
#
#
# Elastic Compliance Matrix: (Units=1/GPa)
#
#
# Indices 1 2 3 4 5 6 
#
# 1 0.013478 -0.001440 -0.001441 0.000000 0.007515 0.000000
# 2 -0.001440 0.013056 -0.003798 0.000000 0.003156 0.000000
# 3 -0.001441 -0.003798 0.024530 0.000000 0.023537 0.000000
# 4 0.000000 0.000000 0.000000 0.042289 0.000000 0.014254
# 5 0.007515 0.003156 0.023537 0.000000 0.074088 0.000000
# 6 0.000000 0.000000 0.000000 0.014254 0.000000 0.082618
#
#
# Mechanical properties :
#
#
# Convention : Reuss Voigt Hill
#
# Bulk Modulus (GPa) = 26.52113 45.86535 36.19324
# Shear Modulus (GPa) = 18.11688 24.23550 21.17619
#
# Velocity S-wave (km/s) = 2.95727 3.42038 3.19722
# Velocity P-wave (km/s) = 4.94600 6.14320 5.57682
#
# Compressibility (1/GPa) = 0.03770578
#
# Stress axis : x y z
#
# Youngs Moduli (GPa) = 74.19555 76.59339 40.76655
#
# Poissons Ratio (x) = 0.11027 0.05875
# Poissons Ratio (y) = 0.10682 0.15484
# Poissons Ratio (z) = 0.10693 0.29092
#
# Static dielectric constant tensor:
#      x y z
#    x 1.659330 0.000000 0.019760 
#    y 0.000000 1.841450 0.000000 
#    z 0.019760 0.000000 1.792210 
# 
# From -- ./inp_files/98341.got.cif
#   From: 2010.05.17/outbox.cif.g08.bks.cpg/sg15_50_cif.got.tgz:98341.got - 2010.06.03 18:47:42.
