data_PCOD9275711
_publ_section_title
;
Structure prediction by ZEFSAII (Michael W. Deem and Ramdas Pophale) SiO2 
 PCOD9275711
Probable space group: C 2/C
;
_chemical_formula_sum "Si O2"
_cell_formula_units_Z 60
_cell_length_a 26.035626
_cell_length_b 6.404234
_cell_length_c 19.924647
_cell_angle_alpha 90.000000
_cell_angle_beta 100.068184
_cell_angle_gamma 90.000000
_cell_volume 3271.040065
_symmetry_space_group_name_H-M "C 2/C"
_symmetry_group_IT_number 15
_symmetry_cell_setting 'monoclinic'
loop_
_space_group_symop_operation_xyz
x,y,z
-x,y,1/2-z
-x,-y,-z
x,-y,1/2+z
1/2+x,1/2+y,z
1/2-x,1/2+y,1/2-z
1/2-x,1/2-y,-z
1/2+x,1/2-y,1/2+z
loop_
_atom_site_type_symbol
_atom_site_label
_atom_site_fract_x
_atom_site_fract_y
_atom_site_fract_z
Si Si1 0.500000 0.377127 0.750000
Si Si2 0.188330 0.771913 0.486715
Si Si3 0.623596 0.346668 0.971390
Si Si4 0.989390 0.730646 0.163003
Si Si5 0.464944 0.672902 0.523418
Si Si6 0.623472 0.985361 0.863697
Si Si7 0.888076 0.469132 0.431725
Si Si8 0.584870 0.954473 0.217808
O O1 0.518460 0.535692 0.812145
O O2 0.452329 0.241224 0.769191
O O3 0.250000 0.750000 0.500000
O O4 0.161780 0.668535 0.413618
O O5 0.160331 0.653825 0.543287
O O6 0.175726 0.017776 0.488589
O O7 0.581561 0.532539 0.956378
O O8 0.623461 0.197101 0.906932
O O9 0.613841 0.197480 0.033618
O O10 0.001244 0.725758 0.087283
O O11 0.935767 0.601931 0.149504
O O12 0.040787 0.637611 0.209321
O O13 0.500000 0.500000 0.500000
O O14 0.438358 0.843044 0.470731
O O15 0.629047 0.019163 0.785116
O O16 0.891311 0.454383 0.351750
#
# Coordination Sequence:
#
# PCOD9275711 Si02
#       8
#     4   8   8   8   8   8   8   8
#     4  12  22  34  56  80 128 186 208 230 308 358
#     4  10  23  45  70  88 112 152 215 268 319 378
#     4  10  20  39  64  85 116 158 200 257 308 356
#     4  12  21  35  52  86 122 170 213 234 285 378
#     4  11  21  32  52  85 121 162 203 245 291 359
#     4  11  21  39  59  87 120 157 208 248 299 378
#     4  10  23  38  58  92 122 156 209 256 313 372
#     4  12  24  36  56  87 133 165 199 251 301 375
#
# _framework density 18.342790000000001
#
# number of rings (size 3 to 8) (size 9 to 14) (size 15 to 20)
#    0.000    1.067    6.667    2.400    1.867    4.267 
#    0.000    0.000    5.867    0.000    0.000    0.000 
#    0.000    0.000    0.000    0.000    0.000    0.000 
#
# Total GULP energy -167095.141656 kJ/mol
# GULP energy per Si atom -5569.838055 kJ/mol
# Density = 1.830104 g / cm^3
# Si number density = 18.342790 Si / 1000 Ang^3
#
#
#
# Elastic Constant Matrix: (Units=GPa)
#
#
# Indices 1 2 3 4 5 6 
#
# 1 87.5303 35.4106 50.8060 0.0000 5.5199 0.0000
# 2 35.4106 108.6387 54.1353 0.0000 0.7941 0.0000
# 3 50.8060 54.1353 165.8564 0.0000 -7.9472 0.0000
# 4 0.0000 0.0000 0.0000 29.7341 0.0000 0.9780
# 5 5.5199 0.7941 -7.9472 0.0000 16.5533 0.0000
# 6 0.0000 0.0000 0.0000 0.9780 0.0000 25.9239
#
#
#
# Elastic Compliance Matrix: (Units=1/GPa)
#
#
# Indices 1 2 3 4 5 6 
#
# 1 0.015434 -0.002935 -0.004104 0.000000 -0.006976 0.000000
# 2 -0.002935 0.011637 -0.002947 0.000000 -0.000995 0.000000
# 3 -0.004104 -0.002947 0.008517 0.000000 0.005599 0.000000
# 4 0.000000 0.000000 0.000000 0.033673 0.000000 -0.001270
# 5 -0.006976 -0.000995 0.005599 0.000000 0.065473 0.000000
# 6 0.000000 0.000000 0.000000 -0.001270 0.000000 0.038622
#
#
# Mechanical properties :
#
#
# Convention : Reuss Voigt Hill
#
# Bulk Modulus (GPa) = 64.03631 71.41437 67.72534
# Shear Modulus (GPa) = 25.18467 29.22051 27.20259
#
# Velocity S-wave (km/s) = 3.70942 3.99560 3.85517
# Velocity P-wave (km/s) = 7.30295 7.76558 7.53781
#
# Compressibility (1/GPa) = 0.01561614
#
# Stress axis : x y z
#
# Youngs Moduli (GPa) = 64.79199 85.93174 117.41557
#
# Poissons Ratio (x) = 0.25217 0.48191
# Poissons Ratio (y) = 0.19013 0.34603
# Poissons Ratio (z) = 0.26592 0.25325
#
# Static dielectric constant tensor:
#      x y z
#    x 1.649940 0.000000 0.019920 
#    y 0.000000 1.613570 0.000000 
#    z 0.019920 0.000000 1.745410 
# 
# From -- ./inp_files/258316.got.cif
#   From: 2010.05.17/outbox.cif.g08.bks.cpg/sg15_130_cif.got.tgz:258316.got - 2010.06.03 18:47:42.
