data_PCOD9275984
_publ_section_title
;
Structure prediction by ZEFSAII (Michael W. Deem and Ramdas Pophale) SiO2 
 PCOD9275984
Probable space group: C 2/C
;
_chemical_formula_sum "Si O2"
_cell_formula_units_Z 44
_cell_length_a 19.977783
_cell_length_b 12.319741
_cell_length_c 10.803524
_cell_angle_alpha 90.000000
_cell_angle_beta 131.707665
_cell_angle_gamma 90.000000
_cell_volume 1985.055866
_symmetry_space_group_name_H-M "C 2/C"
_symmetry_group_IT_number 15
_symmetry_cell_setting 'monoclinic'
loop_
_space_group_symop_operation_xyz
x,y,z
-x,y,1/2-z
-x,-y,-z
x,-y,1/2+z
1/2+x,1/2+y,z
1/2-x,1/2+y,1/2-z
1/2-x,1/2-y,-z
1/2+x,1/2-y,1/2+z
loop_
_atom_site_type_symbol
_atom_site_label
_atom_site_fract_x
_atom_site_fract_y
_atom_site_fract_z
Si Si1 0.752590 0.202162 0.188090
Si Si2 0.310397 0.903016 0.128007
Si Si3 0.646301 0.862278 0.775377
Si Si4 0.000000 0.753788 0.250000
Si Si5 0.543351 0.620304 0.052299
Si Si6 0.001472 0.663469 0.894591
O O1 0.745008 0.321975 0.119225
O O2 0.716863 0.208770 0.283912
O O3 0.849413 0.141153 0.297608
O O4 0.691941 0.133242 0.017748
O O5 0.402435 0.873103 0.310801
O O6 0.300296 0.030301 0.123282
O O7 0.587140 0.815170 0.814443
O O8 0.571239 0.884382 0.577098
O O9 0.023338 0.828031 0.394565
O O10 0.495622 0.705322 0.088056
O O11 0.500000 0.500000 0.000000
O O12 0.000000 0.629619 0.750000
#
# Coordination Sequence:
#
# PCOD9275984 Si02
#       6
#     8   8   8   4   8   8
#     4  10  23  42  63 100 130 175 225 270 328 416
#     4  10  22  40  66  97 134 169 222 273 340 391
#     4  11  23  40  69 100 135 173 216 286 336 387
#     4  10  26  44  64 102 128 172 234 278 328 404
#     4  10  24  43  65  93 134 179 222 269 335 397
#     4  10  20  39  66  95 126 169 224 271 326 408
#
# _framework density 22.165623
#
# number of rings (size 3 to 8) (size 9 to 14) (size 15 to 20)
#    0.000    1.818    1.818    0.545    2.545    9.455 
#    0.000    0.000    0.000    0.000    0.000    0.000 
#    0.000    0.000    0.000    0.000    0.000    0.000 
#
# Total GULP energy -122562.314923 kJ/mol
# GULP energy per Si atom -5571.014315 kJ/mol
# Density = 2.211517 g / cm^3
# Si number density = 22.165623 Si / 1000 Ang^3
#
#
#
# Elastic Constant Matrix: (Units=GPa)
#
#
# Indices 1 2 3 4 5 6 
#
# 1 89.2959 38.6769 -5.8516 0.0000 -17.2793 0.0000
# 2 38.6769 111.1916 3.6925 0.0000 -14.5276 0.0000
# 3 -5.8516 3.6925 59.5202 0.0000 8.4216 0.0000
# 4 0.0000 0.0000 0.0000 24.4710 0.0000 0.5081
# 5 -17.2793 -14.5276 8.4216 0.0000 37.4360 0.0000
# 6 0.0000 0.0000 0.0000 0.5081 0.0000 -4.1524
#
#
#
# Elastic Compliance Matrix: (Units=1/GPa)
#
#
# Indices 1 2 3 4 5 6 
#
# 1 0.014016 -0.004311 0.000999 0.000000 0.004572 0.000000
# 2 -0.004311 0.010876 -0.001461 0.000000 0.002559 0.000000
# 3 0.000999 -0.001461 0.017564 0.000000 -0.004057 0.000000
# 4 0.000000 0.000000 0.000000 0.040761 0.000000 0.004988
# 5 0.004572 0.002559 -0.004057 0.000000 0.030728 0.000000
# 6 0.000000 0.000000 0.000000 0.004988 0.000000 -0.240216
#
#
# Mechanical properties :
#
#
# Convention : Reuss Voigt Hill
#
# Bulk Modulus (GPa) = 30.38655 37.00480 33.69567
# Shear Modulus (GPa) = -47.27950 26.45024 -10.41463
#
# Velocity S-wave (km/s) = -4.62346 3.45817 -2.16997
# Velocity P-wave (km/s) = 3.84230 5.71630 2.99273
#
# Compressibility (1/GPa) = 0.03290930
#
# Stress axis : x y z
#
# Youngs Moduli (GPa) = 71.34629 91.94573 56.93515
#
# Poissons Ratio (x) = 0.39640 -0.05685
# Poissons Ratio (y) = 0.30759 0.08316
# Poissons Ratio (z) = -0.07124 0.13430
#
# Static dielectric constant tensor:
#      x y z
#    x 1.955970 0.000000 0.052310 
#    y 0.000000 1.852290 0.000000 
#    z 0.052310 0.000000 1.835870 
# 
# From -- ./inp_files/111294.got.cif
#   From: 2010.05.17/outbox.cif.g08.bks.cpg/sg15_56_cif.got.tgz:111294.got - 2010.06.03 18:47:42.
