data_PCOD9275654
_publ_section_title
;
Structure prediction by ZEFSAII (Michael W. Deem and Ramdas Pophale) SiO2 
 PCOD9275654
Probable space group: C 2/C
;
_chemical_formula_sum "Si O2"
_cell_formula_units_Z 40
_cell_length_a 8.983131
_cell_length_b 22.873178
_cell_length_c 20.078466
_cell_angle_alpha 90.000000
_cell_angle_beta 29.351733
_cell_angle_gamma 90.000000
_cell_volume 2022.232997
_symmetry_space_group_name_H-M "C 2/C"
_symmetry_group_IT_number 15
_symmetry_cell_setting 'monoclinic'
loop_
_space_group_symop_operation_xyz
x,y,z
-x,y,1/2-z
-x,-y,-z
x,-y,1/2+z
1/2+x,1/2+y,z
1/2-x,1/2+y,1/2-z
1/2-x,1/2-y,-z
1/2+x,1/2-y,1/2+z
loop_
_atom_site_type_symbol
_atom_site_label
_atom_site_fract_x
_atom_site_fract_y
_atom_site_fract_z
Si Si1 0.812162 0.919567 0.605077
Si Si2 0.675659 0.085353 0.906542
Si Si3 0.215971 0.315323 0.101076
Si Si4 0.755202 0.000218 0.498795
Si Si5 0.862261 0.290505 0.101439
O O1 0.500000 0.889896 0.750000
O O2 0.081023 0.874359 0.483034
O O3 0.936204 0.962711 0.614379
O O4 0.262589 0.962033 0.927622
O O5 0.491093 0.049686 0.922866
O O6 0.556652 0.149690 0.969913
O O7 0.000000 0.098049 0.750000
O O8 0.723639 0.044647 0.950975
O O9 0.000000 0.315958 0.250000
O O10 0.002535 0.304388 0.119815
O O11 0.460725 0.262800 0.001645
O O12 0.500000 0.279198 0.250000
#
# Coordination Sequence:
#
# PCOD9275654 Si02
#       5
#     8   8   8   8   8
#     4  11  23  40  63  96 130 169 206 261 306 379
#     4  10  20  39  63  92 124 166 203 260 308 378
#     4  11  25  44  67  94 125 166 213 262 317 376
#     4  10  22  38  62  93 129 166 210 249 315 368
#     4  10  23  45  67  93 126 164 210 264 315 373
#
# _framework density 19.780114999999999
#
# number of rings (size 3 to 8) (size 9 to 14) (size 15 to 20)
#    0.000    1.600    2.000    1.800    5.600    4.000 
#    7.200    1.000    0.000    0.000    0.000    0.000 
#    0.000    0.000    0.000    0.000    0.000    0.000 
#
# Total GULP energy -111486.466779 kJ/mol
# GULP energy per Si atom -5574.323339 kJ/mol
# Density = 1.973509 g / cm^3
# Si number density = 19.780115 Si / 1000 Ang^3
#
#
#
# Elastic Constant Matrix: (Units=GPa)
#
#
# Indices 1 2 3 4 5 6 
#
# 1 107.4020 49.5550 45.4845 -0.0039 -16.2352 -0.0037
# 2 49.5550 133.2989 49.9733 0.0015 -12.2662 -0.0006
# 3 45.4845 49.9733 111.2886 -0.0133 -21.3783 -0.0283
# 4 -0.0039 0.0015 -0.0133 28.7250 0.0020 -4.3918
# 5 -16.2352 -12.2662 -21.3783 0.0020 18.8830 -0.0132
# 6 -0.0037 -0.0006 -0.0283 -4.3918 -0.0132 16.0284
#
#
#
# Elastic Compliance Matrix: (Units=1/GPa)
#
#
# Indices 1 2 3 4 5 6 
#
# 1 0.012818 -0.003226 -0.002653 0.000001 0.005922 0.000003
# 2 -0.003226 0.009872 -0.003087 -0.000003 0.000145 -0.000007
# 3 -0.002653 -0.003087 0.013588 0.000011 0.011097 0.000035
# 4 0.000001 -0.000003 0.000011 0.036335 0.000014 0.009956
# 5 0.005922 0.000145 0.011097 0.000014 0.070707 0.000083
# 6 0.000003 -0.000007 0.000035 0.009956 0.000083 0.065117
#
#
# Mechanical properties :
#
#
# Convention : Reuss Voigt Hill
#
# Bulk Modulus (GPa) = 54.50489 71.33501 62.91995
# Shear Modulus (GPa) = 21.50708 26.52575 24.01641
#
# Velocity S-wave (km/s) = 3.30101 3.66598 3.48827
# Velocity P-wave (km/s) = 6.49185 7.35265 6.93562
#
# Compressibility (1/GPa) = 0.01834698
#
# Stress axis : x y z
#
# Youngs Moduli (GPa) = 78.01720 101.30081 73.59630
#
# Poissons Ratio (x) = 0.32677 0.19522
# Poissons Ratio (y) = 0.25166 0.22716
# Poissons Ratio (z) = 0.20695 0.31268
#
# Static dielectric constant tensor:
#      x y z
#    x 1.719010 0.000000 -0.030560 
#    y 0.000000 1.730760 0.000010 
#    z -0.030560 0.000010 1.672780 
# 
# From -- ./inp_files/193425.got.cif
#   From: 2010.05.17/outbox.cif.g08.bks.cpg/sg15_97_cif.got.tgz:193425.got - 2010.06.03 18:47:42.
