data_PCOD9275769
_publ_section_title
;
Structure prediction by ZEFSAII (Michael W. Deem and Ramdas Pophale) SiO2 
 PCOD9275769
Probable space group: C 2/C
;
_chemical_formula_sum "Si O2"
_cell_formula_units_Z 56
_cell_length_a 20.221067
_cell_length_b 26.681356
_cell_length_c 5.190495
_cell_angle_alpha 90.000000
_cell_angle_beta 106.781985
_cell_angle_gamma 90.000000
_cell_volume 2681.136042
_symmetry_space_group_name_H-M "C 2/C"
_symmetry_group_IT_number 15
_symmetry_cell_setting 'monoclinic'
loop_
_space_group_symop_operation_xyz
x,y,z
-x,y,1/2-z
-x,-y,-z
x,-y,1/2+z
1/2+x,1/2+y,z
1/2-x,1/2+y,1/2-z
1/2-x,1/2-y,-z
1/2+x,1/2-y,1/2+z
loop_
_atom_site_type_symbol
_atom_site_label
_atom_site_fract_x
_atom_site_fract_y
_atom_site_fract_z
Si Si1 0.796664 0.031078 0.367420
Si Si2 0.363139 0.034624 0.253118
Si Si3 0.120476 0.127952 0.991420
Si Si4 0.144510 0.276990 0.467225
Si Si5 0.788113 0.784671 0.846607
Si Si6 0.929024 0.821374 0.543280
Si Si7 0.453535 0.133193 0.449175
O O1 0.717939 0.049614 0.321742
O O2 0.854618 0.071622 0.494092
O O3 0.803441 0.013737 0.080395
O O4 0.409139 0.084295 0.323635
O O5 0.375643 0.996677 0.505840
O O6 0.187173 0.162890 0.018988
O O7 0.100326 0.144211 0.258192
O O8 0.068421 0.144867 0.708943
O O9 0.149227 0.249408 0.193859
O O10 0.224185 0.294926 0.579892
O O11 0.117118 0.226983 0.580810
O O12 0.095437 0.321679 0.502063
O O13 0.750000 0.750000 0.000000
O O14 0.000000 0.802202 0.750000
O O15 0.500000 0.147313 0.250000
O O16 0.500000 0.120357 0.750000
#
# Coordination Sequence:
#
# PCOD9275769 Si02
#       7
#     8   8   8   8   8   8   8
#     4  10  21  40  66  95 120 151 198 263 323 362
#     4  10  22  43  64  89 121 161 213 267 316 369
#     4  11  22  39  64  92 122 158 201 251 307 370
#     4  10  23  40  59  93 127 161 211 257 313 374
#     4  10  20  39  64  93 122 160 201 264 323 365
#     4  11  23  39  61  86 125 168 202 238 290 376
#     4  12  27  41  61  91 127 176 216 258 309 367
#
# _framework density 20.886666999999999
#
# number of rings (size 3 to 8) (size 9 to 14) (size 15 to 20)
#    0.000    1.429    1.429    3.429    2.000    2.857 
#    7.714    0.000    0.000    8.571    0.000    0.000 
#    0.000    0.000    0.000    0.000    0.000    0.000 
#
# Total GULP energy -155997.622211 kJ/mol
# GULP energy per Si atom -5571.343650 kJ/mol
# Density = 2.083913 g / cm^3
# Si number density = 20.886667 Si / 1000 Ang^3
#
#
#
# Elastic Constant Matrix: (Units=GPa)
#
#
# Indices 1 2 3 4 5 6 
#
# 1 74.2050 39.8450 17.5317 0.0000 -3.0824 0.0000
# 2 39.8450 61.4536 12.8810 0.0000 -3.2467 0.0000
# 3 17.5317 12.8810 96.8077 0.0000 0.9866 0.0000
# 4 0.0000 0.0000 0.0000 17.7560 0.0000 3.3858
# 5 -3.0824 -3.2467 0.9866 0.0000 25.5612 0.0000
# 6 0.0000 0.0000 0.0000 3.3858 0.0000 23.6586
#
#
#
# Elastic Compliance Matrix: (Units=1/GPa)
#
#
# Indices 1 2 3 4 5 6 
#
# 1 0.021086 -0.013187 -0.002074 0.000000 0.000948 0.000000
# 2 -0.013187 0.025112 -0.000970 0.000000 0.001637 0.000000
# 3 -0.002074 -0.000970 0.010842 0.000000 -0.000792 0.000000
# 4 0.000000 0.000000 0.000000 0.057899 0.000000 -0.008286
# 5 0.000948 0.001637 -0.000792 0.000000 0.039475 0.000000
# 6 0.000000 0.000000 0.000000 -0.008286 0.000000 0.043454
#
#
# Mechanical properties :
#
#
# Convention : Reuss Voigt Hill
#
# Bulk Modulus (GPa) = 40.68402 41.44243 41.06323
# Shear Modulus (GPa) = 20.96229 24.20907 22.58568
#
# Velocity S-wave (km/s) = 3.17143 3.40820 3.29195
# Velocity P-wave (km/s) = 5.73859 5.94747 5.84396
#
# Compressibility (1/GPa) = 0.02457968
#
# Stress axis : x y z
#
# Youngs Moduli (GPa) = 47.42378 39.82088 92.23028
#
# Poissons Ratio (x) = 0.52513 0.19126
# Poissons Ratio (y) = 0.62539 0.08946
# Poissons Ratio (z) = 0.09834 0.03862
#
# Static dielectric constant tensor:
#      x y z
#    x 1.850720 0.000000 0.048060 
#    y 0.000000 1.723790 0.000000 
#    z 0.048060 0.000000 1.852780 
# 
# From -- ./inp_files/13941.got.cif
#   From: 2010.05.17/outbox.cif.g08.bks.cpg/sg15_7_cif.got.tgz:13941.got - 2010.06.03 18:47:42.
