data_PCOD9275347
_publ_section_title
;
Structure prediction by ZEFSAII (Michael W. Deem and Ramdas Pophale) SiO2 
 PCOD9275347
Probable space group: C 2/C
;
_chemical_formula_sum "Si O2"
_cell_formula_units_Z 56
_cell_length_a 13.233076
_cell_length_b 8.925298
_cell_length_c 28.736985
_cell_angle_alpha 90.000000
_cell_angle_beta 52.473505
_cell_angle_gamma 90.000000
_cell_volume 2691.765441
_symmetry_space_group_name_H-M "C 2/C"
_symmetry_group_IT_number 15
_symmetry_cell_setting 'monoclinic'
loop_
_space_group_symop_operation_xyz
x,y,z
-x,y,1/2-z
-x,-y,-z
x,-y,1/2+z
1/2+x,1/2+y,z
1/2-x,1/2+y,1/2-z
1/2-x,1/2-y,-z
1/2+x,1/2-y,1/2+z
loop_
_atom_site_type_symbol
_atom_site_label
_atom_site_fract_x
_atom_site_fract_y
_atom_site_fract_z
Si Si1 0.644579 0.632614 0.231583
Si Si2 0.675921 0.011884 0.743004
Si Si3 0.987388 0.672197 0.989727
Si Si4 0.614770 0.016695 0.156241
Si Si5 0.205835 0.140342 0.472145
Si Si6 0.776732 0.187106 0.386200
Si Si7 0.627455 0.650800 0.047197
O O1 0.500000 0.610596 0.250000
O O2 0.662646 0.807094 0.241538
O O3 0.706309 0.536794 0.256768
O O4 0.729647 0.607286 0.161401
O O5 0.037017 0.459238 0.800535
O O6 0.677362 0.947768 0.689391
O O7 0.975471 0.726694 0.939495
O O8 0.106136 0.763636 0.972504
O O9 0.862376 0.720293 0.054232
O O10 0.000000 0.500000 0.000000
O O11 0.681401 0.093851 0.093923
O O12 0.646600 0.840877 0.141681
O O13 0.250000 0.250000 0.500000
O O14 0.135497 0.995516 0.513385
O O15 0.856304 0.103282 0.404123
O O16 0.750000 0.750000 0.000000
#
# Coordination Sequence:
#
# PCOD9275347 Si02
#       7
#     8   8   8   8   8   8   8
#     4  11  23  48  71 105 131 181 236 289 356 416
#     4  10  23  47  74  97 137 179 233 290 359 410
#     4  11  24  40  60  97 137 179 230 269 343 413
#     4  10  21  45  70  95 139 186 222 289 357 409
#     4  12  24  39  62  99 135 178 232 275 334 424
#     4  10  21  41  69  92 137 178 218 284 346 408
#     4  10  20  39  60  88 130 171 213 271 338 397
#
# _framework density 20.804192
#
# number of rings (size 3 to 8) (size 9 to 14) (size 15 to 20)
#    0.000    1.429    5.714    2.143    2.000    1.143 
#   10.286    0.000    0.000    0.000    0.000    0.000 
#    0.000    0.000    0.000    0.000    0.000    0.000 
#
# Total GULP energy -155937.360721 kJ/mol
# GULP energy per Si atom -5569.191454 kJ/mol
# Density = 2.075684 g / cm^3
# Si number density = 20.804192 Si / 1000 Ang^3
#
#
#
# Elastic Constant Matrix: (Units=GPa)
#
#
# Indices 1 2 3 4 5 6 
#
# 1 108.9254 19.0077 19.9228 0.0000 27.8677 0.0000
# 2 19.0077 75.2112 10.6182 0.0000 11.1167 0.0000
# 3 19.9228 10.6182 94.2829 0.0000 13.5953 0.0000
# 4 0.0000 0.0000 0.0000 19.5197 0.0000 8.4142
# 5 27.8677 11.1167 13.5953 0.0000 29.0359 0.0000
# 6 0.0000 0.0000 0.0000 8.4142 0.0000 36.6330
#
#
#
# Elastic Compliance Matrix: (Units=1/GPa)
#
#
# Indices 1 2 3 4 5 6 
#
# 1 0.012383 -0.001388 -0.000883 0.000000 -0.010940 0.000000
# 2 -0.001388 0.014315 -0.000773 0.000000 -0.003787 0.000000
# 3 -0.000883 -0.000773 0.011491 0.000000 -0.004237 0.000000
# 4 0.000000 0.000000 0.000000 0.056860 0.000000 -0.013060
# 5 -0.010940 -0.003787 -0.004237 0.000000 0.048374 0.000000
# 6 0.000000 0.000000 0.000000 -0.013060 0.000000 0.030298
#
#
# Mechanical properties :
#
#
# Convention : Reuss Voigt Hill
#
# Bulk Modulus (GPa) = 31.15017 41.94631 36.54824
# Shear Modulus (GPa) = 26.24545 32.29578 29.27061
#
# Velocity S-wave (km/s) = 3.55568 3.94429 3.75501
# Velocity P-wave (km/s) = 5.64470 6.39917 6.03374
#
# Compressibility (1/GPa) = 0.03210255
#
# Stress axis : x y z
#
# Youngs Moduli (GPa) = 80.75432 69.85440 87.02499
#
# Poissons Ratio (x) = 0.09695 0.07683
# Poissons Ratio (y) = 0.11207 0.06726
# Poissons Ratio (z) = 0.07129 0.05399
#
# Static dielectric constant tensor:
#      x y z
#    x 1.783740 0.000000 0.042010 
#    y 0.000000 1.751980 0.000000 
#    z 0.042010 0.000000 1.913030 
# 
# From -- ./inp_files/294772.got.cif
#   From: 2010.05.17/outbox.cif.g08.bks.cpg/sg15_148_cif.got.tgz:294772.got - 2010.06.03 18:47:42.
