data_PCOD9276575
_publ_section_title
;
Structure prediction by ZEFSAII (Michael W. Deem and Ramdas Pophale) SiO2 
 PCOD9276575
Probable space group: C 2/C
;
_chemical_formula_sum "Si O2"
_cell_formula_units_Z 60
_cell_length_a 5.144818
_cell_length_b 16.972903
_cell_length_c 27.181404
_cell_angle_alpha 90.000000
_cell_angle_beta 87.646066
_cell_angle_gamma 90.000000
_cell_volume 2371.545207
_symmetry_space_group_name_H-M "C 2/C"
_symmetry_group_IT_number 15
_symmetry_cell_setting 'monoclinic'
loop_
_space_group_symop_operation_xyz
x,y,z
-x,y,1/2-z
-x,-y,-z
x,-y,1/2+z
1/2+x,1/2+y,z
1/2-x,1/2+y,1/2-z
1/2-x,1/2-y,-z
1/2+x,1/2-y,1/2+z
loop_
_atom_site_type_symbol
_atom_site_label
_atom_site_fract_x
_atom_site_fract_y
_atom_site_fract_z
Si Si1 0.012224 0.266019 0.345158
Si Si2 0.218964 0.107111 0.716402
Si Si3 0.500977 0.300593 0.408467
Si Si4 0.985116 0.032896 0.882743
Si Si5 0.357026 0.566912 0.470006
Si Si6 0.383228 0.157026 0.455720
Si Si7 0.000000 0.538030 0.250000
Si Si8 0.179036 0.610276 0.152979
O O1 0.062863 0.329331 0.301427
O O2 0.215404 0.292778 0.386222
O O3 0.105341 0.176502 0.333720
O O4 0.724266 0.273271 0.368642
O O5 0.000000 0.150638 0.750000
O O6 0.133591 0.070994 0.664894
O O7 0.277687 0.028456 0.747465
O O8 0.564887 0.392238 0.415165
O O9 0.473265 0.247505 0.457156
O O10 0.811062 0.977453 0.918133
O O11 0.207784 0.974679 0.862749
O O12 0.500000 0.500000 0.500000
O O13 0.079229 0.603749 0.485884
O O14 0.582774 0.632753 0.462177
O O15 0.439719 0.141274 0.396971
O O16 0.007151 0.591918 0.201845
#
# Coordination Sequence:
#
# PCOD9276575 Si02
#       8
#     8   8   8   8   8   8   4   8
#     4  10  23  38  60  84 124 161 211 247 312 364
#     4  11  23  39  58  85 123 166 207 260 311 375
#     4  10  20  40  63  90 116 168 202 251 310 379
#     4  10  21  41  64  88 124 166 206 263 315 374
#     4  11  23  41  67  98 128 165 211 263 322 384
#     4  10  21  41  65  88 132 162 209 255 323 375
#     4  12  22  36  58  86 122 156 220 252 308 362
#     4  10  21  38  61  90 118 167 207 261 308 372
#
# _framework density 25.299962000000001
#
# number of rings (size 3 to 8) (size 9 to 14) (size 15 to 20)
#    0.000    1.600    1.333    4.400    2.800    4.267 
#    0.000    2.667    0.000    0.000    0.000    0.000 
#    0.000    0.000    0.000    0.000    0.000    0.000 
#
# Total GULP energy -167477.443060 kJ/mol
# GULP energy per Si atom -5582.581435 kJ/mol
# Density = 2.524238 g / cm^3
# Si number density = 25.299962 Si / 1000 Ang^3
#
#
#
# Elastic Constant Matrix: (Units=GPa)
#
#
# Indices 1 2 3 4 5 6 
#
# 1 64.3004 17.4251 -6.2830 0.0000 0.9759 0.0000
# 2 17.4251 139.3077 21.4127 0.0000 -9.8955 0.0000
# 3 -6.2830 21.4127 59.9792 0.0000 5.9074 0.0000
# 4 0.0000 0.0000 0.0000 25.6116 0.0000 -7.1780
# 5 0.9759 -9.8955 5.9074 0.0000 30.9107 0.0000
# 6 0.0000 0.0000 0.0000 -7.1780 0.0000 32.9004
#
#
#
# Elastic Compliance Matrix: (Units=1/GPa)
#
#
# Indices 1 2 3 4 5 6 
#
# 1 0.016581 -0.002652 0.002873 0.000000 -0.001922 0.000000
# 2 -0.002652 0.008304 -0.003580 0.000000 0.003426 0.000000
# 3 0.002873 -0.003580 0.018726 0.000000 -0.004815 0.000000
# 4 0.000000 0.000000 0.000000 0.041588 0.000000 0.009073
# 5 -0.001922 0.003426 -0.004815 0.000000 0.034429 0.000000
# 6 0.000000 0.000000 0.000000 0.009073 0.000000 0.032374
#
#
# Mechanical properties :
#
#
# Convention : Reuss Voigt Hill
#
# Bulk Modulus (GPa) = 27.10597 36.52188 31.81393
# Shear Modulus (GPa) = 29.23705 33.28672 31.26188
#
# Velocity S-wave (km/s) = 3.40312 3.63117 3.51899
# Velocity P-wave (km/s) = 5.11652 5.66104 5.39565
#
# Compressibility (1/GPa) = 0.03689224
#
# Stress axis : x y z
#
# Youngs Moduli (GPa) = 60.31150 120.42865 53.40278
#
# Poissons Ratio (x) = 0.31938 -0.15342
# Poissons Ratio (y) = 0.15995 0.19116
# Poissons Ratio (z) = -0.17327 0.43110
#
# Static dielectric constant tensor:
#      x y z
#    x 2.078730 0.000000 0.077000 
#    y 0.000000 2.093850 0.000000 
#    z 0.077000 0.000000 2.093270 
# 
# From -- ./inp_files/305673.got.cif
#   From: 2010.05.17/outbox.cif.g08.bks.cpg/sg15_153_cif.got.tgz:305673.got - 2010.06.03 18:47:42.
