data_PCOD9276454
_publ_section_title
;
Structure prediction by ZEFSAII (Michael W. Deem and Ramdas Pophale) SiO2 
 PCOD9276454
Probable space group: C 2/C
;
_chemical_formula_sum "Si O2"
_cell_formula_units_Z 48
_cell_length_a 21.424201
_cell_length_b 14.173209
_cell_length_c 19.732672
_cell_angle_alpha 90.000000
_cell_angle_beta 157.078626
_cell_angle_gamma 90.000000
_cell_volume 2333.619373
_symmetry_space_group_name_H-M "C 2/C"
_symmetry_group_IT_number 15
_symmetry_cell_setting 'monoclinic'
loop_
_space_group_symop_operation_xyz
x,y,z
-x,y,1/2-z
-x,-y,-z
x,-y,1/2+z
1/2+x,1/2+y,z
1/2-x,1/2+y,1/2-z
1/2-x,1/2-y,-z
1/2+x,1/2-y,1/2+z
loop_
_atom_site_type_symbol
_atom_site_label
_atom_site_fract_x
_atom_site_fract_y
_atom_site_fract_z
Si Si1 0.280992 0.968384 0.902535
Si Si2 0.656025 0.000850 0.291897
Si Si3 0.806787 0.642887 0.562477
Si Si4 0.767324 0.816353 0.953106
Si Si5 0.369773 0.580648 0.382456
Si Si6 0.086954 0.163929 0.698578
O O1 0.222794 0.906716 0.780163
O O2 0.194795 0.070258 0.811322
O O3 0.241409 0.917135 0.933540
O O4 0.471965 0.982882 0.090101
O O5 0.670404 0.086548 0.360296
O O6 0.753394 0.039108 0.324523
O O7 0.730445 0.909942 0.403889
O O8 0.750000 0.750000 0.500000
O O9 0.000000 0.640609 0.750000
O O10 0.692704 0.755475 0.816889
O O11 0.750000 0.750000 0.000000
O O12 0.951177 0.838691 0.120929
O O13 0.500000 0.500000 0.500000
O O14 0.479843 0.663387 0.523432
#
# Coordination Sequence:
#
# PCOD9276454 Si02
#       6
#     8   8   8   8   8   8
#     4  10  20  40  62  86 119 158 202 251 302 361
#     4  10  21  39  62  88 119 157 200 251 304 358
#     4  10  23  40  61  88 117 154 201 250 301 353
#     4  11  21  34  55  87 121 157 193 237 300 366
#     4   9  20  38  60  86 117 158 200 244 299 357
#     4  10  21  35  55  85 119 154 193 239 294 361
#
# _framework density 20.568908
#
# number of rings (size 3 to 8) (size 9 to 14) (size 15 to 20)
#    0.000    2.000    0.000    3.000    0.000    8.000 
#    0.000   15.000    0.000    0.000    0.000    0.000 
#    0.000    0.000    0.000    0.000    0.000    0.000 
#
# Total GULP energy -133955.189790 kJ/mol
# GULP energy per Si atom -5581.466241 kJ/mol
# Density = 2.052209 g / cm^3
# Si number density = 20.568908 Si / 1000 Ang^3
#
#
#
# Elastic Constant Matrix: (Units=GPa)
#
#
# Indices 1 2 3 4 5 6 
#
# 1 60.8549 4.8765 38.6408 -0.0012 -11.3994 0.0002
# 2 4.8765 92.8968 42.4895 -0.0008 -16.0259 0.0008
# 3 38.6408 42.4895 114.8959 -0.0013 -19.1723 0.0003
# 4 -0.0012 -0.0008 -0.0013 44.8578 -0.0001 -4.7420
# 5 -11.3994 -16.0259 -19.1723 -0.0001 25.6726 0.0005
# 6 0.0002 0.0008 0.0003 -4.7420 0.0005 27.8001
#
#
#
# Elastic Compliance Matrix: (Units=1/GPa)
#
#
# Indices 1 2 3 4 5 6 
#
# 1 0.022218 0.003434 -0.007697 0.000000 0.006261 0.000000
# 2 0.003434 0.014112 -0.005311 0.000000 0.006368 0.000000
# 3 -0.007697 -0.005311 0.013860 0.000000 0.003617 0.000000
# 4 0.000000 0.000000 0.000000 0.022702 0.000000 0.003872
# 5 0.006261 0.006368 0.003617 0.000000 0.048408 -0.000001
# 6 0.000000 0.000000 0.000000 0.003872 -0.000001 0.036632
#
#
# Mechanical properties :
#
#
# Convention : Reuss Voigt Hill
#
# Bulk Modulus (GPa) = 32.21502 48.96233 40.58867
# Shear Modulus (GPa) = 26.67696 31.84215 29.25956
#
# Velocity S-wave (km/s) = 3.60523 3.93882 3.77571
# Velocity P-wave (km/s) = 5.74685 6.67394 6.22767
#
# Compressibility (1/GPa) = 0.03104142
#
# Stress axis : x y z
#
# Youngs Moduli (GPa) = 45.00916 70.86077 72.14998
#
# Poissons Ratio (x) = -0.24337 0.55537
# Poissons Ratio (y) = -0.15458 0.38321
# Poissons Ratio (z) = 0.34646 0.37636
#
# Static dielectric constant tensor:
#      x y z
#    x 1.812690 0.000000 -0.037140 
#    y 0.000000 1.717600 0.000000 
#    z -0.037140 0.000000 1.760210 
# 
# From -- ./inp_files/255716.got.cif
#   From: 2010.05.17/outbox.cif.g08.bks.cpg/sg15_128_cif.got.tgz:255716.got - 2010.06.03 18:47:42.
