data_PCOD9276254
_publ_section_title
;
Structure prediction by ZEFSAII (Michael W. Deem and Ramdas Pophale) SiO2 
 PCOD9276254
Probable space group: C 2/C
;
_chemical_formula_sum "Si O2"
_cell_formula_units_Z 56
_cell_length_a 11.782072
_cell_length_b 7.433010
_cell_length_c 30.534186
_cell_angle_alpha 90.000000
_cell_angle_beta 76.487272
_cell_angle_gamma 90.000000
_cell_volume 2600.046282
_symmetry_space_group_name_H-M "C 2/C"
_symmetry_group_IT_number 15
_symmetry_cell_setting 'monoclinic'
loop_
_space_group_symop_operation_xyz
x,y,z
-x,y,1/2-z
-x,-y,-z
x,-y,1/2+z
1/2+x,1/2+y,z
1/2-x,1/2+y,1/2-z
1/2-x,1/2-y,-z
1/2+x,1/2-y,1/2+z
loop_
_atom_site_type_symbol
_atom_site_label
_atom_site_fract_x
_atom_site_fract_y
_atom_site_fract_z
Si Si1 0.452500 0.794575 0.327829
Si Si2 0.670009 0.853544 0.627830
Si Si3 0.136679 0.884727 0.045538
Si Si4 0.341134 0.880427 0.257131
Si Si5 0.623270 0.703418 0.721975
Si Si6 0.392077 0.109662 0.528746
Si Si7 0.560179 0.365866 0.900667
O O1 0.352739 0.760282 0.300115
O O2 0.565163 0.822616 0.287283
O O3 0.491258 0.658336 0.361547
O O4 0.413631 0.977926 0.355459
O O5 0.645217 0.764895 0.583215
O O6 0.648563 0.704419 0.667898
O O7 0.804762 0.920870 0.618640
O O8 0.263712 0.982176 0.037775
O O9 0.125067 0.785684 0.000218
O O10 0.023273 0.004827 0.063960
O O11 0.219161 0.881304 0.244319
O O12 0.370148 0.082656 0.268773
O O13 0.500000 0.633684 0.750000
O O14 0.423621 0.178994 0.574242
O O15 0.500000 0.000000 0.500000
#
# Coordination Sequence:
#
# PCOD9276254 Si02
#       7
#     8   8   8   8   8   8   8
#     4  10  20  40  57  83 123 157 196 252 295 345
#     4  10  21  38  58  84 122 157 197 246 296 350
#     4  10  23  39  61  92 118 152 200 244 294 360
#     4  10  21  39  58  83 119 158 204 249 294 344
#     4  11  21  40  60  83 119 164 201 247 297 347
#     4  10  22  42  63  88 122 155 190 243 303 359
#     4  11  22  38  63  89 122 154 200 248 292 358
#
# _framework density 21.538077000000001
#
# number of rings (size 3 to 8) (size 9 to 14) (size 15 to 20)
#    0.000    1.714    4.286    1.286    0.000    5.143 
#    2.571    0.000    0.000    0.000    0.000    0.000 
#    0.000    0.000    0.000    0.000    0.000    0.000 
#
# Total GULP energy -156315.004226 kJ/mol
# GULP energy per Si atom -5582.678722 kJ/mol
# Density = 2.148906 g / cm^3
# Si number density = 21.538077 Si / 1000 Ang^3
#
#
#
# Elastic Constant Matrix: (Units=GPa)
#
#
# Indices 1 2 3 4 5 6 
#
# 1 131.1928 17.2734 28.0037 0.0000 -6.7441 0.0000
# 2 17.2734 11.2851 -2.9574 0.0000 1.3433 0.0000
# 3 28.0037 -2.9574 82.8627 0.0000 2.7278 0.0000
# 4 0.0000 0.0000 0.0000 19.7856 0.0000 5.4914
# 5 -6.7441 1.3433 2.7278 0.0000 37.7931 0.0000
# 6 0.0000 0.0000 0.0000 5.4914 0.0000 16.4952
#
#
#
# Elastic Compliance Matrix: (Units=1/GPa)
#
#
# Indices 1 2 3 4 5 6 
#
# 1 0.011213 -0.018713 -0.004556 0.000000 0.002995 0.000000
# 2 -0.018713 0.121122 0.010925 0.000000 -0.008433 0.000000
# 3 -0.004556 0.010925 0.014071 0.000000 -0.002217 0.000000
# 4 0.000000 0.000000 0.000000 0.055687 0.000000 -0.018539
# 5 0.002995 -0.008433 -0.002217 0.000000 0.027454 0.000000
# 6 0.000000 0.000000 0.000000 -0.018539 0.000000 0.066796
#
#
# Mechanical properties :
#
#
# Convention : Reuss Voigt Hill
#
# Bulk Modulus (GPa) = 8.21575 34.44222 21.32898
# Shear Modulus (GPa) = 13.82732 27.01615 20.42173
#
# Velocity S-wave (km/s) = 2.53651 3.54551 3.08258
# Velocity P-wave (km/s) = 3.52155 5.72599 4.75333
#
# Compressibility (1/GPa) = 0.12171743
#
# Stress axis : x y z
#
# Youngs Moduli (GPa) = 89.18528 8.25612 71.06969
#
# Poissons Ratio (x) = 0.15450 0.32378
# Poissons Ratio (y) = 1.66892 -0.77641
# Poissons Ratio (z) = 0.40631 -0.09020
#
# Static dielectric constant tensor:
#      x y z
#    x 1.829830 0.000000 0.008110 
#    y 0.000000 1.810540 0.000000 
#    z 0.008110 0.000000 1.796530 
# 
# From -- ./inp_files/291521.got.cif
#   From: 2010.05.17/outbox.cif.g08.bks.cpg/sg15_146_cif.got.tgz:291521.got - 2010.06.03 18:47:42.
