data_PCOD9276699
_publ_section_title
;
Structure prediction by ZEFSAII (Michael W. Deem and Ramdas Pophale) SiO2 
 PCOD9276699
Probable space group: C 2/C
;
_chemical_formula_sum "Si O2"
_cell_formula_units_Z 64
_cell_length_a 23.683723
_cell_length_b 16.488448
_cell_length_c 10.527855
_cell_angle_alpha 90.000000
_cell_angle_beta 43.512670
_cell_angle_gamma 90.000000
_cell_volume 2830.629509
_symmetry_space_group_name_H-M "C 2/C"
_symmetry_group_IT_number 15
_symmetry_cell_setting 'monoclinic'
loop_
_space_group_symop_operation_xyz
x,y,z
-x,y,1/2-z
-x,-y,-z
x,-y,1/2+z
1/2+x,1/2+y,z
1/2-x,1/2+y,1/2-z
1/2-x,1/2-y,-z
1/2+x,1/2-y,1/2+z
loop_
_atom_site_type_symbol
_atom_site_label
_atom_site_fract_x
_atom_site_fract_y
_atom_site_fract_z
Si Si1 0.101529 0.214311 0.937406
Si Si2 0.574055 0.915662 0.310252
Si Si3 0.146152 0.115668 0.370999
Si Si4 0.907587 0.764212 0.749060
Si Si5 0.401587 0.036824 0.007151
Si Si6 0.318884 0.558405 0.799434
Si Si7 0.022517 0.966102 0.328084
Si Si8 0.220910 0.648819 0.154829
O O1 0.134435 0.124255 0.861120
O O2 0.160060 0.274208 0.759023
O O3 0.108887 0.232865 0.074252
O O4 0.004898 0.221169 0.064151
O O5 0.613368 0.827908 0.253399
O O6 0.478728 0.907298 0.424795
O O7 0.582822 0.957790 0.432350
O O8 0.603791 0.966517 0.136938
O O9 0.141194 0.170562 0.253230
O O10 0.051269 0.099523 0.568898
O O11 0.197294 0.163109 0.395031
O O12 0.183893 0.027883 0.267122
O O13 0.324027 0.080323 0.190193
O O14 0.381004 0.545791 0.817166
O O15 0.242298 0.606247 0.985853
O O16 0.000000 0.026085 0.250000
O O17 0.000000 0.000000 0.500000
#
# Coordination Sequence:
#
# PCOD9276699 Si02
#       8
#     8   8   8   8   8   8   8   8
#     4  11  23  43  70  96 129 183 229 285 344 416
#     4  10  20  44  72 100 132 180 239 282 342 413
#     4  11  26  41  66  99 134 180 226 290 339 415
#     4  11  22  44  73  98 129 179 241 284 338 412
#     4  10  21  40  72  99 135 179 228 286 338 420
#     4  11  25  41  66  95 135 179 228 275 360 415
#     4  10  20  40  64  91 128 175 231 276 327 410
#     4  12  24  43  62  97 144 169 221 290 358 406
#
# _framework density 22.609811000000001
#
# number of rings (size 3 to 8) (size 9 to 14) (size 15 to 20)
#    0.000    1.250    5.000    1.125    3.500    1.500 
#    2.250    1.250    8.250    0.000    0.000    0.000 
#    0.000    0.000    0.000    0.000    0.000    0.000 
#
# Total GULP energy -178442.563053 kJ/mol
# GULP energy per Si atom -5576.330095 kJ/mol
# Density = 2.255835 g / cm^3
# Si number density = 22.609811 Si / 1000 Ang^3
#
#
#
# Elastic Constant Matrix: (Units=GPa)
#
#
# Indices 1 2 3 4 5 6 
#
# 1 26.3743 25.3523 0.8636 0.0000 0.0630 0.0000
# 2 25.3523 118.1877 32.8036 0.0000 9.5976 0.0000
# 3 0.8636 32.8036 96.2751 0.0000 12.3937 0.0000
# 4 0.0000 0.0000 0.0000 20.6655 0.0000 6.9836
# 5 0.0630 9.5976 12.3937 0.0000 17.2975 0.0000
# 6 0.0000 0.0000 0.0000 6.9836 0.0000 15.3147
#
#
#
# Elastic Compliance Matrix: (Units=1/GPa)
#
#
# Indices 1 2 3 4 5 6 
#
# 1 0.049048 -0.011694 0.003010 0.000000 0.004153 0.000000
# 2 -0.011694 0.012296 -0.003538 0.000000 -0.004245 0.000000
# 3 0.003010 -0.003538 0.012464 0.000000 -0.006978 0.000000
# 4 0.000000 0.000000 0.000000 0.057205 0.000000 -0.026086
# 5 0.004153 -0.004245 -0.006978 0.000000 0.065152 0.000000
# 6 0.000000 0.000000 0.000000 -0.026086 0.000000 0.077192
#
#
# Mechanical properties :
#
#
# Convention : Reuss Voigt Hill
#
# Bulk Modulus (GPa) = 20.25798 39.87512 30.06655
# Shear Modulus (GPa) = 15.91057 22.77672 19.34364
#
# Velocity S-wave (km/s) = 2.65562 3.17737 2.92814
# Velocity P-wave (km/s) = 4.28746 5.57991 4.97583
#
# Compressibility (1/GPa) = 0.04936327
#
# Stress axis : x y z
#
# Youngs Moduli (GPa) = 20.38820 81.32480 80.23232
#
# Poissons Ratio (x) = 0.95100 -0.24148
# Poissons Ratio (y) = 0.23842 0.28389
# Poissons Ratio (z) = -0.06136 0.28776
#
# Static dielectric constant tensor:
#      x y z
#    x 1.950690 0.000000 0.022990 
#    y 0.000000 1.939670 0.000000 
#    z 0.022990 0.000000 1.992080 
# 
# From -- ./inp_files/123498.got.cif
#   From: 2010.05.17/outbox.cif.g08.bks.cpg/sg15_62_cif.got.tgz:123498.got - 2010.06.03 18:47:42.
