data_PCOD9276149
_publ_section_title
;
Structure prediction by ZEFSAII (Michael W. Deem and Ramdas Pophale) SiO2 
 PCOD9276149
Probable space group: C 2/C
;
_chemical_formula_sum "Si O2"
_cell_formula_units_Z 32
_cell_length_a 13.013582
_cell_length_b 13.061093
_cell_length_c 8.148679
_cell_angle_alpha 90.000000
_cell_angle_beta 67.466443
_cell_angle_gamma 90.000000
_cell_volume 1279.303197
_symmetry_space_group_name_H-M "C 2/C"
_symmetry_group_IT_number 15
_symmetry_cell_setting 'monoclinic'
loop_
_space_group_symop_operation_xyz
x,y,z
-x,y,1/2-z
-x,-y,-z
x,-y,1/2+z
1/2+x,1/2+y,z
1/2-x,1/2+y,1/2-z
1/2-x,1/2-y,-z
1/2+x,1/2-y,1/2+z
loop_
_atom_site_type_symbol
_atom_site_label
_atom_site_fract_x
_atom_site_fract_y
_atom_site_fract_z
Si Si1 0.060226 0.755812 0.539804
Si Si2 0.293473 0.568932 0.673208
Si Si3 0.597526 0.390325 0.071860
Si Si4 0.918160 0.437602 0.662347
O O1 0.152213 0.846311 0.479030
O O2 0.120763 0.658579 0.421078
O O3 0.000000 0.736764 0.750000
O O4 0.959695 0.794375 0.481572
O O5 0.366998 0.468390 0.589619
O O6 0.304661 0.615360 0.851214
O O7 0.172775 0.519491 0.722481
O O8 0.500000 0.431139 0.250000
O O9 0.000000 0.395744 0.750000
O O10 0.000000 0.500000 0.500000
#
# Coordination Sequence:
#
# PCOD9276149 Si02
#       4
#     8   8   8   8
#     4  11  24  46  75 107 140 183 236 294 354 420
#     4  11  22  42  72 104 139 187 237 289 351 423
#     4  10  20  39  69 105 137 176 235 296 346 413
#     4  12  27  47  69 104 148 188 233 293 355 418
#
# _framework density 25.013615000000001
#
# number of rings (size 3 to 8) (size 9 to 14) (size 15 to 20)
#    0.000    1.000    0.000    9.750    0.000    2.000 
#    0.000   16.250    0.000    0.000    0.000    0.000 
#    0.000    0.000    0.000    0.000    0.000    0.000 
#
# Total GULP energy -89333.271859 kJ/mol
# GULP energy per Si atom -5583.329491 kJ/mol
# Density = 2.495668 g / cm^3
# Si number density = 25.013615 Si / 1000 Ang^3
#
#
#
# Elastic Constant Matrix: (Units=GPa)
#
#
# Indices 1 2 3 4 5 6 
#
# 1 103.7433 33.6285 37.2078 0.0000 5.2183 0.0000
# 2 33.6285 108.0013 25.4076 0.0000 -5.2160 0.0000
# 3 37.2078 25.4076 105.2520 0.0000 17.7238 0.0000
# 4 0.0000 0.0000 0.0000 34.3999 0.0000 16.2142
# 5 5.2183 -5.2160 17.7238 0.0000 37.7589 0.0000
# 6 0.0000 0.0000 0.0000 16.2142 0.0000 4.5955
#
#
#
# Elastic Compliance Matrix: (Units=1/GPa)
#
#
# Indices 1 2 3 4 5 6 
#
# 1 0.011823 -0.002901 -0.003406 0.000000 -0.000436 0.000000
# 2 -0.002901 0.010785 -0.002059 0.000000 0.002857 0.000000
# 3 -0.003406 -0.002059 0.012129 0.000000 -0.005507 0.000000
# 4 0.000000 0.000000 0.000000 -0.043843 0.000000 0.154692
# 5 -0.000436 0.002857 -0.005507 0.000000 0.029524 0.000000
# 6 0.000000 0.000000 0.000000 0.154692 0.000000 -0.328195
#
#
# Mechanical properties :
#
#
# Convention : Reuss Voigt Hill
#
# Bulk Modulus (GPa) = 55.53901 56.60937 56.07419
# Shear Modulus (GPa) = -17.54119 30.06771 6.26326
#
# Velocity S-wave (km/s) = -2.65102 3.47083 1.58410
# Velocity P-wave (km/s) = 3.58904 6.22437 5.08055
#
# Compressibility (1/GPa) = 0.01800536
#
# Stress axis : x y z
#
# Youngs Moduli (GPa) = 84.58067 92.72255 82.44424
#
# Poissons Ratio (x) = 0.26901 0.28079
# Poissons Ratio (y) = 0.24538 0.16975
# Poissons Ratio (z) = 0.28807 0.19091
#
# Static dielectric constant tensor:
#      x y z
#    x 1.563750 0.000000 -0.294830 
#    y 0.000000 1.988990 0.000000 
#    z -0.294830 0.000000 1.775550 
# 
# From -- ./inp_files/36744.got.cif
#   From: 2010.05.17/outbox.cif.g08.bks.cpg/sg15_19_cif.got.tgz:36744.got - 2010.06.03 18:47:42.
