data_PCOD9276874
_publ_section_title
;
Structure prediction by ZEFSAII (Michael W. Deem and Ramdas Pophale) SiO2 
 PCOD9276874
Probable space group: C 2/C
;
_chemical_formula_sum "Si O2"
_cell_formula_units_Z 40
_cell_length_a 14.808833
_cell_length_b 10.726714
_cell_length_c 10.382963
_cell_angle_alpha 90.000000
_cell_angle_beta 93.082185
_cell_angle_gamma 90.000000
_cell_volume 1646.949013
_symmetry_space_group_name_H-M "C 2/C"
_symmetry_group_IT_number 15
_symmetry_cell_setting 'monoclinic'
loop_
_space_group_symop_operation_xyz
x,y,z
-x,y,1/2-z
-x,-y,-z
x,-y,1/2+z
1/2+x,1/2+y,z
1/2-x,1/2+y,1/2-z
1/2-x,1/2-y,-z
1/2+x,1/2-y,1/2+z
loop_
_atom_site_type_symbol
_atom_site_label
_atom_site_fract_x
_atom_site_fract_y
_atom_site_fract_z
Si Si1 0.052046 0.362158 0.442088
Si Si2 0.738732 0.109080 0.045128
Si Si3 0.982044 0.099447 0.387038
Si Si4 0.579353 0.113040 0.346184
Si Si5 0.720162 0.405378 0.664152
O O1 0.130344 0.393251 0.551085
O O2 0.077305 0.460831 0.332258
O O3 0.048136 0.218914 0.399868
O O4 0.959058 0.377125 0.511984
O O5 0.781544 0.069248 0.183104
O O6 0.750000 0.250000 0.000000
O O7 0.770012 0.022146 0.930963
O O8 0.877951 0.146920 0.380078
O O9 0.000000 0.037772 0.250000
O O10 0.000000 0.000000 0.500000
O O11 0.500000 0.168007 0.250000
O O12 0.681714 0.162538 0.344050
#
# Coordination Sequence:
#
# PCOD9276874 Si02
#       5
#     8   8   8   8   8
#     4  10  22  40  66  96 139 176 222 285 349 404
#     4  11  23  46  70 102 141 187 231 292 354 422
#     4  12  26  47  67  97 139 188 230 281 345 420
#     4  10  20  40  66 101 134 169 226 287 346 407
#     4  11  24  44  71 103 137 184 237 283 351 425
#
# _framework density 24.287331999999999
#
# number of rings (size 3 to 8) (size 9 to 14) (size 15 to 20)
#    0.000    1.200    2.000    4.200    0.000    3.200 
#    7.200    0.000    0.000    0.000    0.000    0.000 
#    0.000    0.000    0.000    0.000    0.000    0.000 
#
# Total GULP energy -111535.288434 kJ/mol
# GULP energy per Si atom -5576.764422 kJ/mol
# Density = 2.423205 g / cm^3
# Si number density = 24.287332 Si / 1000 Ang^3
#
#
#
# Elastic Constant Matrix: (Units=GPa)
#
#
# Indices 1 2 3 4 5 6 
#
# 1 158.1096 12.7068 32.9624 0.0000 21.2956 0.0000
# 2 12.7068 54.0161 42.0122 0.0000 -2.2639 0.0000
# 3 32.9624 42.0122 132.2522 0.0000 3.4710 0.0000
# 4 0.0000 0.0000 0.0000 15.3921 0.0000 -3.6829
# 5 21.2956 -2.2639 3.4710 0.0000 48.3993 0.0000
# 6 0.0000 0.0000 0.0000 -3.6829 0.0000 32.7877
#
#
#
# Elastic Compliance Matrix: (Units=1/GPa)
#
#
# Indices 1 2 3 4 5 6 
#
# 1 0.007096 -0.000642 -0.001485 0.000000 -0.003046 0.000000
# 2 -0.000642 0.024789 -0.007767 0.000000 0.001999 0.000000
# 3 -0.001485 -0.007767 0.010411 0.000000 -0.000457 0.000000
# 4 0.000000 0.000000 0.000000 0.066763 0.000000 0.007499
# 5 -0.003046 0.001999 -0.000457 0.000000 0.022128 0.000000
# 6 0.000000 0.000000 0.000000 0.007499 0.000000 0.031342
#
#
# Mechanical properties :
#
#
# Convention : Reuss Voigt Hill
#
# Bulk Modulus (GPa) = 44.42904 57.74896 51.08900
# Shear Modulus (GPa) = 26.34103 36.42894 31.38498
#
# Velocity S-wave (km/s) = 3.29684 3.87708 3.59867
# Velocity P-wave (km/s) = 5.72931 6.62354 6.19259
#
# Compressibility (1/GPa) = 0.02250780
#
# Stress axis : x y z
#
# Youngs Moduli (GPa) = 140.92242 40.34083 96.05549
#
# Poissons Ratio (x) = 0.02591 0.14261
# Poissons Ratio (y) = 0.09050 0.74606
# Poissons Ratio (z) = 0.20923 0.31333
#
# Static dielectric constant tensor:
#      x y z
#    x 2.043890 0.000000 0.017100 
#    y 0.000000 2.011170 0.000000 
#    z 0.017100 0.000000 1.919870 
# 
# From -- ./inp_files/94683.got.cif
#   From: 2010.05.17/outbox.cif.g08.bks.cpg/sg15_48_cif.got.tgz:94683.got - 2010.06.03 18:47:42.
