data_PCOD9276652
_publ_section_title
;
Structure prediction by ZEFSAII (Michael W. Deem and Ramdas Pophale) SiO2 
 PCOD9276652
Probable space group: C 2/C
;
_chemical_formula_sum "Si O2"
_cell_formula_units_Z 40
_cell_length_a 13.438194
_cell_length_b 10.981026
_cell_length_c 11.745851
_cell_angle_alpha 90.000000
_cell_angle_beta 106.874838
_cell_angle_gamma 90.000000
_cell_volume 1658.645394
_symmetry_space_group_name_H-M "C 2/C"
_symmetry_group_IT_number 15
_symmetry_cell_setting 'monoclinic'
loop_
_space_group_symop_operation_xyz
x,y,z
-x,y,1/2-z
-x,-y,-z
x,-y,1/2+z
1/2+x,1/2+y,z
1/2-x,1/2+y,1/2-z
1/2-x,1/2-y,-z
1/2+x,1/2-y,1/2+z
loop_
_atom_site_type_symbol
_atom_site_label
_atom_site_fract_x
_atom_site_fract_y
_atom_site_fract_z
Si Si1 0.877252 0.391781 0.509666
Si Si2 0.878745 0.974169 0.215255
Si Si3 0.389556 0.160685 0.419358
Si Si4 0.385295 0.440592 0.473061
Si Si5 0.731860 0.230072 0.329478
O O1 0.881092 0.535242 0.486185
O O2 0.837272 0.307460 0.389205
O O3 0.793575 0.359893 0.577187
O O4 0.992138 0.352147 0.587555
O O5 0.840472 0.985655 0.334573
O O6 0.858713 0.831448 0.191937
O O7 0.000000 0.007198 0.250000
O O8 0.840154 0.027637 0.082121
O O9 0.387754 0.293673 0.475004
O O10 0.294851 0.167691 0.298400
O O11 0.500000 0.500000 0.500000
#
# Coordination Sequence:
#
# PCOD9276652 Si02
#       5
#     8   8   8   8   8
#     4  10  21  39  64  90 120 173 214 268 337 407
#     4   9  17  33  57  88 121 167 209 265 320 393
#     4  10  21  41  63  90 128 165 219 275 333 401
#     4   9  17  33  59  88 125 167 210 263 325 383
#     4  10  20  40  64  87 124 170 218 264 342 401
#
# _framework density 24.116064000000001
#
# number of rings (size 3 to 8) (size 9 to 14) (size 15 to 20)
#    0.000    2.400    0.000    4.200    0.000    0.000 
#   25.200   15.000    0.000    0.000    0.000    0.000 
#    0.000    0.000    0.000    0.000    0.000    0.000 
#
# Total GULP energy -111406.286320 kJ/mol
# GULP energy per Si atom -5570.314316 kJ/mol
# Density = 2.406118 g / cm^3
# Si number density = 24.116064 Si / 1000 Ang^3
#
#
#
# Elastic Constant Matrix: (Units=GPa)
#
#
# Indices 1 2 3 4 5 6 
#
# 1 55.3433 36.6243 35.6148 0.0000 -8.6130 0.0000
# 2 36.6243 127.6687 89.7043 0.0000 -10.3214 0.0000
# 3 35.6148 89.7043 163.0265 0.0000 -21.1473 0.0000
# 4 0.0000 0.0000 0.0000 50.0918 0.0000 1.1292
# 5 -8.6130 -10.3214 -21.1473 0.0000 40.5792 0.0000
# 6 0.0000 0.0000 0.0000 1.1292 0.0000 28.6090
#
#
#
# Elastic Compliance Matrix: (Units=1/GPa)
#
#
# Indices 1 2 3 4 5 6 
#
# 1 0.023054 -0.005057 -0.001916 0.000000 0.002609 0.000000
# 2 -0.005057 0.013886 -0.006668 0.000000 -0.001016 0.000000
# 3 -0.001916 -0.006668 0.010670 0.000000 0.003458 0.000000
# 4 0.000000 0.000000 0.000000 0.019981 0.000000 -0.000789
# 5 0.002609 -0.001016 0.003458 0.000000 0.026740 0.000000
# 6 0.000000 0.000000 0.000000 -0.000789 0.000000 0.034985
#
#
# Mechanical properties :
#
#
# Convention : Reuss Voigt Hill
#
# Bulk Modulus (GPa) = 49.18853 74.43615 61.81234
# Shear Modulus (GPa) = 30.60451 36.12900 33.36675
#
# Velocity S-wave (km/s) = 3.56624 3.87477 3.72370
# Velocity P-wave (km/s) = 6.11541 7.13801 6.64641
#
# Compressibility (1/GPa) = 0.02032994
#
# Stress axis : x y z
#
# Youngs Moduli (GPa) = 43.37627 72.01289 93.72014
#
# Poissons Ratio (x) = 0.36414 0.17953
# Poissons Ratio (y) = 0.21934 0.62493
# Poissons Ratio (z) = 0.08309 0.48019
#
# Static dielectric constant tensor:
#      x y z
#    x 1.956450 0.000000 0.006920 
#    y 0.000000 2.023590 0.000000 
#    z 0.006920 0.000000 2.046350 
# 
# From -- ./inp_files/95138.got.cif
#   From: 2010.05.17/outbox.cif.g08.bks.cpg/sg15_48_cif.got.tgz:95138.got - 2010.06.03 18:47:42.
