data_PCOD9276150
_publ_section_title
;
Structure prediction by ZEFSAII (Michael W. Deem and Ramdas Pophale) SiO2 
 PCOD9276150
Probable space group: C 2/C
;
_chemical_formula_sum "Si O2"
_cell_formula_units_Z 48
_cell_length_a 26.617378
_cell_length_b 7.398510
_cell_length_c 28.504122
_cell_angle_alpha 90.000000
_cell_angle_beta 19.487790
_cell_angle_gamma 90.000000
_cell_volume 1872.625874
_symmetry_space_group_name_H-M "C 2/C"
_symmetry_group_IT_number 15
_symmetry_cell_setting 'monoclinic'
loop_
_space_group_symop_operation_xyz
x,y,z
-x,y,1/2-z
-x,-y,-z
x,-y,1/2+z
1/2+x,1/2+y,z
1/2-x,1/2+y,1/2-z
1/2-x,1/2-y,-z
1/2+x,1/2-y,1/2+z
loop_
_atom_site_type_symbol
_atom_site_label
_atom_site_fract_x
_atom_site_fract_y
_atom_site_fract_z
Si Si1 0.765655 0.145029 0.803611
Si Si2 0.000000 0.519533 0.750000
Si Si3 0.199933 0.046168 0.830936
Si Si4 0.505183 0.750346 0.670280
Si Si5 0.500000 0.472767 0.750000
Si Si6 0.955316 0.669263 0.967897
Si Si7 0.180591 0.596764 0.504880
O O1 0.827022 0.065985 0.700679
O O2 0.897112 0.172322 0.725969
O O3 0.637433 0.007253 0.933407
O O4 0.701041 0.342831 0.848776
O O5 0.920536 0.386476 0.781979
O O6 0.890449 0.626667 0.881233
O O7 0.090171 0.174637 0.956442
O O8 0.370088 0.121233 0.688178
O O9 0.571847 0.598162 0.645659
O O10 0.629635 0.887740 0.540538
O O11 0.641514 0.389405 0.652369
O O12 0.895670 0.713526 0.968286
#
# Coordination Sequence:
#
# PCOD9276150 Si02
#       7
#     8   4   8   8   4   8   8
#     4  12  24  46  77 113 147 203 250 317 373 449
#     4   7  18  36  60 103 141 182 235 311 356 447
#     4  12  28  49  77 114 156 197 264 309 379 459
#     4   9  19  34  66 107 141 183 248 306 372 436
#     4  11  18  32  66 115 139 188 255 297 378 461
#     4  12  27  50  76 112 155 204 249 318 381 450
#     4  10  20  39  69 105 149 188 249 313 369 449
#
# _framework density 25.632458
#
# number of rings (size 3 to 8) (size 9 to 14) (size 15 to 20)
#    1.000    0.333    5.000    1.000    0.000    2.000 
#    0.000    3.333    0.000   10.000    0.000    1.167 
#    0.000    0.000    0.000    0.000    0.000    0.000 
#
# Total GULP energy -134396.789189 kJ/mol
# GULP energy per Si atom -5599.866216 kJ/mol
# Density = 2.557412 g / cm^3
# Si number density = 25.632458 Si / 1000 Ang^3
#
#
#
# Elastic Constant Matrix: (Units=GPa)
#
#
# Indices 1 2 3 4 5 6 
#
# 1 150.6153 17.4336 31.1266 0.0039 -7.8089 0.0029
# 2 17.4336 87.9391 25.9541 0.0292 0.0838 -0.0378
# 3 31.1266 25.9541 143.8379 0.0328 -6.0557 0.0013
# 4 0.0039 0.0292 0.0328 26.2406 0.0080 -1.7914
# 5 -7.8089 0.0838 -6.0557 0.0080 45.2507 -0.0020
# 6 0.0029 -0.0378 0.0013 -1.7914 -0.0020 3.5842
#
#
#
# Elastic Compliance Matrix: (Units=1/GPa)
#
#
# Indices 1 2 3 4 5 6 
#
# 1 0.007081 -0.001020 -0.001304 0.000000 0.001049 -0.000015
# 2 -0.001020 0.012163 -0.001993 -0.000002 -0.000465 0.000129
# 3 -0.001304 -0.001993 0.007628 -0.000009 0.000799 -0.000027
# 4 0.000000 -0.000002 -0.000009 0.039455 -0.000007 0.019719
# 5 0.001049 -0.000465 0.000799 -0.000007 0.022388 0.000003
# 6 -0.000015 0.000129 -0.000027 0.019719 0.000003 0.288857
#
#
# Mechanical properties :
#
#
# Convention : Reuss Voigt Hill
#
# Bulk Modulus (GPa) = 54.83487 59.04676 56.94081
# Shear Modulus (GPa) = 12.74580 35.54031 24.14305
#
# Velocity S-wave (km/s) = 2.23233 3.72766 3.07236
# Velocity P-wave (km/s) = 5.29940 6.45083 5.90325
#
# Compressibility (1/GPa) = 0.01823657
#
# Stress axis : x y z
#
# Youngs Moduli (GPa) = 141.21439 82.21952 131.09830
#
# Poissons Ratio (x) = 0.08386 0.17098
# Poissons Ratio (y) = 0.14403 0.26134
# Poissons Ratio (z) = 0.18417 0.16390
#
# Static dielectric constant tensor:
#      x y z
#    x 1.996710 -0.000010 0.006410 
#    y -0.000010 2.133710 0.000010 
#    z 0.006410 0.000010 1.966300 
# 
# From -- ./inp_files/318739.got.cif
#   From: 2010.05.17/outbox.cif.g08.bks.cpg/sg15_160_cif.got.tgz:318739.got - 2010.06.03 18:47:42.
