data_PCOD9276837
_publ_section_title
;
Structure prediction by ZEFSAII (Michael W. Deem and Ramdas Pophale) SiO2 
 PCOD9276837
Probable space group: C 2/C
;
_chemical_formula_sum "Si O2"
_cell_formula_units_Z 64
_cell_length_a 8.930333
_cell_length_b 25.797916
_cell_length_c 14.061405
_cell_angle_alpha 90.000000
_cell_angle_beta 71.839841
_cell_angle_gamma 90.000000
_cell_volume 3078.158623
_symmetry_space_group_name_H-M "C 2/C"
_symmetry_group_IT_number 15
_symmetry_cell_setting 'monoclinic'
loop_
_space_group_symop_operation_xyz
x,y,z
-x,y,1/2-z
-x,-y,-z
x,-y,1/2+z
1/2+x,1/2+y,z
1/2-x,1/2+y,1/2-z
1/2-x,1/2-y,-z
1/2+x,1/2-y,1/2+z
loop_
_atom_site_type_symbol
_atom_site_label
_atom_site_fract_x
_atom_site_fract_y
_atom_site_fract_z
Si Si1 0.959223 0.582730 0.147549
Si Si2 0.455399 0.274298 0.052392
Si Si3 0.409678 0.372695 0.547686
Si Si4 0.405920 0.776862 0.358902
Si Si5 0.475857 0.899372 0.365659
Si Si6 0.800199 0.933406 0.933309
Si Si7 0.296193 0.951888 0.032094
Si Si8 0.605118 0.812672 0.636619
O O1 0.021260 0.638834 0.100620
O O2 0.000000 0.578222 0.250000
O O3 0.780403 0.581173 0.151036
O O4 0.054822 0.539807 0.069282
O O5 0.279099 0.270973 0.127562
O O6 0.582299 0.238676 0.080253
O O7 0.502699 0.333785 0.040580
O O8 0.441224 0.254746 0.946981
O O9 0.537836 0.403031 0.584241
O O10 0.316608 0.414435 0.504648
O O11 0.278157 0.335495 0.622992
O O12 0.500000 0.756948 0.250000
O O13 0.457139 0.836671 0.367330
O O14 0.500000 0.915221 0.250000
O O15 0.321039 0.917973 0.456280
O O16 0.625281 0.922717 0.393790
O O17 0.798570 0.995606 0.931569
O O18 0.500000 0.804583 0.750000
#
# Coordination Sequence:
#
# PCOD9276837 Si02
#       8
#     8   8   8   8   8   8   8   8
#     4   9  19  38  63  92 123 158 210 262 318 381
#     4  11  22  40  64  92 130 169 213 261 315 386
#     4  11  23  41  61  91 130 170 207 269 321 377
#     4  10  22  38  65  98 127 162 214 265 317 383
#     4  10  20  40  65  93 125 167 213 262 319 384
#     4  11  21  38  64  92 122 169 213 262 323 380
#     4  10  22  38  61  88 126 166 212 262 320 382
#     4  10  23  41  63  91 124 166 208 261 324 387
#
# _framework density 20.791650000000001
#
# number of rings (size 3 to 8) (size 9 to 14) (size 15 to 20)
#    0.000    1.750    1.250    4.500    3.500    2.000 
#    2.250    6.250    0.000    6.000    0.000    0.000 
#    0.000    0.000    0.000    0.000    0.000    0.000 
#
# Total GULP energy -178530.104711 kJ/mol
# GULP energy per Si atom -5579.065772 kJ/mol
# Density = 2.074433 g / cm^3
# Si number density = 20.791650 Si / 1000 Ang^3
#
#
#
# Elastic Constant Matrix: (Units=GPa)
#
#
# Indices 1 2 3 4 5 6 
#
# 1 174.6197 57.3029 50.0577 0.0000 8.5005 0.0000
# 2 57.3029 78.2563 -7.4390 0.0000 5.4022 0.0000
# 3 50.0577 -7.4390 79.8736 0.0000 2.0119 0.0000
# 4 0.0000 0.0000 0.0000 16.2686 0.0000 -16.2501
# 5 8.5005 5.4022 2.0119 0.0000 30.6108 0.0000
# 6 0.0000 0.0000 0.0000 -16.2501 0.0000 71.8787
#
#
#
# Elastic Compliance Matrix: (Units=1/GPa)
#
#
# Indices 1 2 3 4 5 6 
#
# 1 0.010696 -0.008474 -0.007468 0.000000 -0.000984 0.000000
# 2 -0.008474 0.019779 0.007194 0.000000 -0.001610 0.000000
# 3 -0.007468 0.007194 0.017879 0.000000 -0.000371 0.000000
# 4 0.000000 0.000000 0.000000 0.079398 0.000000 0.017950
# 5 -0.000984 -0.001610 -0.000371 0.000000 0.033250 0.000000
# 6 0.000000 0.000000 0.000000 0.017950 0.000000 0.017970
#
#
# Mechanical properties :
#
#
# Convention : Reuss Voigt Hill
#
# Bulk Modulus (GPa) = 32.40747 59.17700 45.79223
# Shear Modulus (GPa) = 24.18308 39.27349 31.72828
#
# Velocity S-wave (km/s) = 3.41415 4.35087 3.91066
# Velocity P-wave (km/s) = 5.58234 7.33238 6.51637
#
# Compressibility (1/GPa) = 0.03085709
#
# Stress axis : x y z
#
# Youngs Moduli (GPa) = 93.48921 50.55904 55.93027
#
# Poissons Ratio (x) = 0.42846 0.41769
# Poissons Ratio (y) = 0.79227 -0.40234
# Poissons Ratio (z) = 0.69818 -0.36370
#
# Static dielectric constant tensor:
#      x y z
#    x 1.798680 0.000000 -0.023550 
#    y 0.000000 1.777590 0.000000 
#    z -0.023550 0.000000 1.764550 
# 
# From -- ./inp_files/138572.got.cif
#   From: 2010.05.17/outbox.cif.g08.bks.cpg/sg15_70_cif.got.tgz:138572.got - 2010.06.03 18:47:42.
