data_PCOD9276373
_publ_section_title
;
Structure prediction by ZEFSAII (Michael W. Deem and Ramdas Pophale) SiO2 
 PCOD9276373
Probable space group: C 2/C
;
_chemical_formula_sum "Si O2"
_cell_formula_units_Z 56
_cell_length_a 16.207699
_cell_length_b 9.013382
_cell_length_c 21.182826
_cell_angle_alpha 90.000000
_cell_angle_beta 106.367072
_cell_angle_gamma 90.000000
_cell_volume 2969.116171
_symmetry_space_group_name_H-M "C 2/C"
_symmetry_group_IT_number 15
_symmetry_cell_setting 'monoclinic'
loop_
_space_group_symop_operation_xyz
x,y,z
-x,y,1/2-z
-x,-y,-z
x,-y,1/2+z
1/2+x,1/2+y,z
1/2-x,1/2+y,1/2-z
1/2-x,1/2-y,-z
1/2+x,1/2-y,1/2+z
loop_
_atom_site_type_symbol
_atom_site_label
_atom_site_fract_x
_atom_site_fract_y
_atom_site_fract_z
Si Si1 0.009169 0.308710 0.568948
Si Si2 0.303100 0.791958 0.835760
Si Si3 0.546726 0.359001 0.698488
Si Si4 0.685730 0.295068 0.931573
Si Si5 0.898467 0.086108 0.622576
Si Si6 0.004706 0.660617 0.921240
Si Si7 0.795544 0.942856 0.223851
O O1 0.103337 0.261867 0.614239
O O2 0.997450 0.281255 0.491622
O O3 0.935967 0.222424 0.591751
O O4 0.006554 0.485005 0.579129
O O5 0.232471 0.772892 0.875153
O O6 0.289312 0.962346 0.810537
O O7 0.286590 0.681008 0.774767
O O8 0.500000 0.288901 0.750000
O O9 0.480857 0.490827 0.664349
O O10 0.554159 0.247068 0.641671
O O11 0.635762 0.434206 0.736925
O O12 0.656287 0.466848 0.929316
O O13 0.600560 0.198276 0.918849
O O14 0.750000 0.250000 0.000000
O O15 0.839569 0.123814 0.670228
#
# Coordination Sequence:
#
# PCOD9276373 Si02
#       7
#     8   8   8   8   8   8   8
#     4  11  22  40  61  90 119 157 199 253 296 351
#     4  11  23  38  62  85 123 155 199 249 296 352
#     4   9  18  38  59  84 116 156 198 240 290 361
#     4  10  20  40  61  83 118 158 194 242 298 357
#     4   9  20  38  61  83 117 158 198 246 292 358
#     4  10  23  38  62  88 123 153 201 243 303 354
#     4  10  22  38  57  89 122 156 200 247 306 347
#
# _framework density 18.860831999999998
#
# number of rings (size 3 to 8) (size 9 to 14) (size 15 to 20)
#    0.000    2.000    2.857    0.857    2.000    4.571 
#    2.571    0.714    0.000    0.000    0.000    0.000 
#    0.000    0.000    0.000    0.000    0.000    0.000 
#
# Total GULP energy -156265.316762 kJ/mol
# GULP energy per Si atom -5580.904170 kJ/mol
# Density = 1.881790 g / cm^3
# Si number density = 18.860832 Si / 1000 Ang^3
#
#
#
# Elastic Constant Matrix: (Units=GPa)
#
#
# Indices 1 2 3 4 5 6 
#
# 1 59.2726 28.3632 31.4527 0.0000 -9.8475 0.0000
# 2 28.3632 47.8330 54.0796 0.0000 -21.9169 0.0000
# 3 31.4527 54.0796 117.2806 0.0000 -19.3094 0.0000
# 4 0.0000 0.0000 0.0000 34.2966 0.0000 -10.9836
# 5 -9.8475 -21.9169 -19.3094 0.0000 26.7919 0.0000
# 6 0.0000 0.0000 0.0000 -10.9836 0.0000 24.3681
#
#
#
# Elastic Compliance Matrix: (Units=1/GPa)
#
#
# Indices 1 2 3 4 5 6 
#
# 1 0.023916 -0.017167 0.000723 0.000000 -0.004732 0.000000
# 2 -0.017167 0.075917 -0.024073 0.000000 0.038444 0.000000
# 3 0.000723 -0.024073 0.018420 0.000000 -0.006151 0.000000
# 4 0.000000 0.000000 0.000000 0.034076 0.000000 0.015359
# 5 -0.004732 0.038444 -0.006151 0.000000 0.062601 0.000000
# 6 0.000000 0.000000 0.000000 0.015359 0.000000 0.047960
#
#
# Mechanical properties :
#
#
# Convention : Reuss Voigt Hill
#
# Bulk Modulus (GPa) = 26.86747 50.24194 38.55471
# Shear Modulus (GPa) = 14.03192 24.45738 19.24465
#
# Velocity S-wave (km/s) = 2.73054 3.60492 3.19776
# Velocity P-wave (km/s) = 4.92110 6.63501 5.84125
#
# Compressibility (1/GPa) = 0.03721972
#
# Stress axis : x y z
#
# Youngs Moduli (GPa) = 41.81279 13.17234 54.28791
#
# Poissons Ratio (x) = 0.22612 -0.03924
# Poissons Ratio (y) = 0.71778 1.30687
# Poissons Ratio (z) = -0.03022 0.31710
#
# Static dielectric constant tensor:
#      x y z
#    x 1.656940 0.000000 0.026830 
#    y 0.000000 1.643330 0.000000 
#    z 0.026830 0.000000 1.677730 
# 
# From -- ./inp_files/247007.got.cif
#   From: 2010.05.17/outbox.cif.g08.bks.cpg/sg15_124_cif.got.tgz:247007.got - 2010.06.03 18:47:42.
