data_PCOD9276423
_publ_section_title
;
Structure prediction by ZEFSAII (Michael W. Deem and Ramdas Pophale) SiO2 
 PCOD9276423
Probable space group: C 2/C
;
_chemical_formula_sum "Si O2"
_cell_formula_units_Z 60
_cell_length_a 15.655281
_cell_length_b 20.400319
_cell_length_c 14.305635
_cell_angle_alpha 90.000000
_cell_angle_beta 39.117870
_cell_angle_gamma 90.000000
_cell_volume 2882.556036
_symmetry_space_group_name_H-M "C 2/C"
_symmetry_group_IT_number 15
_symmetry_cell_setting 'monoclinic'
loop_
_space_group_symop_operation_xyz
x,y,z
-x,y,1/2-z
-x,-y,-z
x,-y,1/2+z
1/2+x,1/2+y,z
1/2-x,1/2+y,1/2-z
1/2-x,1/2-y,-z
1/2+x,1/2-y,1/2+z
loop_
_atom_site_type_symbol
_atom_site_label
_atom_site_fract_x
_atom_site_fract_y
_atom_site_fract_z
Si Si1 0.746270 0.557400 0.827955
Si Si2 0.003015 0.894319 0.854831
Si Si3 0.290680 0.577036 0.037934
Si Si4 0.545934 0.191736 0.404670
Si Si5 0.460059 0.060178 0.965959
Si Si6 0.000000 0.365348 0.750000
Si Si7 0.355200 0.691439 0.116067
Si Si8 0.810534 0.014734 0.826446
O O1 0.721751 0.558913 0.736873
O O2 0.905656 0.569149 0.710965
O O3 0.643523 0.603268 0.971609
O O4 0.708282 0.483665 0.891712
O O5 0.000000 0.873402 0.750000
O O6 0.103011 0.850076 0.829432
O O7 0.065322 0.967416 0.802517
O O8 0.338640 0.555810 0.895181
O O9 0.361278 0.640044 0.024182
O O10 0.132439 0.593177 0.158904
O O11 0.555280 0.125916 0.459574
O O12 0.478057 0.175302 0.362681
O O13 0.456335 0.248311 0.524372
O O14 0.699740 0.213443 0.255067
O O15 0.500000 0.000000 0.000000
O O16 0.318641 0.033808 0.043923
#
# Coordination Sequence:
#
# PCOD9276423 Si02
#       8
#     8   8   8   8   8   4   8   8
#     4  11  22  36  66  99 133 174 225 275 349 404
#     4  12  24  44  64  95 133 175 228 293 343 401
#     4  11  21  39  67 104 142 174 219 290 341 412
#     4  11  24  45  70  96 141 188 229 280 343 416
#     4  10  20  40  68  99 129 178 230 284 334 401
#     4  10  20  40  62 100 140 176 226 272 336 410
#     4  11  26  47  67  96 141 184 229 286 343 414
#     4  11  20  39  64  99 137 172 219 277 353 399
#
# _framework density 20.814858999999998
#
# number of rings (size 3 to 8) (size 9 to 14) (size 15 to 20)
#    0.000    1.067    4.000    5.200    1.867    2.133 
#    2.400    0.667    2.933    0.000    0.000    0.000 
#    0.000    0.000    0.000    0.000    0.000    0.000 
#
# Total GULP energy -167705.484232 kJ/mol
# GULP energy per Si atom -5590.182808 kJ/mol
# Density = 2.076748 g / cm^3
# Si number density = 20.814859 Si / 1000 Ang^3
#
#
#
# Elastic Constant Matrix: (Units=GPa)
#
#
# Indices 1 2 3 4 5 6 
#
# 1 100.6753 35.5051 30.1962 -0.0003 8.1317 -0.0001
# 2 35.5051 67.7755 26.6698 -0.0004 6.9268 0.0005
# 3 30.1962 26.6698 90.4697 -0.0017 1.1964 0.0008
# 4 -0.0003 -0.0004 -0.0017 30.8621 0.0006 0.6827
# 5 8.1317 6.9268 1.1964 0.0006 30.7028 -0.0004
# 6 -0.0001 0.0005 0.0008 0.6827 -0.0004 13.4844
#
#
#
# Elastic Compliance Matrix: (Units=1/GPa)
#
#
# Indices 1 2 3 4 5 6 
#
# 1 0.012819 -0.005466 -0.002640 0.000000 -0.002059 0.000000
# 2 -0.005466 0.019423 -0.003865 0.000000 -0.002784 -0.000001
# 3 -0.002640 -0.003865 0.013060 0.000001 0.001062 -0.000001
# 4 0.000000 0.000000 0.000001 0.032439 -0.000001 -0.001642
# 5 -0.002059 -0.002784 0.001062 -0.000001 0.033702 0.000001
# 6 0.000000 -0.000001 -0.000001 -0.001642 0.000001 0.074243
#
#
# Mechanical properties :
#
#
# Convention : Reuss Voigt Hill
#
# Bulk Modulus (GPa) = 46.81512 49.29584 48.05548
# Shear Modulus (GPa) = 23.06841 26.11318 24.59079
#
# Velocity S-wave (km/s) = 3.33267 3.54580 3.44089
# Velocity P-wave (km/s) = 6.11138 6.36380 6.23887
#
# Compressibility (1/GPa) = 0.02136062
#
# Stress axis : x y z
#
# Youngs Moduli (GPa) = 78.01075 51.48465 76.57095
#
# Poissons Ratio (x) = 0.28142 0.20214
# Poissons Ratio (y) = 0.42641 0.29592
# Poissons Ratio (z) = 0.20595 0.19897
#
# Static dielectric constant tensor:
#      x y z
#    x 1.792960 0.000000 0.032610 
#    y 0.000000 1.728820 0.000000 
#    z 0.032610 0.000000 1.851570 
# 
# From -- ./inp_files/156361.got.cif
#   From: 2010.05.17/outbox.cif.g08.bks.cpg/sg15_79_cif.got.tgz:156361.got - 2010.06.03 18:47:42.
