data_PCOD9276377
_publ_section_title
;
Structure prediction by ZEFSAII (Michael W. Deem and Ramdas Pophale) SiO2 
 PCOD9276377
Probable space group: C 2/C
;
_chemical_formula_sum "Si O2"
_cell_formula_units_Z 64
_cell_length_a 8.179794
_cell_length_b 15.000701
_cell_length_c 27.428369
_cell_angle_alpha 90.000000
_cell_angle_beta 57.577946
_cell_angle_gamma 90.000000
_cell_volume 2840.919488
_symmetry_space_group_name_H-M "C 2/C"
_symmetry_group_IT_number 15
_symmetry_cell_setting 'monoclinic'
loop_
_space_group_symop_operation_xyz
x,y,z
-x,y,1/2-z
-x,-y,-z
x,-y,1/2+z
1/2+x,1/2+y,z
1/2-x,1/2+y,1/2-z
1/2-x,1/2-y,-z
1/2+x,1/2-y,1/2+z
loop_
_atom_site_type_symbol
_atom_site_label
_atom_site_fract_x
_atom_site_fract_y
_atom_site_fract_z
Si Si1 0.079500 0.087398 0.341066
Si Si2 0.872714 0.838765 0.482280
Si Si3 0.782986 0.079642 0.618231
Si Si4 0.611606 0.894848 0.280322
Si Si5 0.646171 0.340600 0.531393
Si Si6 0.283636 0.048795 0.164083
Si Si7 0.281331 0.707045 0.262231
Si Si8 0.635623 0.996658 0.042312
O O1 0.959700 0.143944 0.400387
O O2 0.219168 0.152946 0.288551
O O3 0.926357 0.053862 0.325669
O O4 0.171641 0.000379 0.351575
O O5 0.750000 0.750000 0.500000
O O6 0.726521 0.920130 0.500784
O O7 0.040710 0.851948 0.415299
O O8 0.979268 0.848879 0.517203
O O9 0.580804 0.132001 0.657814
O O10 0.759096 0.027953 0.571036
O O11 0.500000 0.927245 0.250000
O O12 0.705192 0.974390 0.295538
O O13 0.748712 0.811844 0.244423
O O14 0.750000 0.250000 0.500000
O O15 0.817932 0.413081 0.498982
O O16 0.333065 0.144980 0.180860
O O17 0.429167 0.019959 0.097956
O O18 0.500000 0.709156 0.250000
#
# Coordination Sequence:
#
# PCOD9276377 Si02
#       8
#     8   8   8   8   8   8   8   8
#     4  11  21  39  64  88 135 161 208 268 318 369
#     4  11  23  39  59  89 126 165 217 258 304 375
#     4  10  20  40  61  84 120 169 201 253 317 378
#     4  10  21  40  69  89 117 164 214 250 319 393
#     4  11  24  39  63  94 126 176 211 261 322 379
#     4  10  23  38  66  97 124 165 212 267 316 379
#     4   9  21  39  60  91 122 161 205 257 318 380
#     4  10  21  43  60  86 130 170 214 249 320 384
#
# _framework density 22.527916000000001
#
# number of rings (size 3 to 8) (size 9 to 14) (size 15 to 20)
#    0.000    1.750    2.500    1.500    7.000    3.500 
#    0.000    0.000    0.000   24.750    0.000    0.000 
#    0.000    0.000    0.000    0.000    0.000    0.000 
#
# Total GULP energy -178620.559381 kJ/mol
# GULP energy per Si atom -5581.892481 kJ/mol
# Density = 2.247664 g / cm^3
# Si number density = 22.527916 Si / 1000 Ang^3
#
#
#
# Elastic Constant Matrix: (Units=GPa)
#
#
# Indices 1 2 3 4 5 6 
#
# 1 39.5247 7.8023 4.0426 0.0000 12.0049 -0.0001
# 2 7.8023 99.1892 17.6090 0.0001 -10.1464 -0.0001
# 3 4.0426 17.6090 74.7399 0.0001 -0.1317 0.0000
# 4 0.0000 0.0001 0.0001 31.8886 0.0000 -4.7742
# 5 12.0049 -10.1464 -0.1317 0.0000 33.5759 0.0000
# 6 -0.0001 -0.0001 0.0000 -4.7742 0.0000 21.9527
#
#
#
# Elastic Compliance Matrix: (Units=1/GPa)
#
#
# Indices 1 2 3 4 5 6 
#
# 1 0.029571 -0.003365 -0.000827 0.000000 -0.011593 0.000000
# 2 -0.003365 0.011253 -0.002461 0.000000 0.004594 0.000000
# 3 -0.000827 -0.002461 0.014004 0.000000 -0.000393 0.000000
# 4 0.000000 0.000000 0.000000 0.032415 0.000000 0.007049
# 5 -0.011593 0.004594 -0.000393 0.000000 0.035315 0.000000
# 6 0.000000 0.000000 0.000000 0.007049 0.000000 0.047086
#
#
# Mechanical properties :
#
#
# Convention : Reuss Voigt Hill
#
# Bulk Modulus (GPa) = 24.08423 30.26240 27.17332
# Shear Modulus (GPa) = 25.40779 29.75010 27.57894
#
# Velocity S-wave (km/s) = 3.36197 3.63793 3.50267
# Velocity P-wave (km/s) = 5.07784 5.57750 5.33353
#
# Compressibility (1/GPa) = 0.04152094
#
# Stress axis : x y z
#
# Youngs Moduli (GPa) = 33.81725 88.86245 71.40994
#
# Poissons Ratio (x) = 0.29903 0.05906
# Poissons Ratio (y) = 0.11380 0.17576
# Poissons Ratio (z) = 0.02797 0.21871
#
# Static dielectric constant tensor:
#      x y z
#    x 1.845400 0.000000 -0.019830 
#    y 0.000000 1.812180 0.000000 
#    z -0.019830 0.000000 1.938990 
# 
# From -- ./inp_files/307992.got.cif
#   From: 2010.05.17/outbox.cif.g08.bks.cpg/sg15_154_cif.got.tgz:307992.got - 2010.06.03 18:47:42.
