data_PCOD9276206
_publ_section_title
;
Structure prediction by ZEFSAII (Michael W. Deem and Ramdas Pophale) SiO2 
 PCOD9276206
Probable space group: C 2/C
;
_chemical_formula_sum "Si O2"
_cell_formula_units_Z 56
_cell_length_a 8.597707
_cell_length_b 30.237586
_cell_length_c 16.450677
_cell_angle_alpha 90.000000
_cell_angle_beta 37.641693
_cell_angle_gamma 90.000000
_cell_volume 2611.901335
_symmetry_space_group_name_H-M "C 2/C"
_symmetry_group_IT_number 15
_symmetry_cell_setting 'monoclinic'
loop_
_space_group_symop_operation_xyz
x,y,z
-x,y,1/2-z
-x,-y,-z
x,-y,1/2+z
1/2+x,1/2+y,z
1/2-x,1/2+y,1/2-z
1/2-x,1/2-y,-z
1/2+x,1/2-y,1/2+z
loop_
_atom_site_type_symbol
_atom_site_label
_atom_site_fract_x
_atom_site_fract_y
_atom_site_fract_z
Si Si1 0.262632 0.945695 0.911943
Si Si2 0.817622 0.455021 0.407578
Si Si3 0.000000 0.180162 0.750000
Si Si4 0.281361 0.808434 0.619928
Si Si5 0.086524 0.353642 0.622433
Si Si6 0.482366 0.126741 0.589220
Si Si7 0.019724 0.217395 0.920156
Si Si8 0.500000 0.167320 0.750000
O O1 0.500000 0.946194 0.750000
O O2 0.298880 0.901214 0.948563
O O3 0.292126 0.993309 0.942209
O O4 0.976005 0.942197 0.993418
O O5 0.000000 0.452876 0.250000
O O6 0.923431 0.423487 0.436458
O O7 0.239001 0.146376 0.641002
O O8 0.052223 0.210371 0.808536
O O9 0.351440 0.841694 0.663178
O O10 0.305242 0.838881 0.530790
O O11 0.477691 0.767558 0.548754
O O12 0.000000 0.790649 0.750000
O O13 0.285418 0.313714 0.537585
O O14 0.000000 0.356843 0.750000
O O15 0.420404 0.138333 0.707494
O O16 0.259105 0.196953 0.867434
#
# Coordination Sequence:
#
# PCOD9276206 Si02
#       8
#     8   8   4   8   8   8   8   4
#     4   9  21  40  66 102 135 176 224 268 334 417
#     4  10  20  39  71 103 132 171 230 277 328 403
#     4  10  24  42  66  94 134 164 234 280 336 384
#     4  12  28  43  62  94 136 176 223 278 331 400
#     4  11  25  42  69  92 132 179 219 269 340 400
#     4  11  23  41  67 100 132 170 220 282 335 392
#     4  11  23  46  63  93 123 178 221 277 324 399
#     4  10  22  38  68  90 124 162 214 270 328 378
#
# _framework density 21.440318999999999
#
# number of rings (size 3 to 8) (size 9 to 14) (size 15 to 20)
#    0.000    1.429    2.857    1.286    9.000    1.714 
#    0.000    0.714    1.571    0.000    0.000    0.000 
#    0.000    0.000    0.000    0.000    0.000    0.000 
#
# Total GULP energy -155952.392278 kJ/mol
# GULP energy per Si atom -5569.728296 kJ/mol
# Density = 2.139152 g / cm^3
# Si number density = 21.440319 Si / 1000 Ang^3
#
#
#
# Elastic Constant Matrix: (Units=GPa)
#
#
# Indices 1 2 3 4 5 6 
#
# 1 55.2307 37.5147 7.1158 0.0000 -7.7212 0.0000
# 2 37.5147 159.2744 18.5231 0.0000 -1.9517 0.0000
# 3 7.1158 18.5231 65.0909 0.0000 -16.1002 0.0000
# 4 0.0000 0.0000 0.0000 27.3491 0.0000 4.4522
# 5 -7.7212 -1.9517 -16.1002 0.0000 43.8641 0.0000
# 6 0.0000 0.0000 0.0000 4.4522 0.0000 39.2774
#
#
#
# Elastic Compliance Matrix: (Units=1/GPa)
#
#
# Indices 1 2 3 4 5 6 
#
# 1 0.022128 -0.005162 -0.000048 0.000000 0.003648 0.000000
# 2 -0.005162 0.007705 -0.001945 0.000000 -0.001280 0.000000
# 3 -0.000048 -0.001945 0.017486 0.000000 0.006323 0.000000
# 4 0.000000 0.000000 0.000000 0.037252 0.000000 -0.004223
# 5 0.003648 -0.001280 0.006323 0.000000 0.025704 0.000000
# 6 0.000000 0.000000 0.000000 -0.004223 0.000000 0.025939
#
#
# Mechanical properties :
#
#
# Convention : Reuss Voigt Hill
#
# Bulk Modulus (GPa) = 30.29397 45.10034 37.69715
# Shear Modulus (GPa) = 30.95507 36.52762 33.74135
#
# Velocity S-wave (km/s) = 3.80383 4.13205 3.97133
# Velocity P-wave (km/s) = 5.78379 6.62164 6.21685
#
# Compressibility (1/GPa) = 0.03300987
#
# Stress axis : x y z
#
# Youngs Moduli (GPa) = 45.19164 129.79071 57.18916
#
# Poissons Ratio (x) = 0.66993 0.00274
# Poissons Ratio (y) = 0.23326 0.11122
# Poissons Ratio (z) = 0.00217 0.25241
#
# Static dielectric constant tensor:
#      x y z
#    x 1.804030 0.000000 -0.017660 
#    y 0.000000 1.840380 0.000000 
#    z -0.017660 0.000000 1.873750 
# 
# From -- ./inp_files/194078.got.cif
#   From: 2010.05.17/outbox.cif.g08.bks.cpg/sg15_98_cif.got.tgz:194078.got - 2010.06.03 18:47:42.
