data_PCOD9276924
_publ_section_title
;
Structure prediction by ZEFSAII (Michael W. Deem and Ramdas Pophale) SiO2 
 PCOD9276924
Probable space group: C 2/C
;
_chemical_formula_sum "Si O2"
_cell_formula_units_Z 52
_cell_length_a 13.253261
_cell_length_b 27.928622
_cell_length_c 9.607374
_cell_angle_alpha 90.000000
_cell_angle_beta 49.756712
_cell_angle_gamma 90.000000
_cell_volume 2714.418828
_symmetry_space_group_name_H-M "C 2/C"
_symmetry_group_IT_number 15
_symmetry_cell_setting 'monoclinic'
loop_
_space_group_symop_operation_xyz
x,y,z
-x,y,1/2-z
-x,-y,-z
x,-y,1/2+z
1/2+x,1/2+y,z
1/2-x,1/2+y,1/2-z
1/2-x,1/2-y,-z
1/2+x,1/2-y,1/2+z
loop_
_atom_site_type_symbol
_atom_site_label
_atom_site_fract_x
_atom_site_fract_y
_atom_site_fract_z
Si Si1 0.790836 0.663819 0.449283
Si Si2 0.811344 0.433328 0.781880
Si Si3 0.704864 0.080910 0.521447
Si Si4 0.983098 0.708990 0.065488
Si Si5 0.500000 0.703508 0.750000
Si Si6 0.903185 0.987374 0.962901
Si Si7 0.000000 0.664003 0.750000
Si Si8 0.500000 0.996587 0.750000
O O1 0.809900 0.608858 0.394503
O O2 0.892702 0.680268 0.478090
O O3 0.638964 0.675578 0.618730
O O4 0.848659 0.691074 0.260983
O O5 0.773002 0.413372 0.664130
O O6 0.950321 0.461468 0.671431
O O7 0.707428 0.472574 0.922344
O O8 0.624814 0.127062 0.647120
O O9 0.829834 0.063743 0.502307
O O10 0.612863 0.033573 0.605076
O O11 0.998621 0.762364 0.113710
O O12 0.984059 0.696464 0.902094
O O13 0.000000 0.994071 0.750000
O O14 0.000000 0.000000 0.000000
#
# Coordination Sequence:
#
# PCOD9276924 Si02
#       8
#     8   8   8   8   4   8   4   4
#     4  10  21  39  65  91 119 161 209 260 306 379
#     4  11  20  35  59  87 118 157 211 251 300 359
#     4  10  21  37  56  88 126 156 203 261 299 352
#     4  10  20  40  66  91 120 158 201 260 323 379
#     4  10  22  43  64  93 126 160 203 262 317 386
#     4  11  23  39  57  80 124 177 204 245 303 366
#     4  11  22  38  66  95 120 158 205 268 326 359
#     4   9  20  33  58  88 120 154 200 250 301 341
#
# _framework density 19.156955
#
# number of rings (size 3 to 8) (size 9 to 14) (size 15 to 20)
#    0.000    1.846    3.077    3.231    1.077    1.231 
#    0.000    3.077    0.000    0.000    0.000    0.000 
#    0.000    0.000    0.000    0.000    0.000    0.000 
#
# Total GULP energy -144757.025325 kJ/mol
# GULP energy per Si atom -5567.577897 kJ/mol
# Density = 1.911335 g / cm^3
# Si number density = 19.156955 Si / 1000 Ang^3
#
#
#
# Elastic Constant Matrix: (Units=GPa)
#
#
# Indices 1 2 3 4 5 6 
#
# 1 84.2884 19.2818 45.9544 0.0000 0.2495 0.0000
# 2 19.2818 48.3552 14.8534 0.0000 7.9909 0.0000
# 3 45.9544 14.8534 96.5853 0.0000 8.6406 0.0000
# 4 0.0000 0.0000 0.0000 12.6536 0.0000 -4.5216
# 5 0.2495 7.9909 8.6406 0.0000 32.2703 0.0000
# 6 0.0000 0.0000 0.0000 -4.5216 0.0000 12.8578
#
#
#
# Elastic Compliance Matrix: (Units=1/GPa)
#
#
# Indices 1 2 3 4 5 6 
#
# 1 0.017198 -0.005018 -0.007694 0.000000 0.003170 0.000000
# 2 -0.005018 0.023855 -0.000775 0.000000 -0.005661 0.000000
# 3 -0.007694 -0.000775 0.014457 0.000000 -0.003620 0.000000
# 4 0.000000 0.000000 0.000000 0.090387 0.000000 0.031785
# 5 0.003170 -0.005661 -0.003620 0.000000 0.033335 0.000000
# 6 0.000000 0.000000 0.000000 0.031785 0.000000 0.088952
#
#
# Mechanical properties :
#
#
# Convention : Reuss Voigt Hill
#
# Bulk Modulus (GPa) = 35.04360 43.26756 39.15558
# Shear Modulus (GPa) = 16.41129 21.49895 18.95512
#
# Velocity S-wave (km/s) = 2.93008 3.35364 3.14899
# Velocity P-wave (km/s) = 5.45708 6.13439 5.80562
#
# Compressibility (1/GPa) = 0.02853588
#
# Stress axis : x y z
#
# Youngs Moduli (GPa) = 58.14794 41.92061 69.16885
#
# Poissons Ratio (x) = 0.21035 0.53221
# Poissons Ratio (y) = 0.29178 0.05358
# Poissons Ratio (z) = 0.44741 0.03247
#
# Static dielectric constant tensor:
#      x y z
#    x 1.637230 0.000000 0.043870 
#    y 0.000000 1.678660 0.000000 
#    z 0.043870 0.000000 1.651830 
# 
# From -- ./inp_files/35139.got.cif
#   From: 2010.05.17/outbox.cif.g08.bks.cpg/sg15_18_cif.got.tgz:35139.got - 2010.06.03 18:47:42.
