data_PCOD9276176
_publ_section_title
;
Structure prediction by ZEFSAII (Michael W. Deem and Ramdas Pophale) SiO2 
 PCOD9276176
Probable space group: C 2/C
;
_chemical_formula_sum "Si O2"
_cell_formula_units_Z 48
_cell_length_a 12.566626
_cell_length_b 13.768330
_cell_length_c 10.349709
_cell_angle_alpha 90.000000
_cell_angle_beta 85.193651
_cell_angle_gamma 90.000000
_cell_volume 1784.424769
_symmetry_space_group_name_H-M "C 2/C"
_symmetry_group_IT_number 15
_symmetry_cell_setting 'monoclinic'
loop_
_space_group_symop_operation_xyz
x,y,z
-x,y,1/2-z
-x,-y,-z
x,-y,1/2+z
1/2+x,1/2+y,z
1/2-x,1/2+y,1/2-z
1/2-x,1/2-y,-z
1/2+x,1/2-y,1/2+z
loop_
_atom_site_type_symbol
_atom_site_label
_atom_site_fract_x
_atom_site_fract_y
_atom_site_fract_z
Si Si1 0.000000 0.898666 0.250000
Si Si2 0.218173 0.678599 0.200939
Si Si3 0.918459 0.124229 0.021974
Si Si4 0.000000 0.778578 0.750000
Si Si5 0.199769 0.635410 0.730728
Si Si6 0.812417 0.012903 0.362540
Si Si7 0.072602 0.514792 0.118025
O O1 0.027057 0.842136 0.116550
O O2 0.101896 0.971406 0.251447
O O3 0.310474 0.676794 0.081278
O O4 0.205746 0.785202 0.263558
O O5 0.265806 0.612130 0.313362
O O6 0.120479 0.620644 0.146896
O O7 0.999422 0.151811 0.126408
O O8 0.877081 0.016914 0.983945
O O9 0.900101 0.707393 0.757750
O O10 0.216173 0.564606 0.851528
O O11 0.172272 0.561904 0.616035
O O12 0.000000 0.490599 0.250000
O O13 0.000000 0.500000 0.000000
#
# Coordination Sequence:
#
# PCOD9276176 Si02
#       7
#     4   8   8   4   8   8   8
#     4   8  20  43  64  91 138 186 234 291 374 431
#     4  10  23  42  73 106 141 193 256 302 368 449
#     4   9  21  41  65  96 134 185 234 299 369 432
#     4  10  20  39  70 105 130 182 252 297 362 457
#     4  10  22  44  70 106 137 194 249 298 367 453
#     4   9  21  42  66  95 143 185 231 304 363 434
#     4  11  26  49  78 108 153 199 253 313 380 450
#
# _framework density 26.899425000000001
#
# number of rings (size 3 to 8) (size 9 to 14) (size 15 to 20)
#    1.000    1.333    0.833    0.000    4.667    7.333 
#    7.500    1.667    0.000    0.000    0.000    0.000 
#    0.000    0.000    0.000    0.000    0.000    0.000 
#
# Total GULP energy -133936.236500 kJ/mol
# GULP energy per Si atom -5580.676521 kJ/mol
# Density = 2.683820 g / cm^3
# Si number density = 26.899425 Si / 1000 Ang^3
#
#
#
# Elastic Constant Matrix: (Units=GPa)
#
#
# Indices 1 2 3 4 5 6 
#
# 1 93.4890 17.8821 37.6220 0.0000 11.5146 0.0000
# 2 17.8821 173.6569 33.8765 0.0000 17.8047 0.0000
# 3 37.6220 33.8765 183.3510 0.0000 27.9115 0.0000
# 4 0.0000 0.0000 0.0000 18.4383 0.0000 14.2383
# 5 11.5146 17.8047 27.9115 0.0000 47.2406 0.0000
# 6 0.0000 0.0000 0.0000 14.2383 0.0000 44.9830
#
#
#
# Elastic Compliance Matrix: (Units=1/GPa)
#
#
# Indices 1 2 3 4 5 6 
#
# 1 0.011839 -0.000667 -0.002093 0.000000 -0.001397 0.000000
# 2 -0.000667 0.006147 -0.000737 0.000000 -0.001719 0.000000
# 3 -0.002093 -0.000737 0.006483 0.000000 -0.003042 0.000000
# 4 0.000000 0.000000 0.000000 0.071780 0.000000 -0.022720
# 5 -0.001397 -0.001719 -0.003042 0.000000 0.023954 0.000000
# 6 0.000000 0.000000 0.000000 -0.022720 0.000000 0.029422
#
#
# Mechanical properties :
#
#
# Convention : Reuss Voigt Hill
#
# Bulk Modulus (GPa) = 57.23113 69.91755 63.57434
# Shear Modulus (GPa) = 30.77975 46.20682 38.49329
#
# Velocity S-wave (km/s) = 3.38635 4.14909 3.78697
# Velocity P-wave (km/s) = 6.05078 7.00013 6.54270
#
# Compressibility (1/GPa) = 0.01747301
#
# Stress axis : x y z
#
# Youngs Moduli (GPa) = 84.46991 162.67492 154.25338
#
# Poissons Ratio (x) = 0.10858 0.32287
# Poissons Ratio (y) = 0.05638 0.11372
# Poissons Ratio (z) = 0.17681 0.11992
#
# Static dielectric constant tensor:
#      x y z
#    x 2.238890 0.000000 0.005660 
#    y 0.000000 2.102470 0.000000 
#    z 0.005660 0.000000 2.108550 
# 
# From -- ./inp_files/96494.got.cif
#   From: 2010.05.17/outbox.cif.g08.bks.cpg/sg15_49_cif.got.tgz:96494.got - 2010.06.03 18:47:42.
