data_PCOD9276409
_publ_section_title
;
Structure prediction by ZEFSAII (Michael W. Deem and Ramdas Pophale) SiO2 
 PCOD9276409
Probable space group: C 2/C
;
_chemical_formula_sum "Si O2"
_cell_formula_units_Z 56
_cell_length_a 17.846799
_cell_length_b 11.818538
_cell_length_c 13.202650
_cell_angle_alpha 90.000000
_cell_angle_beta 98.977901
_cell_angle_gamma 90.000000
_cell_volume 2750.626503
_symmetry_space_group_name_H-M "C 2/C"
_symmetry_group_IT_number 15
_symmetry_cell_setting 'monoclinic'
loop_
_space_group_symop_operation_xyz
x,y,z
-x,y,1/2-z
-x,-y,-z
x,-y,1/2+z
1/2+x,1/2+y,z
1/2-x,1/2+y,1/2-z
1/2-x,1/2-y,-z
1/2+x,1/2-y,1/2+z
loop_
_atom_site_type_symbol
_atom_site_label
_atom_site_fract_x
_atom_site_fract_y
_atom_site_fract_z
Si Si1 0.290368 0.425157 0.761642
Si Si2 0.363205 0.303302 0.946778
Si Si3 0.992330 0.455361 0.633005
Si Si4 0.764026 0.116544 0.601108
Si Si5 0.181245 0.258286 0.405658
Si Si6 0.178725 0.480860 0.896989
Si Si7 0.022829 0.691434 0.960723
O O1 0.349744 0.406788 0.865727
O O2 0.288935 0.544469 0.702751
O O3 0.304611 0.330169 0.680606
O O4 0.211453 0.415418 0.807117
O O5 0.303680 0.206550 0.895332
O O6 0.450121 0.268669 0.961982
O O7 0.333257 0.326638 0.054165
O O8 0.903843 0.439678 0.588656
O O9 0.004505 0.589448 0.619548
O O10 0.000000 0.423771 0.750000
O O11 0.040525 0.379590 0.566896
O O12 0.730121 0.034065 0.506921
O O13 0.250000 0.250000 0.500000
O O14 0.177641 0.387902 0.367484
O O15 0.097770 0.245396 0.438293
#
# Coordination Sequence:
#
# PCOD9276409 Si02
#       7
#     8   8   8   8   8   8   8
#     4  11  23  36  63  91 124 169 208 252 303 390
#     4  10  22  40  66  91 124 169 206 260 319 373
#     4  10  22  35  62  94 126 163 196 275 333 369
#     4  10  20  40  61  91 127 163 210 256 312 375
#     4  11  23  39  63  90 124 166 206 265 316 370
#     4  10  21  38  60  91 122 160 210 260 324 371
#     4  10  23  40  59  94 131 159 209 268 317 371
#
# _framework density 20.358996999999999
#
# number of rings (size 3 to 8) (size 9 to 14) (size 15 to 20)
#    0.000    1.714    2.857    0.857    8.000    0.000 
#    0.000    0.714    3.143    0.000    0.000    0.000 
#    0.000    0.000    0.000    0.000    0.000    0.000 
#
# Total GULP energy -156229.184395 kJ/mol
# GULP energy per Si atom -5579.613728 kJ/mol
# Density = 2.031266 g / cm^3
# Si number density = 20.358997 Si / 1000 Ang^3
#
#
#
# Elastic Constant Matrix: (Units=GPa)
#
#
# Indices 1 2 3 4 5 6 
#
# 1 117.5928 17.6661 24.7674 0.0000 -20.4116 0.0000
# 2 17.6661 42.1412 14.7394 0.0000 -5.5317 0.0000
# 3 24.7674 14.7394 89.6760 0.0000 -15.0126 0.0000
# 4 0.0000 0.0000 0.0000 35.9726 0.0000 -11.4121
# 5 -20.4116 -5.5317 -15.0126 0.0000 23.3923 0.0000
# 6 0.0000 0.0000 0.0000 -11.4121 0.0000 24.7415
#
#
#
# Elastic Compliance Matrix: (Units=1/GPa)
#
#
# Indices 1 2 3 4 5 6 
#
# 1 0.010539 -0.003008 -0.001116 0.000000 0.007769 0.000000
# 2 -0.003008 0.026324 -0.003241 0.000000 0.001520 0.000000
# 3 -0.001116 -0.003241 0.013109 0.000000 0.006673 0.000000
# 4 0.000000 0.000000 0.000000 0.032564 0.000000 0.015020
# 5 0.007769 0.001520 0.006673 0.000000 0.054170 0.000000
# 6 0.000000 0.000000 0.000000 0.015020 0.000000 0.047346
#
#
# Mechanical properties :
#
#
# Convention : Reuss Voigt Hill
#
# Bulk Modulus (GPa) = 28.37529 40.41732 34.39630
# Shear Modulus (GPa) = 23.74945 29.63707 26.69326
#
# Velocity S-wave (km/s) = 3.41916 3.81953 3.62488
# Velocity P-wave (km/s) = 5.43648 6.27273 5.86952
#
# Compressibility (1/GPa) = 0.03524194
#
# Stress axis : x y z
#
# Youngs Moduli (GPa) = 94.88229 37.98802 76.28152
#
# Poissons Ratio (x) = 0.11427 0.08512
# Poissons Ratio (y) = 0.28542 0.24726
# Poissons Ratio (z) = 0.10587 0.12314
#
# Static dielectric constant tensor:
#      x y z
#    x 1.724480 0.000000 -0.009620 
#    y 0.000000 1.783680 0.000000 
#    z -0.009620 0.000000 1.736430 
# 
# From -- ./inp_files/97036.got.cif
#   From: 2010.05.17/outbox.cif.g08.bks.cpg/sg15_49_cif.got.tgz:97036.got - 2010.06.03 18:47:42.
