data_PCOD9276517
_publ_section_title
;
Structure prediction by ZEFSAII (Michael W. Deem and Ramdas Pophale) SiO2 
 PCOD9276517
Probable space group: C 2/C
;
_chemical_formula_sum "Si O2"
_cell_formula_units_Z 52
_cell_length_a 14.401207
_cell_length_b 7.633293
_cell_length_c 20.181729
_cell_angle_alpha 90.000000
_cell_angle_beta 101.026460
_cell_angle_gamma 90.000000
_cell_volume 2177.593135
_symmetry_space_group_name_H-M "C 2/C"
_symmetry_group_IT_number 15
_symmetry_cell_setting 'monoclinic'
loop_
_space_group_symop_operation_xyz
x,y,z
-x,y,1/2-z
-x,-y,-z
x,-y,1/2+z
1/2+x,1/2+y,z
1/2-x,1/2+y,1/2-z
1/2-x,1/2-y,-z
1/2+x,1/2-y,1/2+z
loop_
_atom_site_type_symbol
_atom_site_label
_atom_site_fract_x
_atom_site_fract_y
_atom_site_fract_z
Si Si1 0.500000 0.539009 0.250000
Si Si2 0.196719 0.685559 0.300458
Si Si3 0.321398 0.433373 0.933121
Si Si4 0.015476 0.284638 0.844172
Si Si5 0.367162 0.810648 0.925014
Si Si6 0.866424 0.384754 0.512940
Si Si7 0.200883 0.898667 0.819441
O O1 0.516801 0.402801 0.190803
O O2 0.407936 0.645061 0.213835
O O3 0.264813 0.574864 0.356797
O O4 0.087279 0.635070 0.299052
O O5 0.237802 0.667282 0.233698
O O6 0.201331 0.889811 0.321368
O O7 0.382552 0.607396 0.942583
O O8 0.240567 0.428428 0.978546
O O9 0.373122 0.251057 0.953390
O O10 0.084465 0.291152 0.918091
O O11 0.924352 0.367336 0.866797
O O12 0.255637 0.832955 0.892049
O O13 0.400268 0.929650 0.990001
#
# Coordination Sequence:
#
# PCOD9276517 Si02
#       7
#     4   8   8   8   8   8   8
#     4  10  22  42  62  98 124 176 218 276 332 390
#     4  10  20  40  62  93 130 176 210 276 324 384
#     4  10  21  39  66  94 135 172 217 266 330 375
#     4  10  22  40  67  94 137 171 220 267 329 386
#     4  12  22  40  67 101 129 179 215 269 327 397
#     4  10  22  41  64 101 132 176 217 270 322 392
#     4  11  22  39  67  91 131 170 224 269 332 391
#
# _framework density 23.879577999999999
#
# number of rings (size 3 to 8) (size 9 to 14) (size 15 to 20)
#    0.000    1.538    1.538    4.615    2.154    0.615 
#    0.000    4.615    6.769    0.923    0.000    0.000 
#    0.000    0.000    0.000    0.000    0.000    0.000 
#
# Total GULP energy -145062.524532 kJ/mol
# GULP energy per Si atom -5579.327867 kJ/mol
# Density = 2.382523 g / cm^3
# Si number density = 23.879578 Si / 1000 Ang^3
#
#
#
# Elastic Constant Matrix: (Units=GPa)
#
#
# Indices 1 2 3 4 5 6 
#
# 1 73.4557 -5.8880 7.9520 0.0000 15.3592 0.0000
# 2 -5.8880 71.1966 -0.9139 0.0000 -0.0640 0.0000
# 3 7.9520 -0.9139 53.9820 0.0000 6.9827 0.0000
# 4 0.0000 0.0000 0.0000 27.6637 0.0000 -1.5287
# 5 15.3592 -0.0640 6.9827 0.0000 29.3929 0.0000
# 6 0.0000 0.0000 0.0000 -1.5287 0.0000 19.4797
#
#
#
# Elastic Compliance Matrix: (Units=1/GPa)
#
#
# Indices 1 2 3 4 5 6 
#
# 1 0.015478 0.001257 -0.001251 0.000000 -0.007788 0.000000
# 2 0.001257 0.014151 0.000140 0.000000 -0.000659 0.000000
# 3 -0.001251 0.000140 0.019217 0.000000 -0.003911 0.000000
# 4 0.000000 0.000000 0.000000 0.036306 0.000000 0.002849
# 5 -0.007788 -0.000659 -0.003911 0.000000 0.039019 0.000000
# 6 0.000000 0.000000 0.000000 0.002849 0.000000 0.051559
#
#
# Mechanical properties :
#
#
# Convention : Reuss Voigt Hill
#
# Bulk Modulus (GPa) = 20.35128 22.32607 21.33867
# Shear Modulus (GPa) = 26.06622 28.47286 27.26954
#
# Velocity S-wave (km/s) = 3.30748 3.45679 3.38296
# Velocity P-wave (km/s) = 4.80904 5.03014 4.92083
#
# Compressibility (1/GPa) = 0.04913697
#
# Stress axis : x y z
#
# Youngs Moduli (GPa) = 64.60646 70.66751 52.03642
#
# Poissons Ratio (x) = -0.08883 0.06512
# Poissons Ratio (y) = -0.08121 -0.00727
# Poissons Ratio (z) = 0.08085 -0.00987
#
# Static dielectric constant tensor:
#      x y z
#    x 2.003780 0.000000 0.042790 
#    y 0.000000 1.917970 0.000000 
#    z 0.042790 0.000000 1.922000 
# 
# From -- ./inp_files/242530.got.cif
#   From: 2010.05.17/outbox.cif.g08.bks.cpg/sg15_122_cif.got.tgz:242530.got - 2010.06.03 18:47:42.
