data_PCOD9276091
_publ_section_title
;
Structure prediction by ZEFSAII (Michael W. Deem and Ramdas Pophale) SiO2 
 PCOD9276091
Probable space group: C 2/C
;
_chemical_formula_sum "Si O2"
_cell_formula_units_Z 56
_cell_length_a 22.690523
_cell_length_b 20.519382
_cell_length_c 15.718719
_cell_angle_alpha 90.000000
_cell_angle_beta 18.472581
_cell_angle_gamma 90.000000
_cell_volume 2318.893154
_symmetry_space_group_name_H-M "C 2/C"
_symmetry_group_IT_number 15
_symmetry_cell_setting 'monoclinic'
loop_
_space_group_symop_operation_xyz
x,y,z
-x,y,1/2-z
-x,-y,-z
x,-y,1/2+z
1/2+x,1/2+y,z
1/2-x,1/2+y,1/2-z
1/2-x,1/2-y,-z
1/2+x,1/2-y,1/2+z
loop_
_atom_site_type_symbol
_atom_site_label
_atom_site_fract_x
_atom_site_fract_y
_atom_site_fract_z
Si Si1 0.160811 0.340734 0.660407
Si Si2 0.727600 0.515006 0.442495
Si Si3 0.774142 0.979708 0.243547
Si Si4 0.588329 0.768779 0.929909
Si Si5 0.790581 0.285349 0.556607
Si Si6 0.297870 0.430841 0.860240
Si Si7 0.730370 0.154393 0.882944
O O1 0.183930 0.414779 0.659425
O O2 0.172374 0.297858 0.728567
O O3 0.287603 0.335404 0.402614
O O4 0.966055 0.320235 0.883585
O O5 0.500000 0.522679 0.750000
O O6 0.791168 0.488376 0.263578
O O7 0.775766 0.467480 0.454912
O O8 0.704945 0.921254 0.397876
O O9 0.732539 0.042977 0.357303
O O10 0.988758 0.956586 0.937183
O O11 0.623001 0.691237 0.875864
O O12 0.365320 0.770026 0.244687
O O13 0.698748 0.797521 0.857098
O O14 0.747248 0.354512 0.572331
O O15 0.000000 0.262284 0.250000
#
# Coordination Sequence:
#
# PCOD9276091 Si02
#       7
#     8   8   8   8   8   8   8
#     4  11  24  42  69 103 143 184 242 296 358 433
#     4  10  22  40  68 110 140 189 240 294 371 435
#     4  10  20  39  68 100 144 187 230 297 368 422
#     4  12  25  49  69 103 141 190 245 294 368 419
#     4  12  27  47  74 103 140 193 245 303 351 435
#     4  10  21  41  67 102 145 184 236 298 361 428
#     4  11  23  42  67 100 145 188 234 302 355 428
#
# _framework density 24.149452
#
# number of rings (size 3 to 8) (size 9 to 14) (size 15 to 20)
#    0.000    1.143    4.286    1.714    0.000    4.000 
#    5.143    0.000    0.000    0.000    0.000    0.000 
#    0.000    0.000    0.000    0.000    0.000    0.000 
#
# Total GULP energy -156260.163927 kJ/mol
# GULP energy per Si atom -5580.720140 kJ/mol
# Density = 2.409449 g / cm^3
# Si number density = 24.149452 Si / 1000 Ang^3
#
#
#
# Elastic Constant Matrix: (Units=GPa)
#
#
# Indices 1 2 3 4 5 6 
#
# 1 135.9440 43.3590 31.9047 0.0075 33.0048 -0.0101
# 2 43.3590 93.4325 18.0337 -0.0025 19.0644 0.0103
# 3 31.9047 18.0337 45.9069 -0.0139 -1.5113 0.0307
# 4 0.0075 -0.0025 -0.0139 21.6609 0.0069 8.9744
# 5 33.0048 19.0644 -1.5113 0.0069 42.8188 0.0047
# 6 -0.0101 0.0103 0.0307 8.9744 0.0047 26.0799
#
#
#
# Elastic Compliance Matrix: (Units=1/GPa)
#
#
# Indices 1 2 3 4 5 6 
#
# 1 0.011951 -0.002345 -0.007662 -0.000015 -0.008438 0.000021
# 2 -0.002345 0.013395 -0.003773 0.000002 -0.004289 -0.000002
# 3 -0.007662 -0.003773 0.028874 0.000039 0.008605 -0.000050
# 4 -0.000015 0.000002 0.000039 0.053843 0.000006 -0.018528
# 5 -0.008438 -0.004289 0.008605 0.000006 0.032072 -0.000020
# 6 0.000021 -0.000002 -0.000050 -0.018528 -0.000020 0.044719
#
#
# Mechanical properties :
#
#
# Convention : Reuss Voigt Hill
#
# Bulk Modulus (GPa) = 37.51189 51.31979 44.41584
# Shear Modulus (GPa) = 22.59376 30.24432 26.41904
#
# Velocity S-wave (km/s) = 3.06204 3.54274 3.31113
# Velocity P-wave (km/s) = 5.29797 6.16699 5.74892
#
# Compressibility (1/GPa) = 0.02665821
#
# Stress axis : x y z
#
# Youngs Moduli (GPa) = 83.67628 74.65599 34.63355
#
# Poissons Ratio (x) = 0.17510 0.26537
# Poissons Ratio (y) = 0.19626 0.13067
# Poissons Ratio (z) = 0.64114 0.28168
#
# Static dielectric constant tensor:
#      x y z
#    x 1.959980 -0.000020 0.005100 
#    y -0.000020 1.920140 0.000020 
#    z 0.005100 0.000020 2.149210 
# 
# From -- ./inp_files/174724.got.cif
#   From: 2010.05.17/outbox.cif.g08.bks.cpg/sg15_88_cif.got.tgz:174724.got - 2010.06.03 18:47:42.
