data_PCOD9276221
_publ_section_title
;
Structure prediction by ZEFSAII (Michael W. Deem and Ramdas Pophale) SiO2 
 PCOD9276221
Probable space group: C 2/C
;
_chemical_formula_sum "Si O2"
_cell_formula_units_Z 56
_cell_length_a 8.972808
_cell_length_b 31.649529
_cell_length_c 12.731271
_cell_angle_alpha 90.000000
_cell_angle_beta 49.908195
_cell_angle_gamma 90.000000
_cell_volume 2765.900166
_symmetry_space_group_name_H-M "C 2/C"
_symmetry_group_IT_number 15
_symmetry_cell_setting 'monoclinic'
loop_
_space_group_symop_operation_xyz
x,y,z
-x,y,1/2-z
-x,-y,-z
x,-y,1/2+z
1/2+x,1/2+y,z
1/2-x,1/2+y,1/2-z
1/2-x,1/2-y,-z
1/2+x,1/2-y,1/2+z
loop_
_atom_site_type_symbol
_atom_site_label
_atom_site_fract_x
_atom_site_fract_y
_atom_site_fract_z
Si Si1 0.490201 0.287350 0.880761
Si Si2 0.665172 0.549911 0.584509
Si Si3 0.304214 0.146458 0.271004
Si Si4 0.402017 0.440213 0.625859
Si Si5 0.796231 0.537929 0.071938
Si Si6 0.045916 0.384820 0.469143
Si Si7 0.942462 0.692970 0.895494
O O1 0.500000 0.286287 0.750000
O O2 0.682249 0.310919 0.832517
O O3 0.475988 0.239462 0.930629
O O4 0.291265 0.312627 0.994927
O O5 0.500000 0.545460 0.750000
O O6 0.596019 0.544015 0.495576
O O7 0.815504 0.511287 0.535225
O O8 0.769518 0.595198 0.554458
O O9 0.500000 0.146358 0.250000
O O10 0.156259 0.108546 0.361404
O O11 0.385671 0.135225 0.119337
O O12 0.244506 0.457808 0.783314
O O13 0.601778 0.448347 0.596128
O O14 0.950788 0.572837 0.964878
O O15 0.070635 0.345680 0.380860
O O16 0.000000 0.697349 0.750000
#
# Coordination Sequence:
#
# PCOD9276221 Si02
#       7
#     8   8   8   8   8   8   8
#     4  10  20  39  73  92 125 170 213 266 309 388
#     4  12  24  40  59  90 133 167 203 271 337 380
#     4  11  21  39  65  94 122 165 214 260 312 380
#     4  10  21  39  62  91 118 163 217 259 309 386
#     4  10  22  39  66  86 116 170 221 265 311 382
#     4  11  23  41  61  92 125 162 213 265 317 385
#     4  10  22  41  65 102 129 159 215 268 326 377
#
# _framework density 20.246573000000001
#
# number of rings (size 3 to 8) (size 9 to 14) (size 15 to 20)
#    0.000    1.429    4.286    1.714    2.000    2.286 
#    0.000    1.429    0.000    0.000    0.000    0.000 
#    0.000    0.000    0.000    0.000    0.000    0.000 
#
# Total GULP energy -156006.442256 kJ/mol
# GULP energy per Si atom -5571.658652 kJ/mol
# Density = 2.020049 g / cm^3
# Si number density = 20.246573 Si / 1000 Ang^3
#
#
#
# Elastic Constant Matrix: (Units=GPa)
#
#
# Indices 1 2 3 4 5 6 
#
# 1 62.7720 49.3822 17.2916 0.0000 7.4072 0.0000
# 2 49.3822 106.5096 6.0215 0.0000 4.5026 0.0000
# 3 17.2916 6.0215 69.4800 0.0000 13.7708 0.0000
# 4 0.0000 0.0000 0.0000 28.0498 0.0000 5.4923
# 5 7.4072 4.5026 13.7708 0.0000 28.2226 0.0000
# 6 0.0000 0.0000 0.0000 5.4923 0.0000 50.7573
#
#
#
# Elastic Compliance Matrix: (Units=1/GPa)
#
#
# Indices 1 2 3 4 5 6 
#
# 1 0.027328 -0.012263 -0.005208 0.000000 -0.002675 0.000000
# 2 -0.012263 0.014976 0.001760 0.000000 -0.000029 0.000000
# 3 -0.005208 0.001760 0.016961 0.000000 -0.007190 0.000000
# 4 0.000000 0.000000 0.000000 0.036423 0.000000 -0.003941
# 5 -0.002675 -0.000029 -0.007190 0.000000 0.039647 0.000000
# 6 0.000000 0.000000 0.000000 -0.003941 0.000000 0.020128
#
#
# Mechanical properties :
#
#
# Convention : Reuss Voigt Hill
#
# Bulk Modulus (GPa) = 35.91591 42.68359 39.29975
# Shear Modulus (GPa) = 25.48842 32.47703 28.98273
#
# Velocity S-wave (km/s) = 3.55195 4.00944 3.78761
# Velocity P-wave (km/s) = 5.88214 6.52394 6.21133
#
# Compressibility (1/GPa) = 0.02784282
#
# Stress axis : x y z
#
# Youngs Moduli (GPa) = 36.59232 66.77271 58.95765
#
# Poissons Ratio (x) = 0.81883 0.30707
# Poissons Ratio (y) = 0.44873 -0.10375
# Poissons Ratio (z) = 0.19058 -0.11751
#
# Static dielectric constant tensor:
#      x y z
#    x 1.748800 0.000000 -0.011030 
#    y 0.000000 1.783490 0.000000 
#    z -0.011030 0.000000 1.747120 
# 
# From -- ./inp_files/82458.got.cif
#   From: 2010.05.17/outbox.cif.g08.bks.cpg/sg15_42_cif.got.tgz:82458.got - 2010.06.03 18:47:42.
