data_PCOD9276376
_publ_section_title
;
Structure prediction by ZEFSAII (Michael W. Deem and Ramdas Pophale) SiO2 
 PCOD9276376
Probable space group: C 2/C
;
_chemical_formula_sum "Si O2"
_cell_formula_units_Z 56
_cell_length_a 11.221347
_cell_length_b 24.862580
_cell_length_c 14.759671
_cell_angle_alpha 90.000000
_cell_angle_beta 138.231438
_cell_angle_gamma 90.000000
_cell_volume 2742.979155
_symmetry_space_group_name_H-M "C 2/C"
_symmetry_group_IT_number 15
_symmetry_cell_setting 'monoclinic'
loop_
_space_group_symop_operation_xyz
x,y,z
-x,y,1/2-z
-x,-y,-z
x,-y,1/2+z
1/2+x,1/2+y,z
1/2-x,1/2+y,1/2-z
1/2-x,1/2-y,-z
1/2+x,1/2-y,1/2+z
loop_
_atom_site_type_symbol
_atom_site_label
_atom_site_fract_x
_atom_site_fract_y
_atom_site_fract_z
Si Si1 0.000000 0.076926 0.750000
Si Si2 0.298562 0.778027 0.621100
Si Si3 0.597468 0.912008 0.566100
Si Si4 0.283261 0.020952 0.788991
Si Si5 0.566421 0.263623 0.665746
Si Si6 0.171282 0.612764 0.450718
Si Si7 0.241201 0.313908 0.551711
Si Si8 0.000000 0.514130 0.250000
O O1 0.099294 0.043990 0.725460
O O2 0.844566 0.109581 0.612033
O O3 0.500000 0.760670 0.750000
O O4 0.250000 0.750000 0.500000
O O5 0.176636 0.763165 0.636441
O O6 0.296997 0.842418 0.605931
O O7 0.437652 0.944360 0.426540
O O8 0.499506 0.873511 0.583388
O O9 0.708371 0.874203 0.563967
O O10 0.709992 0.958588 0.677373
O O11 0.356505 0.019353 0.727482
O O12 0.410145 0.308710 0.581100
O O13 0.694407 0.277935 0.823916
O O14 0.440744 0.210322 0.593933
O O15 0.115981 0.554509 0.379400
#
# Coordination Sequence:
#
# PCOD9276376 Si02
#       8
#     4   8   8   8   8   8   8   4
#     4  10  22  40  57  88 120 157 194 258 290 366
#     4  12  24  39  61  92 121 159 203 247 295 369
#     4   9  18  39  62  80 115 170 195 233 309 375
#     4   9  20  37  60  88 116 153 212 242 307 368
#     4  10  22  39  60  91 121 157 203 247 301 361
#     4  10  21  38  60  82 122 158 191 241 312 345
#     4  10  21  41  63  86 125 159 198 254 304 363
#     4  10  20  40  61  84 118 157 190 256 304 360
#
# _framework density 20.415759000000001
#
# number of rings (size 3 to 8) (size 9 to 14) (size 15 to 20)
#    0.000    2.000    0.714    3.429    3.000    1.714 
#    7.714    1.429    0.000    0.000    0.000    0.000 
#    0.000    0.000    0.000    0.000    0.000    0.000 
#
# Total GULP energy -156070.214129 kJ/mol
# GULP energy per Si atom -5573.936219 kJ/mol
# Density = 2.036929 g / cm^3
# Si number density = 20.415759 Si / 1000 Ang^3
#
#
#
# Elastic Constant Matrix: (Units=GPa)
#
#
# Indices 1 2 3 4 5 6 
#
# 1 146.6166 18.2247 13.1258 0.0000 5.3422 0.0000
# 2 18.2247 38.4817 5.7779 0.0000 3.7255 0.0000
# 3 13.1258 5.7779 84.7021 0.0000 4.6737 0.0000
# 4 0.0000 0.0000 0.0000 11.7668 0.0000 -6.4859
# 5 5.3422 3.7255 4.6737 0.0000 22.3195 0.0000
# 6 0.0000 0.0000 0.0000 -6.4859 0.0000 23.8544
#
#
#
# Elastic Compliance Matrix: (Units=1/GPa)
#
#
# Indices 1 2 3 4 5 6 
#
# 1 0.007339 -0.003246 -0.000859 0.000000 -0.001035 0.000000
# 2 -0.003246 0.028059 -0.001209 0.000000 -0.003653 0.000000
# 3 -0.000859 -0.001209 0.012139 0.000000 -0.002135 0.000000
# 4 0.000000 0.000000 0.000000 0.099966 0.000000 0.027180
# 5 -0.001035 -0.003653 -0.002135 0.000000 0.046108 0.000000
# 6 0.000000 0.000000 0.000000 0.027180 0.000000 0.049311
#
#
# Mechanical properties :
#
#
# Convention : Reuss Voigt Hill
#
# Bulk Modulus (GPa) = 27.09422 38.22858 32.66140
# Shear Modulus (GPa) = 18.80727 27.09961 22.95344
#
# Velocity S-wave (km/s) = 3.03844 3.64728 3.35670
# Velocity P-wave (km/s) = 5.06059 6.04174 5.57280
#
# Compressibility (1/GPa) = 0.03690824
#
# Stress axis : x y z
#
# Youngs Moduli (GPa) = 136.26536 35.63902 82.37620
#
# Poissons Ratio (x) = 0.11570 0.07073
# Poissons Ratio (y) = 0.44237 0.09962
# Poissons Ratio (z) = 0.11701 0.04310
#
# Static dielectric constant tensor:
#      x y z
#    x 1.763100 0.000000 -0.010690 
#    y 0.000000 1.728250 0.000000 
#    z -0.010690 0.000000 1.575670 
# 
# From -- ./inp_files/148600.got.cif
#   From: 2010.05.17/outbox.cif.g08.bks.cpg/sg15_75_cif.got.tgz:148600.got - 2010.06.03 18:47:42.
