data_PCOD9276011
_publ_section_title
;
Structure prediction by ZEFSAII (Michael W. Deem and Ramdas Pophale) SiO2 
 PCOD9276011
Probable space group: C 2/C
;
_chemical_formula_sum "Si O2"
_cell_formula_units_Z 60
_cell_length_a 4.948118
_cell_length_b 28.137594
_cell_length_c 18.997466
_cell_angle_alpha 90.000000
_cell_angle_beta 100.455165
_cell_angle_gamma 90.000000
_cell_volume 2601.067688
_symmetry_space_group_name_H-M "C 2/C"
_symmetry_group_IT_number 15
_symmetry_cell_setting 'monoclinic'
loop_
_space_group_symop_operation_xyz
x,y,z
-x,y,1/2-z
-x,-y,-z
x,-y,1/2+z
1/2+x,1/2+y,z
1/2-x,1/2+y,1/2-z
1/2-x,1/2-y,-z
1/2+x,1/2-y,1/2+z
loop_
_atom_site_type_symbol
_atom_site_label
_atom_site_fract_x
_atom_site_fract_y
_atom_site_fract_z
Si Si1 0.260664 0.673615 0.587435
Si Si2 0.071469 0.964586 0.336701
Si Si3 0.337373 0.124136 0.063061
Si Si4 0.099090 0.934030 0.895728
Si Si5 0.000000 0.116328 0.250000
Si Si6 0.216813 0.734195 0.917611
Si Si7 0.554262 0.808044 0.680536
Si Si8 0.056783 0.403820 0.334289
O O1 0.578527 0.689766 0.592714
O O2 0.115091 0.636348 0.632959
O O3 0.156608 0.654682 0.507242
O O4 0.102253 0.721315 0.602311
O O5 0.874169 0.921049 0.353107
O O6 0.000000 0.973962 0.250000
O O7 0.388886 0.950379 0.348841
O O8 0.061795 0.009849 0.387105
O O9 0.071651 0.090971 0.051023
O O10 0.327014 0.162939 0.125605
O O11 0.597581 0.088988 0.085258
O O12 0.961373 0.916062 0.816257
O O13 0.249104 0.150571 0.280796
O O14 0.293032 0.775903 0.868612
O O15 0.250000 0.750000 0.000000
O O16 0.500000 0.779589 0.750000
O O17 0.000000 0.393608 0.250000
#
# Coordination Sequence:
#
# PCOD9276011 Si02
#       8
#     8   8   8   8   4   8   8   8
#     4  12  26  47  67  93 130 177 227 270 327 400
#     4  10  20  39  66  99 132 170 219 270 330 389
#     4  11  24  39  63  93 135 173 208 260 335 392
#     4  11  21  38  63 101 129 173 209 262 326 403
#     4  10  22  36  62  92 138 154 210 260 334 386
#     4  12  27  43  70  93 129 171 226 270 334 401
#     4  11  24  40  64  96 135 165 211 275 333 392
#     4  10  23  43  69  92 129 174 224 280 322 377
#
# _framework density 23.067450999999998
#
# number of rings (size 3 to 8) (size 9 to 14) (size 15 to 20)
#    0.000    1.067    3.333    2.800    3.733    1.067 
#    0.000    4.000    0.000    0.000    0.000    0.000 
#    0.000    0.000    0.000    0.000    0.000    0.000 
#
# Total GULP energy -167395.114088 kJ/mol
# GULP energy per Si atom -5579.837136 kJ/mol
# Density = 2.301495 g / cm^3
# Si number density = 23.067451 Si / 1000 Ang^3
#
#
#
# Elastic Constant Matrix: (Units=GPa)
#
#
# Indices 1 2 3 4 5 6 
#
# 1 102.6103 13.0092 16.2207 0.0000 -19.1528 0.0000
# 2 13.0092 47.2704 21.3559 0.0000 -16.0267 0.0000
# 3 16.2207 21.3559 91.1356 0.0000 -31.4959 0.0000
# 4 0.0000 0.0000 0.0000 12.7790 0.0000 -32.1456
# 5 -19.1528 -16.0267 -31.4959 0.0000 26.4665 0.0000
# 6 0.0000 0.0000 0.0000 -32.1456 0.0000 -4.0199
#
#
#
# Elastic Compliance Matrix: (Units=1/GPa)
#
#
# Indices 1 2 3 4 5 6 
#
# 1 0.011381 -0.000514 0.001416 0.000000 0.009609 0.000000
# 2 -0.000514 0.026712 -0.001200 0.000000 0.014376 0.000000
# 3 0.001416 -0.001200 0.018862 0.000000 0.022745 0.000000
# 4 0.000000 0.000000 0.000000 0.003706 0.000000 -0.029635
# 5 0.009609 0.014376 0.022745 0.000000 0.080510 0.000000
# 6 0.000000 0.000000 0.000000 -0.029635 0.000000 -0.011781
#
#
# Mechanical properties :
#
#
# Convention : Reuss Voigt Hill
#
# Bulk Modulus (GPa) = 17.74313 38.02087 27.88200
# Shear Modulus (GPa) = 33.60850 19.74048 26.67449
#
# Velocity S-wave (km/s) = 3.82116 2.92853 3.40423
# Velocity P-wave (km/s) = 5.21315 5.28709 5.25025
#
# Compressibility (1/GPa) = 0.05635985
#
# Stress axis : x y z
#
# Youngs Moduli (GPa) = 87.86893 37.43580 53.01597
#
# Poissons Ratio (x) = 0.01923 -0.07506
# Poissons Ratio (y) = 0.04513 0.06361
# Poissons Ratio (z) = -0.12440 0.04492
#
# Static dielectric constant tensor:
#      x y z
#    x 1.881430 0.000000 -0.038420 
#    y 0.000000 1.886840 0.000000 
#    z -0.038420 0.000000 1.913270 
# 
# From -- ./inp_files/228153.got.cif
#   From: 2010.05.17/outbox.cif.g08.bks.cpg/sg15_115_cif.got.tgz:228153.got - 2010.06.03 18:47:42.
