data_PCOD9276307
_publ_section_title
;
Structure prediction by ZEFSAII (Michael W. Deem and Ramdas Pophale) SiO2 
 PCOD9276307
Probable space group: C 2/C
;
_chemical_formula_sum "Si O2"
_cell_formula_units_Z 40
_cell_length_a 16.830201
_cell_length_b 14.216375
_cell_length_c 17.483632
_cell_angle_alpha 90.000000
_cell_angle_beta 24.145614
_cell_angle_gamma 90.000000
_cell_volume 1711.172191
_symmetry_space_group_name_H-M "C 2/C"
_symmetry_group_IT_number 15
_symmetry_cell_setting 'monoclinic'
loop_
_space_group_symop_operation_xyz
x,y,z
-x,y,1/2-z
-x,-y,-z
x,-y,1/2+z
1/2+x,1/2+y,z
1/2-x,1/2+y,1/2-z
1/2-x,1/2-y,-z
1/2+x,1/2-y,1/2+z
loop_
_atom_site_type_symbol
_atom_site_label
_atom_site_fract_x
_atom_site_fract_y
_atom_site_fract_z
Si Si1 0.488884 0.102019 0.967480
Si Si2 0.916389 0.082055 0.626608
Si Si3 0.320938 0.468563 0.865339
Si Si4 0.299270 0.837318 0.010241
Si Si5 0.304267 0.800548 0.773017
O O1 0.718521 0.122409 0.759902
O O2 0.374164 0.172516 0.125679
O O3 0.500000 0.000000 0.000000
O O4 0.366762 0.089930 0.996815
O O5 0.882320 0.020409 0.733056
O O6 0.093497 0.156126 0.472222
O O7 0.000000 0.000000 0.500000
O O8 0.500000 0.418860 0.750000
O O9 0.273490 0.563012 0.955565
O O10 0.211524 0.801158 0.169476
O O11 0.250000 0.750000 0.000000
O O12 0.526144 0.849123 0.826567
#
# Coordination Sequence:
#
# PCOD9276307 Si02
#       5
#     8   8   8   8   8
#     4  10  20  40  60  83 115 166 222 259 290 368
#     4  11  19  37  62  81 115 164 216 256 297 360
#     4  11  21  39  59  90 131 163 202 260 312 369
#     4  12  24  37  57  95 137 172 198 242 321 394
#     4  12  22  38  60  82 126 171 209 250 297 372
#
# _framework density 23.375789999999999
#
# number of rings (size 3 to 8) (size 9 to 14) (size 15 to 20)
#    0.000    0.800    8.000    4.200    0.000    0.000 
#    0.000    1.000    0.000    0.000    0.000    1.400 
#    0.000    0.200    0.000    0.000    0.000    0.000 
#
# Total GULP energy -111519.329446 kJ/mol
# GULP energy per Si atom -5575.966472 kJ/mol
# Density = 2.332259 g / cm^3
# Si number density = 23.375790 Si / 1000 Ang^3
#
#
#
# Elastic Constant Matrix: (Units=GPa)
#
#
# Indices 1 2 3 4 5 6 
#
# 1 154.1893 17.4276 43.0548 -0.0027 -55.8532 -0.0012
# 2 17.4276 43.3991 12.4794 -0.0259 -1.3047 0.0106
# 3 43.0548 12.4794 142.1939 -0.0033 -40.5666 0.0026
# 4 -0.0027 -0.0259 -0.0033 28.7105 0.0066 -2.5684
# 5 -55.8532 -1.3047 -40.5666 0.0066 51.5791 -0.0022
# 6 -0.0012 0.0106 0.0026 -2.5684 -0.0022 38.1717
#
#
#
# Elastic Compliance Matrix: (Units=1/GPa)
#
#
# Indices 1 2 3 4 5 6 
#
# 1 0.011422 -0.004362 0.000543 -0.000006 0.012685 0.000002
# 2 -0.004362 0.025375 -0.002670 0.000023 -0.006181 -0.000006
# 3 0.000543 -0.002670 0.009349 -0.000003 0.007874 0.000000
# 4 -0.000006 0.000023 -0.000003 0.035041 -0.000012 0.002358
# 5 0.012685 -0.006181 0.007874 -0.000012 0.039160 0.000003
# 6 0.000002 -0.000006 0.000000 0.002358 0.000003 0.026356
#
#
# Mechanical properties :
#
#
# Convention : Reuss Voigt Hill
#
# Bulk Modulus (GPa) = 30.14762 53.96733 42.05748
# Shear Modulus (GPa) = 29.28493 41.48031 35.38262
#
# Velocity S-wave (km/s) = 3.54332 4.21705 3.89478
# Velocity P-wave (km/s) = 5.44656 6.84458 6.18520
#
# Compressibility (1/GPa) = 0.03317011
#
# Stress axis : x y z
#
# Youngs Moduli (GPa) = 87.55093 39.40843 106.96703
#
# Poissons Ratio (x) = 0.17188 -0.05813
# Poissons Ratio (y) = 0.38186 0.28557
# Poissons Ratio (z) = -0.04757 0.10521
#
# Static dielectric constant tensor:
#      x y z
#    x 2.014470 0.000000 0.176910 
#    y 0.000000 2.045660 0.000010 
#    z 0.176910 0.000010 2.253530 
# 
# From -- ./inp_files/155358.got.cif
#   From: 2010.05.17/outbox.cif.g08.bks.cpg/sg15_78_cif.got.tgz:155358.got - 2010.06.03 18:47:42.
