data_PCOD9276533
_publ_section_title
;
Structure prediction by ZEFSAII (Michael W. Deem and Ramdas Pophale) SiO2 
 PCOD9276533
Probable space group: C 2/C
;
_chemical_formula_sum "Si O2"
_cell_formula_units_Z 44
_cell_length_a 9.058459
_cell_length_b 27.081381
_cell_length_c 16.267350
_cell_angle_alpha 90.000000
_cell_angle_beta 29.257039
_cell_angle_gamma 90.000000
_cell_volume 1950.336470
_symmetry_space_group_name_H-M "C 2/C"
_symmetry_group_IT_number 15
_symmetry_cell_setting 'monoclinic'
loop_
_space_group_symop_operation_xyz
x,y,z
-x,y,1/2-z
-x,-y,-z
x,-y,1/2+z
1/2+x,1/2+y,z
1/2-x,1/2+y,1/2-z
1/2-x,1/2-y,-z
1/2+x,1/2-y,1/2+z
loop_
_atom_site_type_symbol
_atom_site_label
_atom_site_fract_x
_atom_site_fract_y
_atom_site_fract_z
Si Si1 0.734625 0.841480 0.324089
Si Si2 0.840431 0.553376 0.412621
Si Si3 0.727174 0.107230 0.560034
Si Si4 0.350334 0.661184 0.026554
Si Si5 0.577710 0.484313 0.807255
Si Si6 0.000000 0.748636 0.250000
O O1 0.446274 0.872046 0.436495
O O2 0.724619 0.786808 0.368162
O O3 0.000000 0.867368 0.250000
O O4 0.881531 0.829557 0.165566
O O5 0.822359 0.612077 0.418342
O O6 0.513127 0.532774 0.596170
O O7 0.000000 0.537469 0.250000
O O8 0.073447 0.530781 0.363089
O O9 0.500000 0.099282 0.750000
O O10 0.896496 0.058306 0.445715
O O11 0.983786 0.145324 0.469167
O O12 0.133439 0.707895 0.123867
O O13 0.500000 0.489849 0.750000
#
# Coordination Sequence:
#
# PCOD9276533 Si02
#       6
#     8   8   8   8   8   4
#     4   9  23  37  65  94 130 167 217 276 328 378
#     4  12  25  44  67  96 129 185 217 271 322 399
#     4  10  22  43  65  97 129 180 219 268 323 402
#     4  11  21  41  67  89 132 170 223 261 329 395
#     4  12  27  42  65 100 138 169 224 273 329 384
#     4  10  20  40  62  98 124 174 216 272 328 392
#
# _framework density 22.560210000000001
#
# number of rings (size 3 to 8) (size 9 to 14) (size 15 to 20)
#    0.545    0.727    2.727    2.182    7.636    1.455 
#    0.000    0.000    0.000    0.000    0.000    0.000 
#    0.000    0.000    0.000    0.000    0.000    0.000 
#
# Total GULP energy -122517.266562 kJ/mol
# GULP energy per Si atom -5568.966662 kJ/mol
# Density = 2.250886 g / cm^3
# Si number density = 22.560210 Si / 1000 Ang^3
#
#
#
# Elastic Constant Matrix: (Units=GPa)
#
#
# Indices 1 2 3 4 5 6 
#
# 1 95.4696 31.6831 1.1590 0.0000 -4.6333 0.0000
# 2 31.6831 87.9173 23.2005 0.0000 -3.7753 0.0000
# 3 1.1590 23.2005 51.1217 0.0001 -7.3636 0.0000
# 4 0.0000 0.0000 0.0001 11.5277 0.0000 -5.3896
# 5 -4.6333 -3.7753 -7.3636 0.0000 30.1509 0.0000
# 6 0.0000 0.0000 0.0000 -5.3896 0.0000 23.2003
#
#
#
# Elastic Compliance Matrix: (Units=1/GPa)
#
#
# Indices 1 2 3 4 5 6 
#
# 1 0.012156 -0.004884 0.002199 0.000000 0.001794 0.000000
# 2 -0.004884 0.014885 -0.006721 0.000000 -0.000528 0.000000
# 3 0.002199 -0.006721 0.023309 0.000000 0.005189 0.000000
# 4 0.000000 0.000000 0.000000 0.097317 0.000000 0.022607
# 5 0.001794 -0.000528 0.005189 0.000000 0.034643 0.000000
# 6 0.000000 0.000000 0.000000 0.022607 0.000000 0.048355
#
#
# Mechanical properties :
#
#
# Convention : Reuss Voigt Hill
#
# Bulk Modulus (GPa) = 31.70687 38.51041 35.10864
# Shear Modulus (GPa) = 19.23160 24.87351 22.05255
#
# Velocity S-wave (km/s) = 2.92285 3.32405 3.12989
# Velocity P-wave (km/s) = 5.04734 5.64265 5.35328
#
# Compressibility (1/GPa) = 0.03153891
#
# Stress axis : x y z
#
# Youngs Moduli (GPa) = 82.26605 67.18083 42.90236
#
# Poissons Ratio (x) = 0.32811 -0.09435
# Poissons Ratio (y) = 0.40178 0.28833
# Poissons Ratio (z) = -0.18092 0.45150
#
# Static dielectric constant tensor:
#      x y z
#    x 1.972170 0.000000 -0.090470 
#    y 0.000000 1.837590 0.000000 
#    z -0.090470 0.000000 1.969000 
# 
# From -- ./inp_files/194046.got.cif
#   From: 2010.05.17/outbox.cif.g08.bks.cpg/sg15_98_cif.got.tgz:194046.got - 2010.06.03 18:47:42.
