data_PCOD9276834
_publ_section_title
;
Structure prediction by ZEFSAII (Michael W. Deem and Ramdas Pophale) SiO2 
 PCOD9276834
Probable space group: C 2/C
;
_chemical_formula_sum "Si O2"
_cell_formula_units_Z 60
_cell_length_a 7.542403
_cell_length_b 16.577836
_cell_length_c 25.151975
_cell_angle_alpha 90.000000
_cell_angle_beta 101.932073
_cell_angle_gamma 90.000000
_cell_volume 3076.969426
_symmetry_space_group_name_H-M "C 2/C"
_symmetry_group_IT_number 15
_symmetry_cell_setting 'monoclinic'
loop_
_space_group_symop_operation_xyz
x,y,z
-x,y,1/2-z
-x,-y,-z
x,-y,1/2+z
1/2+x,1/2+y,z
1/2-x,1/2+y,1/2-z
1/2-x,1/2-y,-z
1/2+x,1/2-y,1/2+z
loop_
_atom_site_type_symbol
_atom_site_label
_atom_site_fract_x
_atom_site_fract_y
_atom_site_fract_z
Si Si1 0.131684 0.397546 0.209302
Si Si2 0.471937 0.122849 0.531210
Si Si3 0.390674 0.758581 0.373397
Si Si4 0.065675 0.921759 0.974520
Si Si5 0.709378 0.153913 0.442895
Si Si6 0.027780 0.519541 0.112527
Si Si7 0.404955 0.597184 0.143407
Si Si8 0.500000 0.492029 0.250000
O O1 0.170885 0.318468 0.176710
O O2 0.032646 0.461272 0.163591
O O3 0.319253 0.438160 0.238965
O O4 0.000000 0.379660 0.250000
O O5 0.489264 0.188993 0.578375
O O6 0.579136 0.153985 0.485878
O O7 0.734578 0.894490 0.497168
O O8 0.552333 0.040137 0.562835
O O9 0.226296 0.722733 0.399128
O O10 0.510705 0.686164 0.356471
O O11 0.055479 0.940348 0.911524
O O12 0.914887 0.854095 0.976267
O O13 0.000000 0.000000 0.000000
O O14 0.649957 0.071750 0.409213
O O15 0.187929 0.584558 0.132139
O O16 0.488909 0.548360 0.197296
#
# Coordination Sequence:
#
# PCOD9276834 Si02
#       8
#     8   8   8   8   8   8   8   4
#     4  10  24  45  66  89 120 164 210 272 323 370
#     4  11  21  41  62  92 139 172 204 262 309 385
#     4  10  25  41  60  97 132 165 211 256 332 385
#     4  11  21  34  64  97 128 168 215 255 319 377
#     4  11  21  37  61  93 132 169 209 253 308 388
#     4  10  20  40  65  93 122 166 218 251 309 378
#     4  10  22  40  64  92 125 162 211 263 315 373
#     4  10  24  46  70  88 116 164 224 266 310 386
#
# _framework density 19.499707999999998
#
# number of rings (size 3 to 8) (size 9 to 14) (size 15 to 20)
#    0.000    1.600    2.667    1.600    4.667    2.133 
#    4.800    0.000    0.000    0.000    0.000    0.000 
#    0.000    0.000    0.000    0.000    0.000    0.000 
#
# Total GULP energy -167356.530373 kJ/mol
# GULP energy per Si atom -5578.551012 kJ/mol
# Density = 1.945533 g / cm^3
# Si number density = 19.499708 Si / 1000 Ang^3
#
#
#
# Elastic Constant Matrix: (Units=GPa)
#
#
# Indices 1 2 3 4 5 6 
#
# 1 119.2678 50.9451 65.6250 0.0000 2.5012 0.0000
# 2 50.9451 102.3222 63.6163 0.0000 5.1913 0.0000
# 3 65.6250 63.6163 113.4565 0.0000 5.7926 0.0000
# 4 0.0000 0.0000 0.0000 28.1422 0.0000 -5.5078
# 5 2.5012 5.1913 5.7926 0.0000 26.9659 0.0000
# 6 0.0000 0.0000 0.0000 -5.5078 0.0000 16.6015
#
#
#
# Elastic Compliance Matrix: (Units=1/GPa)
#
#
# Indices 1 2 3 4 5 6 
#
# 1 0.012780 -0.002731 -0.005892 0.000000 0.000606 0.000000
# 2 -0.002731 0.015619 -0.007116 0.000000 -0.001225 0.000000
# 3 -0.005892 -0.007116 0.016293 0.000000 -0.001583 0.000000
# 4 0.000000 0.000000 0.000000 0.038001 0.000000 0.012608
# 5 0.000606 -0.001225 -0.001583 0.000000 0.037604 0.000000
# 6 0.000000 0.000000 0.000000 0.012608 0.000000 0.064418
#
#
# Mechanical properties :
#
#
# Convention : Reuss Voigt Hill
#
# Bulk Modulus (GPa) = 75.67198 77.26880 76.47039
# Shear Modulus (GPa) = 22.66582 24.66593 23.66588
#
# Velocity S-wave (km/s) = 3.41305 3.56046 3.48753
# Velocity P-wave (km/s) = 7.37718 7.52423 7.45107
#
# Compressibility (1/GPa) = 0.01321493
#
# Stress axis : x y z
#
# Youngs Moduli (GPa) = 78.24611 64.02593 61.37713
#
# Poissons Ratio (x) = 0.17483 0.36164
# Poissons Ratio (y) = 0.21366 0.43674
# Poissons Ratio (z) = 0.46104 0.45558
#
# Static dielectric constant tensor:
#      x y z
#    x 1.704060 0.000000 -0.010050 
#    y 0.000000 1.715370 0.000000 
#    z -0.010050 0.000000 1.692630 
# 
# From -- ./inp_files/288449.got.cif
#   From: 2010.05.17/outbox.cif.g08.bks.cpg/sg15_145_cif.got.tgz:288449.got - 2010.06.03 18:47:42.
