data_PCOD9276968
_publ_section_title
;
Structure prediction by ZEFSAII (Michael W. Deem and Ramdas Pophale) SiO2 
 PCOD9276968
Probable space group: C 2/C
;
_chemical_formula_sum "Si O2"
_cell_formula_units_Z 40
_cell_length_a 8.729569
_cell_length_b 21.559069
_cell_length_c 10.003246
_cell_angle_alpha 90.000000
_cell_angle_beta 62.400148
_cell_angle_gamma 90.000000
_cell_volume 1668.391006
_symmetry_space_group_name_H-M "C 2/C"
_symmetry_group_IT_number 15
_symmetry_cell_setting 'monoclinic'
loop_
_space_group_symop_operation_xyz
x,y,z
-x,y,1/2-z
-x,-y,-z
x,-y,1/2+z
1/2+x,1/2+y,z
1/2-x,1/2+y,1/2-z
1/2-x,1/2-y,-z
1/2+x,1/2-y,1/2+z
loop_
_atom_site_type_symbol
_atom_site_label
_atom_site_fract_x
_atom_site_fract_y
_atom_site_fract_z
Si Si1 0.742941 0.581622 0.841708
Si Si2 0.272842 0.916002 0.626796
Si Si3 0.500000 0.030056 0.250000
Si Si4 0.350391 0.199414 0.208790
Si Si5 0.000000 0.024932 0.750000
Si Si6 0.913393 0.302985 0.145986
O O1 0.557350 0.566636 0.852574
O O2 0.845911 0.626522 0.698528
O O3 0.839429 0.516477 0.828155
O O4 0.757303 0.610321 0.982934
O O5 0.452234 0.935366 0.629930
O O6 0.219375 0.858470 0.742583
O O7 0.157316 0.977380 0.666841
O O8 0.500000 0.182044 0.250000
O O9 0.253351 0.259555 0.300368
O O10 0.453571 0.207145 0.027907
O O11 0.000000 0.283465 0.250000
#
# Coordination Sequence:
#
# PCOD9276968 Si02
#       6
#     8   8   4   8   4   8
#     4  11  22  43  67 100 137 181 235 282 360 407
#     4  11  22  42  67  98 139 179 236 282 357 411
#     4  10  20  40  66  96 132 176 230 288 346 430
#     4  12  27  48  71 106 140 188 238 296 356 421
#     4  10  26  40  64 106 140 188 224 298 336 434
#     4  12  26  47  74 101 142 189 238 297 353 422
#
# _framework density 23.975193999999998
#
# number of rings (size 3 to 8) (size 9 to 14) (size 15 to 20)
#    0.000    0.800    4.000    2.400    2.800    1.600 
#    3.600    0.000    0.000    0.000    0.000    0.000 
#    0.000    0.000    0.000    0.000    0.000    0.000 
#
# Total GULP energy -111595.571236 kJ/mol
# GULP energy per Si atom -5579.778562 kJ/mol
# Density = 2.392063 g / cm^3
# Si number density = 23.975194 Si / 1000 Ang^3
#
#
#
# Elastic Constant Matrix: (Units=GPa)
#
#
# Indices 1 2 3 4 5 6 
#
# 1 127.6792 28.1543 28.4394 0.0000 37.8501 0.0000
# 2 28.1543 74.3722 11.6543 0.0000 2.6790 0.0000
# 3 28.4394 11.6543 61.2314 0.0000 19.4345 0.0000
# 4 0.0000 0.0000 0.0000 27.0895 0.0000 -25.1446
# 5 37.8501 2.6790 19.4345 0.0000 36.4197 0.0000
# 6 0.0000 0.0000 0.0000 -25.1446 0.0000 49.4519
#
#
#
# Elastic Compliance Matrix: (Units=1/GPa)
#
#
# Indices 1 2 3 4 5 6 
#
# 1 0.012625 -0.004151 -0.001211 0.000000 -0.012169 0.000000
# 2 -0.004151 0.015231 -0.002389 0.000000 0.004469 0.000000
# 3 -0.001211 -0.002389 0.020338 0.000000 -0.009418 0.000000
# 4 0.000000 0.000000 0.000000 0.069909 0.000000 0.035546
# 5 -0.012169 0.004469 -0.009418 0.000000 0.044802 0.000000
# 6 0.000000 0.000000 0.000000 0.035546 0.000000 0.038296
#
#
# Mechanical properties :
#
#
# Convention : Reuss Voigt Hill
#
# Bulk Modulus (GPa) = 30.58995 44.41989 37.50492
# Shear Modulus (GPa) = 21.96841 35.59454 28.78148
#
# Velocity S-wave (km/s) = 3.03032 3.85728 3.46854
# Velocity P-wave (km/s) = 5.00305 6.19724 5.63189
#
# Compressibility (1/GPa) = 0.03269047
#
# Stress axis : x y z
#
# Youngs Moduli (GPa) = 79.21013 65.65673 49.16867
#
# Poissons Ratio (x) = 0.27254 0.05956
# Poissons Ratio (y) = 0.32880 0.11748
# Poissons Ratio (z) = 0.09594 0.15687
#
# Static dielectric constant tensor:
#      x y z
#    x 1.930590 0.000000 -0.031060 
#    y 0.000000 1.947380 0.000000 
#    z -0.031060 0.000000 1.969340 
# 
# From -- ./inp_files/23532.got.cif
#   From: 2010.05.17/outbox.cif.g08.bks.cpg/sg15_12_cif.got.tgz:23532.got - 2010.06.03 18:47:42.
