data_PCOD9276627
_publ_section_title
;
Structure prediction by ZEFSAII (Michael W. Deem and Ramdas Pophale) SiO2 
 PCOD9276627
Probable space group: C 2/C
;
_chemical_formula_sum "Si O2"
_cell_formula_units_Z 60
_cell_length_a 11.922579
_cell_length_b 15.193209
_cell_length_c 17.085437
_cell_angle_alpha 90.000000
_cell_angle_beta 56.643583
_cell_angle_gamma 90.000000
_cell_volume 2585.061026
_symmetry_space_group_name_H-M "C 2/C"
_symmetry_group_IT_number 15
_symmetry_cell_setting 'monoclinic'
loop_
_space_group_symop_operation_xyz
x,y,z
-x,y,1/2-z
-x,-y,-z
x,-y,1/2+z
1/2+x,1/2+y,z
1/2-x,1/2+y,1/2-z
1/2-x,1/2-y,-z
1/2+x,1/2-y,1/2+z
loop_
_atom_site_type_symbol
_atom_site_label
_atom_site_fract_x
_atom_site_fract_y
_atom_site_fract_z
Si Si1 0.610157 0.089349 0.773520
Si Si2 0.189814 0.748663 0.792016
Si Si3 0.380823 0.111055 0.230245
Si Si4 0.409645 0.484864 0.910109
Si Si5 0.500000 0.343414 0.750000
Si Si6 0.969684 0.734753 0.441351
Si Si7 0.625133 0.398560 0.420157
Si Si8 0.299459 0.656997 0.883444
O O1 0.500000 0.082533 0.750000
O O2 0.578833 0.168545 0.844803
O O3 0.807310 0.190249 0.791497
O O4 0.636900 0.989784 0.789200
O O5 0.242206 0.841882 0.811112
O O6 0.243480 0.623959 0.678950
O O7 0.123875 0.787963 0.737744
O O8 0.500000 0.114842 0.250000
O O9 0.425760 0.168822 0.138640
O O10 0.452735 0.405669 0.838590
O O11 0.534855 0.536108 0.902037
O O12 0.329083 0.555649 0.889433
O O13 0.334606 0.446617 0.015104
O O14 0.846559 0.684852 0.528399
O O15 0.903152 0.788837 0.395904
O O16 0.040920 0.809314 0.466437
#
# Coordination Sequence:
#
# PCOD9276627 Si02
#       8
#     8   8   8   8   4   8   8   8
#     4  11  25  41  65  96 137 183 228 282 345 418
#     4  12  24  44  63  97 136 183 226 286 342 420
#     4  11  23  39  69  96 128 176 232 284 345 395
#     4  10  24  40  72 105 134 182 240 295 350 422
#     4  12  26  44  64 100 142 192 232 276 356 426
#     4  10  20  40  64 101 132 176 221 290 355 411
#     4  10  21  44  69 100 143 182 231 294 359 415
#     4  10  23  37  67  99 136 167 234 293 343 405
#
# _framework density 23.210283
#
# number of rings (size 3 to 8) (size 9 to 14) (size 15 to 20)
#    0.000    1.333    3.333    1.600    7.467    2.133 
#    0.000    2.667    0.000    0.000    0.000    0.000 
#    0.000    0.000    0.000    0.000    0.000    0.000 
#
# Total GULP energy -167024.096966 kJ/mol
# GULP energy per Si atom -5567.469899 kJ/mol
# Density = 2.315746 g / cm^3
# Si number density = 23.210283 Si / 1000 Ang^3
#
#
#
# Elastic Constant Matrix: (Units=GPa)
#
#
# Indices 1 2 3 4 5 6 
#
# 1 88.3484 49.1329 34.2316 0.0000 15.8272 0.0000
# 2 49.1329 178.7653 30.3570 0.0000 13.4732 0.0000
# 3 34.2316 30.3570 74.8704 0.0000 6.0355 0.0000
# 4 0.0000 0.0000 0.0000 15.4655 0.0000 11.4897
# 5 15.8272 13.4732 6.0355 0.0000 36.5117 0.0000
# 6 0.0000 0.0000 0.0000 11.4897 0.0000 24.4903
#
#
#
# Elastic Compliance Matrix: (Units=1/GPa)
#
#
# Indices 1 2 3 4 5 6 
#
# 1 0.016137 -0.003093 -0.005729 0.000000 -0.004907 0.000000
# 2 -0.003093 0.006725 -0.001237 0.000000 -0.000936 0.000000
# 3 -0.005729 -0.001237 0.016460 0.000000 0.000219 0.000000
# 4 0.000000 0.000000 0.000000 0.099255 0.000000 -0.046566
# 5 -0.004907 -0.000936 0.000219 0.000000 0.029825 0.000000
# 6 0.000000 0.000000 0.000000 -0.046566 0.000000 0.062679
#
#
# Mechanical properties :
#
#
# Convention : Reuss Voigt Hill
#
# Bulk Modulus (GPa) = 52.07047 63.26968 57.67007
# Shear Modulus (GPa) = 19.40999 30.51102 24.96051
#
# Velocity S-wave (km/s) = 2.89497 3.62960 3.28290
# Velocity P-wave (km/s) = 5.80150 6.69954 6.26663
#
# Compressibility (1/GPa) = 0.01920474
#
# Stress axis : x y z
#
# Youngs Moduli (GPa) = 61.96759 148.70831 60.75494
#
# Poissons Ratio (x) = 0.45990 0.34805
# Poissons Ratio (y) = 0.19164 0.07516
# Poissons Ratio (z) = 0.35499 0.18396
#
# Static dielectric constant tensor:
#      x y z
#    x 1.871210 0.000000 -0.030550 
#    y 0.000000 1.948850 0.000000 
#    z -0.030550 0.000000 2.336100 
# 
# From -- ./inp_files/198312.got.cif
#   From: 2010.05.17/outbox.cif.g08.bks.cpg/sg15_100_cif.got.tgz:198312.got - 2010.06.03 18:47:42.
