data_PCOD9276780
_publ_section_title
;
Structure prediction by ZEFSAII (Michael W. Deem and Ramdas Pophale) SiO2 
 PCOD9276780
Probable space group: C 2/C
;
_chemical_formula_sum "Si O2"
_cell_formula_units_Z 60
_cell_length_a 8.605288
_cell_length_b 18.043279
_cell_length_c 21.970463
_cell_angle_alpha 90.000000
_cell_angle_beta 59.298297
_cell_angle_gamma 90.000000
_cell_volume 2933.163431
_symmetry_space_group_name_H-M "C 2/C"
_symmetry_group_IT_number 15
_symmetry_cell_setting 'monoclinic'
loop_
_space_group_symop_operation_xyz
x,y,z
-x,y,1/2-z
-x,-y,-z
x,-y,1/2+z
1/2+x,1/2+y,z
1/2-x,1/2+y,1/2-z
1/2-x,1/2-y,-z
1/2+x,1/2-y,1/2+z
loop_
_atom_site_type_symbol
_atom_site_label
_atom_site_fract_x
_atom_site_fract_y
_atom_site_fract_z
Si Si1 0.663394 0.098866 0.129723
Si Si2 0.759850 0.028788 0.929337
Si Si3 0.391450 0.555559 0.714884
Si Si4 0.276294 0.901002 0.739438
Si Si5 0.852050 0.173248 0.988482
Si Si6 0.741415 0.160650 0.639742
Si Si7 0.392796 0.048890 0.930858
Si Si8 0.500000 0.283119 0.750000
O O1 0.688180 0.096211 0.196116
O O2 0.452793 0.121907 0.165286
O O3 0.671864 0.017520 0.099655
O O4 0.808645 0.148397 0.065969
O O5 0.767557 0.106229 0.965201
O O6 0.594905 0.036535 0.915318
O O7 0.951621 0.021583 0.858961
O O8 0.723605 0.962343 0.984126
O O9 0.500000 0.592831 0.750000
O O10 0.282196 0.485463 0.763005
O O11 0.276056 0.609105 0.693547
O O12 0.126996 0.839213 0.760648
O O13 0.059824 0.178453 0.926659
O O14 0.750000 0.250000 0.000000
O O15 0.636864 0.119400 0.605728
O O16 0.626136 0.230486 0.684157
#
# Coordination Sequence:
#
# PCOD9276780 Si02
#       8
#     8   8   8   8   8   8   8   4
#     4  10  22  39  70  89 125 173 223 268 325 406
#     4   9  22  37  65  99 129 168 220 293 311 397
#     4  11  22  40  68  94 128 174 228 264 335 400
#     4  11  23  41  63  98 129 174 214 277 335 396
#     4  10  22  44  63  89 130 178 222 263 339 403
#     4  11  26  42  69  96 135 180 217 285 332 400
#     4  10  20  40  65 100 128 162 230 278 331 375
#     4  12  28  44  58 102 146 164 222 280 346 402
#
# _framework density 20.455732000000001
#
# number of rings (size 3 to 8) (size 9 to 14) (size 15 to 20)
#    0.000    1.600    2.000    1.600    5.600    2.667 
#    7.200    1.333    0.000    0.000    0.000    0.000 
#    0.000    0.000    0.000    0.000    0.000    0.000 
#
# Total GULP energy -167444.239299 kJ/mol
# GULP energy per Si atom -5581.474643 kJ/mol
# Density = 2.040917 g / cm^3
# Si number density = 20.455732 Si / 1000 Ang^3
#
#
#
# Elastic Constant Matrix: (Units=GPa)
#
#
# Indices 1 2 3 4 5 6 
#
# 1 58.6635 13.6986 22.5357 0.0000 11.2922 0.0000
# 2 13.6986 51.3588 23.6485 0.0000 0.0889 0.0000
# 3 22.5357 23.6485 99.6439 0.0000 -4.0801 0.0000
# 4 0.0000 0.0000 0.0000 29.7574 0.0000 -22.5563
# 5 11.2922 0.0889 -4.0801 0.0000 32.7445 0.0000
# 6 0.0000 0.0000 0.0000 -22.5563 0.0000 55.5033
#
#
#
# Elastic Compliance Matrix: (Units=1/GPa)
#
#
# Indices 1 2 3 4 5 6 
#
# 1 0.021007 -0.003655 -0.004201 0.000000 -0.007758 0.000000
# 2 -0.003655 0.022512 -0.004490 0.000000 0.000640 0.000000
# 3 -0.004201 -0.004490 0.012173 0.000000 0.002978 0.000000
# 4 0.000000 0.000000 0.000000 0.048566 0.000000 0.019737
# 5 -0.007758 0.000640 0.002978 0.000000 0.033584 0.000000
# 6 0.000000 0.000000 0.000000 0.019737 0.000000 0.026038
#
#
# Mechanical properties :
#
#
# Convention : Reuss Voigt Hill
#
# Bulk Modulus (GPa) = 32.25805 36.60353 34.43079
# Shear Modulus (GPa) = 25.13743 33.58660 29.36202
#
# Velocity S-wave (km/s) = 3.50933 4.05645 3.79277
# Velocity P-wave (km/s) = 5.67666 6.31448 6.00404
#
# Compressibility (1/GPa) = 0.03100001
#
# Stress axis : x y z
#
# Youngs Moduli (GPa) = 47.60278 44.42054 82.14617
#
# Poissons Ratio (x) = 0.16237 0.34511
# Poissons Ratio (y) = 0.17400 0.36883
# Poissons Ratio (z) = 0.19999 0.19944
#
# Static dielectric constant tensor:
#      x y z
#    x 1.765790 0.000000 -0.002270 
#    y 0.000000 1.705490 0.000000 
#    z -0.002270 0.000000 1.758490 
# 
# From -- ./inp_files/233058.got.cif
#   From: 2010.05.17/outbox.cif.g08.bks.cpg/sg15_117_cif.got.tgz:233058.got - 2010.06.03 18:47:42.
