data_PCOD9276147
_publ_section_title
;
Structure prediction by ZEFSAII (Michael W. Deem and Ramdas Pophale) SiO2 
 PCOD9276147
Probable space group: C 2/C
;
_chemical_formula_sum "Si O2"
_cell_formula_units_Z 44
_cell_length_a 15.590351
_cell_length_b 15.863078
_cell_length_c 7.644347
_cell_angle_alpha 90.000000
_cell_angle_beta 63.207855
_cell_angle_gamma 90.000000
_cell_volume 1687.577780
_symmetry_space_group_name_H-M "C 2/C"
_symmetry_group_IT_number 15
_symmetry_cell_setting 'monoclinic'
loop_
_space_group_symop_operation_xyz
x,y,z
-x,y,1/2-z
-x,-y,-z
x,-y,1/2+z
1/2+x,1/2+y,z
1/2-x,1/2+y,1/2-z
1/2-x,1/2-y,-z
1/2+x,1/2-y,1/2+z
loop_
_atom_site_type_symbol
_atom_site_label
_atom_site_fract_x
_atom_site_fract_y
_atom_site_fract_z
Si Si1 0.438872 0.425262 0.974783
Si Si2 0.155928 0.423870 0.054475
Si Si3 0.143070 0.795986 0.199285
Si Si4 0.342926 0.207983 0.651269
Si Si5 0.500000 0.195390 0.750000
Si Si6 0.236641 0.946858 0.890639
O O1 0.500000 0.404425 0.750000
O O2 0.500000 0.500000 0.000000
O O3 0.429190 0.344347 0.108780
O O4 0.336568 0.473090 0.043020
O O5 0.166811 0.380151 0.236142
O O6 0.062209 0.371728 0.075815
O O7 0.166821 0.521412 0.099149
O O8 0.234402 0.417884 0.829127
O O9 0.232064 0.764371 0.235801
O O10 0.117410 0.725363 0.080209
O O11 0.185431 0.872896 0.043296
O O12 0.419935 0.245960 0.715934
#
# Coordination Sequence:
#
# PCOD9276147 Si02
#       6
#     8   8   8   8   4   8
#     4  12  22  38  69 108 152 193 252 316 388 449
#     4  10  20  39  69 104 155 198 249 315 373 465
#     4  11  22  41  72 108 149 206 256 315 387 467
#     4   9  21  44  72 101 153 204 257 307 385 466
#     4   8  20  42  68 104 150 202 250 316 378 450
#     4  12  21  39  68 111 148 197 252 307 393 461
#
# _framework density 26.072873999999999
#
# number of rings (size 3 to 8) (size 9 to 14) (size 15 to 20)
#    1.091    0.364    5.455    0.000    0.000    1.455 
#    0.000    0.000   22.000    0.000    0.000    6.364 
#    0.000    0.000    0.000    0.545    0.000    0.000 
#
# Total GULP energy -122570.849790 kJ/mol
# GULP energy per Si atom -5571.402263 kJ/mol
# Density = 2.601353 g / cm^3
# Si number density = 26.072874 Si / 1000 Ang^3
#
#
#
# Elastic Constant Matrix: (Units=GPa)
#
#
# Indices 1 2 3 4 5 6 
#
# 1 121.9000 23.0589 35.7541 0.0000 12.3565 0.0000
# 2 23.0589 100.5456 80.4393 0.0000 2.0807 0.0000
# 3 35.7541 80.4393 226.8146 0.0000 7.4607 0.0000
# 4 0.0000 0.0000 0.0000 60.0241 0.0000 -6.2008
# 5 12.3565 2.0807 7.4607 0.0000 35.4848 0.0000
# 6 0.0000 0.0000 0.0000 -6.2008 0.0000 28.5537
#
#
#
# Elastic Compliance Matrix: (Units=1/GPa)
#
#
# Indices 1 2 3 4 5 6 
#
# 1 0.008995 -0.001319 -0.000856 0.000000 -0.002875 0.000000
# 2 -0.001319 0.014081 -0.004807 0.000000 0.000644 0.000000
# 3 -0.000856 -0.004807 0.006273 0.000000 -0.000739 0.000000
# 4 0.000000 0.000000 0.000000 0.017042 0.000000 0.003701
# 5 -0.002875 0.000644 -0.000739 0.000000 0.029300 0.000000
# 6 0.000000 0.000000 0.000000 0.003701 0.000000 0.035825
#
#
# Mechanical properties :
#
#
# Convention : Reuss Voigt Hill
#
# Bulk Modulus (GPa) = 64.99530 80.86277 72.92904
# Shear Modulus (GPa) = 38.28251 45.47970 41.88110
#
# Velocity S-wave (km/s) = 3.83598 4.18105 4.01223
# Velocity P-wave (km/s) = 6.67848 7.37494 7.03533
#
# Compressibility (1/GPa) = 0.01538573
#
# Stress axis : x y z
#
# Youngs Moduli (GPa) = 111.16862 71.01987 159.41717
#
# Poissons Ratio (x) = 0.09367 0.13641
# Poissons Ratio (y) = 0.14662 0.76631
# Poissons Ratio (z) = 0.09512 0.34139
#
# Static dielectric constant tensor:
#      x y z
#    x 2.335690 0.000000 -0.068370 
#    y 0.000000 2.110310 0.000000 
#    z -0.068370 0.000000 2.098810 
# 
# From -- ./inp_files/48886.got.cif
#   From: 2010.05.17/outbox.cif.g08.bks.cpg/sg15_25_cif.got.tgz:48886.got - 2010.06.03 18:47:42.
