data_PCOD9276929
_publ_section_title
;
Structure prediction by ZEFSAII (Michael W. Deem and Ramdas Pophale) SiO2 
 PCOD9276929
Probable space group: C 2/C
;
_chemical_formula_sum "Si O2"
_cell_formula_units_Z 32
_cell_length_a 10.242291
_cell_length_b 16.398015
_cell_length_c 8.826511
_cell_angle_alpha 90.000000
_cell_angle_beta 80.772949
_cell_angle_gamma 90.000000
_cell_volume 1463.259339
_symmetry_space_group_name_H-M "C 2/C"
_symmetry_group_IT_number 15
_symmetry_cell_setting 'monoclinic'
loop_
_space_group_symop_operation_xyz
x,y,z
-x,y,1/2-z
-x,-y,-z
x,-y,1/2+z
1/2+x,1/2+y,z
1/2-x,1/2+y,1/2-z
1/2-x,1/2-y,-z
1/2+x,1/2-y,1/2+z
loop_
_atom_site_type_symbol
_atom_site_label
_atom_site_fract_x
_atom_site_fract_y
_atom_site_fract_z
Si Si1 0.576100 0.428976 0.897877
Si Si2 0.454626 0.277373 0.932057
Si Si3 0.816185 0.379933 0.469169
Si Si4 0.349642 0.992158 0.736355
O O1 0.500000 0.426921 0.750000
O O2 0.559632 0.340907 0.979637
O O3 0.271596 0.446292 0.659879
O O4 0.500000 0.500000 0.000000
O O5 0.500000 0.264936 0.750000
O O6 0.425758 0.186932 0.994537
O O7 0.319843 0.331129 0.975880
O O8 0.831590 0.460307 0.568814
O O9 0.828328 0.414147 0.295516
O O10 0.500000 0.971806 0.750000
#
# Coordination Sequence:
#
# PCOD9276929 Si02
#       4
#     8   8   8   8
#     4  11  20  40  65  93 126 174 221 260 317 399
#     4  10  20  40  66  91 127 172 222 250 332 392
#     4  11  23  39  68  94 130 172 213 273 325 393
#     4  12  23  40  64 101 129 166 221 272 332 379
#
# _framework density 21.868987000000001
#
# number of rings (size 3 to 8) (size 9 to 14) (size 15 to 20)
#    0.000    1.000    7.500    1.500    0.000    0.000 
#    0.000    2.500    5.500    0.000    0.000    0.000 
#    0.000    0.000    0.000    0.000    0.000    0.000 
#
# Total GULP energy -89069.311894 kJ/mol
# GULP energy per Si atom -5566.831993 kJ/mol
# Density = 2.181921 g / cm^3
# Si number density = 21.868987 Si / 1000 Ang^3
#
#
#
# Elastic Constant Matrix: (Units=GPa)
#
#
# Indices 1 2 3 4 5 6 
#
# 1 144.1173 31.8046 12.7855 0.0000 -19.8696 0.0000
# 2 31.8046 132.5139 42.1453 0.0000 -13.5390 0.0000
# 3 12.7855 42.1453 55.2157 0.0000 -6.3183 0.0000
# 4 0.0000 0.0000 0.0000 24.3958 0.0000 4.3326
# 5 -19.8696 -13.5390 -6.3183 0.0000 21.8191 0.0000
# 6 0.0000 0.0000 0.0000 4.3326 0.0000 17.5318
#
#
#
# Elastic Compliance Matrix: (Units=1/GPa)
#
#
# Indices 1 2 3 4 5 6 
#
# 1 0.008134 -0.001214 -0.000202 0.000000 0.006595 0.000000
# 2 -0.001214 0.010518 -0.007371 0.000000 0.003286 0.000000
# 3 -0.000202 -0.007371 0.024036 0.000000 0.002202 0.000000
# 4 0.000000 0.000000 0.000000 0.042872 0.000000 -0.010595
# 5 0.006595 0.003286 0.002202 0.000000 0.054514 0.000000
# 6 0.000000 0.000000 0.000000 -0.010595 0.000000 0.059657
#
#
# Mechanical properties :
#
#
# Convention : Reuss Voigt Hill
#
# Bulk Modulus (GPa) = 39.81949 56.14643 47.98296
# Shear Modulus (GPa) = 22.15556 29.09010 25.62283
#
# Velocity S-wave (km/s) = 3.18638 3.65115 3.42665
# Velocity P-wave (km/s) = 5.63783 6.59577 6.13552
#
# Compressibility (1/GPa) = 0.02511333
#
# Stress axis : x y z
#
# Youngs Moduli (GPa) = 122.94131 95.07667 41.60478
#
# Poissons Ratio (x) = 0.11543 0.00841
# Poissons Ratio (y) = 0.14927 0.30667
# Poissons Ratio (z) = 0.02484 0.70080
#
# Static dielectric constant tensor:
#      x y z
#    x 1.847180 0.000000 -0.018340 
#    y 0.000000 1.872310 0.000000 
#    z -0.018340 0.000000 1.889850 
# 
# From -- ./inp_files/28475.got.cif
#   From: 2010.05.17/outbox.cif.g08.bks.cpg/sg15_15_cif.got.tgz:28475.got - 2010.06.03 18:47:42.
