data_PCOD9276810
_publ_section_title
;
Structure prediction by ZEFSAII (Michael W. Deem and Ramdas Pophale) SiO2 
 PCOD9276810
Probable space group: C 2/C
;
_chemical_formula_sum "Si O2"
_cell_formula_units_Z 44
_cell_length_a 23.815192
_cell_length_b 15.624336
_cell_length_c 12.030508
_cell_angle_alpha 90.000000
_cell_angle_beta 25.774731
_cell_angle_gamma 90.000000
_cell_volume 1946.539001
_symmetry_space_group_name_H-M "C 2/C"
_symmetry_group_IT_number 15
_symmetry_cell_setting 'monoclinic'
loop_
_space_group_symop_operation_xyz
x,y,z
-x,y,1/2-z
-x,-y,-z
x,-y,1/2+z
1/2+x,1/2+y,z
1/2-x,1/2+y,1/2-z
1/2-x,1/2-y,-z
1/2+x,1/2-y,1/2+z
loop_
_atom_site_type_symbol
_atom_site_label
_atom_site_fract_x
_atom_site_fract_y
_atom_site_fract_z
Si Si1 0.718449 0.118269 0.011797
Si Si2 0.047658 0.334682 0.401347
Si Si3 0.000000 0.598212 0.750000
Si Si4 0.496780 0.649314 0.527190
Si Si5 0.402417 0.503057 0.306857
Si Si6 0.185999 0.450285 0.334369
O O1 0.598565 0.142209 0.300870
O O2 0.846210 0.176350 0.785447
O O3 0.783156 0.029723 0.940460
O O4 0.673763 0.107154 0.965677
O O5 0.057430 0.348623 0.251314
O O6 0.075292 0.236495 0.386728
O O7 0.132240 0.398540 0.324878
O O8 0.105329 0.535107 0.506726
O O9 0.536805 0.587156 0.355221
O O10 0.492682 0.581204 0.635693
O O11 0.333567 0.525927 0.543886
#
# Coordination Sequence:
#
# PCOD9276810 Si02
#       6
#     8   8   4   8   8   8
#     4  10  20  40  65  90 127 170 203 259 320 373
#     4  12  23  39  68  97 127 161 219 267 312 375
#     4  12  22  38  62  96 124 166 206 266 316 370
#     4   9  22  44  63  91 131 169 212 260 313 380
#     4   9  21  43  64  87 127 173 206 250 320 384
#     4  12  22  38  67  95 125 166 213 262 320 380
#
# _framework density 22.604223999999999
#
# number of rings (size 3 to 8) (size 9 to 14) (size 15 to 20)
#    1.091    0.364    3.636    2.182    0.000    2.909 
#    0.000    5.455    0.000    0.000    0.000    0.000 
#    0.000    0.000    0.000    0.000    0.000    0.000 
#
# Total GULP energy -122684.274631 kJ/mol
# GULP energy per Si atom -5576.557938 kJ/mol
# Density = 2.255278 g / cm^3
# Si number density = 22.604224 Si / 1000 Ang^3
#
#
#
# Elastic Constant Matrix: (Units=GPa)
#
#
# Indices 1 2 3 4 5 6 
#
# 1 109.9654 41.9185 20.0102 0.0000 18.2278 0.0000
# 2 41.9185 121.7265 58.3966 0.0000 16.1381 0.0000
# 3 20.0102 58.3966 64.6963 0.0000 29.6862 0.0000
# 4 0.0000 0.0000 0.0000 15.6572 0.0000 -9.3547
# 5 18.2278 16.1381 29.6862 0.0000 30.1927 0.0000
# 6 0.0000 0.0000 0.0000 -9.3547 0.0000 8.1418
#
#
#
# Elastic Compliance Matrix: (Units=1/GPa)
#
#
# Indices 1 2 3 4 5 6 
#
# 1 0.011810 -0.005638 0.006058 0.000000 -0.010073 0.000000
# 2 -0.005638 0.018778 -0.022160 0.000000 0.015155 0.000000
# 3 0.006058 -0.022160 0.054348 0.000000 -0.045249 0.000000
# 4 0.000000 0.000000 0.000000 0.203708 0.000000 0.234054
# 5 -0.010073 0.015155 -0.045249 0.000000 0.075592 0.000000
# 6 0.000000 0.000000 0.000000 0.234054 0.000000 0.391744
#
#
# Mechanical properties :
#
#
# Convention : Reuss Voigt Hill
#
# Bulk Modulus (GPa) = 24.12117 59.67096 41.89607
# Shear Modulus (GPa) = 6.14795 22.53587 14.34191
#
# Velocity S-wave (km/s) = 1.65098 3.16092 2.52162
# Velocity P-wave (km/s) = 3.78531 6.30693 5.20124
#
# Compressibility (1/GPa) = 0.04145736
#
# Stress axis : x y z
#
# Youngs Moduli (GPa) = 84.67221 53.25265 18.39991
#
# Poissons Ratio (x) = 0.30023 -0.11147
# Poissons Ratio (y) = 0.47738 0.40774
# Poissons Ratio (z) = -0.51296 1.18008
#
# Static dielectric constant tensor:
#      x y z
#    x 1.842340 0.000000 -0.024720 
#    y 0.000000 1.827960 0.000000 
#    z -0.024720 0.000000 1.884300 
# 
# From -- ./inp_files/119172.got.cif
#   From: 2010.05.17/outbox.cif.g08.bks.cpg/sg15_60_cif.got.tgz:119172.got - 2010.06.03 18:47:42.
