data_PCOD9276524
_publ_section_title
;
Structure prediction by ZEFSAII (Michael W. Deem and Ramdas Pophale) SiO2 
 PCOD9276524
Probable space group: C 2/C
;
_chemical_formula_sum "Si O2"
_cell_formula_units_Z 44
_cell_length_a 21.067039
_cell_length_b 10.703037
_cell_length_c 16.929920
_cell_angle_alpha 90.000000
_cell_angle_beta 153.616873
_cell_angle_gamma 90.000000
_cell_volume 1696.334576
_symmetry_space_group_name_H-M "C 2/C"
_symmetry_group_IT_number 15
_symmetry_cell_setting 'monoclinic'
loop_
_space_group_symop_operation_xyz
x,y,z
-x,y,1/2-z
-x,-y,-z
x,-y,1/2+z
1/2+x,1/2+y,z
1/2-x,1/2+y,1/2-z
1/2-x,1/2-y,-z
1/2+x,1/2-y,1/2+z
loop_
_atom_site_type_symbol
_atom_site_label
_atom_site_fract_x
_atom_site_fract_y
_atom_site_fract_z
Si Si1 0.406104 0.764930 0.711870
Si Si2 0.000000 0.975579 0.250000
Si Si3 0.259326 0.130936 0.598227
Si Si4 0.567024 0.845996 0.442449
Si Si5 0.012088 0.802398 0.040783
Si Si6 0.230945 0.991936 0.732581
O O1 0.500000 0.833802 0.750000
O O2 0.250000 0.750000 0.500000
O O3 0.474147 0.624267 0.790337
O O4 0.430338 0.796479 0.829711
O O5 0.139701 0.056111 0.416701
O O6 0.188534 0.266128 0.533794
O O7 0.269172 0.058950 0.693365
O O8 0.415030 0.127876 0.733225
O O9 0.516006 0.758871 0.458926
O O10 0.639511 0.963504 0.564815
O O11 0.124132 0.915359 0.158624
O O12 0.855073 0.861959 0.877717
#
# Coordination Sequence:
#
# PCOD9276524 Si02
#       6
#     8   4   8   8   8   8
#     4  10  23  41  63  88 124 167 203 248 310 368
#     4  10  24  42  60  82 132 162 204 250 302 372
#     4  11  23  41  61  90 125 163 208 257 308 367
#     4  11  23  38  66  96 120 161 213 255 313 372
#     4  10  21  38  66  91 128 160 201 262 313 355
#     4  10  20  40  62  95 124 157 203 264 306 364
#
# _framework density 25.938278
#
# number of rings (size 3 to 8) (size 9 to 14) (size 15 to 20)
#    0.545    1.091    3.636    0.545    5.091    0.727 
#    3.273    0.000    0.000    0.000    0.000    0.000 
#    0.000    0.000    0.000    0.000    0.000    0.000 
#
# Total GULP energy -123100.294118 kJ/mol
# GULP energy per Si atom -5595.467914 kJ/mol
# Density = 2.587924 g / cm^3
# Si number density = 25.938278 Si / 1000 Ang^3
#
#
#
# Elastic Constant Matrix: (Units=GPa)
#
#
# Indices 1 2 3 4 5 6 
#
# 1 63.2630 6.2238 18.6739 0.0000 13.3711 0.0000
# 2 6.2238 62.7337 34.4867 0.0000 4.9109 0.0000
# 3 18.6739 34.4867 167.1680 0.0000 30.5357 0.0000
# 4 0.0000 0.0000 0.0000 50.2348 0.0000 3.4967
# 5 13.3711 4.9109 30.5357 0.0000 44.9060 0.0000
# 6 0.0000 0.0000 0.0000 3.4967 0.0000 25.7840
#
#
#
# Elastic Compliance Matrix: (Units=1/GPa)
#
#
# Indices 1 2 3 4 5 6 
#
# 1 0.017088 -0.000837 -0.000940 0.000000 -0.004357 0.000000
# 2 -0.000837 0.018036 -0.003782 0.000000 0.000849 0.000000
# 3 -0.000940 -0.003782 0.007697 0.000000 -0.004540 0.000000
# 4 0.000000 0.000000 0.000000 0.020096 0.000000 -0.002725
# 5 -0.004357 0.000849 -0.004540 0.000000 0.026560 0.000000
# 6 0.000000 0.000000 0.000000 -0.002725 0.000000 0.039153
#
#
# Mechanical properties :
#
#
# Convention : Reuss Voigt Hill
#
# Bulk Modulus (GPa) = 31.54480 45.77038 38.65759
# Shear Modulus (GPa) = 33.26288 39.77032 36.51660
#
# Velocity S-wave (km/s) = 3.58493 3.91994 3.75617
# Velocity P-wave (km/s) = 5.41512 6.17836 5.80929
#
# Compressibility (1/GPa) = 0.03170094
#
# Stress axis : x y z
#
# Youngs Moduli (GPa) = 58.52112 55.44363 129.92653
#
# Poissons Ratio (x) = 0.04642 0.12216
# Poissons Ratio (y) = 0.04900 0.49144
# Poissons Ratio (z) = 0.05502 0.20971
#
# Static dielectric constant tensor:
#      x y z
#    x 2.249520 0.000000 -0.082100 
#    y 0.000000 2.080850 0.000000 
#    z -0.082100 0.000000 2.070220 
# 
# From -- ./inp_files/257557.got.cif
#   From: 2010.05.17/outbox.cif.g08.bks.cpg/sg15_129_cif.got.tgz:257557.got - 2010.06.03 18:47:42.
