data_PCOD9276333
_publ_section_title
;
Structure prediction by ZEFSAII (Michael W. Deem and Ramdas Pophale) SiO2 
 PCOD9276333
Probable space group: C 2/C
;
_chemical_formula_sum "Si O2"
_cell_formula_units_Z 60
_cell_length_a 11.361425
_cell_length_b 13.954315
_cell_length_c 15.808286
_cell_angle_alpha 90.000000
_cell_angle_beta 70.196703
_cell_angle_gamma 90.000000
_cell_volume 2358.042925
_symmetry_space_group_name_H-M "C 2/C"
_symmetry_group_IT_number 15
_symmetry_cell_setting 'monoclinic'
loop_
_space_group_symop_operation_xyz
x,y,z
-x,y,1/2-z
-x,-y,-z
x,-y,1/2+z
1/2+x,1/2+y,z
1/2-x,1/2+y,1/2-z
1/2-x,1/2-y,-z
1/2+x,1/2-y,1/2+z
loop_
_atom_site_type_symbol
_atom_site_label
_atom_site_fract_x
_atom_site_fract_y
_atom_site_fract_z
Si Si1 0.340170 0.524854 0.882862
Si Si2 0.374912 0.492736 0.675473
Si Si3 0.586382 0.091560 0.006170
Si Si4 0.986172 0.305714 0.127736
Si Si5 0.370385 0.989987 0.338651
Si Si6 0.249284 0.712312 0.233158
Si Si7 0.500000 0.860048 0.750000
Si Si8 0.713110 0.312339 0.588734
O O1 0.351721 0.523571 0.778379
O O2 0.483096 0.522178 0.880611
O O3 0.231373 0.594416 0.941429
O O4 0.279730 0.424256 0.927665
O O5 0.274230 0.536152 0.635159
O O6 0.334906 0.379715 0.684472
O O7 0.521703 0.178418 0.971719
O O8 0.597358 0.078538 0.104239
O O9 0.500000 0.000000 0.000000
O O10 0.845848 0.298372 0.195191
O O11 0.056244 0.397313 0.149783
O O12 0.068628 0.216803 0.137140
O O13 0.404095 0.048200 0.244636
O O14 0.219342 0.708034 0.339883
O O15 0.116417 0.715372 0.219751
O O16 0.750000 0.250000 0.500000
#
# Coordination Sequence:
#
# PCOD9276333 Si02
#       8
#     8   8   8   8   8   8   4   8
#     4  10  20  40  60  89 124 169 204 252 308 384
#     4   9  20  39  65  86 118 171 208 243 316 377
#     4  10  23  38  60  94 132 159 205 259 319 363
#     4  11  23  39  64  95 123 155 210 267 303 356
#     4  10  23  39  65  94 120 168 207 255 310 379
#     4  10  22  41  62  90 121 164 212 250 306 375
#     4  10  24  42  68  82 128 172 208 238 316 396
#     4  11  22  35  61  89 126 161 204 257 307 360
#
# _framework density 25.444831000000001
#
# number of rings (size 3 to 8) (size 9 to 14) (size 15 to 20)
#    0.000    1.867    1.333    2.000   14.933    0.533 
#    0.000    6.667    0.000    0.000    0.000    0.000 
#    0.000    0.000    0.000    0.000    0.000    0.000 
#
# Total GULP energy -167149.332651 kJ/mol
# GULP energy per Si atom -5571.644422 kJ/mol
# Density = 2.538692 g / cm^3
# Si number density = 25.444831 Si / 1000 Ang^3
#
#
#
# Elastic Constant Matrix: (Units=GPa)
#
#
# Indices 1 2 3 4 5 6 
#
# 1 206.1071 28.5395 56.0762 0.0000 -9.2157 0.0000
# 2 28.5395 30.1580 -2.5564 0.0000 7.4412 0.0000
# 3 56.0762 -2.5564 76.0383 0.0000 0.7153 0.0000
# 4 0.0000 0.0000 0.0000 23.0116 0.0000 0.0997
# 5 -9.2157 7.4412 0.7153 0.0000 38.1014 0.0000
# 6 0.0000 0.0000 0.0000 0.0997 0.0000 43.7855
#
#
#
# Elastic Compliance Matrix: (Units=1/GPa)
#
#
# Indices 1 2 3 4 5 6 
#
# 1 0.007954 -0.008990 -0.006204 0.000000 0.003796 0.000000
# 2 -0.008990 0.045114 0.008252 0.000000 -0.011140 0.000000
# 3 -0.006204 0.008252 0.018037 0.000000 -0.003451 0.000000
# 4 0.000000 0.000000 0.000000 0.043457 0.000000 -0.000099
# 5 0.003796 -0.011140 -0.003451 0.000000 0.029404 0.000000
# 6 0.000000 0.000000 0.000000 -0.000099 0.000000 0.022839
#
#
# Mechanical properties :
#
#
# Convention : Reuss Voigt Hill
#
# Bulk Modulus (GPa) = 17.47640 52.93577 35.20608
# Shear Modulus (GPa) = 25.02950 36.32930 30.67940
#
# Velocity S-wave (km/s) = 3.13977 3.78268 3.47612
# Velocity P-wave (km/s) = 4.47520 6.31882 5.47517
#
# Compressibility (1/GPa) = 0.05722003
#
# Stress axis : x y z
#
# Youngs Moduli (GPa) = 125.71633 22.16582 55.44304
#
# Poissons Ratio (x) = 0.19927 0.34398
# Poissons Ratio (y) = 1.13020 -0.45749
# Poissons Ratio (z) = 0.77996 -0.18290
#
# Static dielectric constant tensor:
#      x y z
#    x 2.201240 0.000000 -0.213330 
#    y 0.000000 2.092350 0.000000 
#    z -0.213330 0.000000 1.917320 
# 
# From -- ./inp_files/199106.got.cif
#   From: 2010.05.17/outbox.cif.g08.bks.cpg/sg15_100_cif.got.tgz:199106.got - 2010.06.03 18:47:42.
