data_PCOD9276964
_publ_section_title
;
Structure prediction by ZEFSAII (Michael W. Deem and Ramdas Pophale) SiO2 
 PCOD9276964
Probable space group: C 2/C
;
_chemical_formula_sum "Si O2"
_cell_formula_units_Z 44
_cell_length_a 13.030959
_cell_length_b 8.155969
_cell_length_c 20.118793
_cell_angle_alpha 90.000000
_cell_angle_beta 60.580397
_cell_angle_gamma 90.000000
_cell_volume 1862.493904
_symmetry_space_group_name_H-M "C 2/C"
_symmetry_group_IT_number 15
_symmetry_cell_setting 'monoclinic'
loop_
_space_group_symop_operation_xyz
x,y,z
-x,y,1/2-z
-x,-y,-z
x,-y,1/2+z
1/2+x,1/2+y,z
1/2-x,1/2+y,1/2-z
1/2-x,1/2-y,-z
1/2+x,1/2-y,1/2+z
loop_
_atom_site_type_symbol
_atom_site_label
_atom_site_fract_x
_atom_site_fract_y
_atom_site_fract_z
Si Si1 0.093471 0.563737 0.107400
Si Si2 0.005133 0.076132 0.667722
Si Si3 0.852900 0.473024 0.133808
Si Si4 0.813640 0.848397 0.716330
Si Si5 0.500000 0.155211 0.750000
Si Si6 0.768800 0.925972 0.961745
O O1 0.051495 0.747296 0.132041
O O2 0.080875 0.461003 0.178814
O O3 0.993370 0.477040 0.093621
O O4 0.219668 0.549895 0.033074
O O5 0.000000 0.074876 0.750000
O O6 0.099787 0.951933 0.606060
O O7 0.880881 0.017016 0.677270
O O8 0.801377 0.289914 0.163986
O O9 0.801651 0.590701 0.208578
O O10 0.807302 0.542742 0.079732
O O11 0.907875 0.761879 0.736578
O O12 0.750000 0.750000 0.000000
#
# Coordination Sequence:
#
# PCOD9276964 Si02
#       6
#     8   8   8   8   4   8
#     4  11  24  40  66 101 132 176 224 286 332 407
#     4  12  23  44  67  94 135 177 229 269 338 405
#     4  11  23  40  66  99 136 172 227 275 340 394
#     4  11  21  39  65  97 129 180 223 277 326 408
#     4  10  20  40  66  96 128 180 230 266 350 402
#     4  12  25  45  68  97 139 179 225 281 341 397
#
# _framework density 23.624237999999998
#
# number of rings (size 3 to 8) (size 9 to 14) (size 15 to 20)
#    0.000    0.727    3.636    5.455    0.000    0.000 
#    0.000    7.273    0.000    0.000    0.000    0.000 
#    0.000    0.000    0.000    0.000    0.000    0.000 
#
# Total GULP energy -123152.836147 kJ/mol
# GULP energy per Si atom -5597.856188 kJ/mol
# Density = 2.357047 g / cm^3
# Si number density = 23.624238 Si / 1000 Ang^3
#
#
#
# Elastic Constant Matrix: (Units=GPa)
#
#
# Indices 1 2 3 4 5 6 
#
# 1 38.4946 -6.6326 25.1099 0.0000 -11.0923 0.0000
# 2 -6.6326 135.2695 37.3887 0.0000 -0.7256 0.0000
# 3 25.1099 37.3887 131.4009 0.0000 -25.8220 0.0000
# 4 0.0000 0.0000 0.0000 44.2812 0.0000 -11.5400
# 5 -11.0923 -0.7256 -25.8220 0.0000 39.8961 0.0000
# 6 0.0000 0.0000 0.0000 -11.5400 0.0000 25.5475
#
#
#
# Elastic Compliance Matrix: (Units=1/GPa)
#
#
# Indices 1 2 3 4 5 6 
#
# 1 0.031929 0.003263 -0.006042 0.000000 0.005026 0.000000
# 2 0.003263 0.008439 -0.003227 0.000000 -0.001028 0.000000
# 3 -0.006042 -0.003227 0.010703 0.000000 0.005188 0.000000
# 4 0.000000 0.000000 0.000000 0.025596 0.000000 0.011562
# 5 0.005026 -0.001028 0.005188 0.000000 0.029802 0.000000
# 6 0.000000 0.000000 0.000000 0.011562 0.000000 0.044365
#
#
# Mechanical properties :
#
#
# Convention : Reuss Voigt Hill
#
# Bulk Modulus (GPa) = 25.60263 46.32188 35.96225
# Shear Modulus (GPa) = 28.43072 38.56491 33.49781
#
# Velocity S-wave (km/s) = 3.47285 4.04472 3.76964
# Velocity P-wave (km/s) = 5.19056 6.43920 5.84830
#
# Compressibility (1/GPa) = 0.03905849
#
# Stress axis : x y z
#
# Youngs Moduli (GPa) = 31.31915 118.49805 93.43500
#
# Poissons Ratio (x) = -0.38661 0.56455
# Poissons Ratio (y) = -0.10218 0.30148
# Poissons Ratio (z) = 0.18924 0.38235
#
# Static dielectric constant tensor:
#      x y z
#    x 1.918660 0.000000 0.003230 
#    y 0.000000 1.949100 0.000000 
#    z 0.003230 0.000000 1.879090 
# 
# From -- ./inp_files/202928.got.cif
#   From: 2010.05.17/outbox.cif.g08.bks.cpg/sg15_102_cif.got.tgz:202928.got - 2010.06.03 18:47:42.
