data_PCOD9276872
_publ_section_title
;
Structure prediction by ZEFSAII (Michael W. Deem and Ramdas Pophale) SiO2 
 PCOD9276872
Probable space group: C 2/C
;
_chemical_formula_sum "Si O2"
_cell_formula_units_Z 48
_cell_length_a 19.425443
_cell_length_b 9.539879
_cell_length_c 10.267305
_cell_angle_alpha 90.000000
_cell_angle_beta 63.065804
_cell_angle_gamma 90.000000
_cell_volume 1696.308854
_symmetry_space_group_name_H-M "C 2/C"
_symmetry_group_IT_number 15
_symmetry_cell_setting 'monoclinic'
loop_
_space_group_symop_operation_xyz
x,y,z
-x,y,1/2-z
-x,-y,-z
x,-y,1/2+z
1/2+x,1/2+y,z
1/2-x,1/2+y,1/2-z
1/2-x,1/2-y,-z
1/2+x,1/2-y,1/2+z
loop_
_atom_site_type_symbol
_atom_site_label
_atom_site_fract_x
_atom_site_fract_y
_atom_site_fract_z
Si Si1 0.911105 0.002177 0.439804
Si Si2 0.302647 0.545254 0.279670
Si Si3 0.194328 0.385522 0.538028
Si Si4 0.329686 0.150754 0.797074
Si Si5 0.454927 0.799471 0.962807
Si Si6 0.946735 0.689446 0.910158
O O1 0.860876 0.011231 0.351315
O O2 0.960221 0.143231 0.406596
O O3 0.852145 0.993738 0.611386
O O4 0.960334 0.861086 0.412894
O O5 0.228572 0.452924 0.377197
O O6 0.281101 0.709929 0.305941
O O7 0.250000 0.250000 0.500000
O O8 0.202328 0.495102 0.648893
O O9 0.102576 0.361020 0.597311
O O10 0.400112 0.178467 0.636658
O O11 0.364053 0.175954 0.914791
O O12 0.534422 0.856849 0.958188
O O13 0.000000 0.625770 0.750000
#
# Coordination Sequence:
#
# PCOD9276872 Si02
#       6
#     8   8   8   8   8   8
#     4  10  20  40  66 101 129 171 219 274 329 385
#     4  10  22  41  65  96 134 169 224 264 335 396
#     4  12  24  40  61  92 135 168 222 271 323 390
#     4   9  22  41  63  92 121 179 213 270 334 389
#     4  10  21  38  65  91 132 168 211 276 327 384
#     4   9  19  41  69  96 131 169 224 267 334 401
#
# _framework density 28.296734000000001
#
# number of rings (size 3 to 8) (size 9 to 14) (size 15 to 20)
#    0.000    2.000    1.667    2.000    2.333    0.667 
#    9.000    0.000    0.000    0.000    0.000    0.000 
#    0.000    0.000    0.000    0.000    0.000    0.000 
#
# Total GULP energy -134134.887001 kJ/mol
# GULP energy per Si atom -5588.953625 kJ/mol
# Density = 2.823233 g / cm^3
# Si number density = 28.296734 Si / 1000 Ang^3
#
#
#
# Elastic Constant Matrix: (Units=GPa)
#
#
# Indices 1 2 3 4 5 6 
#
# 1 55.3320 0.0410 16.7620 0.0000 21.3186 0.0000
# 2 0.0410 177.7799 32.8366 0.0000 1.0471 0.0000
# 3 16.7620 32.8366 164.1524 0.0000 12.7865 0.0000
# 4 0.0000 0.0000 0.0000 33.7415 0.0000 -13.9115
# 5 21.3186 1.0471 12.7865 0.0000 41.9037 0.0000
# 6 0.0000 0.0000 0.0000 -13.9115 0.0000 18.3072
#
#
#
# Elastic Compliance Matrix: (Units=1/GPa)
#
#
# Indices 1 2 3 4 5 6 
#
# 1 0.022836 0.000343 -0.001531 0.000000 -0.011159 0.000000
# 2 0.000343 0.005848 -0.001209 0.000000 0.000048 0.000000
# 3 -0.001531 -0.001209 0.006583 0.000000 -0.001200 0.000000
# 4 0.000000 0.000000 0.000000 0.043159 0.000000 0.032796
# 5 -0.011159 0.000048 -0.001200 0.000000 0.029906 0.000000
# 6 0.000000 0.000000 0.000000 0.032796 0.000000 0.079545
#
#
# Mechanical properties :
#
#
# Convention : Reuss Voigt Hill
#
# Bulk Modulus (GPa) = 32.81495 55.17149 43.99322
# Shear Modulus (GPa) = 24.65146 41.96547 33.30847
#
# Velocity S-wave (km/s) = 2.95477 3.85522 3.43463
# Velocity P-wave (km/s) = 4.82315 6.27349 5.59551
#
# Compressibility (1/GPa) = 0.03047391
#
# Stress axis : x y z
#
# Youngs Moduli (GPa) = 43.79104 171.00453 151.89570
#
# Poissons Ratio (x) = -0.05870 0.23259
# Poissons Ratio (y) = -0.01503 0.18358
# Poissons Ratio (z) = 0.06706 0.20667
#
# Static dielectric constant tensor:
#      x y z
#    x 2.422450 0.000000 0.131120 
#    y 0.000000 2.282850 0.000000 
#    z 0.131120 0.000000 2.160750 
# 
# From -- ./inp_files/116742.got.cif
#   From: 2010.05.17/outbox.cif.g08.bks.cpg/sg15_59_cif.got.tgz:116742.got - 2010.06.03 18:47:42.
