data_PCOD9276339
_publ_section_title
;
Structure prediction by ZEFSAII (Michael W. Deem and Ramdas Pophale) SiO2 
 PCOD9276339
Probable space group: C 2/C
;
_chemical_formula_sum "Si O2"
_cell_formula_units_Z 48
_cell_length_a 12.728222
_cell_length_b 17.909177
_cell_length_c 12.417151
_cell_angle_alpha 90.000000
_cell_angle_beta 48.499832
_cell_angle_gamma 90.000000
_cell_volume 2119.924277
_symmetry_space_group_name_H-M "C 2/C"
_symmetry_group_IT_number 15
_symmetry_cell_setting 'monoclinic'
loop_
_space_group_symop_operation_xyz
x,y,z
-x,y,1/2-z
-x,-y,-z
x,-y,1/2+z
1/2+x,1/2+y,z
1/2-x,1/2+y,1/2-z
1/2-x,1/2-y,-z
1/2+x,1/2-y,1/2+z
loop_
_atom_site_type_symbol
_atom_site_label
_atom_site_fract_x
_atom_site_fract_y
_atom_site_fract_z
Si Si1 0.643453 0.916859 0.589815
Si Si2 0.916461 0.110164 0.618512
Si Si3 0.844405 0.201641 0.018363
Si Si4 0.109419 0.444385 0.989738
Si Si5 0.913872 0.943734 0.702529
Si Si6 0.874524 0.337878 0.132939
O O1 0.500000 0.903998 0.750000
O O2 0.764250 0.877263 0.574857
O O3 0.640911 0.876657 0.475234
O O4 0.659180 0.004637 0.556103
O O5 0.756980 0.134272 0.709675
O O6 0.998597 0.177826 0.621602
O O7 0.001652 0.092946 0.452606
O O8 0.917447 0.033646 0.684585
O O9 0.861392 0.250806 0.114168
O O10 0.750000 0.250000 0.000000
O O11 0.019847 0.371126 0.077284
O O12 0.248750 0.425926 0.828138
O O13 0.000000 0.500000 0.000000
O O14 0.000000 0.923883 0.750000
#
# Coordination Sequence:
#
# PCOD9276339 Si02
#       6
#     8   8   8   8   8   8
#     4  10  21  34  60  94 132 176 220 279 345 417
#     4  11  24  41  67  97 139 181 229 292 359 401
#     4  10  24  37  64 100 140 175 218 288 365 423
#     4  10  20  40  60  90 132 181 226 279 341 417
#     4  11  24  42  68  97 134 182 241 294 340 419
#     4  10  23  40  59  95 139 179 220 278 348 436
#
# _framework density 22.642318
#
# number of rings (size 3 to 8) (size 9 to 14) (size 15 to 20)
#    0.000    1.667    3.333    1.000   11.667    1.333 
#    0.000    0.000    0.000    5.000    0.000    0.000 
#    0.000    0.000    0.000    0.000    0.000    0.000 
#
# Total GULP energy -134008.567882 kJ/mol
# GULP energy per Si atom -5583.690328 kJ/mol
# Density = 2.259078 g / cm^3
# Si number density = 22.642318 Si / 1000 Ang^3
#
#
#
# Elastic Constant Matrix: (Units=GPa)
#
#
# Indices 1 2 3 4 5 6 
#
# 1 66.2876 41.6701 48.6484 0.0000 -13.6736 0.0000
# 2 41.6701 93.9156 23.3236 0.0000 -10.8491 0.0000
# 3 48.6484 23.3236 137.1025 -0.0001 -41.3480 0.0000
# 4 0.0000 0.0000 -0.0001 2.9759 0.0000 -9.2811
# 5 -13.6736 -10.8491 -41.3480 0.0000 26.5056 0.0000
# 6 0.0000 0.0000 0.0000 -9.2811 0.0000 47.3587
#
#
#
# Elastic Compliance Matrix: (Units=1/GPa)
#
#
# Indices 1 2 3 4 5 6 
#
# 1 0.027619 -0.010458 -0.009470 0.000000 -0.004806 0.000000
# 2 -0.010458 0.015207 0.002595 0.000000 0.004877 0.000000
# 3 -0.009470 0.002595 0.017109 0.000000 0.022866 0.000000
# 4 0.000000 0.000000 0.000000 0.864248 0.000000 0.169371
# 5 -0.004806 0.004877 0.022866 0.000000 0.072914 0.000000
# 6 0.000000 0.000000 0.000000 0.169371 0.000000 0.054308
#
#
# Mechanical properties :
#
#
# Convention : Reuss Voigt Hill
#
# Bulk Modulus (GPa) = 39.57688 58.28776 48.93232
# Shear Modulus (GPa) = 4.56832 27.61229 16.09031
#
# Velocity S-wave (km/s) = 1.42196 3.49592 2.66866
# Velocity P-wave (km/s) = 4.49590 6.48799 5.58154
#
# Compressibility (1/GPa) = 0.02526727
#
# Stress axis : x y z
#
# Youngs Moduli (GPa) = 36.20748 65.75966 58.44958
#
# Poissons Ratio (x) = 0.68769 0.55354
# Poissons Ratio (y) = 0.37864 -0.15165
# Poissons Ratio (z) = 0.34290 -0.17062
#
# Static dielectric constant tensor:
#      x y z
#    x 1.885360 0.000000 -0.016570 
#    y 0.000000 1.803710 0.000000 
#    z -0.016570 0.000000 1.844560 
# 
# From -- ./inp_files/155071.got.cif
#   From: 2010.05.17/outbox.cif.g08.bks.cpg/sg15_78_cif.got.tgz:155071.got - 2010.06.03 18:47:42.
