data_PCOD9276321
_publ_section_title
;
Structure prediction by ZEFSAII (Michael W. Deem and Ramdas Pophale) SiO2 
 PCOD9276321
Probable space group: C 2/C
;
_chemical_formula_sum "Si O2"
_cell_formula_units_Z 52
_cell_length_a 29.459256
_cell_length_b 7.269231
_cell_length_c 11.033627
_cell_angle_alpha 90.000000
_cell_angle_beta 117.145135
_cell_angle_gamma 90.000000
_cell_volume 2102.553905
_symmetry_space_group_name_H-M "C 2/C"
_symmetry_group_IT_number 15
_symmetry_cell_setting 'monoclinic'
loop_
_space_group_symop_operation_xyz
x,y,z
-x,y,1/2-z
-x,-y,-z
x,-y,1/2+z
1/2+x,1/2+y,z
1/2-x,1/2+y,1/2-z
1/2-x,1/2-y,-z
1/2+x,1/2-y,1/2+z
loop_
_atom_site_type_symbol
_atom_site_label
_atom_site_fract_x
_atom_site_fract_y
_atom_site_fract_z
Si Si1 0.282465 0.129210 0.290183
Si Si2 0.360626 0.254470 0.721626
Si Si3 0.870258 0.309762 0.735446
Si Si4 0.026271 0.805131 0.666187
Si Si5 0.683678 0.727991 0.078076
Si Si6 0.250000 0.750000 0.000000
Si Si7 0.488016 0.725447 0.870282
O O1 0.330089 0.235884 0.292433
O O2 0.237962 0.120260 0.132864
O O3 0.251649 0.227531 0.357160
O O4 0.300450 0.940936 0.374973
O O5 0.413906 0.329461 0.739078
O O6 0.350555 0.323049 0.847032
O O7 0.312299 0.291782 0.579458
O O8 0.365998 0.032047 0.727004
O O9 0.848183 0.228714 0.583826
O O10 0.928371 0.255674 0.824609
O O11 0.000000 0.712673 0.750000
O O12 0.018739 0.708476 0.526494
O O13 0.001176 0.006639 0.625044
O O14 0.500000 0.798929 0.750000
#
# Coordination Sequence:
#
# PCOD9276321 Si02
#       7
#     8   8   8   8   8   4   8
#     4  10  22  38  60  87 125 168 205 255 309 377
#     4  10  22  38  63  89 124 165 205 261 313 376
#     4  11  22  38  62  91 127 158 213 268 310 379
#     4  10  23  42  65  91 122 168 219 259 323 389
#     4  10  21  40  57  90 126 168 206 259 310 377
#     4  10  20  40  60  86 130 162 200 252 316 376
#     4  10  23  43  62  91 127 164 210 272 323 378
#
# _framework density 24.731829000000001
#
# number of rings (size 3 to 8) (size 9 to 14) (size 15 to 20)
#    0.000    1.846    1.538    1.385    2.154    3.692 
#    8.308    0.000    0.000    0.000    0.000    0.000 
#    0.000    0.000    0.000    0.000    0.000    0.000 
#
# Total GULP energy -144886.853247 kJ/mol
# GULP energy per Si atom -5572.571279 kJ/mol
# Density = 2.467554 g / cm^3
# Si number density = 24.731829 Si / 1000 Ang^3
#
#
#
# Elastic Constant Matrix: (Units=GPa)
#
#
# Indices 1 2 3 4 5 6 
#
# 1 141.2638 -18.2855 33.3389 0.0000 3.1992 0.0000
# 2 -18.2855 73.1237 -10.7249 0.0000 -3.1786 0.0000
# 3 33.3389 -10.7249 108.1926 0.0000 14.7868 0.0000
# 4 0.0000 0.0000 0.0000 6.9021 0.0000 20.1589
# 5 3.1992 -3.1786 14.7868 0.0000 43.3219 0.0000
# 6 0.0000 0.0000 0.0000 20.1589 0.0000 8.5707
#
#
#
# Elastic Compliance Matrix: (Units=1/GPa)
#
#
# Indices 1 2 3 4 5 6 
#
# 1 0.007824 0.001634 -0.002293 0.000000 0.000325 0.000000
# 2 0.001634 0.014232 0.000819 0.000000 0.000644 0.000000
# 3 -0.002293 0.000819 0.010489 0.000000 -0.003351 0.000000
# 4 0.000000 0.000000 0.000000 -0.024683 0.000000 0.058057
# 5 0.000325 0.000644 -0.003351 0.000000 0.024250 0.000000
# 6 0.000000 0.000000 0.000000 0.058057 0.000000 -0.019878
#
#
# Mechanical properties :
#
#
# Convention : Reuss Voigt Hill
#
# Bulk Modulus (GPa) = 30.42706 36.80412 33.61559
# Shear Modulus (GPa) = 218.63457 32.97571 125.80514
#
# Velocity S-wave (km/s) = 9.41244 3.65544 7.13990
# Velocity P-wave (km/s) = 11.42168 5.72101 9.03285
#
# Compressibility (1/GPa) = 0.03286549
#
# Stress axis : x y z
#
# Youngs Moduli (GPa) = 127.80519 70.26282 95.34151
#
# Poissons Ratio (x) = -0.11483 0.21866
# Poissons Ratio (y) = -0.20888 -0.07810
# Poissons Ratio (z) = 0.29311 -0.05756
#
# Static dielectric constant tensor:
#      x y z
#    x 1.928750 0.000000 -0.027730 
#    y 0.000000 2.056410 0.000000 
#    z -0.027730 0.000000 1.894480 
# 
# From -- ./inp_files/125668.got.cif
#   From: 2010.05.17/outbox.cif.g08.bks.cpg/sg15_63_cif.got.tgz:125668.got - 2010.06.03 18:47:42.
