data_PCOD9276605
_publ_section_title
;
Structure prediction by ZEFSAII (Michael W. Deem and Ramdas Pophale) SiO2 
 PCOD9276605
Probable space group: C 2/C
;
_chemical_formula_sum "Si O2"
_cell_formula_units_Z 56
_cell_length_a 7.753944
_cell_length_b 20.142626
_cell_length_c 25.596491
_cell_angle_alpha 90.000000
_cell_angle_beta 36.719025
_cell_angle_gamma 90.000000
_cell_volume 2390.239651
_symmetry_space_group_name_H-M "C 2/C"
_symmetry_group_IT_number 15
_symmetry_cell_setting 'monoclinic'
loop_
_space_group_symop_operation_xyz
x,y,z
-x,y,1/2-z
-x,-y,-z
x,-y,1/2+z
1/2+x,1/2+y,z
1/2-x,1/2+y,1/2-z
1/2-x,1/2-y,-z
1/2+x,1/2-y,1/2+z
loop_
_atom_site_type_symbol
_atom_site_label
_atom_site_fract_x
_atom_site_fract_y
_atom_site_fract_z
Si Si1 0.470585 0.296005 0.630037
Si Si2 0.152053 0.729136 0.947983
Si Si3 0.429846 0.552746 0.385992
Si Si4 0.744809 0.536077 0.732513
Si Si5 0.380795 0.982907 0.946044
Si Si6 0.436407 0.821071 0.204974
Si Si7 0.920349 0.848655 0.466688
O O1 0.341652 0.255663 0.612218
O O2 0.426907 0.374532 0.646257
O O3 0.357303 0.252264 0.705658
O O4 0.819720 0.290712 0.539779
O O5 0.339858 0.668908 0.925961
O O6 0.242739 0.793312 0.959729
O O7 0.661325 0.499872 0.306882
O O8 0.283786 0.535355 0.476960
O O9 0.159615 0.544758 0.411117
O O10 0.500000 0.519593 0.750000
O O11 0.025423 0.510082 0.633244
O O12 0.747355 0.615203 0.738100
O O13 0.175283 0.920059 0.992729
O O14 0.500000 0.819940 0.250000
O O15 0.745053 0.837431 0.103911
#
# Coordination Sequence:
#
# PCOD9276605 Si02
#       7
#     8   8   8   8   8   8   8
#     4  10  21  39  67  95 127 170 223 272 327 397
#     4   9  20  37  64  97 126 161 221 270 324 399
#     4  10  21  40  65  98 131 169 220 278 323 398
#     4  10  24  44  66  94 131 172 229 276 330 413
#     4  10  21  37  69  93 126 181 215 260 348 386
#     4  11  25  41  63  93 129 177 214 279 340 395
#     4  10  20  40  63  93 131 169 214 270 329 409
#
# _framework density 23.428612000000001
#
# number of rings (size 3 to 8) (size 9 to 14) (size 15 to 20)
#    0.000    2.000    1.429    0.857    6.000    4.571 
#    2.571    0.000    0.000    0.000    0.000    0.000 
#    0.000    0.000    0.000    0.000    0.000    0.000 
#
# Total GULP energy -156409.121525 kJ/mol
# GULP energy per Si atom -5586.040054 kJ/mol
# Density = 2.337529 g / cm^3
# Si number density = 23.428612 Si / 1000 Ang^3
#
#
#
# Elastic Constant Matrix: (Units=GPa)
#
#
# Indices 1 2 3 4 5 6 
#
# 1 40.7974 -9.0841 7.3472 -0.0293 -2.7203 0.0168
# 2 -9.0841 117.9907 36.7876 0.0055 1.2336 0.0009
# 3 7.3472 36.7876 83.3068 -0.0499 1.0206 0.0631
# 4 -0.0293 0.0055 -0.0499 27.1441 0.0525 0.1180
# 5 -2.7203 1.2336 1.0206 0.0525 25.2738 -0.0349
# 6 0.0168 0.0009 0.0631 0.1180 -0.0349 23.9132
#
#
#
# Elastic Compliance Matrix: (Units=1/GPa)
#
#
# Indices 1 2 3 4 5 6 
#
# 1 0.026066 0.003137 -0.003718 0.000015 0.002803 -0.000005
# 2 0.003137 0.010208 -0.004785 -0.000008 0.000033 0.000010
# 3 -0.003718 -0.004785 0.014454 0.000025 -0.000750 -0.000037
# 4 0.000015 -0.000008 0.000025 0.036841 -0.000076 -0.000182
# 5 0.002803 0.000033 -0.000750 -0.000076 0.039897 0.000059
# 6 -0.000005 0.000010 -0.000037 -0.000182 0.000059 0.041819
#
#
# Mechanical properties :
#
#
# Convention : Reuss Voigt Hill
#
# Bulk Modulus (GPa) = 25.00273 34.68849 29.84561
# Shear Modulus (GPa) = 25.85967 29.06917 27.46442
#
# Velocity S-wave (km/s) = 3.32590 3.52626 3.42754
# Velocity P-wave (km/s) = 5.04419 5.60513 5.33204
#
# Compressibility (1/GPa) = 0.03999563
#
# Stress axis : x y z
#
# Youngs Moduli (GPa) = 38.36359 97.95959 69.18498
#
# Poissons Ratio (x) = -0.30729 0.25726
# Poissons Ratio (y) = -0.12034 0.33105
# Poissons Ratio (z) = 0.14265 0.46873
#
# Static dielectric constant tensor:
#      x y z
#    x 1.949650 0.000010 0.016850 
#    y 0.000010 1.849560 -0.000020 
#    z 0.016850 -0.000020 2.031450 
# 
# From -- ./inp_files/289697.got.cif
#   From: 2010.05.17/outbox.cif.g08.bks.cpg/sg15_145_cif.got.tgz:289697.got - 2010.06.03 18:47:42.
