data_PCOD9276870
_publ_section_title
;
Structure prediction by ZEFSAII (Michael W. Deem and Ramdas Pophale) SiO2 
 PCOD9276870
Probable space group: C 2/C
;
_chemical_formula_sum "Si O2"
_cell_formula_units_Z 52
_cell_length_a 14.106864
_cell_length_b 29.261911
_cell_length_c 8.345339
_cell_angle_alpha 90.000000
_cell_angle_beta 137.001978
_cell_angle_gamma 90.000000
_cell_volume 2349.332028
_symmetry_space_group_name_H-M "C 2/C"
_symmetry_group_IT_number 15
_symmetry_cell_setting 'monoclinic'
loop_
_space_group_symop_operation_xyz
x,y,z
-x,y,1/2-z
-x,-y,-z
x,-y,1/2+z
1/2+x,1/2+y,z
1/2-x,1/2+y,1/2-z
1/2-x,1/2-y,-z
1/2+x,1/2-y,1/2+z
loop_
_atom_site_type_symbol
_atom_site_label
_atom_site_fract_x
_atom_site_fract_y
_atom_site_fract_z
Si Si1 0.239919 0.104157 0.100709
Si Si2 0.026567 0.635888 0.592425
Si Si3 0.612496 0.482019 0.519137
Si Si4 0.786264 0.078613 0.802461
Si Si5 0.000000 0.137629 0.250000
Si Si6 0.944755 0.265944 0.001256
Si Si7 0.864330 0.191216 0.359978
O O1 0.397399 0.115985 0.335657
O O2 0.196929 0.062820 0.164661
O O3 0.153559 0.149873 0.035816
O O4 0.226639 0.084229 0.905269
O O5 0.159792 0.606787 0.718337
O O6 0.000000 0.364925 0.250000
O O7 0.028697 0.689171 0.548283
O O8 0.500000 0.500000 0.500000
O O9 0.708622 0.526884 0.621971
O O10 0.500000 0.466650 0.250000
O O11 0.922689 0.105126 0.029189
O O12 0.888338 0.166960 0.215332
O O13 0.000000 0.257310 0.250000
O O14 0.999660 0.223658 0.963144
O O15 0.780756 0.279644 0.807947
#
# Coordination Sequence:
#
# PCOD9276870 Si02
#       7
#     8   8   8   8   4   8   8
#     4  11  26  46  67 101 143 176 225 287 351 401
#     4  10  24  44  73 102 138 182 230 279 334 413
#     4  12  25  44  68 101 136 177 225 282 340 413
#     4  12  25  44  73 100 140 178 224 284 347 410
#     4  12  24  38  72 104 134 180 236 276 348 404
#     4  10  20  40  66 100 136 176 235 285 335 400
#     4  11  24  39  68 100 137 180 233 285 337 413
#
# _framework density 22.133952000000001
#
# number of rings (size 3 to 8) (size 9 to 14) (size 15 to 20)
#    0.000    0.923    3.077    4.615    4.308    0.615 
#    0.000    0.769    6.769    0.000    0.000    0.000 
#    0.000    0.000    0.000    0.000    0.000    0.000 
#
# Total GULP energy -145097.422583 kJ/mol
# GULP energy per Si atom -5580.670099 kJ/mol
# Density = 2.208357 g / cm^3
# Si number density = 22.133952 Si / 1000 Ang^3
#
#
#
# Elastic Constant Matrix: (Units=GPa)
#
#
# Indices 1 2 3 4 5 6 
#
# 1 61.9851 35.9247 -4.3756 0.0000 24.6589 0.0000
# 2 35.9247 152.1696 25.0976 0.0000 29.2123 0.0000
# 3 -4.3756 25.0976 65.4235 0.0000 11.5645 0.0000
# 4 0.0000 0.0000 0.0000 26.4105 0.0000 12.9870
# 5 24.6589 29.2123 11.5645 0.0000 22.7242 0.0000
# 6 0.0000 0.0000 0.0000 12.9870 0.0000 35.4939
#
#
#
# Elastic Compliance Matrix: (Units=1/GPa)
#
#
# Indices 1 2 3 4 5 6 
#
# 1 0.033373 -0.002109 0.009849 0.000000 -0.038514 0.000000
# 2 -0.002109 0.008994 -0.002145 0.000000 -0.008181 0.000000
# 3 0.009849 -0.002145 0.019964 0.000000 -0.018090 0.000000
# 4 0.000000 0.000000 0.000000 0.046171 0.000000 -0.016894
# 5 -0.038514 -0.008181 -0.018090 0.000000 0.105522 0.000000
# 6 0.000000 0.000000 0.000000 -0.016894 0.000000 0.034355
#
#
# Mechanical properties :
#
#
# Convention : Reuss Voigt Hill
#
# Bulk Modulus (GPa) = 13.60179 43.65241 28.62710
# Shear Modulus (GPa) = 19.10608 31.78783 25.44695
#
# Velocity S-wave (km/s) = 2.94122 3.79378 3.39437
# Velocity P-wave (km/s) = 4.20629 6.24140 5.32203
#
# Compressibility (1/GPa) = 0.07351973
#
# Stress axis : x y z
#
# Youngs Moduli (GPa) = 29.96478 111.18546 50.08932
#
# Poissons Ratio (x) = 0.23454 -0.49334
# Poissons Ratio (y) = 0.06321 0.10745
# Poissons Ratio (z) = -0.29513 0.23852
#
# Static dielectric constant tensor:
#      x y z
#    x 1.878410 0.000000 -0.034650 
#    y 0.000000 1.961720 0.000000 
#    z -0.034650 0.000000 1.684580 
# 
# From -- ./inp_files/44937.got.cif
#   From: 2010.05.17/outbox.cif.g08.bks.cpg/sg15_23_cif.got.tgz:44937.got - 2010.06.03 18:47:42.
