data_PCOD9276902
_publ_section_title
;
Structure prediction by ZEFSAII (Michael W. Deem and Ramdas Pophale) SiO2 
 PCOD9276902
Probable space group: C 2/C
;
_chemical_formula_sum "Si O2"
_cell_formula_units_Z 56
_cell_length_a 25.461023
_cell_length_b 9.205549
_cell_length_c 18.255958
_cell_angle_alpha 90.000000
_cell_angle_beta 138.248854
_cell_angle_gamma 90.000000
_cell_volume 2849.292014
_symmetry_space_group_name_H-M "C 2/C"
_symmetry_group_IT_number 15
_symmetry_cell_setting 'monoclinic'
loop_
_space_group_symop_operation_xyz
x,y,z
-x,y,1/2-z
-x,-y,-z
x,-y,1/2+z
1/2+x,1/2+y,z
1/2-x,1/2+y,1/2-z
1/2-x,1/2-y,-z
1/2+x,1/2-y,1/2+z
loop_
_atom_site_type_symbol
_atom_site_label
_atom_site_fract_x
_atom_site_fract_y
_atom_site_fract_z
Si Si1 0.420939 0.862781 0.257171
Si Si2 0.500000 0.112216 0.250000
Si Si3 0.465135 0.206925 0.488229
Si Si4 0.500000 0.381230 0.750000
Si Si5 0.809906 0.474218 0.849865
Si Si6 0.599347 0.537854 0.488083
Si Si7 0.742663 0.818673 0.334028
Si Si8 0.414342 0.214357 0.021119
O O1 0.484187 0.852054 0.389797
O O2 0.436988 0.726968 0.221086
O O3 0.334085 0.849467 0.198448
O O4 0.440184 0.006551 0.231478
O O5 0.454724 0.202324 0.141752
O O6 0.385028 0.114736 0.395142
O O7 0.439622 0.369612 0.486230
O O8 0.520031 0.197900 0.474473
O O9 0.460838 0.465246 0.642350
O O10 0.753610 0.350080 0.824032
O O11 0.767803 0.578573 0.747991
O O12 0.850837 0.585747 0.948681
O O13 0.676036 0.629472 0.545305
O O14 0.621307 0.373471 0.529363
#
# Coordination Sequence:
#
# PCOD9276902 Si02
#       8
#     8   4   8   4   8   8   8   8
#     4  10  20  40  66  89 120 164 215 252 299 374
#     4  11  23  36  66  96 118 172 210 256 308 368
#     4  10  20  40  68  89 113 170 215 255 299 362
#     4   9  21  42  62  88 124 160 216 244 304 368
#     4  11  22  39  60  92 126 157 206 260 311 368
#     4  10  23  39  62  95 125 161 203 262 308 372
#     4  11  23  38  63  93 126 162 203 259 320 359
#     4  12  21  39  64  90 128 157 212 258 307 360
#
# _framework density 19.654005000000002
#
# number of rings (size 3 to 8) (size 9 to 14) (size 15 to 20)
#    0.000    1.429    2.857    3.000    2.000    0.571 
#    2.571    0.714    0.000    0.000    0.000    0.000 
#    0.000    0.000    0.000    0.000    0.000    0.000 
#
# Total GULP energy -156382.424968 kJ/mol
# GULP energy per Si atom -5585.086606 kJ/mol
# Density = 1.960927 g / cm^3
# Si number density = 19.654005 Si / 1000 Ang^3
#
#
#
# Elastic Constant Matrix: (Units=GPa)
#
#
# Indices 1 2 3 4 5 6 
#
# 1 83.2292 34.7398 18.0525 0.0000 6.4725 0.0000
# 2 34.7398 143.0636 30.6784 0.0000 -2.6700 0.0000
# 3 18.0525 30.6784 73.0970 0.0000 -9.3998 0.0000
# 4 0.0000 0.0000 0.0000 102.2008 0.0000 -39.4114
# 5 6.4725 -2.6700 -9.3998 0.0000 25.7647 0.0000
# 6 0.0000 0.0000 0.0000 -39.4114 0.0000 30.0870
#
#
#
# Elastic Compliance Matrix: (Units=1/GPa)
#
#
# Indices 1 2 3 4 5 6 
#
# 1 0.014257 -0.002926 -0.002930 0.000000 -0.004954 0.000000
# 2 -0.002926 0.008286 -0.002675 0.000000 0.000618 0.000000
# 3 -0.002930 -0.002675 0.016353 0.000000 0.006425 0.000000
# 4 0.000000 0.000000 0.000000 0.019773 0.000000 0.025900
# 5 -0.004954 0.000618 0.006425 0.000000 0.042465 0.000000
# 6 0.000000 0.000000 0.000000 0.025900 0.000000 0.067164
#
#
# Mechanical properties :
#
#
# Convention : Reuss Voigt Hill
#
# Bulk Modulus (GPa) = 45.80237 51.81457 48.80847
# Shear Modulus (GPa) = 25.95535 46.00511 35.98023
#
# Velocity S-wave (km/s) = 3.63797 4.84338 4.28329
# Velocity P-wave (km/s) = 6.40323 7.59594 7.02494
#
# Compressibility (1/GPa) = 0.02183293
#
# Stress axis : x y z
#
# Youngs Moduli (GPa) = 70.14022 120.69008 61.15057
#
# Poissons Ratio (x) = 0.35316 0.17917
# Poissons Ratio (y) = 0.20524 0.16360
# Poissons Ratio (z) = 0.20551 0.32289
#
# Static dielectric constant tensor:
#      x y z
#    x 1.666820 0.000000 0.008010 
#    y 0.000000 1.710010 0.000000 
#    z 0.008010 0.000000 1.709510 
# 
# From -- ./inp_files/218553.got.cif
#   From: 2010.05.17/outbox.cif.g08.bks.cpg/sg15_110_cif.got.tgz:218553.got - 2010.06.03 18:47:42.
