data_PCOD9276766
_publ_section_title
;
Structure prediction by ZEFSAII (Michael W. Deem and Ramdas Pophale) SiO2 
 PCOD9276766
Probable space group: C 2/C
;
_chemical_formula_sum "Si O2"
_cell_formula_units_Z 52
_cell_length_a 12.984715
_cell_length_b 10.594100
_cell_length_c 29.250725
_cell_angle_alpha 90.000000
_cell_angle_beta 35.553880
_cell_angle_gamma 90.000000
_cell_volume 2339.694492
_symmetry_space_group_name_H-M "C 2/C"
_symmetry_group_IT_number 15
_symmetry_cell_setting 'monoclinic'
loop_
_space_group_symop_operation_xyz
x,y,z
-x,y,1/2-z
-x,-y,-z
x,-y,1/2+z
1/2+x,1/2+y,z
1/2-x,1/2+y,1/2-z
1/2-x,1/2-y,-z
1/2+x,1/2-y,1/2+z
loop_
_atom_site_type_symbol
_atom_site_label
_atom_site_fract_x
_atom_site_fract_y
_atom_site_fract_z
Si Si1 0.999680 0.641410 0.608336
Si Si2 0.500000 0.500000 0.500000
Si Si3 0.295138 0.096678 0.432221
Si Si4 0.197561 0.212969 0.185541
Si Si5 0.978583 0.857621 0.392433
Si Si6 0.310334 0.229830 0.046481
Si Si7 0.881743 0.055469 0.748874
O O1 0.063232 0.506584 0.604952
O O2 0.120795 0.744381 0.590572
O O3 0.064031 0.651953 0.532694
O O4 0.790109 0.645622 0.690705
O O5 0.698815 0.568916 0.419786
O O6 0.601639 0.365817 0.475879
O O7 0.368903 0.234603 0.415726
O O8 0.119893 0.079255 0.528679
O O9 0.332198 0.311243 0.158288
O O10 0.275964 0.171243 0.108272
O O11 0.000000 0.265422 0.250000
O O12 0.180942 0.087562 0.221179
O O13 0.006522 0.939513 0.337769
O O14 0.000000 0.088734 0.750000
#
# Coordination Sequence:
#
# PCOD9276766 Si02
#       7
#     8   4   8   8   8   8   8
#     4  10  22  42  65  98 127 170 216 271 324 394
#     4  10  20  40  64  98 122 162 224 262 328 380
#     4  10  22  40  70  93 126 171 220 275 325 386
#     4  11  23  42  65  94 130 175 213 267 333 404
#     4  11  23  44  63  95 130 171 214 280 326 390
#     4  10  22  40  69  95 130 167 218 271 324 400
#     4  11  26  41  61  94 133 168 217 263 334 397
#
# _framework density 22.225124000000001
#
# number of rings (size 3 to 8) (size 9 to 14) (size 15 to 20)
#    0.000    1.538    3.077    0.923    6.462    0.615 
#    2.769    0.000    0.000    0.000    0.000    0.000 
#    0.000    0.000    0.000    0.000    0.000    0.000 
#
# Total GULP energy -144859.431897 kJ/mol
# GULP energy per Si atom -5571.516611 kJ/mol
# Density = 2.217454 g / cm^3
# Si number density = 22.225124 Si / 1000 Ang^3
#
#
#
# Elastic Constant Matrix: (Units=GPa)
#
#
# Indices 1 2 3 4 5 6 
#
# 1 56.2070 -4.6873 19.2066 0.0000 -19.7646 0.0000
# 2 -4.6873 37.2764 8.1632 0.0000 -1.0639 0.0000
# 3 19.2066 8.1632 69.9921 0.0001 -2.8051 0.0000
# 4 0.0000 0.0000 0.0001 29.0860 0.0000 2.9070
# 5 -19.7646 -1.0639 -2.8051 0.0000 53.9651 0.0000
# 6 0.0000 0.0000 0.0000 2.9070 0.0000 5.1510
#
#
#
# Elastic Compliance Matrix: (Units=1/GPa)
#
#
# Indices 1 2 3 4 5 6 
#
# 1 0.023357 0.004623 -0.006616 0.000000 0.008302 0.000000
# 2 0.004623 0.028452 -0.004506 0.000000 0.002020 0.000000
# 3 -0.006616 -0.004506 0.016562 0.000000 -0.001651 0.000000
# 4 0.000000 0.000000 0.000000 0.036436 0.000000 -0.020563
# 5 0.008302 0.002020 -0.001651 0.000000 0.021525 0.000000
# 6 0.000000 0.000000 0.000000 -0.020563 0.000000 0.205742
#
#
# Mechanical properties :
#
#
# Convention : Reuss Voigt Hill
#
# Bulk Modulus (GPa) = 18.05933 23.20451 20.63192
# Shear Modulus (GPa) = 13.75401 27.02662 20.39032
#
# Velocity S-wave (km/s) = 2.49037 3.49096 3.03222
# Velocity P-wave (km/s) = 4.05124 5.16840 4.64354
#
# Compressibility (1/GPa) = 0.05537304
#
# Stress axis : x y z
#
# Youngs Moduli (GPa) = 42.81421 35.14656 60.37874
#
# Poissons Ratio (x) = -0.16247 0.39945
# Poissons Ratio (y) = -0.19792 0.27206
# Poissons Ratio (z) = 0.28325 0.15837
#
# Static dielectric constant tensor:
#      x y z
#    x 1.682570 0.000000 -0.015690 
#    y 0.000000 1.760070 0.000000 
#    z -0.015690 0.000000 1.823950 
# 
# From -- ./inp_files/310758.got.cif
#   From: 2010.05.17/outbox.cif.g08.bks.cpg/sg15_156_cif.got.tgz:310758.got - 2010.06.03 18:47:42.
