data_PCOD9276225
_publ_section_title
;
Structure prediction by ZEFSAII (Michael W. Deem and Ramdas Pophale) SiO2 
 PCOD9276225
Probable space group: C 2/C
;
_chemical_formula_sum "Si O2"
_cell_formula_units_Z 60
_cell_length_a 9.839337
_cell_length_b 8.432664
_cell_length_c 28.826205
_cell_angle_alpha 90.000000
_cell_angle_beta 87.072561
_cell_angle_gamma 90.000000
_cell_volume 2388.641558
_symmetry_space_group_name_H-M "C 2/C"
_symmetry_group_IT_number 15
_symmetry_cell_setting 'monoclinic'
loop_
_space_group_symop_operation_xyz
x,y,z
-x,y,1/2-z
-x,-y,-z
x,-y,1/2+z
1/2+x,1/2+y,z
1/2-x,1/2+y,1/2-z
1/2-x,1/2-y,-z
1/2+x,1/2-y,1/2+z
loop_
_atom_site_type_symbol
_atom_site_label
_atom_site_fract_x
_atom_site_fract_y
_atom_site_fract_z
Si Si1 0.338790 0.919947 0.010725
Si Si2 0.262974 0.932440 0.425396
Si Si3 0.057988 0.452008 0.390580
Si Si4 0.500000 0.849349 0.750000
Si Si5 0.881766 0.853618 0.319438
Si Si6 0.640296 0.642374 0.354238
Si Si7 0.284381 0.665471 0.354599
Si Si8 0.252630 0.429071 0.222635
O O1 0.349116 0.917665 0.065827
O O2 0.250000 0.750000 0.000000
O O3 0.500000 0.000000 0.000000
O O4 0.253588 0.042117 0.980351
O O5 0.409862 0.007439 0.408980
O O6 0.273066 0.757669 0.403895
O O7 0.150063 0.023999 0.397624
O O8 0.038214 0.286516 0.363923
O O9 0.141580 0.569234 0.357285
O O10 0.489657 0.735904 0.704867
O O11 0.377266 0.962840 0.764285
O O12 0.785629 0.737750 0.350117
O O13 0.803078 0.883051 0.272366
O O14 0.889826 0.019797 0.346125
O O15 0.646276 0.547258 0.306392
O O16 0.289960 0.789615 0.312115
#
# Coordination Sequence:
#
# PCOD9276225 Si02
#       8
#     8   8   8   4   8   8   8   8
#     4  10  20  39  73  99 134 184 226 276 355 428
#     4  10  21  38  61  90 125 160 215 255 336 394
#     4  10  21  39  63  86 123 166 202 270 330 388
#     4  10  22  38  58  78 112 162 200 260 322 378
#     4  10  21  36  56  85 117 158 213 256 325 386
#     4   9  19  35  56  82 115 159 201 257 311 393
#     4  10  22  37  58  93 121 161 215 276 316 407
#     4  10  21  37  58  85 118 161 212 259 324 389
#
# _framework density 25.118877000000001
#
# number of rings (size 3 to 8) (size 9 to 14) (size 15 to 20)
#    0.000    2.133    1.333    1.600    0.000   11.733 
#    0.000    4.000    0.000    3.200    0.000    0.000 
#    0.000    0.000    0.000    0.000    0.000    0.000 
#
# Total GULP energy -167133.308222 kJ/mol
# GULP energy per Si atom -5571.110274 kJ/mol
# Density = 2.506171 g / cm^3
# Si number density = 25.118877 Si / 1000 Ang^3
#
#
#
# Elastic Constant Matrix: (Units=GPa)
#
#
# Indices 1 2 3 4 5 6 
#
# 1 64.7798 25.3105 21.9646 0.0000 9.2374 0.0000
# 2 25.3105 137.1162 53.1999 0.0000 17.3507 0.0000
# 3 21.9646 53.1999 100.7338 0.0000 33.3393 0.0000
# 4 0.0000 0.0000 0.0000 46.5221 0.0000 10.6381
# 5 9.2374 17.3507 33.3393 0.0000 44.8187 0.0000
# 6 0.0000 0.0000 0.0000 10.6381 0.0000 39.9129
#
#
#
# Elastic Compliance Matrix: (Units=1/GPa)
#
#
# Indices 1 2 3 4 5 6 
#
# 1 0.017198 -0.002165 -0.002269 0.000000 -0.001018 0.000000
# 2 -0.002165 0.009445 -0.004582 0.000000 0.000198 0.000000
# 3 -0.002269 -0.004582 0.016052 0.000000 -0.009699 0.000000
# 4 0.000000 0.000000 0.000000 0.022890 0.000000 -0.006101
# 5 -0.001018 0.000198 -0.009699 0.000000 0.029660 0.000000
# 6 0.000000 0.000000 0.000000 -0.006101 0.000000 0.026681
#
#
# Mechanical properties :
#
#
# Convention : Reuss Voigt Hill
#
# Bulk Modulus (GPa) = 40.54812 55.95329 48.25071
# Shear Modulus (GPa) = 33.74300 39.72772 36.73536
#
# Velocity S-wave (km/s) = 3.66913 3.98123 3.82836
# Velocity P-wave (km/s) = 5.84188 6.59222 6.22836
#
# Compressibility (1/GPa) = 0.02466206
#
# Stress axis : x y z
#
# Youngs Moduli (GPa) = 58.14784 105.87186 62.29875
#
# Poissons Ratio (x) = 0.22923 0.14138
# Poissons Ratio (y) = 0.12590 0.28543
# Poissons Ratio (z) = 0.13196 0.48507
#
# Static dielectric constant tensor:
#      x y z
#    x 2.161660 0.000000 -0.034490 
#    y 0.000000 2.086080 0.000000 
#    z -0.034490 0.000000 1.914450 
# 
# From -- ./inp_files/309984.got.cif
#   From: 2010.05.17/outbox.cif.g08.bks.cpg/sg15_155_cif.got.tgz:309984.got - 2010.06.03 18:47:42.
