data_PCOD9276436
_publ_section_title
;
Structure prediction by ZEFSAII (Michael W. Deem and Ramdas Pophale) SiO2 
 PCOD9276436
Probable space group: C 2/C
;
_chemical_formula_sum "Si O2"
_cell_formula_units_Z 56
_cell_length_a 12.098539
_cell_length_b 7.531159
_cell_length_c 29.071324
_cell_angle_alpha 90.000000
_cell_angle_beta 70.237925
_cell_angle_gamma 90.000000
_cell_volume 2492.857971
_symmetry_space_group_name_H-M "C 2/C"
_symmetry_group_IT_number 15
_symmetry_cell_setting 'monoclinic'
loop_
_space_group_symop_operation_xyz
x,y,z
-x,y,1/2-z
-x,-y,-z
x,-y,1/2+z
1/2+x,1/2+y,z
1/2-x,1/2+y,1/2-z
1/2-x,1/2-y,-z
1/2+x,1/2-y,1/2+z
loop_
_atom_site_type_symbol
_atom_site_label
_atom_site_fract_x
_atom_site_fract_y
_atom_site_fract_z
Si Si1 0.546974 0.369719 0.602738
Si Si2 0.138336 0.537075 0.738590
Si Si3 0.762983 0.346807 0.902691
Si Si4 0.253179 0.229486 0.860627
Si Si5 0.307454 0.767386 0.178832
Si Si6 0.498956 0.783555 0.912093
Si Si7 0.030231 0.796118 0.983705
O O1 0.662187 0.323208 0.614949
O O2 0.434055 0.316552 0.648950
O O3 0.537525 0.578057 0.592360
O O4 0.534049 0.264940 0.555947
O O5 0.181007 0.689417 0.696487
O O6 0.216753 0.368888 0.714736
O O7 0.167192 0.587014 0.786646
O O8 0.000000 0.507368 0.750000
O O9 0.723558 0.535307 0.886786
O O10 0.752658 0.205330 0.862584
O O11 0.669474 0.288723 0.954021
O O12 0.892474 0.382326 0.902780
O O13 0.126537 0.319547 0.873570
O O14 0.503288 0.812676 0.966355
O O15 0.000000 0.000000 0.000000
#
# Coordination Sequence:
#
# PCOD9276436 Si02
#       7
#     8   8   8   8   8   8   8
#     4  10  20  40  62  84 123 155 194 241 298 344
#     4  11  22  40  63  85 119 156 196 244 299 349
#     4  10  21  40  62  88 124 154 197 243 293 349
#     4  11  22  40  60  86 121 155 193 248 294 345
#     4  10  22  42  60  88 118 154 196 248 292 351
#     4  11  21  40  62  88 122 158 196 239 294 351
#     4   9  17  38  64  84 120 164 187 241 298 343
#
# _framework density 22.464176999999999
#
# number of rings (size 3 to 8) (size 9 to 14) (size 15 to 20)
#    0.000    1.714    7.143    0.429    0.000    4.000 
#    5.143    0.714    0.000    0.000    0.000    0.000 
#    0.000    0.000    0.000    0.000    0.000    0.000 
#
# Total GULP energy -156468.309955 kJ/mol
# GULP energy per Si atom -5588.153927 kJ/mol
# Density = 2.241305 g / cm^3
# Si number density = 22.464177 Si / 1000 Ang^3
#
#
#
# Elastic Constant Matrix: (Units=GPa)
#
#
# Indices 1 2 3 4 5 6 
#
# 1 154.1175 22.5465 32.5026 0.0000 2.3825 0.0000
# 2 22.5465 32.3911 25.1834 0.0000 8.6658 0.0000
# 3 32.5026 25.1834 111.2931 0.0000 -0.5957 0.0000
# 4 0.0000 0.0000 0.0000 18.8686 0.0000 5.3386
# 5 2.3825 8.6658 -0.5957 0.0000 16.9262 0.0000
# 6 0.0000 0.0000 0.0000 5.3386 0.0000 27.3069
#
#
#
# Elastic Compliance Matrix: (Units=1/GPa)
#
#
# Indices 1 2 3 4 5 6 
#
# 1 0.007377 -0.004624 -0.001101 0.000000 0.001290 0.000000
# 2 -0.004624 0.048115 -0.009667 0.000000 -0.024323 0.000000
# 3 -0.001101 -0.009667 0.011524 0.000000 0.005510 0.000000
# 4 0.000000 0.000000 0.000000 0.056101 0.000000 -0.010968
# 5 0.001290 -0.024323 0.005510 0.000000 0.071545 0.000000
# 6 0.000000 0.000000 0.000000 -0.010968 0.000000 0.038765
#
#
# Mechanical properties :
#
#
# Convention : Reuss Voigt Hill
#
# Bulk Modulus (GPa) = 27.60078 50.91853 39.25965
# Shear Modulus (GPa) = 18.09696 27.12496 22.61096
#
# Velocity S-wave (km/s) = 2.84137 3.47865 3.17603
# Velocity P-wave (km/s) = 4.80394 6.23301 5.56454
#
# Compressibility (1/GPa) = 0.03623087
#
# Stress axis : x y z
#
# Youngs Moduli (GPa) = 135.55010 20.78368 86.77649
#
# Poissons Ratio (x) = 0.09611 0.09556
# Poissons Ratio (y) = 0.62680 0.83888
# Poissons Ratio (z) = 0.14928 0.20092
#
# Static dielectric constant tensor:
#      x y z
#    x 1.813540 0.000000 0.016300 
#    y 0.000000 1.879430 0.000000 
#    z 0.016300 0.000000 1.828770 
# 
# From -- ./inp_files/291489.got.cif
#   From: 2010.05.17/outbox.cif.g08.bks.cpg/sg15_146_cif.got.tgz:291489.got - 2010.06.03 18:47:42.
