data_PCOD9276962
_publ_section_title
;
Structure prediction by ZEFSAII (Michael W. Deem and Ramdas Pophale) SiO2 
 PCOD9276962
Probable space group: C 2/C
;
_chemical_formula_sum "Si O2"
_cell_formula_units_Z 44
_cell_length_a 16.170009
_cell_length_b 12.210001
_cell_length_c 27.125411
_cell_angle_alpha 90.000000
_cell_angle_beta 156.851215
_cell_angle_gamma 90.000000
_cell_volume 2105.366020
_symmetry_space_group_name_H-M "C 2/C"
_symmetry_group_IT_number 15
_symmetry_cell_setting 'monoclinic'
loop_
_space_group_symop_operation_xyz
x,y,z
-x,y,1/2-z
-x,-y,-z
x,-y,1/2+z
1/2+x,1/2+y,z
1/2-x,1/2+y,1/2-z
1/2-x,1/2-y,-z
1/2+x,1/2-y,1/2+z
loop_
_atom_site_type_symbol
_atom_site_label
_atom_site_fract_x
_atom_site_fract_y
_atom_site_fract_z
Si Si1 0.500000 0.190458 0.750000
Si Si2 0.747766 0.621894 0.877730
Si Si3 0.458544 0.512800 0.395784
Si Si4 0.948511 0.819655 0.465032
Si Si5 0.828268 0.372364 0.053721
Si Si6 0.584141 0.997488 0.622905
O O1 0.274118 0.241518 0.643185
O O2 0.555058 0.124399 0.829598
O O3 0.500000 0.629762 0.750000
O O4 0.791929 0.537895 0.857192
O O5 0.857812 0.737419 0.927351
O O6 0.891267 0.578205 0.001263
O O7 0.441292 0.391305 0.410399
O O8 0.512689 0.592973 0.470475
O O9 0.643682 0.538160 0.458207
O O10 0.245983 0.547982 0.251735
O O11 0.980833 0.399458 0.092983
O O12 0.750000 0.250000 0.000000
#
# Coordination Sequence:
#
# PCOD9276962 Si02
#       6
#     4   8   8   8   8   8
#     4  10  20  40  66  96 128 168 220 268 322 394
#     4  11  26  45  64  98 138 181 220 275 344 399
#     4  10  22  40  66  99 129 171 226 274 329 387
#     4  10  22  42  67  98 136 171 222 276 329 401
#     4  11  23  40  67  98 129 171 222 277 328 399
#     4  11  23  44  67  94 134 175 228 274 329 404
#
# _framework density 20.898978
#
# number of rings (size 3 to 8) (size 9 to 14) (size 15 to 20)
#    0.000    1.455    1.818    3.273    2.545    2.909 
#   11.455    2.727    0.000    0.000    0.000    0.000 
#    0.000    0.000    0.000    0.000    0.000    0.000 
#
# Total GULP energy -122633.116441 kJ/mol
# GULP energy per Si atom -5574.232565 kJ/mol
# Density = 2.085141 g / cm^3
# Si number density = 20.898978 Si / 1000 Ang^3
#
#
#
# Elastic Constant Matrix: (Units=GPa)
#
#
# Indices 1 2 3 4 5 6 
#
# 1 64.7343 8.8184 38.7489 -0.0012 19.2447 -0.0008
# 2 8.8184 29.1562 9.6499 0.0034 12.7934 -0.0016
# 3 38.7489 9.6499 135.9245 0.0128 26.0243 -0.0041
# 4 -0.0012 0.0034 0.0128 21.6570 -0.0032 6.9679
# 5 19.2447 12.7934 26.0243 -0.0032 47.1848 -0.0007
# 6 -0.0008 -0.0016 -0.0041 6.9679 -0.0007 16.5728
#
#
#
# Elastic Compliance Matrix: (Units=1/GPa)
#
#
# Indices 1 2 3 4 5 6 
#
# 1 0.019991 -0.002340 -0.004576 0.000004 -0.004995 -0.000002
# 2 -0.002340 0.039287 -0.000297 -0.000010 -0.009534 0.000007
# 3 -0.004576 -0.000297 0.009291 -0.000008 -0.003177 0.000005
# 4 0.000004 -0.000010 -0.000008 0.053398 0.000009 -0.022451
# 5 -0.004995 -0.009534 -0.003177 0.000009 0.027568 -0.000004
# 6 -0.000002 0.000007 0.000005 -0.022451 -0.000004 0.069779
#
#
# Mechanical properties :
#
#
# Convention : Reuss Voigt Hill
#
# Bulk Modulus (GPa) = 18.46956 38.24995 28.35975
# Shear Modulus (GPa) = 19.85797 28.58943 24.22370
#
# Velocity S-wave (km/s) = 3.08586 3.70264 3.40823
# Velocity P-wave (km/s) = 4.64257 6.05156 5.39327
#
# Compressibility (1/GPa) = 0.05414314
#
# Stress axis : x y z
#
# Youngs Moduli (GPa) = 50.02292 25.45343 107.63005
#
# Poissons Ratio (x) = 0.05956 0.49257
# Poissons Ratio (y) = 0.11705 0.03193
# Poissons Ratio (z) = 0.22893 0.00755
#
# Static dielectric constant tensor:
#      x y z
#    x 1.777840 0.000000 0.026610 
#    y 0.000000 1.752110 0.000000 
#    z 0.026610 0.000000 1.779250 
# 
# From -- ./inp_files/160730.got.cif
#   From: 2010.05.17/outbox.cif.g08.bks.cpg/sg15_81_cif.got.tgz:160730.got - 2010.06.03 18:47:42.
