data_PCOD9276573
_publ_section_title
;
Structure prediction by ZEFSAII (Michael W. Deem and Ramdas Pophale) SiO2 
 PCOD9276573
Probable space group: C 2/C
;
_chemical_formula_sum "Si O2"
_cell_formula_units_Z 48
_cell_length_a 19.514424
_cell_length_b 15.674734
_cell_length_c 15.706405
_cell_angle_alpha 90.000000
_cell_angle_beta 149.197285
_cell_angle_gamma 90.000000
_cell_volume 2460.217749
_symmetry_space_group_name_H-M "C 2/C"
_symmetry_group_IT_number 15
_symmetry_cell_setting 'monoclinic'
loop_
_space_group_symop_operation_xyz
x,y,z
-x,y,1/2-z
-x,-y,-z
x,-y,1/2+z
1/2+x,1/2+y,z
1/2-x,1/2+y,1/2-z
1/2-x,1/2-y,-z
1/2+x,1/2-y,1/2+z
loop_
_atom_site_type_symbol
_atom_site_label
_atom_site_fract_x
_atom_site_fract_y
_atom_site_fract_z
Si Si1 0.500000 0.226445 0.750000
Si Si2 0.106497 0.822899 0.517586
Si Si3 0.500000 0.932368 0.750000
Si Si4 0.555502 0.643556 0.155562
Si Si5 0.114258 0.990110 0.945590
Si Si6 0.193957 0.572440 0.991059
Si Si7 0.647351 0.219860 0.317362
O O1 0.459199 0.286265 0.785537
O O2 0.618801 0.162162 0.901636
O O3 0.069627 0.820335 0.577010
O O4 0.252567 0.782627 0.656087
O O5 0.982737 0.778082 0.336558
O O6 0.121390 0.918573 0.497173
O O7 0.411180 0.870704 0.714158
O O8 0.592277 0.996181 0.903533
O O9 0.431008 0.580198 0.034690
O O10 0.686560 0.587021 0.315987
O O11 0.000000 0.994170 0.750000
O O12 0.242564 0.956460 0.031399
O O13 0.750000 0.250000 0.500000
#
# Coordination Sequence:
#
# PCOD9276573 Si02
#       7
#     4   8   4   8   8   8   8
#     4  11  22  40  65  94 124 178 217 264 354 389
#     4  12  26  39  67 103 135 172 229 279 337 395
#     4  11  22  42  67  96 122 182 227 266 340 409
#     4  11  24  40  65  94 133 171 223 280 331 398
#     4  10  20  40  63  89 125 175 217 266 331 401
#     4  10  22  40  68  90 125 173 223 273 327 415
#     4  12  24  43  68  98 136 179 219 277 340 411
#
# _framework density 19.510467999999999
#
# number of rings (size 3 to 8) (size 9 to 14) (size 15 to 20)
#    0.000    1.000    5.833    2.000    4.667    0.000 
#    0.000    2.500    0.000    0.000    0.000    0.000 
#    0.000    0.000    0.000    0.000    0.000    0.000 
#
# Total GULP energy -133984.348222 kJ/mol
# GULP energy per Si atom -5582.681176 kJ/mol
# Density = 1.946606 g / cm^3
# Si number density = 19.510468 Si / 1000 Ang^3
#
#
#
# Elastic Constant Matrix: (Units=GPa)
#
#
# Indices 1 2 3 4 5 6 
#
# 1 104.7486 27.9410 31.9444 0.0000 2.4969 0.0000
# 2 27.9410 98.9752 36.7025 0.0000 8.7719 0.0000
# 3 31.9444 36.7025 72.8301 0.0002 17.7565 0.0001
# 4 0.0000 0.0000 0.0002 25.9056 0.0001 12.7874
# 5 2.4969 8.7719 17.7565 0.0001 30.9819 0.0001
# 6 0.0000 0.0000 0.0001 12.7874 0.0001 25.5091
#
#
#
# Elastic Compliance Matrix: (Units=1/GPa)
#
#
# Indices 1 2 3 4 5 6 
#
# 1 0.011370 -0.001668 -0.004694 0.000000 0.002246 0.000000
# 2 -0.001668 0.012671 -0.005593 0.000000 -0.000247 0.000000
# 3 -0.004694 -0.005593 0.021075 0.000000 -0.010116 0.000000
# 4 0.000000 0.000000 0.000000 0.051294 0.000000 -0.025713
# 5 0.002246 -0.000247 -0.010116 0.000000 0.037964 0.000000
# 6 0.000000 0.000000 0.000000 -0.025713 0.000000 0.052091
#
#
# Mechanical properties :
#
#
# Convention : Reuss Voigt Hill
#
# Bulk Modulus (GPa) = 47.16074 52.19220 49.67647
# Shear Modulus (GPa) = 22.99461 28.47705 25.73583
#
# Velocity S-wave (km/s) = 3.43677 3.82459 3.63585
# Velocity P-wave (km/s) = 6.32242 6.80531 6.56830
#
# Compressibility (1/GPa) = 0.02120408
#
# Stress axis : x y z
#
# Youngs Moduli (GPa) = 87.95435 78.92335 47.45049
#
# Poissons Ratio (x) = 0.13165 0.22272
# Poissons Ratio (y) = 0.14672 0.26541
# Poissons Ratio (z) = 0.41284 0.44144
#
# Static dielectric constant tensor:
#      x y z
#    x 1.707840 0.000000 0.034420 
#    y 0.000000 1.683910 0.000000 
#    z 0.034420 0.000000 1.700510 
# 
# From -- ./inp_files/215435.got.cif
#   From: 2010.05.17/outbox.cif.g08.bks.cpg/sg15_108_cif.got.tgz:215435.got - 2010.06.03 18:47:42.
