data_PCOD9276186
_publ_section_title
;
Structure prediction by ZEFSAII (Michael W. Deem and Ramdas Pophale) SiO2 
 PCOD9276186
Probable space group: C 2/C
;
_chemical_formula_sum "Si O2"
_cell_formula_units_Z 64
_cell_length_a 31.059928
_cell_length_b 8.713510
_cell_length_c 16.327830
_cell_angle_alpha 90.000000
_cell_angle_beta 47.121715
_cell_angle_gamma 90.000000
_cell_volume 3238.232342
_symmetry_space_group_name_H-M "C 2/C"
_symmetry_group_IT_number 15
_symmetry_cell_setting 'monoclinic'
loop_
_space_group_symop_operation_xyz
x,y,z
-x,y,1/2-z
-x,-y,-z
x,-y,1/2+z
1/2+x,1/2+y,z
1/2-x,1/2+y,1/2-z
1/2-x,1/2-y,-z
1/2+x,1/2-y,1/2+z
loop_
_atom_site_type_symbol
_atom_site_label
_atom_site_fract_x
_atom_site_fract_y
_atom_site_fract_z
Si Si1 0.341534 0.355365 0.837269
Si Si2 0.103757 0.585798 0.273979
Si Si3 0.910038 0.954086 0.584406
Si Si4 0.449594 0.829886 0.247859
Si Si5 0.314781 0.686486 0.928091
Si Si6 0.193955 0.861401 0.881131
Si Si7 0.205173 0.616015 0.718753
Si Si8 0.991507 0.751590 0.001209
O O1 0.377303 0.418060 0.711873
O O2 0.392422 0.280293 0.827700
O O3 0.314598 0.504416 0.913313
O O4 0.295102 0.233027 0.859350
O O5 0.079491 0.496119 0.226265
O O6 0.141715 0.728018 0.190876
O O7 0.144769 0.474842 0.276069
O O8 0.048733 0.632916 0.399790
O O9 0.859638 0.961634 0.583331
O O10 0.954988 0.813775 0.512797
O O11 0.948771 0.104886 0.539389
O O12 0.500000 0.815270 0.250000
O O13 0.480821 0.798305 0.120245
O O14 0.250000 0.750000 0.000000
O O15 0.327302 0.714588 0.007175
O O16 0.206415 0.729275 0.796504
O O17 0.247103 0.980631 0.830627
#
# Coordination Sequence:
#
# PCOD9276186 Si02
#       8
#     8   8   8   8   8   8   8   8
#     4   9  21  44  63  88 135 168 214 268 323 391
#     4  11  23  44  65  94 132 176 210 272 332 388
#     4   9  20  39  64  96 118 171 213 262 319 386
#     4  10  23  40  63  98 130 167 219 267 326 385
#     4  12  25  42  65  97 133 171 219 271 332 383
#     4  11  25  41  65  98 126 167 228 270 317 392
#     4  10  24  42  66  92 129 174 219 268 325 388
#     4  10  20  39  70  89 129 171 213 258 329 389
#
# _framework density 19.763869
#
# number of rings (size 3 to 8) (size 9 to 14) (size 15 to 20)
#    0.000    1.750    2.500    1.125    7.000    2.500 
#    0.000    0.625    0.000    0.000    0.000    0.000 
#    0.000    0.000    0.000    0.000    0.000    0.000 
#
# Total GULP energy -178424.753272 kJ/mol
# GULP energy per Si atom -5575.773540 kJ/mol
# Density = 1.971889 g / cm^3
# Si number density = 19.763869 Si / 1000 Ang^3
#
#
#
# Elastic Constant Matrix: (Units=GPa)
#
#
# Indices 1 2 3 4 5 6 
#
# 1 129.1542 42.3123 18.4308 -0.0001 -1.8967 0.0001
# 2 42.3123 102.5214 29.9228 0.0000 -0.7439 0.0002
# 3 18.4308 29.9228 57.9217 0.0000 -2.6804 0.0000
# 4 -0.0001 0.0000 0.0000 35.0181 0.0000 -7.0717
# 5 -1.8967 -0.7439 -2.6804 0.0000 20.9532 -0.0001
# 6 0.0001 0.0002 0.0000 -7.0717 -0.0001 23.3941
#
#
#
# Elastic Compliance Matrix: (Units=1/GPa)
#
#
# Indices 1 2 3 4 5 6 
#
# 1 0.009020 -0.003401 -0.001087 0.000000 0.000557 0.000000
# 2 -0.003401 0.012771 -0.005541 0.000000 -0.000563 0.000000
# 3 -0.001087 -0.005541 0.020582 0.000000 0.002338 0.000000
# 4 0.000000 0.000000 0.000000 0.030413 0.000000 0.009193
# 5 0.000557 -0.000563 0.002338 0.000000 0.048055 0.000000
# 6 0.000000 0.000000 0.000000 0.009193 0.000000 0.045525
#
#
# Mechanical properties :
#
#
# Convention : Reuss Voigt Hill
#
# Bulk Modulus (GPa) = 44.81740 52.32545 48.57143
# Shear Modulus (GPa) = 25.79127 29.13517 27.46322
#
# Velocity S-wave (km/s) = 3.61636 3.84365 3.73173
# Velocity P-wave (km/s) = 6.33743 6.79934 6.57244
#
# Compressibility (1/GPa) = 0.02231276
#
# Stress axis : x y z
#
# Youngs Moduli (GPa) = 110.86005 78.30131 48.58712
#
# Poissons Ratio (x) = 0.26634 0.05283
# Poissons Ratio (y) = 0.37709 0.26924
# Poissons Ratio (z) = 0.12054 0.43390
#
# Static dielectric constant tensor:
#      x y z
#    x 1.458150 0.000000 0.017890 
#    y 0.000000 1.765550 0.000000 
#    z 0.017890 0.000000 1.687930 
# 
# From -- ./inp_files/181135.got.cif
#   From: 2010.05.17/outbox.cif.g08.bks.cpg/sg15_91_cif.got.tgz:181135.got - 2010.06.03 18:47:42.
