data_PCOD9276364
_publ_section_title
;
Structure prediction by ZEFSAII (Michael W. Deem and Ramdas Pophale) SiO2 
 PCOD9276364
Probable space group: C 2/C
;
_chemical_formula_sum "Si O2"
_cell_formula_units_Z 36
_cell_length_a 9.411781
_cell_length_b 23.444242
_cell_length_c 7.997308
_cell_angle_alpha 90.000000
_cell_angle_beta 129.603964
_cell_angle_gamma 90.000000
_cell_volume 1359.587240
_symmetry_space_group_name_H-M "C 2/C"
_symmetry_group_IT_number 15
_symmetry_cell_setting 'monoclinic'
loop_
_space_group_symop_operation_xyz
x,y,z
-x,y,1/2-z
-x,-y,-z
x,-y,1/2+z
1/2+x,1/2+y,z
1/2-x,1/2+y,1/2-z
1/2-x,1/2-y,-z
1/2+x,1/2-y,1/2+z
loop_
_atom_site_type_symbol
_atom_site_label
_atom_site_fract_x
_atom_site_fract_y
_atom_site_fract_z
Si Si1 0.000000 0.258379 0.250000
Si Si2 0.302966 0.435661 0.015364
Si Si3 0.813437 0.448450 0.215052
Si Si4 0.712290 0.183122 0.461658
Si Si5 0.158476 0.166794 0.563295
O O1 0.829546 0.300957 0.100460
O O2 0.997175 0.212238 0.399389
O O3 0.500000 0.443892 0.250000
O O4 0.160534 0.439333 0.065985
O O5 0.261330 0.488004 0.865114
O O6 0.298314 0.372471 0.932645
O O7 0.671080 0.400344 0.036806
O O8 0.000000 0.441237 0.250000
O O9 0.500000 0.178838 0.250000
O O10 0.750000 0.250000 0.500000
O O11 0.783908 0.169095 0.701671
#
# Coordination Sequence:
#
# PCOD9276364 Si02
#       5
#     4   8   8   8   8
#     4  10  20  40  60  96 132 170 216 272 334 396
#     4  11  25  44  67 101 137 179 229 284 341 409
#     4  11  23  44  67  97 137 176 232 280 343 407
#     4  11  23  42  67  98 134 175 225 278 337 402
#     4  10  22  39  65  96 132 171 223 271 338 395
#
# _framework density 26.478622999999999
#
# number of rings (size 3 to 8) (size 9 to 14) (size 15 to 20)
#    0.000    1.333    1.111    4.000    1.556    3.556 
#    8.000    0.000    0.000    0.000    0.000    0.000 
#    0.000    0.000    0.000    0.000    0.000    0.000 
#
# Total GULP energy -100509.829289 kJ/mol
# GULP energy per Si atom -5583.879405 kJ/mol
# Density = 2.641836 g / cm^3
# Si number density = 26.478623 Si / 1000 Ang^3
#
#
#
# Elastic Constant Matrix: (Units=GPa)
#
#
# Indices 1 2 3 4 5 6 
#
# 1 59.9157 18.4183 -12.1356 0.0000 1.2385 0.0000
# 2 18.4183 274.1143 43.5884 0.0000 -8.4555 0.0000
# 3 -12.1356 43.5884 70.0209 0.0000 18.3388 0.0000
# 4 0.0000 0.0000 0.0000 45.7291 0.0000 -10.9203
# 5 1.2385 -8.4555 18.3388 0.0000 32.2713 0.0000
# 6 0.0000 0.0000 0.0000 -10.9203 0.0000 24.9194
#
#
#
# Elastic Compliance Matrix: (Units=1/GPa)
#
#
# Indices 1 2 3 4 5 6 
#
# 1 0.018711 -0.002346 0.005936 0.000000 -0.004706 0.000000
# 2 -0.002346 0.004593 -0.004235 0.000000 0.003700 0.000000
# 3 0.005936 -0.004235 0.021496 0.000000 -0.013553 0.000000
# 4 0.000000 0.000000 0.000000 0.024424 0.000000 0.010703
# 5 -0.004706 0.003700 -0.013553 0.000000 0.039839 0.000000
# 6 0.000000 0.000000 0.000000 0.010703 0.000000 0.044820
#
#
# Mechanical properties :
#
#
# Convention : Reuss Voigt Hill
#
# Bulk Modulus (GPa) = 22.98336 55.97700 39.48018
# Shear Modulus (GPa) = 29.46763 44.19594 36.83179
#
# Velocity S-wave (km/s) = 3.33961 4.08992 3.73366
# Velocity P-wave (km/s) = 4.85484 6.59466 5.79047
#
# Compressibility (1/GPa) = 0.04350974
#
# Stress axis : x y z
#
# Youngs Moduli (GPa) = 53.44459 217.70526 46.51959
#
# Poissons Ratio (x) = 0.51081 -0.27614
# Poissons Ratio (y) = 0.12540 0.19702
# Poissons Ratio (z) = -0.31725 0.92202
#
# Static dielectric constant tensor:
#      x y z
#    x 2.241920 0.000000 -0.034190 
#    y 0.000000 2.122500 0.000000 
#    z -0.034190 0.000000 2.060420 
# 
# From -- ./inp_files/32352.got.cif
#   From: 2010.05.17/outbox.cif.g08.bks.cpg/sg15_17_cif.got.tgz:32352.got - 2010.06.03 18:47:42.
