data_PCOD9276666
_publ_section_title
;
Structure prediction by ZEFSAII (Michael W. Deem and Ramdas Pophale) SiO2 
 PCOD9276666
Probable space group: C 2/C
;
_chemical_formula_sum "Si O2"
_cell_formula_units_Z 44
_cell_length_a 7.334912
_cell_length_b 11.651061
_cell_length_c 21.489219
_cell_angle_alpha 90.000000
_cell_angle_beta 118.113623
_cell_angle_gamma 90.000000
_cell_volume 1619.783285
_symmetry_space_group_name_H-M "C 2/C"
_symmetry_group_IT_number 15
_symmetry_cell_setting 'monoclinic'
loop_
_space_group_symop_operation_xyz
x,y,z
-x,y,1/2-z
-x,-y,-z
x,-y,1/2+z
1/2+x,1/2+y,z
1/2-x,1/2+y,1/2-z
1/2-x,1/2-y,-z
1/2+x,1/2-y,1/2+z
loop_
_atom_site_type_symbol
_atom_site_label
_atom_site_fract_x
_atom_site_fract_y
_atom_site_fract_z
Si Si1 0.610439 0.424944 0.897868
Si Si2 0.585326 0.889109 0.202491
Si Si3 0.500000 0.508589 0.250000
Si Si4 0.845441 0.600701 0.120886
Si Si5 0.915591 0.181141 0.568520
Si Si6 0.184999 0.381495 0.450020
O O1 0.594206 0.415525 0.821231
O O2 0.386141 0.396590 0.890477
O O3 0.652152 0.561536 0.912133
O O4 0.770066 0.359970 0.969975
O O5 0.500000 0.828065 0.250000
O O6 0.821571 0.923091 0.244882
O O7 0.504286 0.837330 0.123506
O O8 0.471964 0.013085 0.183004
O O9 0.950821 0.721948 0.126580
O O10 0.838907 0.520419 0.057976
O O11 0.750000 0.250000 0.500000
O O12 0.112104 0.146609 0.558333
#
# Coordination Sequence:
#
# PCOD9276666 Si02
#       6
#     8   8   4   8   8   8
#     4  11  20  36  59 100 123 175 233 268 344 419
#     4  10  20  40  64  88 127 175 221 278 339 410
#     4  12  24  40  66  84 132 184 226 276 344 414
#     4   9  18  33  62  92 129 166 214 281 335 404
#     4  11  15  31  66  97 123 168 213 277 350 404
#     4   9  19  33  60  96 129 167 226 278 337 418
#
# _framework density 27.164127000000001
#
# number of rings (size 3 to 8) (size 9 to 14) (size 15 to 20)
#    1.091    0.727    5.455    1.091    0.000    0.727 
#    1.636    0.000   10.000    2.182    0.000    0.000 
#    0.000    0.000    0.000    0.000    0.000    0.000 
#
# Total GULP energy -122959.650042 kJ/mol
# GULP energy per Si atom -5589.075002 kJ/mol
# Density = 2.710230 g / cm^3
# Si number density = 27.164127 Si / 1000 Ang^3
#
#
#
# Elastic Constant Matrix: (Units=GPa)
#
#
# Indices 1 2 3 4 5 6 
#
# 1 79.4952 27.9237 47.5449 0.0000 1.5782 0.0000
# 2 27.9237 143.5412 47.1308 0.0000 -5.9910 0.0000
# 3 47.5449 47.1308 184.3503 0.0000 -27.3487 0.0000
# 4 0.0000 0.0000 0.0000 24.2713 0.0000 -2.2155
# 5 1.5782 -5.9910 -27.3487 0.0000 48.4064 0.0000
# 6 0.0000 0.0000 0.0000 -2.2155 0.0000 28.4380
#
#
#
# Elastic Compliance Matrix: (Units=1/GPa)
#
#
# Indices 1 2 3 4 5 6 
#
# 1 0.015697 -0.001859 -0.004020 0.000000 -0.003013 0.000000
# 2 -0.001859 0.007827 -0.001494 0.000000 0.000185 0.000000
# 3 -0.004020 -0.001494 0.007460 0.000000 0.004161 0.000000
# 4 0.000000 0.000000 0.000000 0.041496 0.000000 0.003233
# 5 -0.003013 0.000185 0.004161 0.000000 0.023131 0.000000
# 6 0.000000 0.000000 0.000000 0.003233 0.000000 0.035416
#
#
# Mechanical properties :
#
#
# Convention : Reuss Voigt Hill
#
# Bulk Modulus (GPa) = 61.58656 72.50951 67.04804
# Shear Modulus (GPa) = 33.07209 39.20895 36.14052
#
# Velocity S-wave (km/s) = 3.49304 3.80334 3.65149
# Velocity P-wave (km/s) = 6.24417 6.78515 6.52028
#
# Compressibility (1/GPa) = 0.01623731
#
# Stress axis : x y z
#
# Youngs Moduli (GPa) = 63.70833 127.76928 134.04032
#
# Poissons Ratio (x) = 0.23757 0.53882
# Poissons Ratio (y) = 0.11846 0.20024
# Poissons Ratio (z) = 0.25610 0.19088
#
# Static dielectric constant tensor:
#      x y z
#    x 2.110470 0.000000 -0.043500 
#    y 0.000000 2.135810 0.000000 
#    z -0.043500 0.000000 2.232130 
# 
# From -- ./inp_files/307316.got.cif
#   From: 2010.05.17/outbox.cif.g08.bks.cpg/sg15_154_cif.got.tgz:307316.got - 2010.06.03 18:47:42.
