data_PCOD9276337
_publ_section_title
;
Structure prediction by ZEFSAII (Michael W. Deem and Ramdas Pophale) SiO2 
 PCOD9276337
Probable space group: C 2/C
;
_chemical_formula_sum "Si O2"
_cell_formula_units_Z 52
_cell_length_a 16.161078
_cell_length_b 13.121852
_cell_length_c 15.256329
_cell_angle_alpha 90.000000
_cell_angle_beta 124.612244
_cell_angle_gamma 90.000000
_cell_volume 2662.706258
_symmetry_space_group_name_H-M "C 2/C"
_symmetry_group_IT_number 15
_symmetry_cell_setting 'monoclinic'
loop_
_space_group_symop_operation_xyz
x,y,z
-x,y,1/2-z
-x,-y,-z
x,-y,1/2+z
1/2+x,1/2+y,z
1/2-x,1/2+y,1/2-z
1/2-x,1/2-y,-z
1/2+x,1/2-y,1/2+z
loop_
_atom_site_type_symbol
_atom_site_label
_atom_site_fract_x
_atom_site_fract_y
_atom_site_fract_z
Si Si1 0.098250 0.282843 0.367456
Si Si2 0.865359 0.235120 0.816074
Si Si3 0.189020 0.089063 0.965011
Si Si4 0.323121 0.213991 0.920517
Si Si5 0.303937 0.624723 0.943426
Si Si6 0.500000 0.639365 0.750000
Si Si7 0.470100 0.885102 0.002696
O O1 0.194776 0.321913 0.372072
O O2 0.134455 0.184171 0.443788
O O3 0.000000 0.265947 0.250000
O O4 0.074236 0.367131 0.427618
O O5 0.759831 0.238351 0.702545
O O6 0.859652 0.146113 0.885612
O O7 0.948217 0.209105 0.792934
O O8 0.893185 0.337190 0.885659
O O9 0.278897 0.122102 0.953984
O O10 0.089216 0.074755 0.846625
O O11 0.169025 0.187552 0.013143
O O12 0.208674 0.991196 0.035617
O O13 0.429239 0.182595 0.945078
O O14 0.500000 0.000000 0.000000
#
# Coordination Sequence:
#
# PCOD9276337 Si02
#       7
#     8   8   8   8   8   4   8
#     4  10  22  40  59  86 124 162 200 249 303 365
#     4  10  22  39  61  89 126 160 200 260 298 362
#     4  10  21  38  63  89 121 159 202 252 301 364
#     4  10  21  39  60  91 125 154 202 255 303 353
#     4  10  22  40  60  90 124 159 208 247 302 365
#     4  10  20  40  60  90 122 156 206 248 312 350
#     4  11  22  40  62  90 122 159 208 250 306 367
#
# _framework density 19.529002999999999
#
# number of rings (size 3 to 8) (size 9 to 14) (size 15 to 20)
#    0.000    1.846    1.538    1.846    1.077    3.077 
#    1.385    3.077    0.000    0.000    0.000    0.000 
#    0.000    0.000    0.000    0.000    0.000    0.000 
#
# Total GULP energy -145225.817029 kJ/mol
# GULP energy per Si atom -5585.608347 kJ/mol
# Density = 1.948455 g / cm^3
# Si number density = 19.529003 Si / 1000 Ang^3
#
#
#
# Elastic Constant Matrix: (Units=GPa)
#
#
# Indices 1 2 3 4 5 6 
#
# 1 76.0096 19.3070 32.2535 0.0000 -14.8544 0.0000
# 2 19.3070 70.1942 24.5834 0.0000 0.6530 0.0000
# 3 32.2535 24.5834 96.3826 0.0000 8.9631 0.0000
# 4 0.0000 0.0000 0.0000 6.4278 0.0000 1.3993
# 5 -14.8544 0.6530 8.9631 0.0000 34.4455 0.0000
# 6 0.0000 0.0000 0.0000 1.3993 0.0000 19.0824
#
#
#
# Elastic Compliance Matrix: (Units=1/GPa)
#
#
# Indices 1 2 3 4 5 6 
#
# 1 0.018485 -0.002957 -0.006331 0.000000 0.009675 0.000000
# 2 -0.002957 0.016136 -0.003053 0.000000 -0.000787 0.000000
# 3 -0.006331 -0.003053 0.013857 0.000000 -0.006278 0.000000
# 4 0.000000 0.000000 0.000000 0.158097 0.000000 -0.011593
# 5 0.009675 -0.000787 -0.006278 0.000000 0.034852 0.000000
# 6 0.000000 0.000000 0.000000 -0.011593 0.000000 0.053255
#
#
# Mechanical properties :
#
#
# Convention : Reuss Voigt Hill
#
# Bulk Modulus (GPa) = 42.02582 43.87490 42.95036
# Shear Modulus (GPa) = 15.27675 23.08731 19.18203
#
# Velocity S-wave (km/s) = 2.79993 3.44205 3.13746
# Velocity P-wave (km/s) = 5.65855 6.18969 5.93007
#
# Compressibility (1/GPa) = 0.02379490
#
# Stress axis : x y z
#
# Youngs Moduli (GPa) = 54.09913 61.97311 72.16818
#
# Poissons Ratio (x) = 0.18325 0.45691
# Poissons Ratio (y) = 0.15997 0.22033
# Poissons Ratio (z) = 0.34251 0.18920
#
# Static dielectric constant tensor:
#      x y z
#    x 1.685660 0.000000 -0.002480 
#    y 0.000000 1.648040 0.000000 
#    z -0.002480 0.000000 1.683520 
# 
# From -- ./inp_files/161068.got.cif
#   From: 2010.05.17/outbox.cif.g08.bks.cpg/sg15_81_cif.got.tgz:161068.got - 2010.06.03 18:47:42.
