data_PCOD9276882
_publ_section_title
;
Structure prediction by ZEFSAII (Michael W. Deem and Ramdas Pophale) SiO2 
 PCOD9276882
Probable space group: C 2/C
;
_chemical_formula_sum "Si O2"
_cell_formula_units_Z 48
_cell_length_a 12.295968
_cell_length_b 24.920475
_cell_length_c 14.391115
_cell_angle_alpha 90.000000
_cell_angle_beta 149.132191
_cell_angle_gamma 90.000000
_cell_volume 2262.459737
_symmetry_space_group_name_H-M "C 2/C"
_symmetry_group_IT_number 15
_symmetry_cell_setting 'monoclinic'
loop_
_space_group_symop_operation_xyz
x,y,z
-x,y,1/2-z
-x,-y,-z
x,-y,1/2+z
1/2+x,1/2+y,z
1/2-x,1/2+y,1/2-z
1/2-x,1/2-y,-z
1/2+x,1/2-y,1/2+z
loop_
_atom_site_type_symbol
_atom_site_label
_atom_site_fract_x
_atom_site_fract_y
_atom_site_fract_z
Si Si1 0.846064 0.520655 0.766202
Si Si2 0.961024 0.994863 0.617013
Si Si3 0.145707 0.579847 0.436278
Si Si4 0.030265 0.625202 0.536549
Si Si5 0.906065 0.174872 0.280724
Si Si6 0.319411 0.200143 0.694096
O O1 0.674498 0.499001 0.714514
O O2 0.713807 0.534242 0.575520
O O3 0.953532 0.572439 0.888137
O O4 0.012042 0.473504 0.868150
O O5 0.862138 0.055013 0.555910
O O6 0.000000 0.974709 0.750000
O O7 0.160871 0.615297 0.538567
O O8 0.000000 0.605819 0.250000
O O9 0.118203 0.673099 0.663812
O O10 0.787373 0.637366 0.332872
O O11 0.818488 0.235458 0.201853
O O12 0.000000 0.157937 0.250000
O O13 0.096900 0.178710 0.493079
O O14 0.500000 0.187267 0.750000
#
# Coordination Sequence:
#
# PCOD9276882 Si02
#       6
#     8   8   8   8   8   8
#     4  10  23  41  60  97 125 170 228 259 318 389
#     4  10  20  40  66  81 130 181 206 267 323 368
#     4  10  23  44  62  86 130 173 212 271 321 374
#     4  12  23  39  65  97 130 165 225 258 315 404
#     4  11  21  42  64  93 137 173 206 268 334 387
#     4  11  21  40  65  94 133 175 210 262 338 389
#
# _framework density 21.215847
#
# number of rings (size 3 to 8) (size 9 to 14) (size 15 to 20)
#    0.000    1.333    5.000    1.500    0.000    6.000 
#    3.000    0.000    0.000    1.000    0.000    0.000 
#    0.000    0.000    0.000    0.000    0.000    0.000 
#
# Total GULP energy -134332.165366 kJ/mol
# GULP energy per Si atom -5597.173557 kJ/mol
# Density = 2.116756 g / cm^3
# Si number density = 21.215847 Si / 1000 Ang^3
#
#
#
# Elastic Constant Matrix: (Units=GPa)
#
#
# Indices 1 2 3 4 5 6 
#
# 1 84.0862 11.4659 17.4795 -0.0001 -16.8153 0.0000
# 2 11.4659 43.5815 18.3914 0.0000 -3.9068 0.0000
# 3 17.4795 18.3914 127.8072 0.0000 -13.3575 0.0000
# 4 -0.0001 0.0000 0.0000 19.1987 -0.0001 11.0720
# 5 -16.8153 -3.9068 -13.3575 -0.0001 42.4718 0.0000
# 6 0.0000 0.0000 0.0000 11.0720 0.0000 16.0254
#
#
#
# Elastic Compliance Matrix: (Units=1/GPa)
#
#
# Indices 1 2 3 4 5 6 
#
# 1 0.013410 -0.002701 -0.000948 0.000000 0.004763 0.000000
# 2 -0.002701 0.025030 -0.003209 0.000000 0.000224 0.000000
# 3 -0.000948 -0.003209 0.008629 0.000000 0.002044 0.000000
# 4 0.000000 0.000000 0.000000 0.086587 0.000000 -0.059823
# 5 0.004763 0.000224 0.002044 0.000000 0.026094 0.000000
# 6 0.000000 0.000000 0.000000 -0.059823 0.000000 0.103733
#
#
# Mechanical properties :
#
#
# Convention : Reuss Voigt Hill
#
# Bulk Modulus (GPa) = 29.98122 38.90540 34.44331
# Shear Modulus (GPa) = 17.34193 29.41504 23.37848
#
# Velocity S-wave (km/s) = 2.86213 3.72757 3.32314
# Velocity P-wave (km/s) = 5.00845 6.07487 5.56725
#
# Compressibility (1/GPa) = 0.03335421
#
# Stress axis : x y z
#
# Youngs Moduli (GPa) = 74.56925 39.95129 115.88509
#
# Poissons Ratio (x) = 0.10792 0.10981
# Poissons Ratio (y) = 0.20144 0.37188
# Poissons Ratio (z) = 0.07066 0.12821
#
# Static dielectric constant tensor:
#      x y z
#    x 1.763120 0.000000 -0.018800 
#    y 0.000000 1.753920 0.000000 
#    z -0.018800 0.000000 1.814240 
# 
# From -- ./inp_files/148850.got.cif
#   From: 2010.05.17/outbox.cif.g08.bks.cpg/sg15_75_cif.got.tgz:148850.got - 2010.06.03 18:47:42.
