data_PCOD9276414
_publ_section_title
;
Structure prediction by ZEFSAII (Michael W. Deem and Ramdas Pophale) SiO2 
 PCOD9276414
Probable space group: C 2/C
;
_chemical_formula_sum "Si O2"
_cell_formula_units_Z 44
_cell_length_a 6.265536
_cell_length_b 25.453679
_cell_length_c 19.496983
_cell_angle_alpha 90.000000
_cell_angle_beta 39.271184
_cell_angle_gamma 90.000000
_cell_volume 1968.222325
_symmetry_space_group_name_H-M "C 2/C"
_symmetry_group_IT_number 15
_symmetry_cell_setting 'monoclinic'
loop_
_space_group_symop_operation_xyz
x,y,z
-x,y,1/2-z
-x,-y,-z
x,-y,1/2+z
1/2+x,1/2+y,z
1/2-x,1/2+y,1/2-z
1/2-x,1/2-y,-z
1/2+x,1/2-y,1/2+z
loop_
_atom_site_type_symbol
_atom_site_label
_atom_site_fract_x
_atom_site_fract_y
_atom_site_fract_z
Si Si1 0.670077 0.417391 0.932928
Si Si2 0.100131 0.010791 0.584272
Si Si3 0.000000 0.934022 0.250000
Si Si4 0.201761 0.272877 0.131297
Si Si5 0.578387 0.831266 0.550486
Si Si6 0.516485 0.147113 0.577150
O O1 0.586372 0.448115 0.024632
O O2 0.968468 0.377475 0.881829
O O3 0.388974 0.375434 0.981818
O O4 0.625490 0.461708 0.885923
O O5 0.500000 0.000000 0.500000
O O6 0.975228 0.031926 0.687884
O O7 0.684607 0.895043 0.328816
O O8 0.568686 0.299607 0.030341
O O9 0.000000 0.289475 0.250000
O O10 0.000110 0.295572 0.115955
O O11 0.280625 0.211287 0.118268
O O12 0.621312 0.855397 0.464607
#
# Coordination Sequence:
#
# PCOD9276414 Si02
#       6
#     8   8   4   8   8   8
#     4  10  21  39  64  83 129 166 210 264 332 388
#     4  11  22  41  61  92 126 167 212 273 328 395
#     4  12  22  36  68  94 128 166 222 278 326 390
#     4  10  22  36  63  93 126 165 217 266 334 400
#     4  10  20  40  61  92 129 170 209 276 329 389
#     4  11  21  37  63  93 122 163 212 273 328 385
#
# _framework density 22.355197
#
# number of rings (size 3 to 8) (size 9 to 14) (size 15 to 20)
#    0.000    1.455    3.636    1.636    2.545    0.000 
#    0.000    0.000   12.000    0.000    0.000    0.000 
#    0.000    0.000    0.000    0.000    0.000    0.000 
#
# Total GULP energy -122607.566686 kJ/mol
# GULP energy per Si atom -5573.071213 kJ/mol
# Density = 2.230432 g / cm^3
# Si number density = 22.355197 Si / 1000 Ang^3
#
#
#
# Elastic Constant Matrix: (Units=GPa)
#
#
# Indices 1 2 3 4 5 6 
#
# 1 75.5683 54.4663 17.1864 0.0000 19.5234 0.0000
# 2 54.4663 138.5797 20.7549 0.0000 15.4613 0.0000
# 3 17.1864 20.7549 44.2071 0.0011 14.7669 -0.0002
# 4 0.0000 0.0000 0.0011 23.1969 -0.0003 3.2314
# 5 19.5234 15.4613 14.7669 -0.0003 13.0164 0.0001
# 6 0.0000 0.0000 -0.0002 3.2314 0.0001 51.3668
#
#
#
# Elastic Compliance Matrix: (Units=1/GPa)
#
#
# Indices 1 2 3 4 5 6 
#
# 1 0.027086 -0.007200 0.005739 -0.000001 -0.038585 0.000000
# 2 -0.007200 0.010259 -0.002503 0.000000 0.001453 0.000000
# 3 0.005739 -0.002503 0.037754 -0.000002 -0.048467 0.000000
# 4 -0.000001 0.000000 -0.000002 0.043490 0.000005 -0.002736
# 5 -0.038585 0.001453 -0.048467 0.000005 0.187958 -0.000001
# 6 0.000000 0.000000 0.000000 -0.002736 -0.000001 0.019640
#
#
# Mechanical properties :
#
#
# Convention : Reuss Voigt Hill
#
# Bulk Modulus (GPa) = 14.88731 49.24116 32.06423
# Shear Modulus (GPa) = 14.02501 28.57917 21.30209
#
# Velocity S-wave (km/s) = 2.50746 3.57937 3.09024
# Velocity P-wave (km/s) = 3.88034 6.25756 5.20644
#
# Compressibility (1/GPa) = 0.06717131
#
# Stress axis : x y z
#
# Youngs Moduli (GPa) = 36.91938 97.47827 26.48692
#
# Poissons Ratio (x) = 0.70188 -0.15201
# Poissons Ratio (y) = 0.26583 0.06629
# Poissons Ratio (z) = -0.21188 0.24395
#
# Static dielectric constant tensor:
#      x y z
#    x 1.933230 0.000000 0.104220 
#    y 0.000000 1.894450 0.000000 
#    z 0.104220 0.000000 1.971780 
# 
# From -- ./inp_files/129332.got.cif
#   From: 2010.05.17/outbox.cif.g08.bks.cpg/sg15_65_cif.got.tgz:129332.got - 2010.06.03 18:47:42.
