data_PCOD9276521
_publ_section_title
;
Structure prediction by ZEFSAII (Michael W. Deem and Ramdas Pophale) SiO2 
 PCOD9276521
Probable space group: C 2/C
;
_chemical_formula_sum "Si O2"
_cell_formula_units_Z 56
_cell_length_a 12.625506
_cell_length_b 9.978639
_cell_length_c 18.994061
_cell_angle_alpha 90.000000
_cell_angle_beta 98.259427
_cell_angle_gamma 90.000000
_cell_volume 2368.153250
_symmetry_space_group_name_H-M "C 2/C"
_symmetry_group_IT_number 15
_symmetry_cell_setting 'monoclinic'
loop_
_space_group_symop_operation_xyz
x,y,z
-x,y,1/2-z
-x,-y,-z
x,-y,1/2+z
1/2+x,1/2+y,z
1/2-x,1/2+y,1/2-z
1/2-x,1/2-y,-z
1/2+x,1/2-y,1/2+z
loop_
_atom_site_type_symbol
_atom_site_label
_atom_site_fract_x
_atom_site_fract_y
_atom_site_fract_z
Si Si1 0.615955 0.451115 0.778504
Si Si2 0.388210 0.243674 0.214704
Si Si3 0.316629 0.160250 0.354253
Si Si4 0.653922 0.472148 0.479507
Si Si5 0.871204 0.608313 0.914794
Si Si6 0.709498 0.607120 0.138725
Si Si7 0.464098 0.276812 0.488633
O O1 0.500000 0.393622 0.750000
O O2 0.602195 0.601955 0.806623
O O3 0.690749 0.373116 0.839719
O O4 0.673993 0.458076 0.708216
O O5 0.500000 0.189711 0.250000
O O6 0.326653 0.240394 0.282872
O O7 0.333622 0.145636 0.154807
O O8 0.373994 0.231254 0.424785
O O9 0.375118 0.014943 0.361216
O O10 0.766672 0.432742 0.453126
O O11 0.679531 0.469168 0.565774
O O12 0.562963 0.357485 0.461899
O O13 0.592962 0.614534 0.465724
O O14 0.843042 0.745516 0.872158
O O15 0.977413 0.650665 0.968164
#
# Coordination Sequence:
#
# PCOD9276521 Si02
#       7
#     8   8   8   8   8   8   8
#     4  10  22  42  67  93 122 171 216 270 325 384
#     4  10  22  38  66  90 118 165 215 267 321 379
#     4  11  23  38  64  94 132 163 214 269 327 390
#     4  10  23  40  69  91 126 175 221 265 330 390
#     4  11  23  41  64  94 134 170 214 269 329 392
#     4  10  20  40  62  94 126 156 221 269 309 393
#     4  10  22  41  62  96 127 168 212 272 318 396
#
# _framework density 23.647119
#
# number of rings (size 3 to 8) (size 9 to 14) (size 15 to 20)
#    0.000    1.714    1.429    3.000    4.000    4.000 
#    0.000    2.143    3.143    0.000    0.000    0.000 
#    0.000    0.000    0.000    0.000    0.000    0.000 
#
# Total GULP energy -156261.301517 kJ/mol
# GULP energy per Si atom -5580.760768 kJ/mol
# Density = 2.359330 g / cm^3
# Si number density = 23.647119 Si / 1000 Ang^3
#
#
#
# Elastic Constant Matrix: (Units=GPa)
#
#
# Indices 1 2 3 4 5 6 
#
# 1 115.4932 30.4540 54.9251 0.0000 40.7191 0.0000
# 2 30.4540 87.5779 13.1115 0.0000 13.4939 0.0000
# 3 54.9251 13.1115 84.8425 0.0000 19.5528 0.0000
# 4 0.0000 0.0000 0.0000 -8.2155 0.0000 -31.2092
# 5 40.7191 13.4939 19.5528 0.0000 55.2724 0.0000
# 6 0.0000 0.0000 0.0000 -31.2092 0.0000 -28.8061
#
#
#
# Elastic Compliance Matrix: (Units=1/GPa)
#
#
# Indices 1 2 3 4 5 6 
#
# 1 0.016317 -0.003165 -0.008146 0.000000 -0.008366 0.000000
# 2 -0.003165 0.012606 0.000297 0.000000 -0.000851 0.000000
# 3 -0.008146 0.000297 0.017037 0.000000 -0.000098 0.000000
# 4 0.000000 0.000000 0.000000 0.039067 0.000000 -0.042326
# 5 -0.008366 -0.000851 -0.000098 0.000000 0.024498 0.000000
# 6 0.000000 0.000000 0.000000 -0.042326 0.000000 0.011142
#
#
# Mechanical properties :
#
#
# Convention : Reuss Voigt Hill
#
# Bulk Modulus (GPa) = 41.78673 53.87719 47.83196
# Shear Modulus (GPa) = 33.18493 16.27836 24.73165
#
# Velocity S-wave (km/s) = 3.75018 2.62656 3.23749
# Velocity P-wave (km/s) = 6.03831 5.65966 5.85204
#
# Compressibility (1/GPa) = 0.02393104
#
# Stress axis : x y z
#
# Youngs Moduli (GPa) = 61.28692 79.32920 58.69675
#
# Poissons Ratio (x) = 0.25110 0.47813
# Poissons Ratio (y) = 0.19399 -0.01744
# Poissons Ratio (z) = 0.49923 -0.02357
#
# Static dielectric constant tensor:
#      x y z
#    x 2.151510 0.000000 -0.154540 
#    y 0.000000 1.907900 0.000000 
#    z -0.154540 0.000000 2.069420 
# 
# From -- ./inp_files/237119.got.cif
#   From: 2010.05.17/outbox.cif.g08.bks.cpg/sg15_119_cif.got.tgz:237119.got - 2010.06.03 18:47:42.
