data_PCOD9276288
_publ_section_title
;
Structure prediction by ZEFSAII (Michael W. Deem and Ramdas Pophale) SiO2 
 PCOD9276288
Probable space group: C 2/C
;
_chemical_formula_sum "Si O2"
_cell_formula_units_Z 60
_cell_length_a 13.558098
_cell_length_b 6.746252
_cell_length_c 27.393644
_cell_angle_alpha 90.000000
_cell_angle_beta 62.001718
_cell_angle_gamma 90.000000
_cell_volume 2212.345680
_symmetry_space_group_name_H-M "C 2/C"
_symmetry_group_IT_number 15
_symmetry_cell_setting 'monoclinic'
loop_
_space_group_symop_operation_xyz
x,y,z
-x,y,1/2-z
-x,-y,-z
x,-y,1/2+z
1/2+x,1/2+y,z
1/2-x,1/2+y,1/2-z
1/2-x,1/2-y,-z
1/2+x,1/2-y,1/2+z
loop_
_atom_site_type_symbol
_atom_site_label
_atom_site_fract_x
_atom_site_fract_y
_atom_site_fract_z
Si Si1 0.568496 0.760773 0.034159
Si Si2 0.719198 0.847358 0.083657
Si Si3 0.194190 0.113542 0.681465
Si Si4 0.672265 0.686716 0.578288
Si Si5 0.500000 0.668084 0.250000
Si Si6 0.743455 0.450786 0.316494
Si Si7 0.878144 0.280213 0.196190
Si Si8 0.918912 0.297656 0.990868
O O1 0.618609 0.740313 0.076718
O O2 0.460005 0.686548 0.029804
O O3 0.670308 0.705852 0.973568
O O4 0.530423 0.994663 0.038729
O O5 0.748760 0.833855 0.134481
O O6 0.685578 0.078064 0.085286
O O7 0.166010 0.086869 0.631669
O O8 0.180699 0.348353 0.696531
O O9 0.324587 0.081011 0.666412
O O10 0.104814 0.977302 0.728213
O O11 0.792447 0.633490 0.529058
O O12 0.583035 0.657925 0.556165
O O13 0.489229 0.797135 0.203017
O O14 0.785798 0.328591 0.260199
O O15 0.629527 0.564134 0.327751
#
# Coordination Sequence:
#
# PCOD9276288 Si02
#       8
#     8   8   8   8   4   8   8   8
#     4   9  18  33  52  81 116 145 189 227 288 350
#     4   9  18  34  56  78 115 151 178 242 289 346
#     4   9  20  39  59  85 118 154 195 259 293 360
#     4   9  18  35  56  76 113 147 184 234 294 335
#     4  12  22  38  68  86 116 162 204 240 318 360
#     4   9  19  39  57  80 123 153 196 254 306 341
#     4  10  20  40  59  85 117 157 197 258 290 363
#     4   9  18  33  53  80 111 148 185 233 278 353
#
# _framework density 27.120538
#
# number of rings (size 3 to 8) (size 9 to 14) (size 15 to 20)
#    0.800    1.867    1.333    0.000    0.000    3.200 
#    2.400    0.000    5.867    0.000    0.000    0.000 
#    0.000    0.000    0.000    0.000    0.000    0.000 
#
# Total GULP energy -167120.288919 kJ/mol
# GULP energy per Si atom -5570.676297 kJ/mol
# Density = 2.705881 g / cm^3
# Si number density = 27.120538 Si / 1000 Ang^3
#
#
#
# Elastic Constant Matrix: (Units=GPa)
#
#
# Indices 1 2 3 4 5 6 
#
# 1 124.6494 18.6208 39.1119 0.0000 54.9819 0.0000
# 2 18.6208 74.2032 13.6565 0.0000 12.0064 0.0000
# 3 39.1119 13.6565 147.2482 0.0000 56.1666 0.0000
# 4 0.0000 0.0000 0.0000 35.2798 0.0000 14.2811
# 5 54.9819 12.0064 56.1666 0.0000 56.3515 0.0000
# 6 0.0000 0.0000 0.0000 14.2811 0.0000 35.3048
#
#
#
# Elastic Compliance Matrix: (Units=1/GPa)
#
#
# Indices 1 2 3 4 5 6 
#
# 1 0.014797 -0.001487 0.002571 0.000000 -0.016683 0.000000
# 2 -0.001487 0.014113 -0.000517 0.000000 -0.001041 0.000000
# 3 0.002571 -0.000517 0.011409 0.000000 -0.013770 0.000000
# 4 0.000000 0.000000 0.000000 0.033895 0.000000 -0.013711
# 5 -0.016683 -0.001041 -0.013770 0.000000 0.047970 0.000000
# 6 0.000000 0.000000 0.000000 -0.013711 0.000000 0.033871
#
#
# Mechanical properties :
#
#
# Convention : Reuss Voigt Hill
#
# Bulk Modulus (GPa) = 24.12360 54.31991 39.22176
# Shear Modulus (GPa) = 29.63196 43.70132 36.66664
#
# Velocity S-wave (km/s) = 3.30904 4.01855 3.68093
# Velocity P-wave (km/s) = 4.84912 6.45013 5.70605
#
# Compressibility (1/GPa) = 0.04145318
#
# Stress axis : x y z
#
# Youngs Moduli (GPa) = 67.58331 70.85556 87.65321
#
# Poissons Ratio (x) = 0.10536 -0.22538
# Poissons Ratio (y) = 0.10049 0.04531
# Poissons Ratio (z) = -0.17377 0.03662
#
# Static dielectric constant tensor:
#      x y z
#    x 2.279480 0.000000 0.087760 
#    y 0.000000 2.166900 0.000000 
#    z 0.087760 0.000000 2.262040 
# 
# From -- ./inp_files/272746.got.cif
#   From: 2010.05.17/outbox.cif.g08.bks.cpg/sg15_137_cif.got.tgz:272746.got - 2010.06.03 18:47:42.
