data_PCOD9276370
_publ_section_title
;
Structure prediction by ZEFSAII (Michael W. Deem and Ramdas Pophale) SiO2 
 PCOD9276370
Probable space group: C 2/C
;
_chemical_formula_sum "Si O2"
_cell_formula_units_Z 48
_cell_length_a 14.466368
_cell_length_b 32.517892
_cell_length_c 14.637855
_cell_angle_alpha 90.000000
_cell_angle_beta 160.050082
_cell_angle_gamma 90.000000
_cell_volume 2349.452203
_symmetry_space_group_name_H-M "C 2/C"
_symmetry_group_IT_number 15
_symmetry_cell_setting 'monoclinic'
loop_
_space_group_symop_operation_xyz
x,y,z
-x,y,1/2-z
-x,-y,-z
x,-y,1/2+z
1/2+x,1/2+y,z
1/2-x,1/2+y,1/2-z
1/2-x,1/2-y,-z
1/2+x,1/2-y,1/2+z
loop_
_atom_site_type_symbol
_atom_site_label
_atom_site_fract_x
_atom_site_fract_y
_atom_site_fract_z
Si Si1 0.061754 0.775252 0.199683
Si Si2 0.417665 0.099992 0.917183
Si Si3 0.728089 0.943991 0.538796
Si Si4 0.216183 0.014469 0.776321
Si Si5 0.590144 0.720590 0.232749
Si Si6 0.904362 0.154044 0.416950
O O1 0.372510 0.761050 0.482683
O O2 0.000000 0.779002 0.250000
O O3 0.976254 0.816318 0.068439
O O4 0.261041 0.063241 0.824947
O O5 0.174142 0.127361 0.652668
O O6 0.592983 0.081152 0.996459
O O7 0.636286 0.126045 0.178159
O O8 0.000000 0.924182 0.750000
O O9 0.821254 0.987738 0.667945
O O10 0.500000 0.949246 0.250000
O O11 0.000000 0.000000 0.500000
O O12 0.500000 0.000000 0.000000
O O13 0.500000 0.706272 0.250000
O O14 0.636421 0.683210 0.208033
O O15 0.852174 0.749197 0.480013
#
# Coordination Sequence:
#
# PCOD9276370 Si02
#       6
#     8   8   8   8   8   8
#     4  10  21  39  63  88 116 157 210 259 301 361
#     4  11  24  38  58  88 123 152 187 244 306 358
#     4  11  22  39  63  88 114 153 204 245 285 353
#     4  10  20  40  61  80 113 157 196 235 288 355
#     4  10  21  37  55  78 112 156 201 237 273 338
#     4  12  22  37  60  88 121 159 192 244 313 362
#
# _framework density 20.430294
#
# number of rings (size 3 to 8) (size 9 to 14) (size 15 to 20)
#    0.000    1.333    0.000    8.000    0.000    2.000 
#    0.000    2.500    0.000    0.000    0.000    0.000 
#    0.000    0.000    0.000    0.000    0.000    0.000 
#
# Total GULP energy -134078.352999 kJ/mol
# GULP energy per Si atom -5586.598042 kJ/mol
# Density = 2.038379 g / cm^3
# Si number density = 20.430294 Si / 1000 Ang^3
#
#
#
# Elastic Constant Matrix: (Units=GPa)
#
#
# Indices 1 2 3 4 5 6 
#
# 1 44.1740 22.4145 20.2518 0.0005 -11.9058 0.0011
# 2 22.4145 100.0299 40.4033 -0.0002 -13.8691 -0.0001
# 3 20.2518 40.4033 154.6349 0.0010 -5.6286 0.0025
# 4 0.0005 -0.0002 0.0010 23.4849 -0.0004 21.0843
# 5 -11.9058 -13.8691 -5.6286 -0.0004 33.7318 -0.0011
# 6 0.0011 -0.0001 0.0025 21.0843 -0.0011 41.8475
#
#
#
# Elastic Compliance Matrix: (Units=1/GPa)
#
#
# Indices 1 2 3 4 5 6 
#
# 1 0.027923 -0.004274 -0.002259 0.000000 0.007721 0.000000
# 2 -0.004274 0.012434 -0.002574 0.000000 0.003175 0.000000
# 3 -0.002259 -0.002574 0.007413 0.000000 -0.000619 0.000000
# 4 0.000000 0.000000 0.000000 0.077749 0.000000 -0.039173
# 5 0.007721 0.003175 -0.000619 0.000000 0.033573 0.000001
# 6 0.000000 0.000000 0.000000 -0.039173 0.000001 0.043633
#
#
# Mechanical properties :
#
#
# Convention : Reuss Voigt Hill
#
# Bulk Modulus (GPa) = 33.83314 51.66422 42.74868
# Shear Modulus (GPa) = 21.66464 34.19746 27.93105
#
# Velocity S-wave (km/s) = 3.25994 4.09572 3.70150
# Velocity P-wave (km/s) = 5.54669 6.90721 6.26400
#
# Compressibility (1/GPa) = 0.02955682
#
# Stress axis : x y z
#
# Youngs Moduli (GPa) = 35.81246 80.42238 134.90474
#
# Poissons Ratio (x) = 0.34372 0.30478
# Poissons Ratio (y) = 0.15306 0.34719
# Poissons Ratio (z) = 0.08091 0.20697
#
# Static dielectric constant tensor:
#      x y z
#    x 1.723800 0.000000 -0.001090 
#    y 0.000000 1.794240 0.000000 
#    z -0.001090 0.000000 1.701260 
# 
# From -- ./inp_files/157607.got.cif
#   From: 2010.05.17/outbox.cif.g08.bks.cpg/sg15_79_cif.got.tgz:157607.got - 2010.06.03 18:47:42.
