data_PCOD9276022
_publ_section_title
;
Structure prediction by ZEFSAII (Michael W. Deem and Ramdas Pophale) SiO2 
 PCOD9276022
Probable space group: C 2/C
;
_chemical_formula_sum "Si O2"
_cell_formula_units_Z 48
_cell_length_a 15.336939
_cell_length_b 10.332540
_cell_length_c 23.270410
_cell_angle_alpha 90.000000
_cell_angle_beta 142.546793
_cell_angle_gamma 90.000000
_cell_volume 2242.509663
_symmetry_space_group_name_H-M "C 2/C"
_symmetry_group_IT_number 15
_symmetry_cell_setting 'monoclinic'
loop_
_space_group_symop_operation_xyz
x,y,z
-x,y,1/2-z
-x,-y,-z
x,-y,1/2+z
1/2+x,1/2+y,z
1/2-x,1/2+y,1/2-z
1/2-x,1/2-y,-z
1/2+x,1/2-y,1/2+z
loop_
_atom_site_type_symbol
_atom_site_label
_atom_site_fract_x
_atom_site_fract_y
_atom_site_fract_z
Si Si1 0.000000 0.204392 0.250000
Si Si2 0.280361 0.775660 0.354149
Si Si3 0.459822 0.062814 0.111266
Si Si4 0.318713 0.139913 0.749228
Si Si5 0.467195 0.731964 0.941329
Si Si6 0.000000 0.647726 0.250000
Si Si7 0.787965 0.555182 0.419778
O O1 0.925363 0.293260 0.259464
O O2 0.870684 0.114753 0.159095
O O3 0.312910 0.776481 0.304069
O O4 0.397283 0.692016 0.449989
O O5 0.120357 0.730278 0.281839
O O6 0.289844 0.920990 0.385351
O O7 0.472999 0.198500 0.084844
O O8 0.418312 0.073374 0.156167
O O9 0.614995 0.995602 0.196749
O O10 0.357821 0.975421 0.018150
O O11 0.158562 0.133480 0.640449
O O12 0.386548 0.843531 0.936527
#
# Coordination Sequence:
#
# PCOD9276022 Si02
#       7
#     4   8   8   8   8   4   8
#     4  10  24  38  60  96 118 154 210 246 288 354
#     4  11  21  41  63  87 120 159 201 247 296 353
#     4  11  21  40  61  87 123 159 194 247 305 352
#     4  11  21  41  63  88 120 160 198 250 295 354
#     4  10  20  39  67  86 115 163 206 236 292 364
#     4  12  26  38  58  98 126 148 196 256 308 344
#     4  10  20  40  65  86 116 164 207 236 288 365
#
# _framework density 21.404591
#
# number of rings (size 3 to 8) (size 9 to 14) (size 15 to 20)
#    0.000    1.333    5.000    2.000    0.000    3.333 
#    6.000    0.833    0.000    0.000    0.000    0.000 
#    0.000    0.000    0.000    0.000    0.000    0.000 
#
# Total GULP energy -134068.674958 kJ/mol
# GULP energy per Si atom -5586.194790 kJ/mol
# Density = 2.135587 g / cm^3
# Si number density = 21.404591 Si / 1000 Ang^3
#
#
#
# Elastic Constant Matrix: (Units=GPa)
#
#
# Indices 1 2 3 4 5 6 
#
# 1 105.3082 2.9818 40.4494 0.0000 -18.2850 0.0000
# 2 2.9818 23.2240 15.0740 0.0000 -1.4368 0.0000
# 3 40.4494 15.0740 98.3587 0.0000 -4.0266 0.0000
# 4 0.0000 0.0000 0.0000 27.1167 0.0000 2.1476
# 5 -18.2850 -1.4368 -4.0266 0.0000 46.5427 0.0000
# 6 0.0000 0.0000 0.0000 2.1476 0.0000 11.7339
#
#
#
# Elastic Compliance Matrix: (Units=1/GPa)
#
#
# Indices 1 2 3 4 5 6 
#
# 1 0.012177 0.002046 -0.005141 0.000000 0.004402 0.000000
# 2 0.002046 0.048192 -0.008162 0.000000 0.001585 0.000000
# 3 -0.005141 -0.008162 0.013487 0.000000 -0.001105 0.000000
# 4 0.000000 0.000000 0.000000 0.037420 0.000000 -0.006849
# 5 0.004402 0.001585 -0.001105 0.000000 0.023168 0.000000
# 6 0.000000 0.000000 0.000000 -0.006849 0.000000 0.086476
#
#
# Mechanical properties :
#
#
# Convention : Reuss Voigt Hill
#
# Bulk Modulus (GPa) = 19.47753 38.21127 28.84440
# Shear Modulus (GPa) = 19.19022 28.30439 23.74730
#
# Velocity S-wave (km/s) = 2.99749 3.64036 3.33445
# Velocity P-wave (km/s) = 4.59340 5.96324 5.32258
#
# Compressibility (1/GPa) = 0.05134120
#
# Stress axis : x y z
#
# Youngs Moduli (GPa) = 82.12129 20.75027 74.14680
#
# Poissons Ratio (x) = -0.04245 0.38119
# Poissons Ratio (y) = -0.16800 0.60520
# Poissons Ratio (z) = 0.42219 0.16937
#
# Static dielectric constant tensor:
#      x y z
#    x 1.769860 0.000000 -0.020420 
#    y 0.000000 1.814110 0.000000 
#    z -0.020420 0.000000 1.802660 
# 
# From -- ./inp_files/96424.got.cif
#   From: 2010.05.17/outbox.cif.g08.bks.cpg/sg15_49_cif.got.tgz:96424.got - 2010.06.03 18:47:42.
