data_PCOD9276180
_publ_section_title
;
Structure prediction by ZEFSAII (Michael W. Deem and Ramdas Pophale) SiO2 
 PCOD9276180
Probable space group: C 2/C
;
_chemical_formula_sum "Si O2"
_cell_formula_units_Z 40
_cell_length_a 20.461688
_cell_length_b 18.424352
_cell_length_c 5.164269
_cell_angle_alpha 90.000000
_cell_angle_beta 53.376714
_cell_angle_gamma 90.000000
_cell_volume 1562.529460
_symmetry_space_group_name_H-M "C 2/C"
_symmetry_group_IT_number 15
_symmetry_cell_setting 'monoclinic'
loop_
_space_group_symop_operation_xyz
x,y,z
-x,y,1/2-z
-x,-y,-z
x,-y,1/2+z
1/2+x,1/2+y,z
1/2-x,1/2+y,1/2-z
1/2-x,1/2-y,-z
1/2+x,1/2-y,1/2+z
loop_
_atom_site_type_symbol
_atom_site_label
_atom_site_fract_x
_atom_site_fract_y
_atom_site_fract_z
Si Si1 0.000000 0.553622 0.250000
Si Si2 0.574067 0.694100 0.740056
Si Si3 0.500000 0.431372 0.750000
Si Si4 0.179222 0.959652 0.443824
Si Si5 0.239249 0.833661 0.941604
Si Si6 0.084687 0.650666 0.410858
O O1 0.926366 0.608938 0.339683
O O2 0.000000 0.500000 0.500000
O O3 0.500000 0.723470 0.750000
O O4 0.662857 0.671993 0.423384
O O5 0.587101 0.762085 0.895163
O O6 0.537592 0.622442 0.949432
O O7 0.580115 0.466709 0.684977
O O8 0.208650 0.982907 0.656125
O O9 0.205402 0.882939 0.259132
O O10 0.327872 0.866563 0.669586
O O11 0.250000 0.750000 0.000000
O O12 0.000000 0.633581 0.750000
#
# Coordination Sequence:
#
# PCOD9276180 Si02
#       6
#     4   8   4   8   8   8
#     4  12  26  45  70 101 136 196 250 304 368 442
#     4  10  20  39  70 105 144 186 241 306 374 438
#     4  10  22  37  68  99 144 186 238 280 360 448
#     4  11  25  45  67 103 146 191 233 294 365 435
#     4   9  23  46  70 106 147 193 253 306 370 445
#     4  11  22  45  69 102 141 189 246 315 374 433
#
# _framework density 25.599518
#
# number of rings (size 3 to 8) (size 9 to 14) (size 15 to 20)
#    0.000    1.600    3.000    0.600    5.600    1.600 
#    3.600    2.000    0.000    0.000    0.000    0.000 
#    0.000    0.000    0.000    0.000    0.000    0.000 
#
# Total GULP energy -111439.767984 kJ/mol
# GULP energy per Si atom -5571.988399 kJ/mol
# Density = 2.554125 g / cm^3
# Si number density = 25.599518 Si / 1000 Ang^3
#
#
#
# Elastic Constant Matrix: (Units=GPa)
#
#
# Indices 1 2 3 4 5 6 
#
# 1 119.6997 3.9476 76.1593 0.0000 -46.4127 0.0000
# 2 3.9476 147.0986 25.0191 0.0000 -2.1477 0.0000
# 3 76.1593 25.0191 108.6958 0.0000 -34.6553 0.0000
# 4 0.0000 0.0000 0.0000 22.5932 0.0000 -2.4854
# 5 -46.4127 -2.1477 -34.6553 0.0000 47.7055 0.0000
# 6 0.0000 0.0000 0.0000 -2.4854 0.0000 30.4730
#
#
#
# Elastic Compliance Matrix: (Units=1/GPa)
#
#
# Indices 1 2 3 4 5 6 
#
# 1 0.019137 0.001372 -0.010110 0.000000 0.011336 0.000000
# 2 0.001372 0.007220 -0.002725 0.000000 -0.000320 0.000000
# 3 -0.010110 -0.002725 0.017876 0.000000 0.003027 0.000000
# 4 0.000000 0.000000 0.000000 0.044662 0.000000 0.003643
# 5 0.011336 -0.000320 0.003027 0.000000 0.034175 0.000000
# 6 0.000000 0.000000 0.000000 0.003643 0.000000 0.033113
#
#
# Mechanical properties :
#
#
# Convention : Reuss Voigt Hill
#
# Bulk Modulus (GPa) = 46.93489 65.08290 56.00890
# Shear Modulus (GPa) = 26.85107 38.17888 32.51497
#
# Velocity S-wave (km/s) = 3.24217 3.86604 3.56777
# Velocity P-wave (km/s) = 5.69119 6.73848 6.23685
#
# Compressibility (1/GPa) = 0.02130611
#
# Stress axis : x y z
#
# Youngs Moduli (GPa) = 52.25501 138.50131 55.94035
#
# Poissons Ratio (x) = -0.18996 0.56557
# Poissons Ratio (y) = -0.07167 0.15243
# Poissons Ratio (z) = 0.52831 0.37741
#
# Static dielectric constant tensor:
#      x y z
#    x 2.367820 0.000000 -0.059110 
#    y 0.000000 2.016020 0.000000 
#    z -0.059110 0.000000 2.105230 
# 
# From -- ./inp_files/15769.got.cif
#   From: 2010.05.17/outbox.cif.g08.bks.cpg/sg15_8_cif.got.tgz:15769.got - 2010.06.03 18:47:42.
