data_PCOD9276393
_publ_section_title
;
Structure prediction by ZEFSAII (Michael W. Deem and Ramdas Pophale) SiO2 
 PCOD9276393
Probable space group: C 2/C
;
_chemical_formula_sum "Si O2"
_cell_formula_units_Z 60
_cell_length_a 24.631086
_cell_length_b 8.197029
_cell_length_c 15.958776
_cell_angle_alpha 90.000000
_cell_angle_beta 110.718588
_cell_angle_gamma 90.000000
_cell_volume 3013.728696
_symmetry_space_group_name_H-M "C 2/C"
_symmetry_group_IT_number 15
_symmetry_cell_setting 'monoclinic'
loop_
_space_group_symop_operation_xyz
x,y,z
-x,y,1/2-z
-x,-y,-z
x,-y,1/2+z
1/2+x,1/2+y,z
1/2-x,1/2+y,1/2-z
1/2-x,1/2-y,-z
1/2+x,1/2-y,1/2+z
loop_
_atom_site_type_symbol
_atom_site_label
_atom_site_fract_x
_atom_site_fract_y
_atom_site_fract_z
Si Si1 0.942566 0.674631 0.860264
Si Si2 0.512515 0.316477 0.035894
Si Si3 0.071184 0.831322 0.360503
Si Si4 0.811544 0.661677 0.028221
Si Si5 0.597562 0.191339 0.196667
Si Si6 0.317589 0.787216 0.346592
Si Si7 0.000000 0.122830 0.250000
Si Si8 0.212740 0.450120 0.808805
O O1 0.925227 0.489286 0.835406
O O2 0.884513 0.756515 0.866255
O O3 0.960650 0.765987 0.786676
O O4 0.996409 0.697654 0.951844
O O5 0.470040 0.265970 0.088845
O O6 0.576173 0.302630 0.109216
O O7 0.500000 0.500000 0.000000
O O8 0.136616 0.791469 0.426024
O O9 0.069501 0.748885 0.268407
O O10 0.044044 0.009537 0.327717
O O11 0.808397 0.535045 0.105066
O O12 0.750000 0.750000 0.000000
O O13 0.817247 0.609872 0.934024
O O14 0.666205 0.180200 0.246747
O O15 0.275773 0.632219 0.337132
O O16 0.295041 0.892850 0.254811
#
# Coordination Sequence:
#
# PCOD9276393 Si02
#       8
#     8   8   8   8   8   8   4   8
#     4  11  24  38  59  89 122 157 202 248 303 360
#     4  12  21  37  59  88 116 154 202 246 295 357
#     4  11  20  38  60  82 120 156 197 248 299 356
#     4   9  19  37  62  84 114 158 200 240 304 361
#     4  10  22  40  58  86 121 162 194 244 306 358
#     4  10  20  40  61  88 119 156 201 248 298 365
#     4  12  24  38  58  94 120 156 206 252 300 360
#     4   9  21  38  62  90 116 159 201 246 300 358
#
# _framework density 19.908891000000001
#
# number of rings (size 3 to 8) (size 9 to 14) (size 15 to 20)
#    0.000    1.600    4.000    0.400    1.867    4.267 
#    0.000    0.667    0.000    0.000    0.000    0.000 
#    0.000    0.000    0.000    0.000    0.000    0.000 
#
# Total GULP energy -167199.919722 kJ/mol
# GULP energy per Si atom -5573.330657 kJ/mol
# Density = 1.986358 g / cm^3
# Si number density = 19.908891 Si / 1000 Ang^3
#
#
#
# Elastic Constant Matrix: (Units=GPa)
#
#
# Indices 1 2 3 4 5 6 
#
# 1 73.5111 -4.9265 7.6609 0.0000 -7.8048 0.0000
# 2 -4.9265 35.3238 5.5808 0.0000 -2.1543 0.0000
# 3 7.6609 5.5808 93.6245 0.0000 -6.4955 0.0000
# 4 0.0000 0.0000 0.0000 27.8844 0.0000 -0.2077
# 5 -7.8048 -2.1543 -6.4955 0.0000 35.7444 0.0000
# 6 0.0000 0.0000 0.0000 -0.2077 0.0000 15.0995
#
#
#
# Elastic Compliance Matrix: (Units=1/GPa)
#
#
# Indices 1 2 3 4 5 6 
#
# 1 0.014197 0.002338 -0.001090 0.000000 0.003043 0.000000
# 2 0.002338 0.029036 -0.001788 0.000000 0.001936 0.000000
# 3 -0.001090 -0.001788 0.010991 0.000000 0.001652 0.000000
# 4 0.000000 0.000000 0.000000 0.035866 0.000000 0.000493
# 5 0.003043 0.001936 0.001652 0.000000 0.029058 0.000000
# 6 0.000000 0.000000 0.000000 0.000493 0.000000 0.066234
#
#
# Mechanical properties :
#
#
# Convention : Reuss Voigt Hill
#
# Bulk Modulus (GPa) = 18.81679 24.34332 21.58005
# Shear Modulus (GPa) = 24.48863 28.68861 26.58862
#
# Velocity S-wave (km/s) = 3.51099 3.80016 3.65843
# Velocity P-wave (km/s) = 5.08999 5.61328 5.35803
#
# Compressibility (1/GPa) = 0.05314404
#
# Stress axis : x y z
#
# Youngs Moduli (GPa) = 70.43904 34.43996 90.98100
#
# Poissons Ratio (x) = -0.08051 0.09916
# Poissons Ratio (y) = -0.16467 0.16266
# Poissons Ratio (z) = 0.07677 0.06157
#
# Static dielectric constant tensor:
#      x y z
#    x 1.714280 0.000000 0.015060 
#    y 0.000000 1.687060 0.000000 
#    z 0.015060 0.000000 1.761010 
# 
# From -- ./inp_files/172440.got.cif
#   From: 2010.05.17/outbox.cif.g08.bks.cpg/sg15_87_cif.got.tgz:172440.got - 2010.06.03 18:47:42.
