data_PCOD9276026
_publ_section_title
;
Structure prediction by ZEFSAII (Michael W. Deem and Ramdas Pophale) SiO2 
 PCOD9276026
Probable space group: C 2/C
;
_chemical_formula_sum "Si O2"
_cell_formula_units_Z 48
_cell_length_a 11.303755
_cell_length_b 11.919179
_cell_length_c 16.082512
_cell_angle_alpha 90.000000
_cell_angle_beta 64.775195
_cell_angle_gamma 90.000000
_cell_volume 1960.198327
_symmetry_space_group_name_H-M "C 2/C"
_symmetry_group_IT_number 15
_symmetry_cell_setting 'monoclinic'
loop_
_space_group_symop_operation_xyz
x,y,z
-x,y,1/2-z
-x,-y,-z
x,-y,1/2+z
1/2+x,1/2+y,z
1/2-x,1/2+y,1/2-z
1/2-x,1/2-y,-z
1/2+x,1/2-y,1/2+z
loop_
_atom_site_type_symbol
_atom_site_label
_atom_site_fract_x
_atom_site_fract_y
_atom_site_fract_z
Si Si1 0.611413 0.327881 0.136200
Si Si2 0.871437 0.412816 0.333419
Si Si3 0.146186 0.075246 0.178190
Si Si4 0.198183 0.872530 0.920159
Si Si5 0.664701 0.750711 0.838558
Si Si6 0.429232 0.284718 0.943236
O O1 0.640476 0.442368 0.175843
O O2 0.702707 0.225653 0.133806
O O3 0.461473 0.285951 0.175498
O O4 0.654588 0.357251 0.028617
O O5 0.772439 0.510616 0.388430
O O6 0.787337 0.333266 0.297482
O O7 0.000000 0.458461 0.250000
O O8 0.921032 0.330567 0.393025
O O9 0.267993 0.127401 0.191778
O O10 0.000000 0.113479 0.250000
O O11 0.159104 0.128525 0.082304
O O12 0.067335 0.849169 0.907679
O O13 0.615042 0.737487 0.949410
#
# Coordination Sequence:
#
# PCOD9276026 Si02
#       6
#     8   8   8   8   8   8
#     4  10  22  41  62  88 120 160 207 249 299 361
#     4  11  22  39  58  92 125 156 200 251 310 365
#     4  11  22  39  58  92 125 156 200 251 310 365
#     4  10  22  41  62  88 120 160 207 249 299 361
#     4  10  20  39  67  88 114 160 209 253 294 357
#     4  10  20  39  67  88 114 160 209 253 294 357
#
# _framework density 24.487317999999998
#
# number of rings (size 3 to 8) (size 9 to 14) (size 15 to 20)
#    0.000    1.667    0.000    7.000    0.000    4.667 
#   18.000    5.000    0.000    0.000    0.000    0.000 
#    0.000    0.000    0.000    0.000    0.000    0.000 
#
# Total GULP energy -134374.108755 kJ/mol
# GULP energy per Si atom -5598.921198 kJ/mol
# Density = 2.443158 g / cm^3
# Si number density = 24.487318 Si / 1000 Ang^3
#
#
#
# Elastic Constant Matrix: (Units=GPa)
#
#
# Indices 1 2 3 4 5 6 
#
# 1 140.9555 63.7650 34.8014 0.0000 -18.2259 0.0000
# 2 63.7650 160.7025 29.9007 0.0000 -16.1830 0.0000
# 3 34.8014 29.9007 94.4613 0.0000 -19.8890 0.0000
# 4 0.0000 0.0000 0.0000 36.2640 0.0000 -16.4204
# 5 -18.2259 -16.1830 -19.8890 0.0000 47.3964 0.0000
# 6 0.0000 0.0000 0.0000 -16.4204 0.0000 32.9731
#
#
#
# Elastic Compliance Matrix: (Units=1/GPa)
#
#
# Indices 1 2 3 4 5 6 
#
# 1 0.009222 -0.003111 -0.002073 0.000000 0.001614 0.000000
# 2 -0.003111 0.007762 -0.001102 0.000000 0.000991 0.000000
# 3 -0.002073 -0.001102 0.012562 0.000000 0.004098 0.000000
# 4 0.000000 0.000000 0.000000 0.035604 0.000000 0.017731
# 5 0.001614 0.000991 0.004098 0.000000 0.023777 0.000000
# 6 0.000000 0.000000 0.000000 0.017731 0.000000 0.039157
#
#
# Mechanical properties :
#
#
# Convention : Reuss Voigt Hill
#
# Bulk Modulus (GPa) = 58.91435 72.56152 65.73794
# Shear Modulus (GPa) = 34.17279 41.17017 37.67148
#
# Velocity S-wave (km/s) = 3.73973 4.10480 3.92651
# Velocity P-wave (km/s) = 6.53902 7.22236 6.88917
#
# Compressibility (1/GPa) = 0.01697379
#
# Stress axis : x y z
#
# Youngs Moduli (GPa) = 108.43208 128.83266 79.60677
#
# Poissons Ratio (x) = 0.40081 0.16503
# Poissons Ratio (y) = 0.33734 0.08773
# Poissons Ratio (z) = 0.22479 0.14198
#
# Static dielectric constant tensor:
#      x y z
#    x 1.915710 0.000000 0.030450 
#    y 0.000000 1.904590 0.000000 
#    z 0.030450 0.000000 2.056420 
# 
# From -- ./inp_files/196510.got.cif
#   From: 2010.05.17/outbox.cif.g08.bks.cpg/sg15_99_cif.got.tgz:196510.got - 2010.06.03 18:47:42.
