data_PCOD9276871
_publ_section_title
;
Structure prediction by ZEFSAII (Michael W. Deem and Ramdas Pophale) SiO2 
 PCOD9276871
Probable space group: C 2/C
;
_chemical_formula_sum "Si O2"
_cell_formula_units_Z 56
_cell_length_a 19.219335
_cell_length_b 8.128870
_cell_length_c 14.265262
_cell_angle_alpha 90.000000
_cell_angle_beta 79.070922
_cell_angle_gamma 90.000000
_cell_volume 2188.260462
_symmetry_space_group_name_H-M "C 2/C"
_symmetry_group_IT_number 15
_symmetry_cell_setting 'monoclinic'
loop_
_space_group_symop_operation_xyz
x,y,z
-x,y,1/2-z
-x,-y,-z
x,-y,1/2+z
1/2+x,1/2+y,z
1/2-x,1/2+y,1/2-z
1/2-x,1/2-y,-z
1/2+x,1/2-y,1/2+z
loop_
_atom_site_type_symbol
_atom_site_label
_atom_site_fract_x
_atom_site_fract_y
_atom_site_fract_z
Si Si1 0.011865 0.457339 0.635774
Si Si2 0.636434 0.882788 0.337403
Si Si3 0.117280 0.959099 0.748828
Si Si4 0.150353 0.164137 0.051016
Si Si5 0.039039 0.867798 0.426382
Si Si6 0.328409 0.007567 0.877115
Si Si7 0.775810 0.861899 0.398703
O O1 0.090997 0.520375 0.604550
O O2 0.000000 0.432002 0.750000
O O3 0.944393 0.565880 0.622504
O O4 0.008677 0.287357 0.582321
O O5 0.639192 0.691530 0.308770
O O6 0.662966 0.979452 0.237855
O O7 0.694015 0.904269 0.403113
O O8 0.097521 0.876603 0.653781
O O9 0.060408 0.059080 0.820842
O O10 0.182002 0.078833 0.705809
O O11 0.198060 0.314764 0.078064
O O12 0.190120 0.988604 0.036267
O O13 0.108790 0.188770 0.965757
O O14 0.000000 0.000000 0.500000
O O15 0.294622 0.829336 0.906687
#
# Coordination Sequence:
#
# PCOD9276871 Si02
#       7
#     8   8   8   8   8   8   8
#     4  10  23  41  66 101 137 183 231 292 350 420
#     4  10  20  40  71 102 133 188 237 283 355 418
#     4   9  22  41  66  99 137 175 234 291 341 416
#     4   9  24  43  66 101 135 180 231 288 346 416
#     4  12  25  41  68 100 140 190 237 285 361 420
#     4  10  20  40  66 100 139 177 233 287 350 411
#     4  10  20  43  74  96 139 184 237 281 357 415
#
# _framework density 25.591104000000001
#
# number of rings (size 3 to 8) (size 9 to 14) (size 15 to 20)
#    0.857    1.143    0.000    3.429    4.000    0.571 
#    5.143    1.429    0.000    0.000    0.000    0.000 
#    0.000    0.000    0.000    0.000    0.000    0.000 
#
# Total GULP energy -156663.502854 kJ/mol
# GULP energy per Si atom -5595.125102 kJ/mol
# Density = 2.553286 g / cm^3
# Si number density = 25.591104 Si / 1000 Ang^3
#
#
#
# Elastic Constant Matrix: (Units=GPa)
#
#
# Indices 1 2 3 4 5 6 
#
# 1 97.9274 25.9596 21.3330 0.0000 7.6611 0.0000
# 2 25.9596 127.3216 28.7677 0.0000 -4.9046 0.0000
# 3 21.3330 28.7677 84.5648 0.0000 -9.0317 0.0000
# 4 0.0000 0.0000 0.0000 39.6329 0.0000 3.3777
# 5 7.6611 -4.9046 -9.0317 0.0000 34.0121 0.0000
# 6 0.0000 0.0000 0.0000 3.3777 0.0000 34.7437
#
#
#
# Elastic Compliance Matrix: (Units=1/GPa)
#
#
# Indices 1 2 3 4 5 6 
#
# 1 0.011574 -0.001898 -0.002657 0.000000 -0.003586 0.000000
# 2 -0.001898 0.008827 -0.002411 0.000000 0.001060 0.000000
# 3 -0.002657 -0.002411 0.013732 0.000000 0.003897 0.000000
# 4 0.000000 0.000000 0.000000 0.025442 0.000000 -0.002473
# 5 -0.003586 0.001060 0.003897 0.000000 0.031397 0.000000
# 6 0.000000 0.000000 0.000000 -0.002473 0.000000 0.029023
#
#
# Mechanical properties :
#
#
# Convention : Reuss Voigt Hill
#
# Bulk Modulus (GPa) = 49.50153 51.32604 50.41378
# Shear Modulus (GPa) = 35.54683 37.26130 36.40406
#
# Velocity S-wave (km/s) = 3.73101 3.81993 3.77573
# Velocity P-wave (km/s) = 6.16002 6.28932 6.22501
#
# Compressibility (1/GPa) = 0.02020140
#
# Stress axis : x y z
#
# Youngs Moduli (GPa) = 86.39968 113.29445 72.82299
#
# Poissons Ratio (x) = 0.21499 0.19351
# Poissons Ratio (y) = 0.16395 0.17556
# Poissons Ratio (z) = 0.22959 0.27312
#
# Static dielectric constant tensor:
#      x y z
#    x 2.069680 0.000000 -0.073500 
#    y 0.000000 1.986430 0.000000 
#    z -0.073500 0.000000 2.051640 
# 
# From -- ./inp_files/171786.got.cif
#   From: 2010.05.17/outbox.cif.g08.bks.cpg/sg15_86_cif.got.tgz:171786.got - 2010.06.03 18:47:42.
