data_PCOD9276909
_publ_section_title
;
Structure prediction by ZEFSAII (Michael W. Deem and Ramdas Pophale) SiO2 
 PCOD9276909
Probable space group: C 2/C
;
_chemical_formula_sum "Si O2"
_cell_formula_units_Z 32
_cell_length_a 13.152310
_cell_length_b 22.426906
_cell_length_c 10.582226
_cell_angle_alpha 90.000000
_cell_angle_beta 157.356301
_cell_angle_gamma 90.000000
_cell_volume 1201.734174
_symmetry_space_group_name_H-M "C 2/C"
_symmetry_group_IT_number 15
_symmetry_cell_setting 'monoclinic'
loop_
_space_group_symop_operation_xyz
x,y,z
-x,y,1/2-z
-x,-y,-z
x,-y,1/2+z
1/2+x,1/2+y,z
1/2-x,1/2+y,1/2-z
1/2-x,1/2-y,-z
1/2+x,1/2-y,1/2+z
loop_
_atom_site_type_symbol
_atom_site_label
_atom_site_fract_x
_atom_site_fract_y
_atom_site_fract_z
Si Si1 0.140139 0.564849 0.670066
Si Si2 0.400875 0.288187 0.865491
Si Si3 0.000000 0.429892 0.750000
Si Si4 0.500000 0.709165 0.750000
Si Si5 0.500000 0.490432 0.750000
Si Si6 0.500000 0.858708 0.250000
O O1 0.084572 0.600027 0.477702
O O2 0.000000 0.500000 0.500000
O O3 0.254828 0.469233 0.008355
O O4 0.435509 0.548500 0.051857
O O5 0.255761 0.321139 0.584448
O O6 0.187142 0.236004 0.653031
O O7 0.429564 0.321853 0.035158
O O8 0.250000 0.750000 0.500000
O O9 0.044856 0.398899 0.179938
#
# Coordination Sequence:
#
# PCOD9276909 Si02
#       6
#     8   8   4   4   4   4
#     4  10  22  42  64  94 132 177 231 284 332 398
#     4  10  22  44  69 102 138 171 218 281 338 409
#     4  10  21  40  65  88 124 172 218 280 338 386
#     4   8  16  36  68  95 130 171 206 264 342 400
#     4  10  20  40  66  90 120 172 225 284 339 384
#     4  12  25  42  71 103 136 187 229 276 349 402
#
# _framework density 26.628184000000001
#
# number of rings (size 3 to 8) (size 9 to 14) (size 15 to 20)
#    0.000    2.000    0.000    4.500    0.000    4.000 
#    0.000   15.000    0.000    0.000    0.000    0.000 
#    0.000    0.000    0.000    0.000    0.000    0.000 
#
# Total GULP energy -89477.370023 kJ/mol
# GULP energy per Si atom -5592.335626 kJ/mol
# Density = 2.656758 g / cm^3
# Si number density = 26.628184 Si / 1000 Ang^3
#
#
#
# Elastic Constant Matrix: (Units=GPa)
#
#
# Indices 1 2 3 4 5 6 
#
# 1 184.3924 43.7102 71.7742 0.0005 -50.5472 0.0001
# 2 43.7102 53.0250 27.8634 0.0000 -6.8318 0.0000
# 3 71.7742 27.8634 139.9331 0.0027 -21.3406 0.0018
# 4 0.0005 0.0000 0.0027 37.0852 0.0016 9.0868
# 5 -50.5472 -6.8318 -21.3406 0.0016 93.7544 0.0006
# 6 0.0001 0.0000 0.0018 9.0868 0.0006 38.4283
#
#
#
# Elastic Compliance Matrix: (Units=1/GPa)
#
#
# Indices 1 2 3 4 5 6 
#
# 1 0.008821 -0.005264 -0.002910 0.000000 0.003710 0.000000
# 2 -0.005264 0.024237 -0.002372 0.000000 -0.001612 0.000000
# 3 -0.002910 -0.002372 0.009164 -0.000001 0.000344 0.000000
# 4 0.000000 0.000000 -0.000001 0.028623 -0.000001 -0.006768
# 5 0.003710 -0.001612 0.000344 -0.000001 0.012627 0.000000
# 6 0.000000 0.000000 0.000000 -0.006768 0.000000 0.027623
#
#
# Mechanical properties :
#
#
# Convention : Reuss Voigt Hill
#
# Bulk Modulus (GPa) = 47.32827 73.78289 60.55558
# Shear Modulus (GPa) = 35.91165 49.45377 42.68271
#
# Velocity S-wave (km/s) = 3.67636 4.31420 4.00799
# Velocity P-wave (km/s) = 5.98608 7.25156 6.64899
#
# Compressibility (1/GPa) = 0.02112902
#
# Stress axis : x y z
#
# Youngs Moduli (GPa) = 113.36778 41.25931 109.12467
#
# Poissons Ratio (x) = 0.21719 0.31760
# Poissons Ratio (y) = 0.59676 0.25883
# Poissons Ratio (z) = 0.32995 0.09786
#
# Static dielectric constant tensor:
#      x y z
#    x 2.088950 0.000000 -0.061140 
#    y 0.000000 2.178490 0.000000 
#    z -0.061140 0.000000 2.154620 
# 
# From -- ./inp_files/4078.got.cif
#   From: 2010.05.17/outbox.cif.g08.bks.cpg/sg15_3_cif.got.tgz:4078.got - 2010.06.03 18:47:42.
