data_PCOD9276354
_publ_section_title
;
Structure prediction by ZEFSAII (Michael W. Deem and Ramdas Pophale) SiO2 
 PCOD9276354
Probable space group: C 2/C
;
_chemical_formula_sum "Si O2"
_cell_formula_units_Z 52
_cell_length_a 17.934619
_cell_length_b 16.763652
_cell_length_c 8.471406
_cell_angle_alpha 90.000000
_cell_angle_beta 64.022887
_cell_angle_gamma 90.000000
_cell_volume 2289.607526
_symmetry_space_group_name_H-M "C 2/C"
_symmetry_group_IT_number 15
_symmetry_cell_setting 'monoclinic'
loop_
_space_group_symop_operation_xyz
x,y,z
-x,y,1/2-z
-x,-y,-z
x,-y,1/2+z
1/2+x,1/2+y,z
1/2-x,1/2+y,1/2-z
1/2-x,1/2-y,-z
1/2+x,1/2-y,1/2+z
loop_
_atom_site_type_symbol
_atom_site_label
_atom_site_fract_x
_atom_site_fract_y
_atom_site_fract_z
Si Si1 0.879255 0.952177 0.618953
Si Si2 0.500000 0.476349 0.250000
Si Si3 0.738064 0.662870 0.376087
Si Si4 0.384257 0.915784 0.591980
Si Si5 0.500000 0.820015 0.250000
Si Si6 0.500000 0.102891 0.250000
Si Si7 0.763115 0.436692 0.174751
Si Si8 0.878771 0.698019 0.597007
O O1 0.934420 0.929811 0.416408
O O2 0.816813 0.881727 0.706127
O O3 0.819552 0.030052 0.663983
O O4 0.944857 0.969130 0.690825
O O5 0.829305 0.656295 0.219044
O O6 0.739784 0.605334 0.529128
O O7 0.684704 0.743130 0.436782
O O8 0.440798 0.876750 0.407782
O O9 0.443178 0.945262 0.680610
O O10 0.324796 0.988012 0.594967
O O11 0.560720 0.773875 0.317234
O O12 0.439840 0.156922 0.413715
O O13 0.816225 0.370667 0.217761
#
# Coordination Sequence:
#
# PCOD9276354 Si02
#       8
#     8   4   8   8   4   4   8   8
#     4  10  22  39  65  91 128 165 225 267 325 376
#     4  10  20  40  60  94 122 162 210 282 312 368
#     4  11  23  44  65  96 127 177 219 264 323 402
#     4  10  24  42  69  96 137 166 227 267 324 392
#     4  10  26  44  64 107 129 174 210 276 345 375
#     4  10  22  44  64 105 131 176 212 272 331 387
#     4  11  23  40  67  97 127 177 218 270 317 398
#     4  11  25  42  69  93 138 169 218 263 338 399
#
# _framework density 22.711314999999999
#
# number of rings (size 3 to 8) (size 9 to 14) (size 15 to 20)
#    0.000    1.538    3.077    0.462    4.308    5.538 
#    0.000    0.000    0.000    0.000    0.000    0.000 
#    0.000    0.000    0.000    0.000    0.000    0.000 
#
# Total GULP energy -144994.647587 kJ/mol
# GULP energy per Si atom -5576.717215 kJ/mol
# Density = 2.265962 g / cm^3
# Si number density = 22.711315 Si / 1000 Ang^3
#
#
#
# Elastic Constant Matrix: (Units=GPa)
#
#
# Indices 1 2 3 4 5 6 
#
# 1 162.1991 32.0396 35.5425 0.0000 -1.6421 0.0000
# 2 32.0396 59.7125 3.6861 0.0000 -6.6377 0.0000
# 3 35.5425 3.6861 68.6132 0.0000 -19.8634 0.0000
# 4 0.0000 0.0000 0.0000 22.4640 0.0000 -3.1361
# 5 -1.6421 -6.6377 -19.8634 0.0000 36.4620 0.0000
# 6 0.0000 0.0000 0.0000 -3.1361 0.0000 36.2735
#
#
#
# Elastic Compliance Matrix: (Units=1/GPa)
#
#
# Indices 1 2 3 4 5 6 
#
# 1 0.008053 -0.004363 -0.004823 0.000000 -0.003059 0.000000
# 2 -0.004363 0.019457 0.002592 0.000000 0.004758 0.000000
# 3 -0.004823 0.002592 0.020192 0.000000 0.011254 0.000000
# 4 0.000000 0.000000 0.000000 0.045059 0.000000 0.003896
# 5 -0.003059 0.004758 0.011254 0.000000 0.034285 0.000000
# 6 0.000000 0.000000 0.000000 0.003896 0.000000 0.027905
#
#
# Mechanical properties :
#
#
# Convention : Reuss Voigt Hill
#
# Bulk Modulus (GPa) = 28.97364 48.11791 38.54577
# Shear Modulus (GPa) = 27.83294 33.65700 30.74497
#
# Velocity S-wave (km/s) = 3.50453 3.85378 3.68330
# Velocity P-wave (km/s) = 5.40006 6.40585 5.92434
#
# Compressibility (1/GPa) = 0.03451414
#
# Stress axis : x y z
#
# Youngs Moduli (GPa) = 124.17784 51.39554 49.52578
#
# Poissons Ratio (x) = 0.22425 0.23885
# Poissons Ratio (y) = 0.54182 -0.12838
# Poissons Ratio (z) = 0.59887 -0.13323
#
# Static dielectric constant tensor:
#      x y z
#    x 1.905380 0.000000 0.024420 
#    y 0.000000 1.922140 0.000000 
#    z 0.024420 0.000000 1.874620 
# 
# From -- ./inp_files/48971.got.cif
#   From: 2010.05.17/outbox.cif.g08.bks.cpg/sg15_25_cif.got.tgz:48971.got - 2010.06.03 18:47:42.
