data_PCOD9276362
_publ_section_title
;
Structure prediction by ZEFSAII (Michael W. Deem and Ramdas Pophale) SiO2 
 PCOD9276362
Probable space group: C 2/C
;
_chemical_formula_sum "Si O2"
_cell_formula_units_Z 52
_cell_length_a 10.796209
_cell_length_b 10.881824
_cell_length_c 18.010287
_cell_angle_alpha 90.000000
_cell_angle_beta 72.959584
_cell_angle_gamma 90.000000
_cell_volume 2023.001253
_symmetry_space_group_name_H-M "C 2/C"
_symmetry_group_IT_number 15
_symmetry_cell_setting 'monoclinic'
loop_
_space_group_symop_operation_xyz
x,y,z
-x,y,1/2-z
-x,-y,-z
x,-y,1/2+z
1/2+x,1/2+y,z
1/2-x,1/2+y,1/2-z
1/2-x,1/2-y,-z
1/2+x,1/2-y,1/2+z
loop_
_atom_site_type_symbol
_atom_site_label
_atom_site_fract_x
_atom_site_fract_y
_atom_site_fract_z
Si Si1 0.503137 0.609419 0.083652
Si Si2 0.114933 0.663745 0.962737
Si Si3 0.152804 0.851239 0.182478
Si Si4 0.105580 0.294020 0.819183
Si Si5 0.825651 0.885895 0.076800
Si Si6 0.500000 0.419781 0.750000
Si Si7 0.060516 0.496612 0.607479
O O1 0.414143 0.694967 0.047352
O O2 0.435666 0.476653 0.090623
O O3 0.503294 0.647404 0.170091
O O4 0.640910 0.614439 0.016879
O O5 0.248533 0.631742 0.900654
O O6 0.003383 0.595098 0.935772
O O7 0.109478 0.614900 0.046525
O O8 0.199314 0.754614 0.237458
O O9 0.022843 0.787651 0.174521
O O10 0.120256 0.984056 0.222800
O O11 0.159179 0.247214 0.888120
O O12 0.054418 0.432719 0.825625
O O13 0.686305 0.942461 0.120479
#
# Coordination Sequence:
#
# PCOD9276362 Si02
#       7
#     8   8   8   8   8   4   8
#     4  11  22  40  67  97 130 172 236 276 344 407
#     4  11  25  43  62  98 135 182 218 280 349 408
#     4  10  21  42  67  93 134 173 221 286 341 400
#     4  10  21  45  67  99 129 175 230 277 343 405
#     4  11  22  41  72 100 125 175 233 290 330 414
#     4  10  20  40  60  96 128 170 216 290 344 414
#     4  11  25  44  66  97 141 175 226 284 342 415
#
# _framework density 25.704384000000001
#
# number of rings (size 3 to 8) (size 9 to 14) (size 15 to 20)
#    0.000    1.538    4.615    1.846    2.154    3.077 
#   11.077    0.000    0.000    0.000    0.000    0.000 
#    0.000    0.000    0.000    0.000    0.000    0.000 
#
# Total GULP energy -145451.233649 kJ/mol
# GULP energy per Si atom -5594.278217 kJ/mol
# Density = 2.564588 g / cm^3
# Si number density = 25.704384 Si / 1000 Ang^3
#
#
#
# Elastic Constant Matrix: (Units=GPa)
#
#
# Indices 1 2 3 4 5 6 
#
# 1 61.3055 20.1662 17.2446 0.0000 0.7197 0.0000
# 2 20.1662 52.5185 8.0211 0.0000 3.3732 0.0000
# 3 17.2446 8.0211 85.7752 0.0000 9.3395 0.0000
# 4 0.0000 0.0000 0.0000 26.1693 0.0000 4.7808
# 5 0.7197 3.3732 9.3395 0.0000 27.8169 0.0000
# 6 0.0000 0.0000 0.0000 4.7808 0.0000 29.3877
#
#
#
# Elastic Compliance Matrix: (Units=1/GPa)
#
#
# Indices 1 2 3 4 5 6 
#
# 1 0.019596 -0.007096 -0.003440 0.000000 0.001509 0.000000
# 2 -0.007096 0.021974 -0.000372 0.000000 -0.002356 0.000000
# 3 -0.003440 -0.000372 0.012840 0.000000 -0.004177 0.000000
# 4 0.000000 0.000000 0.000000 0.039383 0.000000 -0.006407
# 5 0.001509 -0.002356 -0.004177 0.000000 0.037598 0.000000
# 6 0.000000 0.000000 0.000000 -0.006407 0.000000 0.035070
#
#
# Mechanical properties :
#
#
# Convention : Reuss Voigt Hill
#
# Bulk Modulus (GPa) = 30.68112 32.27366 31.47739
# Shear Modulus (GPa) = 25.10778 26.95260 26.03019
#
# Velocity S-wave (km/s) = 3.12875 3.24166 3.18571
# Velocity P-wave (km/s) = 5.00142 5.15695 5.07978
#
# Compressibility (1/GPa) = 0.03259334
#
# Stress axis : x y z
#
# Youngs Moduli (GPa) = 51.03096 45.50886 77.88420
#
# Poissons Ratio (x) = 0.32293 0.26795
# Poissons Ratio (y) = 0.36211 0.02895
# Poissons Ratio (z) = 0.17556 0.01691
#
# Static dielectric constant tensor:
#      x y z
#    x 2.002350 0.000000 -0.019900 
#    y 0.000000 2.011080 0.000000 
#    z -0.019900 0.000000 2.114330 
# 
# From -- ./inp_files/236877.got.cif
#   From: 2010.05.17/outbox.cif.g08.bks.cpg/sg15_119_cif.got.tgz:236877.got - 2010.06.03 18:47:42.
