data_PCOD9276804
_publ_section_title
;
Structure prediction by ZEFSAII (Michael W. Deem and Ramdas Pophale) SiO2 
 PCOD9276804
Probable space group: C 2/C
;
_chemical_formula_sum "Si O2"
_cell_formula_units_Z 44
_cell_length_a 25.307298
_cell_length_b 7.309293
_cell_length_c 14.017340
_cell_angle_alpha 90.000000
_cell_angle_beta 136.279352
_cell_angle_gamma 90.000000
_cell_volume 1792.068527
_symmetry_space_group_name_H-M "C 2/C"
_symmetry_group_IT_number 15
_symmetry_cell_setting 'monoclinic'
loop_
_space_group_symop_operation_xyz
x,y,z
-x,y,1/2-z
-x,-y,-z
x,-y,1/2+z
1/2+x,1/2+y,z
1/2-x,1/2+y,1/2-z
1/2-x,1/2-y,-z
1/2+x,1/2-y,1/2+z
loop_
_atom_site_type_symbol
_atom_site_label
_atom_site_fract_x
_atom_site_fract_y
_atom_site_fract_z
Si Si1 0.178011 0.896445 0.522044
Si Si2 0.500000 0.008163 0.750000
Si Si3 0.083322 0.869305 0.681785
Si Si4 0.482136 0.703088 0.594127
Si Si5 0.715891 0.399186 0.349457
Si Si6 0.151284 0.696203 0.953992
O O1 0.099205 0.817637 0.459354
O O2 0.250706 0.782759 0.654548
O O3 0.184620 0.863033 0.416022
O O4 0.179157 0.113955 0.535055
O O5 0.525201 0.871507 0.698599
O O6 0.568867 0.127440 0.880907
O O7 0.034964 0.766998 0.539229
O O8 0.130976 0.746418 0.817084
O O9 0.145442 0.997597 0.708855
O O10 0.027427 0.011884 0.662134
O O11 0.786310 0.539646 0.452798
#
# Coordination Sequence:
#
# PCOD9276804 Si02
#       6
#     8   4   8   8   8   8
#     4  10  20  40  65  89 127 164 219 257 325 380
#     4  12  22  38  72  96 130 176 234 254 330 404
#     4  10  23  42  65  93 136 165 220 272 334 377
#     4  11  23  42  65  94 127 179 214 271 320 395
#     4  10  21  41  65  96 121 170 211 272 329 387
#     4  11  22  40  66  96 125 172 214 272 321 398
#
# _framework density 24.552631999999999
#
# number of rings (size 3 to 8) (size 9 to 14) (size 15 to 20)
#    0.000    1.455    1.818    5.455    2.545    0.727 
#    6.545    0.000    0.000    0.000    0.000    0.000 
#    0.000    0.000    0.000    0.000    0.000    0.000 
#
# Total GULP energy -123073.483984 kJ/mol
# GULP energy per Si atom -5594.249272 kJ/mol
# Density = 2.449675 g / cm^3
# Si number density = 24.552632 Si / 1000 Ang^3
#
#
#
# Elastic Constant Matrix: (Units=GPa)
#
#
# Indices 1 2 3 4 5 6 
#
# 1 86.9222 33.5464 0.8548 0.0000 23.0184 0.0000
# 2 33.5464 125.6801 23.2605 0.0000 1.8191 0.0000
# 3 0.8548 23.2605 57.5936 0.0000 -3.8503 0.0000
# 4 0.0000 0.0000 0.0000 12.3480 0.0000 7.9088
# 5 23.0184 1.8191 -3.8503 0.0000 32.3300 0.0000
# 6 0.0000 0.0000 0.0000 7.9088 0.0000 32.9196
#
#
#
# Elastic Compliance Matrix: (Units=1/GPa)
#
#
# Indices 1 2 3 4 5 6 
#
# 1 0.016093 -0.004272 0.000742 0.000000 -0.011129 0.000000
# 2 -0.004272 0.009760 -0.003741 0.000000 0.002047 0.000000
# 3 0.000742 -0.003741 0.018993 0.000000 0.001944 0.000000
# 4 0.000000 0.000000 0.000000 0.095712 0.000000 -0.022995
# 5 -0.011129 0.002047 0.001944 0.000000 0.038971 0.000000
# 6 0.000000 0.000000 0.000000 -0.022995 0.000000 0.035901
#
#
# Mechanical properties :
#
#
# Convention : Reuss Voigt Hill
#
# Bulk Modulus (GPa) = 32.99884 42.83547 37.91715
# Shear Modulus (GPa) = 20.82689 29.68846 25.25767
#
# Velocity S-wave (km/s) = 2.91564 3.48109 3.21084
# Velocity P-wave (km/s) = 4.98034 5.80014 5.40580
#
# Compressibility (1/GPa) = 0.03030410
#
# Stress axis : x y z
#
# Youngs Moduli (GPa) = 62.13842 102.46120 52.65081
#
# Poissons Ratio (x) = 0.43770 -0.03909
# Poissons Ratio (y) = 0.26545 0.19699
# Poissons Ratio (z) = -0.04613 0.38336
#
# Static dielectric constant tensor:
#      x y z
#    x 1.979630 0.000000 -0.008190 
#    y 0.000000 1.988970 0.000000 
#    z -0.008190 0.000000 1.946380 
# 
# From -- ./inp_files/176295.got.cif
#   From: 2010.05.17/outbox.cif.g08.bks.cpg/sg15_89_cif.got.tgz:176295.got - 2010.06.03 18:47:42.
