data_PCOD9276050
_publ_section_title
;
Structure prediction by ZEFSAII (Michael W. Deem and Ramdas Pophale) SiO2 
 PCOD9276050
Probable space group: C 2/C
;
_chemical_formula_sum "Si O2"
_cell_formula_units_Z 48
_cell_length_a 18.701832
_cell_length_b 9.024891
_cell_length_c 18.402802
_cell_angle_alpha 90.000000
_cell_angle_beta 135.622375
_cell_angle_gamma 90.000000
_cell_volume 2172.330663
_symmetry_space_group_name_H-M "C 2/C"
_symmetry_group_IT_number 15
_symmetry_cell_setting 'monoclinic'
loop_
_space_group_symop_operation_xyz
x,y,z
-x,y,1/2-z
-x,-y,-z
x,-y,1/2+z
1/2+x,1/2+y,z
1/2-x,1/2+y,1/2-z
1/2-x,1/2-y,-z
1/2+x,1/2-y,1/2+z
loop_
_atom_site_type_symbol
_atom_site_label
_atom_site_fract_x
_atom_site_fract_y
_atom_site_fract_z
Si Si1 0.551589 0.400001 0.946789
Si Si2 0.147725 0.652268 0.219572
Si Si3 0.666201 0.343106 0.892875
Si Si4 0.734443 0.165968 0.814369
Si Si5 0.047871 0.234203 0.993772
Si Si6 0.764430 0.823008 0.089325
O O1 0.570178 0.360448 0.876731
O O2 0.529776 0.574049 0.941784
O O3 0.661225 0.375470 0.066133
O O4 0.472768 0.302708 0.936595
O O5 0.225712 0.735999 0.222725
O O6 0.184175 0.485995 0.254576
O O7 0.153401 0.736617 0.301126
O O8 0.038363 0.660808 0.101935
O O9 0.659950 0.254346 0.813705
O O10 0.706892 0.506584 0.902378
O O11 0.750000 0.250000 0.000000
O O12 0.157575 0.298190 0.053601
O O13 0.750000 0.750000 0.000000
#
# Coordination Sequence:
#
# PCOD9276050 Si02
#       6
#     8   8   8   8   8   8
#     4   9  18  40  67  99 129 172 214 274 338 396
#     4  11  23  40  68  97 132 169 222 269 334 396
#     4  10  20  39  67  93 133 178 217 264 340 393
#     4  10  20  40  64  98 130 174 215 275 324 399
#     4  10  21  39  71  99 131 168 224 273 332 400
#     4  12  22  41  68  96 130 176 217 278 332 390
#
# _framework density 22.096083
#
# number of rings (size 3 to 8) (size 9 to 14) (size 15 to 20)
#    0.000    1.667    3.333    2.000    0.000    0.667 
#    0.000   13.333    3.667    0.000    0.000    0.000 
#    0.000    0.000    0.000    0.000    0.000    0.000 
#
# Total GULP energy -134295.785424 kJ/mol
# GULP energy per Si atom -5595.657726 kJ/mol
# Density = 2.204579 g / cm^3
# Si number density = 22.096083 Si / 1000 Ang^3
#
#
#
# Elastic Constant Matrix: (Units=GPa)
#
#
# Indices 1 2 3 4 5 6 
#
# 1 106.6305 26.3299 21.2001 0.0000 -7.3789 0.0000
# 2 26.3299 140.6953 21.6971 0.0000 -12.5200 0.0000
# 3 21.2001 21.6971 66.1492 0.0000 -11.1603 0.0000
# 4 0.0000 0.0000 0.0000 28.1854 0.0000 -5.6985
# 5 -7.3789 -12.5200 -11.1603 0.0000 38.8306 0.0000
# 6 0.0000 0.0000 0.0000 -5.6985 0.0000 35.3336
#
#
#
# Elastic Compliance Matrix: (Units=1/GPa)
#
#
# Indices 1 2 3 4 5 6 
#
# 1 0.010325 -0.001450 -0.002713 0.000000 0.000715 0.000000
# 2 -0.001450 0.007811 -0.001806 0.000000 0.001724 0.000000
# 3 -0.002713 -0.001806 0.017229 0.000000 0.003854 0.000000
# 4 0.000000 0.000000 0.000000 0.036675 0.000000 0.005915
# 5 0.000715 0.001724 0.003854 0.000000 0.027552 0.000000
# 6 0.000000 0.000000 0.000000 0.005915 0.000000 0.029256
#
#
# Mechanical properties :
#
#
# Convention : Reuss Voigt Hill
#
# Bulk Modulus (GPa) = 42.68661 50.21437 46.45049
# Shear Modulus (GPa) = 33.64823 36.75312 35.20068
#
# Velocity S-wave (km/s) = 3.90656 4.08282 3.99566
# Velocity P-wave (km/s) = 6.30150 6.70826 6.50805
#
# Compressibility (1/GPa) = 0.02342655
#
# Stress axis : x y z
#
# Youngs Moduli (GPa) = 96.85126 128.02584 58.04007
#
# Poissons Ratio (x) = 0.18568 0.15745
# Poissons Ratio (y) = 0.14046 0.10484
# Poissons Ratio (z) = 0.26274 0.23126
#
# Static dielectric constant tensor:
#      x y z
#    x 1.813090 0.000000 -0.000400 
#    y 0.000000 1.772010 0.000000 
#    z -0.000400 0.000000 1.892520 
# 
# From -- ./inp_files/214082.got.cif
#   From: 2010.05.17/outbox.cif.g08.bks.cpg/sg15_108_cif.got.tgz:214082.got - 2010.06.03 18:47:42.
