data_PCOD9276482
_publ_section_title
;
Structure prediction by ZEFSAII (Michael W. Deem and Ramdas Pophale) SiO2 
 PCOD9276482
Probable space group: C 2/C
;
_chemical_formula_sum "Si O2"
_cell_formula_units_Z 52
_cell_length_a 14.116879
_cell_length_b 12.309557
_cell_length_c 15.597359
_cell_angle_alpha 90.000000
_cell_angle_beta 114.358912
_cell_angle_gamma 90.000000
_cell_volume 2469.112457
_symmetry_space_group_name_H-M "C 2/C"
_symmetry_group_IT_number 15
_symmetry_cell_setting 'monoclinic'
loop_
_space_group_symop_operation_xyz
x,y,z
-x,y,1/2-z
-x,-y,-z
x,-y,1/2+z
1/2+x,1/2+y,z
1/2-x,1/2+y,1/2-z
1/2-x,1/2-y,-z
1/2+x,1/2-y,1/2+z
loop_
_atom_site_type_symbol
_atom_site_label
_atom_site_fract_x
_atom_site_fract_y
_atom_site_fract_z
Si Si1 0.000000 0.799771 0.750000
Si Si2 0.589212 0.810264 0.981297
Si Si3 0.889940 0.378939 0.810528
Si Si4 0.744640 0.633341 0.098591
Si Si5 0.991740 0.398886 0.373702
Si Si6 0.768951 0.398949 0.077240
Si Si7 0.785896 0.159229 0.129253
O O1 0.983710 0.716353 0.822705
O O2 0.897043 0.870136 0.707719
O O3 0.488488 0.807912 0.880287
O O4 0.684654 0.855407 0.960481
O O5 0.640705 0.702825 0.043294
O O6 0.550110 0.883531 0.045898
O O7 0.820466 0.333879 0.706037
O O8 0.932903 0.500166 0.807851
O O9 0.810487 0.392157 0.859421
O O10 0.723203 0.505680 0.102949
O O11 0.113872 0.422118 0.410915
O O12 0.772710 0.289831 0.134438
O O13 0.708823 0.367102 0.968750
#
# Coordination Sequence:
#
# PCOD9276482 Si02
#       7
#     4   8   8   8   8   8   8
#     4  10  22  38  64  96 118 158 194 268 296 376
#     4  11  23  38  60  92 124 161 194 261 305 361
#     4  12  21  38  65  94 116 164 208 261 291 364
#     4  11  24  38  59  90 130 159 207 247 313 357
#     4  11  20  38  67  92 116 148 223 250 301 345
#     4  10  20  40  62  90 115 163 197 260 297 367
#     4  10  21  36  65  88 123 151 212 245 316 349
#
# _framework density 21.060198
#
# number of rings (size 3 to 8) (size 9 to 14) (size 15 to 20)
#    0.000    1.231    3.077    4.615    0.000    0.000 
#    0.000    0.769   13.538    0.000    0.000    0.000 
#    0.000    0.000    0.000    0.000    0.000    0.000 
#
# Total GULP energy -145078.441112 kJ/mol
# GULP energy per Si atom -5579.940043 kJ/mol
# Density = 2.101226 g / cm^3
# Si number density = 21.060198 Si / 1000 Ang^3
#
#
#
# Elastic Constant Matrix: (Units=GPa)
#
#
# Indices 1 2 3 4 5 6 
#
# 1 75.0380 21.7153 9.2464 0.0000 13.6098 0.0000
# 2 21.7153 55.5886 19.0857 0.0000 17.8224 0.0000
# 3 9.2464 19.0857 60.2197 0.0000 4.4693 0.0000
# 4 0.0000 0.0000 0.0000 20.1169 0.0000 3.3836
# 5 13.6098 17.8224 4.4693 0.0000 41.8453 0.0000
# 6 0.0000 0.0000 0.0000 3.3836 0.0000 22.6359
#
#
#
# Elastic Compliance Matrix: (Units=1/GPa)
#
#
# Indices 1 2 3 4 5 6 
#
# 1 0.015326 -0.004868 -0.000599 0.000000 -0.002847 0.000000
# 2 -0.004868 0.024772 -0.006490 0.000000 -0.008274 0.000000
# 3 -0.000599 -0.006490 0.018683 0.000000 0.000963 0.000000
# 4 0.000000 0.000000 0.000000 0.050991 0.000000 -0.007622
# 5 -0.002847 -0.008274 0.000963 0.000000 0.028245 0.000000
# 6 0.000000 0.000000 0.000000 -0.007622 0.000000 0.045317
#
#
# Mechanical properties :
#
#
# Convention : Reuss Voigt Hill
#
# Bulk Modulus (GPa) = 28.68035 32.32678 30.50356
# Shear Modulus (GPa) = 22.84463 26.30622 24.57542
#
# Velocity S-wave (km/s) = 3.29710 3.53809 3.41972
# Velocity P-wave (km/s) = 5.30493 5.66337 5.48708
#
# Compressibility (1/GPa) = 0.03486708
#
# Stress axis : x y z
#
# Youngs Moduli (GPa) = 65.25013 40.36812 53.52441
#
# Poissons Ratio (x) = 0.19653 0.03206
# Poissons Ratio (y) = 0.31767 0.34735
# Poissons Ratio (z) = 0.03908 0.26197
#
# Static dielectric constant tensor:
#      x y z
#    x 1.739740 0.000000 0.012570 
#    y 0.000000 1.789990 0.000000 
#    z 0.012570 0.000000 1.833120 
# 
# From -- ./inp_files/152697.got.cif
#   From: 2010.05.17/outbox.cif.g08.bks.cpg/sg15_77_cif.got.tgz:152697.got - 2010.06.03 18:47:42.
