data_PCOD9276865
_publ_section_title
;
Structure prediction by ZEFSAII (Michael W. Deem and Ramdas Pophale) SiO2 
 PCOD9276865
Probable space group: C 2/C
;
_chemical_formula_sum "Si O2"
_cell_formula_units_Z 56
_cell_length_a 9.532257
_cell_length_b 11.883531
_cell_length_c 19.148740
_cell_angle_alpha 90.000000
_cell_angle_beta 97.233456
_cell_angle_gamma 90.000000
_cell_volume 2151.846175
_symmetry_space_group_name_H-M "C 2/C"
_symmetry_group_IT_number 15
_symmetry_cell_setting 'monoclinic'
loop_
_space_group_symop_operation_xyz
x,y,z
-x,y,1/2-z
-x,-y,-z
x,-y,1/2+z
1/2+x,1/2+y,z
1/2-x,1/2+y,1/2-z
1/2-x,1/2-y,-z
1/2+x,1/2-y,1/2+z
loop_
_atom_site_type_symbol
_atom_site_label
_atom_site_fract_x
_atom_site_fract_y
_atom_site_fract_z
Si Si1 0.939316 0.694343 0.614817
Si Si2 0.130124 0.165220 0.655219
Si Si3 0.336763 0.128717 0.243424
Si Si4 0.724798 0.383762 0.495473
Si Si5 0.525403 0.843161 0.545090
Si Si6 0.803605 0.525011 0.861855
Si Si7 0.095016 0.916531 0.629367
O O1 0.788870 0.656226 0.633899
O O2 0.935438 0.691278 0.530544
O O3 0.069602 0.613668 0.644469
O O4 0.979671 0.821603 0.639195
O O5 0.151207 0.246523 0.723051
O O6 0.031404 0.233586 0.594604
O O7 0.074889 0.039354 0.659789
O O8 0.500000 0.090656 0.250000
O O9 0.260870 0.036504 0.288327
O O10 0.245526 0.130097 0.167925
O O11 0.750000 0.250000 0.500000
O O12 0.705999 0.419714 0.414636
O O13 0.615172 0.422546 0.546755
O O14 0.883029 0.417512 0.530747
O O15 0.636880 0.920426 0.590371
#
# Coordination Sequence:
#
# PCOD9276865 Si02
#       7
#     8   8   8   8   8   8   8
#     4  11  22  41  69 104 139 180 235 289 361 429
#     4  11  25  44  65  97 144 185 230 297 358 441
#     4  11  26  49  69  95 134 189 242 298 358 429
#     4  11  20  40  68 104 138 175 231 292 345 421
#     4  10  20  40  65  99 137 180 225 283 351 417
#     4  10  21  42  73  99 133 184 236 289 346 421
#     4  12  25  43  72 106 140 187 239 294 364 435
#
# _framework density 26.024166000000001
#
# number of rings (size 3 to 8) (size 9 to 14) (size 15 to 20)
#    0.000    1.143    2.857    6.429    2.000    2.286 
#    7.714    0.000    0.000    0.000    0.000    0.000 
#    0.000    0.000    0.000    0.000    0.000    0.000 
#
# Total GULP energy -156820.633628 kJ/mol
# GULP energy per Si atom -5600.736915 kJ/mol
# Density = 2.596493 g / cm^3
# Si number density = 26.024166 Si / 1000 Ang^3
#
#
#
# Elastic Constant Matrix: (Units=GPa)
#
#
# Indices 1 2 3 4 5 6 
#
# 1 82.6173 9.2730 28.5310 0.0000 16.9782 0.0000
# 2 9.2730 178.7943 39.5577 0.0000 3.6075 0.0000
# 3 28.5310 39.5577 76.1593 0.0000 -3.3823 0.0000
# 4 0.0000 0.0000 0.0000 32.2021 0.0000 -2.9638
# 5 16.9782 3.6075 -3.3823 0.0000 21.8330 0.0000
# 6 0.0000 0.0000 0.0000 -2.9638 0.0000 30.9485
#
#
#
# Elastic Compliance Matrix: (Units=1/GPa)
#
#
# Indices 1 2 3 4 5 6 
#
# 1 0.017879 0.001146 -0.007974 0.000000 -0.015328 0.000000
# 2 0.001146 0.006446 -0.003891 0.000000 -0.002559 0.000000
# 3 -0.007974 -0.003891 0.018570 0.000000 0.009721 0.000000
# 4 0.000000 0.000000 0.000000 0.031330 0.000000 0.003000
# 5 -0.015328 -0.002559 0.009721 0.000000 0.059651 0.000000
# 6 0.000000 0.000000 0.000000 0.003000 0.000000 0.032599
#
#
# Mechanical properties :
#
#
# Convention : Reuss Voigt Hill
#
# Bulk Modulus (GPa) = 46.60344 54.69936 50.65140
# Shear Modulus (GPa) = 25.63231 34.34399 29.98815
#
# Velocity S-wave (km/s) = 3.14178 3.63670 3.39827
# Velocity P-wave (km/s) = 5.57743 6.22081 5.90788
#
# Compressibility (1/GPa) = 0.02145764
#
# Stress axis : x y z
#
# Youngs Moduli (GPa) = 55.93120 155.13179 53.84897
#
# Poissons Ratio (x) = -0.17782 0.42939
# Poissons Ratio (y) = -0.06411 0.20954
# Poissons Ratio (z) = 0.44600 0.60365
#
# Static dielectric constant tensor:
#      x y z
#    x 2.221510 0.000000 -0.012360 
#    y 0.000000 2.084230 0.000000 
#    z -0.012360 0.000000 2.030340 
# 
# From -- ./inp_files/237110.got.cif
#   From: 2010.05.17/outbox.cif.g08.bks.cpg/sg15_119_cif.got.tgz:237110.got - 2010.06.03 18:47:42.
