data_PCOD9276247
_publ_section_title
;
Structure prediction by ZEFSAII (Michael W. Deem and Ramdas Pophale) SiO2 
 PCOD9276247
Probable space group: C 2/C
;
_chemical_formula_sum "Si O2"
_cell_formula_units_Z 52
_cell_length_a 12.390889
_cell_length_b 24.974633
_cell_length_c 16.866842
_cell_angle_alpha 90.000000
_cell_angle_beta 153.614613
_cell_angle_gamma 90.000000
_cell_volume 2319.615348
_symmetry_space_group_name_H-M "C 2/C"
_symmetry_group_IT_number 15
_symmetry_cell_setting 'monoclinic'
loop_
_space_group_symop_operation_xyz
x,y,z
-x,y,1/2-z
-x,-y,-z
x,-y,1/2+z
1/2+x,1/2+y,z
1/2-x,1/2+y,1/2-z
1/2-x,1/2-y,-z
1/2+x,1/2-y,1/2+z
loop_
_atom_site_type_symbol
_atom_site_label
_atom_site_fract_x
_atom_site_fract_y
_atom_site_fract_z
Si Si1 0.270836 0.130129 0.278085
Si Si2 0.282314 0.490310 0.476263
Si Si3 0.779598 0.271908 0.668015
Si Si4 0.908780 0.832739 0.323194
Si Si5 0.756154 0.086611 0.548744
Si Si6 0.000000 0.088755 0.250000
Si Si7 0.891904 0.929905 0.408553
O O1 0.299952 0.188216 0.256486
O O2 0.539335 0.105262 0.460704
O O3 0.146113 0.124254 0.281689
O O4 0.108527 0.095784 0.106388
O O5 0.142197 0.540826 0.419328
O O6 0.346757 0.450504 0.590626
O O7 0.213159 0.456922 0.353034
O O8 0.511448 0.524913 0.588631
O O9 0.000000 0.279379 0.750000
O O10 0.765479 0.208779 0.675554
O O11 0.461767 0.292505 0.031966
O O12 0.128203 0.863552 0.422496
O O13 0.783301 0.880350 0.288542
O O14 0.000000 0.064028 0.750000
#
# Coordination Sequence:
#
# PCOD9276247 Si02
#       7
#     8   8   8   8   8   4   8
#     4  10  22  36  59  82 121 154 200 233 297 353
#     4   9  17  34  58  81 114 150 197 225 300 339
#     4  11  20  35  55  91 112 155 191 246 308 351
#     4  10  21  32  57  85 122 145 192 242 306 348
#     4  11  21  34  55  90 119 149 186 251 291 348
#     4  10  20  40  56  86 114 162 198 242 280 360
#     4   8  18  36  55  80 114 160 187 238 285 368
#
# _framework density 22.417511999999999
#
# number of rings (size 3 to 8) (size 9 to 14) (size 15 to 20)
#    0.000    2.154    2.308    0.923    2.154    0.615 
#    0.000    0.000    3.385    8.308    0.000    0.000 
#    0.000    0.000    0.000    0.000    0.000    0.000 
#
# Total GULP energy -144980.914187 kJ/mol
# GULP energy per Si atom -5576.189007 kJ/mol
# Density = 2.236649 g / cm^3
# Si number density = 22.417512 Si / 1000 Ang^3
#
#
#
# Elastic Constant Matrix: (Units=GPa)
#
#
# Indices 1 2 3 4 5 6 
#
# 1 173.3578 82.6368 26.0691 0.0026 -4.6194 0.0031
# 2 82.6368 155.7296 22.1881 0.0013 -2.7288 0.0032
# 3 26.0691 22.1881 54.9026 0.0113 -12.4834 0.0123
# 4 0.0026 0.0013 0.0113 29.1590 0.0032 -19.5863
# 5 -4.6194 -2.7288 -12.4834 0.0032 32.3041 0.0025
# 6 0.0031 0.0032 0.0123 -19.5863 0.0025 22.3047
#
#
#
# Elastic Compliance Matrix: (Units=1/GPa)
#
#
# Indices 1 2 3 4 5 6 
#
# 1 0.007965 -0.003912 -0.002211 0.000002 -0.000046 0.000002
# 2 -0.003912 0.008744 -0.001793 0.000002 -0.000514 0.000002
# 3 -0.002211 -0.001793 0.021798 -0.000042 0.007956 -0.000049
# 4 0.000002 0.000002 -0.000042 0.083613 -0.000030 0.073422
# 5 -0.000046 -0.000514 0.007956 -0.000030 0.033980 -0.000034
# 6 0.000002 0.000002 -0.000049 0.073422 -0.000034 0.109308
#
#
# Mechanical properties :
#
#
# Convention : Reuss Voigt Hill
#
# Bulk Modulus (GPa) = 44.10453 71.75310 57.92882
# Shear Modulus (GPa) = 17.31321 33.62662 25.46992
#
# Velocity S-wave (km/s) = 2.78206 3.87721 3.37436
# Velocity P-wave (km/s) = 5.48057 7.21947 6.40927
#
# Compressibility (1/GPa) = 0.02267341
#
# Stress axis : x y z
#
# Youngs Moduli (GPa) = 125.55668 114.36733 45.87679
#
# Poissons Ratio (x) = 0.44741 0.10144
# Poissons Ratio (y) = 0.49119 0.08225
# Poissons Ratio (z) = 0.27763 0.20505
#
# Static dielectric constant tensor:
#      x y z
#    x 1.896850 0.000000 -0.076900 
#    y 0.000000 1.850220 0.000000 
#    z -0.076900 0.000000 1.920660 
# 
# From -- ./inp_files/201205.got.cif
#   From: 2010.05.17/outbox.cif.g08.bks.cpg/sg15_101_cif.got.tgz:201205.got - 2010.06.03 18:47:42.
