data_PCOD9276778
_publ_section_title
;
Structure prediction by ZEFSAII (Michael W. Deem and Ramdas Pophale) SiO2 
 PCOD9276778
Probable space group: C 2/C
;
_chemical_formula_sum "Si O2"
_cell_formula_units_Z 44
_cell_length_a 18.770285
_cell_length_b 9.102346
_cell_length_c 11.863682
_cell_angle_alpha 90.000000
_cell_angle_beta 112.941995
_cell_angle_gamma 90.000000
_cell_volume 1866.621024
_symmetry_space_group_name_H-M "C 2/C"
_symmetry_group_IT_number 15
_symmetry_cell_setting 'monoclinic'
loop_
_space_group_symop_operation_xyz
x,y,z
-x,y,1/2-z
-x,-y,-z
x,-y,1/2+z
1/2+x,1/2+y,z
1/2-x,1/2+y,1/2-z
1/2-x,1/2-y,-z
1/2+x,1/2-y,1/2+z
loop_
_atom_site_type_symbol
_atom_site_label
_atom_site_fract_x
_atom_site_fract_y
_atom_site_fract_z
Si Si1 0.000000 0.500000 0.000000
Si Si2 0.093041 0.043054 0.188313
Si Si3 0.965904 0.192440 0.569847
Si Si4 0.385728 0.151544 0.743023
Si Si5 0.338500 0.882868 0.596991
Si Si6 0.759711 0.837784 0.188058
O O1 0.014524 0.667764 0.057390
O O2 0.057777 0.427262 0.133124
O O3 0.090323 0.182318 0.270505
O O4 0.021290 0.933722 0.147160
O O5 0.170622 0.949289 0.246924
O O6 0.085283 0.122444 0.061974
O O7 0.094830 0.263548 0.882259
O O8 0.301499 0.164697 0.749243
O O9 0.378173 0.040732 0.634161
O O10 0.284641 0.884523 0.454020
O O11 0.292611 0.824024 0.677055
#
# Coordination Sequence:
#
# PCOD9276778 Si02
#       6
#     4   8   8   8   8   8
#     4  10  20  40  64  98 136 180 228 276 348 400
#     4  10  22  42  68  99 145 177 229 296 347 405
#     4  10  22  45  69 102 134 188 230 284 357 415
#     4  11  23  42  69 104 139 179 231 293 341 415
#     4  11  24  44  72  98 141 183 235 279 357 430
#     4  11  23  42  68 105 133 186 229 289 353 412
#
# _framework density 23.572005999999998
#
# number of rings (size 3 to 8) (size 9 to 14) (size 15 to 20)
#    0.000    1.455    3.636    2.182    2.545    3.636 
#    0.000    9.091    0.000    0.000    0.000    0.000 
#    0.000    0.000    0.000    0.000    0.000    0.000 
#
# Total GULP energy -122650.755699 kJ/mol
# GULP energy per Si atom -5575.034350 kJ/mol
# Density = 2.351836 g / cm^3
# Si number density = 23.572006 Si / 1000 Ang^3
#
#
#
# Elastic Constant Matrix: (Units=GPa)
#
#
# Indices 1 2 3 4 5 6 
#
# 1 70.7191 37.8513 13.1221 0.0000 14.8298 0.0000
# 2 37.8513 182.2988 50.6247 0.0000 20.6615 0.0000
# 3 13.1221 50.6247 55.0176 0.0000 25.2461 0.0000
# 4 0.0000 0.0000 0.0000 52.8175 0.0000 9.3389
# 5 14.8298 20.6615 25.2461 0.0000 30.9646 0.0000
# 6 0.0000 0.0000 0.0000 9.3389 0.0000 30.9642
#
#
#
# Elastic Compliance Matrix: (Units=1/GPa)
#
#
# Indices 1 2 3 4 5 6 
#
# 1 0.017175 -0.003418 0.002839 0.000000 -0.008260 0.000000
# 2 -0.003418 0.008067 -0.007811 0.000000 0.002623 0.000000
# 3 0.002839 -0.007811 0.036619 0.000000 -0.026004 0.000000
# 4 0.000000 0.000000 0.000000 0.020000 0.000000 -0.006032
# 5 -0.008260 0.002623 -0.026004 0.000000 0.055702 0.000000
# 6 0.000000 0.000000 0.000000 -0.006032 0.000000 0.034115
#
#
# Mechanical properties :
#
#
# Convention : Reuss Voigt Hill
#
# Bulk Modulus (GPa) = 22.18275 56.80353 39.49314
# Shear Modulus (GPa) = 24.57174 36.71176 30.64175
#
# Velocity S-wave (km/s) = 3.23214 3.95071 3.60935
# Velocity P-wave (km/s) = 4.83322 6.70530 5.84470
#
# Compressibility (1/GPa) = 0.04508008
#
# Stress axis : x y z
#
# Youngs Moduli (GPa) = 58.22295 123.95792 27.30820
#
# Poissons Ratio (x) = 0.42375 -0.07753
# Poissons Ratio (y) = 0.19903 0.21332
# Poissons Ratio (z) = -0.16531 0.96829
#
# Static dielectric constant tensor:
#      x y z
#    x 1.957820 0.000000 -0.051740 
#    y 0.000000 1.912890 0.000000 
#    z -0.051740 0.000000 1.909380 
# 
# From -- ./inp_files/172100.got.cif
#   From: 2010.05.17/outbox.cif.g08.bks.cpg/sg15_87_cif.got.tgz:172100.got - 2010.06.03 18:47:42.
