data_PCOD9276906
_publ_section_title
;
Structure prediction by ZEFSAII (Michael W. Deem and Ramdas Pophale) SiO2 
 PCOD9276906
Probable space group: C 2/C
;
_chemical_formula_sum "Si O2"
_cell_formula_units_Z 40
_cell_length_a 11.620161
_cell_length_b 34.018680
_cell_length_c 5.945693
_cell_angle_alpha 90.000000
_cell_angle_beta 121.335740
_cell_angle_gamma 90.000000
_cell_volume 2007.513148
_symmetry_space_group_name_H-M "C 2/C"
_symmetry_group_IT_number 15
_symmetry_cell_setting 'monoclinic'
loop_
_space_group_symop_operation_xyz
x,y,z
-x,y,1/2-z
-x,-y,-z
x,-y,1/2+z
1/2+x,1/2+y,z
1/2-x,1/2+y,1/2-z
1/2-x,1/2-y,-z
1/2+x,1/2-y,1/2+z
loop_
_atom_site_type_symbol
_atom_site_label
_atom_site_fract_x
_atom_site_fract_y
_atom_site_fract_z
Si Si1 0.000000 0.394276 0.750000
Si Si2 0.649039 0.910285 0.500596
Si Si3 0.358856 0.722066 0.736765
Si Si4 0.500000 0.769780 0.250000
Si Si5 0.175196 0.661689 0.739569
Si Si6 0.661345 0.519454 0.419741
O O1 0.115465 0.416430 0.728747
O O2 0.916559 0.366256 0.502618
O O3 0.500000 0.918308 0.250000
O O4 0.692462 0.865420 0.479895
O O5 0.757064 0.939937 0.513361
O O6 0.500000 0.719928 0.750000
O O7 0.250000 0.750000 0.500000
O O8 0.302673 0.678833 0.737974
O O9 0.398461 0.743352 0.007522
O O10 0.410865 0.799297 0.305141
O O11 0.500000 0.524837 0.250000
O O12 0.692626 0.501398 0.704161
#
# Coordination Sequence:
#
# PCOD9276906 Si02
#       6
#     4   8   8   4   8   8
#     4  10  20  40  66  89 134 168 218 270 337 382
#     4  10  23  40  67  98 128 172 218 272 327 393
#     4  12  26  40  63  91 124 175 225 278 341 400
#     4  12  22  42  64  87 130 170 224 278 337 396
#     4  11  22  40  62  91 128 172 217 275 332 395
#     4  10  24  47  71 100 141 180 214 267 336 404
#
# _framework density 19.925151
#
# number of rings (size 3 to 8) (size 9 to 14) (size 15 to 20)
#    0.000    1.200    5.000    1.800    5.600    0.800 
#    5.400    0.000    0.000    0.000    0.000    0.000 
#    0.000    0.000    0.000    0.000    0.000    0.000 
#
# Total GULP energy -111352.279861 kJ/mol
# GULP energy per Si atom -5567.613993 kJ/mol
# Density = 1.987980 g / cm^3
# Si number density = 19.925151 Si / 1000 Ang^3
#
#
#
# Elastic Constant Matrix: (Units=GPa)
#
#
# Indices 1 2 3 4 5 6 
#
# 1 113.5721 40.4199 17.2657 0.0000 -17.4025 0.0000
# 2 40.4199 65.3914 14.1663 0.0000 -4.4766 0.0000
# 3 17.2657 14.1663 76.6536 0.0000 -5.8283 0.0000
# 4 0.0000 0.0000 0.0000 -282.5144 0.0000 -89.9473
# 5 -17.4025 -4.4766 -5.8283 0.0000 29.0949 0.0000
# 6 0.0000 0.0000 0.0000 -89.9473 0.0000 29.7299
#
#
#
# Elastic Compliance Matrix: (Units=1/GPa)
#
#
# Indices 1 2 3 4 5 6 
#
# 1 0.012400 -0.007022 -0.001029 0.000000 0.006130 0.000000
# 2 -0.007022 0.020010 -0.002236 0.000000 -0.001569 0.000000
# 3 -0.001029 -0.002236 0.013828 0.000000 0.001811 0.000000
# 4 0.000000 0.000000 0.000000 -0.001803 0.000000 -0.005455
# 5 0.006130 -0.001569 0.001811 0.000000 0.038158 0.000000
# 6 0.000000 0.000000 0.000000 -0.005455 0.000000 0.017133
#
#
# Mechanical properties :
#
#
# Convention : Reuss Voigt Hill
#
# Bulk Modulus (GPa) = 38.96439 44.36897 41.66668
# Shear Modulus (GPa) = 38.80340 -32.48693 3.15824
#
# Velocity S-wave (km/s) = 4.41779 -4.04226 1.26035
# Velocity P-wave (km/s) = 6.75428 0.72778 4.80364
#
# Compressibility (1/GPa) = 0.02566446
#
# Stress axis : x y z
#
# Youngs Moduli (GPa) = 80.64608 49.97526 72.31522
#
# Poissons Ratio (x) = 0.35093 0.07442
# Poissons Ratio (y) = 0.56630 0.16167
# Poissons Ratio (z) = 0.08300 0.11173
#
# Static dielectric constant tensor:
#      x y z
#    x 1.794760 0.000000 -0.122910 
#    y 0.000000 1.666210 0.000000 
#    z -0.122910 0.000000 1.863080 
# 
# From -- ./inp_files/5953.got.cif
#   From: 2010.05.17/outbox.cif.g08.bks.cpg/sg15_3_cif.got.tgz:5953.got - 2010.06.03 18:47:42.
