data_PCOD9276905
_publ_section_title
;
Structure prediction by ZEFSAII (Michael W. Deem and Ramdas Pophale) SiO2 
 PCOD9276905
Probable space group: C 2/C
;
_chemical_formula_sum "Si O2"
_cell_formula_units_Z 36
_cell_length_a 12.752949
_cell_length_b 11.861303
_cell_length_c 14.862410
_cell_angle_alpha 90.000000
_cell_angle_beta 141.504732
_cell_angle_gamma 90.000000
_cell_volume 1399.383445
_symmetry_space_group_name_H-M "C 2/C"
_symmetry_group_IT_number 15
_symmetry_cell_setting 'monoclinic'
loop_
_space_group_symop_operation_xyz
x,y,z
-x,y,1/2-z
-x,-y,-z
x,-y,1/2+z
1/2+x,1/2+y,z
1/2-x,1/2+y,1/2-z
1/2-x,1/2-y,-z
1/2+x,1/2-y,1/2+z
loop_
_atom_site_type_symbol
_atom_site_label
_atom_site_fract_x
_atom_site_fract_y
_atom_site_fract_z
Si Si1 0.000000 0.226179 0.250000
Si Si2 0.421831 0.370708 0.533766
Si Si3 0.782240 0.551992 0.216497
Si Si4 0.053049 0.645775 0.604145
Si Si5 0.324402 0.279833 0.146725
O O1 0.874355 0.150324 0.105969
O O2 0.071088 0.303996 0.218431
O O3 0.310675 0.466141 0.414366
O O4 0.619086 0.409518 0.665247
O O5 0.426616 0.247127 0.487127
O O6 0.935671 0.487210 0.367405
O O7 0.853303 0.660578 0.215356
O O8 0.204540 0.657511 0.635593
O O9 0.500000 0.342214 0.250000
O O10 0.250000 0.250000 0.000000
#
# Coordination Sequence:
#
# PCOD9276905 Si02
#       5
#     4   8   8   8   8
#     4   8  18  38  58  88 124 160 220 276 314 390
#     4   8  19  35  60  91 122 165 221 264 332 389
#     4  10  20  40  66  89 133 176 219 277 336 395
#     4   9  21  40  66  92 128 170 223 277 325 397
#     4  11  27  45  67 100 141 177 225 281 336 407
#
# _framework density 25.725615999999999
#
# number of rings (size 3 to 8) (size 9 to 14) (size 15 to 20)
#    1.333    1.333    0.000    0.000   10.889    2.667 
#    0.000    1.111    0.000    0.000    0.000    0.000 
#    0.000    0.000    0.000    0.000    0.000    0.000 
#
# Total GULP energy -100244.226207 kJ/mol
# GULP energy per Si atom -5569.123678 kJ/mol
# Density = 2.566706 g / cm^3
# Si number density = 25.725616 Si / 1000 Ang^3
#
#
#
# Elastic Constant Matrix: (Units=GPa)
#
#
# Indices 1 2 3 4 5 6 
#
# 1 114.9180 -9.5077 30.9208 0.0000 -30.0212 0.0000
# 2 -9.5077 96.6980 8.5258 0.0000 -4.1475 0.0000
# 3 30.9208 8.5258 74.0443 0.0000 -16.6154 0.0000
# 4 0.0000 0.0000 0.0000 42.5692 0.0000 4.7945
# 5 -30.0212 -4.1475 -16.6154 0.0000 32.1613 0.0000
# 6 0.0000 0.0000 0.0000 4.7945 0.0000 14.9962
#
#
#
# Elastic Compliance Matrix: (Units=1/GPa)
#
#
# Indices 1 2 3 4 5 6 
#
# 1 0.012354 0.001924 -0.003096 0.000000 0.010180 0.000000
# 2 0.001924 0.010766 -0.001503 0.000000 0.002408 0.000000
# 3 -0.003096 -0.001503 0.016152 0.000000 0.005261 0.000000
# 4 0.000000 0.000000 0.000000 0.024369 0.000000 -0.007791
# 5 0.010180 0.002408 0.005261 0.000000 0.043624 0.000000
# 6 0.000000 0.000000 0.000000 -0.007791 0.000000 0.069174
#
#
# Mechanical properties :
#
#
# Convention : Reuss Voigt Hill
#
# Bulk Modulus (GPa) = 29.47879 38.39313 33.93596
# Shear Modulus (GPa) = 25.89385 34.99346 30.44366
#
# Velocity S-wave (km/s) = 3.17604 3.69217 3.44379
# Velocity P-wave (km/s) = 4.99334 5.75609 5.38823
#
# Compressibility (1/GPa) = 0.03392270
#
# Stress axis : x y z
#
# Youngs Moduli (GPa) = 80.94829 92.88091 61.91245
#
# Poissons Ratio (x) = -0.17873 0.19168
# Poissons Ratio (y) = -0.15577 0.09305
# Poissons Ratio (z) = 0.25061 0.13959
#
# Static dielectric constant tensor:
#      x y z
#    x 2.028010 0.000000 0.055360 
#    y 0.000000 2.114390 0.000000 
#    z 0.055360 0.000000 2.130280 
# 
# From -- ./inp_files/153678.got.cif
#   From: 2010.05.17/outbox.cif.g08.bks.cpg/sg15_77_cif.got.tgz:153678.got - 2010.06.03 18:47:42.
