data_PCOD9276445
_publ_section_title
;
Structure prediction by ZEFSAII (Michael W. Deem and Ramdas Pophale) SiO2 
 PCOD9276445
Probable space group: C 2/C
;
_chemical_formula_sum "Si O2"
_cell_formula_units_Z 48
_cell_length_a 12.090324
_cell_length_b 8.503805
_cell_length_c 21.003331
_cell_angle_alpha 90.000000
_cell_angle_beta 62.069764
_cell_angle_gamma 90.000000
_cell_volume 1907.897733
_symmetry_space_group_name_H-M "C 2/C"
_symmetry_group_IT_number 15
_symmetry_cell_setting 'monoclinic'
loop_
_space_group_symop_operation_xyz
x,y,z
-x,y,1/2-z
-x,-y,-z
x,-y,1/2+z
1/2+x,1/2+y,z
1/2-x,1/2+y,1/2-z
1/2-x,1/2-y,-z
1/2+x,1/2-y,1/2+z
loop_
_atom_site_type_symbol
_atom_site_label
_atom_site_fract_x
_atom_site_fract_y
_atom_site_fract_z
Si Si1 0.787252 0.047717 0.784857
Si Si2 0.859405 0.333677 0.581405
Si Si3 0.463906 0.509005 0.343119
Si Si4 0.113643 0.434034 0.545543
Si Si5 0.976376 0.638188 0.688360
Si Si6 0.637632 0.519111 0.989931
O O1 0.718440 0.896205 0.836862
O O2 0.889143 0.034557 0.700590
O O3 0.879157 0.095290 0.818509
O O4 0.669517 0.146081 0.792213
O O5 0.864245 0.473511 0.527096
O O6 0.813940 0.178652 0.557208
O O7 0.005131 0.307204 0.562644
O O8 0.467748 0.689334 0.319479
O O9 0.395938 0.526601 0.427408
O O10 0.246457 0.397342 0.542984
O O11 0.044476 0.552228 0.612342
O O12 0.000000 0.555517 0.750000
O O13 0.500000 0.500000 0.000000
#
# Coordination Sequence:
#
# PCOD9276445 Si02
#       6
#     8   8   8   8   8   8
#     4  10  22  38  64  89 122 160 206 257 314 368
#     4  10  20  40  62  85 117 159 209 251 300 371
#     4  11  22  40  60  91 125 163 205 255 314 372
#     4  10  21  38  62  88 115 157 207 252 304 368
#     4  11  22  38  67  91 118 162 209 259 309 375
#     4  12  25  36  61  92 127 162 204 259 313 371
#
# _framework density 25.158580000000001
#
# number of rings (size 3 to 8) (size 9 to 14) (size 15 to 20)
#    0.000    1.333    5.000    1.500    2.333    0.667 
#    0.000    0.000    3.667    0.000    0.000    0.000 
#    0.000    0.000    0.000    0.000    0.000    0.000 
#
# Total GULP energy -133908.416715 kJ/mol
# GULP energy per Si atom -5579.517363 kJ/mol
# Density = 2.510132 g / cm^3
# Si number density = 25.158580 Si / 1000 Ang^3
#
#
#
# Elastic Constant Matrix: (Units=GPa)
#
#
# Indices 1 2 3 4 5 6 
#
# 1 210.4727 13.3584 37.1385 0.0000 -39.7873 0.0000
# 2 13.3584 43.0075 6.0057 0.0000 -1.4398 0.0000
# 3 37.1385 6.0057 100.0709 0.0000 -19.8301 0.0000
# 4 0.0000 0.0000 0.0000 16.6793 0.0000 -10.4516
# 5 -39.7873 -1.4398 -19.8301 0.0000 47.6490 0.0000
# 6 0.0000 0.0000 0.0000 -10.4516 0.0000 27.6419
#
#
#
# Elastic Compliance Matrix: (Units=1/GPa)
#
#
# Indices 1 2 3 4 5 6 
#
# 1 0.005888 -0.001511 -0.001231 0.000000 0.004359 0.000000
# 2 -0.001511 0.023837 -0.001065 0.000000 -0.000985 0.000000
# 3 -0.001231 -0.001065 0.011230 0.000000 0.003614 0.000000
# 4 0.000000 0.000000 0.000000 0.078570 0.000000 0.029708
# 5 0.004359 -0.000985 0.003614 0.000000 0.026101 0.000000
# 6 0.000000 0.000000 0.000000 0.029708 0.000000 0.047410
#
#
# Mechanical properties :
#
#
# Convention : Reuss Voigt Hill
#
# Bulk Modulus (GPa) = 29.99295 51.83957 40.91626
# Shear Modulus (GPa) = 23.61135 38.19726 30.90430
#
# Velocity S-wave (km/s) = 3.06682 3.90071 3.50863
# Velocity P-wave (km/s) = 4.94853 6.39822 5.71949
#
# Compressibility (1/GPa) = 0.03334117
#
# Stress axis : x y z
#
# Youngs Moduli (GPa) = 169.82835 41.95183 89.04981
#
# Poissons Ratio (x) = 0.06340 0.10960
# Poissons Ratio (y) = 0.25663 0.09483
# Poissons Ratio (z) = 0.20903 0.04467
#
# Static dielectric constant tensor:
#      x y z
#    x 2.358430 0.000000 -0.019480 
#    y 0.000000 1.984470 0.000000 
#    z -0.019480 0.000000 2.117010 
# 
# From -- ./inp_files/263479.got.cif
#   From: 2010.05.17/outbox.cif.g08.bks.cpg/sg15_132_cif.got.tgz:263479.got - 2010.06.03 18:47:42.
