data_PCOD9276479
_publ_section_title
;
Structure prediction by ZEFSAII (Michael W. Deem and Ramdas Pophale) SiO2 
 PCOD9276479
Probable space group: C 2/C
;
_chemical_formula_sum "Si O2"
_cell_formula_units_Z 56
_cell_length_a 24.693025
_cell_length_b 5.346212
_cell_length_c 18.625150
_cell_angle_alpha 90.000000
_cell_angle_beta 63.791793
_cell_angle_gamma 90.000000
_cell_volume 2206.008361
_symmetry_space_group_name_H-M "C 2/C"
_symmetry_group_IT_number 15
_symmetry_cell_setting 'monoclinic'
loop_
_space_group_symop_operation_xyz
x,y,z
-x,y,1/2-z
-x,-y,-z
x,-y,1/2+z
1/2+x,1/2+y,z
1/2-x,1/2+y,1/2-z
1/2-x,1/2-y,-z
1/2+x,1/2-y,1/2+z
loop_
_atom_site_type_symbol
_atom_site_label
_atom_site_fract_x
_atom_site_fract_y
_atom_site_fract_z
Si Si1 0.551094 0.204973 0.675699
Si Si2 0.676476 0.078039 0.065986
Si Si3 0.875375 0.375546 0.046970
Si Si4 0.757792 0.643070 0.849084
Si Si5 0.167705 0.620719 0.304537
Si Si6 0.637229 0.541369 0.704163
Si Si7 0.550296 0.383593 0.522238
O O1 0.500000 0.059504 0.750000
O O2 0.576394 0.410276 0.715582
O O3 0.528277 0.326569 0.615541
O O4 0.612523 0.059942 0.619369
O O5 0.665031 0.331082 0.116356
O O6 0.731147 0.945446 0.076149
O O7 0.678797 0.085399 0.979082
O O8 0.857054 0.376623 0.141067
O O9 0.902315 0.112510 0.005346
O O10 0.921592 0.613575 0.017011
O O11 0.777825 0.425804 0.782509
O O12 0.694092 0.729553 0.856901
O O13 0.809962 0.849090 0.805339
O O14 0.124147 0.770461 0.277459
O O15 0.500000 0.500000 0.500000
#
# Coordination Sequence:
#
# PCOD9276479 Si02
#       7
#     8   8   8   8   8   8   8
#     4  10  22  39  67  92 126 172 219 269 331 395
#     4   9  21  42  61  90 132 168 218 267 330 396
#     4  11  25  44  67  97 134 178 214 278 338 397
#     4  10  21  39  63  96 126 171 218 275 326 384
#     4  11  23  37  68  94 132 166 227 270 334 396
#     4  10  20  40  62  89 128 167 212 276 316 398
#     4  11  25  45  65  97 136 171 223 276 334 397
#
# _framework density 25.385218999999999
#
# number of rings (size 3 to 8) (size 9 to 14) (size 15 to 20)
#    0.000    1.714    2.857    0.429    4.000    3.429 
#    0.000    0.714    0.000    0.000    0.000    0.000 
#    0.000    0.000    0.000    0.000    0.000    0.000 
#
# Total GULP energy -156447.590338 kJ/mol
# GULP energy per Si atom -5587.413941 kJ/mol
# Density = 2.532744 g / cm^3
# Si number density = 25.385219 Si / 1000 Ang^3
#
#
#
# Elastic Constant Matrix: (Units=GPa)
#
#
# Indices 1 2 3 4 5 6 
#
# 1 69.6508 7.5404 41.5897 0.0035 32.7386 -0.0034
# 2 7.5404 70.5332 22.8808 0.0129 4.2597 0.0354
# 3 41.5897 22.8808 111.6191 0.0033 14.3890 -0.0009
# 4 0.0035 0.0129 0.0033 26.7975 0.0048 -0.5469
# 5 32.7386 4.2597 14.3890 0.0048 33.6623 0.0007
# 6 -0.0034 0.0354 -0.0009 -0.5469 0.0007 32.8532
#
#
#
# Elastic Compliance Matrix: (Units=1/GPa)
#
#
# Indices 1 2 3 4 5 6 
#
# 1 0.032763 0.001052 -0.008782 0.000001 -0.028243 0.000003
# 2 0.001052 0.015234 -0.003317 -0.000007 -0.001533 -0.000017
# 3 -0.008782 -0.003317 0.012442 0.000001 0.003643 0.000003
# 4 0.000001 -0.000007 0.000001 0.037330 -0.000006 0.000621
# 5 -0.028243 -0.001533 0.003643 -0.000006 0.055812 -0.000003
# 6 0.000003 -0.000017 0.000003 0.000621 -0.000003 0.030449
#
#
# Mechanical properties :
#
#
# Convention : Reuss Voigt Hill
#
# Bulk Modulus (GPa) = 26.07996 43.98056 35.03026
# Shear Modulus (GPa) = 22.84100 30.64874 26.74487
#
# Velocity S-wave (km/s) = 3.00288 3.47846 3.24938
# Velocity P-wave (km/s) = 4.72430 5.78755 5.28275
#
# Compressibility (1/GPa) = 0.03834361
#
# Stress axis : x y z
#
# Youngs Moduli (GPa) = 30.52243 65.64296 80.37439
#
# Poissons Ratio (x) = -0.06907 0.70588
# Poissons Ratio (y) = -0.03211 0.26662
# Poissons Ratio (z) = 0.26806 0.21775
#
# Static dielectric constant tensor:
#      x y z
#    x 2.049740 -0.000020 -0.050920 
#    y -0.000020 2.125620 -0.000010 
#    z -0.050920 -0.000010 1.997880 
# 
# From -- ./inp_files/221227.got.cif
#   From: 2010.05.17/outbox.cif.g08.bks.cpg/sg15_111_cif.got.tgz:221227.got - 2010.06.03 18:47:42.
