data_PCOD9276649
_publ_section_title
;
Structure prediction by ZEFSAII (Michael W. Deem and Ramdas Pophale) SiO2 
 PCOD9276649
Probable space group: C 2/C
;
_chemical_formula_sum "Si O2"
_cell_formula_units_Z 48
_cell_length_a 16.621408
_cell_length_b 30.183776
_cell_length_c 9.616320
_cell_angle_alpha 90.000000
_cell_angle_beta 151.845516
_cell_angle_gamma 90.000000
_cell_volume 2276.432148
_symmetry_space_group_name_H-M "C 2/C"
_symmetry_group_IT_number 15
_symmetry_cell_setting 'monoclinic'
loop_
_space_group_symop_operation_xyz
x,y,z
-x,y,1/2-z
-x,-y,-z
x,-y,1/2+z
1/2+x,1/2+y,z
1/2-x,1/2+y,1/2-z
1/2-x,1/2-y,-z
1/2+x,1/2-y,1/2+z
loop_
_atom_site_type_symbol
_atom_site_label
_atom_site_fract_x
_atom_site_fract_y
_atom_site_fract_z
Si Si1 0.292353 0.621608 0.723281
Si Si2 0.454602 0.542975 0.341536
Si Si3 0.835718 0.356309 0.769557
Si Si4 0.896889 0.821895 0.860855
Si Si5 0.831802 0.388061 0.153458
Si Si6 0.442990 0.232170 0.315421
O O1 0.191544 0.625729 0.426632
O O2 0.197575 0.616327 0.724487
O O3 0.418236 0.580153 0.907642
O O4 0.420310 0.663194 0.918960
O O5 0.500000 0.533862 0.250000
O O6 0.500000 0.500000 0.500000
O O7 0.271367 0.568597 0.057545
O O8 0.660857 0.345637 0.583176
O O9 0.927859 0.308778 0.895641
O O10 0.964334 0.387412 0.049766
O O11 0.757561 0.844073 0.547177
O O12 0.925468 0.770099 0.934540
O O13 0.500000 0.216244 0.250000
O O14 0.250000 0.250000 0.000000
#
# Coordination Sequence:
#
# PCOD9276649 Si02
#       6
#     8   8   8   8   8   8
#     4  10  20  40  64  87 119 164 205 246 308 373
#     4   9  20  39  64  93 122 155 198 243 304 380
#     4  12  23  38  63  87 122 164 209 260 306 358
#     4  11  22  39  57  88 122 162 213 259 302 362
#     4  10  23  40  61  90 124 156 203 255 310 365
#     4  12  22  38  58  88 122 166 218 259 304 365
#
# _framework density 21.085628
#
# number of rings (size 3 to 8) (size 9 to 14) (size 15 to 20)
#    0.000    1.333    3.333    4.000    0.000    3.333 
#    0.000    2.500    0.000    6.000    0.000    3.500 
#    0.000    0.000    0.000    0.000    0.000    0.000 
#
# Total GULP energy -133890.229871 kJ/mol
# GULP energy per Si atom -5578.759578 kJ/mol
# Density = 2.103764 g / cm^3
# Si number density = 21.085628 Si / 1000 Ang^3
#
#
#
# Elastic Constant Matrix: (Units=GPa)
#
#
# Indices 1 2 3 4 5 6 
#
# 1 56.2731 6.0204 5.0982 0.0000 -0.1665 0.0000
# 2 6.0204 70.8095 21.7704 0.0000 -14.8376 0.0000
# 3 5.0982 21.7704 117.5571 0.0000 -7.2956 0.0000
# 4 0.0000 0.0000 0.0000 35.2774 0.0000 -13.7866
# 5 -0.1665 -14.8376 -7.2956 0.0000 33.8727 0.0000
# 6 0.0000 0.0000 0.0000 -13.7866 0.0000 21.0846
#
#
#
# Elastic Compliance Matrix: (Units=1/GPa)
#
#
# Indices 1 2 3 4 5 6 
#
# 1 0.017979 -0.001506 -0.000544 0.000000 -0.000688 0.000000
# 2 -0.001506 0.016430 -0.002565 0.000000 0.006637 0.000000
# 3 -0.000544 -0.002565 0.009056 0.000000 0.000824 0.000000
# 4 0.000000 0.000000 0.000000 0.038077 0.000000 0.024897
# 5 -0.000688 0.006637 0.000824 0.000000 0.032604 0.000000
# 6 0.000000 0.000000 0.000000 0.024897 0.000000 0.063708
#
#
# Mechanical properties :
#
#
# Convention : Reuss Voigt Hill
#
# Bulk Modulus (GPa) = 29.20942 34.49085 31.85014
# Shear Modulus (GPa) = 25.18965 32.16365 28.67665
#
# Velocity S-wave (km/s) = 3.46010 3.90985 3.69183
# Velocity P-wave (km/s) = 5.46314 6.06429 5.77155
#
# Compressibility (1/GPa) = 0.03423553
#
# Stress axis : x y z
#
# Youngs Moduli (GPa) = 55.62114 60.86467 110.42012
#
# Poissons Ratio (x) = 0.09164 0.06002
# Poissons Ratio (y) = 0.08375 0.28328
# Poissons Ratio (z) = 0.03023 0.15615
#
# Static dielectric constant tensor:
#      x y z
#    x 1.841630 0.000000 0.016800 
#    y 0.000000 1.779620 0.000000 
#    z 0.016800 0.000000 1.782620 
# 
# From -- ./inp_files/52885.got.cif
#   From: 2010.05.17/outbox.cif.g08.bks.cpg/sg15_27_cif.got.tgz:52885.got - 2010.06.03 18:47:42.
