data_PCOD9276069
_publ_section_title
;
Structure prediction by ZEFSAII (Michael W. Deem and Ramdas Pophale) SiO2 
 PCOD9276069
Probable space group: C 2/C
;
_chemical_formula_sum "Si O2"
_cell_formula_units_Z 40
_cell_length_a 15.981548
_cell_length_b 9.473050
_cell_length_c 17.077824
_cell_angle_alpha 90.000000
_cell_angle_beta 146.656486
_cell_angle_gamma 90.000000
_cell_volume 1421.128355
_symmetry_space_group_name_H-M "C 2/C"
_symmetry_group_IT_number 15
_symmetry_cell_setting 'monoclinic'
loop_
_space_group_symop_operation_xyz
x,y,z
-x,y,1/2-z
-x,-y,-z
x,-y,1/2+z
1/2+x,1/2+y,z
1/2-x,1/2+y,1/2-z
1/2-x,1/2-y,-z
1/2+x,1/2-y,1/2+z
loop_
_atom_site_type_symbol
_atom_site_label
_atom_site_fract_x
_atom_site_fract_y
_atom_site_fract_z
Si Si1 0.524097 0.800921 0.391442
Si Si2 0.000000 0.456058 0.750000
Si Si3 0.000000 0.073506 0.250000
Si Si4 0.802140 0.146909 0.339296
Si Si5 0.765281 0.494500 0.355112
Si Si6 0.456243 0.766474 0.586226
O O1 0.577362 0.679645 0.372601
O O2 0.404371 0.724038 0.353499
O O3 0.656738 0.863489 0.549244
O O4 0.460900 0.931551 0.288428
O O5 0.098731 0.340433 0.876194
O O6 0.883024 0.979171 0.206682
O O7 0.765893 0.007090 0.260849
O O8 0.638046 0.219103 0.226468
O O9 0.887828 0.129014 0.489688
O O10 0.888552 0.377194 0.470349
#
# Coordination Sequence:
#
# PCOD9276069 Si02
#       6
#     8   4   4   8   8   8
#     4   9  18  37  66 102 129 173 219 282 330 389
#     4   9  22  40  67  96 136 178 215 262 345 398
#     4   9  18  32  63 104 134 162 227 284 331 380
#     4  11  22  39  70  99 134 176 225 272 333 394
#     4  10  20  39  67  96 138 174 220 279 333 399
#     4  11  24  44  67  99 135 182 221 278 333 403
#
# _framework density 28.146649
#
# number of rings (size 3 to 8) (size 9 to 14) (size 15 to 20)
#    0.000    2.000    2.000    1.200    2.800    2.400 
#    0.000    6.000    0.000    0.000    0.000    0.000 
#    0.000    0.000    0.000    0.000    0.000    0.000 
#
# Total GULP energy -111795.744018 kJ/mol
# GULP energy per Si atom -5589.787201 kJ/mol
# Density = 2.808259 g / cm^3
# Si number density = 28.146649 Si / 1000 Ang^3
#
#
#
# Elastic Constant Matrix: (Units=GPa)
#
#
# Indices 1 2 3 4 5 6 
#
# 1 160.9085 22.5082 37.2901 0.0000 -3.6189 0.0000
# 2 22.5082 70.4664 5.7776 0.0000 -13.2600 0.0000
# 3 37.2901 5.7776 134.1555 0.0000 -9.9180 0.0000
# 4 0.0000 0.0000 0.0000 51.4314 0.0000 -15.2986
# 5 -3.6189 -13.2600 -9.9180 0.0000 56.7924 0.0000
# 6 0.0000 0.0000 0.0000 -15.2986 0.0000 48.5522
#
#
#
# Elastic Compliance Matrix: (Units=1/GPa)
#
#
# Indices 1 2 3 4 5 6 
#
# 1 0.006937 -0.002135 -0.001864 0.000000 -0.000382 0.000000
# 2 -0.002135 0.015520 0.000185 0.000000 0.003520 0.000000
# 3 -0.001864 0.000185 0.008063 0.000000 0.001332 0.000000
# 4 0.000000 0.000000 0.000000 0.021454 0.000000 0.006760
# 5 -0.000382 0.003520 0.001332 0.000000 0.018638 0.000000
# 6 0.000000 0.000000 0.000000 0.006760 0.000000 0.022726
#
#
# Mechanical properties :
#
#
# Convention : Reuss Voigt Hill
#
# Bulk Modulus (GPa) = 43.68372 55.18690 49.43531
# Shear Modulus (GPa) = 46.04161 51.35216 48.69689
#
# Velocity S-wave (km/s) = 4.04886 4.27599 4.16398
# Velocity P-wave (km/s) = 6.11649 6.63538 6.38121
#
# Compressibility (1/GPa) = 0.02289182
#
# Stress axis : x y z
#
# Youngs Moduli (GPa) = 144.15828 64.43209 124.02600
#
# Poissons Ratio (x) = 0.13755 0.23124
# Poissons Ratio (y) = 0.30774 -0.02297
# Poissons Ratio (z) = 0.26878 -0.01193
#
# Static dielectric constant tensor:
#      x y z
#    x 2.154660 0.000000 -0.047640 
#    y 0.000000 2.411170 0.000000 
#    z -0.047640 0.000000 2.303530 
# 
# From -- ./inp_files/46223.got.cif
#   From: 2010.05.17/outbox.cif.g08.bks.cpg/sg15_24_cif.got.tgz:46223.got - 2010.06.03 18:47:42.
