data_PCOD9276185
_publ_section_title
;
Structure prediction by ZEFSAII (Michael W. Deem and Ramdas Pophale) SiO2 
 PCOD9276185
Probable space group: C 2/C
;
_chemical_formula_sum "Si O2"
_cell_formula_units_Z 48
_cell_length_a 9.145770
_cell_length_b 11.801103
_cell_length_c 22.167302
_cell_angle_alpha 90.000000
_cell_angle_beta 72.805999
_cell_angle_gamma 90.000000
_cell_volume 2285.597373
_symmetry_space_group_name_H-M "C 2/C"
_symmetry_group_IT_number 15
_symmetry_cell_setting 'monoclinic'
loop_
_space_group_symop_operation_xyz
x,y,z
-x,y,1/2-z
-x,-y,-z
x,-y,1/2+z
1/2+x,1/2+y,z
1/2-x,1/2+y,1/2-z
1/2-x,1/2-y,-z
1/2+x,1/2-y,1/2+z
loop_
_atom_site_type_symbol
_atom_site_label
_atom_site_fract_x
_atom_site_fract_y
_atom_site_fract_z
Si Si1 0.594704 0.605895 0.815265
Si Si2 0.290004 0.462355 0.073301
Si Si3 0.036476 0.163867 0.050847
Si Si4 0.477348 0.922879 0.061228
Si Si5 0.727698 0.670400 0.675836
Si Si6 0.524214 0.343682 0.815576
O O1 0.664575 0.606993 0.872726
O O2 0.708473 0.625821 0.746241
O O3 0.444547 0.684071 0.827467
O O4 0.538657 0.477907 0.811582
O O5 0.388488 0.579225 0.063139
O O6 0.107990 0.467671 0.090922
O O7 0.342268 0.394875 0.007373
O O8 0.001754 0.292437 0.037304
O O9 0.091059 0.174017 0.114142
O O10 0.320114 0.911413 0.118787
O O11 0.500000 0.000000 0.000000
O O12 0.826175 0.783111 0.674702
O O13 0.500000 0.302628 0.750000
#
# Coordination Sequence:
#
# PCOD9276185 Si02
#       6
#     8   8   8   8   8   8
#     4  10  22  45  67  91 131 177 215 269 331 390
#     4  10  22  42  68  91 127 180 214 263 335 386
#     4   9  22  42  64  91 131 169 220 257 328 394
#     4  11  25  40  63 100 133 163 220 275 323 390
#     4  10  23  42  64  97 129 167 224 266 324 392
#     4  10  20  39  70  89 127 173 207 270 329 372
#
# _framework density 21.001076000000001
#
# number of rings (size 3 to 8) (size 9 to 14) (size 15 to 20)
#    0.000    2.000    1.667    0.500   11.667    0.667 
#    9.000    5.000    0.000    0.000    0.000    0.000 
#    0.000    0.000    0.000    0.000    0.000    0.000 
#
# Total GULP energy -133696.955776 kJ/mol
# GULP energy per Si atom -5570.706491 kJ/mol
# Density = 2.095328 g / cm^3
# Si number density = 21.001076 Si / 1000 Ang^3
#
#
#
# Elastic Constant Matrix: (Units=GPa)
#
#
# Indices 1 2 3 4 5 6 
#
# 1 75.9387 7.6414 39.3151 0.0000 12.6808 0.0000
# 2 7.6414 65.8983 28.4997 0.0000 0.8172 0.0000
# 3 39.3151 28.4997 167.4675 0.0000 9.8431 0.0000
# 4 0.0000 0.0000 0.0000 16.3572 0.0000 2.7639
# 5 12.6808 0.8172 9.8431 0.0000 40.2430 0.0000
# 6 0.0000 0.0000 0.0000 2.7639 0.0000 14.0099
#
#
#
# Elastic Compliance Matrix: (Units=1/GPa)
#
#
# Indices 1 2 3 4 5 6 
#
# 1 0.015631 -0.000301 -0.003378 0.000000 -0.004093 0.000000
# 2 -0.000301 0.016391 -0.002744 0.000000 0.000433 0.000000
# 3 -0.003378 -0.002744 0.007270 0.000000 -0.000658 0.000000
# 4 0.000000 0.000000 0.000000 0.063243 0.000000 -0.012477
# 5 -0.004093 0.000433 -0.000658 0.000000 0.026291 0.000000
# 6 0.000000 0.000000 0.000000 -0.012477 0.000000 0.073840
#
#
# Mechanical properties :
#
#
# Convention : Reuss Voigt Hill
#
# Bulk Modulus (GPa) = 37.81253 51.13522 44.47388
# Shear Modulus (GPa) = 22.28881 29.71189 26.00035
#
# Velocity S-wave (km/s) = 3.26132 3.76544 3.52241
# Velocity P-wave (km/s) = 5.67677 6.58076 6.14541
#
# Compressibility (1/GPa) = 0.02644626
#
# Stress axis : x y z
#
# Youngs Moduli (GPa) = 63.97517 61.00805 137.55179
#
# Poissons Ratio (x) = 0.01836 0.46462
# Poissons Ratio (y) = 0.01925 0.37748
# Poissons Ratio (z) = 0.21609 0.16742
#
# Static dielectric constant tensor:
#      x y z
#    x 1.828620 0.000000 -0.040980 
#    y 0.000000 1.746510 0.000000 
#    z -0.040980 0.000000 1.850960 
# 
# From -- ./inp_files/263494.got.cif
#   From: 2010.05.17/outbox.cif.g08.bks.cpg/sg15_132_cif.got.tgz:263494.got - 2010.06.03 18:47:42.
