data_PCOD9276761
_publ_section_title
;
Structure prediction by ZEFSAII (Michael W. Deem and Ramdas Pophale) SiO2 
 PCOD9276761
Probable space group: C 2/C
;
_chemical_formula_sum "Si O2"
_cell_formula_units_Z 52
_cell_length_a 23.460439
_cell_length_b 5.022448
_cell_length_c 17.913516
_cell_angle_alpha 90.000000
_cell_angle_beta 74.005800
_cell_angle_gamma 90.000000
_cell_volume 2029.021553
_symmetry_space_group_name_H-M "C 2/C"
_symmetry_group_IT_number 15
_symmetry_cell_setting 'monoclinic'
loop_
_space_group_symop_operation_xyz
x,y,z
-x,y,1/2-z
-x,-y,-z
x,-y,1/2+z
1/2+x,1/2+y,z
1/2-x,1/2+y,1/2-z
1/2-x,1/2-y,-z
1/2+x,1/2-y,1/2+z
loop_
_atom_site_type_symbol
_atom_site_label
_atom_site_fract_x
_atom_site_fract_y
_atom_site_fract_z
Si Si1 0.893546 0.657682 0.821502
Si Si2 0.121799 0.471047 0.333128
Si Si3 0.103644 0.138645 0.473596
Si Si4 0.786512 0.864417 0.262728
Si Si5 0.000000 0.741145 0.250000
Si Si6 0.157076 0.852015 0.102065
Si Si7 0.518165 0.280407 0.401727
O O1 0.869484 0.686248 0.746324
O O2 0.851796 0.465611 0.886441
O O3 0.949194 0.465292 0.793679
O O4 0.896501 0.951892 0.851493
O O5 0.137351 0.328745 0.403635
O O6 0.154965 0.745994 0.300171
O O7 0.051323 0.505506 0.372225
O O8 0.154177 0.069732 0.516335
O O9 0.047169 0.259005 0.540790
O O10 0.064971 0.920664 0.441179
O O11 0.741980 0.616652 0.266770
O O12 0.796558 0.910996 0.347961
O O13 0.982291 0.902085 0.181867
#
# Coordination Sequence:
#
# PCOD9276761 Si02
#       7
#     8   8   8   8   4   8   8
#     4  10  23  39  65  95 141 183 239 273 327 412
#     4  10  24  41  69  99 140 186 236 287 353 421
#     4  11  24  39  68 104 158 183 224 280 363 426
#     4  11  25  49  78 100 130 180 254 311 358 415
#     4  10  20  40  64  96 148 194 252 264 326 412
#     4  11  24  45  68 104 136 182 230 295 350 420
#     4  10  23  40  64 105 147 195 226 275 337 434
#
# _framework density 25.628112999999999
#
# number of rings (size 3 to 8) (size 9 to 14) (size 15 to 20)
#    0.000    1.538    1.538    2.308   10.769    5.538 
#    0.000    1.538    0.000    0.000    0.000    0.000 
#    0.000    0.000    0.000    0.000    0.000    0.000 
#
# Total GULP energy -144925.578580 kJ/mol
# GULP energy per Si atom -5574.060715 kJ/mol
# Density = 2.556978 g / cm^3
# Si number density = 25.628113 Si / 1000 Ang^3
#
#
#
# Elastic Constant Matrix: (Units=GPa)
#
#
# Indices 1 2 3 4 5 6 
#
# 1 84.1116 24.2870 34.5526 0.0000 35.0793 0.0000
# 2 24.2870 101.4329 33.8305 0.0000 15.4333 0.0000
# 3 34.5526 33.8305 138.2443 0.0000 50.7798 0.0000
# 4 0.0000 0.0000 0.0000 30.0113 0.0000 -2.1035
# 5 35.0793 15.4333 50.7798 0.0000 58.2856 0.0000
# 6 0.0000 0.0000 0.0000 -2.1035 0.0000 39.7284
#
#
#
# Elastic Compliance Matrix: (Units=1/GPa)
#
#
# Indices 1 2 3 4 5 6 
#
# 1 0.016480 -0.002506 -0.000156 0.000000 -0.009119 0.000000
# 2 -0.002506 0.011142 -0.002310 0.000000 0.000570 0.000000
# 3 -0.000156 -0.002310 0.011145 0.000000 -0.009005 0.000000
# 4 0.000000 0.000000 0.000000 0.033445 0.000000 0.001771
# 5 -0.009119 0.000570 -0.009005 0.000000 0.030339 0.000000
# 6 0.000000 0.000000 0.000000 0.001771 0.000000 0.025265
#
#
# Mechanical properties :
#
#
# Convention : Reuss Voigt Hill
#
# Bulk Modulus (GPa) = 34.69448 56.56988 45.63218
# Shear Modulus (GPa) = 33.92853 41.01297 37.47075
#
# Velocity S-wave (km/s) = 3.64246 4.00473 3.82788
# Velocity P-wave (km/s) = 5.59080 6.59584 6.11401
#
# Compressibility (1/GPa) = 0.02882303
#
# Stress axis : x y z
#
# Youngs Moduli (GPa) = 60.68017 89.74680 89.72318
#
# Poissons Ratio (x) = 0.22494 0.01401
# Poissons Ratio (y) = 0.15209 0.20725
# Poissons Ratio (z) = 0.00947 0.20730
#
# Static dielectric constant tensor:
#      x y z
#    x 2.161690 0.000000 0.017750 
#    y 0.000000 2.037780 0.000000 
#    z 0.017750 0.000000 2.110400 
# 
# From -- ./inp_files/220874.got.cif
#   From: 2010.05.17/outbox.cif.g08.bks.cpg/sg15_111_cif.got.tgz:220874.got - 2010.06.03 18:47:42.
