data_PCOD9276359
_publ_section_title
;
Structure prediction by ZEFSAII (Michael W. Deem and Ramdas Pophale) SiO2 
 PCOD9276359
Probable space group: C 2/C
;
_chemical_formula_sum "Si O2"
_cell_formula_units_Z 56
_cell_length_a 10.322435
_cell_length_b 14.661691
_cell_length_c 15.569591
_cell_angle_alpha 90.000000
_cell_angle_beta 104.039258
_cell_angle_gamma 90.000000
_cell_volume 2285.984287
_symmetry_space_group_name_H-M "C 2/C"
_symmetry_group_IT_number 15
_symmetry_cell_setting 'monoclinic'
loop_
_space_group_symop_operation_xyz
x,y,z
-x,y,1/2-z
-x,-y,-z
x,-y,1/2+z
1/2+x,1/2+y,z
1/2-x,1/2+y,1/2-z
1/2-x,1/2-y,-z
1/2+x,1/2-y,1/2+z
loop_
_atom_site_type_symbol
_atom_site_label
_atom_site_fract_x
_atom_site_fract_y
_atom_site_fract_z
Si Si1 0.377207 0.465522 0.148560
Si Si2 0.038394 0.903033 0.966724
Si Si3 0.500000 0.298370 0.250000
Si Si4 0.286501 0.243256 0.759673
Si Si5 0.370074 0.046316 0.021584
Si Si6 0.000000 0.094527 0.250000
Si Si7 0.816775 0.374795 0.098241
Si Si8 0.069945 0.716094 0.547358
O O1 0.447171 0.567625 0.131252
O O2 0.448919 0.368050 0.165912
O O3 0.377490 0.502408 0.243706
O O4 0.252979 0.466169 0.065002
O O5 0.934443 0.823879 0.965818
O O6 0.175779 0.866977 0.026996
O O7 0.000000 0.000000 0.000000
O O8 0.372446 0.241812 0.260584
O O9 0.382879 0.326784 0.755013
O O10 0.310621 0.169118 0.689586
O O11 0.330346 0.200568 0.857660
O O12 0.344359 0.983349 0.099157
O O13 0.394054 0.154116 0.028135
O O14 0.500000 0.000000 0.000000
O O15 0.928198 0.320132 0.061434
#
# Coordination Sequence:
#
# PCOD9276359 Si02
#       8
#     8   8   4   8   8   4   8   8
#     4  10  20  40  60  95 125 186 228 275 342 421
#     4  11  22  38  64  97 136 177 230 282 346 417
#     4  11  24  36  68  89 142 172 226 289 358 405
#     4  12  21  40  66 102 127 180 233 289 341 413
#     4   9  20  37  65 100 139 172 222 290 347 403
#     4  11  22  38  72  93 128 174 240 287 332 413
#     4  10  21  38  67  99 131 176 236 284 338 411
#     4  11  20  40  68  97 135 178 235 284 343 410
#
# _framework density 24.497107
#
# number of rings (size 3 to 8) (size 9 to 14) (size 15 to 20)
#    0.000    1.429    4.286    1.286    0.000    2.286 
#    0.000    2.857    9.429    3.429    0.000    0.000 
#    0.000    0.000    0.000    0.000    0.000    0.143 
#
# Total GULP energy -156021.058715 kJ/mol
# GULP energy per Si atom -5572.180668 kJ/mol
# Density = 2.444135 g / cm^3
# Si number density = 24.497107 Si / 1000 Ang^3
#
#
#
# Elastic Constant Matrix: (Units=GPa)
#
#
# Indices 1 2 3 4 5 6 
#
# 1 137.7557 52.0457 33.1820 0.0000 23.5981 0.0000
# 2 52.0457 136.6898 36.3618 0.0000 -6.0813 0.0000
# 3 33.1820 36.3618 82.1637 0.0000 12.7265 0.0000
# 4 0.0000 0.0000 0.0000 37.1026 0.0000 -8.5940
# 5 23.5981 -6.0813 12.7265 0.0000 38.8056 0.0000
# 6 0.0000 0.0000 0.0000 -8.5940 0.0000 14.7157
#
#
#
# Elastic Compliance Matrix: (Units=1/GPa)
#
#
# Indices 1 2 3 4 5 6 
#
# 1 0.010089 -0.003732 -0.001456 0.000000 -0.006243 0.000000
# 2 -0.003732 0.009937 -0.003669 0.000000 0.005030 0.000000
# 3 -0.001456 -0.003669 0.015102 0.000000 -0.004642 0.000000
# 4 0.000000 0.000000 0.000000 0.031169 0.000000 0.018203
# 5 -0.006243 0.005030 -0.004642 0.000000 0.031877 0.000000
# 6 0.000000 0.000000 0.000000 0.018203 0.000000 0.078585
#
#
# Mechanical properties :
#
#
# Convention : Reuss Voigt Hill
#
# Bulk Modulus (GPa) = 57.42867 66.64313 62.03590
# Shear Modulus (GPa) = 24.96534 33.79276 29.37905
#
# Velocity S-wave (km/s) = 3.19582 3.71814 3.46683
# Velocity P-wave (km/s) = 6.09193 6.75990 6.43459
#
# Compressibility (1/GPa) = 0.01741290
#
# Stress axis : x y z
#
# Youngs Moduli (GPa) = 99.11420 100.63626 66.21701
#
# Poissons Ratio (x) = 0.37558 0.09641
# Poissons Ratio (y) = 0.36990 0.24298
# Poissons Ratio (z) = 0.14431 0.36928
#
# Static dielectric constant tensor:
#      x y z
#    x 2.214270 0.000000 -0.085800 
#    y 0.000000 2.065490 0.000000 
#    z -0.085800 0.000000 2.107370 
# 
# From -- ./inp_files/198449.got.cif
#   From: 2010.05.17/outbox.cif.g08.bks.cpg/sg15_100_cif.got.tgz:198449.got - 2010.06.03 18:47:42.
