data_PCOD9276358
_publ_section_title
;
Structure prediction by ZEFSAII (Michael W. Deem and Ramdas Pophale) SiO2 
 PCOD9276358
Probable space group: C 2/C
;
_chemical_formula_sum "Si O2"
_cell_formula_units_Z 52
_cell_length_a 5.274365
_cell_length_b 22.433168
_cell_length_c 18.414455
_cell_angle_alpha 90.000000
_cell_angle_beta 103.225602
_cell_angle_gamma 90.000000
_cell_volume 2121.022383
_symmetry_space_group_name_H-M "C 2/C"
_symmetry_group_IT_number 15
_symmetry_cell_setting 'monoclinic'
loop_
_space_group_symop_operation_xyz
x,y,z
-x,y,1/2-z
-x,-y,-z
x,-y,1/2+z
1/2+x,1/2+y,z
1/2-x,1/2+y,1/2-z
1/2-x,1/2-y,-z
1/2+x,1/2-y,1/2+z
loop_
_atom_site_type_symbol
_atom_site_label
_atom_site_fract_x
_atom_site_fract_y
_atom_site_fract_z
Si Si1 0.123858 0.657834 0.416076
Si Si2 0.000000 0.515340 0.750000
Si Si3 0.457281 0.812996 0.056267
Si Si4 0.083639 0.919225 0.987058
Si Si5 0.576627 0.703737 0.339747
Si Si6 0.321523 0.391118 0.178107
Si Si7 0.596574 0.502409 0.618925
O O1 0.087736 0.698281 0.486394
O O2 0.275182 0.599484 0.459939
O O3 0.328566 0.678042 0.367919
O O4 0.835056 0.662193 0.362100
O O5 0.134984 0.561163 0.704021
O O6 0.199458 0.477869 0.810313
O O7 0.362666 0.761615 0.104848
O O8 0.669047 0.847030 0.118135
O O9 0.230381 0.859354 0.018521
O O10 0.186826 0.970376 0.048292
O O11 0.118693 0.953077 0.912591
O O12 0.500000 0.715608 0.250000
O O13 0.500000 0.359556 0.250000
O O14 0.501848 0.435436 0.145579
#
# Coordination Sequence:
#
# PCOD9276358 Si02
#       7
#     8   4   8   8   8   8   8
#     4  12  26  52  74 111 142 193 245 312 363 450
#     4  10  20  40  60  94 150 188 230 298 356 440
#     4  12  25  44  77 107 143 191 250 310 373 434
#     4  11  24  42  72 106 142 190 244 300 360 438
#     4  12  30  50  76 105 151 192 249 314 381 440
#     4  10  22  38  67 105 148 185 244 300 369 437
#     4  10  22  41  65 106 142 190 238 294 364 431
#
# _framework density 24.516480000000001
#
# number of rings (size 3 to 8) (size 9 to 14) (size 15 to 20)
#    0.000    0.923    4.615    1.385    3.231    3.077 
#    2.769    0.769    0.000    0.000    0.000    0.000 
#    0.000    0.000    0.000    0.000    0.000    0.000 
#
# Total GULP energy -144884.152592 kJ/mol
# GULP energy per Si atom -5572.467407 kJ/mol
# Density = 2.446068 g / cm^3
# Si number density = 24.516480 Si / 1000 Ang^3
#
#
#
# Elastic Constant Matrix: (Units=GPa)
#
#
# Indices 1 2 3 4 5 6 
#
# 1 106.5816 33.2643 70.7957 0.0000 20.2104 0.0000
# 2 33.2643 83.1553 40.7339 0.0000 8.5803 0.0000
# 3 70.7957 40.7339 155.2835 0.0000 0.9489 0.0000
# 4 0.0000 0.0000 0.0000 38.8552 0.0000 4.9799
# 5 20.2104 8.5803 0.9489 0.0000 32.4213 0.0000
# 6 0.0000 0.0000 0.0000 4.9799 0.0000 13.1644
#
#
#
# Elastic Compliance Matrix: (Units=1/GPa)
#
#
# Indices 1 2 3 4 5 6 
#
# 1 0.016414 -0.002243 -0.006837 0.000000 -0.009438 0.000000
# 2 -0.002243 0.014525 -0.002773 0.000000 -0.002365 0.000000
# 3 -0.006837 -0.002773 0.010256 0.000000 0.004696 0.000000
# 4 0.000000 0.000000 0.000000 0.027048 0.000000 -0.010232
# 5 -0.009438 -0.002365 0.004696 0.000000 0.037216 0.000000
# 6 0.000000 0.000000 0.000000 -0.010232 0.000000 0.079833
#
#
# Mechanical properties :
#
#
# Convention : Reuss Voigt Hill
#
# Bulk Modulus (GPa) = 57.18136 70.51203 63.84669
# Shear Modulus (GPa) = 23.27448 30.23663 26.75556
#
# Velocity S-wave (km/s) = 3.08448 3.51567 3.30711
# Velocity P-wave (km/s) = 6.00497 6.73078 6.37821
#
# Compressibility (1/GPa) = 0.01748822
#
# Stress axis : x y z
#
# Youngs Moduli (GPa) = 60.92475 68.84489 97.50586
#
# Poissons Ratio (x) = 0.15441 0.66667
# Poissons Ratio (y) = 0.13664 0.27041
# Poissons Ratio (z) = 0.41655 0.19093
#
# Static dielectric constant tensor:
#      x y z
#    x 2.011420 0.000000 0.023520 
#    y 0.000000 2.008770 0.000000 
#    z 0.023520 0.000000 1.897140 
# 
# From -- ./inp_files/185946.got.cif
#   From: 2010.05.17/outbox.cif.g08.bks.cpg/sg15_93_cif.got.tgz:185946.got - 2010.06.03 18:47:42.
