data_PCOD9276733
_publ_section_title
;
Structure prediction by ZEFSAII (Michael W. Deem and Ramdas Pophale) SiO2 
 PCOD9276733
Probable space group: C 2/C
;
_chemical_formula_sum "Si O2"
_cell_formula_units_Z 28
_cell_length_a 12.372725
_cell_length_b 11.389656
_cell_length_c 8.719932
_cell_angle_alpha 90.000000
_cell_angle_beta 71.360687
_cell_angle_gamma 90.000000
_cell_volume 1164.369705
_symmetry_space_group_name_H-M "C 2/C"
_symmetry_group_IT_number 15
_symmetry_cell_setting 'monoclinic'
loop_
_space_group_symop_operation_xyz
x,y,z
-x,y,1/2-z
-x,-y,-z
x,-y,1/2+z
1/2+x,1/2+y,z
1/2-x,1/2+y,1/2-z
1/2-x,1/2-y,-z
1/2+x,1/2-y,1/2+z
loop_
_atom_site_type_symbol
_atom_site_label
_atom_site_fract_x
_atom_site_fract_y
_atom_site_fract_z
Si Si1 0.000000 0.692973 0.750000
Si Si2 0.550271 0.851519 0.889505
Si Si3 0.305369 0.391126 0.865079
Si Si4 0.405839 0.417433 0.120037
O O1 0.001143 0.624629 0.584936
O O2 0.108363 0.782931 0.705408
O O3 0.500000 0.895139 0.750000
O O4 0.684351 0.878235 0.841097
O O5 0.541994 0.709916 0.883619
O O6 0.360790 0.512387 0.784430
O O7 0.300814 0.400068 0.050150
O O8 0.500000 0.500000 0.000000
#
# Coordination Sequence:
#
# PCOD9276733 Si02
#       4
#     4   8   8   8
#     4  10  20  40  64  94 124 158 214 268 312 362
#     4  11  24  41  65  95 130 166 211 262 324 379
#     4  11  22  39  65  97 125 161 216 272 314 371
#     4  11  19  40  67  95 119 164 220 266 305 372
#
# _framework density 24.047346000000001
#
# number of rings (size 3 to 8) (size 9 to 14) (size 15 to 20)
#    0.000    1.143    5.714    5.143    0.000    1.143 
#    5.143    1.429    3.143    0.000    0.000    0.000 
#    0.000    0.000    0.000    0.000    0.000    0.000 
#
# Total GULP energy -78238.210591 kJ/mol
# GULP energy per Si atom -5588.443614 kJ/mol
# Density = 2.399261 g / cm^3
# Si number density = 24.047346 Si / 1000 Ang^3
#
#
#
# Elastic Constant Matrix: (Units=GPa)
#
#
# Indices 1 2 3 4 5 6 
#
# 1 170.6276 7.2995 64.5837 0.0000 42.7083 0.0000
# 2 7.2995 77.2881 42.2507 0.0000 4.3504 0.0000
# 3 64.5837 42.2507 163.7410 0.0000 46.0010 0.0000
# 4 0.0000 0.0000 0.0000 51.0185 0.0000 1.0933
# 5 42.7083 4.3504 46.0010 0.0000 49.2081 0.0000
# 6 0.0000 0.0000 0.0000 1.0933 0.0000 11.7864
#
#
#
# Elastic Compliance Matrix: (Units=1/GPa)
#
#
# Indices 1 2 3 4 5 6 
#
# 1 0.007798 0.000514 -0.001755 0.000000 -0.005172 0.000000
# 2 0.000514 0.015459 -0.004994 0.000000 0.002856 0.000000
# 3 -0.001755 -0.004994 0.010220 0.000000 -0.007589 0.000000
# 4 0.000000 0.000000 0.000000 0.019640 0.000000 -0.001822
# 5 -0.005172 0.002856 -0.007589 0.000000 0.031653 0.000000
# 6 0.000000 0.000000 0.000000 -0.001822 0.000000 0.085013
#
#
# Mechanical properties :
#
#
# Convention : Reuss Voigt Hill
#
# Bulk Modulus (GPa) = 47.60274 71.10274 59.35274
# Shear Modulus (GPa) = 26.41928 42.23745 34.32836
#
# Velocity S-wave (km/s) = 3.31816 4.19552 3.78237
# Velocity P-wave (km/s) = 5.87526 7.28710 6.61893
#
# Compressibility (1/GPa) = 0.02100720
#
# Stress axis : x y z
#
# Youngs Moduli (GPa) = 128.24249 64.68552 97.84492
#
# Poissons Ratio (x) = -0.03326 0.17174
# Poissons Ratio (y) = -0.06594 0.48865
# Poissons Ratio (z) = 0.22509 0.32305
#
# Static dielectric constant tensor:
#      x y z
#    x 2.229230 0.000000 0.114820 
#    y 0.000000 1.919740 0.000000 
#    z 0.114820 0.000000 1.963420 
# 
# From -- ./inp_files/27275.got.cif
#   From: 2010.05.17/outbox.cif.g08.bks.cpg/sg15_14_cif.got.tgz:27275.got - 2010.06.03 18:47:42.
