data_PCOD9276170
_publ_section_title
;
Structure prediction by ZEFSAII (Michael W. Deem and Ramdas Pophale) SiO2 
 PCOD9276170
Probable space group: C 2/C
;
_chemical_formula_sum "Si O2"
_cell_formula_units_Z 56
_cell_length_a 18.824878
_cell_length_b 11.575668
_cell_length_c 13.739429
_cell_angle_alpha 90.000000
_cell_angle_beta 119.050497
_cell_angle_gamma 90.000000
_cell_volume 2617.301700
_symmetry_space_group_name_H-M "C 2/C"
_symmetry_group_IT_number 15
_symmetry_cell_setting 'monoclinic'
loop_
_space_group_symop_operation_xyz
x,y,z
-x,y,1/2-z
-x,-y,-z
x,-y,1/2+z
1/2+x,1/2+y,z
1/2-x,1/2+y,1/2-z
1/2-x,1/2-y,-z
1/2+x,1/2-y,1/2+z
loop_
_atom_site_type_symbol
_atom_site_label
_atom_site_fract_x
_atom_site_fract_y
_atom_site_fract_z
Si Si1 0.028638 0.835154 0.073563
Si Si2 0.170503 0.828071 0.831195
Si Si3 0.000000 0.243546 0.750000
Si Si4 0.723521 0.926177 0.426061
Si Si5 0.360980 0.550032 0.397864
Si Si6 0.472672 0.866683 0.419475
Si Si7 0.500000 0.716769 0.250000
Si Si8 0.583905 0.931280 0.932740
O O1 0.044109 0.829758 0.198274
O O2 0.934654 0.872432 0.991448
O O3 0.035261 0.709848 0.026985
O O4 0.091552 0.928306 0.078284
O O5 0.197749 0.691819 0.851790
O O6 0.163764 0.888319 0.720745
O O7 0.082955 0.848455 0.827003
O O8 0.233273 0.887594 0.945524
O O9 0.940075 0.323950 0.648983
O O10 0.781294 0.014810 0.405822
O O11 0.644898 0.992546 0.412247
O O12 0.468786 0.789764 0.320890
O O13 0.398094 0.889542 0.444113
O O14 0.506595 0.987066 0.402926
#
# Coordination Sequence:
#
# PCOD9276170 Si02
#       8
#     8   8   4   8   8   8   4   8
#     4  10  23  43  68 101 131 174 240 278 327 412
#     4  11  26  43  69 101 134 179 233 281 338 406
#     4  10  23  41  68 100 134 174 225 289 332 408
#     4  11  26  45  64 101 141 178 224 284 346 408
#     4  11  25  43  68  99 134 186 221 282 348 401
#     4  10  20  39  69  98 128 168 230 279 317 405
#     4  12  19  39  72  92 124 180 221 283 316 400
#     4  10  22  41  67  99 133 176 221 277 349 392
#
# _framework density 21.396082
#
# number of rings (size 3 to 8) (size 9 to 14) (size 15 to 20)
#    0.000    1.429    2.857    1.286    6.000    2.286 
#    2.571    2.857    0.000    0.000    0.000    0.000 
#    0.000    0.000    0.000    0.000    0.000    0.000 
#
# Total GULP energy -156031.756554 kJ/mol
# GULP energy per Si atom -5572.562734 kJ/mol
# Density = 2.134738 g / cm^3
# Si number density = 21.396082 Si / 1000 Ang^3
#
#
#
# Elastic Constant Matrix: (Units=GPa)
#
#
# Indices 1 2 3 4 5 6 
#
# 1 81.9257 28.0967 37.8245 0.0000 -13.2395 0.0000
# 2 28.0967 68.7590 14.5740 0.0000 -14.6097 0.0000
# 3 37.8245 14.5740 98.1007 0.0000 -26.2199 0.0000
# 4 0.0000 0.0000 0.0000 44.0642 0.0000 -107.1715
# 5 -13.2395 -14.6097 -26.2199 0.0000 28.8738 0.0000
# 6 0.0000 0.0000 0.0000 -107.1715 0.0000 703.4791
#
#
#
# Elastic Compliance Matrix: (Units=1/GPa)
#
#
# Indices 1 2 3 4 5 6 
#
# 1 0.016738 -0.005715 -0.005713 0.000000 -0.000404 0.000000
# 2 -0.005715 0.018253 0.001664 0.000000 0.008126 0.000000
# 3 -0.005713 0.001664 0.015415 0.000000 0.012221 0.000000
# 4 0.000000 0.000000 0.000000 0.036053 0.000000 0.005492
# 5 -0.000404 0.008126 0.012221 0.000000 0.049657 0.000000
# 6 0.000000 0.000000 0.000000 0.005492 0.000000 0.002258
#
#
# Mechanical properties :
#
#
# Convention : Reuss Voigt Hill
#
# Bulk Modulus (GPa) = 32.38486 45.53065 38.95776
# Shear Modulus (GPa) = 29.72728 166.50275 98.11501
#
# Velocity S-wave (km/s) = 3.73148 8.83109 6.77909
# Velocity P-wave (km/s) = 5.80810 11.19421 8.91752
#
# Compressibility (1/GPa) = 0.03087863
#
# Stress axis : x y z
#
# Youngs Moduli (GPa) = 59.74315 54.78636 64.86982
#
# Poissons Ratio (x) = 0.31309 0.37059
# Poissons Ratio (y) = 0.34142 -0.10792
# Poissons Ratio (z) = 0.34130 -0.09114
#
# Static dielectric constant tensor:
#      x y z
#    x 1.766110 0.000000 0.010620 
#    y 0.000000 1.854310 0.000000 
#    z 0.010620 0.000000 1.875730 
# 
# From -- ./inp_files/161047.got.cif
#   From: 2010.05.17/outbox.cif.g08.bks.cpg/sg15_81_cif.got.tgz:161047.got - 2010.06.03 18:47:42.
