data_PCOD9276645
_publ_section_title
;
Structure prediction by ZEFSAII (Michael W. Deem and Ramdas Pophale) SiO2 
 PCOD9276645
Probable space group: C 2/C
;
_chemical_formula_sum "Si O2"
_cell_formula_units_Z 60
_cell_length_a 17.619919
_cell_length_b 12.512294
_cell_length_c 15.431524
_cell_angle_alpha 90.000000
_cell_angle_beta 108.232424
_cell_angle_gamma 90.000000
_cell_volume 3231.317354
_symmetry_space_group_name_H-M "C 2/C"
_symmetry_group_IT_number 15
_symmetry_cell_setting 'monoclinic'
loop_
_space_group_symop_operation_xyz
x,y,z
-x,y,1/2-z
-x,-y,-z
x,-y,1/2+z
1/2+x,1/2+y,z
1/2-x,1/2+y,1/2-z
1/2-x,1/2-y,-z
1/2+x,1/2-y,1/2+z
loop_
_atom_site_type_symbol
_atom_site_label
_atom_site_fract_x
_atom_site_fract_y
_atom_site_fract_z
Si Si1 0.046562 0.608617 0.855999
Si Si2 0.065766 0.765279 0.577753
Si Si3 0.000000 0.000000 0.000000
Si Si4 0.280441 0.788956 0.103879
Si Si5 0.854972 0.090674 0.832761
Si Si6 0.538410 0.872906 0.900830
Si Si7 0.383721 0.194897 0.253032
Si Si8 0.293609 0.361147 0.764447
O O1 0.136944 0.646305 0.872916
O O2 0.047726 0.500076 0.912033
O O3 0.000000 0.582508 0.750000
O O4 0.996662 0.702829 0.883406
O O5 0.034677 0.882624 0.543365
O O6 0.070807 0.693155 0.493518
O O7 0.149222 0.785192 0.657098
O O8 0.931745 0.061028 0.916487
O O9 0.212665 0.857584 0.129176
O O10 0.296096 0.685926 0.169142
O O11 0.250000 0.750000 0.000000
O O12 0.876212 0.178866 0.768205
O O13 0.822933 0.981969 0.779842
O O14 0.582992 0.834598 0.829189
O O15 0.445485 0.847678 0.847686
O O16 0.296721 0.145470 0.234431
#
# Coordination Sequence:
#
# PCOD9276645 Si02
#       8
#     8   8   4   8   8   8   8   8
#     4  12  23  42  67  96 130 164 216 269 316 387
#     4  11  23  42  62  96 123 171 214 262 320 377
#     4  10  20  40  64  86 128 168 206 260 314 380
#     4  11  24  44  64  96 129 167 218 267 328 384
#     4  10  21  41  64  92 129 170 213 264 322 385
#     4  11  23  41  66  93 124 170 211 262 321 382
#     4  10  21  40  63  91 127 166 214 258 320 378
#     4  10  23  41  64  90 130 166 211 272 316 378
#
# _framework density 18.568277999999999
#
# number of rings (size 3 to 8) (size 9 to 14) (size 15 to 20)
#    0.000    1.333    4.000    2.000    1.867    0.533 
#   12.000    0.000    0.000    0.000    0.000    0.000 
#    0.000    0.000    0.000    0.000    0.000    0.000 
#
# Total GULP energy -167060.712784 kJ/mol
# GULP energy per Si atom -5568.690426 kJ/mol
# Density = 1.852602 g / cm^3
# Si number density = 18.568278 Si / 1000 Ang^3
#
#
#
# Elastic Constant Matrix: (Units=GPa)
#
#
# Indices 1 2 3 4 5 6 
#
# 1 70.7495 25.3907 24.1936 0.0000 16.2944 0.0000
# 2 25.3907 75.9366 22.9782 0.0000 6.2931 0.0000
# 3 24.1936 22.9782 93.3596 0.0000 13.8724 0.0000
# 4 0.0000 0.0000 0.0000 20.2042 0.0000 6.1499
# 5 16.2944 6.2931 13.8724 0.0000 23.2540 0.0000
# 6 0.0000 0.0000 0.0000 6.1499 0.0000 16.9479
#
#
#
# Elastic Compliance Matrix: (Units=1/GPa)
#
#
# Indices 1 2 3 4 5 6 
#
# 1 0.019091 -0.004838 -0.002154 0.000000 -0.010783 0.000000
# 2 -0.004838 0.015534 -0.002687 0.000000 0.000789 0.000000
# 3 -0.002154 -0.002687 0.012727 0.000000 -0.005355 0.000000
# 4 0.000000 0.000000 0.000000 0.055640 0.000000 -0.020190
# 5 -0.010783 0.000789 -0.005355 0.000000 0.053540 0.000000
# 6 0.000000 0.000000 0.000000 -0.020190 0.000000 0.066331
#
#
# Mechanical properties :
#
#
# Convention : Reuss Voigt Hill
#
# Bulk Modulus (GPa) = 35.72264 42.79673 39.25968
# Shear Modulus (GPa) = 19.87661 23.24677 21.56169
#
# Velocity S-wave (km/s) = 3.27534 3.54215 3.41135
# Velocity P-wave (km/s) = 5.79518 6.31090 6.05853
#
# Compressibility (1/GPa) = 0.02799345
#
# Stress axis : x y z
#
# Youngs Moduli (GPa) = 52.38170 64.37437 78.57534
#
# Poissons Ratio (x) = 0.31143 0.16928
# Poissons Ratio (y) = 0.25341 0.21112
# Poissons Ratio (z) = 0.11285 0.17297
#
# Static dielectric constant tensor:
#      x y z
#    x 1.642440 0.000000 -0.003380 
#    y 0.000000 1.621520 0.000000 
#    z -0.003380 0.000000 1.625680 
# 
# From -- ./inp_files/161389.got.cif
#   From: 2010.05.17/outbox.cif.g08.bks.cpg/sg15_81_cif.got.tgz:161389.got - 2010.06.03 18:47:42.
