data_PCOD9276114
_publ_section_title
;
Structure prediction by ZEFSAII (Michael W. Deem and Ramdas Pophale) SiO2 
 PCOD9276114
Probable space group: C 2/C
;
_chemical_formula_sum "Si O2"
_cell_formula_units_Z 56
_cell_length_a 8.295441
_cell_length_b 20.849639
_cell_length_c 16.922232
_cell_angle_alpha 90.000000
_cell_angle_beta 110.792242
_cell_angle_gamma 90.000000
_cell_volume 2736.204981
_symmetry_space_group_name_H-M "C 2/C"
_symmetry_group_IT_number 15
_symmetry_cell_setting 'monoclinic'
loop_
_space_group_symop_operation_xyz
x,y,z
-x,y,1/2-z
-x,-y,-z
x,-y,1/2+z
1/2+x,1/2+y,z
1/2-x,1/2+y,1/2-z
1/2-x,1/2-y,-z
1/2+x,1/2-y,1/2+z
loop_
_atom_site_type_symbol
_atom_site_label
_atom_site_fract_x
_atom_site_fract_y
_atom_site_fract_z
Si Si1 0.809788 0.301738 0.256607
Si Si2 0.198250 0.549588 0.762064
Si Si3 0.629439 0.318693 0.063620
Si Si4 0.013322 0.050582 0.932898
Si Si5 0.323072 0.991686 0.891396
Si Si6 0.633378 0.771621 0.054805
Si Si7 0.931928 0.604345 0.528074
O O1 0.783812 0.378002 0.269200
O O2 0.679072 0.290502 0.159294
O O3 0.800867 0.266999 0.341416
O O4 0.000000 0.293074 0.250000
O O5 0.337379 0.544195 0.853695
O O6 0.236674 0.493167 0.708145
O O7 0.000000 0.544535 0.750000
O O8 0.486959 0.374866 0.045193
O O9 0.796499 0.356948 0.058686
O O10 0.545892 0.267343 0.990202
O O11 0.179215 0.029926 0.913832
O O12 0.000000 0.000000 0.000000
O O13 0.492979 0.037647 0.923420
O O14 0.348099 0.922594 0.933587
O O15 0.582274 0.845852 0.037027
O O16 0.750000 0.750000 0.000000
#
# Coordination Sequence:
#
# PCOD9276114 Si02
#       7
#     8   8   8   8   8   8   8
#     4  10  20  39  68  94 124 173 231 267 320 397
#     4  10  21  39  65  97 132 174 227 267 322 403
#     4  11  23  42  69  95 131 175 225 275 333 405
#     4  11  22  38  64 101 133 167 220 276 329 388
#     4  11  21  38  65  96 136 166 216 270 332 393
#     4  12  25  43  66  99 133 170 229 282 338 391
#     4  11  22  39  66  96 129 175 213 271 336 398
#
# _framework density 20.466303
#
# number of rings (size 3 to 8) (size 9 to 14) (size 15 to 20)
#    0.000    1.143    4.286    3.429    2.000    0.571 
#    0.000    1.429    0.000    0.000    0.000    0.000 
#    0.000    0.000    0.000    0.000    0.000    0.000 
#
# Total GULP energy -156070.474070 kJ/mol
# GULP energy per Si atom -5573.945502 kJ/mol
# Density = 2.041972 g / cm^3
# Si number density = 20.466303 Si / 1000 Ang^3
#
#
#
# Elastic Constant Matrix: (Units=GPa)
#
#
# Indices 1 2 3 4 5 6 
#
# 1 71.4913 14.0768 24.2812 0.0000 -7.0241 0.0000
# 2 14.0768 58.0586 56.4938 0.0000 1.5724 0.0000
# 3 24.2812 56.4938 147.6383 0.0000 -12.4269 0.0000
# 4 0.0000 0.0000 0.0000 46.3694 0.0000 8.3909
# 5 -7.0241 1.5724 -12.4269 0.0000 23.5582 0.0000
# 6 0.0000 0.0000 0.0000 8.3909 0.0000 18.4756
#
#
#
# Elastic Compliance Matrix: (Units=1/GPa)
#
#
# Indices 1 2 3 4 5 6 
#
# 1 0.015316 -0.002733 -0.001123 0.000000 0.004156 0.000000
# 2 -0.002733 0.029337 -0.011521 0.000000 -0.008850 0.000000
# 3 -0.001123 -0.011521 0.011933 0.000000 0.006729 0.000000
# 4 0.000000 0.000000 0.000000 0.023497 0.000000 -0.010671
# 5 0.004156 -0.008850 0.006729 0.000000 0.047827 0.000000
# 6 0.000000 0.000000 0.000000 -0.010671 0.000000 0.058972
#
#
# Mechanical properties :
#
#
# Convention : Reuss Voigt Hill
#
# Bulk Modulus (GPa) = 38.71363 51.87687 45.29525
# Shear Modulus (GPa) = 22.09969 29.83642 25.96806
#
# Velocity S-wave (km/s) = 3.28961 3.82230 3.56591
# Velocity P-wave (km/s) = 5.77802 6.69944 6.25572
#
# Compressibility (1/GPa) = 0.02583069
#
# Stress axis : x y z
#
# Youngs Moduli (GPa) = 65.29239 34.08656 83.80109
#
# Poissons Ratio (x) = 0.09316 0.09413
# Poissons Ratio (y) = 0.17845 0.96550
# Poissons Ratio (z) = 0.07334 0.39272
#
# Static dielectric constant tensor:
#      x y z
#    x 1.703900 0.000000 0.033860 
#    y 0.000000 1.827910 0.000000 
#    z 0.033860 0.000000 1.848730 
# 
# From -- ./inp_files/191051.got.cif
#   From: 2010.05.17/outbox.cif.g08.bks.cpg/sg15_96_cif.got.tgz:191051.got - 2010.06.03 18:47:42.
