data_PCOD9276947
_publ_section_title
;
Structure prediction by ZEFSAII (Michael W. Deem and Ramdas Pophale) SiO2 
 PCOD9276947
Probable space group: C 2/C
;
_chemical_formula_sum "Si O2"
_cell_formula_units_Z 40
_cell_length_a 9.150135
_cell_length_b 10.999241
_cell_length_c 26.956775
_cell_angle_alpha 90.000000
_cell_angle_beta 41.002486
_cell_angle_gamma 90.000000
_cell_volume 1780.011246
_symmetry_space_group_name_H-M "C 2/C"
_symmetry_group_IT_number 15
_symmetry_cell_setting 'monoclinic'
loop_
_space_group_symop_operation_xyz
x,y,z
-x,y,1/2-z
-x,-y,-z
x,-y,1/2+z
1/2+x,1/2+y,z
1/2-x,1/2+y,1/2-z
1/2-x,1/2-y,-z
1/2+x,1/2-y,1/2+z
loop_
_atom_site_type_symbol
_atom_site_label
_atom_site_fract_x
_atom_site_fract_y
_atom_site_fract_z
Si Si1 0.212839 0.568445 0.964763
Si Si2 0.371828 0.803697 0.620120
Si Si3 0.069373 0.389731 0.786221
Si Si4 0.887681 0.973292 0.080815
Si Si5 0.524501 0.517899 0.687052
O O1 0.411731 0.485132 0.934396
O O2 0.334202 0.611940 0.883093
O O3 0.000000 0.500000 0.000000
O O4 0.104611 0.647288 0.036581
O O5 0.369949 0.811373 0.680455
O O6 0.350624 0.667987 0.604614
O O7 0.175613 0.894685 0.652718
O O8 0.281763 0.481372 0.728127
O O9 0.000000 0.337381 0.750000
O O10 0.847728 0.462899 0.857025
O O11 0.000000 0.000000 0.000000
O O12 0.500000 0.559999 0.750000
#
# Coordination Sequence:
#
# PCOD9276947 Si02
#       5
#     8   8   8   8   8
#     4  10  20  40  66  93 136 177 221 280 336 396
#     4  10  23  43  69  95 136 180 226 281 337 405
#     4  11  22  40  68  97 136 171 231 279 338 406
#     4  12  24  42  70  97 131 180 229 277 334 403
#     4   9  20  41  66  94 136 176 220 284 347 397
#
# _framework density 22.471768999999998
#
# number of rings (size 3 to 8) (size 9 to 14) (size 15 to 20)
#    0.000    1.600    4.000    0.600    0.000    2.400 
#    0.000    7.000    0.000    0.000    0.000    0.000 
#    0.000    0.000    0.000    0.000    0.000    0.000 
#
# Total GULP energy -111409.337845 kJ/mol
# GULP energy per Si atom -5570.466892 kJ/mol
# Density = 2.242062 g / cm^3
# Si number density = 22.471769 Si / 1000 Ang^3
#
#
#
# Elastic Constant Matrix: (Units=GPa)
#
#
# Indices 1 2 3 4 5 6 
#
# 1 100.7746 -0.9916 33.1178 -0.0001 -10.5996 0.0000
# 2 -0.9916 48.8991 21.8448 -0.0001 -3.0905 0.0000
# 3 33.1178 21.8448 177.4841 -0.0002 3.1338 0.0000
# 4 -0.0001 -0.0001 -0.0002 20.8913 0.0000 -6.3543
# 5 -10.5996 -3.0905 3.1338 0.0000 70.9162 0.0000
# 6 0.0000 0.0000 0.0000 -6.3543 0.0000 21.5165
#
#
#
# Elastic Compliance Matrix: (Units=1/GPa)
#
#
# Indices 1 2 3 4 5 6 
#
# 1 0.010853 0.001324 -0.002219 0.000000 0.001778 0.000000
# 2 0.001324 0.021882 -0.002963 0.000000 0.001282 0.000000
# 3 -0.002219 -0.002963 0.006426 0.000000 -0.000745 0.000000
# 4 0.000000 0.000000 0.000000 0.052591 0.000000 0.015531
# 5 0.001778 0.001282 -0.000745 0.000000 0.014456 0.000000
# 6 0.000000 0.000000 0.000000 0.015531 0.000000 0.051063
#
#
# Mechanical properties :
#
#
# Convention : Reuss Voigt Hill
#
# Bulk Modulus (GPa) = 31.80271 48.34441 40.07356
# Shear Modulus (GPa) = 28.49525 40.87726 34.68626
#
# Velocity S-wave (km/s) = 3.56483 4.26966 3.93306
# Velocity P-wave (km/s) = 5.57916 6.77250 6.20459
#
# Compressibility (1/GPa) = 0.03144386
#
# Stress axis : x y z
#
# Youngs Moduli (GPa) = 92.14453 45.70004 155.61146
#
# Poissons Ratio (x) = -0.06050 0.34536
# Poissons Ratio (y) = -0.12199 0.46106
# Poissons Ratio (z) = 0.20450 0.13540
#
# Static dielectric constant tensor:
#      x y z
#    x 1.947700 0.000000 0.135280 
#    y 0.000000 2.013930 0.000000 
#    z 0.135280 0.000000 1.947750 
# 
# From -- ./inp_files/288299.got.cif
#   From: 2010.05.17/outbox.cif.g08.bks.cpg/sg15_145_cif.got.tgz:288299.got - 2010.06.03 18:47:42.
