data_PCOD9276957
_publ_section_title
;
Structure prediction by ZEFSAII (Michael W. Deem and Ramdas Pophale) SiO2 
 PCOD9276957
Probable space group: C 2/C
;
_chemical_formula_sum "Si O2"
_cell_formula_units_Z 28
_cell_length_a 13.838089
_cell_length_b 5.351534
_cell_length_c 16.706036
_cell_angle_alpha 90.000000
_cell_angle_beta 63.802132
_cell_angle_gamma 90.000000
_cell_volume 1110.077477
_symmetry_space_group_name_H-M "C 2/C"
_symmetry_group_IT_number 15
_symmetry_cell_setting 'monoclinic'
loop_
_space_group_symop_operation_xyz
x,y,z
-x,y,1/2-z
-x,-y,-z
x,-y,1/2+z
1/2+x,1/2+y,z
1/2-x,1/2+y,1/2-z
1/2-x,1/2-y,-z
1/2+x,1/2-y,1/2+z
loop_
_atom_site_type_symbol
_atom_site_label
_atom_site_fract_x
_atom_site_fract_y
_atom_site_fract_z
Si Si1 0.120979 0.792859 0.055199
Si Si2 0.855857 0.705715 0.017366
Si Si3 0.000000 0.681500 0.250000
Si Si4 0.310213 0.010674 0.211729
O O1 0.072104 0.838367 0.160757
O O2 0.250000 0.750000 0.000000
O O3 0.078256 0.523068 0.043926
O O4 0.092737 0.024164 0.010407
O O5 0.827805 0.622002 0.116702
O O6 0.750000 0.750000 0.000000
O O7 0.086043 0.523802 0.269034
O O8 0.230860 0.225369 0.277432
#
# Coordination Sequence:
#
# PCOD9276957 Si02
#       4
#     8   8   4   8
#     4  10  22  42  66 100 140 179 235 292 345 423
#     4  10  20  40  66  94 139 184 224 291 354 406
#     4  12  28  46  78 108 142 198 240 290 374 426
#     4  12  26  46  73 109 148 187 243 302 354 432
#
# _framework density 25.223466999999999
#
# number of rings (size 3 to 8) (size 9 to 14) (size 15 to 20)
#    0.000    1.143    0.000    8.571    0.000    6.857 
#    0.000    0.000    0.000    0.000    0.000    0.000 
#    0.000    0.000    0.000    0.000    0.000    0.000 
#
# Total GULP energy -78257.008924 kJ/mol
# GULP energy per Si atom -5589.786352 kJ/mol
# Density = 2.516606 g / cm^3
# Si number density = 25.223467 Si / 1000 Ang^3
#
#
#
# Elastic Constant Matrix: (Units=GPa)
#
#
# Indices 1 2 3 4 5 6 
#
# 1 181.1550 -1.5104 11.9124 -0.0002 11.9133 0.0011
# 2 -1.5104 159.3876 12.0437 -0.0007 -6.8348 0.0031
# 3 11.9124 12.0437 153.0631 0.0001 -3.4937 0.0003
# 4 -0.0002 -0.0007 0.0001 40.0164 -0.0003 12.9180
# 5 11.9133 -6.8348 -3.4937 -0.0003 37.9969 -0.0002
# 6 0.0011 0.0031 0.0003 12.9180 -0.0002 -27.4006
#
#
#
# Elastic Compliance Matrix: (Units=1/GPa)
#
#
# Indices 1 2 3 4 5 6 
#
# 1 0.005672 0.000012 -0.000484 0.000000 -0.001821 0.000000
# 2 0.000012 0.006357 -0.000476 0.000000 0.001096 0.000001
# 3 -0.000484 -0.000476 0.006624 0.000000 0.000675 0.000000
# 4 0.000000 0.000000 0.000000 0.021689 0.000000 0.010225
# 5 -0.001821 0.001096 0.000675 0.000000 0.027148 0.000000
# 6 0.000000 0.000001 0.000000 0.010225 0.000000 -0.031675
#
#
# Mechanical properties :
#
#
# Convention : Reuss Voigt Hill
#
# Bulk Modulus (GPa) = 59.67653 59.83302 59.75477
# Shear Modulus (GPa) = 115.48414 41.53321 78.50867
#
# Velocity S-wave (km/s) = 6.77376 4.06225 5.58505
# Velocity P-wave (km/s) = 9.21352 6.76573 8.08282
#
# Compressibility (1/GPa) = 0.01675701
#
# Stress axis : x y z
#
# Youngs Moduli (GPa) = 176.31132 157.30442 150.97097
#
# Poissons Ratio (x) = -0.00193 0.07306
# Poissons Ratio (y) = -0.00216 0.07188
# Poissons Ratio (z) = 0.08532 0.07490
#
# Static dielectric constant tensor:
#      x y z
#    x 1.403540 -0.000030 0.294940 
#    y -0.000030 1.413220 0.000010 
#    z 0.294940 0.000010 1.892730 
# 
# From -- ./inp_files/157988.got.cif
#   From: 2010.05.17/outbox.cif.g08.bks.cpg/sg15_79_cif.got.tgz:157988.got - 2010.06.03 18:47:42.
