data_PCOD9276561
_publ_section_title
;
Structure prediction by ZEFSAII (Michael W. Deem and Ramdas Pophale) SiO2 
 PCOD9276561
Probable space group: C 2/C
;
_chemical_formula_sum "Si O2"
_cell_formula_units_Z 40
_cell_length_a 24.204628
_cell_length_b 16.886011
_cell_length_c 14.442250
_cell_angle_alpha 90.000000
_cell_angle_beta 159.078853
_cell_angle_gamma 90.000000
_cell_volume 2107.799226
_symmetry_space_group_name_H-M "C 2/C"
_symmetry_group_IT_number 15
_symmetry_cell_setting 'monoclinic'
loop_
_space_group_symop_operation_xyz
x,y,z
-x,y,1/2-z
-x,-y,-z
x,-y,1/2+z
1/2+x,1/2+y,z
1/2-x,1/2+y,1/2-z
1/2-x,1/2-y,-z
1/2+x,1/2-y,1/2+z
loop_
_atom_site_type_symbol
_atom_site_label
_atom_site_fract_x
_atom_site_fract_y
_atom_site_fract_z
Si Si1 0.591461 0.089909 0.480637
Si Si2 0.389158 0.299379 0.667856
Si Si3 0.681107 0.469888 0.017804
Si Si4 0.713466 0.866183 0.895201
Si Si5 0.177025 0.209041 0.748956
O O1 0.711242 0.034847 0.722598
O O2 0.462115 0.124634 0.345480
O O3 0.688764 0.163231 0.594319
O O4 0.500000 0.052684 0.250000
O O5 0.500000 0.274451 0.750000
O O6 0.250000 0.250000 0.500000
O O7 0.312701 0.382994 0.518689
O O8 0.518063 0.308502 0.948859
O O9 0.735264 0.545310 0.045463
O O10 0.500000 0.481921 0.750000
O O11 0.712094 0.802327 0.810974
O O12 0.816371 0.827543 0.137624
#
# Coordination Sequence:
#
# PCOD9276561 Si02
#       5
#     8   8   8   8   8
#     4  10  20  40  63  87 128 169 211 273 332 394
#     4  11  23  43  70  96 138 177 221 277 338 400
#     4  11  22  42  63  94 135 168 218 285 338 389
#     4  10  23  38  67  91 126 173 225 270 328 406
#     4  10  21  41  63  94 125 176 220 272 333 399
#
# _framework density 18.977139999999999
#
# number of rings (size 3 to 8) (size 9 to 14) (size 15 to 20)
#    0.000    1.600    4.000    1.800    0.000    4.800 
#    0.000    4.000    0.000    0.000    0.000    0.000 
#    0.000    0.000    0.000    0.000    0.000    0.000 
#
# Total GULP energy -111392.457243 kJ/mol
# GULP energy per Si atom -5569.622862 kJ/mol
# Density = 1.893395 g / cm^3
# Si number density = 18.977140 Si / 1000 Ang^3
#
#
#
# Elastic Constant Matrix: (Units=GPa)
#
#
# Indices 1 2 3 4 5 6 
#
# 1 66.4949 52.3635 46.4542 0.0000 -0.6563 0.0000
# 2 52.3635 88.3495 35.2734 0.0000 7.3243 0.0000
# 3 46.4542 35.2734 151.4799 0.0000 -23.4981 0.0000
# 4 0.0000 0.0000 0.0000 7.9097 0.0000 -17.7140
# 5 -0.6563 7.3243 -23.4981 0.0000 24.2283 0.0000
# 6 0.0000 0.0000 0.0000 -17.7140 0.0000 -19.7114
#
#
#
# Elastic Compliance Matrix: (Units=1/GPa)
#
#
# Indices 1 2 3 4 5 6 
#
# 1 0.032564 -0.016906 -0.006027 0.000000 0.000148 0.000000
# 2 -0.016906 0.022631 -0.001433 0.000000 -0.008690 0.000000
# 3 -0.006027 -0.001433 0.010388 0.000000 0.010345 0.000000
# 4 0.000000 0.000000 0.000000 0.041966 0.000000 -0.037714
# 5 0.000148 -0.008690 0.010345 0.000000 0.053938 0.000000
# 6 0.000000 0.000000 0.000000 -0.037714 0.000000 -0.016840
#
#
# Mechanical properties :
#
#
# Convention : Reuss Voigt Hill
#
# Bulk Modulus (GPa) = 59.34284 63.83406 61.58845
# Shear Modulus (GPa) = 25.12596 13.96752 19.54674
#
# Velocity S-wave (km/s) = 3.64265 2.71591 3.21287
# Velocity P-wave (km/s) = 7.00217 6.59888 6.80352
#
# Compressibility (1/GPa) = 0.01685123
#
# Stress axis : x y z
#
# Youngs Moduli (GPa) = 30.70893 44.18647 96.26277
#
# Poissons Ratio (x) = 0.74703 0.58014
# Poissons Ratio (y) = 0.51917 0.13797
# Poissons Ratio (z) = 0.18507 0.06333
#
# Static dielectric constant tensor:
#      x y z
#    x 1.726800 0.000000 0.008550 
#    y 0.000000 1.663430 0.000000 
#    z 0.008550 0.000000 1.706970 
# 
# From -- ./inp_files/174144.got.cif
#   From: 2010.05.17/outbox.cif.g08.bks.cpg/sg15_88_cif.got.tgz:174144.got - 2010.06.03 18:47:42.
