data_PCOD9276736
_publ_section_title
;
Structure prediction by ZEFSAII (Michael W. Deem and Ramdas Pophale) SiO2 
 PCOD9276736
Probable space group: C 2/C
;
_chemical_formula_sum "Si O2"
_cell_formula_units_Z 48
_cell_length_a 20.734416
_cell_length_b 11.722763
_cell_length_c 26.650894
_cell_angle_alpha 90.000000
_cell_angle_beta 18.386692
_cell_angle_gamma 90.000000
_cell_volume 2043.312023
_symmetry_space_group_name_H-M "C 2/C"
_symmetry_group_IT_number 15
_symmetry_cell_setting 'monoclinic'
loop_
_space_group_symop_operation_xyz
x,y,z
-x,y,1/2-z
-x,-y,-z
x,-y,1/2+z
1/2+x,1/2+y,z
1/2-x,1/2+y,1/2-z
1/2-x,1/2-y,-z
1/2+x,1/2-y,1/2+z
loop_
_atom_site_type_symbol
_atom_site_label
_atom_site_fract_x
_atom_site_fract_y
_atom_site_fract_z
Si Si1 0.935609 0.757710 0.691401
Si Si2 0.127114 0.311235 0.737650
Si Si3 0.000000 0.500000 0.500000
Si Si4 0.287078 0.111086 0.560351
Si Si5 0.488923 0.270672 0.540445
Si Si6 0.500000 0.993592 0.750000
Si Si7 0.288916 0.410337 0.957395
O O1 0.726374 0.696263 0.860320
O O2 0.908850 0.803037 0.654811
O O3 0.133097 0.676637 0.545823
O O4 0.995229 0.854381 0.687809
O O5 0.131498 0.194727 0.703132
O O6 0.342165 0.324739 0.607295
O O7 0.949880 0.311016 0.909992
O O8 0.088931 0.414063 0.727920
O O9 0.905714 0.543138 0.516044
O O10 0.020195 0.365779 0.462559
O O11 0.204815 0.023062 0.579955
O O12 0.322513 0.065625 0.907221
#
# Coordination Sequence:
#
# PCOD9276736 Si02
#       7
#     8   8   4   8   8   4   8
#     4  11  23  43  68  97 137 177 227 286 335 409
#     4  10  23  42  71  96 139 178 222 286 342 402
#     4  10  20  40  64  94 132 174 222 276 334 408
#     4  10  21  45  67 100 133 181 229 279 342 411
#     4  11  22  42  65  99 133 177 224 283 340 408
#     4  10  22  46  66 100 138 174 230 284 340 414
#     4  10  22  42  68  98 137 182 227 282 342 410
#
# _framework density 23.491273
#
# number of rings (size 3 to 8) (size 9 to 14) (size 15 to 20)
#    0.000    1.667    1.667    3.000    0.000    4.667 
#   15.000    4.167    0.000    0.000    0.000    0.000 
#    0.000    0.000    0.000    0.000    0.000    0.000 
#
# Total GULP energy -133885.155061 kJ/mol
# GULP energy per Si atom -5578.548128 kJ/mol
# Density = 2.343781 g / cm^3
# Si number density = 23.491273 Si / 1000 Ang^3
#
#
#
# Elastic Constant Matrix: (Units=GPa)
#
#
# Indices 1 2 3 4 5 6 
#
# 1 120.9004 26.1475 36.1364 0.0162 -7.6127 -0.0011
# 2 26.1475 58.8489 29.0732 -0.0135 -13.1425 -0.0009
# 3 36.1364 29.0732 92.6317 0.0464 1.1652 -0.0064
# 4 0.0162 -0.0135 0.0464 18.2174 -0.0066 3.5737
# 5 -7.6127 -13.1425 1.1652 -0.0066 25.3738 -0.0070
# 6 -0.0011 -0.0009 -0.0064 3.5737 -0.0070 32.3269
#
#
#
# Elastic Compliance Matrix: (Units=1/GPa)
#
#
# Indices 1 2 3 4 5 6 
#
# 1 0.009839 -0.002431 -0.003098 -0.000002 0.001835 0.000000
# 2 -0.002431 0.024114 -0.006772 0.000042 0.012072 -0.000003
# 3 -0.003098 -0.006772 0.014194 -0.000041 -0.005089 0.000006
# 4 -0.000002 0.000042 -0.000041 0.056110 0.000036 -0.006203
# 5 0.001835 0.012072 -0.005089 0.000036 0.046447 0.000006
# 6 0.000000 -0.000003 0.000006 -0.006203 0.000006 0.031620
#
#
# Mechanical properties :
#
#
# Convention : Reuss Voigt Hill
#
# Bulk Modulus (GPa) = 42.47363 50.56613 46.51988
# Shear Modulus (GPa) = 23.28032 27.25189 25.26610
#
# Velocity S-wave (km/s) = 3.15146 3.40970 3.28312
# Velocity P-wave (km/s) = 5.60019 6.08881 5.84960
#
# Compressibility (1/GPa) = 0.02354402
#
# Stress axis : x y z
#
# Youngs Moduli (GPa) = 101.64038 41.46913 70.45462
#
# Poissons Ratio (x) = 0.10081 0.21828
# Poissons Ratio (y) = 0.24709 0.47712
# Poissons Ratio (z) = 0.31490 0.28083
#
# Static dielectric constant tensor:
#      x y z
#    x 1.870830 0.000010 -0.015140 
#    y 0.000010 1.879780 0.000020 
#    z -0.015140 0.000020 1.899600 
# 
# From -- ./inp_files/110897.got.cif
#   From: 2010.05.17/outbox.cif.g08.bks.cpg/sg15_56_cif.got.tgz:110897.got - 2010.06.03 18:47:42.
