data_PCOD9276329
_publ_section_title
;
Structure prediction by ZEFSAII (Michael W. Deem and Ramdas Pophale) SiO2 
 PCOD9276329
Probable space group: C 2/C
;
_chemical_formula_sum "Si O2"
_cell_formula_units_Z 36
_cell_length_a 15.133894
_cell_length_b 11.453251
_cell_length_c 9.190351
_cell_angle_alpha 90.000000
_cell_angle_beta 116.805439
_cell_angle_gamma 90.000000
_cell_volume 1421.807233
_symmetry_space_group_name_H-M "C 2/C"
_symmetry_group_IT_number 15
_symmetry_cell_setting 'monoclinic'
loop_
_space_group_symop_operation_xyz
x,y,z
-x,y,1/2-z
-x,-y,-z
x,-y,1/2+z
1/2+x,1/2+y,z
1/2-x,1/2+y,1/2-z
1/2-x,1/2-y,-z
1/2+x,1/2-y,1/2+z
loop_
_atom_site_type_symbol
_atom_site_label
_atom_site_fract_x
_atom_site_fract_y
_atom_site_fract_z
Si Si1 0.000000 0.052249 0.250000
Si Si2 0.808938 0.691265 0.675515
Si Si3 0.770676 0.161379 0.384560
Si Si4 0.122749 0.065803 0.584790
Si Si5 0.571074 0.033702 0.186500
O O1 0.942205 0.972387 0.326335
O O2 0.064157 0.128579 0.410514
O O3 0.750000 0.750000 0.500000
O O4 0.843397 0.786905 0.815215
O O5 0.718802 0.635056 0.703689
O O6 0.885004 0.586314 0.709887
O O7 0.750000 0.250000 0.500000
O O8 0.829410 0.043661 0.467902
O O9 0.667523 0.114582 0.235952
O O10 0.500000 0.094690 0.250000
O O11 0.500000 0.000000 0.000000
#
# Coordination Sequence:
#
# PCOD9276329 Si02
#       5
#     4   8   8   8   8
#     4  10  20  40  60  88 124 166 214 264 320 372
#     4  11  23  43  67  95 133 177 219 268 347 401
#     4  11  23  43  67  95 133 177 219 268 347 401
#     4  10  22  41  62  91 134 168 210 274 331 384
#     4  11  24  46  68 101 135 176 228 289 329 403
#
# _framework density 25.319886
#
# number of rings (size 3 to 8) (size 9 to 14) (size 15 to 20)
#    0.000    1.333    0.000    5.333    0.000    7.111 
#   40.000    0.000    0.000    0.000    0.000    0.000 
#    0.000    0.000    0.000    0.000    0.000    0.000 
#
# Total GULP energy -100429.739347 kJ/mol
# GULP energy per Si atom -5579.429964 kJ/mol
# Density = 2.526226 g / cm^3
# Si number density = 25.319886 Si / 1000 Ang^3
#
#
#
# Elastic Constant Matrix: (Units=GPa)
#
#
# Indices 1 2 3 4 5 6 
#
# 1 119.8823 4.9464 22.7380 0.0000 0.3374 0.0000
# 2 4.9464 74.7346 15.2336 0.0000 3.1906 0.0000
# 3 22.7380 15.2336 141.1077 0.0000 -0.0907 0.0000
# 4 0.0000 0.0000 0.0000 30.6836 0.0000 0.9674
# 5 0.3374 3.1906 -0.0907 0.0000 41.3770 0.0000
# 6 0.0000 0.0000 0.0000 0.9674 0.0000 32.7979
#
#
#
# Elastic Compliance Matrix: (Units=1/GPa)
#
#
# Indices 1 2 3 4 5 6 
#
# 1 0.008611 -0.000291 -0.001356 0.000000 -0.000051 0.000000
# 2 -0.000291 0.013738 -0.001437 0.000000 -0.001060 0.000000
# 3 -0.001356 -0.001437 0.007461 0.000000 0.000138 0.000000
# 4 0.000000 0.000000 0.000000 0.032621 0.000000 -0.000962
# 5 -0.000051 -0.001060 0.000138 0.000000 0.024250 0.000000
# 6 0.000000 0.000000 0.000000 -0.000962 0.000000 0.030518
#
#
# Mechanical properties :
#
#
# Convention : Reuss Voigt Hill
#
# Bulk Modulus (GPa) = 42.29963 46.84007 44.56985
# Shear Modulus (GPa) = 38.09580 40.49216 39.29398
#
# Velocity S-wave (km/s) = 3.88310 4.00337 3.94369
# Velocity P-wave (km/s) = 6.07017 6.31734 6.19499
#
# Compressibility (1/GPa) = 0.02364087
#
# Stress axis : x y z
#
# Youngs Moduli (GPa) = 116.13198 72.79026 134.03894
#
# Poissons Ratio (x) = 0.02121 0.18178
# Poissons Ratio (y) = 0.03383 0.19260
# Poissons Ratio (z) = 0.15749 0.10459
#
# Static dielectric constant tensor:
#      x y z
#    x 2.009490 0.000000 0.072100 
#    y 0.000000 2.076660 0.000000 
#    z 0.072100 0.000000 2.087760 
# 
# From -- ./inp_files/46331.got.cif
#   From: 2010.05.17/outbox.cif.g08.bks.cpg/sg15_24_cif.got.tgz:46331.got - 2010.06.03 18:47:42.
