data_PCOD9276556
_publ_section_title
;
Structure prediction by ZEFSAII (Michael W. Deem and Ramdas Pophale) SiO2 
 PCOD9276556
Probable space group: C 2/C
;
_chemical_formula_sum "Si O2"
_cell_formula_units_Z 64
_cell_length_a 15.252503
_cell_length_b 13.997239
_cell_length_c 17.751070
_cell_angle_alpha 90.000000
_cell_angle_beta 120.427107
_cell_angle_gamma 90.000000
_cell_volume 3267.784496
_symmetry_space_group_name_H-M "C 2/C"
_symmetry_group_IT_number 15
_symmetry_cell_setting 'monoclinic'
loop_
_space_group_symop_operation_xyz
x,y,z
-x,y,1/2-z
-x,-y,-z
x,-y,1/2+z
1/2+x,1/2+y,z
1/2-x,1/2+y,1/2-z
1/2-x,1/2-y,-z
1/2+x,1/2-y,1/2+z
loop_
_atom_site_type_symbol
_atom_site_label
_atom_site_fract_x
_atom_site_fract_y
_atom_site_fract_z
Si Si1 0.850012 0.799990 0.689058
Si Si2 0.480186 0.759946 0.117068
Si Si3 0.620320 0.671197 0.824788
Si Si4 0.853029 0.223838 0.828387
Si Si5 0.431783 0.965434 0.038861
Si Si6 0.927065 0.088569 0.987812
Si Si7 0.195129 0.974703 0.920014
Si Si8 0.536799 0.849661 0.851158
O O1 0.878003 0.746831 0.623458
O O2 0.739631 0.775069 0.671074
O O3 0.859048 0.909708 0.667388
O O4 0.929633 0.767898 0.786928
O O5 0.481626 0.867358 0.088928
O O6 0.478432 0.680293 0.051199
O O7 0.500000 0.654282 0.750000
O O8 0.673342 0.690867 0.767875
O O9 0.667811 0.583038 0.888783
O O10 0.620204 0.766627 0.875509
O O11 0.882746 0.132738 0.891781
O O12 0.946244 0.298004 0.858159
O O13 0.431571 0.051903 0.098388
O O14 0.314126 0.951353 0.966630
O O15 0.500000 0.000000 0.000000
O O16 0.846516 0.052624 0.015420
O O17 0.000000 0.000000 0.000000
O O18 0.500000 0.869185 0.750000
#
# Coordination Sequence:
#
# PCOD9276556 Si02
#       8
#     8   8   8   8   8   8   8   8
#     4  10  22  40  62  88 120 165 209 255 309 378
#     4  10  24  40  60  89 126 163 204 265 308 369
#     4   9  21  40  65  90 126 164 207 263 312 375
#     4  10  20  40  63  87 121 164 211 256 309 377
#     4  12  25  41  63  93 131 167 210 259 312 382
#     4  11  22  40  63  92 121 158 207 265 320 366
#     4  11  24  39  65  95 125 166 203 262 325 372
#     4   9  21  42  63  88 128 170 202 255 313 375
#
# _framework density 19.585134
#
# number of rings (size 3 to 8) (size 9 to 14) (size 15 to 20)
#    0.000    2.000    0.000    4.500    8.750    2.500 
#    4.500    0.000    0.000    0.000    0.000    0.000 
#    0.000    0.000    0.000    0.000    0.000    0.000 
#
# Total GULP energy -178615.327645 kJ/mol
# GULP energy per Si atom -5581.728989 kJ/mol
# Density = 1.954056 g / cm^3
# Si number density = 19.585134 Si / 1000 Ang^3
#
#
#
# Elastic Constant Matrix: (Units=GPa)
#
#
# Indices 1 2 3 4 5 6 
#
# 1 112.9922 43.5981 35.3474 0.0000 -22.2119 0.0000
# 2 43.5981 161.5148 64.2215 0.0000 -17.4173 0.0000
# 3 35.3474 64.2215 59.5875 0.0000 -10.4967 0.0000
# 4 0.0000 0.0000 0.0000 43.9818 0.0000 -3.5901
# 5 -22.2119 -17.4173 -10.4967 0.0000 22.8676 0.0000
# 6 0.0000 0.0000 0.0000 -3.5901 0.0000 18.9269
#
#
#
# Elastic Compliance Matrix: (Units=1/GPa)
#
#
# Indices 1 2 3 4 5 6 
#
# 1 0.012522 -0.000119 -0.005629 0.000000 0.009489 0.000000
# 2 -0.000119 0.011048 -0.011287 0.000000 0.003118 0.000000
# 3 -0.005629 -0.011287 0.032431 0.000000 0.000822 0.000000
# 4 0.000000 0.000000 0.000000 0.023094 0.000000 0.004381
# 5 0.009489 0.003118 0.000822 0.000000 0.055699 0.000000
# 6 0.000000 0.000000 0.000000 0.004381 0.000000 0.053666
#
#
# Mechanical properties :
#
#
# Convention : Reuss Voigt Hill
#
# Bulk Modulus (GPa) = 45.59648 68.93649 57.26648
# Shear Modulus (GPa) = 21.75436 29.88375 25.81906
#
# Velocity S-wave (km/s) = 3.33642 3.91044 3.63478
# Velocity P-wave (km/s) = 6.17851 7.46080 6.84972
#
# Compressibility (1/GPa) = 0.02193152
#
# Stress axis : x y z
#
# Youngs Moduli (GPa) = 79.85853 90.51674 30.83508
#
# Poissons Ratio (x) = 0.01076 0.17356
# Poissons Ratio (y) = 0.00949 0.34804
# Poissons Ratio (z) = 0.44949 1.02167
#
# Static dielectric constant tensor:
#      x y z
#    x 1.697790 0.000000 0.005850 
#    y 0.000000 1.713910 0.000000 
#    z 0.005850 0.000000 1.707670 
# 
# From -- ./inp_files/205449.got.cif
#   From: 2010.05.17/outbox.cif.g08.bks.cpg/sg15_103_cif.got.tgz:205449.got - 2010.06.03 18:47:42.
