data_PCOD9276024
_publ_section_title
;
Structure prediction by ZEFSAII (Michael W. Deem and Ramdas Pophale) SiO2 
 PCOD9276024
Probable space group: C 2/C
;
_chemical_formula_sum "Si O2"
_cell_formula_units_Z 56
_cell_length_a 26.293361
_cell_length_b 8.366517
_cell_length_c 13.645087
_cell_angle_alpha 90.000000
_cell_angle_beta 65.367961
_cell_angle_gamma 90.000000
_cell_volume 2728.553777
_symmetry_space_group_name_H-M "C 2/C"
_symmetry_group_IT_number 15
_symmetry_cell_setting 'monoclinic'
loop_
_space_group_symop_operation_xyz
x,y,z
-x,y,1/2-z
-x,-y,-z
x,-y,1/2+z
1/2+x,1/2+y,z
1/2-x,1/2+y,1/2-z
1/2-x,1/2-y,-z
1/2+x,1/2-y,1/2+z
loop_
_atom_site_type_symbol
_atom_site_label
_atom_site_fract_x
_atom_site_fract_y
_atom_site_fract_z
Si Si1 0.783670 0.345659 0.892354
Si Si2 0.539086 0.150947 0.357422
Si Si3 0.263583 0.679736 0.598214
Si Si4 0.646717 0.652441 0.823817
Si Si5 0.850193 0.222977 0.216077
Si Si6 0.925048 0.407399 0.012455
Si Si7 0.105803 0.458581 0.154608
O O1 0.744023 0.488563 0.889012
O O2 0.810837 0.231735 0.789285
O O3 0.836257 0.443997 0.892126
O O4 0.750000 0.250000 0.000000
O O5 0.585340 0.276669 0.354989
O O6 0.475022 0.200174 0.426871
O O7 0.560046 0.078572 0.238248
O O8 0.549596 0.995417 0.415034
O O9 0.250000 0.750000 0.500000
O O10 0.324765 0.703785 0.595731
O O11 0.214747 0.747986 0.707020
O O12 0.642236 0.464334 0.806643
O O13 0.872460 0.313192 0.100502
O O14 0.882485 0.305069 0.284714
O O15 0.911495 0.545034 0.944288
#
# Coordination Sequence:
#
# PCOD9276024 Si02
#       7
#     8   8   8   8   8   8   8
#     4  10  22  37  59  90 123 166 207 253 315 371
#     4   9  21  39  60  93 119 169 209 259 321 376
#     4  11  24  40  63  91 126 174 213 256 313 389
#     4  11  23  40  62  91 138 160 210 270 318 384
#     4  10  23  40  61  99 124 169 215 262 330 370
#     4  10  20  39  67  86 125 165 215 260 309 384
#     4   9  20  37  63  88 122 165 215 257 303 389
#
# _framework density 20.523693999999999
#
# number of rings (size 3 to 8) (size 9 to 14) (size 15 to 20)
#    0.000    2.000    0.000    3.000    8.000    0.571 
#    0.000    0.000    0.000   10.286    0.000    0.000 
#    0.000    0.000    0.000    0.000    0.000    0.000 
#
# Total GULP energy -155928.475266 kJ/mol
# GULP energy per Si atom -5568.874117 kJ/mol
# Density = 2.047698 g / cm^3
# Si number density = 20.523694 Si / 1000 Ang^3
#
#
#
# Elastic Constant Matrix: (Units=GPa)
#
#
# Indices 1 2 3 4 5 6 
#
# 1 82.4347 21.1076 51.2462 0.0000 -7.4559 0.0000
# 2 21.1076 90.2819 31.6080 0.0000 -18.1265 0.0000
# 3 51.2462 31.6080 101.8187 0.0000 -12.8440 0.0000
# 4 0.0000 0.0000 0.0000 28.4532 0.0000 -5.9602
# 5 -7.4559 -18.1265 -12.8440 0.0000 24.5010 0.0000
# 6 0.0000 0.0000 0.0000 -5.9602 0.0000 13.3242
#
#
#
# Elastic Compliance Matrix: (Units=1/GPa)
#
#
# Indices 1 2 3 4 5 6 
#
# 1 0.017760 -0.001136 -0.008578 0.000000 0.000068 0.000000
# 2 -0.001136 0.014013 -0.002693 0.000000 0.008610 0.000000
# 3 -0.008578 -0.002693 0.015413 0.000000 0.003478 0.000000
# 4 0.000000 0.000000 0.000000 0.038779 0.000000 0.017346
# 5 0.000068 0.008610 0.003478 0.000000 0.049029 0.000000
# 6 0.000000 0.000000 0.000000 0.017346 0.000000 0.082810
#
#
# Mechanical properties :
#
#
# Convention : Reuss Voigt Hill
#
# Bulk Modulus (GPa) = 44.69272 53.60654 49.14963
# Shear Modulus (GPa) = 19.99401 24.62725 22.31063
#
# Velocity S-wave (km/s) = 3.12459 3.46778 3.30065
# Velocity P-wave (km/s) = 5.90261 6.49692 6.20689
#
# Compressibility (1/GPa) = 0.02237501
#
# Stress axis : x y z
#
# Youngs Moduli (GPa) = 56.30577 71.36056 64.87946
#
# Poissons Ratio (x) = 0.08103 0.55652
# Poissons Ratio (y) = 0.06394 0.17469
# Poissons Ratio (z) = 0.48298 0.19214
#
# Static dielectric constant tensor:
#      x y z
#    x 1.858730 0.000000 -0.045510 
#    y 0.000000 2.029430 0.000000 
#    z -0.045510 0.000000 1.785620 
# 
# From -- ./inp_files/121880.got.cif
#   From: 2010.05.17/outbox.cif.g08.bks.cpg/sg15_61_cif.got.tgz:121880.got - 2010.06.03 18:47:42.
