data_PCOD9276008
_publ_section_title
;
Structure prediction by ZEFSAII (Michael W. Deem and Ramdas Pophale) SiO2 
 PCOD9276008
Probable space group: C 2/C
;
_chemical_formula_sum "Si O2"
_cell_formula_units_Z 40
_cell_length_a 16.948811
_cell_length_b 16.143867
_cell_length_c 10.773308
_cell_angle_alpha 90.000000
_cell_angle_beta 31.211721
_cell_angle_gamma 90.000000
_cell_volume 1527.548304
_symmetry_space_group_name_H-M "C 2/C"
_symmetry_group_IT_number 15
_symmetry_cell_setting 'monoclinic'
loop_
_space_group_symop_operation_xyz
x,y,z
-x,y,1/2-z
-x,-y,-z
x,-y,1/2+z
1/2+x,1/2+y,z
1/2-x,1/2+y,1/2-z
1/2-x,1/2-y,-z
1/2+x,1/2-y,1/2+z
loop_
_atom_site_type_symbol
_atom_site_label
_atom_site_fract_x
_atom_site_fract_y
_atom_site_fract_z
Si Si1 0.925496 0.759247 0.726971
Si Si2 0.415588 0.917777 0.164443
Si Si3 0.671126 0.528029 0.550474
Si Si4 0.369378 0.326238 0.532959
Si Si5 0.678749 0.849008 0.463904
O O1 0.990713 0.665246 0.617811
O O2 0.928369 0.806828 0.591364
O O3 0.000000 0.796448 0.750000
O O4 0.750000 0.750000 0.000000
O O5 0.326195 0.883725 0.166361
O O6 0.285167 0.954275 0.427737
O O7 0.500000 0.000000 0.000000
O O8 0.500000 0.500215 0.750000
O O9 0.708821 0.584814 0.377812
O O10 0.712282 0.594031 0.602251
O O11 0.500000 0.329594 0.250000
O O12 0.274285 0.246829 0.614013
O O13 0.500000 0.852623 0.750000
#
# Coordination Sequence:
#
# PCOD9276008 Si02
#       5
#     8   8   8   8   8
#     4  11  28  47  76 110 152 194 245 317 387 449
#     4  11  25  43  72 102 143 200 248 296 375 460
#     4  11  24  40  67 102 140 182 241 315 362 427
#     4   9  22  44  71 103 141 192 250 297 362 455
#     4  10  20  39  66  98 132 182 248 296 348 437
#
# _framework density 26.185752999999998
#
# number of rings (size 3 to 8) (size 9 to 14) (size 15 to 20)
#    0.000    1.600    2.000    0.600    5.600    8.000 
#    0.000    0.000    0.000    0.000    0.000    0.000 
#    0.000    0.000    0.000    0.000    0.000    0.000 
#
# Total GULP energy -111707.945314 kJ/mol
# GULP energy per Si atom -5585.397266 kJ/mol
# Density = 2.612615 g / cm^3
# Si number density = 26.185753 Si / 1000 Ang^3
#
#
#
# Elastic Constant Matrix: (Units=GPa)
#
#
# Indices 1 2 3 4 5 6 
#
# 1 146.2754 -2.3735 10.5889 -0.0001 29.5324 0.0000
# 2 -2.3735 108.6820 5.6025 0.0000 12.2864 0.0000
# 3 10.5889 5.6025 89.3462 0.0000 4.4258 0.0001
# 4 -0.0001 0.0000 0.0000 28.9380 0.0001 -3.6575
# 5 29.5324 12.2864 4.4258 0.0001 33.7626 -0.0001
# 6 0.0000 0.0000 0.0001 -3.6575 -0.0001 10.4267
#
#
#
# Elastic Compliance Matrix: (Units=1/GPa)
#
#
# Indices 1 2 3 4 5 6 
#
# 1 0.008460 0.001092 -0.000689 0.000000 -0.007707 0.000000
# 2 0.001092 0.009753 -0.000521 0.000000 -0.004436 0.000000
# 3 -0.000689 -0.000521 0.011341 0.000000 -0.000694 0.000000
# 4 0.000000 0.000000 0.000000 0.036160 0.000000 0.012684
# 5 -0.007707 -0.004436 -0.000694 0.000000 0.038065 0.000000
# 6 0.000000 0.000000 0.000000 0.012684 0.000000 0.100357
#
#
# Mechanical properties :
#
#
# Convention : Reuss Voigt Hill
#
# Bulk Modulus (GPa) = 34.11042 41.32659 37.71851
# Shear Modulus (GPa) = 23.34848 36.65785 30.00316
#
# Velocity S-wave (km/s) = 2.98929 3.74560 3.38861
# Velocity P-wave (km/s) = 4.99691 5.87558 5.45397
#
# Compressibility (1/GPa) = 0.02931655
#
# Stress axis : x y z
#
# Youngs Moduli (GPa) = 118.20290 102.52910 88.17425
#
# Poissons Ratio (x) = -0.11192 0.06078
# Poissons Ratio (y) = -0.12903 0.04596
# Poissons Ratio (z) = 0.08148 0.05344
#
# Static dielectric constant tensor:
#      x y z
#    x 2.008880 0.000000 -0.092460 
#    y 0.000000 2.211320 0.000000 
#    z -0.092460 0.000000 2.260890 
# 
# From -- ./inp_files/106812.got.cif
#   From: 2010.05.17/outbox.cif.g08.bks.cpg/sg15_54_cif.got.tgz:106812.got - 2010.06.03 18:47:42.
