data_PCOD9276057
_publ_section_title
;
Structure prediction by ZEFSAII (Michael W. Deem and Ramdas Pophale) SiO2 
 PCOD9276057
Probable space group: C 2/C
;
_chemical_formula_sum "Si O2"
_cell_formula_units_Z 48
_cell_length_a 22.163787
_cell_length_b 17.501513
_cell_length_c 17.676290
_cell_angle_alpha 90.000000
_cell_angle_beta 161.020739
_cell_angle_gamma 90.000000
_cell_volume 2229.953418
_symmetry_space_group_name_H-M "C 2/C"
_symmetry_group_IT_number 15
_symmetry_cell_setting 'monoclinic'
loop_
_space_group_symop_operation_xyz
x,y,z
-x,y,1/2-z
-x,-y,-z
x,-y,1/2+z
1/2+x,1/2+y,z
1/2-x,1/2+y,1/2-z
1/2-x,1/2-y,-z
1/2+x,1/2-y,1/2+z
loop_
_atom_site_type_symbol
_atom_site_label
_atom_site_fract_x
_atom_site_fract_y
_atom_site_fract_z
Si Si1 0.967120 0.828863 0.327842
Si Si2 0.751724 0.900137 0.939893
Si Si3 0.359449 0.839670 0.442925
Si Si4 0.879935 0.196159 0.207254
Si Si5 0.173483 0.556380 0.907415
Si Si6 0.694555 0.166470 0.795571
O O1 0.139087 0.883985 0.508664
O O2 0.059962 0.746235 0.449507
O O3 0.831804 0.838364 0.094436
O O4 0.830182 0.848353 0.234695
O O5 0.531745 0.891588 0.672632
O O6 0.788609 0.983841 0.016770
O O7 0.327524 0.856068 0.316919
O O8 0.895609 0.249918 0.299106
O O9 0.087697 0.178227 0.429461
O O10 0.750000 0.250000 0.000000
O O11 0.778239 0.115680 0.086666
O O12 0.122173 0.606061 0.771677
O O13 0.000000 0.529457 0.750000
#
# Coordination Sequence:
#
# PCOD9276057 Si02
#       6
#     8   8   8   8   8   8
#     4  11  24  40  70  95 130 178 226 268 322 390
#     4  11  26  42  69  96 134 174 228 272 326 391
#     4  12  23  44  66 103 135 173 219 274 337 393
#     4  10  20  39  67  94 127 169 221 265 315 390
#     4  11  23  44  68  95 130 174 222 272 329 390
#     4  11  24  40  69 100 135 169 215 275 337 394
#
# _framework density 21.525112
#
# number of rings (size 3 to 8) (size 9 to 14) (size 15 to 20)
#    0.000    1.000    1.667    7.000    7.000    0.667 
#    3.000    0.833    0.000    0.000    0.000    0.000 
#    0.000    0.000    0.000    0.000    0.000    0.000 
#
# Total GULP energy -133954.399942 kJ/mol
# GULP energy per Si atom -5581.433331 kJ/mol
# Density = 2.147612 g / cm^3
# Si number density = 21.525112 Si / 1000 Ang^3
#
#
#
# Elastic Constant Matrix: (Units=GPa)
#
#
# Indices 1 2 3 4 5 6 
#
# 1 141.3213 28.8756 32.9161 0.0023 21.1518 0.0003
# 2 28.8756 81.8187 23.9008 0.0030 12.5354 0.0014
# 3 32.9161 23.9008 60.3677 0.0057 21.5693 0.0030
# 4 0.0023 0.0030 0.0057 12.6930 0.0022 13.1963
# 5 21.1518 12.5354 21.5693 0.0022 41.0155 0.0008
# 6 0.0003 0.0014 0.0030 13.1963 0.0008 18.1763
#
#
#
# Elastic Compliance Matrix: (Units=1/GPa)
#
#
# Indices 1 2 3 4 5 6 
#
# 1 0.008495 -0.001739 -0.003162 0.000000 -0.002186 0.000000
# 2 -0.001739 0.014269 -0.004265 -0.000003 -0.001221 0.000002
# 3 -0.003162 -0.004265 0.023309 -0.000017 -0.009324 0.000010
# 4 0.000000 -0.000003 -0.000017 0.321308 -0.000002 -0.233275
# 5 -0.002186 -0.001221 -0.009324 -0.000002 0.030785 0.000002
# 6 0.000000 0.000002 0.000010 -0.233275 0.000002 0.224378
#
#
# Mechanical properties :
#
#
# Convention : Reuss Voigt Hill
#
# Bulk Modulus (GPa) = 36.04780 50.54363 43.29571
# Shear Modulus (GPa) = 7.69084 27.56462 17.62773
#
# Velocity S-wave (km/s) = 1.89228 3.58240 2.86481
# Velocity P-wave (km/s) = 4.64301 6.37524 5.57679
#
# Compressibility (1/GPa) = 0.02774095
#
# Stress axis : x y z
#
# Youngs Moduli (GPa) = 117.71241 70.08251 42.90153
#
# Poissons Ratio (x) = 0.12190 0.13567
# Poissons Ratio (y) = 0.20475 0.18295
# Poissons Ratio (z) = 0.37224 0.29887
#
# Static dielectric constant tensor:
#      x y z
#    x 1.883520 0.000000 0.012130 
#    y 0.000000 1.761990 0.000000 
#    z 0.012130 0.000000 1.798380 
# 
# From -- ./inp_files/216299.got.cif
#   From: 2010.05.17/outbox.cif.g08.bks.cpg/sg15_109_cif.got.tgz:216299.got - 2010.06.03 18:47:42.
