data_PCOD9276214
_publ_section_title
;
Structure prediction by ZEFSAII (Michael W. Deem and Ramdas Pophale) SiO2 
 PCOD9276214
Probable space group: C 2/C
;
_chemical_formula_sum "Si O2"
_cell_formula_units_Z 40
_cell_length_a 12.338009
_cell_length_b 8.742218
_cell_length_c 16.343285
_cell_angle_alpha 90.000000
_cell_angle_beta 66.868963
_cell_angle_gamma 90.000000
_cell_volume 1621.097752
_symmetry_space_group_name_H-M "C 2/C"
_symmetry_group_IT_number 15
_symmetry_cell_setting 'monoclinic'
loop_
_space_group_symop_operation_xyz
x,y,z
-x,y,1/2-z
-x,-y,-z
x,-y,1/2+z
1/2+x,1/2+y,z
1/2-x,1/2+y,1/2-z
1/2-x,1/2-y,-z
1/2+x,1/2-y,1/2+z
loop_
_atom_site_type_symbol
_atom_site_label
_atom_site_fract_x
_atom_site_fract_y
_atom_site_fract_z
Si Si1 0.546312 0.976346 0.826968
Si Si2 0.752113 0.918377 0.353105
Si Si3 0.830701 0.400022 0.464480
Si Si4 0.476513 0.372296 0.385346
Si Si5 0.666953 0.415680 0.901754
O O1 0.500000 0.998850 0.750000
O O2 0.516659 0.802063 0.861016
O O3 0.685214 0.001384 0.798534
O O4 0.470054 0.097944 0.904448
O O5 0.888510 0.922483 0.338631
O O6 0.719155 0.741748 0.355203
O O7 0.689279 0.996687 0.450022
O O8 0.750000 0.250000 0.500000
O O9 0.772530 0.481776 0.404282
O O10 0.405738 0.379074 0.492512
O O11 0.582846 0.489691 0.366951
#
# Coordination Sequence:
#
# PCOD9276214 Si02
#       5
#     8   8   8   8   8
#     4  12  26  45  63  97 145 180 223 286 352 404
#     4  11  22  42  69  97 134 169 232 279 320 415
#     4  11  22  41  72 102 129 181 232 282 337 403
#     4  10  21  42  65 100 131 171 215 284 336 399
#     4  10  20  39  72 102 127 162 232 281 329 393
#
# _framework density 24.674638000000002
#
# number of rings (size 3 to 8) (size 9 to 14) (size 15 to 20)
#    0.000    1.200    4.000    3.000    8.400    0.000 
#    7.200    1.000    0.000    0.000    0.000    0.000 
#    0.000    0.000    0.000    0.000    0.000    0.000 
#
# Total GULP energy -112007.591863 kJ/mol
# GULP energy per Si atom -5600.379593 kJ/mol
# Density = 2.461848 g / cm^3
# Si number density = 24.674638 Si / 1000 Ang^3
#
#
#
# Elastic Constant Matrix: (Units=GPa)
#
#
# Indices 1 2 3 4 5 6 
#
# 1 182.1996 56.6780 62.6526 0.0000 34.5366 0.0000
# 2 56.6780 105.6097 41.1694 0.0000 12.3402 0.0000
# 3 62.6526 41.1694 84.9768 0.0000 16.5879 0.0000
# 4 0.0000 0.0000 0.0000 20.2531 0.0000 17.6426
# 5 34.5366 12.3402 16.5879 0.0000 56.8440 0.0000
# 6 0.0000 0.0000 0.0000 17.6426 0.0000 42.3350
#
#
#
# Elastic Compliance Matrix: (Units=1/GPa)
#
#
# Indices 1 2 3 4 5 6 
#
# 1 0.008356 -0.002403 -0.004356 0.000000 -0.003284 0.000000
# 2 -0.002403 0.012412 -0.004242 0.000000 0.000003 0.000000
# 3 -0.004356 -0.004242 0.017325 0.000000 -0.001488 0.000000
# 4 0.000000 0.000000 0.000000 0.077515 0.000000 -0.032303
# 5 -0.003284 0.000003 -0.001488 0.000000 0.020021 0.000000
# 6 0.000000 0.000000 0.000000 -0.032303 0.000000 0.037083
#
#
# Mechanical properties :
#
#
# Convention : Reuss Voigt Hill
#
# Bulk Modulus (GPa) = 62.14488 77.08734 69.61611
# Shear Modulus (GPa) = 24.99029 38.03883 31.51456
#
# Velocity S-wave (km/s) = 3.18589 3.93060 3.57768
# Velocity P-wave (km/s) = 6.22685 7.20478 6.73359
#
# Compressibility (1/GPa) = 0.01609143
#
# Stress axis : x y z
#
# Youngs Moduli (GPa) = 119.66977 80.56897 57.71937
#
# Poissons Ratio (x) = 0.19360 0.25141
# Poissons Ratio (y) = 0.28755 0.24486
# Poissons Ratio (z) = 0.52126 0.34179
#
# Static dielectric constant tensor:
#      x y z
#    x 1.969230 0.000000 -0.037900 
#    y 0.000000 1.893460 0.000000 
#    z -0.037900 0.000000 1.997530 
# 
# From -- ./inp_files/195188.got.cif
#   From: 2010.05.17/outbox.cif.g08.bks.cpg/sg15_98_cif.got.tgz:195188.got - 2010.06.03 18:47:42.
