data_PCOD9276948
_publ_section_title
;
Structure prediction by ZEFSAII (Michael W. Deem and Ramdas Pophale) SiO2 
 PCOD9276948
Probable space group: C 2/C
;
_chemical_formula_sum "Si O2"
_cell_formula_units_Z 56
_cell_length_a 19.301009
_cell_length_b 16.602004
_cell_length_c 14.505495
_cell_angle_alpha 90.000000
_cell_angle_beta 33.063696
_cell_angle_gamma 90.000000
_cell_volume 2535.854901
_symmetry_space_group_name_H-M "C 2/C"
_symmetry_group_IT_number 15
_symmetry_cell_setting 'monoclinic'
loop_
_space_group_symop_operation_xyz
x,y,z
-x,y,1/2-z
-x,-y,-z
x,-y,1/2+z
1/2+x,1/2+y,z
1/2-x,1/2+y,1/2-z
1/2-x,1/2-y,-z
1/2+x,1/2-y,1/2+z
loop_
_atom_site_type_symbol
_atom_site_label
_atom_site_fract_x
_atom_site_fract_y
_atom_site_fract_z
Si Si1 0.338417 0.962909 0.257149
Si Si2 0.459780 0.662595 0.188509
Si Si3 0.199364 0.576211 0.493542
Si Si4 0.115910 0.936221 0.377332
Si Si5 0.472547 0.827931 0.456566
Si Si6 0.582593 0.857687 0.792090
Si Si7 0.812820 0.614018 0.514181
O O1 0.297217 0.922093 0.399484
O O2 0.230766 0.979385 0.302504
O O3 0.436150 0.898541 0.110735
O O4 0.400154 0.047429 0.209917
O O5 0.500000 0.660922 0.250000
O O6 0.338882 0.605265 0.308666
O O7 0.444410 0.753939 0.172345
O O8 0.570569 0.630127 0.000295
O O9 0.105937 0.634813 0.541505
O O10 0.162108 0.483291 0.517393
O O11 0.178591 0.891203 0.218840
O O12 0.000000 0.000000 0.500000
O O13 0.392171 0.811625 0.639673
O O14 0.679919 0.848028 0.596890
O O15 0.436382 0.845152 0.923168
#
# Coordination Sequence:
#
# PCOD9276948 Si02
#       7
#     8   8   8   8   8   8   8
#     4  11  21  38  64  92 130 165 219 274 316 385
#     4  12  27  42  59  94 139 178 207 261 339 407
#     4  11  22  39  62  96 131 167 216 272 325 394
#     4  12  24  40  64  93 128 176 215 266 332 395
#     4  12  24  38  64  96 132 172 217 266 333 393
#     4  10  21  38  66  96 118 165 223 282 319 368
#     4  10  20  40  66  94 122 161 227 279 323 372
#
# _framework density 22.083283000000002
#
# number of rings (size 3 to 8) (size 9 to 14) (size 15 to 20)
#    0.000    0.857    5.714    2.571    2.000    1.143 
#    0.000    0.714    0.000    0.000    0.000    0.000 
#    0.000    0.000    0.000    0.000    0.000    0.000 
#
# Total GULP energy -156098.341902 kJ/mol
# GULP energy per Si atom -5574.940782 kJ/mol
# Density = 2.203302 g / cm^3
# Si number density = 22.083283 Si / 1000 Ang^3
#
#
#
# Elastic Constant Matrix: (Units=GPa)
#
#
# Indices 1 2 3 4 5 6 
#
# 1 98.3144 2.8205 36.9260 0.0000 10.8145 0.0000
# 2 2.8205 25.2108 4.5210 0.0000 5.3247 0.0000
# 3 36.9260 4.5210 133.4413 0.0000 25.4194 -0.0001
# 4 0.0000 0.0000 0.0000 26.6057 0.0000 10.8384
# 5 10.8145 5.3247 25.4194 0.0000 39.4978 0.0000
# 6 0.0000 0.0000 -0.0001 10.8384 0.0000 -1.7645
#
#
#
# Elastic Compliance Matrix: (Units=1/GPa)
#
#
# Indices 1 2 3 4 5 6 
#
# 1 0.011411 -0.000505 -0.002916 0.000000 -0.001180 0.000000
# 2 -0.000505 0.040867 -0.000253 0.000000 -0.005209 0.000000
# 3 -0.002916 -0.000253 0.009290 0.000000 -0.005146 0.000000
# 4 0.000000 0.000000 0.000000 0.010732 0.000000 0.065920
# 5 -0.001180 -0.005209 -0.005146 0.000000 0.029655 0.000000
# 6 0.000000 0.000000 0.000000 0.065920 0.000000 -0.161819
#
#
# Mechanical properties :
#
#
# Convention : Reuss Voigt Hill
#
# Bulk Modulus (GPa) = 18.44281 38.38907 28.41594
# Shear Modulus (GPa) = -145.16300 27.04773 -59.05763
#
# Velocity S-wave (km/s) = -8.11647 3.50352 -5.17699
# Velocity P-wave (km/s) = 8.91440 5.81272 4.77906
#
# Compressibility (1/GPa) = 0.05422166
#
# Stress axis : x y z
#
# Youngs Moduli (GPa) = 87.63596 24.46936 107.64690
#
# Poissons Ratio (x) = 0.01235 0.31388
# Poissons Ratio (y) = 0.04422 0.02721
# Poissons Ratio (z) = 0.25553 0.00619
#
# Static dielectric constant tensor:
#      x y z
#    x 1.835630 0.000000 0.069660 
#    y 0.000000 1.809270 0.000000 
#    z 0.069660 0.000000 1.972680 
# 
# From -- ./inp_files/169117.got.cif
#   From: 2010.05.17/outbox.cif.g08.bks.cpg/sg15_85_cif.got.tgz:169117.got - 2010.06.03 18:47:42.
