data_PCOD9276700
_publ_section_title
;
Structure prediction by ZEFSAII (Michael W. Deem and Ramdas Pophale) SiO2 
 PCOD9276700
Probable space group: C 2/C
;
_chemical_formula_sum "Si O2"
_cell_formula_units_Z 64
_cell_length_a 11.974288
_cell_length_b 14.897607
_cell_length_c 17.779777
_cell_angle_alpha 90.000000
_cell_angle_beta 77.370212
_cell_angle_gamma 90.000000
_cell_volume 3094.958060
_symmetry_space_group_name_H-M "C 2/C"
_symmetry_group_IT_number 15
_symmetry_cell_setting 'monoclinic'
loop_
_space_group_symop_operation_xyz
x,y,z
-x,y,1/2-z
-x,-y,-z
x,-y,1/2+z
1/2+x,1/2+y,z
1/2-x,1/2+y,1/2-z
1/2-x,1/2-y,-z
1/2+x,1/2-y,1/2+z
loop_
_atom_site_type_symbol
_atom_site_label
_atom_site_fract_x
_atom_site_fract_y
_atom_site_fract_z
Si Si1 0.586970 0.042208 0.794733
Si Si2 0.638779 0.496387 0.486355
Si Si3 0.220426 0.988999 0.641629
Si Si4 0.319171 0.704469 0.298106
Si Si5 0.032574 0.266297 0.359308
Si Si6 0.039043 0.146012 0.668823
Si Si7 0.703029 0.612802 0.837300
Si Si8 0.867563 0.797924 0.501376
O O1 0.500000 0.993827 0.750000
O O2 0.645799 0.003047 0.860550
O O3 0.523908 0.130649 0.834786
O O4 0.696137 0.070873 0.727549
O O5 0.500000 0.500000 0.500000
O O6 0.681929 0.469536 0.562502
O O7 0.700519 0.429902 0.419945
O O8 0.666167 0.600963 0.469765
O O9 0.147576 0.080700 0.666692
O O10 0.198103 0.901495 0.695023
O O11 0.417293 0.722385 0.345750
O O12 0.366195 0.727841 0.208406
O O13 0.222137 0.779170 0.330457
O O14 0.063081 0.247809 0.440940
O O15 0.063553 0.196572 0.587541
O O16 0.000000 0.198172 0.750000
O O17 0.924938 0.088152 0.670949
O O18 0.750000 0.750000 0.500000
#
# Coordination Sequence:
#
# PCOD9276700 Si02
#       8
#     8   8   8   8   8   8   8   8
#     4  11  22  44  67  92 133 186 225 265 339 416
#     4  11  22  41  65  99 132 174 223 276 347 398
#     4  11  23  39  66  97 131 169 225 277 331 403
#     4  10  23  37  65  98 123 174 223 275 324 399
#     4  10  20  40  64  91 130 172 230 262 328 406
#     4  11  23  40  69  99 132 175 226 284 347 395
#     4  11  22  41  66  96 134 171 218 291 331 387
#     4  11  24  39  65 101 138 172 219 290 341 405
#
# _framework density 20.678794
#
# number of rings (size 3 to 8) (size 9 to 14) (size 15 to 20)
#    0.000    1.250    6.250    2.250    5.250    0.500 
#    0.000    2.500    0.000    0.000    0.000    0.000 
#    0.000    0.000    0.000    0.000    0.000    0.000 
#
# Total GULP energy -178267.277546 kJ/mol
# GULP energy per Si atom -5570.852423 kJ/mol
# Density = 2.063173 g / cm^3
# Si number density = 20.678794 Si / 1000 Ang^3
#
#
#
# Elastic Constant Matrix: (Units=GPa)
#
#
# Indices 1 2 3 4 5 6 
#
# 1 83.4902 8.3310 18.4033 0.0000 20.0393 0.0000
# 2 8.3310 41.1012 -4.6743 0.0000 6.5765 0.0000
# 3 18.4033 -4.6743 139.8381 0.0000 16.7046 0.0000
# 4 0.0000 0.0000 0.0000 17.9321 0.0000 5.2567
# 5 20.0393 6.5765 16.7046 0.0000 29.1009 0.0000
# 6 0.0000 0.0000 0.0000 5.2567 0.0000 21.3085
#
#
#
# Elastic Compliance Matrix: (Units=1/GPa)
#
#
# Indices 1 2 3 4 5 6 
#
# 1 0.014522 -0.001580 -0.000872 0.000000 -0.009142 0.000000
# 2 -0.001580 0.025769 0.001755 0.000000 -0.005743 0.000000
# 3 -0.000872 0.001755 0.007838 0.000000 -0.004295 0.000000
# 4 0.000000 0.000000 0.000000 0.060113 0.000000 -0.014830
# 5 -0.009142 -0.005743 -0.004295 0.000000 0.044422 0.000000
# 6 0.000000 0.000000 0.000000 -0.014830 0.000000 0.050588
#
#
# Mechanical properties :
#
#
# Convention : Reuss Voigt Hill
#
# Bulk Modulus (GPa) = 21.39689 34.28328 27.84008
# Shear Modulus (GPa) = 22.70427 29.82626 26.26526
#
# Velocity S-wave (km/s) = 3.31713 3.80196 3.56779
# Velocity P-wave (km/s) = 5.00408 5.99067 5.51946
#
# Compressibility (1/GPa) = 0.04673577
#
# Stress axis : x y z
#
# Youngs Moduli (GPa) = 68.86297 38.80636 127.58935
#
# Poissons Ratio (x) = 0.06130 0.11123
# Poissons Ratio (y) = 0.10879 -0.22396
# Poissons Ratio (z) = 0.06003 -0.06812
#
# Static dielectric constant tensor:
#      x y z
#    x 1.817550 0.000000 0.060250 
#    y 0.000000 1.779730 0.000000 
#    z 0.060250 0.000000 1.816550 
# 
# From -- ./inp_files/198331.got.cif
#   From: 2010.05.17/outbox.cif.g08.bks.cpg/sg15_100_cif.got.tgz:198331.got - 2010.06.03 18:47:42.
