data_PCOD9276944
_publ_section_title
;
Structure prediction by ZEFSAII (Michael W. Deem and Ramdas Pophale) SiO2 
 PCOD9276944
Probable space group: C 2/C
;
_chemical_formula_sum "Si O2"
_cell_formula_units_Z 40
_cell_length_a 8.472107
_cell_length_b 14.371042
_cell_length_c 13.866421
_cell_angle_alpha 90.000000
_cell_angle_beta 90.147437
_cell_angle_gamma 90.000000
_cell_volume 1688.272843
_symmetry_space_group_name_H-M "C 2/C"
_symmetry_group_IT_number 15
_symmetry_cell_setting 'monoclinic'
loop_
_space_group_symop_operation_xyz
x,y,z
-x,y,1/2-z
-x,-y,-z
x,-y,1/2+z
1/2+x,1/2+y,z
1/2-x,1/2+y,1/2-z
1/2-x,1/2-y,-z
1/2+x,1/2-y,1/2+z
loop_
_atom_site_type_symbol
_atom_site_label
_atom_site_fract_x
_atom_site_fract_y
_atom_site_fract_z
Si Si1 0.203877 0.915401 0.857316
Si Si2 0.191514 0.620916 0.599267
Si Si3 0.884440 0.938607 0.929749
Si Si4 0.183792 0.243360 0.736104
Si Si5 0.818906 0.610322 0.574367
O O1 0.286628 0.852059 0.778698
O O2 0.015147 0.899426 0.858647
O O3 0.245792 0.024454 0.852606
O O4 0.269281 0.882501 0.962427
O O5 0.290263 0.629661 0.500284
O O6 0.224977 0.703089 0.672466
O O7 0.993122 0.609609 0.919890
O O8 0.758695 0.012937 0.890821
O O9 0.000000 0.000000 0.000000
O O10 0.248131 0.190038 0.641785
O O11 0.000000 0.222998 0.750000
#
# Coordination Sequence:
#
# PCOD9276944 Si02
#       5
#     8   8   8   8   8
#     4  10  21  41  67  93 122 170 215 255 322 397
#     4  10  21  41  64  94 127 162 213 273 324 375
#     4   8  16  37  68  89 113 161 208 252 314 385
#     4  12  24  39  60  93 133 171 211 267 321 376
#     4  10  20  40  66  93 125 164 212 269 324 387
#
# _framework density 23.692852999999999
#
# number of rings (size 3 to 8) (size 9 to 14) (size 15 to 20)
#    0.000    2.400    0.000    7.200    0.000    1.600 
#    0.000   16.000    0.000    0.000    0.000    0.000 
#    0.000    0.000    0.000    0.000    0.000    0.000 
#
# Total GULP energy -111954.531370 kJ/mol
# GULP energy per Si atom -5597.726568 kJ/mol
# Density = 2.363893 g / cm^3
# Si number density = 23.692853 Si / 1000 Ang^3
#
#
#
# Elastic Constant Matrix: (Units=GPa)
#
#
# Indices 1 2 3 4 5 6 
#
# 1 177.3932 19.6946 53.0255 0.0000 -21.6601 0.0000
# 2 19.6946 76.7249 49.1375 0.0000 3.7211 0.0000
# 3 53.0255 49.1375 79.4320 0.0000 -3.5761 0.0000
# 4 0.0000 0.0000 0.0000 45.2288 0.0000 -9.2650
# 5 -21.6601 3.7211 -3.5761 0.0000 29.8894 0.0000
# 6 0.0000 0.0000 0.0000 -9.2650 0.0000 25.1657
#
#
#
# Elastic Compliance Matrix: (Units=1/GPa)
#
#
# Indices 1 2 3 4 5 6 
#
# 1 0.007837 0.001608 -0.006012 0.000000 0.004760 0.000000
# 2 0.001608 0.022481 -0.015136 0.000000 -0.003445 0.000000
# 3 -0.006012 -0.015136 0.025994 0.000000 0.000638 0.000000
# 4 0.000000 0.000000 0.000000 0.023913 0.000000 0.008804
# 5 0.004760 -0.003445 0.000638 0.000000 0.037411 0.000000
# 6 0.000000 0.000000 0.000000 0.008804 0.000000 0.042978
#
#
# Mechanical properties :
#
#
# Convention : Reuss Voigt Hill
#
# Bulk Modulus (GPa) = 58.02731 64.14060 61.08395
# Shear Modulus (GPa) = 24.33817 34.16961 29.25389
#
# Velocity S-wave (km/s) = 3.20853 3.80174 3.51766
# Velocity P-wave (km/s) = 6.18635 6.81186 6.50662
#
# Compressibility (1/GPa) = 0.01723327
#
# Stress axis : x y z
#
# Youngs Moduli (GPa) = 127.60112 44.48139 38.46988
#
# Poissons Ratio (x) = -0.07151 0.23128
# Poissons Ratio (y) = -0.20514 0.58226
# Poissons Ratio (z) = 0.76712 0.67325
#
# Static dielectric constant tensor:
#      x y z
#    x 1.859250 0.000000 0.016230 
#    y 0.000000 1.914890 0.000000 
#    z 0.016230 0.000000 1.957440 
# 
# From -- ./inp_files/142801.got.cif
#   From: 2010.05.17/outbox.cif.g08.bks.cpg/sg15_72_cif.got.tgz:142801.got - 2010.06.03 18:47:42.
