data_PCOD9276529
_publ_section_title
;
Structure prediction by ZEFSAII (Michael W. Deem and Ramdas Pophale) SiO2 
 PCOD9276529
Probable space group: C 2/C
;
_chemical_formula_sum "Si O2"
_cell_formula_units_Z 44
_cell_length_a 17.935925
_cell_length_b 8.206086
_cell_length_c 14.549503
_cell_angle_alpha 90.000000
_cell_angle_beta 70.199147
_cell_angle_gamma 90.000000
_cell_volume 2014.838616
_symmetry_space_group_name_H-M "C 2/C"
_symmetry_group_IT_number 15
_symmetry_cell_setting 'monoclinic'
loop_
_space_group_symop_operation_xyz
x,y,z
-x,y,1/2-z
-x,-y,-z
x,-y,1/2+z
1/2+x,1/2+y,z
1/2-x,1/2+y,1/2-z
1/2-x,1/2-y,-z
1/2+x,1/2-y,1/2+z
loop_
_atom_site_type_symbol
_atom_site_label
_atom_site_fract_x
_atom_site_fract_y
_atom_site_fract_z
Si Si1 0.254083 0.382945 0.693259
Si Si2 0.000000 0.510662 0.250000
Si Si3 0.878156 0.217247 0.852010
Si Si4 0.401399 0.425734 0.142870
Si Si5 0.371862 0.902829 0.166847
Si Si6 0.544926 0.291415 0.001608
O O1 0.208375 0.293754 0.629023
O O2 0.312059 0.534623 0.648062
O O3 0.313463 0.249454 0.709240
O O4 0.184446 0.442570 0.790118
O O5 0.939142 0.631447 0.325989
O O6 0.944924 0.409909 0.205699
O O7 0.896774 0.108771 0.753826
O O8 0.899998 0.136564 0.939306
O O9 0.454954 0.284406 0.074746
O O10 0.449568 0.584495 0.087024
O O11 0.411235 0.870559 0.051752
#
# Coordination Sequence:
#
# PCOD9276529 Si02
#       6
#     8   4   8   8   8   8
#     4  10  21  41  65  91 132 170 208 265 329 369
#     4  10  22  40  62  88 130 172 210 258 338 366
#     4  11  20  41  68  89 128 179 206 265 334 380
#     4  10  20  40  62  96 129 169 211 268 312 383
#     4  10  22  41  63  97 126 172 215 268 316 389
#     4  10  22  39  66 100 125 169 225 259 314 394
#
# _framework density 21.837976000000001
#
# number of rings (size 3 to 8) (size 9 to 14) (size 15 to 20)
#    0.000    1.818    3.636    0.000    0.000    3.636 
#   19.636    0.000    0.000    5.455    0.000    0.000 
#    0.000    0.000    0.000    0.000    0.000    0.000 
#
# Total GULP energy -122530.348950 kJ/mol
# GULP energy per Si atom -5569.561316 kJ/mol
# Density = 2.178827 g / cm^3
# Si number density = 21.837976 Si / 1000 Ang^3
#
#
#
# Elastic Constant Matrix: (Units=GPa)
#
#
# Indices 1 2 3 4 5 6 
#
# 1 174.3643 47.8399 57.3834 0.0000 0.1956 0.0000
# 2 47.8399 52.7202 32.9921 0.0000 7.9070 0.0000
# 3 57.3834 32.9921 101.0515 0.0000 3.6534 0.0000
# 4 0.0000 0.0000 0.0000 36.0347 0.0000 -12.6034
# 5 0.1956 7.9070 3.6534 0.0000 29.6144 0.0000
# 6 0.0000 0.0000 0.0000 -12.6034 0.0000 47.3284
#
#
#
# Elastic Compliance Matrix: (Units=1/GPa)
#
#
# Indices 1 2 3 4 5 6 
#
# 1 0.008328 -0.006085 -0.002812 0.000000 0.001916 0.000000
# 2 -0.006085 0.029186 -0.005819 0.000000 -0.007035 0.000000
# 3 -0.002812 -0.005819 0.013395 0.000000 -0.000080 0.000000
# 4 0.000000 0.000000 0.000000 0.030601 0.000000 0.008149
# 5 0.001916 -0.007035 -0.000080 0.000000 0.035643 0.000000
# 6 0.000000 0.000000 0.000000 0.008149 0.000000 0.023299
#
#
# Mechanical properties :
#
#
# Convention : Reuss Voigt Hill
#
# Bulk Modulus (GPa) = 46.55944 67.17407 56.86676
# Shear Modulus (GPa) = 28.24166 35.25688 31.74927
#
# Velocity S-wave (km/s) = 3.60006 4.02241 3.81708
# Velocity P-wave (km/s) = 6.21669 7.23879 6.74712
#
# Compressibility (1/GPa) = 0.02147792
#
# Stress axis : x y z
#
# Youngs Moduli (GPa) = 120.08028 34.26265 74.65214
#
# Poissons Ratio (x) = 0.20848 0.20990
# Poissons Ratio (y) = 0.73066 0.43443
# Poissons Ratio (z) = 0.33763 0.19939
#
# Static dielectric constant tensor:
#      x y z
#    x 1.816260 0.000000 -0.023440 
#    y 0.000000 1.935220 0.000000 
#    z -0.023440 0.000000 1.884420 
# 
# From -- ./inp_files/159186.got.cif
#   From: 2010.05.17/outbox.cif.g08.bks.cpg/sg15_80_cif.got.tgz:159186.got - 2010.06.03 18:47:42.
