data_PCOD9276498
_publ_section_title
;
Structure prediction by ZEFSAII (Michael W. Deem and Ramdas Pophale) SiO2 
 PCOD9276498
Probable space group: C 2/C
;
_chemical_formula_sum "Si O2"
_cell_formula_units_Z 52
_cell_length_a 13.546931
_cell_length_b 11.421027
_cell_length_c 15.804562
_cell_angle_alpha 90.000000
_cell_angle_beta 111.224136
_cell_angle_gamma 90.000000
_cell_volume 2279.419755
_symmetry_space_group_name_H-M "C 2/C"
_symmetry_group_IT_number 15
_symmetry_cell_setting 'monoclinic'
loop_
_space_group_symop_operation_xyz
x,y,z
-x,y,1/2-z
-x,-y,-z
x,-y,1/2+z
1/2+x,1/2+y,z
1/2-x,1/2+y,1/2-z
1/2-x,1/2-y,-z
1/2+x,1/2-y,1/2+z
loop_
_atom_site_type_symbol
_atom_site_label
_atom_site_fract_x
_atom_site_fract_y
_atom_site_fract_z
Si Si1 0.441279 0.995843 0.373980
Si Si2 0.860729 0.517434 0.166344
Si Si3 0.805277 0.864769 0.477874
Si Si4 0.744971 0.257882 0.600389
Si Si5 0.787384 0.991383 0.643597
Si Si6 0.000000 0.863574 0.750000
Si Si7 0.987474 0.758827 0.930045
O O1 0.404600 0.965601 0.266845
O O2 0.556406 0.044209 0.384181
O O3 0.333429 0.054664 0.375851
O O4 0.474127 0.880673 0.436846
O O5 0.817395 0.646615 0.167563
O O6 0.771004 0.426470 0.111421
O O7 0.750000 0.750000 0.500000
O O8 0.921049 0.820437 0.487999
O O9 0.813896 0.959051 0.555484
O O10 0.750000 0.250000 0.500000
O O11 0.771890 0.130514 0.646279
O O12 0.627628 0.303017 0.583768
O O13 0.889942 0.938475 0.723816
O O14 0.011877 0.787034 0.839034
#
# Coordination Sequence:
#
# PCOD9276498 Si02
#       7
#     8   8   8   8   8   4   8
#     4  10  22  40  62  91 121 164 203 256 309 362
#     4  11  22  39  64  90 125 156 210 254 304 370
#     4  11  22  39  64  95 116 157 212 255 302 362
#     4  11  23  42  59  89 129 165 197 249 312 373
#     4  10  23  41  63  85 124 163 202 253 309 367
#     4  10  20  40  62  92 116 156 214 258 302 358
#     4  10  22  39  66  88 125 160 203 259 309 358
#
# _framework density 22.812823000000002
#
# number of rings (size 3 to 8) (size 9 to 14) (size 15 to 20)
#    0.000    1.538    3.077    1.846    2.154    3.692 
#    2.769    0.000    0.000    0.000    0.000    0.000 
#    0.000    0.000    0.000    0.000    0.000    0.000 
#
# Total GULP energy -144998.312727 kJ/mol
# GULP energy per Si atom -5576.858182 kJ/mol
# Density = 2.276090 g / cm^3
# Si number density = 22.812823 Si / 1000 Ang^3
#
#
#
# Elastic Constant Matrix: (Units=GPa)
#
#
# Indices 1 2 3 4 5 6 
#
# 1 126.2646 11.1518 -6.5500 0.0000 26.8811 0.0000
# 2 11.1518 73.4934 0.1995 0.0000 19.0935 0.0000
# 3 -6.5500 0.1995 39.9954 0.0000 7.9273 0.0000
# 4 0.0000 0.0000 0.0000 18.8089 0.0000 7.4082
# 5 26.8811 19.0935 7.9273 0.0000 39.5601 0.0000
# 6 0.0000 0.0000 0.0000 7.4082 0.0000 27.1222
#
#
#
# Elastic Compliance Matrix: (Units=1/GPa)
#
#
# Indices 1 2 3 4 5 6 
#
# 1 0.009601 0.000443 0.003026 0.000000 -0.007344 0.000000
# 2 0.000443 0.015661 0.001616 0.000000 -0.008184 0.000000
# 3 0.003026 0.001616 0.027130 0.000000 -0.008273 0.000000
# 4 0.000000 0.000000 0.000000 0.059575 0.000000 -0.016272
# 5 -0.007344 -0.008184 -0.008273 0.000000 0.035876 0.000000
# 6 0.000000 0.000000 0.000000 -0.016272 0.000000 0.041315
#
#
# Mechanical properties :
#
#
# Convention : Reuss Voigt Hill
#
# Bulk Modulus (GPa) = 15.98390 27.70621 21.84506
# Shear Modulus (GPa) = 25.01970 32.76172 28.89071
#
# Velocity S-wave (km/s) = 3.31530 3.79372 3.56255
# Velocity P-wave (km/s) = 4.65582 5.60010 5.14965
#
# Compressibility (1/GPa) = 0.06256293
#
# Stress axis : x y z
#
# Youngs Moduli (GPa) = 104.15302 63.85210 36.85948
#
# Poissons Ratio (x) = -0.02828 -0.11153
# Poissons Ratio (y) = -0.04613 -0.05958
# Poissons Ratio (z) = -0.31515 -0.10322
#
# Static dielectric constant tensor:
#      x y z
#    x 1.972470 0.000000 0.074870 
#    y 0.000000 1.845820 0.000000 
#    z 0.074870 0.000000 1.937000 
# 
# From -- ./inp_files/237684.got.cif
#   From: 2010.05.17/outbox.cif.g08.bks.cpg/sg15_119_cif.got.tgz:237684.got - 2010.06.03 18:47:42.
