data_PCOD9276922
_publ_section_title
;
Structure prediction by ZEFSAII (Michael W. Deem and Ramdas Pophale) SiO2 
 PCOD9276922
Probable space group: C 2/C
;
_chemical_formula_sum "Si O2"
_cell_formula_units_Z 60
_cell_length_a 11.283914
_cell_length_b 8.348552
_cell_length_c 28.073855
_cell_angle_alpha 90.000000
_cell_angle_beta 95.950770
_cell_angle_gamma 90.000000
_cell_volume 2630.427788
_symmetry_space_group_name_H-M "C 2/C"
_symmetry_group_IT_number 15
_symmetry_cell_setting 'monoclinic'
loop_
_space_group_symop_operation_xyz
x,y,z
-x,y,1/2-z
-x,-y,-z
x,-y,1/2+z
1/2+x,1/2+y,z
1/2-x,1/2+y,1/2-z
1/2-x,1/2-y,-z
1/2+x,1/2-y,1/2+z
loop_
_atom_site_type_symbol
_atom_site_label
_atom_site_fract_x
_atom_site_fract_y
_atom_site_fract_z
Si Si1 0.855207 0.131321 0.653372
Si Si2 0.509606 0.571521 0.932400
Si Si3 0.880321 0.509202 0.137448
Si Si4 0.089735 0.426036 0.966029
Si Si5 0.857668 0.526264 0.305846
Si Si6 0.814745 0.084040 0.991989
Si Si7 0.724001 0.388214 0.213427
Si Si8 0.500000 0.562057 0.750000
O O1 0.947678 0.056270 0.619740
O O2 0.828917 0.309819 0.635464
O O3 0.922520 0.147274 0.706375
O O4 0.737375 0.028500 0.657790
O O5 0.550724 0.747766 0.951401
O O6 0.372466 0.568512 0.941983
O O7 0.579364 0.440957 0.966268
O O8 0.904138 0.472802 0.083078
O O9 0.787519 0.412869 0.165584
O O10 0.008801 0.508767 0.169319
O O11 0.219711 0.443516 0.993951
O O12 0.000000 0.500000 0.000000
O O13 0.823319 0.420488 0.258150
O O14 0.829669 0.709614 0.290490
O O15 0.750000 0.250000 0.000000
O O16 0.612157 0.505568 0.223374
#
# Coordination Sequence:
#
# PCOD9276922 Si02
#       8
#     8   8   8   8   8   8   8   4
#     4  10  23  43  68  94 134 179 214 276 339 389
#     4  10  24  43  67 101 132 175 224 283 339 401
#     4  11  25  44  68  97 136 176 225 274 336 405
#     4  11  24  43  68  99 135 180 219 281 345 396
#     4  11  24  44  68  98 137 175 221 276 329 401
#     4  11  23  43  71  94 133 175 226 279 339 404
#     4  11  23  43  71  95 133 177 220 272 334 390
#     4  10  20  40  66  90 132 170 206 270 328 388
#
# _framework density 22.809978000000001
#
# number of rings (size 3 to 8) (size 9 to 14) (size 15 to 20)
#    0.000    1.333    2.667    2.400    3.733    1.067 
#   14.400    0.000    0.000    0.000    0.000    0.000 
#    0.000    0.000    0.000    0.000    0.000    0.000 
#
# Total GULP energy -167474.824307 kJ/mol
# GULP energy per Si atom -5582.494144 kJ/mol
# Density = 2.275806 g / cm^3
# Si number density = 22.809978 Si / 1000 Ang^3
#
#
#
# Elastic Constant Matrix: (Units=GPa)
#
#
# Indices 1 2 3 4 5 6 
#
# 1 136.2655 33.4503 43.4505 0.0000 -35.2071 0.0000
# 2 33.4503 48.7054 16.1080 0.0000 -7.2479 0.0000
# 3 43.4505 16.1080 130.1840 0.0000 -37.5304 0.0000
# 4 0.0000 0.0000 0.0000 25.0056 0.0000 -3.7369
# 5 -35.2071 -7.2479 -37.5304 0.0000 43.2384 0.0000
# 6 0.0000 0.0000 0.0000 -3.7369 0.0000 28.2003
#
#
#
# Elastic Compliance Matrix: (Units=1/GPa)
#
#
# Indices 1 2 3 4 5 6 
#
# 1 0.010980 -0.006198 -0.000827 0.000000 0.007184 0.000000
# 2 -0.006198 0.025003 -0.001696 0.000000 -0.002328 0.000000
# 3 -0.000827 -0.001696 0.010525 0.000000 0.008178 0.000000
# 4 0.000000 0.000000 0.000000 0.040799 0.000000 0.005406
# 5 0.007184 -0.002328 0.008178 0.000000 0.035685 0.000000
# 6 0.000000 0.000000 0.000000 0.005406 0.000000 0.036177
#
#
# Mechanical properties :
#
#
# Convention : Reuss Voigt Hill
#
# Bulk Modulus (GPa) = 34.40510 55.68581 45.04546
# Shear Modulus (GPa) = 26.83845 34.09860 30.46853
#
# Velocity S-wave (km/s) = 3.43390 3.87059 3.65876
# Velocity P-wave (km/s) = 5.55322 6.66642 6.13512
#
# Compressibility (1/GPa) = 0.02906546
#
# Stress axis : x y z
#
# Youngs Moduli (GPa) = 91.07547 39.99504 95.01358
#
# Poissons Ratio (x) = 0.24791 0.07855
# Poissons Ratio (y) = 0.56452 0.16115
# Poissons Ratio (z) = 0.07529 0.06783
#
# Static dielectric constant tensor:
#      x y z
#    x 1.880320 0.000000 -0.046220 
#    y 0.000000 1.838010 0.000000 
#    z -0.046220 0.000000 1.910600 
# 
# From -- ./inp_files/291569.got.cif
#   From: 2010.05.17/outbox.cif.g08.bks.cpg/sg15_146_cif.got.tgz:291569.got - 2010.06.03 18:47:42.
