data_PCOD9276781
_publ_section_title
;
Structure prediction by ZEFSAII (Michael W. Deem and Ramdas Pophale) SiO2 
 PCOD9276781
Probable space group: C 2/C
;
_chemical_formula_sum "Si O2"
_cell_formula_units_Z 56
_cell_length_a 8.921922
_cell_length_b 15.642598
_cell_length_c 22.284064
_cell_angle_alpha 90.000000
_cell_angle_beta 126.054792
_cell_angle_gamma 90.000000
_cell_volume 2514.301184
_symmetry_space_group_name_H-M "C 2/C"
_symmetry_group_IT_number 15
_symmetry_cell_setting 'monoclinic'
loop_
_space_group_symop_operation_xyz
x,y,z
-x,y,1/2-z
-x,-y,-z
x,-y,1/2+z
1/2+x,1/2+y,z
1/2-x,1/2+y,1/2-z
1/2-x,1/2-y,-z
1/2+x,1/2-y,1/2+z
loop_
_atom_site_type_symbol
_atom_site_label
_atom_site_fract_x
_atom_site_fract_y
_atom_site_fract_z
Si Si1 0.361155 0.288509 0.621003
Si Si2 0.693313 0.051990 0.537749
Si Si3 0.941956 0.946264 0.304971
Si Si4 0.390310 0.248995 0.327135
Si Si5 0.248235 0.146811 0.069541
Si Si6 0.491132 0.793422 0.038422
Si Si7 0.226590 0.108753 0.202454
O O1 0.269084 0.259038 0.660485
O O2 0.453648 0.216969 0.600064
O O3 0.520188 0.356824 0.668181
O O4 0.194125 0.321471 0.539386
O O5 0.885926 0.023094 0.612535
O O6 0.733607 0.077256 0.478268
O O7 0.648657 0.139215 0.562704
O O8 0.500000 0.000000 0.500000
O O9 0.000000 0.952957 0.250000
O O10 0.902531 0.846885 0.309857
O O11 0.771145 0.011454 0.274756
O O12 0.582666 0.213386 0.399806
O O13 0.346688 0.180681 0.264391
O O14 0.059362 0.202515 0.027628
O O15 0.260990 0.109868 0.139571
#
# Coordination Sequence:
#
# PCOD9276781 Si02
#       7
#     8   8   8   8   8   8   8
#     4  10  21  38  69  96 136 179 229 284 343 408
#     4  12  25  41  71 104 140 177 238 291 350 416
#     4  12  27  44  69 104 145 185 230 291 354 423
#     4  12  23  45  72 102 139 191 233 288 352 421
#     4  11  23  44  72  97 134 184 238 284 346 417
#     4  10  20  40  65 100 131 178 230 280 341 413
#     4  11  26  45  68 101 141 186 232 290 356 412
#
# _framework density 22.272590999999998
#
# number of rings (size 3 to 8) (size 9 to 14) (size 15 to 20)
#    0.000    0.857    2.857    4.714    4.000    1.714 
#    0.000    2.857    0.000    0.000    0.000    0.000 
#    0.000    0.000    0.000    0.000    0.000    0.000 
#
# Total GULP energy -156477.489878 kJ/mol
# GULP energy per Si atom -5588.481781 kJ/mol
# Density = 2.222190 g / cm^3
# Si number density = 22.272591 Si / 1000 Ang^3
#
#
#
# Elastic Constant Matrix: (Units=GPa)
#
#
# Indices 1 2 3 4 5 6 
#
# 1 125.9887 32.8954 41.6852 0.0000 -31.6363 0.0000
# 2 32.8954 93.3742 45.8334 0.0000 -4.5617 0.0000
# 3 41.6852 45.8334 86.0635 0.0000 -16.6873 0.0000
# 4 0.0000 0.0000 0.0000 17.8282 0.0000 7.9999
# 5 -31.6363 -4.5617 -16.6873 0.0000 55.2911 0.0000
# 6 0.0000 0.0000 0.0000 7.9999 0.0000 22.7855
#
#
#
# Elastic Compliance Matrix: (Units=1/GPa)
#
#
# Indices 1 2 3 4 5 6 
#
# 1 0.010775 -0.001987 -0.003183 0.000000 0.005041 0.000000
# 2 -0.001987 0.014942 -0.007410 0.000000 -0.002141 0.000000
# 3 -0.003183 -0.007410 0.017670 0.000000 0.002900 0.000000
# 4 0.000000 0.000000 0.000000 0.066580 0.000000 -0.023376
# 5 0.005041 -0.002141 0.002900 0.000000 0.021669 0.000000
# 6 0.000000 0.000000 0.000000 -0.023376 0.000000 0.052095
#
#
# Mechanical properties :
#
#
# Convention : Reuss Voigt Hill
#
# Bulk Modulus (GPa) = 54.86713 60.69496 57.78104
# Shear Modulus (GPa) = 23.25929 31.51512 27.38720
#
# Velocity S-wave (km/s) = 3.23507 3.76569 3.51042
# Velocity P-wave (km/s) = 6.21628 6.79834 6.51381
#
# Compressibility (1/GPa) = 0.01822585
#
# Stress axis : x y z
#
# Youngs Moduli (GPa) = 92.80730 66.92340 56.59370
#
# Poissons Ratio (x) = 0.13299 0.18015
# Poissons Ratio (y) = 0.18443 0.41937
# Poissons Ratio (z) = 0.29543 0.49592
#
# Static dielectric constant tensor:
#      x y z
#    x 1.836010 0.000000 0.053990 
#    y 0.000000 1.844580 0.000000 
#    z 0.053990 0.000000 1.854050 
# 
# From -- ./inp_files/232782.got.cif
#   From: 2010.05.17/outbox.cif.g08.bks.cpg/sg15_117_cif.got.tgz:232782.got - 2010.06.03 18:47:42.
