data_PCOD9276788
_publ_section_title
;
Structure prediction by ZEFSAII (Michael W. Deem and Ramdas Pophale) SiO2 
 PCOD9276788
Probable space group: C 2/C
;
_chemical_formula_sum "Si O2"
_cell_formula_units_Z 48
_cell_length_a 13.362219
_cell_length_b 12.656964
_cell_length_c 14.088658
_cell_angle_alpha 90.000000
_cell_angle_beta 53.554519
_cell_angle_gamma 90.000000
_cell_volume 1916.734510
_symmetry_space_group_name_H-M "C 2/C"
_symmetry_group_IT_number 15
_symmetry_cell_setting 'monoclinic'
loop_
_space_group_symop_operation_xyz
x,y,z
-x,y,1/2-z
-x,-y,-z
x,-y,1/2+z
1/2+x,1/2+y,z
1/2-x,1/2+y,1/2-z
1/2-x,1/2-y,-z
1/2+x,1/2-y,1/2+z
loop_
_atom_site_type_symbol
_atom_site_label
_atom_site_fract_x
_atom_site_fract_y
_atom_site_fract_z
Si Si1 0.544332 0.320103 0.333381
Si Si2 0.460791 0.747968 0.383072
Si Si3 0.286727 0.638505 0.028730
Si Si4 0.681830 0.116341 0.784677
Si Si5 0.747542 0.909220 0.024697
Si Si6 0.589754 0.092620 0.290282
O O1 0.500000 0.317443 0.250000
O O2 0.434645 0.374371 0.452769
O O3 0.680044 0.369071 0.255830
O O4 0.545257 0.198418 0.365676
O O5 0.500000 0.749663 0.250000
O O6 0.588883 0.787385 0.357840
O O7 0.353580 0.834428 0.468484
O O8 0.386300 0.639059 0.439804
O O9 0.242608 0.531904 0.999026
O O10 0.217285 0.628878 0.167550
O O11 0.250000 0.750000 0.000000
O O12 0.706597 0.103167 0.657429
O O13 0.612738 0.006462 0.843780
O O14 0.500000 0.067624 0.250000
#
# Coordination Sequence:
#
# PCOD9276788 Si02
#       6
#     8   8   8   8   8   8
#     4  11  24  38  58  89 123 162 208 257 309 352
#     4   9  18  37  61  91 125 162 201 260 307 370
#     4  11  20  37  61  85 120 160 201 251 300 370
#     4  10  21  37  62  88 120 164 214 247 305 375
#     4   9  20  36  63  93 123 162 204 248 319 365
#     4  10  20  40  65  86 117 165 204 247 314 379
#
# _framework density 25.042593
#
# number of rings (size 3 to 8) (size 9 to 14) (size 15 to 20)
#    0.000    2.000    3.333    2.500    0.000    6.000 
#    0.000    3.333    0.000    7.000    0.000    0.000 
#    0.000    0.000    0.000    0.000    0.000    0.000 
#
# Total GULP energy -134131.984004 kJ/mol
# GULP energy per Si atom -5588.832667 kJ/mol
# Density = 2.498559 g / cm^3
# Si number density = 25.042593 Si / 1000 Ang^3
#
#
#
# Elastic Constant Matrix: (Units=GPa)
#
#
# Indices 1 2 3 4 5 6 
#
# 1 69.6688 26.8796 20.5825 0.0000 -24.7889 0.0000
# 2 26.8796 144.0102 25.3926 0.0000 -18.3092 0.0000
# 3 20.5825 25.3926 125.5444 0.0000 -28.6409 0.0000
# 4 0.0000 0.0000 0.0000 34.2304 0.0000 -12.1276
# 5 -24.7889 -18.3092 -28.6409 0.0000 43.7889 0.0000
# 6 0.0000 0.0000 0.0000 -12.1276 0.0000 22.6716
#
#
#
# Elastic Compliance Matrix: (Units=1/GPa)
#
#
# Indices 1 2 3 4 5 6 
#
# 1 0.018669 -0.002213 -0.000486 0.000000 0.009326 0.000000
# 2 -0.002213 0.007688 -0.000875 0.000000 0.001389 0.000000
# 3 -0.000486 -0.000875 0.009492 0.000000 0.005568 0.000000
# 4 0.000000 0.000000 0.000000 0.036045 0.000000 0.019281
# 5 0.009326 0.001389 0.005568 0.000000 0.032339 0.000000
# 6 0.000000 0.000000 0.000000 0.019281 0.000000 0.054422
#
#
# Mechanical properties :
#
#
# Convention : Reuss Voigt Hill
#
# Bulk Modulus (GPa) = 34.84197 53.88143 44.36170
# Shear Modulus (GPa) = 28.51113 37.89608 33.20361
#
# Velocity S-wave (km/s) = 3.37784 3.89429 3.64522
# Velocity P-wave (km/s) = 5.39966 6.46400 5.95565
#
# Compressibility (1/GPa) = 0.02870102
#
# Stress axis : x y z
#
# Youngs Moduli (GPa) = 53.56416 130.07269 105.35073
#
# Poissons Ratio (x) = 0.28790 0.05116
# Poissons Ratio (y) = 0.11856 0.09220
# Poissons Ratio (z) = 0.02601 0.11384
#
# Static dielectric constant tensor:
#      x y z
#    x 2.030000 0.000000 -0.002320 
#    y 0.000000 2.049320 0.000000 
#    z -0.002320 0.000000 1.978270 
# 
# From -- ./inp_files/243888.got.cif
#   From: 2010.05.17/outbox.cif.g08.bks.cpg/sg15_122_cif.got.tgz:243888.got - 2010.06.03 18:47:42.
