data_PCOD9276125
_publ_section_title
;
Structure prediction by ZEFSAII (Michael W. Deem and Ramdas Pophale) SiO2 
 PCOD9276125
Probable space group: C 2/C
;
_chemical_formula_sum "Si O2"
_cell_formula_units_Z 52
_cell_length_a 7.226600
_cell_length_b 22.369417
_cell_length_c 14.070220
_cell_angle_alpha 90.000000
_cell_angle_beta 68.630454
_cell_angle_gamma 90.000000
_cell_volume 2118.144971
_symmetry_space_group_name_H-M "C 2/C"
_symmetry_group_IT_number 15
_symmetry_cell_setting 'monoclinic'
loop_
_space_group_symop_operation_xyz
x,y,z
-x,y,1/2-z
-x,-y,-z
x,-y,1/2+z
1/2+x,1/2+y,z
1/2-x,1/2+y,1/2-z
1/2-x,1/2-y,-z
1/2+x,1/2-y,1/2+z
loop_
_atom_site_type_symbol
_atom_site_label
_atom_site_fract_x
_atom_site_fract_y
_atom_site_fract_z
Si Si1 0.403562 0.224966 0.588241
Si Si2 0.833776 0.399774 0.003747
Si Si3 0.968161 0.048995 0.590283
Si Si4 0.332879 0.676063 0.533271
Si Si5 0.292990 0.132046 0.139799
Si Si6 0.233199 0.444879 0.690016
Si Si7 0.000000 0.280977 0.750000
O O1 0.164374 0.334249 0.453865
O O2 0.493131 0.274348 0.498030
O O3 0.613013 0.202656 0.600090
O O4 0.208150 0.247388 0.682594
O O5 0.744205 0.410123 0.914724
O O6 0.064543 0.413715 0.945936
O O7 0.685769 0.439471 0.092571
O O8 0.880560 0.114062 0.577927
O O9 0.821030 0.010448 0.680005
O O10 0.000000 0.000000 0.500000
O O11 0.326146 0.662893 0.421030
O O12 0.188675 0.096937 0.242191
O O13 0.431929 0.178068 0.173325
O O14 0.000000 0.449306 0.750000
#
# Coordination Sequence:
#
# PCOD9276125 Si02
#       7
#     8   8   8   8   8   8   4
#     4  10  24  41  67  99 135 172 216 274 336 408
#     4   9  18  40  65  89 128 176 216 254 334 405
#     4  10  21  39  66  94 127 174 224 272 319 392
#     4  10  23  43  67 104 130 173 223 276 336 395
#     4  10  20  39  68  97 125 166 228 274 318 388
#     4   9  18  39  65  95 127 172 227 277 318 382
#     4  12  22  40  66  98 132 170 220 274 326 410
#
# _framework density 24.549786000000001
#
# number of rings (size 3 to 8) (size 9 to 14) (size 15 to 20)
#    0.000    2.154    2.308    0.923    2.154    7.385 
#    2.769   19.231    0.000    0.000    0.000    0.000 
#    0.000    0.000    0.000    0.000    0.000    0.000 
#
# Total GULP energy -144911.834271 kJ/mol
# GULP energy per Si atom -5573.532087 kJ/mol
# Density = 2.449391 g / cm^3
# Si number density = 24.549786 Si / 1000 Ang^3
#
#
#
# Elastic Constant Matrix: (Units=GPa)
#
#
# Indices 1 2 3 4 5 6 
#
# 1 86.6373 40.7973 32.0184 0.0000 -37.6126 0.0000
# 2 40.7973 140.6297 35.5513 0.0000 -20.6253 0.0000
# 3 32.0184 35.5513 60.3887 0.0000 -23.9833 0.0000
# 4 0.0000 0.0000 0.0000 33.9622 0.0000 -16.6649
# 5 -37.6126 -20.6253 -23.9833 0.0000 41.8908 0.0000
# 6 0.0000 0.0000 0.0000 -16.6649 0.0000 36.8276
#
#
#
# Elastic Compliance Matrix: (Units=1/GPa)
#
#
# Indices 1 2 3 4 5 6 
#
# 1 0.020796 -0.002976 -0.003159 0.000000 0.015399 0.000000
# 2 -0.002976 0.008872 -0.003846 0.000000 -0.000506 0.000000
# 3 -0.003159 -0.003846 0.024100 0.000000 0.009068 0.000000
# 4 0.000000 0.000000 0.000000 0.037848 0.000000 0.017127
# 5 0.015399 -0.000506 0.009068 0.000000 0.042640 0.000000
# 6 0.000000 0.000000 0.000000 0.017127 0.000000 0.034904
#
#
# Mechanical properties :
#
#
# Convention : Reuss Voigt Hill
#
# Bulk Modulus (GPa) = 29.58019 56.04330 42.81174
# Shear Modulus (GPa) = 24.95117 34.48870 29.71994
#
# Velocity S-wave (km/s) = 3.19148 3.75220 3.48314
# Velocity P-wave (km/s) = 5.06517 6.45368 5.80112
#
# Compressibility (1/GPa) = 0.03380641
#
# Stress axis : x y z
#
# Youngs Moduli (GPa) = 48.08534 112.70908 41.49441
#
# Poissons Ratio (x) = 0.33544 0.13107
# Poissons Ratio (y) = 0.14311 0.15959
# Poissons Ratio (z) = 0.15189 0.43350
#
# Static dielectric constant tensor:
#      x y z
#    x 2.003130 0.000000 -0.072430 
#    y 0.000000 1.986660 0.000000 
#    z -0.072430 0.000000 2.118370 
# 
# From -- ./inp_files/137200.got.cif
#   From: 2010.05.17/outbox.cif.g08.bks.cpg/sg15_69_cif.got.tgz:137200.got - 2010.06.03 18:47:42.
