data_PCOD9276009
_publ_section_title
;
Structure prediction by ZEFSAII (Michael W. Deem and Ramdas Pophale) SiO2 
 PCOD9276009
Probable space group: C 2/C
;
_chemical_formula_sum "Si O2"
_cell_formula_units_Z 60
_cell_length_a 20.861446
_cell_length_b 21.188723
_cell_length_c 8.335562
_cell_angle_alpha 90.000000
_cell_angle_beta 126.855194
_cell_angle_gamma 90.000000
_cell_volume 2948.204679
_symmetry_space_group_name_H-M "C 2/C"
_symmetry_group_IT_number 15
_symmetry_cell_setting 'monoclinic'
loop_
_space_group_symop_operation_xyz
x,y,z
-x,y,1/2-z
-x,-y,-z
x,-y,1/2+z
1/2+x,1/2+y,z
1/2-x,1/2+y,1/2-z
1/2-x,1/2-y,-z
1/2+x,1/2-y,1/2+z
loop_
_atom_site_type_symbol
_atom_site_label
_atom_site_fract_x
_atom_site_fract_y
_atom_site_fract_z
Si Si1 0.851894 0.708210 0.320869
Si Si2 0.977500 0.282941 0.534651
Si Si3 0.807930 0.688803 0.610502
Si Si4 0.682884 0.587098 0.463444
Si Si5 0.145211 0.032304 0.746130
Si Si6 0.700293 0.669006 0.928360
Si Si7 0.500000 0.453396 0.250000
Si Si8 0.408370 0.655411 0.436728
O O1 0.827829 0.678643 0.453748
O O2 0.832560 0.783182 0.258041
O O3 0.945664 0.695854 0.448113
O O4 0.794258 0.679441 0.097597
O O5 0.890295 0.299847 0.332427
O O6 0.977409 0.206672 0.528360
O O7 0.000000 0.301667 0.750000
O O8 0.750000 0.750000 0.500000
O O9 0.761092 0.629143 0.614730
O O10 0.643870 0.553017 0.558629
O O11 0.697089 0.529925 0.359164
O O12 0.627023 0.637383 0.287801
O O13 0.181697 0.096188 0.873152
O O14 0.060647 0.018334 0.708259
O O15 0.655129 0.683562 0.029896
O O16 0.557045 0.408206 0.438857
#
# Coordination Sequence:
#
# PCOD9276009 Si02
#       8
#     8   8   8   8   8   8   4   8
#     4  11  22  38  67  97 136 177 219 282 337 400
#     4  12  23  40  65 104 135 175 219 283 345 398
#     4  12  25  43  66 100 138 177 230 281 337 411
#     4  12  26  43  67  94 134 182 229 272 329 411
#     4  11  25  42  65  97 130 182 224 271 334 402
#     4  10  20  39  66  98 133 181 221 269 342 399
#     4  10  22  42  66  94 138 174 220 268 324 404
#     4  11  20  40  61  94 140 177 217 262 327 409
#
# _framework density 20.351368000000001
#
# number of rings (size 3 to 8) (size 9 to 14) (size 15 to 20)
#    0.000    0.800    4.667    3.600    3.733    2.667 
#    2.400    0.000    0.000    0.800    0.000    0.000 
#    0.000    0.000    0.000    0.000    0.000    0.000 
#
# Total GULP energy -167317.912624 kJ/mol
# GULP energy per Si atom -5577.263754 kJ/mol
# Density = 2.030505 g / cm^3
# Si number density = 20.351368 Si / 1000 Ang^3
#
#
#
# Elastic Constant Matrix: (Units=GPa)
#
#
# Indices 1 2 3 4 5 6 
#
# 1 87.2004 26.2929 34.7915 0.0000 -3.5519 0.0000
# 2 26.2929 72.1613 22.3843 0.0000 4.5483 0.0000
# 3 34.7915 22.3843 125.3322 0.0000 15.5402 0.0000
# 4 0.0000 0.0000 0.0000 36.2612 0.0000 2.3916
# 5 -3.5519 4.5483 15.5402 0.0000 35.3865 0.0000
# 6 0.0000 0.0000 0.0000 2.3916 0.0000 2.0499
#
#
#
# Elastic Compliance Matrix: (Units=1/GPa)
#
#
# Indices 1 2 3 4 5 6 
#
# 1 0.014384 -0.004331 -0.003667 0.000000 0.003611 0.000000
# 2 -0.004331 0.015995 -0.001423 0.000000 -0.001866 0.000000
# 3 -0.003667 -0.001423 0.009808 0.000000 -0.004492 0.000000
# 4 0.000000 0.000000 0.000000 0.029877 0.000000 -0.034857
# 5 0.003611 -0.001866 -0.004492 0.000000 0.030834 0.000000
# 6 0.000000 0.000000 0.000000 -0.034857 0.000000 0.528502
#
#
# Mechanical properties :
#
#
# Convention : Reuss Voigt Hill
#
# Bulk Modulus (GPa) = 46.85081 50.18127 48.51604
# Shear Modulus (GPa) = 7.62943 28.15453 17.89198
#
# Velocity S-wave (km/s) = 1.93830 3.72347 2.96827
# Velocity P-wave (km/s) = 5.29908 6.57242 5.96979
#
# Compressibility (1/GPa) = 0.02134435
#
# Stress axis : x y z
#
# Youngs Moduli (GPa) = 69.52198 62.51975 101.95808
#
# Poissons Ratio (x) = 0.27078 0.37389
# Poissons Ratio (y) = 0.30110 0.14510
# Poissons Ratio (z) = 0.25494 0.08897
#
# Static dielectric constant tensor:
#      x y z
#    x 1.792680 0.000000 -0.033560 
#    y 0.000000 1.717570 0.000000 
#    z -0.033560 0.000000 1.794550 
# 
# From -- ./inp_files/58105.got.cif
#   From: 2010.05.17/outbox.cif.g08.bks.cpg/sg15_30_cif.got.tgz:58105.got - 2010.06.03 18:47:42.
