data_PCOD9276737
_publ_section_title
;
Structure prediction by ZEFSAII (Michael W. Deem and Ramdas Pophale) SiO2 
 PCOD9276737
Probable space group: C 2/C
;
_chemical_formula_sum "Si O2"
_cell_formula_units_Z 48
_cell_length_a 11.652279
_cell_length_b 8.855184
_cell_length_c 18.061648
_cell_angle_alpha 90.000000
_cell_angle_beta 99.459191
_cell_angle_gamma 90.000000
_cell_volume 1838.316063
_symmetry_space_group_name_H-M "C 2/C"
_symmetry_group_IT_number 15
_symmetry_cell_setting 'monoclinic'
loop_
_space_group_symop_operation_xyz
x,y,z
-x,y,1/2-z
-x,-y,-z
x,-y,1/2+z
1/2+x,1/2+y,z
1/2-x,1/2+y,1/2-z
1/2-x,1/2-y,-z
1/2+x,1/2-y,1/2+z
loop_
_atom_site_type_symbol
_atom_site_label
_atom_site_fract_x
_atom_site_fract_y
_atom_site_fract_z
Si Si1 0.063926 0.028639 0.832096
Si Si2 0.765910 0.728749 0.123378
Si Si3 0.387027 0.788011 0.014012
Si Si4 0.863705 0.047625 0.908668
Si Si5 0.282090 0.168892 0.299672
Si Si6 0.434502 0.039119 0.895424
O O1 0.116616 0.177666 0.876789
O O2 0.000000 0.075646 0.750000
O O3 0.960542 0.963395 0.870105
O O4 0.169803 0.915973 0.823679
O O5 0.737494 0.570393 0.082347
O O6 0.761807 0.704208 0.211853
O O7 0.662437 0.840252 0.091497
O O8 0.424371 0.628580 0.983988
O O9 0.423469 0.907254 0.954839
O O10 0.250000 0.750000 0.000000
O O11 0.446884 0.865493 0.090969
O O12 0.812817 0.179785 0.848926
O O13 0.387932 0.047760 0.318134
#
# Coordination Sequence:
#
# PCOD9276737 Si02
#       6
#     8   8   8   8   8   8
#     4  11  21  40  63  93 138 171 214 279 338 409
#     4  11  21  37  65 100 128 169 221 273 345 409
#     4  10  23  46  66  93 135 183 238 284 332 402
#     4  11  23  40  64  94 131 172 228 278 338 404
#     4  10  20  40  64  94 133 171 215 272 345 413
#     4   9  22  41  67  94 136 176 225 282 339 393
#
# _framework density 26.110852999999999
#
# number of rings (size 3 to 8) (size 9 to 14) (size 15 to 20)
#    0.000    1.667    3.333    1.000    0.000    8.667 
#    0.000    6.667    0.000    0.000    0.000    0.000 
#    0.000    0.000    0.000    0.000    0.000    0.000 
#
# Total GULP energy -134202.330444 kJ/mol
# GULP energy per Si atom -5591.763769 kJ/mol
# Density = 2.605142 g / cm^3
# Si number density = 26.110853 Si / 1000 Ang^3
#
#
#
# Elastic Constant Matrix: (Units=GPa)
#
#
# Indices 1 2 3 4 5 6 
#
# 1 101.3644 25.8416 5.4520 0.0000 12.7600 0.0000
# 2 25.8416 151.0792 23.0491 0.0000 31.2492 0.0000
# 3 5.4520 23.0491 50.5530 0.0000 20.4965 0.0000
# 4 0.0000 0.0000 0.0000 24.1248 0.0000 23.9340
# 5 12.7600 31.2492 20.4965 0.0000 33.9173 0.0000
# 6 0.0000 0.0000 0.0000 23.9340 0.0000 44.3154
#
#
#
# Elastic Compliance Matrix: (Units=1/GPa)
#
#
# Indices 1 2 3 4 5 6 
#
# 1 0.010555 -0.001242 0.000760 0.000000 -0.003286 0.000000
# 2 -0.001242 0.008354 -0.000985 0.000000 -0.006634 0.000000
# 3 0.000760 -0.000985 0.026353 0.000000 -0.015304 0.000000
# 4 0.000000 0.000000 0.000000 0.089297 0.000000 -0.048228
# 5 -0.003286 -0.006634 -0.015304 0.000000 0.046080 0.000000
# 6 0.000000 0.000000 0.000000 -0.048228 0.000000 0.048613
#
#
# Mechanical properties :
#
#
# Convention : Reuss Voigt Hill
#
# Bulk Modulus (GPa) = 23.62459 45.74246 34.68353
# Shear Modulus (GPa) = 20.30085 37.04843 28.67464
#
# Velocity S-wave (km/s) = 2.79137 3.77090 3.31749
# Velocity P-wave (km/s) = 4.41095 6.04286 5.29021
#
# Compressibility (1/GPa) = 0.04232877
#
# Stress axis : x y z
#
# Youngs Moduli (GPa) = 94.74439 119.70366 37.94601
#
# Poissons Ratio (x) = 0.14863 -0.02885
# Poissons Ratio (y) = 0.11764 0.03738
# Poissons Ratio (z) = -0.07202 0.11792
#
# Static dielectric constant tensor:
#      x y z
#    x 2.082430 0.000000 -0.011850 
#    y 0.000000 2.063680 0.000000 
#    z -0.011850 0.000000 2.163020 
# 
# From -- ./inp_files/267647.got.cif
#   From: 2010.05.17/outbox.cif.g08.bks.cpg/sg15_134_cif.got.tgz:267647.got - 2010.06.03 18:47:42.
