data_PCOD9276755
_publ_section_title
;
Structure prediction by ZEFSAII (Michael W. Deem and Ramdas Pophale) SiO2 
 PCOD9276755
Probable space group: C 2/C
;
_chemical_formula_sum "Si O2"
_cell_formula_units_Z 36
_cell_length_a 8.943038
_cell_length_b 19.338011
_cell_length_c 12.065261
_cell_angle_alpha 90.000000
_cell_angle_beta 127.442448
_cell_angle_gamma 90.000000
_cell_volume 1656.664794
_symmetry_space_group_name_H-M "C 2/C"
_symmetry_group_IT_number 15
_symmetry_cell_setting 'monoclinic'
loop_
_space_group_symop_operation_xyz
x,y,z
-x,y,1/2-z
-x,-y,-z
x,-y,1/2+z
1/2+x,1/2+y,z
1/2-x,1/2+y,1/2-z
1/2-x,1/2-y,-z
1/2+x,1/2-y,1/2+z
loop_
_atom_site_type_symbol
_atom_site_label
_atom_site_fract_x
_atom_site_fract_y
_atom_site_fract_z
Si Si1 0.589398 0.069979 0.909876
Si Si2 0.320301 0.914526 0.496803
Si Si3 0.608955 0.686904 0.415191
Si Si4 0.000000 0.306803 0.750000
Si Si5 0.432495 0.300577 0.070820
O O1 0.500000 0.085344 0.750000
O O2 0.666476 0.991576 0.949533
O O3 0.426188 0.081630 0.927397
O O4 0.761778 0.119148 0.019399
O O5 0.427777 0.862966 0.628491
O O6 0.120436 0.875168 0.403456
O O7 0.500000 0.691386 0.250000
O O8 0.750000 0.750000 0.500000
O O9 0.473825 0.687728 0.461132
O O10 0.914478 0.246893 0.796011
O O11 0.250000 0.250000 0.000000
#
# Coordination Sequence:
#
# PCOD9276755 Si02
#       5
#     8   8   8   4   8
#     4  11  25  46  73 102 140 184 226 286 347 409
#     4  10  23  44  72  98 140 186 228 277 348 421
#     4  12  28  45  69 105 141 177 232 292 342 404
#     4  10  20  40  64  96 128 178 226 278 326 406
#     4  10  24  39  70  95 136 184 226 280 336 411
#
# _framework density 21.730408000000001
#
# number of rings (size 3 to 8) (size 9 to 14) (size 15 to 20)
#    0.000    1.333    1.111    3.333   15.556    0.889 
#    2.000    0.000    0.000    0.000    0.000    0.000 
#    0.000    0.000    0.000    0.000    0.000    0.000 
#
# Total GULP energy -100261.932711 kJ/mol
# GULP energy per Si atom -5570.107373 kJ/mol
# Density = 2.168095 g / cm^3
# Si number density = 21.730408 Si / 1000 Ang^3
#
#
#
# Elastic Constant Matrix: (Units=GPa)
#
#
# Indices 1 2 3 4 5 6 
#
# 1 83.9512 46.0699 38.5042 0.0000 -14.9960 0.0000
# 2 46.0699 188.1180 73.2045 0.0000 -3.3807 0.0000
# 3 38.5042 73.2045 196.9701 0.0000 -13.7477 0.0000
# 4 0.0000 0.0000 0.0000 30.1721 0.0000 -5.1196
# 5 -14.9960 -3.3807 -13.7477 0.0000 23.3811 0.0000
# 6 0.0000 0.0000 0.0000 -5.1196 0.0000 14.0944
#
#
#
# Elastic Compliance Matrix: (Units=1/GPa)
#
#
# Indices 1 2 3 4 5 6 
#
# 1 0.015870 -0.003229 -0.001277 0.000000 0.008961 0.000000
# 2 -0.003229 0.006877 -0.002085 0.000000 -0.002303 0.000000
# 3 -0.001277 -0.002085 0.006281 0.000000 0.002573 0.000000
# 4 0.000000 0.000000 0.000000 0.035320 0.000000 0.012829
# 5 0.008961 -0.002303 0.002573 0.000000 0.049697 0.000000
# 6 0.000000 0.000000 0.000000 0.012829 0.000000 0.075610
#
#
# Mechanical properties :
#
#
# Convention : Reuss Voigt Hill
#
# Bulk Modulus (GPa) = 63.10794 87.17740 75.14267
# Shear Modulus (GPa) = 24.02484 34.28022 29.15253
#
# Velocity S-wave (km/s) = 3.32864 3.97611 3.66670
# Velocity P-wave (km/s) = 6.62401 7.82842 7.25126
#
# Compressibility (1/GPa) = 0.01584587
#
# Stress axis : x y z
#
# Youngs Moduli (GPa) = 63.01318 145.42134 159.20799
#
# Poissons Ratio (x) = 0.46950 0.20330
# Poissons Ratio (y) = 0.20344 0.33199
# Poissons Ratio (z) = 0.08046 0.30324
#
# Static dielectric constant tensor:
#      x y z
#    x 1.992770 0.000000 0.259170 
#    y 0.000000 1.803240 0.000000 
#    z 0.259170 0.000000 2.232540 
# 
# From -- ./inp_files/76998.got.cif
#   From: 2010.05.17/outbox.cif.g08.bks.cpg/sg15_39_cif.got.tgz:76998.got - 2010.06.03 18:47:42.
