data_PCOD9276076
_publ_section_title
;
Structure prediction by ZEFSAII (Michael W. Deem and Ramdas Pophale) SiO2 
 PCOD9276076
Probable space group: C 2/C
;
_chemical_formula_sum "Si O2"
_cell_formula_units_Z 56
_cell_length_a 7.979497
_cell_length_b 15.463900
_cell_length_c 19.920116
_cell_angle_alpha 90.000000
_cell_angle_beta 88.406119
_cell_angle_gamma 90.000000
_cell_volume 2457.074624
_symmetry_space_group_name_H-M "C 2/C"
_symmetry_group_IT_number 15
_symmetry_cell_setting 'monoclinic'
loop_
_space_group_symop_operation_xyz
x,y,z
-x,y,1/2-z
-x,-y,-z
x,-y,1/2+z
1/2+x,1/2+y,z
1/2-x,1/2+y,1/2-z
1/2-x,1/2-y,-z
1/2+x,1/2-y,1/2+z
loop_
_atom_site_type_symbol
_atom_site_label
_atom_site_fract_x
_atom_site_fract_y
_atom_site_fract_z
Si Si1 0.791659 0.762296 0.756277
Si Si2 0.100939 0.124944 0.134263
Si Si3 0.768783 0.898136 0.160830
Si Si4 0.581039 0.541146 0.566447
Si Si5 0.615578 0.084498 0.015223
Si Si6 0.236572 0.587492 0.166398
Si Si7 0.399200 0.217348 0.952599
O O1 0.771786 0.826388 0.819878
O O2 0.717908 0.670175 0.778481
O O3 0.699968 0.818498 0.699493
O O4 0.000000 0.751596 0.750000
O O5 0.032351 0.197010 0.083863
O O6 0.937781 0.090412 0.173745
O O7 0.172309 0.040948 0.099153
O O8 0.653276 0.849986 0.105854
O O9 0.940307 0.918368 0.116641
O O10 0.694454 0.989173 0.189521
O O11 0.500000 0.500000 0.500000
O O12 0.730977 0.597969 0.538114
O O13 0.685558 0.081545 0.089435
O O14 0.510040 0.168929 0.004559
O O15 0.500000 0.000000 0.000000
O O16 0.250000 0.250000 0.000000
#
# Coordination Sequence:
#
# PCOD9276076 Si02
#       7
#     8   8   8   8   8   8   8
#     4   9  20  40  69  96 131 194 237 275 347 421
#     4   9  19  37  62  92 127 179 215 272 345 409
#     4  10  20  40  70  99 136 182 227 291 357 409
#     4  11  19  38  67 103 139 171 221 295 359 427
#     4  12  22  37  67 106 138 180 229 288 371 424
#     4  10  20  39  67  97 138 173 236 283 333 433
#     4  11  22  37  63  96 139 173 220 275 354 422
#
# _framework density 22.791329000000001
#
# number of rings (size 3 to 8) (size 9 to 14) (size 15 to 20)
#    0.000    1.714    4.286    1.714    0.000    0.571 
#    0.000    4.286   15.714    0.000   14.857    0.000 
#    0.000    0.000    0.000    0.000    0.000    0.000 
#
# Total GULP energy -155990.491712 kJ/mol
# GULP energy per Si atom -5571.088990 kJ/mol
# Density = 2.273946 g / cm^3
# Si number density = 22.791329 Si / 1000 Ang^3
#
#
#
# Elastic Constant Matrix: (Units=GPa)
#
#
# Indices 1 2 3 4 5 6 
#
# 1 53.6524 25.0115 11.4291 0.0000 -7.3586 0.0000
# 2 25.0115 130.0183 47.9914 0.0000 -5.4996 0.0000
# 3 11.4291 47.9914 68.8955 0.0000 -1.0593 0.0000
# 4 0.0000 0.0000 0.0000 50.2048 0.0000 -0.7968
# 5 -7.3586 -5.4996 -1.0593 0.0000 20.3330 0.0000
# 6 0.0000 0.0000 0.0000 -0.7968 0.0000 36.6219
#
#
#
# Elastic Compliance Matrix: (Units=1/GPa)
#
#
# Indices 1 2 3 4 5 6 
#
# 1 0.021393 -0.003443 -0.001046 0.000000 0.006756 0.000000
# 2 -0.003443 0.011028 -0.007090 0.000000 0.001367 0.000000
# 3 -0.001046 -0.007090 0.019608 0.000000 -0.001275 0.000000
# 4 0.000000 0.000000 0.000000 0.019925 0.000000 0.000434
# 5 0.006756 0.001367 -0.001275 0.000000 0.051930 0.000000
# 6 0.000000 0.000000 0.000000 0.000434 0.000000 0.027315
#
#
# Mechanical properties :
#
#
# Convention : Reuss Voigt Hill
#
# Bulk Modulus (GPa) = 34.63849 46.82559 40.73204
# Shear Modulus (GPa) = 27.17648 32.64089 29.90868
#
# Velocity S-wave (km/s) = 3.45687 3.78850 3.62648
# Velocity P-wave (km/s) = 5.58250 6.30293 5.95362
#
# Compressibility (1/GPa) = 0.02886962
#
# Stress axis : x y z
#
# Youngs Moduli (GPa) = 46.74358 90.67449 51.00089
#
# Poissons Ratio (x) = 0.31222 0.05337
# Poissons Ratio (y) = 0.16095 0.36160
# Poissons Ratio (z) = 0.04892 0.64288
#
# Static dielectric constant tensor:
#      x y z
#    x 1.922070 0.000000 -0.055080 
#    y 0.000000 1.924660 0.000000 
#    z -0.055080 0.000000 1.929510 
# 
# From -- ./inp_files/231584.got.cif
#   From: 2010.05.17/outbox.cif.g08.bks.cpg/sg15_116_cif.got.tgz:231584.got - 2010.06.03 18:47:42.
