data_PCOD9276408
_publ_section_title
;
Structure prediction by ZEFSAII (Michael W. Deem and Ramdas Pophale) SiO2 
 PCOD9276408
Probable space group: C 2/C
;
_chemical_formula_sum "Si O2"
_cell_formula_units_Z 48
_cell_length_a 24.507986
_cell_length_b 11.341889
_cell_length_c 15.253462
_cell_angle_alpha 90.000000
_cell_angle_beta 152.011728
_cell_angle_gamma 90.000000
_cell_volume 1989.772847
_symmetry_space_group_name_H-M "C 2/C"
_symmetry_group_IT_number 15
_symmetry_cell_setting 'monoclinic'
loop_
_space_group_symop_operation_xyz
x,y,z
-x,y,1/2-z
-x,-y,-z
x,-y,1/2+z
1/2+x,1/2+y,z
1/2-x,1/2+y,1/2-z
1/2-x,1/2-y,-z
1/2+x,1/2-y,1/2+z
loop_
_atom_site_type_symbol
_atom_site_label
_atom_site_fract_x
_atom_site_fract_y
_atom_site_fract_z
Si Si1 0.610853 0.982527 0.845789
Si Si2 0.190923 0.934348 0.579988
Si Si3 0.942325 0.966484 0.295588
Si Si4 0.886199 0.615385 0.837077
Si Si5 0.705236 0.334574 0.857222
Si Si6 0.131616 0.717277 0.247560
O O1 0.500000 0.969184 0.750000
O O2 0.595235 0.063354 0.735570
O O3 0.650693 0.854795 0.866279
O O4 0.705122 0.060376 0.031266
O O5 0.128845 0.966493 0.398126
O O6 0.259901 0.813723 0.660316
O O7 0.079662 0.944079 0.483187
O O8 0.296886 0.022416 0.752022
O O9 0.893713 0.853802 0.277716
O O10 0.913128 0.095793 0.289754
O O11 0.816889 0.737875 0.746265
O O12 0.013675 0.650052 0.049833
O O13 0.750000 0.250000 0.000000
#
# Coordination Sequence:
#
# PCOD9276408 Si02
#       6
#     8   8   8   8   8   8
#     4  10  21  37  67  91 118 171 224 247 305 395
#     4  10  21  40  67  88 128 173 217 253 321 387
#     4  11  22  37  68  97 121 168 226 257 311 387
#     4  10  22  44  63  90 134 167 202 271 332 365
#     4  10  20  40  61  91 124 165 211 264 307 384
#     4  11  23  42  64  94 136 164 202 279 327 363
#
# _framework density 24.123356000000001
#
# number of rings (size 3 to 8) (size 9 to 14) (size 15 to 20)
#    0.000    1.667    5.000    2.500    2.333    3.333 
#    9.000    0.000    0.000    0.000    0.000    0.000 
#    0.000    0.000    0.000    0.000    0.000    0.000 
#
# Total GULP energy -133934.427807 kJ/mol
# GULP energy per Si atom -5580.601159 kJ/mol
# Density = 2.406845 g / cm^3
# Si number density = 24.123356 Si / 1000 Ang^3
#
#
#
# Elastic Constant Matrix: (Units=GPa)
#
#
# Indices 1 2 3 4 5 6 
#
# 1 64.6914 35.1537 22.5783 0.0000 25.5175 0.0000
# 2 35.1537 155.9460 28.7830 0.0000 15.5074 0.0000
# 3 22.5783 28.7830 118.8570 0.0000 23.6800 0.0000
# 4 0.0000 0.0000 0.0000 39.6374 0.0000 -3.3296
# 5 25.5175 15.5074 23.6800 0.0000 43.3027 0.0000
# 6 0.0000 0.0000 0.0000 -3.3296 0.0000 6.8381
#
#
#
# Elastic Compliance Matrix: (Units=1/GPa)
#
#
# Indices 1 2 3 4 5 6 
#
# 1 0.022271 -0.003704 -0.001104 0.000000 -0.011194 0.000000
# 2 -0.003704 0.007442 -0.001125 0.000000 0.000133 0.000000
# 3 -0.001104 -0.001125 0.009748 0.000000 -0.004277 0.000000
# 4 0.000000 0.000000 0.000000 0.026305 0.000000 0.012808
# 5 -0.011194 0.000133 -0.004277 0.000000 0.031981 0.000000
# 6 0.000000 0.000000 0.000000 0.012808 0.000000 0.152475
#
#
# Mechanical properties :
#
#
# Convention : Reuss Voigt Hill
#
# Bulk Modulus (GPa) = 36.23657 56.94712 46.59184
# Shear Modulus (GPa) = 18.43083 34.82094 26.62588
#
# Velocity S-wave (km/s) = 2.76710 3.80340 3.32586
# Velocity P-wave (km/s) = 5.02624 6.55330 5.83990
#
# Compressibility (1/GPa) = 0.02759643
#
# Stress axis : x y z
#
# Youngs Moduli (GPa) = 44.90085 134.37597 102.58804
#
# Poissons Ratio (x) = 0.49767 0.11321
# Poissons Ratio (y) = 0.16629 0.11541
# Poissons Ratio (z) = 0.04955 0.15118
#
# Static dielectric constant tensor:
#      x y z
#    x 1.999150 0.000000 -0.093990 
#    y 0.000000 1.883650 0.000000 
#    z -0.093990 0.000000 2.040120 
# 
# From -- ./inp_files/259247.got.cif
#   From: 2010.05.17/outbox.cif.g08.bks.cpg/sg15_130_cif.got.tgz:259247.got - 2010.06.03 18:47:42.
