data_PCOD9276065
_publ_section_title
;
Structure prediction by ZEFSAII (Michael W. Deem and Ramdas Pophale) SiO2 
 PCOD9276065
Probable space group: C 2/C
;
_chemical_formula_sum "Si O2"
_cell_formula_units_Z 52
_cell_length_a 9.776792
_cell_length_b 17.874801
_cell_length_c 25.671932
_cell_angle_alpha 90.000000
_cell_angle_beta 34.737495
_cell_angle_gamma 90.000000
_cell_volume 2556.418009
_symmetry_space_group_name_H-M "C 2/C"
_symmetry_group_IT_number 15
_symmetry_cell_setting 'monoclinic'
loop_
_space_group_symop_operation_xyz
x,y,z
-x,y,1/2-z
-x,-y,-z
x,-y,1/2+z
1/2+x,1/2+y,z
1/2-x,1/2+y,1/2-z
1/2-x,1/2-y,-z
1/2+x,1/2-y,1/2+z
loop_
_atom_site_type_symbol
_atom_site_label
_atom_site_fract_x
_atom_site_fract_y
_atom_site_fract_z
Si Si1 0.114035 0.659967 0.795341
Si Si2 0.000000 0.896107 0.250000
Si Si3 0.500000 0.713418 0.250000
Si Si4 0.742601 0.045742 0.933031
Si Si5 0.000000 0.542285 0.750000
Si Si6 0.961685 0.702590 0.461935
Si Si7 0.947250 0.034332 0.073228
Si Si8 0.639801 0.310440 0.495709
O O1 0.310709 0.654990 0.778237
O O2 0.079878 0.736325 0.774499
O O3 0.151950 0.596981 0.739762
O O4 0.859646 0.644180 0.901371
O O5 0.124481 0.943761 0.164597
O O6 0.771065 0.683173 0.147652
O O7 0.662191 0.127030 0.979113
O O8 0.896626 0.004031 0.929584
O O9 0.500000 0.000000 0.000000
O O10 0.824850 0.489359 0.835001
O O11 0.750000 0.750000 0.500000
O O12 0.021093 0.759583 0.489561
O O13 0.976799 0.123610 0.068467
O O14 0.000000 0.000000 0.000000
O O15 0.750000 0.250000 0.500000
#
# Coordination Sequence:
#
# PCOD9276065 Si02
#       8
#     8   4   4   8   4   8   8   8
#     4  10  20  39  67  95 134 180 225 281 353 416
#     4  12  22  41  63  99 133 186 226 280 354 427
#     4   9  22  39  68 100 138 178 230 298 349 419
#     4  12  27  43  67 101 138 182 229 289 353 421
#     4  11  22  42  69  99 131 178 238 284 345 410
#     4  11  23  44  69 102 133 183 233 282 354 427
#     4  12  24  44  72 100 133 181 236 287 339 422
#     4  11  23  43  66  97 139 178 222 289 349 411
#
# _framework density 20.340961
#
# number of rings (size 3 to 8) (size 9 to 14) (size 15 to 20)
#    0.000    0.923    3.077    4.615    2.154    0.615 
#    0.000   10.769    0.000    0.000    0.000    0.000 
#    0.000    0.000    0.000    0.000    0.000    0.000 
#
# Total GULP energy -144909.842626 kJ/mol
# GULP energy per Si atom -5573.455486 kJ/mol
# Density = 2.029466 g / cm^3
# Si number density = 20.340961 Si / 1000 Ang^3
#
#
#
# Elastic Constant Matrix: (Units=GPa)
#
#
# Indices 1 2 3 4 5 6 
#
# 1 148.1463 21.6221 -2.6397 -0.1368 5.3477 0.0058
# 2 21.6221 93.9612 18.9910 -0.1843 4.9115 0.0026
# 3 -2.6397 18.9910 71.1962 -0.1469 30.9404 0.0204
# 4 -0.1368 -0.1843 -0.1469 113.1785 0.0345 -11.7633
# 5 5.3477 4.9115 30.9404 0.0345 20.8154 -0.0068
# 6 0.0058 0.0026 0.0204 -11.7633 -0.0068 18.0358
#
#
#
# Elastic Compliance Matrix: (Units=1/GPa)
#
#
# Indices 1 2 3 4 5 6 
#
# 1 0.007407 -0.002142 0.004105 0.000013 -0.007499 -0.000001
# 2 -0.002142 0.012064 -0.006495 0.000008 0.007358 0.000014
# 3 0.004105 -0.006495 0.044411 0.000069 -0.065535 -0.000030
# 4 0.000013 0.000008 0.000069 0.009478 -0.000121 0.006182
# 5 -0.007499 0.007358 -0.065535 -0.000121 0.145644 0.000051
# 6 -0.000001 0.000014 -0.000030 0.006182 0.000051 0.059477
#
#
# Mechanical properties :
#
#
# Convention : Reuss Voigt Hill
#
# Bulk Modulus (GPa) = 18.24259 43.25004 30.74632
# Shear Modulus (GPa) = 16.34967 48.76129 32.55548
#
# Velocity S-wave (km/s) = 2.83818 4.90143 4.00495
# Velocity P-wave (km/s) = 4.44165 7.30347 6.04437
#
# Compressibility (1/GPa) = 0.05481678
#
# Stress axis : x y z
#
# Youngs Moduli (GPa) = 135.01535 82.89303 22.51717
#
# Poissons Ratio (x) = 0.17756 -0.09243
# Poissons Ratio (y) = 0.28921 0.14625
# Poissons Ratio (z) = -0.55423 0.53838
#
# Static dielectric constant tensor:
#      x y z
#    x 1.714980 -0.000110 0.003180 
#    y -0.000110 1.651630 -0.000040 
#    z 0.003180 -0.000040 1.785980 
# 
# From -- ./inp_files/289552.got.cif
#   From: 2010.05.17/outbox.cif.g08.bks.cpg/sg15_145_cif.got.tgz:289552.got - 2010.06.03 18:47:42.
