data_PCOD9276236
_publ_section_title
;
Structure prediction by ZEFSAII (Michael W. Deem and Ramdas Pophale) SiO2 
 PCOD9276236
Probable space group: C 2/C
;
_chemical_formula_sum "Si O2"
_cell_formula_units_Z 64
_cell_length_a 14.391515
_cell_length_b 8.602675
_cell_length_c 23.276530
_cell_angle_alpha 90.000000
_cell_angle_beta 58.961283
_cell_angle_gamma 90.000000
_cell_volume 2469.149545
_symmetry_space_group_name_H-M "C 2/C"
_symmetry_group_IT_number 15
_symmetry_cell_setting 'monoclinic'
loop_
_space_group_symop_operation_xyz
x,y,z
-x,y,1/2-z
-x,-y,-z
x,-y,1/2+z
1/2+x,1/2+y,z
1/2-x,1/2+y,1/2-z
1/2-x,1/2-y,-z
1/2+x,1/2-y,1/2+z
loop_
_atom_site_type_symbol
_atom_site_label
_atom_site_fract_x
_atom_site_fract_y
_atom_site_fract_z
Si Si1 0.469053 0.064971 0.428711
Si Si2 0.513529 0.478463 0.808518
Si Si3 0.428780 0.739561 0.114367
Si Si4 0.682898 0.775041 0.882843
Si Si5 0.331432 0.446749 0.553284
Si Si6 0.885985 0.295320 0.844701
Si Si7 0.758021 0.076293 0.467628
Si Si8 0.694842 0.270771 0.247441
O O1 0.525263 0.901377 0.418779
O O2 0.349213 0.032107 0.490245
O O3 0.553943 0.187061 0.427804
O O4 0.457259 0.100268 0.364503
O O5 0.500000 0.408731 0.750000
O O6 0.502201 0.347583 0.859334
O O7 0.429877 0.621501 0.839144
O O8 0.630081 0.566524 0.776598
O O9 0.425062 0.628456 0.060567
O O10 0.312386 0.774158 0.180878
O O11 0.701600 0.601643 0.900648
O O12 0.706791 0.793173 0.807876
O O13 0.754170 0.885022 0.901337
O O14 0.233657 0.324135 0.592416
O O15 0.341731 0.488672 0.483372
O O16 0.876075 0.318527 0.779086
O O17 0.750000 0.250000 0.500000
#
# Coordination Sequence:
#
# PCOD9276236 Si02
#       8
#     8   8   8   8   8   8   8   8
#     4  11  22  38  64  96 120 159 213 265 308 369
#     4  10  20  40  55  83 127 167 195 243 311 381
#     4  11  23  38  59  96 128 153 202 259 318 372
#     4  11  20  38  64  87 120 166 209 256 303 376
#     4   9  19  40  64  84 118 163 201 252 306 367
#     4   9  19  38  60  85 118 163 206 239 302 382
#     4   9  21  42  63  87 116 164 220 258 306 370
#     4  10  21  36  62  84 121 165 203 234 320 375
#
# _framework density 25.919857
#
# number of rings (size 3 to 8) (size 9 to 14) (size 15 to 20)
#    0.000    2.000    2.500    0.375    1.750    0.000 
#    9.000    3.125    0.000    0.000    0.000    0.000 
#    0.000    0.000    0.000    0.000    0.000    0.000 
#
# Total GULP energy -179063.548956 kJ/mol
# GULP energy per Si atom -5595.735905 kJ/mol
# Density = 2.586086 g / cm^3
# Si number density = 25.919857 Si / 1000 Ang^3
#
#
#
# Elastic Constant Matrix: (Units=GPa)
#
#
# Indices 1 2 3 4 5 6 
#
# 1 103.6464 16.3465 43.2524 0.0000 18.2192 0.0000
# 2 16.3465 54.8578 25.9212 0.0000 -9.4026 0.0000
# 3 43.2524 25.9212 150.6838 0.0000 33.4212 0.0000
# 4 0.0000 0.0000 0.0000 27.1820 0.0000 3.2768
# 5 18.2192 -9.4026 33.4212 0.0000 50.8812 0.0000
# 6 0.0000 0.0000 0.0000 3.2768 0.0000 34.2894
#
#
#
# Elastic Compliance Matrix: (Units=1/GPa)
#
#
# Indices 1 2 3 4 5 6 
#
# 1 0.011578 -0.003057 -0.002051 0.000000 -0.003363 0.000000
# 2 -0.003057 0.022972 -0.004985 0.000000 0.008614 0.000000
# 3 -0.002051 -0.004985 0.009510 0.000000 -0.006433 0.000000
# 4 0.000000 0.000000 0.000000 0.037218 0.000000 -0.003557
# 5 -0.003363 0.008614 -0.006433 0.000000 0.026675 0.000000
# 6 0.000000 0.000000 0.000000 -0.003557 0.000000 0.029503
#
#
# Mechanical properties :
#
#
# Convention : Reuss Voigt Hill
#
# Bulk Modulus (GPa) = 41.88924 53.35869 47.62396
# Shear Modulus (GPa) = 30.19344 37.38170 33.78757
#
# Velocity S-wave (km/s) = 3.41673 3.80176 3.61437
# Velocity P-wave (km/s) = 5.63574 6.31679 5.98596
#
# Compressibility (1/GPa) = 0.02387248
#
# Stress axis : x y z
#
# Youngs Moduli (GPa) = 86.37389 43.53190 105.15736
#
# Poissons Ratio (x) = 0.13308 0.21573
# Poissons Ratio (y) = 0.26404 0.52418
# Poissons Ratio (z) = 0.17719 0.21699
#
# Static dielectric constant tensor:
#      x y z
#    x 2.097670 0.000000 -0.057890 
#    y 0.000000 1.968600 0.000000 
#    z -0.057890 0.000000 2.064710 
# 
# From -- ./inp_files/295140.got.cif
#   From: 2010.05.17/outbox.cif.g08.bks.cpg/sg15_148_cif.got.tgz:295140.got - 2010.06.03 18:47:42.
