data_PCOD9276258
_publ_section_title
;
Structure prediction by ZEFSAII (Michael W. Deem and Ramdas Pophale) SiO2 
 PCOD9276258
Probable space group: C 2/C
;
_chemical_formula_sum "Si O2"
_cell_formula_units_Z 52
_cell_length_a 13.410771
_cell_length_b 24.116572
_cell_length_c 9.050863
_cell_angle_alpha 90.000000
_cell_angle_beta 111.999473
_cell_angle_gamma 90.000000
_cell_volume 2714.105894
_symmetry_space_group_name_H-M "C 2/C"
_symmetry_group_IT_number 15
_symmetry_cell_setting 'monoclinic'
loop_
_space_group_symop_operation_xyz
x,y,z
-x,y,1/2-z
-x,-y,-z
x,-y,1/2+z
1/2+x,1/2+y,z
1/2-x,1/2+y,1/2-z
1/2-x,1/2-y,-z
1/2+x,1/2-y,1/2+z
loop_
_atom_site_type_symbol
_atom_site_label
_atom_site_fract_x
_atom_site_fract_y
_atom_site_fract_z
Si Si1 0.094570 0.043203 0.186843
Si Si2 0.000000 0.206659 0.250000
Si Si3 0.436237 0.580314 0.866352
Si Si4 0.784357 0.859447 0.640952
Si Si5 0.065067 0.288102 0.018980
Si Si6 0.340627 0.218792 0.243401
Si Si7 0.256545 0.833764 0.196788
O O1 0.191847 0.076350 0.314260
O O2 0.000000 0.033328 0.250000
O O3 0.114893 0.981397 0.139431
O O4 0.034544 0.082805 0.036905
O O5 0.898017 0.168403 0.160620
O O6 0.964140 0.243892 0.369475
O O7 0.500000 0.586865 0.750000
O O8 0.338922 0.623239 0.821640
O O9 0.741736 0.830241 0.764963
O O10 0.713613 0.844499 0.458032
O O11 0.138093 0.334222 0.140804
O O12 0.134139 0.268643 0.913928
O O13 0.950980 0.301085 0.881661
O O14 0.293562 0.272853 0.299702
#
# Coordination Sequence:
#
# PCOD9276258 Si02
#       7
#     8   4   8   8   8   8   8
#     4  10  20  40  57  89 124 154 196 250 302 361
#     4  12  20  36  60  86 120 160 192 246 288 360
#     4  10  23  35  60  90 122 156 198 248 304 358
#     4  12  22  37  63  86 122 164 200 242 302 354
#     4  11  25  39  56  84 127 153 207 243 294 361
#     4  11  25  40  56  89 123 162 198 250 300 358
#     4  12  22  37  59  86 117 162 198 244 299 357
#
# _framework density 19.159164000000001
#
# number of rings (size 3 to 8) (size 9 to 14) (size 15 to 20)
#    0.000    0.923    5.385    1.846    4.308    0.000 
#    0.000    0.000    0.000    0.923    0.000    2.154 
#    0.000    0.000    0.000    0.000    0.000    0.000 
#
# Total GULP energy -144978.209384 kJ/mol
# GULP energy per Si atom -5576.084976 kJ/mol
# Density = 1.911556 g / cm^3
# Si number density = 19.159164 Si / 1000 Ang^3
#
#
#
# Elastic Constant Matrix: (Units=GPa)
#
#
# Indices 1 2 3 4 5 6 
#
# 1 69.2856 18.5966 14.2097 0.0000 -3.1818 0.0000
# 2 18.5966 72.6995 7.6698 0.0000 4.9320 0.0000
# 3 14.2097 7.6698 96.2707 0.0000 -1.6697 0.0000
# 4 0.0000 0.0000 0.0000 22.0445 0.0000 -0.4257
# 5 -3.1818 4.9320 -1.6697 0.0000 34.9950 0.0000
# 6 0.0000 0.0000 0.0000 -0.4257 0.0000 7.6231
#
#
#
# Elastic Compliance Matrix: (Units=1/GPa)
#
#
# Indices 1 2 3 4 5 6 
#
# 1 0.016011 -0.004014 -0.002010 0.000000 0.001926 0.000000
# 2 -0.004014 0.015021 -0.000648 0.000000 -0.002513 0.000000
# 3 -0.002010 -0.000648 0.010743 0.000000 0.000421 0.000000
# 4 0.000000 0.000000 0.000000 0.045412 0.000000 0.002536
# 5 0.001926 -0.002513 0.000421 0.000000 0.029125 0.000000
# 6 0.000000 0.000000 0.000000 0.002536 0.000000 0.131321
#
#
# Mechanical properties :
#
#
# Convention : Reuss Voigt Hill
#
# Bulk Modulus (GPa) = 35.17302 35.46755 35.32029
# Shear Modulus (GPa) = 18.48742 26.11783 22.30262
#
# Velocity S-wave (km/s) = 3.10972 3.69616 3.41555
# Velocity P-wave (km/s) = 5.59392 6.06364 5.83351
#
# Compressibility (1/GPa) = 0.02843088
#
# Stress axis : x y z
#
# Youngs Moduli (GPa) = 62.45661 66.57386 93.08404
#
# Poissons Ratio (x) = 0.26724 0.18710
# Poissons Ratio (y) = 0.25071 0.06030
# Poissons Ratio (z) = 0.12554 0.04313
#
# Static dielectric constant tensor:
#      x y z
#    x 1.684690 0.000000 -0.027390 
#    y 0.000000 1.674000 0.000000 
#    z -0.027390 0.000000 1.787630 
# 
# From -- ./inp_files/42310.got.cif
#   From: 2010.05.17/outbox.cif.g08.bks.cpg/sg15_22_cif.got.tgz:42310.got - 2010.06.03 18:47:42.
