data_PCOD9276989
_publ_section_title
;
Structure prediction by ZEFSAII (Michael W. Deem and Ramdas Pophale) SiO2 
 PCOD9276989
Probable space group: C 2/C
;
_chemical_formula_sum "Si O2"
_cell_formula_units_Z 48
_cell_length_a 16.129323
_cell_length_b 11.777723
_cell_length_c 11.797549
_cell_angle_alpha 90.000000
_cell_angle_beta 85.457006
_cell_angle_gamma 90.000000
_cell_volume 2234.100167
_symmetry_space_group_name_H-M "C 2/C"
_symmetry_group_IT_number 15
_symmetry_cell_setting 'monoclinic'
loop_
_space_group_symop_operation_xyz
x,y,z
-x,y,1/2-z
-x,-y,-z
x,-y,1/2+z
1/2+x,1/2+y,z
1/2-x,1/2+y,1/2-z
1/2-x,1/2-y,-z
1/2+x,1/2-y,1/2+z
loop_
_atom_site_type_symbol
_atom_site_label
_atom_site_fract_x
_atom_site_fract_y
_atom_site_fract_z
Si Si1 0.085243 0.029562 0.879663
Si Si2 0.128882 0.678063 0.727584
Si Si3 0.304908 0.352184 0.940041
Si Si4 0.567397 0.334027 0.045115
Si Si5 0.997005 0.379714 0.440015
Si Si6 0.711068 0.420941 0.167782
O O1 0.143985 0.040096 0.767163
O O2 0.994649 0.084452 0.878515
O O3 0.129197 0.102809 0.975243
O O4 0.076923 0.901651 0.925810
O O5 0.148915 0.802314 0.675740
O O6 0.063228 0.650136 0.833568
O O7 0.214314 0.632690 0.770290
O O8 0.090691 0.624552 0.616649
O O9 0.259472 0.468220 0.905783
O O10 0.250000 0.250000 0.000000
O O11 0.658233 0.335321 0.093091
O O12 0.520589 0.216225 0.029785
O O13 0.000000 0.500000 0.500000
#
# Coordination Sequence:
#
# PCOD9276989 Si02
#       6
#     8   8   8   8   8   8
#     4  10  20  40  66  99 133 168 221 281 338 398
#     4  11  25  44  64  96 130 180 227 269 343 406
#     4  11  22  41  70  95 138 177 218 285 345 403
#     4  10  22  40  67  96 131 170 221 280 334 402
#     4  11  26  46  66  91 135 185 226 277 336 409
#     4  11  24  38  67 104 129 172 225 279 340 406
#
# _framework density 21.485161000000002
#
# number of rings (size 3 to 8) (size 9 to 14) (size 15 to 20)
#    0.000    1.333    3.333    1.500    2.333    2.000 
#    6.000    0.000    0.000    0.000    0.000    0.000 
#    0.000    0.000    0.000    0.000    0.000    0.000 
#
# Total GULP energy -133871.950792 kJ/mol
# GULP energy per Si atom -5577.997950 kJ/mol
# Density = 2.143626 g / cm^3
# Si number density = 21.485161 Si / 1000 Ang^3
#
#
#
# Elastic Constant Matrix: (Units=GPa)
#
#
# Indices 1 2 3 4 5 6 
#
# 1 99.5084 35.9536 39.1754 0.0000 37.0263 0.0000
# 2 35.9536 125.3766 46.1570 0.0000 36.7611 0.0000
# 3 39.1754 46.1570 80.7509 0.0000 11.8624 0.0000
# 4 0.0000 0.0000 0.0000 27.6783 0.0000 -9.4415
# 5 37.0263 36.7611 11.8624 0.0000 53.9529 0.0000
# 6 0.0000 0.0000 0.0000 -9.4415 0.0000 9.3713
#
#
#
# Elastic Compliance Matrix: (Units=1/GPa)
#
#
# Indices 1 2 3 4 5 6 
#
# 1 0.016251 0.000874 -0.006880 0.000000 -0.010235 0.000000
# 2 0.000874 0.012275 -0.006328 0.000000 -0.007572 0.000000
# 3 -0.006880 -0.006328 0.018613 0.000000 0.004941 0.000000
# 4 0.000000 0.000000 0.000000 0.055047 0.000000 0.055459
# 5 -0.010235 -0.007572 0.004941 0.000000 0.029632 0.000000
# 6 0.000000 0.000000 0.000000 0.055459 0.000000 0.162583
#
#
# Mechanical properties :
#
#
# Convention : Reuss Voigt Hill
#
# Bulk Modulus (GPa) = 44.50300 60.91200 52.70750
# Shear Modulus (GPa) = 15.31121 30.49049 22.90085
#
# Velocity S-wave (km/s) = 2.67243 3.77124 3.26834
# Velocity P-wave (km/s) = 5.50280 6.88297 6.23122
#
# Compressibility (1/GPa) = 0.02247039
#
# Stress axis : x y z
#
# Youngs Moduli (GPa) = 61.53655 81.46483 53.72717
#
# Poissons Ratio (x) = -0.07116 0.36962
# Poissons Ratio (y) = -0.05375 0.33998
# Poissons Ratio (z) = 0.42334 0.51550
#
# Static dielectric constant tensor:
#      x y z
#    x 1.870020 0.000000 0.039180 
#    y 0.000000 1.776310 0.000000 
#    z 0.039180 0.000000 1.866990 
# 
# From -- ./inp_files/103747.got.cif
#   From: 2010.05.17/outbox.cif.g08.bks.cpg/sg15_52_cif.got.tgz:103747.got - 2010.06.03 18:47:42.
