data_PCOD9276885
_publ_section_title
;
Structure prediction by ZEFSAII (Michael W. Deem and Ramdas Pophale) SiO2 
 PCOD9276885
Probable space group: C 2/C
;
_chemical_formula_sum "Si O2"
_cell_formula_units_Z 56
_cell_length_a 16.445577
_cell_length_b 9.204773
_cell_length_c 17.569581
_cell_angle_alpha 90.000000
_cell_angle_beta 112.143597
_cell_angle_gamma 90.000000
_cell_volume 2463.474747
_symmetry_space_group_name_H-M "C 2/C"
_symmetry_group_IT_number 15
_symmetry_cell_setting 'monoclinic'
loop_
_space_group_symop_operation_xyz
x,y,z
-x,y,1/2-z
-x,-y,-z
x,-y,1/2+z
1/2+x,1/2+y,z
1/2-x,1/2+y,1/2-z
1/2-x,1/2-y,-z
1/2+x,1/2-y,1/2+z
loop_
_atom_site_type_symbol
_atom_site_label
_atom_site_fract_x
_atom_site_fract_y
_atom_site_fract_z
Si Si1 0.677981 0.423764 0.426289
Si Si2 0.643148 0.893681 0.933496
Si Si3 0.840448 0.334434 0.313003
Si Si4 0.407857 0.340848 0.691315
Si Si5 0.251365 0.049883 0.179636
Si Si6 0.532367 0.842847 0.436152
Si Si7 0.093818 0.080414 0.540601
O O1 0.624262 0.273824 0.408147
O O2 0.779697 0.391556 0.476293
O O3 0.658060 0.530141 0.350617
O O4 0.647239 0.516502 0.488121
O O5 0.685201 0.962239 0.871514
O O6 0.566725 0.994725 0.937674
O O7 0.872071 0.259472 0.245251
O O8 0.798962 0.484278 0.269955
O O9 0.927237 0.340652 0.395236
O O10 0.771947 0.219397 0.322230
O O11 0.500000 0.407970 0.750000
O O12 0.431677 0.244865 0.625618
O O13 0.158503 0.965120 0.132082
O O14 0.573216 0.750250 0.520018
O O15 0.000000 0.000000 0.500000
#
# Coordination Sequence:
#
# PCOD9276885 Si02
#       7
#     8   8   8   8   8   8   8
#     4   9  21  37  62  88 120 153 204 258 304 352
#     4  10  21  40  62  91 118 157 208 260 298 361
#     4  11  23  40  57  93 127 164 199 255 318 373
#     4   9  19  36  58  84 116 160 204 241 298 373
#     4  11  24  39  62  87 128 163 203 254 318 372
#     4  10  20  40  66  86 119 159 212 255 299 371
#     4  10  20  41  65  87 117 163 209 255 306 368
#
# _framework density 22.732116999999999
#
# number of rings (size 3 to 8) (size 9 to 14) (size 15 to 20)
#    0.000    2.000    2.857    0.000    4.000    1.714 
#    5.143    0.714    0.000    0.000    0.000    0.000 
#    0.000    0.000    0.000    0.000    0.000    0.000 
#
# Total GULP energy -156479.669299 kJ/mol
# GULP energy per Si atom -5588.559618 kJ/mol
# Density = 2.268038 g / cm^3
# Si number density = 22.732117 Si / 1000 Ang^3
#
#
#
# Elastic Constant Matrix: (Units=GPa)
#
#
# Indices 1 2 3 4 5 6 
#
# 1 49.5984 18.1925 -5.6647 0.0000 -2.2983 0.0000
# 2 18.1925 114.8380 23.3115 0.0000 15.8132 0.0000
# 3 -5.6647 23.3115 40.3112 0.0000 3.2541 0.0000
# 4 0.0000 0.0000 0.0000 33.7098 0.0000 3.6923
# 5 -2.2983 15.8132 3.2541 0.0000 17.1737 0.0000
# 6 0.0000 0.0000 0.0000 3.6923 0.0000 38.1749
#
#
#
# Elastic Compliance Matrix: (Units=1/GPa)
#
#
# Indices 1 2 3 4 5 6 
#
# 1 0.023406 -0.005986 0.006147 0.000000 0.007479 0.000000
# 2 -0.005986 0.012657 -0.007266 0.000000 -0.011078 0.000000
# 3 0.006147 -0.007266 0.029721 0.000000 0.001881 0.000000
# 4 0.000000 0.000000 0.000000 0.029983 0.000000 -0.002900
# 5 0.007479 -0.011078 0.001881 0.000000 0.069074 0.000000
# 6 0.000000 0.000000 0.000000 -0.002900 0.000000 0.026476
#
#
# Mechanical properties :
#
#
# Convention : Reuss Voigt Hill
#
# Bulk Modulus (GPa) = 19.38973 30.71402 25.05188
# Shear Modulus (GPa) = 22.45012 29.07223 25.76118
#
# Velocity S-wave (km/s) = 3.14601 3.58006 3.37003
# Velocity P-wave (km/s) = 4.66312 5.53441 5.11734
#
# Compressibility (1/GPa) = 0.05157368
#
# Stress axis : x y z
#
# Youngs Moduli (GPa) = 42.72405 79.01044 33.64661
#
# Poissons Ratio (x) = 0.47292 -0.20682
# Poissons Ratio (y) = 0.25573 0.24447
# Poissons Ratio (z) = -0.26261 0.57409
#
# Static dielectric constant tensor:
#      x y z
#    x 1.855530 0.000000 -0.026390 
#    y 0.000000 1.823540 0.000000 
#    z -0.026390 0.000000 1.866040 
# 
# From -- ./inp_files/247596.got.cif
#   From: 2010.05.17/outbox.cif.g08.bks.cpg/sg15_124_cif.got.tgz:247596.got - 2010.06.03 18:47:42.
