data_PCOD9276256
_publ_section_title
;
Structure prediction by ZEFSAII (Michael W. Deem and Ramdas Pophale) SiO2 
 PCOD9276256
Probable space group: C 2/C
;
_chemical_formula_sum "Si O2"
_cell_formula_units_Z 40
_cell_length_a 23.164417
_cell_length_b 16.879869
_cell_length_c 9.105895
_cell_angle_alpha 90.000000
_cell_angle_beta 141.288340
_cell_angle_gamma 90.000000
_cell_volume 2226.752655
_symmetry_space_group_name_H-M "C 2/C"
_symmetry_group_IT_number 15
_symmetry_cell_setting 'monoclinic'
loop_
_space_group_symop_operation_xyz
x,y,z
-x,y,1/2-z
-x,-y,-z
x,-y,1/2+z
1/2+x,1/2+y,z
1/2-x,1/2+y,1/2-z
1/2-x,1/2-y,-z
1/2+x,1/2-y,1/2+z
loop_
_atom_site_type_symbol
_atom_site_label
_atom_site_fract_x
_atom_site_fract_y
_atom_site_fract_z
Si Si1 0.893160 0.067791 0.046365
Si Si2 0.854501 0.907223 0.132448
Si Si3 0.661818 0.722721 0.417677
Si Si4 0.315121 0.191885 0.226087
Si Si5 0.023504 0.253020 0.632788
O O1 0.839300 0.130062 0.041358
O O2 0.000000 0.094453 0.250000
O O3 0.889095 0.980839 0.106613
O O4 0.856269 0.070965 0.807745
O O5 0.921354 0.830978 0.245543
O O6 0.750352 0.883442 0.882295
O O7 0.750000 0.750000 0.500000
O O8 0.662304 0.768288 0.573886
O O9 0.569630 0.740056 0.143012
O O10 0.408658 0.187447 0.318631
O O11 0.250000 0.250000 0.000000
O O12 0.000000 0.279730 0.750000
#
# Coordination Sequence:
#
# PCOD9276256 Si02
#       5
#     8   8   8   8   8
#     4  12  23  39  57  92 126 160 192 250 309 368
#     4  11  24  37  61  88 130 153 197 245 309 366
#     4  12  23  37  62  90 121 161 208 246 303 357
#     4  10  20  40  57  86 119 159 200 250 287 357
#     4  11  22  38  61  89 121 159 201 250 300 356
#
# _framework density 17.963379
#
# number of rings (size 3 to 8) (size 9 to 14) (size 15 to 20)
#    0.000    0.800    6.000    4.200    5.600    0.000 
#    0.000    0.000    0.000    1.200    0.000    0.000 
#    0.000    0.000    0.000    0.000    0.000    0.000 
#
# Total GULP energy -111718.638948 kJ/mol
# GULP energy per Si atom -5585.931947 kJ/mol
# Density = 1.792249 g / cm^3
# Si number density = 17.963379 Si / 1000 Ang^3
#
#
#
# Elastic Constant Matrix: (Units=GPa)
#
#
# Indices 1 2 3 4 5 6 
#
# 1 130.0825 28.1094 40.7482 0.0000 9.3844 0.0000
# 2 28.1094 47.6591 17.8724 0.0000 11.6168 0.0000
# 3 40.7482 17.8724 98.1065 0.0000 -0.3607 0.0000
# 4 0.0000 0.0000 0.0000 20.3106 0.0000 0.2968
# 5 9.3844 11.6168 -0.3607 0.0000 35.6654 0.0000
# 6 0.0000 0.0000 0.0000 0.2968 0.0000 36.8239
#
#
#
# Elastic Compliance Matrix: (Units=1/GPa)
#
#
# Indices 1 2 3 4 5 6 
#
# 1 0.009708 -0.004202 -0.003271 0.000000 -0.001219 0.000000
# 2 -0.004202 0.026464 -0.003103 0.000000 -0.007545 0.000000
# 3 -0.003271 -0.003103 0.012124 0.000000 0.001994 0.000000
# 4 0.000000 0.000000 0.000000 0.049241 0.000000 -0.000397
# 5 -0.001219 -0.007545 0.001994 0.000000 0.030837 0.000000
# 6 0.000000 0.000000 0.000000 -0.000397 0.000000 0.027159
#
#
# Mechanical properties :
#
#
# Convention : Reuss Voigt Hill
#
# Bulk Modulus (GPa) = 36.84214 49.92313 43.38264
# Shear Modulus (GPa) = 26.92013 31.16785 29.04399
#
# Velocity S-wave (km/s) = 3.87539 4.16994 4.02536
# Velocity P-wave (km/s) = 6.37016 7.14399 6.76814
#
# Compressibility (1/GPa) = 0.02714283
#
# Stress axis : x y z
#
# Youngs Moduli (GPa) = 103.00709 37.78768 82.47848
#
# Poissons Ratio (x) = 0.15878 0.26980
# Poissons Ratio (y) = 0.43284 0.25596
# Poissons Ratio (z) = 0.33696 0.11727
#
# Static dielectric constant tensor:
#      x y z
#    x 1.628610 0.000000 0.014020 
#    y 0.000000 1.618830 0.000000 
#    z 0.014020 0.000000 1.612420 
# 
# From -- ./inp_files/29068.got.cif
#   From: 2010.05.17/outbox.cif.g08.bks.cpg/sg15_15_cif.got.tgz:29068.got - 2010.06.03 18:47:42.
