data_PCOD9276800
_publ_section_title
;
Structure prediction by ZEFSAII (Michael W. Deem and Ramdas Pophale) SiO2 
 PCOD9276800
Probable space group: C 2/C
;
_chemical_formula_sum "Si O2"
_cell_formula_units_Z 52
_cell_length_a 19.275320
_cell_length_b 11.511449
_cell_length_c 14.917009
_cell_angle_alpha 90.000000
_cell_angle_beta 57.346398
_cell_angle_gamma 90.000000
_cell_volume 2786.753835
_symmetry_space_group_name_H-M "C 2/C"
_symmetry_group_IT_number 15
_symmetry_cell_setting 'monoclinic'
loop_
_space_group_symop_operation_xyz
x,y,z
-x,y,1/2-z
-x,-y,-z
x,-y,1/2+z
1/2+x,1/2+y,z
1/2-x,1/2+y,1/2-z
1/2-x,1/2-y,-z
1/2+x,1/2-y,1/2+z
loop_
_atom_site_type_symbol
_atom_site_label
_atom_site_fract_x
_atom_site_fract_y
_atom_site_fract_z
Si Si1 0.265924 0.423559 0.263903
Si Si2 0.617889 0.693247 0.066334
Si Si3 0.667846 0.028482 0.660247
Si Si4 0.262080 0.298421 0.592839
Si Si5 0.264574 0.874669 0.575794
Si Si6 0.000000 0.348628 0.250000
Si Si7 0.903131 0.984377 0.545222
O O1 0.211420 0.410957 0.213284
O O2 0.254875 0.308748 0.329819
O O3 0.237604 0.532888 0.344215
O O4 0.354950 0.459094 0.163113
O O5 0.675480 0.679353 0.114292
O O6 0.536347 0.763108 0.148849
O O7 0.669864 0.771441 0.960373
O O8 0.606685 0.567354 0.033883
O O9 0.706482 0.064761 0.537529
O O10 0.574336 0.068483 0.726152
O O11 0.691119 0.894564 0.655465
O O12 0.250000 0.250000 0.500000
O O13 0.349108 0.367040 0.556819
O O14 0.000000 0.000000 0.500000
#
# Coordination Sequence:
#
# PCOD9276800 Si02
#       7
#     8   8   8   8   8   4   8
#     4  11  23  40  71  89 126 178 207 265 336 386
#     4  10  21  39  63  88 126 161 208 263 316 374
#     4  10  22  42  60  99 121 163 222 256 315 404
#     4  11  22  45  69  90 135 175 216 266 340 401
#     4  10  20  40  65  89 120 165 218 256 310 393
#     4  10  24  38  64  88 134 164 210 274 322 364
#     4  11  26  41  61 103 133 161 231 271 322 405
#
# _framework density 18.659704000000001
#
# number of rings (size 3 to 8) (size 9 to 14) (size 15 to 20)
#    0.000    1.538    4.615    0.000    8.615    0.000 
#    2.769    3.077    0.000    0.000    0.000    0.000 
#    0.000    0.000    0.000    0.000    0.000    0.000 
#
# Total GULP energy -144883.026400 kJ/mol
# GULP energy per Si atom -5572.424092 kJ/mol
# Density = 1.861723 g / cm^3
# Si number density = 18.659704 Si / 1000 Ang^3
#
#
#
# Elastic Constant Matrix: (Units=GPa)
#
#
# Indices 1 2 3 4 5 6 
#
# 1 96.3288 35.1956 71.0649 0.0000 -22.6148 0.0000
# 2 35.1956 100.6492 45.6319 0.0000 -3.8737 0.0000
# 3 71.0649 45.6319 105.2255 0.0000 -3.7743 0.0000
# 4 0.0000 0.0000 0.0000 42.7726 0.0000 11.0155
# 5 -22.6148 -3.8737 -3.7743 0.0000 33.8418 0.0000
# 6 0.0000 0.0000 0.0000 11.0155 0.0000 18.6473
#
#
#
# Elastic Compliance Matrix: (Units=1/GPa)
#
#
# Indices 1 2 3 4 5 6 
#
# 1 0.027568 -0.001040 -0.017581 0.000000 0.016342 0.000000
# 2 -0.001040 0.012429 -0.004680 0.000000 0.000205 0.000000
# 3 -0.017581 -0.004680 0.023058 0.000000 -0.009712 0.000000
# 4 0.000000 0.000000 0.000000 0.027574 0.000000 -0.016289
# 5 0.016342 0.000205 -0.009712 0.000000 0.039410 0.000000
# 6 0.000000 0.000000 0.000000 -0.016289 0.000000 0.063249
#
#
# Mechanical properties :
#
#
# Convention : Reuss Voigt Hill
#
# Bulk Modulus (GPa) = 60.78135 67.33202 64.05669
# Shear Modulus (GPa) = 20.37700 29.07308 24.72504
#
# Velocity S-wave (km/s) = 3.30818 3.95152 3.64407
# Velocity P-wave (km/s) = 6.87287 7.54863 7.21866
#
# Compressibility (1/GPa) = 0.01645242
#
# Stress axis : x y z
#
# Youngs Moduli (GPa) = 36.27431 80.45714 43.36929
#
# Poissons Ratio (x) = 0.08371 0.76246
# Poissons Ratio (y) = 0.03774 0.20296
# Poissons Ratio (z) = 0.63773 0.37653
#
# Static dielectric constant tensor:
#      x y z
#    x 1.683330 0.000000 -0.007910 
#    y 0.000000 1.697110 0.000000 
#    z -0.007910 0.000000 1.656660 
# 
# From -- ./inp_files/167558.got.cif
#   From: 2010.05.17/outbox.cif.g08.bks.cpg/sg15_84_cif.got.tgz:167558.got - 2010.06.03 18:47:42.
