data_PCOD9276326
_publ_section_title
;
Structure prediction by ZEFSAII (Michael W. Deem and Ramdas Pophale) SiO2 
 PCOD9276326
Probable space group: C 2/C
;
_chemical_formula_sum "Si O2"
_cell_formula_units_Z 44
_cell_length_a 7.373571
_cell_length_b 17.489056
_cell_length_c 20.874008
_cell_angle_alpha 90.000000
_cell_angle_beta 122.755864
_cell_angle_gamma 90.000000
_cell_volume 2263.797775
_symmetry_space_group_name_H-M "C 2/C"
_symmetry_group_IT_number 15
_symmetry_cell_setting 'monoclinic'
loop_
_space_group_symop_operation_xyz
x,y,z
-x,y,1/2-z
-x,-y,-z
x,-y,1/2+z
1/2+x,1/2+y,z
1/2-x,1/2+y,1/2-z
1/2-x,1/2-y,-z
1/2+x,1/2-y,1/2+z
loop_
_atom_site_type_symbol
_atom_site_label
_atom_site_fract_x
_atom_site_fract_y
_atom_site_fract_z
Si Si1 0.768230 0.571540 0.446190
Si Si2 0.688261 0.328759 0.337943
Si Si3 0.000000 0.424653 0.750000
Si Si4 0.151514 0.835920 0.598116
Si Si5 0.253363 0.984410 0.309433
Si Si6 0.244091 0.901215 0.475701
O O1 0.578167 0.630457 0.423644
O O2 0.776476 0.537792 0.375785
O O3 0.723564 0.493580 0.478254
O O4 0.005536 0.607240 0.498256
O O5 0.500000 0.310612 0.250000
O O6 0.817551 0.253437 0.381959
O O7 0.829406 0.397693 0.335095
O O8 0.608295 0.367225 0.389967
O O9 0.836365 0.375822 0.676042
O O10 0.864627 0.476811 0.771567
O O11 0.192267 0.858786 0.531786
O O12 0.000000 0.977338 0.250000
#
# Coordination Sequence:
#
# PCOD9276326 Si02
#       6
#     8   8   4   8   8   8
#     4  10  21  38  65  93 123 162 211 256 300 368
#     4  10  23  42  61  88 132 164 202 258 322 363
#     4  12  22  36  66  94 120 162 216 254 300 372
#     4  12  22  39  66  96 122 163 212 256 306 368
#     4  10  20  40  60  87 126 169 202 256 310 366
#     4  10  22  41  63  90 128 165 204 258 310 366
#
# _framework density 19.436367000000001
#
# number of rings (size 3 to 8) (size 9 to 14) (size 15 to 20)
#    0.000    1.455    4.545    1.091    0.000    0.727 
#    0.000    5.455    0.000    0.000    0.000    0.000 
#    0.000    0.000    0.000    0.000    0.000    0.000 
#
# Total GULP energy -122736.256873 kJ/mol
# GULP energy per Si atom -5578.920767 kJ/mol
# Density = 1.939213 g / cm^3
# Si number density = 19.436367 Si / 1000 Ang^3
#
#
#
# Elastic Constant Matrix: (Units=GPa)
#
#
# Indices 1 2 3 4 5 6 
#
# 1 75.7748 53.3445 31.8124 0.0000 -2.4140 0.0000
# 2 53.3445 129.3739 36.1916 0.0000 -12.3526 0.0000
# 3 31.8124 36.1916 110.8636 0.0000 -18.0119 0.0000
# 4 0.0000 0.0000 0.0000 41.0368 0.0000 1.8366
# 5 -2.4140 -12.3526 -18.0119 0.0000 29.0844 0.0000
# 6 0.0000 0.0000 0.0000 1.8366 0.0000 11.2877
#
#
#
# Elastic Compliance Matrix: (Units=1/GPa)
#
#
# Indices 1 2 3 4 5 6 
#
# 1 0.020027 -0.007537 -0.003932 0.000000 -0.003974 0.000000
# 2 -0.007537 0.011461 -0.000989 0.000000 0.003630 0.000000
# 3 -0.003932 -0.000989 0.011508 0.000000 0.006380 0.000000
# 4 0.000000 0.000000 0.000000 0.024547 0.000000 -0.003994
# 5 -0.003974 0.003630 0.006380 0.000000 0.039546 0.000000
# 6 0.000000 0.000000 0.000000 -0.003994 0.000000 0.089242
#
#
# Mechanical properties :
#
#
# Convention : Reuss Voigt Hill
#
# Bulk Modulus (GPa) = 55.31114 62.07880 58.69497
# Shear Modulus (GPa) = 22.00001 29.25938 25.62970
#
# Velocity S-wave (km/s) = 3.36802 3.88415 3.63526
# Velocity P-wave (km/s) = 6.60637 7.21972 6.91984
#
# Compressibility (1/GPa) = 0.01807954
#
# Stress axis : x y z
#
# Youngs Moduli (GPa) = 49.93178 87.25590 86.89768
#
# Poissons Ratio (x) = 0.65768 0.34168
# Poissons Ratio (y) = 0.37635 0.08592
# Poissons Ratio (z) = 0.19633 0.08628
#
# Static dielectric constant tensor:
#      x y z
#    x 1.629060 0.000000 0.007520 
#    y 0.000000 1.710960 0.000000 
#    z 0.007520 0.000000 1.750940 
# 
# From -- ./inp_files/260926.got.cif
#   From: 2010.05.17/outbox.cif.g08.bks.cpg/sg15_131_cif.got.tgz:260926.got - 2010.06.03 18:47:42.
