data_PCOD9276977
_publ_section_title
;
Structure prediction by ZEFSAII (Michael W. Deem and Ramdas Pophale) SiO2 
 PCOD9276977
Probable space group: C 2/C
;
_chemical_formula_sum "Si O2"
_cell_formula_units_Z 52
_cell_length_a 17.787958
_cell_length_b 8.330084
_cell_length_c 17.650525
_cell_angle_alpha 90.000000
_cell_angle_beta 114.467594
_cell_angle_gamma 90.000000
_cell_volume 2380.498269
_symmetry_space_group_name_H-M "C 2/C"
_symmetry_group_IT_number 15
_symmetry_cell_setting 'monoclinic'
loop_
_space_group_symop_operation_xyz
x,y,z
-x,y,1/2-z
-x,-y,-z
x,-y,1/2+z
1/2+x,1/2+y,z
1/2-x,1/2+y,1/2-z
1/2-x,1/2-y,-z
1/2+x,1/2-y,1/2+z
loop_
_atom_site_type_symbol
_atom_site_label
_atom_site_fract_x
_atom_site_fract_y
_atom_site_fract_z
Si Si1 0.938790 0.541843 0.860864
Si Si2 0.280808 0.259580 0.792584
Si Si3 0.164226 0.192853 0.886808
Si Si4 0.500000 0.814603 0.750000
Si Si5 0.276651 0.013476 0.522317
Si Si6 0.082785 0.308231 0.504787
Si Si7 0.814868 0.096370 0.867711
O O1 0.854004 0.634006 0.809470
O O2 0.929909 0.431254 0.931279
O O3 0.966320 0.430939 0.802425
O O4 0.008895 0.670412 0.914829
O O5 0.231892 0.216595 0.848924
O O6 0.215502 0.241383 0.697749
O O7 0.316990 0.436960 0.818247
O O8 0.074277 0.206699 0.813353
O O9 0.173323 0.345488 0.947311
O O10 0.193152 0.035092 0.943346
O O11 0.333505 0.137904 0.502686
O O12 0.253708 0.067861 0.596591
O O13 0.101495 0.140349 0.553627
#
# Coordination Sequence:
#
# PCOD9276977 Si02
#       7
#     8   8   8   4   8   8   8
#     4  11  24  40  70  94 143 169 233 274 342 403
#     4  11  23  43  63 100 129 184 219 290 337 412
#     4  10  21  38  68  96 135 175 229 267 337 404
#     4  12  22  42  68 110 132 184 228 288 338 410
#     4  10  20  40  66  97 134 176 221 278 336 411
#     4  11  22  42  65 102 130 183 218 283 332 418
#     4  11  24  40  69  92 136 173 232 274 349 400
#
# _framework density 21.844165
#
# number of rings (size 3 to 8) (size 9 to 14) (size 15 to 20)
#    0.000    1.231    3.077    4.154    0.000    0.615 
#    0.000    1.538    0.000    0.923    0.000    0.000 
#    0.000    0.000    0.000    0.000    0.000    0.000 
#
# Total GULP energy -145374.749892 kJ/mol
# GULP energy per Si atom -5591.336534 kJ/mol
# Density = 2.179445 g / cm^3
# Si number density = 21.844165 Si / 1000 Ang^3
#
#
#
# Elastic Constant Matrix: (Units=GPa)
#
#
# Indices 1 2 3 4 5 6 
#
# 1 56.2712 13.8482 26.5648 0.0000 6.6181 0.0000
# 2 13.8482 41.6150 13.9510 0.0000 0.2335 0.0000
# 3 26.5648 13.9510 111.3263 0.0000 12.8047 0.0000
# 4 0.0000 0.0000 0.0000 35.3812 0.0000 2.6008
# 5 6.6181 0.2335 12.8047 0.0000 39.1414 0.0000
# 6 0.0000 0.0000 0.0000 2.6008 0.0000 19.6029
#
#
#
# Elastic Compliance Matrix: (Units=1/GPa)
#
#
# Indices 1 2 3 4 5 6 
#
# 1 0.021392 -0.005721 -0.004131 0.000000 -0.002231 0.000000
# 2 -0.005721 0.026645 -0.002148 0.000000 0.001511 0.000000
# 3 -0.004131 -0.002148 0.010553 0.000000 -0.002741 0.000000
# 4 0.000000 0.000000 0.000000 0.028542 0.000000 -0.003787
# 5 -0.002231 0.001511 -0.002741 0.000000 0.026813 0.000000
# 6 0.000000 0.000000 0.000000 -0.003787 0.000000 0.051515
#
#
# Mechanical properties :
#
#
# Convention : Reuss Voigt Hill
#
# Bulk Modulus (GPa) = 28.91003 35.32672 32.11838
# Shear Modulus (GPa) = 24.87696 29.14834 27.01265
#
# Velocity S-wave (km/s) = 3.37833 3.65687 3.52036
# Velocity P-wave (km/s) = 5.33675 5.83417 5.59099
#
# Compressibility (1/GPa) = 0.03459007
#
# Stress axis : x y z
#
# Youngs Moduli (GPa) = 46.74735 37.53036 94.76230
#
# Poissons Ratio (x) = 0.21472 0.39145
# Poissons Ratio (y) = 0.26745 0.20352
# Poissons Ratio (z) = 0.19311 0.08060
#
# Static dielectric constant tensor:
#      x y z
#    x 1.778010 0.000000 0.022870 
#    y 0.000000 1.833440 0.000000 
#    z 0.022870 0.000000 1.800630 
# 
# From -- ./inp_files/214340.got.cif
#   From: 2010.05.17/outbox.cif.g08.bks.cpg/sg15_108_cif.got.tgz:214340.got - 2010.06.03 18:47:42.
