data_PCOD9276353
_publ_section_title
;
Structure prediction by ZEFSAII (Michael W. Deem and Ramdas Pophale) SiO2 
 PCOD9276353
Probable space group: C 2/C
;
_chemical_formula_sum "Si O2"
_cell_formula_units_Z 36
_cell_length_a 4.824618
_cell_length_b 14.758156
_cell_length_c 21.258154
_cell_angle_alpha 90.000000
_cell_angle_beta 99.264429
_cell_angle_gamma 90.000000
_cell_volume 1493.888920
_symmetry_space_group_name_H-M "C 2/C"
_symmetry_group_IT_number 15
_symmetry_cell_setting 'monoclinic'
loop_
_space_group_symop_operation_xyz
x,y,z
-x,y,1/2-z
-x,-y,-z
x,-y,1/2+z
1/2+x,1/2+y,z
1/2-x,1/2+y,1/2-z
1/2-x,1/2-y,-z
1/2+x,1/2-y,1/2+z
loop_
_atom_site_type_symbol
_atom_site_label
_atom_site_fract_x
_atom_site_fract_y
_atom_site_fract_z
Si Si1 0.761070 0.941278 0.429806
Si Si2 0.620468 0.338624 0.683653
Si Si3 0.500000 0.017855 0.250000
Si Si4 0.245636 0.431765 0.570677
Si Si5 0.118466 0.645838 0.686541
O O1 0.776574 0.898741 0.499803
O O2 0.616118 0.877370 0.373460
O O3 0.568100 0.031318 0.431702
O O4 0.063728 0.976347 0.419093
O O5 0.500000 0.345058 0.750000
O O6 0.843566 0.419111 0.695118
O O7 0.378510 0.362310 0.624806
O O8 0.762412 0.240493 0.673345
O O9 0.293718 0.954126 0.285218
O O10 0.000000 0.674736 0.750000
#
# Coordination Sequence:
#
# PCOD9276353 Si02
#       5
#     8   8   4   8   8
#     4  10  20  40  60  94 121 168 208 255 320 377
#     4  11  22  38  63  89 121 169 211 258 318 380
#     4  10  20  42  56  86 126 158 206 272 308 366
#     4  10  21  37  66  86 127 166 207 258 319 374
#     4   9  20  39  59  93 121 162 212 257 313 380
#
# _framework density 24.098175999999999
#
# number of rings (size 3 to 8) (size 9 to 14) (size 15 to 20)
#    0.667    1.333    2.222    1.333    0.000    0.889 
#   14.000    0.000    0.000    8.000    0.000    0.000 
#    0.000    0.000    0.000    0.000    0.000    0.000 
#
# Total GULP energy -100223.082055 kJ/mol
# GULP energy per Si atom -5567.949003 kJ/mol
# Density = 2.404333 g / cm^3
# Si number density = 24.098176 Si / 1000 Ang^3
#
#
#
# Elastic Constant Matrix: (Units=GPa)
#
#
# Indices 1 2 3 4 5 6 
#
# 1 53.6481 9.5186 9.4012 0.0000 9.1755 0.0000
# 2 9.5186 144.1212 31.1515 0.0000 16.0208 0.0000
# 3 9.4012 31.1515 197.3031 0.0000 12.8503 0.0000
# 4 0.0000 0.0000 0.0000 133.9937 0.0000 -4.7358
# 5 9.1755 16.0208 12.8503 0.0000 33.3871 0.0000
# 6 0.0000 0.0000 0.0000 -4.7358 0.0000 1.5361
#
#
#
# Elastic Compliance Matrix: (Units=1/GPa)
#
#
# Indices 1 2 3 4 5 6 
#
# 1 0.019683 -0.000643 -0.000517 0.000000 -0.004902 0.000000
# 2 -0.000643 0.007529 -0.000958 0.000000 -0.003067 0.000000
# 3 -0.000517 -0.000958 0.005339 0.000000 -0.001453 0.000000
# 4 0.000000 0.000000 0.000000 0.008376 0.000000 0.025822
# 5 -0.004902 -0.003067 -0.001453 0.000000 0.033330 0.000000
# 6 0.000000 0.000000 0.000000 0.025822 0.000000 0.730588
#
#
# Mechanical properties :
#
#
# Convention : Reuss Voigt Hill
#
# Bulk Modulus (GPa) = 35.31856 55.02388 45.17122
# Shear Modulus (GPa) = 6.10858 56.78346 31.44602
#
# Velocity S-wave (km/s) = 1.59386 4.85948 3.61628
# Velocity P-wave (km/s) = 4.25148 7.37352 6.01847
#
# Compressibility (1/GPa) = 0.02831373
#
# Stress axis : x y z
#
# Youngs Moduli (GPa) = 50.80506 132.81626 187.30383
#
# Poissons Ratio (x) = 0.08545 0.09685
# Poissons Ratio (y) = 0.03269 0.17950
# Poissons Ratio (z) = 0.02627 0.12728
#
# Static dielectric constant tensor:
#      x y z
#    x 1.958970 0.000000 -0.035020 
#    y 0.000000 2.085290 0.000000 
#    z -0.035020 0.000000 1.941480 
# 
# From -- ./inp_files/226537.got.cif
#   From: 2010.05.17/outbox.cif.g08.bks.cpg/sg15_114_cif.got.tgz:226537.got - 2010.06.03 18:47:42.
