data_PCOD9276655
_publ_section_title
;
Structure prediction by ZEFSAII (Michael W. Deem and Ramdas Pophale) SiO2 
 PCOD9276655
Probable space group: C 2/C
;
_chemical_formula_sum "Si O2"
_cell_formula_units_Z 52
_cell_length_a 8.666895
_cell_length_b 24.295871
_cell_length_c 11.701898
_cell_angle_alpha 90.000000
_cell_angle_beta 86.770691
_cell_angle_gamma 90.000000
_cell_volume 2460.153145
_symmetry_space_group_name_H-M "C 2/C"
_symmetry_group_IT_number 15
_symmetry_cell_setting 'monoclinic'
loop_
_space_group_symop_operation_xyz
x,y,z
-x,y,1/2-z
-x,-y,-z
x,-y,1/2+z
1/2+x,1/2+y,z
1/2-x,1/2+y,1/2-z
1/2-x,1/2-y,-z
1/2+x,1/2-y,1/2+z
loop_
_atom_site_type_symbol
_atom_site_label
_atom_site_fract_x
_atom_site_fract_y
_atom_site_fract_z
Si Si1 0.864065 0.029015 0.437053
Si Si2 0.435340 0.317896 0.126061
Si Si3 0.988550 0.308263 0.615028
Si Si4 0.000000 0.887388 0.750000
Si Si5 0.883555 0.452121 0.051103
Si Si6 0.156656 0.384804 0.063737
Si Si7 0.199299 0.143293 0.440763
O O1 0.923249 0.072835 0.345179
O O2 0.762999 0.062985 0.531605
O O3 0.752240 0.984848 0.380719
O O4 0.000000 0.000000 0.500000
O O5 0.500000 0.323995 0.250000
O O6 0.427377 0.253113 0.099153
O O7 0.265587 0.344240 0.128342
O O8 0.558760 0.346052 0.034365
O O9 0.162109 0.313131 0.557683
O O10 0.000000 0.319808 0.750000
O O11 0.886431 0.352808 0.552048
O O12 0.125602 0.854412 0.817694
O O13 0.787875 0.414956 0.962590
O O14 0.000000 0.500000 0.000000
O O15 0.992882 0.409036 0.111937
#
# Coordination Sequence:
#
# PCOD9276655 Si02
#       7
#     8   8   8   4   8   8   8
#     4  11  20  39  59  92 124 162 212 259 322 384
#     4  11  23  42  64  92 131 174 218 262 329 389
#     4  10  22  39  67  97 129 165 213 274 334 378
#     4  12  22  36  68  90 128 164 220 266 332 376
#     4   9  20  39  61  86 127 160 208 259 321 376
#     4  10  20  40  64  87 130 165 212 264 312 391
#     4  11  22  42  63  97 126 166 219 271 316 393
#
# _framework density 21.136894999999999
#
# number of rings (size 3 to 8) (size 9 to 14) (size 15 to 20)
#    0.000    1.538    3.077    1.846    0.000    0.000 
#    5.538    4.615    0.000    0.000    0.000    0.000 
#    0.000    0.000    0.000    0.000    0.000    0.000 
#
# Total GULP energy -145011.656580 kJ/mol
# GULP energy per Si atom -5577.371407 kJ/mol
# Density = 2.108879 g / cm^3
# Si number density = 21.136895 Si / 1000 Ang^3
#
#
#
# Elastic Constant Matrix: (Units=GPa)
#
#
# Indices 1 2 3 4 5 6 
#
# 1 106.9364 39.7003 9.0210 0.0000 27.8477 0.0000
# 2 39.7003 88.1087 11.2484 0.0000 26.2093 0.0000
# 3 9.0210 11.2484 39.9804 0.0000 13.6337 0.0000
# 4 0.0000 0.0000 0.0000 7.4687 0.0000 11.2128
# 5 27.8477 26.2093 13.6337 0.0000 26.6236 0.0000
# 6 0.0000 0.0000 0.0000 11.2128 0.0000 15.9723
#
#
#
# Elastic Compliance Matrix: (Units=1/GPa)
#
#
# Indices 1 2 3 4 5 6 
#
# 1 0.013390 -0.002572 0.001957 0.000000 -0.012476 0.000000
# 2 -0.002572 0.016580 0.000684 0.000000 -0.013982 0.000000
# 3 0.001957 0.000684 0.030660 0.000000 -0.018420 0.000000
# 4 0.000000 0.000000 0.000000 -2.482138 0.000000 1.742500
# 5 -0.012476 -0.013982 -0.018420 0.000000 0.073807 0.000000
# 6 0.000000 0.000000 0.000000 1.742500 0.000000 -1.160653
#
#
# Mechanical properties :
#
#
# Convention : Reuss Voigt Hill
#
# Bulk Modulus (GPa) = 16.45635 39.44053 27.94844
# Shear Modulus (GPa) = -1.43339 21.68330 10.12495
#
# Velocity S-wave (km/s) = -0.82439 3.20637 2.19102
# Velocity P-wave (km/s) = 2.62609 5.69278 4.43306
#
# Compressibility (1/GPa) = 0.06076681
#
# Stress axis : x y z
#
# Youngs Moduli (GPa) = 74.68262 60.31187 32.61589
#
# Poissons Ratio (x) = 0.15512 -0.06382
# Poissons Ratio (y) = 0.19209 -0.02229
# Poissons Ratio (z) = -0.14613 -0.04123
#
# Static dielectric constant tensor:
#      x y z
#    x 1.798990 0.000000 0.003810 
#    y 0.000000 1.792950 0.000000 
#    z 0.003810 0.000000 1.750340 
# 
# From -- ./inp_files/80780.got.cif
#   From: 2010.05.17/outbox.cif.g08.bks.cpg/sg15_41_cif.got.tgz:80780.got - 2010.06.03 18:47:42.
