data_PCOD9276663
_publ_section_title
;
Structure prediction by ZEFSAII (Michael W. Deem and Ramdas Pophale) SiO2 
 PCOD9276663
Probable space group: C 2/C
;
_chemical_formula_sum "Si O2"
_cell_formula_units_Z 64
_cell_length_a 10.151635
_cell_length_b 11.918047
_cell_length_c 23.847030
_cell_angle_alpha 90.000000
_cell_angle_beta 106.073431
_cell_angle_gamma 90.000000
_cell_volume 2772.407311
_symmetry_space_group_name_H-M "C 2/C"
_symmetry_group_IT_number 15
_symmetry_cell_setting 'monoclinic'
loop_
_space_group_symop_operation_xyz
x,y,z
-x,y,1/2-z
-x,-y,-z
x,-y,1/2+z
1/2+x,1/2+y,z
1/2-x,1/2+y,1/2-z
1/2-x,1/2-y,-z
1/2+x,1/2-y,1/2+z
loop_
_atom_site_type_symbol
_atom_site_label
_atom_site_fract_x
_atom_site_fract_y
_atom_site_fract_z
Si Si1 0.675468 0.545598 0.520406
Si Si2 0.476177 0.961638 0.306916
Si Si3 0.588569 0.110023 0.023394
Si Si4 0.914250 0.818738 0.977370
Si Si5 0.777296 0.079235 0.849979
Si Si6 0.108532 0.747697 0.644552
Si Si7 0.808633 0.829437 0.642393
Si Si8 0.218891 0.916555 0.745095
O O1 0.810439 0.614060 0.518911
O O2 0.680861 0.413626 0.505341
O O3 0.547502 0.606517 0.477565
O O4 0.646517 0.555518 0.583366
O O5 0.500000 0.897113 0.250000
O O6 0.629663 0.980954 0.344511
O O7 0.399024 0.882686 0.341188
O O8 0.378950 0.063109 0.278943
O O9 0.697427 0.113778 0.087743
O O10 0.483958 0.213906 0.016649
O O11 0.500000 0.000000 0.000000
O O12 0.845174 0.773334 0.912732
O O13 0.756842 0.211991 0.843803
O O14 0.827079 0.022007 0.798761
O O15 0.952086 0.792208 0.632109
O O16 0.194043 0.811645 0.701873
O O17 0.845794 0.901256 0.701648
#
# Coordination Sequence:
#
# PCOD9276663 Si02
#       8
#     8   8   8   8   8   8   8   8
#     4  11  22  43  69  99 126 165 228 273 322 394
#     4   9  20  35  59  86 116 157 211 258 313 381
#     4  12  26  42  68  99 137 177 209 275 352 405
#     4  11  23  41  71  98 124 168 228 274 325 393
#     4  10  20  40  64  88 124 160 211 273 312 382
#     4  11  20  39  62  89 120 162 209 270 314 381
#     4  11  23  40  62  92 129 162 216 266 325 401
#     4  11  21  35  60  94 119 162 204 261 331 375
#
# _framework density 23.084629
#
# number of rings (size 3 to 8) (size 9 to 14) (size 15 to 20)
#    0.000    1.250    3.750    4.500    3.500    0.500 
#    0.000    0.000    0.000   18.000    0.000    0.000 
#    0.000    0.000    0.000    0.000    0.000    0.000 
#
# Total GULP energy -178574.316676 kJ/mol
# GULP energy per Si atom -5580.447396 kJ/mol
# Density = 2.303209 g / cm^3
# Si number density = 23.084629 Si / 1000 Ang^3
#
#
#
# Elastic Constant Matrix: (Units=GPa)
#
#
# Indices 1 2 3 4 5 6 
#
# 1 37.8376 26.5963 11.6110 0.0000 14.4896 0.0000
# 2 26.5963 88.2003 25.9734 0.0000 11.2698 0.0000
# 3 11.6110 25.9734 118.2471 0.0000 21.1912 0.0000
# 4 0.0000 0.0000 0.0000 29.4635 0.0000 8.8490
# 5 14.4896 11.2698 21.1912 0.0000 27.7132 0.0000
# 6 0.0000 0.0000 0.0000 8.8490 0.0000 26.6980
#
#
#
# Elastic Compliance Matrix: (Units=1/GPa)
#
#
# Indices 1 2 3 4 5 6 
#
# 1 0.040014 -0.010225 0.001531 0.000000 -0.017933 0.000000
# 2 -0.010225 0.015010 -0.002500 0.000000 0.001154 0.000000
# 3 0.001531 -0.002500 0.010217 0.000000 -0.007596 0.000000
# 4 0.000000 0.000000 0.000000 0.037692 0.000000 -0.012493
# 5 -0.017933 0.001154 -0.007596 0.000000 0.050800 0.000000
# 6 0.000000 0.000000 0.000000 -0.012493 0.000000 0.041597
#
#
# Mechanical properties :
#
#
# Convention : Reuss Voigt Hill
#
# Bulk Modulus (GPa) = 23.33601 41.40516 32.37059
# Shear Modulus (GPa) = 21.55155 28.78189 25.16672
#
# Velocity S-wave (km/s) = 3.05878 3.53483 3.30539
# Velocity P-wave (km/s) = 4.75455 5.88517 5.34981
#
# Compressibility (1/GPa) = 0.04285223
#
# Stress axis : x y z
#
# Youngs Moduli (GPa) = 24.99141 66.62262 97.87630
#
# Poissons Ratio (x) = 0.68124 -0.14983
# Poissons Ratio (y) = 0.25554 0.24466
# Poissons Ratio (z) = -0.03826 0.16654
#
# Static dielectric constant tensor:
#      x y z
#    x 1.895290 0.000000 -0.015440 
#    y 0.000000 1.921840 0.000000 
#    z -0.015440 0.000000 1.917750 
# 
# From -- ./inp_files/268913.got.cif
#   From: 2010.05.17/outbox.cif.g08.bks.cpg/sg15_135_cif.got.tgz:268913.got - 2010.06.03 18:47:42.
