data_PCOD9276647
_publ_section_title
;
Structure prediction by ZEFSAII (Michael W. Deem and Ramdas Pophale) SiO2 
 PCOD9276647
Probable space group: C 2/C
;
_chemical_formula_sum "Si O2"
_cell_formula_units_Z 36
_cell_length_a 23.171749
_cell_length_b 7.413658
_cell_length_c 14.405264
_cell_angle_alpha 90.000000
_cell_angle_beta 135.964487
_cell_angle_gamma 90.000000
_cell_volume 1720.134607
_symmetry_space_group_name_H-M "C 2/C"
_symmetry_group_IT_number 15
_symmetry_cell_setting 'monoclinic'
loop_
_space_group_symop_operation_xyz
x,y,z
-x,y,1/2-z
-x,-y,-z
x,-y,1/2+z
1/2+x,1/2+y,z
1/2-x,1/2+y,1/2-z
1/2-x,1/2-y,-z
1/2+x,1/2-y,1/2+z
loop_
_atom_site_type_symbol
_atom_site_label
_atom_site_fract_x
_atom_site_fract_y
_atom_site_fract_z
Si Si1 0.000000 0.969089 0.750000
Si Si2 0.591016 0.955156 0.068001
Si Si3 0.628853 0.218267 0.433093
Si Si4 0.575523 0.586417 0.146602
Si Si5 0.681613 0.232031 0.292347
O O1 0.071367 0.104934 0.869633
O O2 0.038628 0.868763 0.706089
O O3 0.610397 0.760843 0.135510
O O4 0.654063 0.105407 0.176750
O O5 0.591873 0.929985 0.958855
O O6 0.500000 0.000000 0.000000
O O7 0.638066 0.161538 0.336763
O O8 0.720918 0.262354 0.576245
O O9 0.644728 0.431819 0.236313
O O10 0.500000 0.500000 0.000000
#
# Coordination Sequence:
#
# PCOD9276647 Si02
#       5
#     4   8   8   8   8
#     4  10  20  40  64  86 130 162 202 258 312 370
#     4  12  23  39  67  95 123 165 214 252 311 379
#     4  10  22  42  65  88 130 166 201 265 312 361
#     4  11  21  40  62  91 124 164 206 250 315 368
#     4  10  24  43  61  93 128 163 209 257 311 371
#
# _framework density 20.928595999999999
#
# number of rings (size 3 to 8) (size 9 to 14) (size 15 to 20)
#    0.000    1.333    4.444    1.333    3.111    1.778 
#    0.000   10.000    0.000    0.000    0.000    0.000 
#    0.000    0.000    0.000    0.000    0.000    0.000 
#
# Total GULP energy -100644.579951 kJ/mol
# GULP energy per Si atom -5591.365553 kJ/mol
# Density = 2.088096 g / cm^3
# Si number density = 20.928596 Si / 1000 Ang^3
#
#
#
# Elastic Constant Matrix: (Units=GPa)
#
#
# Indices 1 2 3 4 5 6 
#
# 1 81.8043 16.1301 4.9511 0.0000 -10.7258 0.0000
# 2 16.1301 59.9959 10.3124 0.0000 -4.1007 0.0000
# 3 4.9511 10.3124 67.6636 0.0000 15.4273 0.0000
# 4 0.0000 0.0000 0.0000 30.4666 0.0000 -11.4611
# 5 -10.7258 -4.1007 15.4273 0.0000 40.5379 0.0000
# 6 0.0000 0.0000 0.0000 -11.4611 0.0000 20.7429
#
#
#
# Elastic Compliance Matrix: (Units=1/GPa)
#
#
# Indices 1 2 3 4 5 6 
#
# 1 0.013413 -0.003116 -0.001362 0.000000 0.003752 0.000000
# 2 -0.003116 0.018176 -0.003037 0.000000 0.002170 0.000000
# 3 -0.001362 -0.003037 0.016966 0.000000 -0.007124 0.000000
# 4 0.000000 0.000000 0.000000 0.041435 0.000000 0.022894
# 5 0.003752 0.002170 -0.007124 0.000000 0.028592 0.000000
# 6 0.000000 0.000000 0.000000 0.022894 0.000000 0.060859
#
#
# Mechanical properties :
#
#
# Convention : Reuss Voigt Hill
#
# Bulk Modulus (GPa) = 29.82805 30.25009 30.03907
# Shear Modulus (GPa) = 24.31374 30.22083 27.26729
#
# Velocity S-wave (km/s) = 3.41214 3.80412 3.61345
# Velocity P-wave (km/s) = 5.45956 5.81209 5.63858
#
# Compressibility (1/GPa) = 0.03352549
#
# Stress axis : x y z
#
# Youngs Moduli (GPa) = 74.55445 55.01835 58.94202
#
# Poissons Ratio (x) = 0.17141 0.08029
# Poissons Ratio (y) = 0.23228 0.17900
# Poissons Ratio (z) = 0.10155 0.16708
#
# Static dielectric constant tensor:
#      x y z
#    x 1.799900 0.000000 -0.031120 
#    y 0.000000 1.735570 0.000000 
#    z -0.031120 0.000000 1.730880 
# 
# From -- ./inp_files/165910.got.cif
#   From: 2010.05.17/outbox.cif.g08.bks.cpg/sg15_83_cif.got.tgz:165910.got - 2010.06.03 18:47:42.
