data_PCOD9276747
_publ_section_title
;
Structure prediction by ZEFSAII (Michael W. Deem and Ramdas Pophale) SiO2 
 PCOD9276747
Probable space group: C 2/C
;
_chemical_formula_sum "Si O2"
_cell_formula_units_Z 48
_cell_length_a 7.534465
_cell_length_b 27.995609
_cell_length_c 14.507912
_cell_angle_alpha 90.000000
_cell_angle_beta 143.417574
_cell_angle_gamma 90.000000
_cell_volume 1823.802975
_symmetry_space_group_name_H-M "C 2/C"
_symmetry_group_IT_number 15
_symmetry_cell_setting 'monoclinic'
loop_
_space_group_symop_operation_xyz
x,y,z
-x,y,1/2-z
-x,-y,-z
x,-y,1/2+z
1/2+x,1/2+y,z
1/2-x,1/2+y,1/2-z
1/2-x,1/2-y,-z
1/2+x,1/2-y,1/2+z
loop_
_atom_site_type_symbol
_atom_site_label
_atom_site_fract_x
_atom_site_fract_y
_atom_site_fract_z
Si Si1 0.286256 0.524344 0.575600
Si Si2 0.980087 0.710434 0.381064
Si Si3 0.570094 0.578555 0.386868
Si Si4 0.885693 0.381296 0.296025
Si Si5 0.270343 0.389166 0.950518
Si Si6 0.163390 0.286163 0.146270
O O1 0.500000 0.541022 0.750000
O O2 0.456575 0.478058 0.605226
O O3 0.161156 0.560326 0.445235
O O4 0.000000 0.500000 0.500000
O O5 0.250000 0.750000 0.500000
O O6 0.089308 0.659647 0.389791
O O7 0.923025 0.708145 0.465528
O O8 0.726292 0.734197 0.213497
O O9 0.500000 0.588453 0.250000
O O10 0.389198 0.604582 0.395045
O O11 0.914323 0.595605 0.542537
O O12 0.937121 0.324715 0.322047
O O13 0.000000 0.404797 0.250000
O O14 0.538301 0.384309 0.136004
O O15 0.500000 0.300662 0.250000
#
# Coordination Sequence:
#
# PCOD9276747 Si02
#       6
#     8   8   8   8   8   8
#     4  11  25  43  74 113 151 189 243 296 362 444
#     4  10  21  39  66  99 135 172 244 291 350 429
#     4  10  24  46  64 107 150 180 242 302 363 427
#     4  10  21  40  72  96 132 189 238 287 363 434
#     4  11  22  43  75 101 140 199 235 292 370 434
#     4  10  20  40  64  95 134 169 241 287 352 425
#
# _framework density 26.318632000000001
#
# number of rings (size 3 to 8) (size 9 to 14) (size 15 to 20)
#    0.000    1.667    3.333    1.500    4.667    0.000 
#   12.000    7.500    0.000    1.000    0.000    0.000 
#    0.000    0.000    0.000    0.000    0.000    0.000 
#
# Total GULP energy -133964.590844 kJ/mol
# GULP energy per Si atom -5581.857952 kJ/mol
# Density = 2.625873 g / cm^3
# Si number density = 26.318632 Si / 1000 Ang^3
#
#
#
# Elastic Constant Matrix: (Units=GPa)
#
#
# Indices 1 2 3 4 5 6 
#
# 1 84.7906 53.0679 56.6509 0.0000 -26.4755 0.0000
# 2 53.0679 164.2521 72.7235 0.0000 -21.4543 0.0000
# 3 56.6509 72.7235 167.2103 0.0000 -38.5531 0.0000
# 4 0.0000 0.0000 0.0000 46.0540 0.0000 -4.0969
# 5 -26.4755 -21.4543 -38.5531 0.0000 34.3250 0.0000
# 6 0.0000 0.0000 0.0000 -4.0969 0.0000 17.3942
#
#
#
# Elastic Compliance Matrix: (Units=1/GPa)
#
#
# Indices 1 2 3 4 5 6 
#
# 1 0.018723 -0.003689 -0.002619 0.000000 0.009194 0.000000
# 2 -0.003689 0.008316 -0.002462 0.000000 -0.000413 0.000000
# 3 -0.002619 -0.002462 0.009606 0.000000 0.007230 0.000000
# 4 0.000000 0.000000 0.000000 0.022178 0.000000 0.005224
# 5 0.009194 -0.000413 0.007230 0.000000 0.044087 0.000000
# 6 0.000000 0.000000 0.000000 0.005224 0.000000 0.058721
#
#
# Mechanical properties :
#
#
# Convention : Reuss Voigt Hill
#
# Bulk Modulus (GPa) = 52.34364 86.79306 69.56835
# Shear Modulus (GPa) = 26.94834 35.14202 31.04518
#
# Velocity S-wave (km/s) = 3.20336 3.65808 3.43824
# Velocity P-wave (km/s) = 5.79772 7.13382 6.50019
#
# Compressibility (1/GPa) = 0.01910452
#
# Stress axis : x y z
#
# Youngs Moduli (GPa) = 53.40969 120.24621 104.10411
#
# Poissons Ratio (x) = 0.44354 0.27268
# Poissons Ratio (y) = 0.19701 0.25635
# Poissons Ratio (z) = 0.13990 0.29610
#
# Static dielectric constant tensor:
#      x y z
#    x 2.285240 0.000000 0.086240 
#    y 0.000000 2.292520 0.000000 
#    z 0.086240 0.000000 2.205620 
# 
# From -- ./inp_files/139058.got.cif
#   From: 2010.05.17/outbox.cif.g08.bks.cpg/sg15_70_cif.got.tgz:139058.got - 2010.06.03 18:47:42.
