data_PCOD9276046
_publ_section_title
;
Structure prediction by ZEFSAII (Michael W. Deem and Ramdas Pophale) SiO2 
 PCOD9276046
Probable space group: C 2/C
;
_chemical_formula_sum "Si O2"
_cell_formula_units_Z 48
_cell_length_a 16.224066
_cell_length_b 11.810410
_cell_length_c 14.301927
_cell_angle_alpha 90.000000
_cell_angle_beta 117.371065
_cell_angle_gamma 90.000000
_cell_volume 2433.635427
_symmetry_space_group_name_H-M "C 2/C"
_symmetry_group_IT_number 15
_symmetry_cell_setting 'monoclinic'
loop_
_space_group_symop_operation_xyz
x,y,z
-x,y,1/2-z
-x,-y,-z
x,-y,1/2+z
1/2+x,1/2+y,z
1/2-x,1/2+y,1/2-z
1/2-x,1/2-y,-z
1/2+x,1/2-y,1/2+z
loop_
_atom_site_type_symbol
_atom_site_label
_atom_site_fract_x
_atom_site_fract_y
_atom_site_fract_z
Si Si1 0.107010 0.114429 0.272756
Si Si2 0.332372 0.822827 0.087764
Si Si3 0.231691 0.035284 0.975914
Si Si4 0.595332 0.143751 0.523447
Si Si5 0.577287 0.599238 0.042426
Si Si6 0.501389 0.052429 0.638141
O O1 0.132149 0.244587 0.310045
O O2 0.115225 0.095094 0.167520
O O3 0.000000 0.095161 0.250000
O O4 0.177819 0.035741 0.367593
O O5 0.423887 0.850752 0.075006
O O6 0.250000 0.750000 0.000000
O O7 0.290286 0.948050 0.071665
O O8 0.301721 0.125604 0.965948
O O9 0.153282 0.078749 0.003208
O O10 0.554378 0.269439 0.509856
O O11 0.590443 0.088716 0.624752
O O12 0.531993 0.065256 0.423841
O O13 0.500000 0.500000 0.000000
O O14 0.500000 0.046402 0.750000
#
# Coordination Sequence:
#
# PCOD9276046 Si02
#       6
#     8   8   8   8   8   8
#     4  11  21  39  65  93 124 173 221 268 327 385
#     4   9  19  35  63  93 122 156 217 274 311 378
#     4  10  23  42  61  95 132 167 219 275 328 387
#     4  10  23  41  63  94 132 164 209 277 320 381
#     4  12  24  40  64  90 130 174 214 262 327 398
#     4  10  20  39  67  93 124 166 214 260 329 387
#
# _framework density 19.723579999999998
#
# number of rings (size 3 to 8) (size 9 to 14) (size 15 to 20)
#    0.000    1.667    1.667    3.000    2.333    4.000 
#    3.000    0.000    0.000    0.000    0.000    0.000 
#    0.000    0.000    0.000    0.000    0.000    0.000 
#
# Total GULP energy -133627.080441 kJ/mol
# GULP energy per Si atom -5567.795018 kJ/mol
# Density = 1.967869 g / cm^3
# Si number density = 19.723580 Si / 1000 Ang^3
#
#
#
# Elastic Constant Matrix: (Units=GPa)
#
#
# Indices 1 2 3 4 5 6 
#
# 1 121.1781 56.6039 47.0939 0.0000 -19.3710 0.0000
# 2 56.6039 127.6010 55.0038 0.0000 -11.2298 0.0000
# 3 47.0939 55.0038 89.2133 0.0000 -22.5943 0.0000
# 4 0.0000 0.0000 0.0000 36.2066 0.0000 -1.8583
# 5 -19.3710 -11.2298 -22.5943 0.0000 35.2722 0.0000
# 6 0.0000 0.0000 0.0000 -1.8583 0.0000 34.6792
#
#
#
# Elastic Compliance Matrix: (Units=1/GPa)
#
#
# Indices 1 2 3 4 5 6 
#
# 1 0.011641 -0.003519 -0.003151 0.000000 0.003254 0.000000
# 2 -0.003519 0.011766 -0.005893 0.000000 -0.001962 0.000000
# 3 -0.003151 -0.005893 0.018612 0.000000 0.008315 0.000000
# 4 0.000000 0.000000 0.000000 0.027695 0.000000 0.001484
# 5 0.003254 -0.001962 0.008315 0.000000 0.034840 0.000000
# 6 0.000000 0.000000 0.000000 0.001484 0.000000 0.028915
#
#
# Mechanical properties :
#
#
# Convention : Reuss Voigt Hill
#
# Bulk Modulus (GPa) = 59.20141 72.82172 66.01157
# Shear Modulus (GPa) = 30.44563 33.18432 31.81498
#
# Velocity S-wave (km/s) = 3.93315 4.10624 4.02063
# Velocity P-wave (km/s) = 7.12088 7.71252 7.42260
#
# Compressibility (1/GPa) = 0.01689149
#
# Stress axis : x y z
#
# Youngs Moduli (GPa) = 85.90299 84.99247 53.72902
#
# Poissons Ratio (x) = 0.29911 0.16931
# Poissons Ratio (y) = 0.30231 0.31664
# Poissons Ratio (z) = 0.27069 0.50088
#
# Static dielectric constant tensor:
#      x y z
#    x 1.746460 0.000000 0.034720 
#    y 0.000000 1.753930 0.000000 
#    z 0.034720 0.000000 1.736700 
# 
# From -- ./inp_files/152162.got.cif
#   From: 2010.05.17/outbox.cif.g08.bks.cpg/sg15_77_cif.got.tgz:152162.got - 2010.06.03 18:47:42.
