data_PCOD9276136
_publ_section_title
;
Structure prediction by ZEFSAII (Michael W. Deem and Ramdas Pophale) SiO2 
 PCOD9276136
Probable space group: C 2/C
;
_chemical_formula_sum "Si O2"
_cell_formula_units_Z 40
_cell_length_a 24.855925
_cell_length_b 11.353002
_cell_length_c 20.384879
_cell_angle_alpha 90.000000
_cell_angle_beta 16.800468
_cell_angle_gamma 90.000000
_cell_volume 1662.670358
_symmetry_space_group_name_H-M "C 2/C"
_symmetry_group_IT_number 15
_symmetry_cell_setting 'monoclinic'
loop_
_space_group_symop_operation_xyz
x,y,z
-x,y,1/2-z
-x,-y,-z
x,-y,1/2+z
1/2+x,1/2+y,z
1/2-x,1/2+y,1/2-z
1/2-x,1/2-y,-z
1/2+x,1/2-y,1/2+z
loop_
_atom_site_type_symbol
_atom_site_label
_atom_site_fract_x
_atom_site_fract_y
_atom_site_fract_z
Si Si1 0.920576 0.368359 0.602939
Si Si2 0.613873 0.376730 0.855472
Si Si3 0.217267 0.356328 0.986166
Si Si4 0.515666 0.822106 0.640969
Si Si5 0.676581 0.597903 0.628107
O O1 0.727371 0.371596 0.790459
O O2 0.958479 0.351636 0.635037
O O3 0.000000 0.500000 0.500000
O O4 0.000389 0.244853 0.481802
O O5 0.744875 0.359889 0.637097
O O6 0.500000 0.500000 0.000000
O O7 0.000000 0.388636 0.250000
O O8 0.250000 0.250000 0.000000
O O9 0.357613 0.461489 0.841903
O O10 0.498238 0.682393 0.674427
O O11 0.714278 0.873171 0.430864
O O12 0.343586 0.869757 0.884276
#
# Coordination Sequence:
#
# PCOD9276136 Si02
#       5
#     8   8   8   8   8
#     4  12  25  42  73 105 150 192 248 308 384 444
#     4  12  27  49  74 110 148 199 258 315 381 463
#     4  12  26  48  71 100 149 197 245 304 372 451
#     4  10  20  39  68  98 135 177 228 297 363 428
#     4  10  21  41  67  98 137 176 240 293 364 427
#
# _framework density 24.057683999999998
#
# number of rings (size 3 to 8) (size 9 to 14) (size 15 to 20)
#    0.000    0.800    2.000    6.000    2.800    0.000 
#    7.200    0.000    0.000    0.000    0.000    0.000 
#    0.000    0.000    0.000    0.000    0.000    0.000 
#
# Total GULP energy -111487.976214 kJ/mol
# GULP energy per Si atom -5574.398811 kJ/mol
# Density = 2.400293 g / cm^3
# Si number density = 24.057684 Si / 1000 Ang^3
#
#
#
# Elastic Constant Matrix: (Units=GPa)
#
#
# Indices 1 2 3 4 5 6 
#
# 1 118.7591 35.7008 40.9184 -0.0023 19.9575 0.0004
# 2 35.7008 196.2377 36.8003 -0.0028 -5.4287 0.0012
# 3 40.9184 36.8003 70.6655 -0.0054 5.9283 0.0015
# 4 -0.0023 -0.0028 -0.0054 45.5246 0.0021 -11.1903
# 5 19.9575 -5.4287 5.9283 0.0021 54.2672 -0.0004
# 6 0.0004 0.0012 0.0015 -11.1903 -0.0004 28.1969
#
#
#
# Elastic Compliance Matrix: (Units=1/GPa)
#
#
# Indices 1 2 3 4 5 6 
#
# 1 0.011320 -0.001096 -0.005678 0.000000 -0.003652 0.000000
# 2 -0.001096 0.005797 -0.002490 0.000000 0.001255 0.000000
# 3 -0.005678 -0.002490 0.018753 0.000002 -0.000210 0.000000
# 4 0.000000 0.000000 0.000002 0.024341 -0.000001 0.009660
# 5 -0.003652 0.001255 -0.000210 -0.000001 0.019919 0.000000
# 6 0.000000 0.000000 0.000000 0.009660 0.000000 0.039299
#
#
# Mechanical properties :
#
#
# Convention : Reuss Voigt Hill
#
# Bulk Modulus (GPa) = 57.65820 68.05569 62.85695
# Shear Modulus (GPa) = 34.78632 43.74726 39.26679
#
# Velocity S-wave (km/s) = 3.80670 4.26893 4.04442
# Velocity P-wave (km/s) = 6.58331 7.25592 6.92778
#
# Compressibility (1/GPa) = 0.01734359
#
# Stress axis : x y z
#
# Youngs Moduli (GPa) = 88.34081 172.50961 53.32516
#
# Poissons Ratio (x) = 0.18902 0.30276
# Poissons Ratio (y) = 0.09679 0.13276
# Poissons Ratio (z) = 0.50157 0.42948
#
# Static dielectric constant tensor:
#      x y z
#    x 1.792250 0.000120 0.197410 
#    y 0.000120 2.484900 -0.000070 
#    z 0.197410 -0.000070 1.776530 
# 
# From -- ./inp_files/255413.got.cif
#   From: 2010.05.17/outbox.cif.g08.bks.cpg/sg15_128_cif.got.tgz:255413.got - 2010.06.03 18:47:42.
