data_PCOD9276693
_publ_section_title
;
Structure prediction by ZEFSAII (Michael W. Deem and Ramdas Pophale) SiO2 
 PCOD9276693
Probable space group: C 2/C
;
_chemical_formula_sum "Si O2"
_cell_formula_units_Z 60
_cell_length_a 30.759314
_cell_length_b 13.345363
_cell_length_c 16.659483
_cell_angle_alpha 90.000000
_cell_angle_beta 154.288085
_cell_angle_gamma 90.000000
_cell_volume 2966.911652
_symmetry_space_group_name_H-M "C 2/C"
_symmetry_group_IT_number 15
_symmetry_cell_setting 'monoclinic'
loop_
_space_group_symop_operation_xyz
x,y,z
-x,y,1/2-z
-x,-y,-z
x,-y,1/2+z
1/2+x,1/2+y,z
1/2-x,1/2+y,1/2-z
1/2-x,1/2-y,-z
1/2+x,1/2-y,1/2+z
loop_
_atom_site_type_symbol
_atom_site_label
_atom_site_fract_x
_atom_site_fract_y
_atom_site_fract_z
Si Si1 0.500000 0.810534 0.750000
Si Si2 0.860820 0.712301 0.155238
Si Si3 0.649471 0.648817 0.307268
Si Si4 0.062577 0.175409 0.573119
Si Si5 0.255398 0.034805 0.915497
Si Si6 0.758124 0.803668 0.380551
Si Si7 0.639570 0.960239 0.077408
Si Si8 0.413154 0.819521 0.037031
O O1 0.586408 0.753744 0.841526
O O2 0.444069 0.881748 0.592800
O O3 0.932594 0.747000 0.345178
O O4 0.750000 0.750000 0.000000
O O5 0.838760 0.596164 0.102996
O O6 0.729602 0.566049 0.416959
O O7 0.677902 0.747274 0.303780
O O8 0.657105 0.664539 0.414746
O O9 0.540376 0.615586 0.098705
O O10 0.157297 0.103595 0.741629
O O11 0.063884 0.238577 0.493512
O O12 0.294923 0.017999 0.892617
O O13 0.707180 0.898655 0.252770
O O14 0.811372 0.725091 0.408696
O O15 0.598472 0.071799 0.025509
O O16 0.500000 0.827640 0.250000
#
# Coordination Sequence:
#
# PCOD9276693 Si02
#       8
#     4   8   8   8   8   8   8   8
#     4  10  20  40  64  90 130 168 212 274 324 388
#     4   9  21  39  62  95 129 172 219 267 331 392
#     4  11  23  40  62  91 129 166 215 269 325 391
#     4  11  22  40  64  93 127 167 214 271 324 391
#     4  10  21  39  64  88 129 171 212 270 326 388
#     4  11  24  41  62  92 127 169 212 264 328 391
#     4  11  22  40  64  94 124 170 217 264 328 389
#     4  12  23  42  65  95 130 167 216 268 325 388
#
# _framework density 20.223049
#
# number of rings (size 3 to 8) (size 9 to 14) (size 15 to 20)
#    0.000    1.333    4.667    1.200    1.867    0.000 
#    0.000    1.333    0.000    0.000    0.000    0.000 
#    0.000    0.000    0.000    0.000    0.000    0.000 
#
# Total GULP energy -167194.595414 kJ/mol
# GULP energy per Si atom -5573.153180 kJ/mol
# Density = 2.017702 g / cm^3
# Si number density = 20.223049 Si / 1000 Ang^3
#
#
#
# Elastic Constant Matrix: (Units=GPa)
#
#
# Indices 1 2 3 4 5 6 
#
# 1 75.5063 18.1499 5.0981 0.0000 3.8691 0.0000
# 2 18.1499 65.8040 5.7644 0.0000 -11.7677 0.0000
# 3 5.0981 5.7644 66.4695 0.0000 4.1578 0.0000
# 4 0.0000 0.0000 0.0000 16.0649 0.0000 -1.5605
# 5 3.8691 -11.7677 4.1578 0.0000 23.3171 0.0000
# 6 0.0000 0.0000 0.0000 -1.5605 0.0000 22.1886
#
#
#
# Elastic Compliance Matrix: (Units=1/GPa)
#
#
# Indices 1 2 3 4 5 6 
#
# 1 0.014692 -0.004881 -0.000401 0.000000 -0.004829 0.000000
# 2 -0.004881 0.018592 -0.001897 0.000000 0.010531 0.000000
# 3 -0.000401 -0.001897 0.015468 0.000000 -0.003649 0.000000
# 4 0.000000 0.000000 0.000000 0.062676 0.000000 0.004408
# 5 -0.004829 0.010531 -0.003649 0.000000 0.049654 0.000000
# 6 0.000000 0.000000 0.000000 0.004408 0.000000 0.045378
#
#
# Mechanical properties :
#
#
# Convention : Reuss Voigt Hill
#
# Bulk Modulus (GPa) = 29.07474 29.53383 29.30428
# Shear Modulus (GPa) = 21.52549 24.23194 22.87872
#
# Velocity S-wave (km/s) = 3.26606 3.46531 3.36716
# Velocity P-wave (km/s) = 5.35080 5.53596 5.44417
#
# Compressibility (1/GPa) = 0.03439412
#
# Stress axis : x y z
#
# Youngs Moduli (GPa) = 68.06556 53.78574 64.64950
#
# Poissons Ratio (x) = 0.26251 0.02596
# Poissons Ratio (y) = 0.33221 0.12262
# Poissons Ratio (z) = 0.02733 0.10202
#
# Static dielectric constant tensor:
#      x y z
#    x 1.746410 0.000000 0.050150 
#    y 0.000000 1.752260 0.000000 
#    z 0.050150 0.000000 1.739470 
# 
# From -- ./inp_files/178564.got.cif
#   From: 2010.05.17/outbox.cif.g08.bks.cpg/sg15_90_cif.got.tgz:178564.got - 2010.06.03 18:47:42.
