data_PCOD9276371
_publ_section_title
;
Structure prediction by ZEFSAII (Michael W. Deem and Ramdas Pophale) SiO2 
 PCOD9276371
Probable space group: C 2/C
;
_chemical_formula_sum "Si O2"
_cell_formula_units_Z 56
_cell_length_a 10.093780
_cell_length_b 32.019156
_cell_length_c 21.454866
_cell_angle_alpha 90.000000
_cell_angle_beta 153.277025
_cell_angle_gamma 90.000000
_cell_volume 3118.102479
_symmetry_space_group_name_H-M "C 2/C"
_symmetry_group_IT_number 15
_symmetry_cell_setting 'monoclinic'
loop_
_space_group_symop_operation_xyz
x,y,z
-x,y,1/2-z
-x,-y,-z
x,-y,1/2+z
1/2+x,1/2+y,z
1/2-x,1/2+y,1/2-z
1/2-x,1/2-y,-z
1/2+x,1/2-y,1/2+z
loop_
_atom_site_type_symbol
_atom_site_label
_atom_site_fract_x
_atom_site_fract_y
_atom_site_fract_z
Si Si1 0.000000 0.077825 0.750000
Si Si2 0.849833 0.717159 0.381337
Si Si3 0.831955 0.971728 0.977284
Si Si4 0.183300 0.712998 0.390337
Si Si5 0.973330 0.623516 0.030897
Si Si6 0.180874 0.380440 0.890595
Si Si7 0.500000 0.565187 0.250000
Si Si8 0.213068 0.008239 0.754353
O O1 0.225359 0.045628 0.810235
O O2 0.822834 0.106531 0.626298
O O3 0.500000 0.721857 0.250000
O O4 0.951938 0.717327 0.351040
O O5 0.054705 0.753640 0.495309
O O6 0.957033 0.672005 0.451612
O O7 0.850862 0.924021 0.962658
O O8 0.511124 0.992380 0.848333
O O9 0.981965 0.975199 0.107274
O O10 0.000000 0.000000 0.000000
O O11 0.317301 0.666000 0.449226
O O12 0.000000 0.717766 0.250000
O O13 0.976354 0.617665 0.107504
O O14 0.236665 0.594661 0.117741
O O15 0.000000 0.381106 0.750000
O O16 0.405522 0.533662 0.263989
#
# Coordination Sequence:
#
# PCOD9276371 Si02
#       8
#     4   8   8   8   8   8   4   8
#     4  11  22  38  56  90 124 152 188 246 313 344
#     4  10  21  39  64  94 120 152 204 248 297 369
#     4  12  23  37  58  83 115 158 207 243 283 343
#     4   9  21  40  64  87 122 160 194 247 312 355
#     4  11  21  37  63  90 119 151 197 248 299 357
#     4  10  20  40  61  82 116 162 199 239 291 356
#     4  11  20  36  60  86 114 154 196 242 299 352
#     4  11  22  38  56  83 119 155 194 246 298 346
#
# _framework density 17.95964
#
# number of rings (size 3 to 8) (size 9 to 14) (size 15 to 20)
#    0.000    1.429    3.571    2.143    1.000    2.857 
#    0.000    1.429    0.000    0.000    0.000    0.000 
#    0.000    0.000    0.000    0.000    0.000    0.000 
#
# Total GULP energy -155961.731980 kJ/mol
# GULP energy per Si atom -5570.061856 kJ/mol
# Density = 1.791876 g / cm^3
# Si number density = 17.959640 Si / 1000 Ang^3
#
#
#
# Elastic Constant Matrix: (Units=GPa)
#
#
# Indices 1 2 3 4 5 6 
#
# 1 92.8105 63.4298 43.3381 0.0003 -3.9331 0.0021
# 2 63.4298 190.1846 72.0917 0.0046 7.9024 -0.0048
# 3 43.3381 72.0917 86.1700 -0.0190 -1.1952 0.0321
# 4 0.0003 0.0046 -0.0190 19.7360 -0.0008 15.6576
# 5 -3.9331 7.9024 -1.1952 -0.0008 31.4101 -0.0010
# 6 0.0021 -0.0048 0.0321 15.6576 -0.0010 -8.1303
#
#
#
# Elastic Compliance Matrix: (Units=1/GPa)
#
#
# Indices 1 2 3 4 5 6 
#
# 1 0.015515 -0.003426 -0.004901 0.000003 0.002618 -0.000008
# 2 -0.003426 0.008609 -0.005518 0.000006 -0.002805 -0.000016
# 3 -0.004901 -0.005518 0.018707 -0.000016 0.001486 0.000045
# 4 0.000003 0.000006 -0.000016 0.020044 0.000000 0.038602
# 5 0.002618 -0.002805 0.001486 0.000000 0.032927 0.000004
# 6 -0.000008 -0.000016 0.000045 0.038602 0.000004 -0.048656
#
#
# Mechanical properties :
#
#
# Convention : Reuss Voigt Hill
#
# Bulk Modulus (GPa) = 66.04377 80.76492 73.40434
# Shear Modulus (GPa) = 62.59117 21.29020 41.94069
#
# Velocity S-wave (km/s) = 5.90988 3.44677 4.83771
# Velocity P-wave (km/s) = 9.13357 7.80437 8.49501
#
# Compressibility (1/GPa) = 0.01514147
#
# Stress axis : x y z
#
# Youngs Moduli (GPa) = 64.45257 116.15857 53.45513
#
# Poissons Ratio (x) = 0.39792 0.26198
# Poissons Ratio (y) = 0.22079 0.29499
# Poissons Ratio (z) = 0.31588 0.64101
#
# Static dielectric constant tensor:
#      x y z
#    x 1.642670 0.000000 -0.011880 
#    y 0.000000 1.632090 0.000000 
#    z -0.011880 0.000000 1.582890 
# 
# From -- ./inp_files/234997.got.cif
#   From: 2010.05.17/outbox.cif.g08.bks.cpg/sg15_118_cif.got.tgz:234997.got - 2010.06.03 18:47:42.
