data_PCOD9276712
_publ_section_title
;
Structure prediction by ZEFSAII (Michael W. Deem and Ramdas Pophale) SiO2 
 PCOD9276712
Probable space group: C 2/C
;
_chemical_formula_sum "Si O2"
_cell_formula_units_Z 48
_cell_length_a 11.657793
_cell_length_b 14.401243
_cell_length_c 26.496339
_cell_angle_alpha 90.000000
_cell_angle_beta 149.449137
_cell_angle_gamma 90.000000
_cell_volume 2261.126755
_symmetry_space_group_name_H-M "C 2/C"
_symmetry_group_IT_number 15
_symmetry_cell_setting 'monoclinic'
loop_
_space_group_symop_operation_xyz
x,y,z
-x,y,1/2-z
-x,-y,-z
x,-y,1/2+z
1/2+x,1/2+y,z
1/2-x,1/2+y,1/2-z
1/2-x,1/2-y,-z
1/2+x,1/2-y,1/2+z
loop_
_atom_site_type_symbol
_atom_site_label
_atom_site_fract_x
_atom_site_fract_y
_atom_site_fract_z
Si Si1 0.431088 0.627526 0.527082
Si Si2 0.247661 0.797633 0.851439
Si Si3 0.460345 0.960279 0.880070
Si Si4 0.946883 0.167433 0.414884
Si Si5 0.303625 0.996422 0.714693
Si Si6 0.387015 0.860339 0.015322
O O1 0.552770 0.725217 0.585739
O O2 0.180642 0.600947 0.449687
O O3 0.436990 0.628380 0.468209
O O4 0.587587 0.551474 0.613267
O O5 0.272069 0.888470 0.826536
O O6 0.000000 0.754772 0.750000
O O7 0.281703 0.831822 0.921724
O O8 0.382150 0.015640 0.800857
O O9 0.516857 0.036585 0.943790
O O10 0.191174 0.146347 0.483247
O O11 0.929827 0.278733 0.406659
O O12 0.759820 0.112412 0.312858
O O13 0.500000 0.017097 0.750000
#
# Coordination Sequence:
#
# PCOD9276712 Si02
#       6
#     8   8   8   8   8   8
#     4  11  23  42  65  97 129 166 219 276 329 375
#     4  11  25  44  65  92 131 179 219 258 326 402
#     4  12  24  41  67  96 130 174 215 273 322 387
#     4  10  20  40  64  92 129 169 210 270 329 380
#     4  12  22  36  65  97 130 161 218 276 324 383
#     4  10  22  41  66  89 129 172 211 264 325 389
#
# _framework density 21.228355000000001
#
# number of rings (size 3 to 8) (size 9 to 14) (size 15 to 20)
#    0.000    1.000    3.333    4.000    0.000    4.000 
#    0.000    0.833    0.000    0.000    0.000    0.000 
#    0.000    0.000    0.000    0.000    0.000    0.000 
#
# Total GULP energy -134093.044571 kJ/mol
# GULP energy per Si atom -5587.210190 kJ/mol
# Density = 2.118004 g / cm^3
# Si number density = 21.228355 Si / 1000 Ang^3
#
#
#
# Elastic Constant Matrix: (Units=GPa)
#
#
# Indices 1 2 3 4 5 6 
#
# 1 50.5621 30.2814 14.8697 0.0001 -3.0392 0.0000
# 2 30.2814 83.3331 17.7749 0.0000 -7.5219 0.0000
# 3 14.8697 17.7749 59.3362 0.0006 -0.8200 0.0001
# 4 0.0001 0.0000 0.0006 25.5847 0.0001 -1.2236
# 5 -3.0392 -7.5219 -0.8200 0.0001 27.3257 0.0000
# 6 0.0000 0.0000 0.0001 -1.2236 0.0000 19.9995
#
#
#
# Elastic Compliance Matrix: (Units=1/GPa)
#
#
# Indices 1 2 3 4 5 6 
#
# 1 0.026125 -0.008610 -0.003962 0.000000 0.000416 0.000000
# 2 -0.008610 0.015984 -0.002584 0.000000 0.003365 0.000000
# 3 -0.003962 -0.002584 0.018612 0.000000 -0.000593 0.000000
# 4 0.000000 0.000000 0.000000 0.039201 0.000000 0.002398
# 5 0.000416 0.003365 -0.000593 0.000000 0.037550 0.000000
# 6 0.000000 0.000000 0.000000 0.002398 0.000000 0.050148
#
#
# Mechanical properties :
#
#
# Convention : Reuss Voigt Hill
#
# Bulk Modulus (GPa) = 32.88608 35.45372 34.16990
# Shear Modulus (GPa) = 21.92340 23.26901 22.59620
#
# Velocity S-wave (km/s) = 3.21712 3.31438 3.26611
# Velocity P-wave (km/s) = 5.41526 5.60216 5.50950
#
# Compressibility (1/GPa) = 0.03040801
#
# Stress axis : x y z
#
# Youngs Moduli (GPa) = 38.27819 62.56373 53.72951
#
# Poissons Ratio (x) = 0.53870 0.21286
# Poissons Ratio (y) = 0.32959 0.13883
# Poissons Ratio (z) = 0.15165 0.16165
#
# Static dielectric constant tensor:
#      x y z
#    x 1.752110 0.000000 -0.018270 
#    y 0.000000 1.805590 0.000000 
#    z -0.018270 0.000000 1.743290 
# 
# From -- ./inp_files/123569.got.cif
#   From: 2010.05.17/outbox.cif.g08.bks.cpg/sg15_62_cif.got.tgz:123569.got - 2010.06.03 18:47:42.
