data_PCOD9276582
_publ_section_title
;
Structure prediction by ZEFSAII (Michael W. Deem and Ramdas Pophale) SiO2 
 PCOD9276582
Probable space group: C 2/C
;
_chemical_formula_sum "Si O2"
_cell_formula_units_Z 60
_cell_length_a 18.986702
_cell_length_b 8.869882
_cell_length_c 24.497451
_cell_angle_alpha 90.000000
_cell_angle_beta 45.101457
_cell_angle_gamma 90.000000
_cell_volume 2922.408664
_symmetry_space_group_name_H-M "C 2/C"
_symmetry_group_IT_number 15
_symmetry_cell_setting 'monoclinic'
loop_
_space_group_symop_operation_xyz
x,y,z
-x,y,1/2-z
-x,-y,-z
x,-y,1/2+z
1/2+x,1/2+y,z
1/2-x,1/2+y,1/2-z
1/2-x,1/2-y,-z
1/2+x,1/2-y,1/2+z
loop_
_atom_site_type_symbol
_atom_site_label
_atom_site_fract_x
_atom_site_fract_y
_atom_site_fract_z
Si Si1 0.208475 0.100100 0.315223
Si Si2 0.600740 0.067959 0.767849
Si Si3 0.858522 0.055027 0.859538
Si Si4 0.357389 0.374302 0.233422
Si Si5 0.958047 0.304496 0.875863
Si Si6 0.869672 0.504017 0.021744
Si Si7 0.000000 0.811930 0.750000
Si Si8 0.943225 0.678795 0.585217
O O1 0.274720 0.247704 0.270414
O O2 0.106600 0.158852 0.397662
O O3 0.286559 0.989812 0.302389
O O4 0.179198 0.025131 0.274451
O O5 0.572278 0.203222 0.743955
O O6 0.587323 0.123484 0.837583
O O7 0.521327 0.929226 0.806676
O O8 0.873935 0.105842 0.788468
O O9 0.881408 0.201174 0.883912
O O10 0.937222 0.920252 0.824400
O O11 0.747611 0.989476 0.923706
O O12 0.457112 0.311938 0.151387
O O13 0.910600 0.392868 0.952143
O O14 0.938105 0.653695 0.982559
O O15 0.893525 0.429769 0.067277
#
# Coordination Sequence:
#
# PCOD9276582 Si02
#       8
#     8   8   8   8   8   8   4   8
#     4  11  20  37  65  95 123 159 206 268 310 373
#     4  10  23  39  62  97 127 163 206 271 320 365
#     4  12  22  41  65  93 124 171 214 256 317 384
#     4  11  22  37  67  95 126 157 213 269 316 366
#     4  10  23  40  64  91 128 169 212 256 310 390
#     4  10  22  41  65  88 128 179 206 255 323 377
#     4  12  26  38  66  96 130 158 214 274 316 366
#     4  10  20  40  63  90 128 164 213 257 313 374
#
# _framework density 20.531010999999999
#
# number of rings (size 3 to 8) (size 9 to 14) (size 15 to 20)
#    0.000    1.333    4.000    1.200    3.733    0.000 
#    0.000    3.333    2.933    0.000    0.000    0.000 
#    0.000    0.000    0.000    0.000    0.000    0.000 
#
# Total GULP energy -167409.985787 kJ/mol
# GULP energy per Si atom -5580.332860 kJ/mol
# Density = 2.048428 g / cm^3
# Si number density = 20.531011 Si / 1000 Ang^3
#
#
#
# Elastic Constant Matrix: (Units=GPa)
#
#
# Indices 1 2 3 4 5 6 
#
# 1 82.3749 36.6445 29.8514 0.0000 -15.8670 0.0000
# 2 36.6445 71.2992 20.8329 0.0000 -0.7388 0.0000
# 3 29.8514 20.8329 68.5275 0.0000 -18.7037 0.0000
# 4 0.0000 0.0000 0.0000 18.3441 0.0000 -14.8690
# 5 -15.8670 -0.7388 -18.7037 0.0000 34.7683 0.0000
# 6 0.0000 0.0000 0.0000 -14.8690 0.0000 54.3691
#
#
#
# Elastic Compliance Matrix: (Units=1/GPa)
#
#
# Indices 1 2 3 4 5 6 
#
# 1 0.018389 -0.008273 -0.003813 0.000000 0.006165 0.000000
# 2 -0.008273 0.019313 -0.003734 0.000000 -0.005374 0.000000
# 3 -0.003813 -0.003734 0.019799 0.000000 0.008832 0.000000
# 4 0.000000 0.000000 0.000000 0.070039 0.000000 0.019154
# 5 0.006165 -0.005374 0.008832 0.000000 0.036212 0.000000
# 6 0.000000 0.000000 0.000000 0.019154 0.000000 0.023631
#
#
# Mechanical properties :
#
#
# Convention : Reuss Voigt Hill
#
# Bulk Modulus (GPa) = 38.66792 44.09547 41.38170
# Shear Modulus (GPa) = 21.96405 30.48782 26.22593
#
# Velocity S-wave (km/s) = 3.27433 3.85770 3.57792
# Velocity P-wave (km/s) = 5.75932 6.43169 6.10477
#
# Compressibility (1/GPa) = 0.02586123
#
# Stress axis : x y z
#
# Youngs Moduli (GPa) = 54.37964 51.77896 50.50695
#
# Poissons Ratio (x) = 0.42838 0.19257
# Poissons Ratio (y) = 0.44990 0.18860
# Poissons Ratio (z) = 0.20733 0.19335
#
# Static dielectric constant tensor:
#      x y z
#    x 1.749920 0.000000 -0.042510 
#    y 0.000000 1.751410 0.000000 
#    z -0.042510 0.000000 1.735890 
# 
# From -- ./inp_files/300513.got.cif
#   From: 2010.05.17/outbox.cif.g08.bks.cpg/sg15_151_cif.got.tgz:300513.got - 2010.06.03 18:47:42.
