data_PCOD9276679
_publ_section_title
;
Structure prediction by ZEFSAII (Michael W. Deem and Ramdas Pophale) SiO2 
 PCOD9276679
Probable space group: C 2/C
;
_chemical_formula_sum "Si O2"
_cell_formula_units_Z 60
_cell_length_a 8.263425
_cell_length_b 13.593763
_cell_length_c 22.550114
_cell_angle_alpha 90.000000
_cell_angle_beta 102.047752
_cell_angle_gamma 90.000000
_cell_volume 2477.284162
_symmetry_space_group_name_H-M "C 2/C"
_symmetry_group_IT_number 15
_symmetry_cell_setting 'monoclinic'
loop_
_space_group_symop_operation_xyz
x,y,z
-x,y,1/2-z
-x,-y,-z
x,-y,1/2+z
1/2+x,1/2+y,z
1/2-x,1/2+y,1/2-z
1/2-x,1/2-y,-z
1/2+x,1/2-y,1/2+z
loop_
_atom_site_type_symbol
_atom_site_label
_atom_site_fract_x
_atom_site_fract_y
_atom_site_fract_z
Si Si1 0.425424 0.951222 0.306938
Si Si2 0.632659 0.712166 0.939668
Si Si3 0.500000 0.754250 0.750000
Si Si4 0.418519 0.230427 0.615040
Si Si5 0.468395 0.429269 0.906413
Si Si6 0.608624 0.155341 0.149869
Si Si7 0.317976 0.592423 0.967492
Si Si8 0.113139 0.915234 0.335768
O O1 0.500000 0.976987 0.250000
O O2 0.511119 0.850891 0.335066
O O3 0.229904 0.934812 0.289350
O O4 0.423832 0.038766 0.354616
O O5 0.548087 0.800557 0.897262
O O6 0.477588 0.652597 0.955664
O O7 0.709660 0.632813 0.899489
O O8 0.750000 0.750000 0.000000
O O9 0.378332 0.825678 0.777377
O O10 0.484946 0.678367 0.694519
O O11 0.552695 0.313547 0.607510
O O12 0.270584 0.295206 0.633154
O O13 0.336265 0.164054 0.556451
O O14 0.327648 0.491226 0.930283
O O15 0.511146 0.492776 0.851537
O O16 0.631272 0.430983 0.961617
#
# Coordination Sequence:
#
# PCOD9276679 Si02
#       8
#     8   8   4   8   8   8   8   8
#     4  12  25  42  62  95 128 164 224 273 320 394
#     4   9  20  38  64  96 127 166 217 266 320 393
#     4  10  20  44  68  84 122 176 208 272 328 364
#     4  11  23  42  62  92 132 167 210 260 328 380
#     4  10  20  40  64  89 128 164 208 265 308 378
#     4  10  21  42  67  86 128 173 208 271 330 372
#     4   9  21  39  64  91 129 175 207 254 327 387
#     4  10  22  41  64  94 126 165 223 262 318 399
#
# _framework density 24.220072999999999
#
# number of rings (size 3 to 8) (size 9 to 14) (size 15 to 20)
#    0.000    1.867    2.000    2.000    1.867    3.200 
#    3.600    1.333    0.000    0.000    0.000    0.000 
#    0.000    0.000    0.000    0.000    0.000    0.000 
#
# Total GULP energy -167209.785891 kJ/mol
# GULP energy per Si atom -5573.659530 kJ/mol
# Density = 2.416495 g / cm^3
# Si number density = 24.220073 Si / 1000 Ang^3
#
#
#
# Elastic Constant Matrix: (Units=GPa)
#
#
# Indices 1 2 3 4 5 6 
#
# 1 30.7686 23.0835 5.8414 0.0000 -13.0739 0.0000
# 2 23.0835 182.6328 34.8977 0.0000 4.0626 0.0000
# 3 5.8414 34.8977 60.9982 0.0000 -4.6686 0.0000
# 4 0.0000 0.0000 0.0000 21.6321 0.0000 -17.3164
# 5 -13.0739 4.0626 -4.6686 0.0000 25.0406 0.0000
# 6 0.0000 0.0000 0.0000 -17.3164 0.0000 11.4250
#
#
#
# Elastic Compliance Matrix: (Units=1/GPa)
#
#
# Indices 1 2 3 4 5 6 
#
# 1 0.049002 -0.007064 0.001415 0.000000 0.026994 0.000000
# 2 -0.007064 0.007236 -0.003891 0.000000 -0.005588 0.000000
# 3 0.001415 -0.003891 0.018858 0.000000 0.004886 0.000000
# 4 0.000000 0.000000 0.000000 -0.216739 0.000000 -0.328504
# 5 0.026994 -0.005588 0.004886 0.000000 0.055847 0.000000
# 6 0.000000 0.000000 0.000000 -0.328504 0.000000 -0.410374
#
#
# Mechanical properties :
#
#
# Convention : Reuss Voigt Hill
#
# Bulk Modulus (GPa) = 17.85207 44.67165 31.26186
# Shear Modulus (GPa) = -10.90710 25.65800 7.37545
#
# Velocity S-wave (km/s) = -2.12441 3.25833 1.74694
# Velocity P-wave (km/s) = 1.17017 5.71312 4.12365
#
# Compressibility (1/GPa) = 0.05601593
#
# Stress axis : x y z
#
# Youngs Moduli (GPa) = 20.40732 138.19478 53.02655
#
# Poissons Ratio (x) = 0.97626 -0.07504
# Poissons Ratio (y) = 0.14417 0.20633
# Poissons Ratio (z) = -0.02888 0.53772
#
# Static dielectric constant tensor:
#      x y z
#    x 2.451010 0.000000 0.379710 
#    y 0.000000 2.035500 0.000000 
#    z 0.379710 0.000000 2.302720 
# 
# From -- ./inp_files/264348.got.cif
#   From: 2010.05.17/outbox.cif.g08.bks.cpg/sg15_133_cif.got.tgz:264348.got - 2010.06.03 18:47:42.
