data_PCOD9276925
_publ_section_title
;
Structure prediction by ZEFSAII (Michael W. Deem and Ramdas Pophale) SiO2 
 PCOD9276925
Probable space group: C 2/C
;
_chemical_formula_sum "Si O2"
_cell_formula_units_Z 48
_cell_length_a 30.240852
_cell_length_b 11.411073
_cell_length_c 20.951724
_cell_angle_alpha 90.000000
_cell_angle_beta 164.195232
_cell_angle_gamma 90.000000
_cell_volume 1969.174057
_symmetry_space_group_name_H-M "C 2/C"
_symmetry_group_IT_number 15
_symmetry_cell_setting 'monoclinic'
loop_
_space_group_symop_operation_xyz
x,y,z
-x,y,1/2-z
-x,-y,-z
x,-y,1/2+z
1/2+x,1/2+y,z
1/2-x,1/2+y,1/2-z
1/2-x,1/2-y,-z
1/2+x,1/2-y,1/2+z
loop_
_atom_site_type_symbol
_atom_site_label
_atom_site_fract_x
_atom_site_fract_y
_atom_site_fract_z
Si Si1 0.762969 0.007477 0.704557
Si Si2 0.377651 0.078416 0.374102
Si Si3 0.073959 0.643147 0.256665
Si Si4 0.330690 0.287877 0.217428
Si Si5 0.310324 0.806027 0.986207
Si Si6 0.191291 0.594967 0.880020
O O1 0.587166 0.072435 0.449706
O O2 0.872237 0.096666 0.815531
O O3 0.758205 0.991532 0.774400
O O4 0.765814 0.880659 0.675829
O O5 0.308988 0.184265 0.238027
O O6 0.504095 0.127319 0.603085
O O7 0.500000 0.000000 0.500000
O O8 0.173229 0.691502 0.454157
O O9 0.041798 0.740774 0.158262
O O10 0.190000 0.544792 0.384338
O O11 0.500000 0.830549 0.250000
O O12 0.249528 0.859316 0.969207
O O13 0.283448 0.666978 0.953388
#
# Coordination Sequence:
#
# PCOD9276925 Si02
#       6
#     8   8   8   8   8   8
#     4  11  21  40  68  90 121 169 219 252 318 387
#     4  11  22  40  60  89 128 166 200 260 328 368
#     4  10  20  40  66  91 121 165 220 264 306 371
#     4  11  21  37  67  90 119 166 214 263 312 378
#     4  11  19  38  67  89 115 170 214 248 304 380
#     4  10  21  37  64  91 125 160 210 259 305 378
#
# _framework density 24.375702
#
# number of rings (size 3 to 8) (size 9 to 14) (size 15 to 20)
#    0.000    1.333    8.333    0.500    0.000    1.333 
#    0.000    4.167    0.000    0.000    0.000    0.000 
#    0.000    0.000    0.000    0.000    0.000    0.000 
#
# Total GULP energy -133886.999484 kJ/mol
# GULP energy per Si atom -5578.624978 kJ/mol
# Density = 2.432022 g / cm^3
# Si number density = 24.375702 Si / 1000 Ang^3
#
#
#
# Elastic Constant Matrix: (Units=GPa)
#
#
# Indices 1 2 3 4 5 6 
#
# 1 137.1678 67.3722 14.6244 0.0000 -22.5182 0.0000
# 2 67.3722 125.0838 22.6881 0.0000 -12.5168 0.0000
# 3 14.6244 22.6881 58.2652 -0.0001 -11.6549 0.0000
# 4 0.0000 0.0000 -0.0001 27.8036 0.0000 -15.1694
# 5 -22.5182 -12.5168 -11.6549 0.0000 27.7096 0.0000
# 6 0.0000 0.0000 0.0000 -15.1694 0.0000 62.5819
#
#
#
# Elastic Compliance Matrix: (Units=1/GPa)
#
#
# Indices 1 2 3 4 5 6 
#
# 1 0.010956 -0.005348 0.000688 0.000000 0.006777 0.000000
# 2 -0.005348 0.011402 -0.003206 0.000000 -0.000544 0.000000
# 3 0.000688 -0.003206 0.019720 0.000000 0.007405 0.000000
# 4 0.000000 0.000000 0.000000 0.041448 0.000000 0.010047
# 5 0.006777 -0.000544 0.007405 0.000000 0.044465 0.000000
# 6 0.000000 0.000000 0.000000 0.010047 0.000000 0.018414
#
#
# Mechanical properties :
#
#
# Convention : Reuss Voigt Hill
#
# Bulk Modulus (GPa) = 37.95627 58.87624 48.41626
# Shear Modulus (GPa) = 29.25336 38.00782 33.63059
#
# Velocity S-wave (km/s) = 3.46801 3.95302 3.71843
# Velocity P-wave (km/s) = 5.62506 6.71128 6.19203
#
# Compressibility (1/GPa) = 0.02634611
#
# Stress axis : x y z
#
# Youngs Moduli (GPa) = 91.27200 87.70208 50.70982
#
# Poissons Ratio (x) = 0.46902 -0.03489
# Poissons Ratio (y) = 0.48811 0.16260
# Poissons Ratio (z) = -0.06281 0.28122
#
# Static dielectric constant tensor:
#      x y z
#    x 2.090960 0.000000 0.056970 
#    y 0.000000 2.029910 0.000000 
#    z 0.056970 0.000000 1.979110 
# 
# From -- ./inp_files/259243.got.cif
#   From: 2010.05.17/outbox.cif.g08.bks.cpg/sg15_130_cif.got.tgz:259243.got - 2010.06.03 18:47:42.
