data_PCOD9276319
_publ_section_title
;
Structure prediction by ZEFSAII (Michael W. Deem and Ramdas Pophale) SiO2 
 PCOD9276319
Probable space group: C 2/C
;
_chemical_formula_sum "Si O2"
_cell_formula_units_Z 44
_cell_length_a 12.420047
_cell_length_b 19.167691
_cell_length_c 8.650598
_cell_angle_alpha 90.000000
_cell_angle_beta 100.971544
_cell_angle_gamma 90.000000
_cell_volume 2021.750768
_symmetry_space_group_name_H-M "C 2/C"
_symmetry_group_IT_number 15
_symmetry_cell_setting 'monoclinic'
loop_
_space_group_symop_operation_xyz
x,y,z
-x,y,1/2-z
-x,-y,-z
x,-y,1/2+z
1/2+x,1/2+y,z
1/2-x,1/2+y,1/2-z
1/2-x,1/2-y,-z
1/2+x,1/2-y,1/2+z
loop_
_atom_site_type_symbol
_atom_site_label
_atom_site_fract_x
_atom_site_fract_y
_atom_site_fract_z
Si Si1 0.000000 0.134411 0.250000
Si Si2 0.872961 0.405191 0.108750
Si Si3 0.831366 0.809685 0.459954
Si Si4 0.399653 0.815289 0.830851
Si Si5 0.787342 0.084464 0.346453
Si Si6 0.821387 0.533425 0.889412
O O1 0.913003 0.094172 0.334044
O O2 0.076129 0.176345 0.388819
O O3 0.744541 0.377374 0.084762
O O4 0.896577 0.420455 0.295645
O O5 0.922238 0.346471 0.008546
O O6 0.881389 0.477622 0.016878
O O7 0.750000 0.750000 0.500000
O O8 0.883934 0.768109 0.331191
O O9 0.500000 0.835897 0.750000
O O10 0.289476 0.853152 0.740014
O O11 0.756912 0.076211 0.517541
O O12 0.746417 0.016152 0.244173
#
# Coordination Sequence:
#
# PCOD9276319 Si02
#       6
#     4   8   8   8   8   8
#     4  12  20  38  66  92 122 168 204 258 314 378
#     4   9  18  38  62  84 128 156 202 252 309 366
#     4  10  20  40  60  86 126 161 203 253 311 362
#     4  10  21  42  61  85 127 163 211 268 299 363
#     4  10  21  38  61  94 124 165 209 251 318 371
#     4   9  18  38  60  90 128 159 202 257 306 381
#
# _framework density 21.763314999999999
#
# number of rings (size 3 to 8) (size 9 to 14) (size 15 to 20)
#    0.000    2.182    5.455    0.000    0.000    2.182 
#    6.545   16.364    0.000    0.000    0.000    0.000 
#    0.000    0.000    0.000    0.000    0.000    0.000 
#
# Total GULP energy -122609.057244 kJ/mol
# GULP energy per Si atom -5573.138966 kJ/mol
# Density = 2.171378 g / cm^3
# Si number density = 21.763315 Si / 1000 Ang^3
#
#
#
# Elastic Constant Matrix: (Units=GPa)
#
#
# Indices 1 2 3 4 5 6 
#
# 1 109.7024 19.7901 40.0844 0.0000 -27.8432 0.0000
# 2 19.7901 60.1825 35.9506 0.0000 -9.4288 0.0000
# 3 40.0844 35.9506 113.5713 0.0000 -30.7076 0.0000
# 4 0.0000 0.0000 0.0000 28.1837 0.0000 -9.2163
# 5 -27.8432 -9.4288 -30.7076 0.0000 50.3993 0.0000
# 6 0.0000 0.0000 0.0000 -9.2163 0.0000 26.0973
#
#
#
# Elastic Compliance Matrix: (Units=1/GPa)
#
#
# Indices 1 2 3 4 5 6 
#
# 1 0.011413 -0.001688 -0.002244 0.000000 0.004622 0.000000
# 2 -0.001688 0.020741 -0.006193 0.000000 -0.000826 0.000000
# 3 -0.002244 -0.006193 0.013061 0.000000 0.005559 0.000000
# 4 0.000000 0.000000 0.000000 0.040114 0.000000 0.014166
# 5 0.004622 -0.000826 0.005559 0.000000 0.025628 0.000000
# 6 0.000000 0.000000 0.000000 0.014166 0.000000 0.043321
#
#
# Mechanical properties :
#
#
# Convention : Reuss Voigt Hill
#
# Bulk Modulus (GPa) = 40.05707 52.78960 46.42334
# Shear Modulus (GPa) = 27.34477 33.44479 30.39478
#
# Velocity S-wave (km/s) = 3.54851 3.92439 3.74117
# Velocity P-wave (km/s) = 5.93590 6.69652 6.32765
#
# Compressibility (1/GPa) = 0.02496438
#
# Stress axis : x y z
#
# Youngs Moduli (GPa) = 87.61752 48.21277 76.56648
#
# Poissons Ratio (x) = 0.08140 0.17182
# Poissons Ratio (y) = 0.14794 0.47417
# Poissons Ratio (z) = 0.19662 0.29858
#
# Static dielectric constant tensor:
#      x y z
#    x 1.893040 0.000000 -0.024370 
#    y 0.000000 1.828830 0.000000 
#    z -0.024370 0.000000 1.838280 
# 
# From -- ./inp_files/30946.got.cif
#   From: 2010.05.17/outbox.cif.g08.bks.cpg/sg15_16_cif.got.tgz:30946.got - 2010.06.03 18:47:42.
