data_PCOD9276995
_publ_section_title
;
Structure prediction by ZEFSAII (Michael W. Deem and Ramdas Pophale) SiO2 
 PCOD9276995
Probable space group: C 2/C
;
_chemical_formula_sum "Si O2"
_cell_formula_units_Z 56
_cell_length_a 27.541977
_cell_length_b 6.333065
_cell_length_c 16.697933
_cell_angle_alpha 90.000000
_cell_angle_beta 114.732829
_cell_angle_gamma 90.000000
_cell_volume 2645.367855
_symmetry_space_group_name_H-M "C 2/C"
_symmetry_group_IT_number 15
_symmetry_cell_setting 'monoclinic'
loop_
_space_group_symop_operation_xyz
x,y,z
-x,y,1/2-z
-x,-y,-z
x,-y,1/2+z
1/2+x,1/2+y,z
1/2-x,1/2+y,1/2-z
1/2-x,1/2-y,-z
1/2+x,1/2-y,1/2+z
loop_
_atom_site_type_symbol
_atom_site_label
_atom_site_fract_x
_atom_site_fract_y
_atom_site_fract_z
Si Si1 0.807049 0.686382 0.771474
Si Si2 0.961159 0.687928 0.000315
Si Si3 0.803931 0.135251 0.007712
Si Si4 0.737523 0.853867 0.866677
Si Si5 0.554074 0.567296 0.627659
Si Si6 0.873216 0.382070 0.925940
Si Si7 0.356270 0.530140 0.695479
O O1 0.766434 0.736970 0.813947
O O2 0.777263 0.583433 0.676673
O O3 0.845001 0.507191 0.834199
O O4 0.834764 0.894836 0.756848
O O5 0.994652 0.833039 0.084409
O O6 0.908340 0.565706 0.992639
O O7 0.000000 0.500000 0.000000
O O8 0.948969 0.836535 0.915202
O O9 0.846460 0.105071 0.108709
O O10 0.750000 0.250000 0.000000
O O11 0.832342 0.267163 0.956940
O O12 0.782238 0.906170 0.963313
O O13 0.683168 0.728288 0.844986
O O14 0.589046 0.707568 0.589411
O O15 0.583919 0.577795 0.733485
#
# Coordination Sequence:
#
# PCOD9276995 Si02
#       7
#     8   8   8   8   8   8   8
#     4  12  21  37  64  91 120 167 231 269 312 377
#     4   9  20  38  71  98 121 151 218 291 333 382
#     4  12  26  42  57  96 143 183 216 255 336 403
#     4  12  23  40  59  91 131 171 224 270 308 387
#     4  10  20  40  67 101 118 163 228 277 337 386
#     4  11  22  40  65  97 128 169 218 278 328 394
#     4  12  23  38  62  92 130 175 214 272 325 395
#
# _framework density 21.169079
#
# number of rings (size 3 to 8) (size 9 to 14) (size 15 to 20)
#    0.000    0.857    5.714    3.000    0.000    0.000 
#    0.000    0.000    0.000    9.429    0.000    0.000 
#    0.000    0.000    0.000    0.000    0.000    0.000 
#
# Total GULP energy -156296.118671 kJ/mol
# GULP energy per Si atom -5582.004238 kJ/mol
# Density = 2.112090 g / cm^3
# Si number density = 21.169079 Si / 1000 Ang^3
#
#
#
# Elastic Constant Matrix: (Units=GPa)
#
#
# Indices 1 2 3 4 5 6 
#
# 1 43.6229 23.2353 31.4367 0.0000 13.7037 0.0000
# 2 23.2353 87.6275 36.9595 -0.0001 10.7341 0.0000
# 3 31.4367 36.9595 152.2602 0.0000 25.2484 0.0000
# 4 0.0000 -0.0001 0.0000 37.3963 0.0000 20.2923
# 5 13.7037 10.7341 25.2484 0.0000 24.6670 0.0000
# 6 0.0000 0.0000 0.0000 20.2923 0.0000 37.0342
#
#
#
# Elastic Compliance Matrix: (Units=1/GPa)
#
#
# Indices 1 2 3 4 5 6 
#
# 1 0.032056 -0.005656 -0.003253 0.000000 -0.012018 0.000000
# 2 -0.005656 0.013881 -0.002073 0.000000 -0.000777 0.000000
# 3 -0.003253 -0.002073 0.008784 0.000000 -0.006282 0.000000
# 4 0.000000 0.000000 0.000000 0.038056 0.000000 -0.020852
# 5 -0.012018 -0.000777 -0.006282 0.000000 0.053985 0.000000
# 6 0.000000 0.000000 0.000000 -0.020852 0.000000 0.038428
#
#
# Mechanical properties :
#
#
# Convention : Reuss Voigt Hill
#
# Bulk Modulus (GPa) = 30.52691 51.86373 41.19532
# Shear Modulus (GPa) = 22.92834 32.61144 27.76989
#
# Velocity S-wave (km/s) = 3.29463 3.92921 3.62583
# Velocity P-wave (km/s) = 5.37816 6.71847 6.08533
#
# Compressibility (1/GPa) = 0.03275798
#
# Stress axis : x y z
#
# Youngs Moduli (GPa) = 31.19582 72.04040 113.84090
#
# Poissons Ratio (x) = 0.40745 0.37029
# Poissons Ratio (y) = 0.17644 0.23599
# Poissons Ratio (z) = 0.10147 0.14934
#
# Static dielectric constant tensor:
#      x y z
#    x 1.762650 0.000000 0.035080 
#    y 0.000000 1.877220 0.000000 
#    z 0.035080 0.000000 1.867780 
# 
# From -- ./inp_files/223934.got.cif
#   From: 2010.05.17/outbox.cif.g08.bks.cpg/sg15_112_cif.got.tgz:223934.got - 2010.06.03 18:47:42.
