data_PCOD9276626
_publ_section_title
;
Structure prediction by ZEFSAII (Michael W. Deem and Ramdas Pophale) SiO2 
 PCOD9276626
Probable space group: C 2/C
;
_chemical_formula_sum "Si O2"
_cell_formula_units_Z 48
_cell_length_a 19.440357
_cell_length_b 19.649175
_cell_length_c 7.823285
_cell_angle_alpha 90.000000
_cell_angle_beta 38.266963
_cell_angle_gamma 90.000000
_cell_volume 1850.790739
_symmetry_space_group_name_H-M "C 2/C"
_symmetry_group_IT_number 15
_symmetry_cell_setting 'monoclinic'
loop_
_space_group_symop_operation_xyz
x,y,z
-x,y,1/2-z
-x,-y,-z
x,-y,1/2+z
1/2+x,1/2+y,z
1/2-x,1/2+y,1/2-z
1/2-x,1/2-y,-z
1/2+x,1/2-y,1/2+z
loop_
_atom_site_type_symbol
_atom_site_label
_atom_site_fract_x
_atom_site_fract_y
_atom_site_fract_z
Si Si1 0.084794 0.755409 0.714997
Si Si2 0.747310 0.544212 0.846646
Si Si3 0.319792 0.291693 0.624152
Si Si4 0.702731 0.406862 0.096045
Si Si5 0.415605 0.956635 0.283589
Si Si6 0.070440 0.660519 0.265632
O O1 0.190665 0.724620 0.410250
O O2 0.126266 0.800162 0.794145
O O3 0.000000 0.789747 0.750000
O O4 0.013915 0.694856 0.939473
O O5 0.680917 0.590895 0.842964
O O6 0.834751 0.503425 0.555671
O O7 0.824317 0.579625 0.839895
O O8 0.682123 0.482632 0.064364
O O9 0.345128 0.351851 0.441771
O O10 0.166308 0.385284 0.658983
O O11 0.632140 0.223494 0.054363
O O12 0.500000 0.921544 0.250000
O O13 0.500000 0.000000 0.000000
O O14 0.000000 0.626176 0.250000
#
# Coordination Sequence:
#
# PCOD9276626 Si02
#       6
#     8   8   8   8   8   8
#     4  10  20  40  64 101 126 156 213 265 335 391
#     4   9  20  33  47  77 116 168 217 235 309 376
#     4  10  22  41  66  93 132 169 209 276 330 377
#     4  11  21  40  55  85 129 174 214 262 304 392
#     4   8  14  29  43  61  98 147 201 250 270 337
#     4  10  22  40  64  94 129 166 210 266 334 380
#
# _framework density 25.934861000000001
#
# number of rings (size 3 to 8) (size 9 to 14) (size 15 to 20)
#    0.000    2.333    1.667    0.500    0.000    6.667 
#   33.000    0.000    0.000    0.000    0.000   15.167 
#    0.000    0.000    0.000    0.000    0.000    0.000 
#
# Total GULP energy -134202.357146 kJ/mol
# GULP energy per Si atom -5591.764881 kJ/mol
# Density = 2.587583 g / cm^3
# Si number density = 25.934861 Si / 1000 Ang^3
#
#
#
# Elastic Constant Matrix: (Units=GPa)
#
#
# Indices 1 2 3 4 5 6 
#
# 1 197.5138 61.1367 10.9846 0.0000 36.9024 0.0000
# 2 61.1367 74.6174 9.4400 0.0000 14.0562 0.0000
# 3 10.9846 9.4400 75.0924 0.0000 4.7726 0.0000
# 4 0.0000 0.0000 0.0000 37.6622 0.0000 5.3071
# 5 36.9024 14.0562 4.7726 0.0000 31.5509 0.0000
# 6 0.0000 0.0000 0.0000 5.3071 0.0000 53.3624
#
#
#
# Elastic Compliance Matrix: (Units=1/GPa)
#
#
# Indices 1 2 3 4 5 6 
#
# 1 0.007992 -0.005219 -0.000067 0.000000 -0.007013 0.000000
# 2 -0.005219 0.018193 -0.001410 0.000000 -0.001788 0.000000
# 3 -0.000067 -0.001410 0.013590 0.000000 -0.001349 0.000000
# 4 0.000000 0.000000 0.000000 0.026929 0.000000 -0.002678
# 5 -0.007013 -0.001788 -0.001349 0.000000 0.040898 0.000000
# 6 0.000000 0.000000 0.000000 -0.002678 0.000000 0.019006
#
#
# Mechanical properties :
#
#
# Convention : Reuss Voigt Hill
#
# Bulk Modulus (GPa) = 37.90391 56.70512 47.30451
# Shear Modulus (GPa) = 33.60344 42.22590 37.91467
#
# Velocity S-wave (km/s) = 3.60347 4.03941 3.82765
# Velocity P-wave (km/s) = 5.65333 6.60816 6.14930
#
# Compressibility (1/GPa) = 0.02638250
#
# Stress axis : x y z
#
# Youngs Moduli (GPa) = 125.12067 54.96676 73.58489
#
# Poissons Ratio (x) = 0.28686 0.00496
# Poissons Ratio (y) = 0.65298 0.10376
# Poissons Ratio (z) = 0.00843 0.07750
#
# Static dielectric constant tensor:
#      x y z
#    x 2.105730 0.000000 0.053570 
#    y 0.000000 2.103290 0.000000 
#    z 0.053570 0.000000 2.045730 
# 
# From -- ./inp_files/57422.got.cif
#   From: 2010.05.17/outbox.cif.g08.bks.cpg/sg15_29_cif.got.tgz:57422.got - 2010.06.03 18:47:42.
