data_PCOD9276564
_publ_section_title
;
Structure prediction by ZEFSAII (Michael W. Deem and Ramdas Pophale) SiO2 
 PCOD9276564
Probable space group: C 2/C
;
_chemical_formula_sum "Si O2"
_cell_formula_units_Z 48
_cell_length_a 14.980829
_cell_length_b 12.181955
_cell_length_c 21.705935
_cell_angle_alpha 90.000000
_cell_angle_beta 145.603150
_cell_angle_gamma 90.000000
_cell_volume 2237.791123
_symmetry_space_group_name_H-M "C 2/C"
_symmetry_group_IT_number 15
_symmetry_cell_setting 'monoclinic'
loop_
_space_group_symop_operation_xyz
x,y,z
-x,y,1/2-z
-x,-y,-z
x,-y,1/2+z
1/2+x,1/2+y,z
1/2-x,1/2+y,1/2-z
1/2-x,1/2-y,-z
1/2+x,1/2-y,1/2+z
loop_
_atom_site_type_symbol
_atom_site_label
_atom_site_fract_x
_atom_site_fract_y
_atom_site_fract_z
Si Si1 0.961140 0.179579 0.981406
Si Si2 0.208577 0.657096 0.025546
Si Si3 0.175441 0.986713 0.677483
Si Si4 0.012012 0.990147 0.320823
Si Si5 0.486159 0.005069 0.677009
Si Si6 0.708688 0.659012 0.024429
O O1 0.870460 0.279282 0.962001
O O2 0.853730 0.101652 0.876296
O O3 0.041654 0.098223 0.077327
O O4 0.110940 0.210141 0.024633
O O5 0.370080 0.589847 0.129455
O O6 0.250000 0.750000 0.000000
O O7 0.089298 0.576055 0.921224
O O8 0.152965 0.987275 0.738486
O O9 0.350853 0.956765 0.756096
O O10 0.000000 0.925315 0.250000
O O11 0.097582 0.924806 0.423990
O O12 0.500000 0.070912 0.750000
O O13 0.363218 0.910835 0.626883
O O14 0.750000 0.750000 0.000000
#
# Coordination Sequence:
#
# PCOD9276564 Si02
#       6
#     8   8   8   8   8   8
#     4  10  20  40  63  88 124 161 209 258 308 380
#     4  11  22  38  63  96 128 162 207 263 319 374
#     4  10  20  40  64  87 122 168 204 254 320 373
#     4  10  23  41  62  91 130 162 204 264 317 370
#     4  11  22  39  65  94 126 166 214 263 316 382
#     4  10  23  42  63  88 123 171 212 254 314 376
#
# _framework density 21.449722000000001
#
# number of rings (size 3 to 8) (size 9 to 14) (size 15 to 20)
#    0.000    1.667    3.333    1.000    0.000    5.333 
#    6.000    3.333    0.000    0.000    0.000    0.000 
#    0.000    0.000    0.000    0.000    0.000    0.000 
#
# Total GULP energy -133833.573612 kJ/mol
# GULP energy per Si atom -5576.398901 kJ/mol
# Density = 2.140090 g / cm^3
# Si number density = 21.449722 Si / 1000 Ang^3
#
#
#
# Elastic Constant Matrix: (Units=GPa)
#
#
# Indices 1 2 3 4 5 6 
#
# 1 214.7990 43.0302 35.6219 0.0001 -3.6711 0.0000
# 2 43.0302 60.5760 0.2879 0.0002 5.0656 0.0001
# 3 35.6219 0.2879 55.7846 0.0006 0.7045 0.0002
# 4 0.0001 0.0002 0.0006 -6.8524 0.0002 -4.3154
# 5 -3.6711 5.0656 0.7045 0.0002 32.3390 0.0001
# 6 0.0000 0.0001 0.0002 -4.3154 0.0001 49.6021
#
#
#
# Elastic Compliance Matrix: (Units=1/GPa)
#
#
# Indices 1 2 3 4 5 6 
#
# 1 0.006254 -0.004550 -0.003989 0.000000 0.001510 0.000000
# 2 -0.004550 0.020038 0.002849 0.000001 -0.003717 0.000000
# 3 -0.003989 0.002849 0.020476 0.000002 -0.001345 0.000000
# 4 0.000000 0.000001 0.000002 -0.138354 0.000001 -0.012037
# 5 0.001510 -0.003717 -0.001345 0.000001 0.031705 0.000000
# 6 0.000000 0.000000 0.000000 -0.012037 0.000000 0.019113
#
#
# Mechanical properties :
#
#
# Convention : Reuss Voigt Hill
#
# Bulk Modulus (GPa) = 28.25893 54.33774 41.29834
# Shear Modulus (GPa) = -284.24278 31.83238 -126.20520
#
# Velocity S-wave (km/s) = -11.52404 3.85651 -7.67889
# Velocity P-wave (km/s) = 12.80110 6.72442 7.70229
#
# Compressibility (1/GPa) = 0.03538704
#
# Stress axis : x y z
#
# Youngs Moduli (GPa) = 159.88664 49.90591 48.83797
#
# Poissons Ratio (x) = 0.22708 0.19484
# Poissons Ratio (y) = 0.72750 -0.13914
# Poissons Ratio (z) = 0.63785 -0.14219
#
# Static dielectric constant tensor:
#      x y z
#    x 1.838590 0.000000 -0.039660 
#    y 0.000000 1.793850 0.000000 
#    z -0.039660 0.000000 1.914730 
# 
# From -- ./inp_files/243991.got.cif
#   From: 2010.05.17/outbox.cif.g08.bks.cpg/sg15_122_cif.got.tgz:243991.got - 2010.06.03 18:47:42.
