data_PCOD9276576
_publ_section_title
;
Structure prediction by ZEFSAII (Michael W. Deem and Ramdas Pophale) SiO2 
 PCOD9276576
Probable space group: C 2/C
;
_chemical_formula_sum "Si O2"
_cell_formula_units_Z 36
_cell_length_a 9.777131
_cell_length_b 19.123389
_cell_length_c 6.742291
_cell_angle_alpha 90.000000
_cell_angle_beta 79.811047
_cell_angle_gamma 90.000000
_cell_volume 1240.738524
_symmetry_space_group_name_H-M "C 2/C"
_symmetry_group_IT_number 15
_symmetry_cell_setting 'monoclinic'
loop_
_space_group_symop_operation_xyz
x,y,z
-x,y,1/2-z
-x,-y,-z
x,-y,1/2+z
1/2+x,1/2+y,z
1/2-x,1/2+y,1/2-z
1/2-x,1/2-y,-z
1/2+x,1/2-y,1/2+z
loop_
_atom_site_type_symbol
_atom_site_label
_atom_site_fract_x
_atom_site_fract_y
_atom_site_fract_z
Si Si1 0.797122 0.370558 0.459363
Si Si2 0.530703 0.769029 0.508976
Si Si3 0.196404 0.598199 0.067280
Si Si4 0.500000 0.015884 0.750000
Si Si5 0.518278 0.385112 0.957735
O O1 0.797887 0.392107 0.692803
O O2 0.637415 0.368784 0.432558
O O3 0.892829 0.300930 0.439733
O O4 0.872357 0.429013 0.308628
O O5 0.500000 0.758324 0.750000
O O6 0.645869 0.829662 0.482701
O O7 0.575787 0.694317 0.416154
O O8 0.072945 0.542196 0.080895
O O9 0.353393 0.576623 0.970518
O O10 0.500000 0.420643 0.750000
#
# Coordination Sequence:
#
# PCOD9276576 Si02
#       5
#     8   8   8   4   8
#     4  10  22  39  61  90 119 160 199 247 293 355
#     4  10  20  40  63  90 122 157 195 244 305 357
#     4  10  21  40  63  86 121 161 195 250 296 351
#     4  12  22  40  62  82 124 162 210 228 300 360
#     4  10  22  40  63  93 121 150 200 253 302 346
#
# _framework density 29.014979
#
# number of rings (size 3 to 8) (size 9 to 14) (size 15 to 20)
#    0.000    1.778    3.333    2.000    1.556    0.889 
#    4.000    0.000    0.000    0.000    0.000    0.000 
#    0.000    0.000    0.000    0.000    0.000    0.000 
#
# Total GULP energy -100657.796594 kJ/mol
# GULP energy per Si atom -5592.099811 kJ/mol
# Density = 2.894894 g / cm^3
# Si number density = 29.014979 Si / 1000 Ang^3
#
#
#
# Elastic Constant Matrix: (Units=GPa)
#
#
# Indices 1 2 3 4 5 6 
#
# 1 296.9980 57.7262 33.2964 0.0000 -39.0838 0.0000
# 2 57.7262 82.6683 24.4766 0.0000 -11.5176 0.0000
# 3 33.2964 24.4766 116.2350 0.0000 13.9828 0.0000
# 4 0.0000 0.0000 0.0000 58.8737 0.0000 1.8609
# 5 -39.0838 -11.5176 13.9828 0.0000 44.9616 0.0000
# 6 0.0000 0.0000 0.0000 1.8609 0.0000 20.3233
#
#
#
# Elastic Compliance Matrix: (Units=1/GPa)
#
#
# Indices 1 2 3 4 5 6 
#
# 1 0.004417 -0.002207 -0.001241 0.000000 0.003660 0.000000
# 2 -0.002207 0.014861 -0.002830 0.000000 0.002769 0.000000
# 3 -0.001241 -0.002830 0.010151 0.000000 -0.004961 0.000000
# 4 0.000000 0.000000 0.000000 0.017035 0.000000 -0.001560
# 5 0.003660 0.002769 -0.004961 0.000000 0.027675 0.000000
# 6 0.000000 0.000000 0.000000 -0.001560 0.000000 0.049347
#
#
# Mechanical properties :
#
#
# Convention : Reuss Voigt Hill
#
# Bulk Modulus (GPa) = 59.26457 80.76666 70.01562
# Shear Modulus (GPa) = 35.29409 50.19187 42.74298
#
# Velocity S-wave (km/s) = 3.49149 4.16367 3.84231
# Velocity P-wave (km/s) = 6.06002 7.14223 6.62327
#
# Compressibility (1/GPa) = 0.01687349
#
# Stress axis : x y z
#
# Youngs Moduli (GPa) = 226.41440 67.28867 98.50808
#
# Poissons Ratio (x) = 0.14850 0.12222
# Poissons Ratio (y) = 0.49966 0.27882
# Poissons Ratio (z) = 0.28092 0.19045
#
# Static dielectric constant tensor:
#      x y z
#    x 1.002910 0.000000 -1.609370 
#    y 0.000000 2.135500 0.000000 
#    z -1.609370 0.000000 -0.008900 
# 
# From -- ./inp_files/28997.got.cif
#   From: 2010.05.17/outbox.cif.g08.bks.cpg/sg15_15_cif.got.tgz:28997.got - 2010.06.03 18:47:42.
