data_PCOD9276859
_publ_section_title
;
Structure prediction by ZEFSAII (Michael W. Deem and Ramdas Pophale) SiO2 
 PCOD9276859
Probable space group: C 2/C
;
_chemical_formula_sum "Si O2"
_cell_formula_units_Z 60
_cell_length_a 16.688457
_cell_length_b 11.324103
_cell_length_c 26.414781
_cell_angle_alpha 90.000000
_cell_angle_beta 146.757361
_cell_angle_gamma 90.000000
_cell_volume 2736.495753
_symmetry_space_group_name_H-M "C 2/C"
_symmetry_group_IT_number 15
_symmetry_cell_setting 'monoclinic'
loop_
_space_group_symop_operation_xyz
x,y,z
-x,y,1/2-z
-x,-y,-z
x,-y,1/2+z
1/2+x,1/2+y,z
1/2-x,1/2+y,1/2-z
1/2-x,1/2-y,-z
1/2+x,1/2-y,1/2+z
loop_
_atom_site_type_symbol
_atom_site_label
_atom_site_fract_x
_atom_site_fract_y
_atom_site_fract_z
Si Si1 0.838655 0.584166 0.245988
Si Si2 0.319343 0.668835 0.476852
Si Si3 0.157251 0.187231 0.806179
Si Si4 0.991996 0.962520 0.937418
Si Si5 0.000000 0.419064 0.250000
Si Si6 0.832582 0.531017 0.429350
Si Si7 0.608607 0.084487 0.438440
Si Si8 0.245471 0.226695 0.559506
O O1 0.867710 0.724184 0.253505
O O2 0.669279 0.567304 0.164550
O O3 0.895926 0.502917 0.229712
O O4 0.942209 0.546771 0.346770
O O5 0.269237 0.728601 0.397881
O O6 0.451401 0.581578 0.557118
O O7 0.366207 0.782354 0.532339
O O8 0.183710 0.588184 0.423546
O O9 0.229163 0.057339 0.842014
O O10 0.000000 0.176384 0.750000
O O11 0.106142 0.858724 0.990195
O O12 0.000000 0.000000 0.000000
O O13 0.106503 0.337594 0.341676
O O14 0.812603 0.487079 0.476765
O O15 0.789534 0.667349 0.417645
O O16 0.000000 0.500000 0.500000
O O17 0.250000 0.250000 0.500000
#
# Coordination Sequence:
#
# PCOD9276859 Si02
#       8
#     8   8   8   8   4   8   8   8
#     4  12  21  41  68 106 130 174 234 296 339 415
#     4  10  20  40  65  97 128 168 222 283 339 393
#     4  11  20  37  70  95 127 167 225 272 333 405
#     4  12  23  41  71  99 138 178 232 285 348 411
#     4  12  24  42  76 100 140 188 238 290 358 424
#     4  11  26  45  66  94 144 183 220 285 354 412
#     4  10  22  41  67  94 131 175 226 285 339 411
#     4  12  27  50  71 101 149 195 233 283 364 435
#
# _framework density 21.925851000000002
#
# number of rings (size 3 to 8) (size 9 to 14) (size 15 to 20)
#    0.000    0.800    4.667    3.200    2.800    0.000 
#    9.600    0.000    0.000    0.000    0.000    0.000 
#    0.000    0.000    0.000    0.000    0.000    0.000 
#
# Total GULP energy -167075.631671 kJ/mol
# GULP energy per Si atom -5569.187722 kJ/mol
# Density = 2.187595 g / cm^3
# Si number density = 21.925851 Si / 1000 Ang^3
#
#
#
# Elastic Constant Matrix: (Units=GPa)
#
#
# Indices 1 2 3 4 5 6 
#
# 1 21.2566 10.7985 3.5940 0.0000 4.4493 0.0000
# 2 10.7985 97.4051 4.5586 0.0000 10.8749 0.0000
# 3 3.5940 4.5586 91.8267 0.0000 11.3289 0.0000
# 4 0.0000 0.0000 0.0000 28.0775 0.0000 8.6655
# 5 4.4493 10.8749 11.3289 0.0000 37.2315 0.0000
# 6 0.0000 0.0000 0.0000 8.6655 0.0000 22.8891
#
#
#
# Elastic Compliance Matrix: (Units=1/GPa)
#
#
# Indices 1 2 3 4 5 6 
#
# 1 0.050718 -0.005097 -0.001214 0.000000 -0.004203 0.000000
# 2 -0.005097 0.011127 -0.000028 0.000000 -0.002632 0.000000
# 3 -0.001214 -0.000028 0.011346 0.000000 -0.003299 0.000000
# 4 0.000000 0.000000 0.000000 0.040328 0.000000 -0.015268
# 5 -0.004203 -0.002632 -0.003299 0.000000 0.029134 0.000000
# 6 0.000000 0.000000 0.000000 -0.015268 0.000000 0.049469
#
#
# Mechanical properties :
#
#
# Convention : Reuss Voigt Hill
#
# Bulk Modulus (GPa) = 16.52504 27.59897 22.06201
# Shear Modulus (GPa) = 22.22520 30.40875 26.31698
#
# Velocity S-wave (km/s) = 3.18725 3.72814 3.46825
# Velocity P-wave (km/s) = 4.59324 5.58093 5.11100
#
# Compressibility (1/GPa) = 0.06051422
#
# Stress axis : x y z
#
# Youngs Moduli (GPa) = 19.71679 89.87443 88.13681
#
# Poissons Ratio (x) = 0.45806 0.10696
# Poissons Ratio (y) = 0.10049 0.00248
# Poissons Ratio (z) = 0.02393 0.00253
#
# Static dielectric constant tensor:
#      x y z
#    x 2.045770 0.000000 -0.024580 
#    y 0.000000 1.775580 0.000000 
#    z -0.024580 0.000000 1.818240 
# 
# From -- ./inp_files/316080.got.cif
#   From: 2010.05.17/outbox.cif.g08.bks.cpg/sg15_159_cif.got.tgz:316080.got - 2010.06.03 18:47:42.
