data_PCOD9276489
_publ_section_title
;
Structure prediction by ZEFSAII (Michael W. Deem and Ramdas Pophale) SiO2 
 PCOD9276489
Probable space group: C 2/C
;
_chemical_formula_sum "Si O2"
_cell_formula_units_Z 36
_cell_length_a 11.948846
_cell_length_b 8.005212
_cell_length_c 25.668433
_cell_angle_alpha 90.000000
_cell_angle_beta 142.886622
_cell_angle_gamma 90.000000
_cell_volume 1481.491927
_symmetry_space_group_name_H-M "C 2/C"
_symmetry_group_IT_number 15
_symmetry_cell_setting 'monoclinic'
loop_
_space_group_symop_operation_xyz
x,y,z
-x,y,1/2-z
-x,-y,-z
x,-y,1/2+z
1/2+x,1/2+y,z
1/2-x,1/2+y,1/2-z
1/2-x,1/2-y,-z
1/2+x,1/2-y,1/2+z
loop_
_atom_site_type_symbol
_atom_site_label
_atom_site_fract_x
_atom_site_fract_y
_atom_site_fract_z
Si Si1 0.138327 0.697010 0.574122
Si Si2 0.410835 0.512626 0.370612
Si Si3 0.342971 0.986736 0.518120
Si Si4 0.865684 0.673601 0.305037
Si Si5 0.500000 0.647814 0.750000
O O1 0.159869 0.880959 0.606308
O O2 0.157835 0.675798 0.520010
O O3 0.298146 0.577373 0.659368
O O4 0.940328 0.628609 0.519222
O O5 0.632203 0.522849 0.452955
O O6 0.326444 0.599324 0.287219
O O7 0.344766 0.322522 0.338957
O O8 0.485600 0.956865 0.617758
O O9 0.955652 0.751015 0.286173
#
# Coordination Sequence:
#
# PCOD9276489 Si02
#       5
#     8   8   8   8   4
#     4  10  23  40  68  95 127 183 223 276 344 408
#     4  11  23  42  70  96 138 175 229 281 337 417
#     4  11  23  43  68  98 135 178 226 285 342 406
#     4  11  23  42  67  96 133 183 221 282 346 397
#     4  10  20  40  62  90 134 174 218 268 342 396
#
# _framework density 24.299828999999999
#
# number of rings (size 3 to 8) (size 9 to 14) (size 15 to 20)
#    0.000    1.333    2.222    4.000    0.000    0.889 
#    4.000    0.000    9.778    0.000    0.000    0.000 
#    0.000    0.000    0.000    0.000    0.000    0.000 
#
# Total GULP energy -100560.250674 kJ/mol
# GULP energy per Si atom -5586.680593 kJ/mol
# Density = 2.424452 g / cm^3
# Si number density = 24.299829 Si / 1000 Ang^3
#
#
#
# Elastic Constant Matrix: (Units=GPa)
#
#
# Indices 1 2 3 4 5 6 
#
# 1 54.3562 22.0998 20.3786 0.0000 -3.2556 0.0000
# 2 22.0998 62.1797 30.9044 0.0000 10.7870 0.0000
# 3 20.3786 30.9044 150.6965 0.0000 8.2271 0.0000
# 4 0.0000 0.0000 0.0000 41.5186 0.0000 -2.6458
# 5 -3.2556 10.7870 8.2271 0.0000 44.5463 0.0000
# 6 0.0000 0.0000 0.0000 -2.6458 0.0000 21.5638
#
#
#
# Elastic Compliance Matrix: (Units=1/GPa)
#
#
# Indices 1 2 3 4 5 6 
#
# 1 0.022420 -0.007820 -0.001638 0.000000 0.003835 0.000000
# 2 -0.007820 0.021258 -0.003020 0.000000 -0.005161 0.000000
# 3 -0.001638 -0.003020 0.007519 0.000000 -0.000777 0.000000
# 4 0.000000 0.000000 0.000000 0.024275 0.000000 0.002978
# 5 0.003835 -0.005161 -0.000777 0.000000 0.024122 0.000000
# 6 0.000000 0.000000 0.000000 0.002978 0.000000 0.046739
#
#
# Mechanical properties :
#
#
# Convention : Reuss Voigt Hill
#
# Bulk Modulus (GPa) = 38.10674 45.99979 42.05327
# Shear Modulus (GPa) = 27.77202 34.44905 31.11054
#
# Velocity S-wave (km/s) = 3.38433 3.76928 3.58198
# Velocity P-wave (km/s) = 5.56665 6.15747 5.86950
#
# Compressibility (1/GPa) = 0.02624208
#
# Stress axis : x y z
#
# Youngs Moduli (GPa) = 44.60284 47.04043 132.99440
#
# Poissons Ratio (x) = 0.36785 0.21778
# Poissons Ratio (y) = 0.34879 0.40169
# Poissons Ratio (z) = 0.07304 0.14208
#
# Static dielectric constant tensor:
#      x y z
#    x 1.905520 0.000000 0.003530 
#    y 0.000000 2.057480 0.000000 
#    z 0.003530 0.000000 1.978320 
# 
# From -- ./inp_files/177071.got.cif
#   From: 2010.05.17/outbox.cif.g08.bks.cpg/sg15_89_cif.got.tgz:177071.got - 2010.06.03 18:47:42.
