data_PCOD9276978
_publ_section_title
;
Structure prediction by ZEFSAII (Michael W. Deem and Ramdas Pophale) SiO2 
 PCOD9276978
Probable space group: C 2/C
;
_chemical_formula_sum "Si O2"
_cell_formula_units_Z 44
_cell_length_a 9.246349
_cell_length_b 27.178719
_cell_length_c 9.333474
_cell_angle_alpha 90.000000
_cell_angle_beta 116.990069
_cell_angle_gamma 90.000000
_cell_volume 2090.074747
_symmetry_space_group_name_H-M "C 2/C"
_symmetry_group_IT_number 15
_symmetry_cell_setting 'monoclinic'
loop_
_space_group_symop_operation_xyz
x,y,z
-x,y,1/2-z
-x,-y,-z
x,-y,1/2+z
1/2+x,1/2+y,z
1/2-x,1/2+y,1/2-z
1/2-x,1/2-y,-z
1/2+x,1/2-y,1/2+z
loop_
_atom_site_type_symbol
_atom_site_label
_atom_site_fract_x
_atom_site_fract_y
_atom_site_fract_z
Si Si1 0.500000 0.061131 0.750000
Si Si2 0.000000 0.598304 0.250000
Si Si3 0.231419 0.023371 0.101564
Si Si4 0.000000 0.012460 0.250000
Si Si5 0.124497 0.204230 0.439593
Si Si6 0.935754 0.260753 0.563369
Si Si7 0.420421 0.855353 0.996713
O O1 0.493903 0.099017 0.615014
O O2 0.659435 0.025955 0.822879
O O3 0.863772 0.563770 0.120707
O O4 0.907800 0.629136 0.327013
O O5 0.108130 0.016357 0.915118
O O6 0.131794 0.037423 0.201701
O O7 0.250000 0.250000 0.500000
O O8 0.245006 0.158253 0.481766
O O9 0.000000 0.205878 0.250000
O O10 0.021918 0.212654 0.536281
O O11 0.750000 0.250000 0.500000
O O12 0.000000 0.272090 0.750000
O O13 0.970579 0.305705 0.467848
#
# Coordination Sequence:
#
# PCOD9276978 Si02
#       7
#     4   4   8   4   8   8   8
#     4  11  24  42  64  94 129 178 217 254 322 393
#     4  11  22  44  66  90 133 176 221 256 318 395
#     4  10  22  42  69  92 129 178 208 264 328 377
#     4  10  20  40  66  98 120 158 228 260 318 380
#     4  10  23  42  66  92 127 170 209 263 332 380
#     4  11  23  41  68  92 128 170 212 262 327 384
#     4  11  24  40  65  97 131 166 223 266 308 387
#
# _framework density 21.051879
#
# number of rings (size 3 to 8) (size 9 to 14) (size 15 to 20)
#    0.000    1.455    0.909    4.364    7.636    2.909 
#    9.818    1.818    2.000    0.000    0.000    0.000 
#    0.000    0.000    0.000    0.000    0.000    0.000 
#
# Total GULP energy -122681.860279 kJ/mol
# GULP energy per Si atom -5576.448194 kJ/mol
# Density = 2.100396 g / cm^3
# Si number density = 21.051879 Si / 1000 Ang^3
#
#
#
# Elastic Constant Matrix: (Units=GPa)
#
#
# Indices 1 2 3 4 5 6 
#
# 1 154.0544 42.8123 33.8488 0.0000 -4.9510 0.0000
# 2 42.8123 75.4915 23.7426 0.0000 -0.8813 0.0000
# 3 33.8488 23.7426 84.5582 0.0000 -1.2725 0.0000
# 4 0.0000 0.0000 0.0000 -12.2729 0.0000 -18.6095
# 5 -4.9510 -0.8813 -1.2725 0.0000 45.6879 0.0000
# 6 0.0000 0.0000 0.0000 -18.6095 0.0000 0.5893
#
#
#
# Elastic Compliance Matrix: (Units=1/GPa)
#
#
# Indices 1 2 3 4 5 6 
#
# 1 0.008064 -0.003897 -0.002123 0.000000 0.000740 0.000000
# 2 -0.003897 0.016414 -0.003052 0.000000 -0.000191 0.000000
# 3 -0.002123 -0.003052 0.013534 0.000000 0.000088 0.000000
# 4 0.000000 0.000000 0.000000 -0.001667 0.000000 -0.052637
# 5 0.000740 -0.000191 0.000088 0.000000 0.021967 0.000000
# 6 0.000000 0.000000 0.000000 -0.052637 0.000000 0.034714
#
#
# Mechanical properties :
#
#
# Convention : Reuss Voigt Hill
#
# Bulk Modulus (GPa) = 50.32853 57.21240 53.77047
# Shear Modulus (GPa) = 42.44733 21.04753 31.74743
#
# Velocity S-wave (km/s) = 4.49522 3.16538 3.88758
# Velocity P-wave (km/s) = 7.13452 6.37145 6.76376
#
# Compressibility (1/GPa) = 0.01986945
#
# Stress axis : x y z
#
# Youngs Moduli (GPa) = 124.00098 60.92272 73.88724
#
# Poissons Ratio (x) = 0.23743 0.15685
# Poissons Ratio (y) = 0.48326 0.22548
# Poissons Ratio (z) = 0.26323 0.18592
#
# Static dielectric constant tensor:
#      x y z
#    x 1.835920 0.000000 0.030900 
#    y 0.000000 1.799300 0.000000 
#    z 0.030900 0.000000 1.848450 
# 
# From -- ./inp_files/25773.got.cif
#   From: 2010.05.17/outbox.cif.g08.bks.cpg/sg15_13_cif.got.tgz:25773.got - 2010.06.03 18:47:42.
