data_PCOD9276141
_publ_section_title
;
Structure prediction by ZEFSAII (Michael W. Deem and Ramdas Pophale) SiO2 
 PCOD9276141
Probable space group: C 2/C
;
_chemical_formula_sum "Si O2"
_cell_formula_units_Z 40
_cell_length_a 22.269049
_cell_length_b 14.137312
_cell_length_c 8.230436
_cell_angle_alpha 90.000000
_cell_angle_beta 139.320595
_cell_angle_gamma 90.000000
_cell_volume 1688.973888
_symmetry_space_group_name_H-M "C 2/C"
_symmetry_group_IT_number 15
_symmetry_cell_setting 'monoclinic'
loop_
_space_group_symop_operation_xyz
x,y,z
-x,y,1/2-z
-x,-y,-z
x,-y,1/2+z
1/2+x,1/2+y,z
1/2-x,1/2+y,1/2-z
1/2-x,1/2-y,-z
1/2+x,1/2-y,1/2+z
loop_
_atom_site_type_symbol
_atom_site_label
_atom_site_fract_x
_atom_site_fract_y
_atom_site_fract_z
Si Si1 0.707734 0.047908 0.026080
Si Si2 0.900611 0.855341 0.495158
Si Si3 0.238003 0.773398 0.664754
Si Si4 0.607810 0.121344 0.511837
Si Si5 0.606591 0.484598 0.270827
O O1 0.737938 0.121323 0.228410
O O2 0.663552 0.953648 0.012553
O O3 0.800602 0.027983 0.116018
O O4 0.634332 0.093002 0.750192
O O5 0.822462 0.790529 0.408643
O O6 0.888562 0.874947 0.277259
O O7 0.000000 0.817274 0.750000
O O8 0.893445 0.960472 0.558469
O O9 0.250000 0.750000 0.500000
O O10 0.147635 0.725228 0.554413
O O11 0.500000 0.115044 0.250000
O O12 0.500000 0.500000 0.000000
#
# Coordination Sequence:
#
# PCOD9276141 Si02
#       5
#     8   8   8   8   8
#     4  12  24  47  77 100 144 189 239 300 361 427
#     4  10  22  40  66  98 135 171 227 284 357 414
#     4  12  27  45  70 103 140 188 240 294 353 427
#     4  12  27  49  72 106 143 194 244 295 363 439
#     4  10  20  39  69 100 131 174 221 284 360 417
#
# _framework density 23.683019000000002
#
# number of rings (size 3 to 8) (size 9 to 14) (size 15 to 20)
#    0.000    0.800    4.000    2.400    2.800    2.400 
#    3.600    0.000    0.000    0.000    0.000    0.000 
#    0.000    0.000    0.000    0.000    0.000    0.000 
#
# Total GULP energy -111580.644418 kJ/mol
# GULP energy per Si atom -5579.032221 kJ/mol
# Density = 2.362912 g / cm^3
# Si number density = 23.683019 Si / 1000 Ang^3
#
#
#
# Elastic Constant Matrix: (Units=GPa)
#
#
# Indices 1 2 3 4 5 6 
#
# 1 91.1623 20.3459 41.4503 0.0000 28.1499 0.0000
# 2 20.3459 83.2620 16.9700 0.0000 12.4083 0.0000
# 3 41.4503 16.9700 152.5932 0.0000 15.6585 0.0000
# 4 0.0000 0.0000 0.0000 13.7834 0.0000 -17.3082
# 5 28.1499 12.4083 15.6585 0.0000 51.3910 0.0000
# 6 0.0000 0.0000 0.0000 -17.3082 0.0000 27.3140
#
#
#
# Elastic Compliance Matrix: (Units=1/GPa)
#
#
# Indices 1 2 3 4 5 6 
#
# 1 0.014924 -0.002003 -0.003140 0.000000 -0.006734 0.000000
# 2 -0.002003 0.012913 -0.000707 0.000000 -0.001805 0.000000
# 3 -0.003140 -0.000707 0.007526 0.000000 -0.000403 0.000000
# 4 0.000000 0.000000 0.000000 0.355166 0.000000 0.225060
# 5 -0.006734 -0.001805 -0.000403 0.000000 0.023706 0.000000
# 6 0.000000 0.000000 0.000000 0.225060 0.000000 0.179227
#
#
# Mechanical properties :
#
#
# Convention : Reuss Voigt Hill
#
# Bulk Modulus (GPa) = 42.26013 53.83885 48.04949
# Shear Modulus (GPa) = 8.15596 35.04777 21.60187
#
# Velocity S-wave (km/s) = 1.85776 3.85108 3.02342
# Velocity P-wave (km/s) = 4.74178 6.52356 5.70269
#
# Compressibility (1/GPa) = 0.02366296
#
# Stress axis : x y z
#
# Youngs Moduli (GPa) = 67.00748 77.44234 132.86860
#
# Poissons Ratio (x) = 0.15513 0.41721
# Poissons Ratio (y) = 0.13423 0.09389
# Poissons Ratio (z) = 0.21041 0.05472
#
# Static dielectric constant tensor:
#      x y z
#    x 1.902470 0.000000 -0.029220 
#    y 0.000000 1.950660 0.000000 
#    z -0.029220 0.000000 2.049790 
# 
# From -- ./inp_files/61732.got.cif
#   From: 2010.05.17/outbox.cif.g08.bks.cpg/sg15_31_cif.got.tgz:61732.got - 2010.06.03 18:47:42.
