data_PCOD9276942
_publ_section_title
;
Structure prediction by ZEFSAII (Michael W. Deem and Ramdas Pophale) SiO2 
 PCOD9276942
Probable space group: C 2/C
;
_chemical_formula_sum "Si O2"
_cell_formula_units_Z 64
_cell_length_a 13.096539
_cell_length_b 26.798992
_cell_length_c 18.587576
_cell_angle_alpha 90.000000
_cell_angle_beta 150.316461
_cell_angle_gamma 90.000000
_cell_volume 3230.623635
_symmetry_space_group_name_H-M "C 2/C"
_symmetry_group_IT_number 15
_symmetry_cell_setting 'monoclinic'
loop_
_space_group_symop_operation_xyz
x,y,z
-x,y,1/2-z
-x,-y,-z
x,-y,1/2+z
1/2+x,1/2+y,z
1/2-x,1/2+y,1/2-z
1/2-x,1/2-y,-z
1/2+x,1/2-y,1/2+z
loop_
_atom_site_type_symbol
_atom_site_label
_atom_site_fract_x
_atom_site_fract_y
_atom_site_fract_z
Si Si1 0.409669 0.934888 0.118343
Si Si2 0.403820 0.281592 0.377345
Si Si3 0.036248 0.965979 0.689445
Si Si4 0.347731 0.200303 0.223550
Si Si5 0.760636 0.199533 0.115734
Si Si6 0.374029 0.115024 0.363110
Si Si7 0.503773 0.177684 0.671106
Si Si8 0.641984 0.045742 0.612115
O O1 0.500000 0.950052 0.250000
O O2 0.387109 0.875044 0.105464
O O3 0.556533 0.943349 0.139579
O O4 0.191170 0.961613 0.980106
O O5 0.408114 0.251735 0.303887
O O6 0.619917 0.294674 0.547927
O O7 0.293115 0.240793 0.359241
O O8 0.234969 0.325973 0.279762
O O9 0.197615 0.927824 0.750667
O O10 0.000000 0.950431 0.750000
O O11 0.132328 0.021503 0.747329
O O12 0.500000 0.193364 0.250000
O O13 0.369357 0.153343 0.292615
O O14 0.682542 0.148186 0.102470
O O15 0.000000 0.194219 0.250000
O O16 0.627703 0.210183 0.963963
O O17 0.586839 0.088310 0.519408
O O18 0.500000 0.196912 0.750000
O O19 0.500000 0.000000 0.500000
#
# Coordination Sequence:
#
# PCOD9276942 Si02
#       8
#     8   8   8   8   8   8   8   8
#     4  11  23  38  62  98 134 170 209 274 332 388
#     4  11  24  41  63  94 132 178 225 272 322 391
#     4  11  20  40  70  94 123 173 213 261 341 407
#     4  11  25  45  68  92 131 182 230 274 327 384
#     4  11  21  36  61  93 129 173 212 261 328 388
#     4  10  21  38  68  91 126 165 220 269 321 394
#     4  11  23  36  60  96 140 163 213 271 329 391
#     4  10  20  40  66  93 123 165 224 261 323 414
#
# _framework density 19.810416
#
# number of rings (size 3 to 8) (size 9 to 14) (size 15 to 20)
#    0.000    1.250    5.000    1.875    7.000    1.500 
#    0.000    3.750    0.000    0.000    0.000    0.000 
#    0.000    0.000    0.000    0.000    0.000    0.000 
#
# Total GULP energy -178376.956102 kJ/mol
# GULP energy per Si atom -5574.279878 kJ/mol
# Density = 1.976533 g / cm^3
# Si number density = 19.810416 Si / 1000 Ang^3
#
#
#
# Elastic Constant Matrix: (Units=GPa)
#
#
# Indices 1 2 3 4 5 6 
#
# 1 108.8452 22.1965 49.4748 0.0003 -11.7456 0.0005
# 2 22.1965 60.3117 32.2192 -0.0002 13.9993 0.0000
# 3 49.4748 32.2192 140.4264 -0.0023 -4.2649 0.0016
# 4 0.0003 -0.0002 -0.0023 33.4846 0.0002 1.1634
# 5 -11.7456 13.9993 -4.2649 0.0002 31.3512 0.0005
# 6 0.0005 0.0000 0.0016 1.1634 0.0005 31.7733
#
#
#
# Elastic Compliance Matrix: (Units=1/GPa)
#
#
# Indices 1 2 3 4 5 6 
#
# 1 0.012103 -0.004170 -0.003126 0.000000 0.005971 0.000000
# 2 -0.004170 0.023303 -0.004258 0.000000 -0.012547 0.000000
# 3 -0.003126 -0.004258 0.009260 0.000001 0.001990 0.000000
# 4 0.000000 0.000000 0.000001 0.029903 0.000000 -0.001095
# 5 0.005971 -0.012547 0.001990 0.000000 0.040007 -0.000001
# 6 0.000000 0.000000 0.000000 -0.001095 -0.000001 0.031513
#
#
# Mechanical properties :
#
#
# Convention : Reuss Voigt Hill
#
# Bulk Modulus (GPa) = 46.39003 57.48490 51.93747
# Shear Modulus (GPa) = 28.34740 33.03468 30.69104
#
# Velocity S-wave (km/s) = 3.78687 4.08798 3.94031
# Velocity P-wave (km/s) = 6.52598 7.16677 6.85387
#
# Compressibility (1/GPa) = 0.02155636
#
# Stress axis : x y z
#
# Youngs Moduli (GPa) = 82.62368 42.91375 107.99217
#
# Poissons Ratio (x) = 0.17897 0.33757
# Poissons Ratio (y) = 0.34458 0.45986
# Poissons Ratio (z) = 0.25827 0.18274
#
# Static dielectric constant tensor:
#      x y z
#    x 1.709120 0.000000 0.002480 
#    y 0.000000 1.806990 0.000000 
#    z 0.002480 0.000000 1.596320 
# 
# From -- ./inp_files/201482.got.cif
#   From: 2010.05.17/outbox.cif.g08.bks.cpg/sg15_101_cif.got.tgz:201482.got - 2010.06.03 18:47:42.
