data_PCOD9276974
_publ_section_title
;
Structure prediction by ZEFSAII (Michael W. Deem and Ramdas Pophale) SiO2 
 PCOD9276974
Probable space group: C 2/C
;
_chemical_formula_sum "Si O2"
_cell_formula_units_Z 32
_cell_length_a 15.252639
_cell_length_b 9.115385
_cell_length_c 8.252055
_cell_angle_alpha 90.000000
_cell_angle_beta 67.036894
_cell_angle_gamma 90.000000
_cell_volume 1056.396134
_symmetry_space_group_name_H-M "C 2/C"
_symmetry_group_IT_number 15
_symmetry_cell_setting 'monoclinic'
loop_
_space_group_symop_operation_xyz
x,y,z
-x,y,1/2-z
-x,-y,-z
x,-y,1/2+z
1/2+x,1/2+y,z
1/2-x,1/2+y,1/2-z
1/2-x,1/2-y,-z
1/2+x,1/2-y,1/2+z
loop_
_atom_site_type_symbol
_atom_site_label
_atom_site_fract_x
_atom_site_fract_y
_atom_site_fract_z
Si Si1 0.743977 0.956654 0.904976
Si Si2 0.586667 0.756698 0.116010
Si Si3 0.663897 0.771870 0.691012
Si Si4 0.021583 0.168096 0.548553
O O1 0.647374 0.909293 0.070009
O O2 0.728856 0.892898 0.733439
O O3 0.776351 0.123166 0.868983
O O4 0.831553 0.867079 0.918966
O O5 0.466180 0.743203 0.158317
O O6 0.586960 0.749460 0.896787
O O7 0.603582 0.779190 0.569886
O O8 0.000000 0.113182 0.750000
O O9 0.000000 0.000000 0.500000
#
# Coordination Sequence:
#
# PCOD9276974 Si02
#       4
#     8   8   8   8
#     4  10  20  40  66  97 128 165 219 265 321 380
#     4  10  21  38  67  94 129 168 218 264 318 381
#     4   8  18  37  67  94 125 166 213 270 313 382
#     4   7  17  38  64  97 116 166 221 267 305 369
#
# _framework density 30.291668000000001
#
# number of rings (size 3 to 8) (size 9 to 14) (size 15 to 20)
#    1.500    1.500    0.000    0.000    3.500    1.000 
#    9.000    2.500   11.000    0.000    0.000    7.000 
#    0.000    0.000    0.000    0.000    0.000    0.000 
#
# Total GULP energy -89234.347870 kJ/mol
# GULP energy per Si atom -5577.146742 kJ/mol
# Density = 3.022272 g / cm^3
# Si number density = 30.291668 Si / 1000 Ang^3
#
#
#
# Elastic Constant Matrix: (Units=GPa)
#
#
# Indices 1 2 3 4 5 6 
#
# 1 223.7628 68.8443 114.9896 0.0000 35.5040 0.0000
# 2 68.8443 135.6031 28.2980 0.0000 53.8271 0.0000
# 3 114.9896 28.2980 315.1137 0.0000 62.3979 0.0000
# 4 0.0000 0.0000 0.0000 39.3475 0.0000 -5.8839
# 5 35.5040 53.8271 62.3979 0.0000 126.9926 0.0000
# 6 0.0000 0.0000 0.0000 -5.8839 0.0000 34.2647
#
#
#
# Elastic Compliance Matrix: (Units=1/GPa)
#
#
# Indices 1 2 3 4 5 6 
#
# 1 0.006438 -0.003035 -0.002188 0.000000 0.000561 0.000000
# 2 -0.003035 0.010298 0.000974 0.000000 -0.003995 0.000000
# 3 -0.002188 0.000974 0.004259 0.000000 -0.001894 0.000000
# 4 0.000000 0.000000 0.000000 0.026084 0.000000 0.004479
# 5 0.000561 -0.003995 -0.001894 0.000000 0.010341 0.000000
# 6 0.000000 0.000000 0.000000 0.004479 0.000000 0.029954
#
#
# Mechanical properties :
#
#
# Convention : Reuss Voigt Hill
#
# Bulk Modulus (GPa) = 80.01875 122.08260 101.05068
# Shear Modulus (GPa) = 49.98083 70.94415 60.46249
#
# Velocity S-wave (km/s) = 4.06641 4.84471 4.47252
# Velocity P-wave (km/s) = 6.96570 8.46669 7.75261
#
# Compressibility (1/GPa) = 0.01249707
#
# Stress axis : x y z
#
# Youngs Moduli (GPa) = 155.32745 97.10894 234.77125
#
# Poissons Ratio (x) = 0.29471 0.51367
# Poissons Ratio (y) = 0.47139 -0.22860
# Poissons Ratio (z) = 0.33985 -0.09456
#
# Static dielectric constant tensor:
#      x y z
#    x 3.787500 0.000000 -0.550440 
#    y 0.000000 2.320230 0.000000 
#    z -0.550440 0.000000 2.812540 
# 
# From -- ./inp_files/84128.got.cif
#   From: 2010.05.17/outbox.cif.g08.bks.cpg/sg15_43_cif.got.tgz:84128.got - 2010.06.03 18:47:42.
