data_PCOD9276160
_publ_section_title
;
Structure prediction by ZEFSAII (Michael W. Deem and Ramdas Pophale) SiO2 
 PCOD9276160
Probable space group: C 2/C
;
_chemical_formula_sum "Si O2"
_cell_formula_units_Z 56
_cell_length_a 26.482080
_cell_length_b 5.522431
_cell_length_c 19.386354
_cell_angle_alpha 90.000000
_cell_angle_beta 68.406816
_cell_angle_gamma 90.000000
_cell_volume 2636.195053
_symmetry_space_group_name_H-M "C 2/C"
_symmetry_group_IT_number 15
_symmetry_cell_setting 'monoclinic'
loop_
_space_group_symop_operation_xyz
x,y,z
-x,y,1/2-z
-x,-y,-z
x,-y,1/2+z
1/2+x,1/2+y,z
1/2-x,1/2+y,1/2-z
1/2-x,1/2-y,-z
1/2+x,1/2-y,1/2+z
loop_
_atom_site_type_symbol
_atom_site_label
_atom_site_fract_x
_atom_site_fract_y
_atom_site_fract_z
Si Si1 0.245870 0.661364 0.581076
Si Si2 0.584114 0.139162 0.598435
Si Si3 0.172600 0.281386 0.579001
Si Si4 0.640873 0.449694 0.469304
Si Si5 0.516394 0.929897 0.913192
Si Si6 0.364736 0.407469 0.807225
Si Si7 0.417658 0.580905 0.134638
O O1 0.250000 0.750000 0.500000
O O2 0.228098 0.378727 0.582908
O O3 0.305557 0.695282 0.583616
O O4 0.195103 0.792214 0.645360
O O5 0.589100 0.320741 0.531271
O O6 0.589358 0.268940 0.669829
O O7 0.642162 0.011017 0.564255
O O8 0.537282 0.947612 0.607565
O O9 0.166691 0.093075 0.520605
O O10 0.138361 0.173702 0.658799
O O11 0.617202 0.596698 0.417780
O O12 0.546517 0.669447 0.889970
O O13 0.550053 0.167869 0.873979
O O14 0.500000 0.000000 0.000000
O O15 0.379809 0.427342 0.720713
#
# Coordination Sequence:
#
# PCOD9276160 Si02
#       7
#     8   8   8   8   8   8   8
#     4  11  20  40  68 101 132 179 236 279 341 412
#     4  10  22  41  71  99 132 176 237 280 342 414
#     4  10  20  39  69  95 135 173 238 281 336 414
#     4  11  22  40  69 100 130 184 229 287 339 412
#     4  12  26  48  75 101 136 185 235 287 348 418
#     4  10  25  44  63 102 143 177 227 292 344 416
#     4  12  29  47  69 104 147 178 230 294 351 405
#
# _framework density 21.242737999999999
#
# number of rings (size 3 to 8) (size 9 to 14) (size 15 to 20)
#    0.000    1.143    5.714    1.714    8.000    0.571 
#    2.571    0.000    0.000    0.000    0.000    0.000 
#    0.000    0.000    0.000    0.000    0.000    0.000 
#
# Total GULP energy -155916.210907 kJ/mol
# GULP energy per Si atom -5568.436104 kJ/mol
# Density = 2.119439 g / cm^3
# Si number density = 21.242738 Si / 1000 Ang^3
#
#
#
# Elastic Constant Matrix: (Units=GPa)
#
#
# Indices 1 2 3 4 5 6 
#
# 1 54.8793 2.8788 -10.1968 0.0003 -8.3307 0.0000
# 2 2.8788 67.5141 10.4748 0.0016 -11.7109 0.0021
# 3 -10.1968 10.4748 104.0928 0.0001 -11.9413 0.0005
# 4 0.0003 0.0016 0.0001 19.9331 -0.0001 -4.3735
# 5 -8.3307 -11.7109 -11.9413 -0.0001 20.7590 0.0002
# 6 0.0000 0.0021 0.0005 -4.3735 0.0002 25.4170
#
#
#
# Elastic Compliance Matrix: (Units=1/GPa)
#
#
# Indices 1 2 3 4 5 6 
#
# 1 0.020325 0.000416 0.003118 0.000000 0.010185 0.000000
# 2 0.000416 0.016466 -0.000569 -0.000002 0.009129 -0.000002
# 3 0.003118 -0.000569 0.010788 0.000000 0.007136 0.000000
# 4 0.000000 -0.000002 0.000000 0.052136 -0.000001 0.008971
# 5 0.010185 0.009129 0.007136 -0.000001 0.061514 -0.000002
# 6 0.000000 -0.000002 0.000000 0.008971 -0.000002 0.040887
#
#
# Mechanical properties :
#
#
# Convention : Reuss Voigt Hill
#
# Bulk Modulus (GPa) = 18.68854 25.86666 22.27760
# Shear Modulus (GPa) = 23.36201 28.11044 25.73623
#
# Velocity S-wave (km/s) = 3.31987 3.64166 3.48448
# Velocity P-wave (km/s) = 4.84892 5.46675 5.16708
#
# Compressibility (1/GPa) = 0.05350873
#
# Stress axis : x y z
#
# Youngs Moduli (GPa) = 49.19981 60.73240 92.69511
#
# Poissons Ratio (x) = -0.02528 -0.28898
# Poissons Ratio (y) = -0.02048 0.05274
# Poissons Ratio (z) = -0.15338 0.03455
#
# Static dielectric constant tensor:
#      x y z
#    x 1.825670 0.000000 -0.058310 
#    y 0.000000 1.858730 0.000000 
#    z -0.058310 0.000000 1.750630 
# 
# From -- ./inp_files/221211.got.cif
#   From: 2010.05.17/outbox.cif.g08.bks.cpg/sg15_111_cif.got.tgz:221211.got - 2010.06.03 18:47:42.
