data_PCOD9276384
_publ_section_title
;
Structure prediction by ZEFSAII (Michael W. Deem and Ramdas Pophale) SiO2 
 PCOD9276384
Probable space group: C 2/C
;
_chemical_formula_sum "Si O2"
_cell_formula_units_Z 52
_cell_length_a 12.454251
_cell_length_b 15.806613
_cell_length_c 15.632978
_cell_angle_alpha 90.000000
_cell_angle_beta 129.915220
_cell_angle_gamma 90.000000
_cell_volume 2360.426771
_symmetry_space_group_name_H-M "C 2/C"
_symmetry_group_IT_number 15
_symmetry_cell_setting 'monoclinic'
loop_
_space_group_symop_operation_xyz
x,y,z
-x,y,1/2-z
-x,-y,-z
x,-y,1/2+z
1/2+x,1/2+y,z
1/2-x,1/2+y,1/2-z
1/2-x,1/2-y,-z
1/2+x,1/2-y,1/2+z
loop_
_atom_site_type_symbol
_atom_site_label
_atom_site_fract_x
_atom_site_fract_y
_atom_site_fract_z
Si Si1 0.211747 0.617674 0.238837
Si Si2 0.614529 0.951379 0.113866
Si Si3 0.617195 0.303325 0.461674
Si Si4 0.465357 0.649748 0.135311
Si Si5 0.444011 0.795208 0.005702
Si Si6 0.868576 0.967264 0.118768
Si Si7 0.000000 0.289211 0.750000
O O1 0.171428 0.518693 0.210721
O O2 0.379505 0.625494 0.321566
O O3 0.129977 0.654017 0.280817
O O4 0.151862 0.663361 0.119554
O O5 0.532435 0.867773 0.099617
O O6 0.738980 0.936089 0.110024
O O7 0.500000 0.000000 0.000000
O O8 0.750000 0.250000 0.500000
O O9 0.560025 0.259499 0.515388
O O10 0.626539 0.403613 0.458624
O O11 0.511595 0.274918 0.333980
O O12 0.500000 0.676633 0.250000
O O13 0.392066 0.724335 0.044960
O O14 0.369669 0.565210 0.091015
O O15 0.000000 0.961987 0.250000
#
# Coordination Sequence:
#
# PCOD9276384 Si02
#       7
#     8   8   8   8   8   8   4
#     4  10  21  41  64  92 127 172 218 269 323 385
#     4  10  20  40  61  86 123 174 215 252 324 392
#     4  11  20  36  63  94 121 160 212 269 321 380
#     4  11  23  42  63  94 135 169 211 272 330 391
#     4  10  23  38  65  91 126 172 218 266 321 394
#     4  11  21  38  65  93 127 169 207 265 334 376
#     4  10  22  36  62  94 124 160 224 270 310 382
#
# _framework density 22.029914999999999
#
# number of rings (size 3 to 8) (size 9 to 14) (size 15 to 20)
#    0.000    1.538    5.385    0.923    0.000    1.231 
#    1.385    0.000    0.000    0.000    0.000    0.000 
#    0.000    0.000    0.000    0.000    0.000    0.000 
#
# Total GULP energy -144849.219592 kJ/mol
# GULP energy per Si atom -5571.123830 kJ/mol
# Density = 2.197977 g / cm^3
# Si number density = 22.029915 Si / 1000 Ang^3
#
#
#
# Elastic Constant Matrix: (Units=GPa)
#
#
# Indices 1 2 3 4 5 6 
#
# 1 54.6877 -0.9950 -9.1114 0.0000 13.2026 0.0000
# 2 -0.9950 135.0093 20.5220 0.0000 -12.3776 0.0000
# 3 -9.1114 20.5220 20.5313 0.0000 -0.1722 0.0000
# 4 0.0000 0.0000 0.0000 19.4242 0.0000 -12.3460
# 5 13.2026 -12.3776 -0.1722 0.0000 29.9902 0.0000
# 6 0.0000 0.0000 0.0000 -12.3460 0.0000 33.8758
#
#
#
# Elastic Compliance Matrix: (Units=1/GPa)
#
#
# Indices 1 2 3 4 5 6 
#
# 1 0.023123 -0.002841 0.013006 0.000000 -0.011277 0.000000
# 2 -0.002841 0.009479 -0.010692 0.000000 0.005101 0.000000
# 3 0.013006 -0.010692 0.065084 0.000000 -0.009765 0.000000
# 4 0.000000 0.000000 0.000000 0.067003 0.000000 0.024419
# 5 -0.011277 0.005101 -0.009765 0.000000 0.040358 0.000000
# 6 0.000000 0.000000 0.000000 0.024419 0.000000 0.038419
#
#
# Mechanical properties :
#
#
# Convention : Reuss Voigt Hill
#
# Bulk Modulus (GPa) = 10.34840 25.67326 18.01083
# Shear Modulus (GPa) = 18.06811 29.97889 24.02350
#
# Velocity S-wave (km/s) = 2.86695 3.69294 3.30585
# Velocity P-wave (km/s) = 3.95814 5.46469 4.77125
#
# Compressibility (1/GPa) = 0.09663333
#
# Stress axis : x y z
#
# Youngs Moduli (GPa) = 43.24608 105.49704 15.36477
#
# Poissons Ratio (x) = 0.29966 -0.19984
# Poissons Ratio (y) = 0.12284 0.16429
# Poissons Ratio (z) = -0.56248 1.12802
#
# Static dielectric constant tensor:
#      x y z
#    x 2.039610 0.000000 -0.283410 
#    y 0.000000 1.865460 0.000000 
#    z -0.283410 0.000000 2.757540 
# 
# From -- ./inp_files/205200.got.cif
#   From: 2010.05.17/outbox.cif.g08.bks.cpg/sg15_103_cif.got.tgz:205200.got - 2010.06.03 18:47:42.
