data_PCOD9276629
_publ_section_title
;
Structure prediction by ZEFSAII (Michael W. Deem and Ramdas Pophale) SiO2 
 PCOD9276629
Probable space group: C 2/C
;
_chemical_formula_sum "Si O2"
_cell_formula_units_Z 44
_cell_length_a 21.416273
_cell_length_b 10.057459
_cell_length_c 9.356574
_cell_angle_alpha 90.000000
_cell_angle_beta 96.217624
_cell_angle_gamma 90.000000
_cell_volume 2003.488375
_symmetry_space_group_name_H-M "C 2/C"
_symmetry_group_IT_number 15
_symmetry_cell_setting 'monoclinic'
loop_
_space_group_symop_operation_xyz
x,y,z
-x,y,1/2-z
-x,-y,-z
x,-y,1/2+z
1/2+x,1/2+y,z
1/2-x,1/2+y,1/2-z
1/2-x,1/2-y,-z
1/2+x,1/2-y,1/2+z
loop_
_atom_site_type_symbol
_atom_site_label
_atom_site_fract_x
_atom_site_fract_y
_atom_site_fract_z
Si Si1 0.480664 0.682369 0.995107
Si Si2 0.000000 0.976519 0.750000
Si Si3 0.872919 0.212460 0.498897
Si Si4 0.207513 0.535046 0.619072
Si Si5 0.703103 0.552352 0.599623
Si Si6 0.373829 0.206713 0.329974
O O1 0.458125 0.618841 0.139323
O O2 0.554325 0.712891 0.031327
O O3 0.472465 0.573036 0.865454
O O4 0.440908 0.803392 0.924349
O O5 0.828742 0.329660 0.427351
O O6 0.876852 0.234811 0.670840
O O7 0.841208 0.073918 0.443889
O O8 0.266858 0.554867 0.736106
O O9 0.237445 0.464698 0.488723
O O10 0.160427 0.432885 0.681152
O O11 0.664504 0.688241 0.582109
#
# Coordination Sequence:
#
# PCOD9276629 Si02
#       6
#     8   4   8   8   8   8
#     4  11  24  41  71 104 136 180 223 281 352 401
#     4  10  20  40  64 102 140 164 228 278 326 404
#     4  12  25  46  70 102 145 174 227 295 335 409
#     4  12  26  45  69  97 142 188 225 273 351 405
#     4  12  24  44  73  99 132 183 235 288 333 395
#     4  12  25  45  71 103 140 180 228 286 341 411
#
# _framework density 21.961694999999999
#
# number of rings (size 3 to 8) (size 9 to 14) (size 15 to 20)
#    0.000    0.364    5.455    4.364    0.000    3.636 
#    0.000    0.000    0.000    0.000    0.000    0.000 
#    0.000    0.000    0.000    0.000    0.000    0.000 
#
# Total GULP energy -122933.416088 kJ/mol
# GULP energy per Si atom -5587.882549 kJ/mol
# Density = 2.191171 g / cm^3
# Si number density = 21.961695 Si / 1000 Ang^3
#
#
#
# Elastic Constant Matrix: (Units=GPa)
#
#
# Indices 1 2 3 4 5 6 
#
# 1 79.2296 29.1398 20.3015 0.0000 19.6844 0.0000
# 2 29.1398 47.5498 18.1581 0.0000 16.0355 0.0000
# 3 20.3015 18.1581 115.2336 0.0000 12.8544 0.0000
# 4 0.0000 0.0000 0.0000 24.9885 0.0000 -12.5007
# 5 19.6844 16.0355 12.8544 0.0000 35.5622 0.0000
# 6 0.0000 0.0000 0.0000 -12.5007 0.0000 -19.9618
#
#
#
# Elastic Compliance Matrix: (Units=1/GPa)
#
#
# Indices 1 2 3 4 5 6 
#
# 1 0.017333 -0.008364 -0.001132 0.000000 -0.005413 0.000000
# 2 -0.008364 0.029719 -0.002325 0.000000 -0.007931 0.000000
# 3 -0.001132 -0.002325 0.009437 0.000000 -0.001737 0.000000
# 4 0.000000 0.000000 0.000000 0.030472 0.000000 -0.019083
# 5 -0.005413 -0.007931 -0.001737 0.000000 0.035320 0.000000
# 6 0.000000 0.000000 0.000000 -0.019083 0.000000 -0.038145
#
#
# Mechanical properties :
#
#
# Convention : Reuss Voigt Hill
#
# Bulk Modulus (GPa) = 30.44376 41.91241 36.17808
# Shear Modulus (GPa) = 42.11387 19.74535 30.92961
#
# Velocity S-wave (km/s) = 4.38380 3.00172 3.75686
# Velocity P-wave (km/s) = 6.28617 5.58028 5.94371
#
# Compressibility (1/GPa) = 0.03284745
#
# Stress axis : x y z
#
# Youngs Moduli (GPa) = 57.69428 33.64902 105.96077
#
# Poissons Ratio (x) = 0.28145 0.11992
# Poissons Ratio (y) = 0.48257 0.24633
# Poissons Ratio (z) = 0.06530 0.07822
#
# Static dielectric constant tensor:
#      x y z
#    x 1.829070 0.000000 -0.007540 
#    y 0.000000 1.790330 0.000000 
#    z -0.007540 0.000000 1.830700 
# 
# From -- ./inp_files/54419.got.cif
#   From: 2010.05.17/outbox.cif.g08.bks.cpg/sg15_28_cif.got.tgz:54419.got - 2010.06.03 18:47:42.
