data_PCOD9276134
_publ_section_title
;
Structure prediction by ZEFSAII (Michael W. Deem and Ramdas Pophale) SiO2 
 PCOD9276134
Probable space group: C 2/C
;
_chemical_formula_sum "Si O2"
_cell_formula_units_Z 52
_cell_length_a 5.187400
_cell_length_b 21.850801
_cell_length_c 18.716391
_cell_angle_alpha 90.000000
_cell_angle_beta 89.504634
_cell_angle_gamma 90.000000
_cell_volume 2121.402015
_symmetry_space_group_name_H-M "C 2/C"
_symmetry_group_IT_number 15
_symmetry_cell_setting 'monoclinic'
loop_
_space_group_symop_operation_xyz
x,y,z
-x,y,1/2-z
-x,-y,-z
x,-y,1/2+z
1/2+x,1/2+y,z
1/2-x,1/2+y,1/2-z
1/2-x,1/2-y,-z
1/2+x,1/2-y,1/2+z
loop_
_atom_site_type_symbol
_atom_site_label
_atom_site_fract_x
_atom_site_fract_y
_atom_site_fract_z
Si Si1 0.503961 0.312814 0.884186
Si Si2 0.487520 0.897193 0.617759
Si Si3 0.010293 0.813767 0.045341
Si Si4 0.684593 0.725687 0.693360
Si Si5 0.139502 0.524854 0.822920
Si Si6 0.486712 0.101935 0.956329
Si Si7 0.500000 0.602488 0.750000
O O1 0.239614 0.348087 0.876430
O O2 0.554870 0.259483 0.827587
O O3 0.738675 0.362326 0.874633
O O4 0.506229 0.285917 0.965542
O O5 0.475902 0.923402 0.536668
O O6 0.407364 0.952843 0.668720
O O7 0.039236 0.775012 0.116885
O O8 0.260264 0.856458 0.045759
O O9 0.760341 0.855606 0.053526
O O10 0.500000 0.759001 0.750000
O O11 0.703426 0.656488 0.724246
O O12 0.428456 0.552823 0.812432
O O13 0.000000 0.544220 0.750000
O O14 0.012084 0.555210 0.892030
#
# Coordination Sequence:
#
# PCOD9276134 Si02
#       7
#     8   8   8   8   8   8   4
#     4  10  23  45  66 100 129 179 224 276 331 399
#     4  10  25  44  70  97 132 178 229 270 338 389
#     4  10  20  39  68  98 133 169 224 276 335 393
#     4  10  21  42  67  95 138 173 222 278 336 402
#     4  12  25  42  69  97 141 177 225 279 337 403
#     4  10  21  41  68  99 133 171 224 280 327 399
#     4  10  24  44  62 100 132 174 222 264 356 386
#
# _framework density 24.512093
#
# number of rings (size 3 to 8) (size 9 to 14) (size 15 to 20)
#    0.462    1.231    1.538    1.846    2.154    1.846 
#    2.769   10.769    0.000    0.000    0.000    0.000 
#    0.000    0.000    0.000    0.000    0.000    0.000 
#
# Total GULP energy -145225.798750 kJ/mol
# GULP energy per Si atom -5585.607644 kJ/mol
# Density = 2.445630 g / cm^3
# Si number density = 24.512093 Si / 1000 Ang^3
#
#
#
# Elastic Constant Matrix: (Units=GPa)
#
#
# Indices 1 2 3 4 5 6 
#
# 1 128.7062 38.6833 39.0433 0.0000 -18.8812 0.0000
# 2 38.6833 113.4570 70.4755 0.0000 -14.9158 0.0000
# 3 39.0433 70.4755 157.4607 0.0000 -23.8238 0.0000
# 4 0.0000 0.0000 0.0000 58.3957 0.0000 -16.2217
# 5 -18.8812 -14.9158 -23.8238 0.0000 39.7730 0.0000
# 6 0.0000 0.0000 0.0000 -16.2217 0.0000 18.8726
#
#
#
# Elastic Compliance Matrix: (Units=1/GPa)
#
#
# Indices 1 2 3 4 5 6 
#
# 1 0.009123 -0.002206 -0.000819 0.000000 0.003013 0.000000
# 2 -0.002206 0.012816 -0.005081 0.000000 0.000716 0.000000
# 3 -0.000819 -0.005081 0.009326 0.000000 0.003292 0.000000
# 4 0.000000 0.000000 0.000000 0.022496 0.000000 0.019336
# 5 0.003013 0.000716 0.003292 0.000000 0.028813 0.000000
# 6 0.000000 0.000000 0.000000 0.019336 0.000000 0.069607
#
#
# Mechanical properties :
#
#
# Convention : Reuss Voigt Hill
#
# Bulk Modulus (GPa) = 66.42771 77.33648 71.88210
# Shear Modulus (GPa) = 28.83322 40.16971 34.50146
#
# Velocity S-wave (km/s) = 3.43342 4.05257 3.75577
# Velocity P-wave (km/s) = 6.54803 7.31550 6.94238
#
# Compressibility (1/GPa) = 0.01505396
#
# Stress axis : x y z
#
# Youngs Moduli (GPa) = 109.61272 78.02647 107.22616
#
# Poissons Ratio (x) = 0.17210 0.08782
# Poissons Ratio (y) = 0.24176 0.54482
# Poissons Ratio (z) = 0.08978 0.39645
#
# Static dielectric constant tensor:
#      x y z
#    x 2.077400 0.000000 0.057280 
#    y 0.000000 1.907860 0.000000 
#    z 0.057280 0.000000 1.994440 
# 
# From -- ./inp_files/227489.got.cif
#   From: 2010.05.17/outbox.cif.g08.bks.cpg/sg15_114_cif.got.tgz:227489.got - 2010.06.03 18:47:42.
