data_PCOD9276891
_publ_section_title
;
Structure prediction by ZEFSAII (Michael W. Deem and Ramdas Pophale) SiO2 
 PCOD9276891
Probable space group: C 2/C
;
_chemical_formula_sum "Si O2"
_cell_formula_units_Z 64
_cell_length_a 29.024076
_cell_length_b 8.855406
_cell_length_c 14.120692
_cell_angle_alpha 90.000000
_cell_angle_beta 67.891643
_cell_angle_gamma 90.000000
_cell_volume 3362.451101
_symmetry_space_group_name_H-M "C 2/C"
_symmetry_group_IT_number 15
_symmetry_cell_setting 'monoclinic'
loop_
_space_group_symop_operation_xyz
x,y,z
-x,y,1/2-z
-x,-y,-z
x,-y,1/2+z
1/2+x,1/2+y,z
1/2-x,1/2+y,1/2-z
1/2-x,1/2-y,-z
1/2+x,1/2-y,1/2+z
loop_
_atom_site_type_symbol
_atom_site_label
_atom_site_fract_x
_atom_site_fract_y
_atom_site_fract_z
Si Si1 0.306157 0.034869 0.594668
Si Si2 0.358050 0.475344 0.529730
Si Si3 0.160996 0.747053 0.780581
Si Si4 0.107925 0.301809 0.957517
Si Si5 0.106799 0.303350 0.586773
Si Si6 0.914463 0.515084 0.212098
Si Si7 0.717334 0.390636 0.560485
Si Si8 0.477447 0.006711 0.911895
O O1 0.302193 0.123346 0.697694
O O2 0.344736 0.135951 0.505591
O O3 0.337544 0.878570 0.573670
O O4 0.254449 0.006897 0.583802
O O5 0.348366 0.375003 0.631831
O O6 0.386877 0.624888 0.538573
O O7 0.388539 0.374564 0.430310
O O8 0.310320 0.531730 0.506578
O O9 0.114006 0.639456 0.792146
O O10 0.180871 0.823654 0.669673
O O11 0.090555 0.370477 0.871655
O O12 0.065587 0.365721 0.061547
O O13 0.108133 0.390327 0.684421
O O14 0.055268 0.357470 0.579807
O O15 0.972201 0.481446 0.186482
O O16 0.750000 0.250000 0.500000
O O17 0.500000 0.000000 0.000000
#
# Coordination Sequence:
#
# PCOD9276891 Si02
#       8
#     8   8   8   8   8   8   8   8
#     4   9  20  41  58  84 121 169 207 250 304 374
#     4  11  24  41  61  93 133 161 200 275 325 356
#     4  10  25  41  62  91 126 164 214 260 315 374
#     4   9  19  37  61  87 125 158 201 259 318 359
#     4  10  21  38  62  91 122 159 212 258 302 381
#     4  10  20  40  66  88 118 169 216 246 305 393
#     4  12  24  39  64  92 125 167 214 257 317 380
#     4   9  18  37  65  87 116 166 211 246 305 383
#
# _framework density 19.033735
#
# number of rings (size 3 to 8) (size 9 to 14) (size 15 to 20)
#    0.000    2.000    1.250    3.375    5.250    2.000 
#    2.250    5.625    2.750    0.000    0.000    0.000 
#    0.000    0.000    0.000    0.000    0.000    0.000 
#
# Total GULP energy -178200.938368 kJ/mol
# GULP energy per Si atom -5568.779324 kJ/mol
# Density = 1.899041 g / cm^3
# Si number density = 19.033735 Si / 1000 Ang^3
#
#
#
# Elastic Constant Matrix: (Units=GPa)
#
#
# Indices 1 2 3 4 5 6 
#
# 1 114.5909 47.3776 22.2094 0.0000 10.1586 0.0000
# 2 47.3776 128.4500 40.9563 0.0000 -1.1623 0.0000
# 3 22.2094 40.9563 80.1942 0.0000 3.0066 0.0000
# 4 0.0000 0.0000 0.0000 30.8432 0.0000 8.5964
# 5 10.1586 -1.1623 3.0066 0.0000 14.7566 0.0000
# 6 0.0000 0.0000 0.0000 8.5964 0.0000 14.0675
#
#
#
# Elastic Compliance Matrix: (Units=1/GPa)
#
#
# Indices 1 2 3 4 5 6 
#
# 1 0.011213 -0.003955 -0.000790 0.000000 -0.007869 0.000000
# 2 -0.003955 0.010738 -0.004557 0.000000 0.004497 0.000000
# 3 -0.000790 -0.004557 0.015125 0.000000 -0.002896 0.000000
# 4 0.000000 0.000000 0.000000 0.039078 0.000000 -0.023880
# 5 -0.007869 0.004497 -0.002896 0.000000 0.074128 0.000000
# 6 0.000000 0.000000 0.000000 -0.023880 0.000000 0.085678
#
#
# Mechanical properties :
#
#
# Convention : Reuss Voigt Hill
#
# Bulk Modulus (GPa) = 54.14198 60.48017 57.31107
# Shear Modulus (GPa) = 19.17764 26.11291 22.64527
#
# Velocity S-wave (km/s) = 3.17765 3.70797 3.45301
# Velocity P-wave (km/s) = 6.47845 7.08352 6.78773
#
# Compressibility (1/GPa) = 0.01846996
#
# Stress axis : x y z
#
# Youngs Moduli (GPa) = 89.18495 93.13091 66.11730
#
# Poissons Ratio (x) = 0.36832 0.05226
# Poissons Ratio (y) = 0.35271 0.30131
# Poissons Ratio (z) = 0.07050 0.42441
#
# Static dielectric constant tensor:
#      x y z
#    x 1.678120 0.000000 -0.054080 
#    y 0.000000 1.675800 0.000000 
#    z -0.054080 0.000000 2.284480 
# 
# From -- ./inp_files/176550.got.cif
#   From: 2010.05.17/outbox.cif.g08.bks.cpg/sg15_89_cif.got.tgz:176550.got - 2010.06.03 18:47:42.
