data_PCOD9276480
_publ_section_title
;
Structure prediction by ZEFSAII (Michael W. Deem and Ramdas Pophale) SiO2 
 PCOD9276480
Probable space group: C 2/C
;
_chemical_formula_sum "Si O2"
_cell_formula_units_Z 56
_cell_length_a 15.806727
_cell_length_b 26.901299
_cell_length_c 12.219162
_cell_angle_alpha 90.000000
_cell_angle_beta 34.338003
_cell_angle_gamma 90.000000
_cell_volume 2930.843300
_symmetry_space_group_name_H-M "C 2/C"
_symmetry_group_IT_number 15
_symmetry_cell_setting 'monoclinic'
loop_
_space_group_symop_operation_xyz
x,y,z
-x,y,1/2-z
-x,-y,-z
x,-y,1/2+z
1/2+x,1/2+y,z
1/2-x,1/2+y,1/2-z
1/2-x,1/2-y,-z
1/2+x,1/2-y,1/2+z
loop_
_atom_site_type_symbol
_atom_site_label
_atom_site_fract_x
_atom_site_fract_y
_atom_site_fract_z
Si Si1 0.358040 0.730735 0.977642
Si Si2 0.688413 0.137167 0.257704
Si Si3 0.818001 0.095018 0.564884
Si Si4 0.842610 0.332845 0.118230
Si Si5 0.663143 0.900221 0.561879
Si Si6 0.845356 0.483800 0.105193
Si Si7 0.825829 0.079789 0.302011
O O1 0.277530 0.685253 0.122498
O O2 0.371026 0.776195 0.050908
O O3 0.500000 0.717357 0.750000
O O4 0.250000 0.750000 0.000000
O O5 0.509633 0.144988 0.458964
O O6 0.720894 0.097584 0.123801
O O7 0.750782 0.120894 0.306446
O O8 0.758306 0.148620 0.672170
O O9 0.734487 0.053180 0.724968
O O10 0.784323 0.086091 0.473369
O O11 0.994891 0.086423 0.394894
O O12 0.761822 0.361714 0.102166
O O13 0.500000 0.875306 0.750000
O O14 0.636183 0.950806 0.524997
O O15 0.740071 0.529121 0.179809
O O16 0.000000 0.500000 0.000000
#
# Coordination Sequence:
#
# PCOD9276480 Si02
#       7
#     8   8   8   8   8   8   8
#     4  12  22  38  65 100 133 162 204 258 323 383
#     4  11  23  38  63  98 128 166 212 262 321 381
#     4  10  25  45  60  88 128 167 215 270 317 379
#     4  10  20  40  62  89 129 166 204 260 315 384
#     4   9  18  34  56  90 125 152 205 258 311 368
#     4  11  23  38  66  90 122 170 215 263 315 387
#     4  11  25  42  62  89 127 170 215 265 324 374
#
# _framework density 19.107129
#
# number of rings (size 3 to 8) (size 9 to 14) (size 15 to 20)
#    0.000    1.429    2.857    3.429    6.000    1.714 
#    0.000    0.714    0.000    0.000    0.000    0.000 
#    0.000    0.000    0.000    0.000    0.000    0.000 
#
# Total GULP energy -155982.512688 kJ/mol
# GULP energy per Si atom -5570.804025 kJ/mol
# Density = 1.906364 g / cm^3
# Si number density = 19.107129 Si / 1000 Ang^3
#
#
#
# Elastic Constant Matrix: (Units=GPa)
#
#
# Indices 1 2 3 4 5 6 
#
# 1 144.9788 44.7544 52.1705 0.0000 9.0969 0.0000
# 2 44.7544 83.4865 37.5894 0.0000 9.5277 0.0000
# 3 52.1705 37.5894 100.1809 0.0002 14.4105 -0.0002
# 4 0.0000 0.0000 0.0002 36.7063 -0.0001 3.7987
# 5 9.0969 9.5277 14.4105 -0.0001 24.9427 0.0001
# 6 0.0000 0.0000 -0.0002 3.7987 0.0001 30.5168
#
#
#
# Elastic Compliance Matrix: (Units=1/GPa)
#
#
# Indices 1 2 3 4 5 6 
#
# 1 0.009202 -0.003337 -0.003534 0.000000 -0.000039 0.000000
# 2 -0.003337 0.015779 -0.003807 0.000000 -0.002611 0.000000
# 3 -0.003534 -0.003807 0.014022 0.000000 -0.005358 0.000000
# 4 0.000000 0.000000 0.000000 0.027599 0.000000 -0.003436
# 5 -0.000039 -0.002611 -0.005358 0.000000 0.044199 0.000000
# 6 0.000000 0.000000 0.000000 -0.003436 0.000000 0.033196
#
#
# Mechanical properties :
#
#
# Convention : Reuss Voigt Hill
#
# Bulk Modulus (GPa) = 56.67135 66.40832 61.53983
# Shear Modulus (GPa) = 29.19952 31.37527 30.28739
#
# Velocity S-wave (km/s) = 3.91346 4.05664 3.98570
# Velocity P-wave (km/s) = 7.08127 7.53479 7.31155
#
# Compressibility (1/GPa) = 0.01764560
#
# Stress axis : x y z
#
# Youngs Moduli (GPa) = 108.67219 63.37543 71.31837
#
# Poissons Ratio (x) = 0.21149 0.25206
# Poissons Ratio (y) = 0.36265 0.27152
# Poissons Ratio (z) = 0.38407 0.24128
#
# Static dielectric constant tensor:
#      x y z
#    x 1.677790 0.000000 0.035620 
#    y 0.000000 1.711110 0.000000 
#    z 0.035620 0.000000 1.634330 
# 
# From -- ./inp_files/101752.got.cif
#   From: 2010.05.17/outbox.cif.g08.bks.cpg/sg15_51_cif.got.tgz:101752.got - 2010.06.03 18:47:42.
