data_PCOD9276245
_publ_section_title
;
Structure prediction by ZEFSAII (Michael W. Deem and Ramdas Pophale) SiO2 
 PCOD9276245
Probable space group: C 2/C
;
_chemical_formula_sum "Si O2"
_cell_formula_units_Z 60
_cell_length_a 18.002872
_cell_length_b 5.326000
_cell_length_c 30.492002
_cell_angle_alpha 90.000000
_cell_angle_beta 77.328574
_cell_angle_gamma 90.000000
_cell_volume 2852.464848
_symmetry_space_group_name_H-M "C 2/C"
_symmetry_group_IT_number 15
_symmetry_cell_setting 'monoclinic'
loop_
_space_group_symop_operation_xyz
x,y,z
-x,y,1/2-z
-x,-y,-z
x,-y,1/2+z
1/2+x,1/2+y,z
1/2-x,1/2+y,1/2-z
1/2-x,1/2-y,-z
1/2+x,1/2-y,1/2+z
loop_
_atom_site_type_symbol
_atom_site_label
_atom_site_fract_x
_atom_site_fract_y
_atom_site_fract_z
Si Si1 0.320704 0.552214 0.453912
Si Si2 0.910367 0.814636 0.366848
Si Si3 0.572048 0.822144 0.827090
Si Si4 0.775696 0.947882 0.548706
Si Si5 0.369690 0.658840 0.294024
Si Si6 0.500000 0.042199 0.250000
Si Si7 0.838064 0.831891 0.695610
Si Si8 0.731293 0.006727 0.144396
O O1 0.385556 0.496634 0.409756
O O2 0.256508 0.335764 0.452535
O O3 0.338027 0.499205 0.502920
O O4 0.286490 0.831008 0.453271
O O5 0.907589 0.949787 0.319729
O O6 0.843311 0.614522 0.369892
O O7 0.993069 0.697258 0.363278
O O8 0.546575 0.804473 0.779470
O O9 0.624383 0.583757 0.828642
O O10 0.615070 0.086076 0.823967
O O11 0.793058 0.989713 0.597653
O O12 0.340362 0.635310 0.247825
O O13 0.437144 0.866489 0.281552
O O14 0.296988 0.747790 0.331739
O O15 0.756257 0.827496 0.682880
#
# Coordination Sequence:
#
# PCOD9276245 Si02
#       8
#     8   8   8   8   8   4   8   8
#     4   9  18  32  58  88 115 142 190 250 301 343
#     4  11  21  37  64  88 113 152 208 246 289 352
#     4  11  23  42  57  82 117 161 198 243 294 350
#     4   9  18  35  54  86 120 146 182 248 309 344
#     4  11  22  36  59  86 118 155 200 245 291 348
#     4  10  20  40  56  84 112 156 198 248 286 334
#     4  11  28  38  57  82 127 162 191 240 300 352
#     4  11  24  38  60  87 120 154 202 241 295 358
#
# _framework density 21.034441999999999
#
# number of rings (size 3 to 8) (size 9 to 14) (size 15 to 20)
#    0.000    1.600    2.667    2.400    5.600    0.533 
#    0.000    0.000    0.000    1.600    0.000    0.000 
#    0.000    0.000    0.000    0.000    0.000    0.000 
#
# Total GULP energy -167283.913209 kJ/mol
# GULP energy per Si atom -5576.130440 kJ/mol
# Density = 2.098657 g / cm^3
# Si number density = 21.034442 Si / 1000 Ang^3
#
#
#
# Elastic Constant Matrix: (Units=GPa)
#
#
# Indices 1 2 3 4 5 6 
#
# 1 23.7684 12.9783 9.8569 0.0000 0.1379 0.0007
# 2 12.9783 95.1132 18.4998 0.0005 -1.2425 0.0009
# 3 9.8569 18.4998 108.0631 0.0001 0.1590 -0.0001
# 4 0.0000 0.0005 0.0001 23.1110 -0.0008 -10.1772
# 5 0.1379 -1.2425 0.1590 -0.0008 18.8177 0.0002
# 6 0.0007 0.0009 -0.0001 -10.1772 0.0002 28.2203
#
#
#
# Elastic Compliance Matrix: (Units=1/GPa)
#
#
# Indices 1 2 3 4 5 6 
#
# 1 0.046558 -0.005727 -0.003265 0.000000 -0.000692 -0.000001
# 2 -0.005727 0.011590 -0.001463 0.000000 0.000820 0.000000
# 3 -0.003265 -0.001463 0.009802 0.000000 -0.000155 0.000000
# 4 0.000000 0.000000 0.000000 0.051438 0.000002 0.018550
# 5 -0.000692 0.000820 -0.000155 0.000002 0.053202 0.000000
# 6 -0.000001 0.000000 0.000000 0.018550 0.000000 0.042125
#
#
# Mechanical properties :
#
#
# Convention : Reuss Voigt Hill
#
# Bulk Modulus (GPa) = 21.25833 34.40164 27.82999
# Shear Modulus (GPa) = 19.89600 26.40378 23.14989
#
# Velocity S-wave (km/s) = 3.07885 3.54681 3.32108
# Velocity P-wave (km/s) = 4.77153 5.75879 5.28824
#
# Compressibility (1/GPa) = 0.04704038
#
# Stress axis : x y z
#
# Youngs Moduli (GPa) = 21.47863 86.27756 102.01592
#
# Poissons Ratio (x) = 0.49410 0.33311
# Poissons Ratio (y) = 0.12300 0.14926
# Poissons Ratio (z) = 0.07013 0.12623
#
# Static dielectric constant tensor:
#      x y z
#    x 1.774720 0.000000 -0.033730 
#    y 0.000000 1.820840 0.000000 
#    z -0.033730 0.000000 1.840640 
# 
# From -- ./inp_files/314868.got.cif
#   From: 2010.05.17/outbox.cif.g08.bks.cpg/sg15_158_cif.got.tgz:314868.got - 2010.06.03 18:47:42.
