data_PCOD9276133
_publ_section_title
;
Structure prediction by ZEFSAII (Michael W. Deem and Ramdas Pophale) SiO2 
 PCOD9276133
Probable space group: C 2/C
;
_chemical_formula_sum "Si O2"
_cell_formula_units_Z 48
_cell_length_a 9.154560
_cell_length_b 32.598947
_cell_length_c 7.945870
_cell_angle_alpha 90.000000
_cell_angle_beta 83.023042
_cell_angle_gamma 90.000000
_cell_volume 2353.719047
_symmetry_space_group_name_H-M "C 2/C"
_symmetry_group_IT_number 15
_symmetry_cell_setting 'monoclinic'
loop_
_space_group_symop_operation_xyz
x,y,z
-x,y,1/2-z
-x,-y,-z
x,-y,1/2+z
1/2+x,1/2+y,z
1/2-x,1/2+y,1/2-z
1/2-x,1/2-y,-z
1/2+x,1/2-y,1/2+z
loop_
_atom_site_type_symbol
_atom_site_label
_atom_site_fract_x
_atom_site_fract_y
_atom_site_fract_z
Si Si1 0.067879 0.686052 0.484139
Si Si2 0.977392 0.952273 0.552789
Si Si3 0.144323 0.445851 0.520364
Si Si4 0.500000 0.606543 0.750000
Si Si5 0.000000 0.241120 0.750000
Si Si6 0.000000 0.623487 0.250000
Si Si7 0.749434 0.175413 0.800034
Si Si8 0.500000 0.982056 0.250000
O O1 0.181079 0.681719 0.621867
O O2 0.053918 0.729980 0.395779
O O3 0.109750 0.653746 0.331875
O O4 0.899913 0.675428 0.567763
O O5 0.809501 0.941648 0.545634
O O6 0.000000 0.946818 0.750000
O O7 0.047878 0.922121 0.402698
O O8 0.000000 0.000000 0.500000
O O9 0.058498 0.407310 0.601740
O O10 0.113117 0.453613 0.331365
O O11 0.088733 0.487334 0.618345
O O12 0.357312 0.635904 0.802780
O O13 0.138535 0.212872 0.678690
#
# Coordination Sequence:
#
# PCOD9276133 Si02
#       8
#     8   8   8   4   4   4   8   4
#     4  10  21  39  63  94 124 169 202 253 312 375
#     4  12  25  42  64  89 125 173 220 276 330 394
#     4  10  21  39  57  88 115 155 212 261 330 377
#     4  11  26  43  62  93 132 172 225 268 327 396
#     4  10  20  39  68  98 130 156 212 248 311 392
#     4  10  22  35  58  86 120 156 208 260 301 380
#     4  10  22  41  64  93 130 168 203 260 317 378
#     4   9  20  37  62  83 114 152 203 276 319 386
#
# _framework density 20.393256999999998
#
# number of rings (size 3 to 8) (size 9 to 14) (size 15 to 20)
#    0.000    1.667    0.833    3.000    2.333    2.667 
#    0.000    0.000    7.333    0.000    0.000    0.000 
#    0.000    0.000    0.000    0.000    0.000    0.000 
#
# Total GULP energy -133803.253689 kJ/mol
# GULP energy per Si atom -5575.135570 kJ/mol
# Density = 2.034684 g / cm^3
# Si number density = 20.393257 Si / 1000 Ang^3
#
#
#
# Elastic Constant Matrix: (Units=GPa)
#
#
# Indices 1 2 3 4 5 6 
#
# 1 63.4024 23.9211 9.4370 0.0000 14.9692 0.0000
# 2 23.9211 139.5274 51.7021 0.0000 9.8954 0.0000
# 3 9.4370 51.7021 101.7983 0.0000 27.9521 0.0000
# 4 0.0000 0.0000 0.0000 -67.6814 0.0000 11.2756
# 5 14.9692 9.8954 27.9521 0.0000 32.8157 0.0000
# 6 0.0000 0.0000 0.0000 11.2756 0.0000 18.6454
#
#
#
# Elastic Compliance Matrix: (Units=1/GPa)
#
#
# Indices 1 2 3 4 5 6 
#
# 1 0.019076 -0.003601 0.002809 0.000000 -0.010008 0.000000
# 2 -0.003601 0.009566 -0.005461 0.000000 0.003410 0.000000
# 3 0.002809 -0.005461 0.015972 0.000000 -0.013239 0.000000
# 4 0.000000 0.000000 0.000000 -0.013423 0.000000 0.008117
# 5 -0.010008 0.003410 -0.013239 0.000000 0.045287 0.000000
# 6 0.000000 0.000000 0.000000 0.008117 0.000000 0.048724
#
#
# Mechanical properties :
#
#
# Convention : Reuss Voigt Hill
#
# Bulk Modulus (GPa) = 31.14612 52.76092 41.95352
# Shear Modulus (GPa) = 33.69008 11.40047 22.54527
#
# Velocity S-wave (km/s) = 4.06891 2.36695 3.32855
# Velocity P-wave (km/s) = 6.11397 5.77909 5.94889
#
# Compressibility (1/GPa) = 0.03210673
#
# Stress axis : x y z
#
# Youngs Moduli (GPa) = 52.42207 104.53414 62.61042
#
# Poissons Ratio (x) = 0.37648 -0.17586
# Poissons Ratio (y) = 0.18880 0.34191
# Poissons Ratio (z) = -0.14725 0.57086
#
# Static dielectric constant tensor:
#      x y z
#    x 1.720820 0.000000 -0.018960 
#    y 0.000000 1.675650 0.000000 
#    z -0.018960 0.000000 1.758280 
# 
# From -- ./inp_files/26201.got.cif
#   From: 2010.05.17/outbox.cif.g08.bks.cpg/sg15_14_cif.got.tgz:26201.got - 2010.06.03 18:47:42.
