data_PCOD9276208
_publ_section_title
;
Structure prediction by ZEFSAII (Michael W. Deem and Ramdas Pophale) SiO2 
 PCOD9276208
Probable space group: C 2/C
;
_chemical_formula_sum "Si O2"
_cell_formula_units_Z 64
_cell_length_a 15.218829
_cell_length_b 29.954258
_cell_length_c 9.291640
_cell_angle_alpha 90.000000
_cell_angle_beta 134.536111
_cell_angle_gamma 90.000000
_cell_volume 3019.291761
_symmetry_space_group_name_H-M "C 2/C"
_symmetry_group_IT_number 15
_symmetry_cell_setting 'monoclinic'
loop_
_space_group_symop_operation_xyz
x,y,z
-x,y,1/2-z
-x,-y,-z
x,-y,1/2+z
1/2+x,1/2+y,z
1/2-x,1/2+y,1/2-z
1/2-x,1/2-y,-z
1/2+x,1/2-y,1/2+z
loop_
_atom_site_type_symbol
_atom_site_label
_atom_site_fract_x
_atom_site_fract_y
_atom_site_fract_z
Si Si1 0.101282 0.467111 0.243512
Si Si2 0.504564 0.623124 0.036554
Si Si3 0.427433 0.932021 0.815638
Si Si4 0.358130 0.185701 0.721728
Si Si5 0.844242 0.200751 0.781388
Si Si6 0.791466 0.859068 0.936665
Si Si7 0.129260 0.706370 0.080381
Si Si8 0.697382 0.598440 0.503904
O O1 0.123541 0.517576 0.216649
O O2 0.228256 0.446117 0.440068
O O3 0.000000 0.471180 0.250000
O O4 0.037915 0.432660 0.059238
O O5 0.582119 0.619969 0.979224
O O6 0.600746 0.609775 0.269240
O O7 0.378743 0.596681 0.932748
O O8 0.453123 0.673656 0.986341
O O9 0.500000 0.928447 0.750000
O O10 0.316801 0.896298 0.683439
O O11 0.277114 0.203674 0.759551
O O12 0.353909 0.215386 0.571188
O O13 0.294889 0.138633 0.614532
O O14 0.499049 0.180687 0.931343
O O15 0.815907 0.170557 0.608391
O O16 0.884179 0.252141 0.825419
O O17 0.741053 0.823669 0.762419
#
# Coordination Sequence:
#
# PCOD9276208 Si02
#       8
#     8   8   8   8   8   8   8   8
#     4  10  21  41  72 104 129 162 214 269 330 393
#     4  10  23  41  63  92 126 178 216 265 319 388
#     4  10  24  41  67 102 135 165 203 273 337 392
#     4  10  23  40  65  96 121 164 216 283 325 377
#     4  11  26  42  62  89 133 172 219 269 327 390
#     4  12  24  43  64  91 135 177 213 263 334 400
#     4  11  24  40  67  95 122 168 226 276 325 381
#     4  10  20  39  71  94 127 165 219 269 324 384
#
# _framework density 21.197023000000002
#
# number of rings (size 3 to 8) (size 9 to 14) (size 15 to 20)
#    0.000    1.500    1.250    2.625    8.750    4.000 
#    2.250    0.625    5.500    0.000    0.000    0.000 
#    0.000    0.000    0.000    0.000    0.000    0.000 
#
# Total GULP energy -178384.496818 kJ/mol
# GULP energy per Si atom -5574.515526 kJ/mol
# Density = 2.114878 g / cm^3
# Si number density = 21.197023 Si / 1000 Ang^3
#
#
#
# Elastic Constant Matrix: (Units=GPa)
#
#
# Indices 1 2 3 4 5 6 
#
# 1 119.3806 22.9475 32.7162 0.0000 3.9101 0.0000
# 2 22.9475 72.7684 29.8066 0.0000 8.3725 0.0000
# 3 32.7162 29.8066 98.7114 0.0000 -0.2518 0.0000
# 4 0.0000 0.0000 0.0000 20.1054 0.0000 -22.3873
# 5 3.9101 8.3725 -0.2518 0.0000 33.9448 0.0000
# 6 0.0000 0.0000 0.0000 -22.3873 0.0000 -7.9911
#
#
#
# Elastic Compliance Matrix: (Units=1/GPa)
#
#
# Indices 1 2 3 4 5 6 
#
# 1 0.009460 -0.001852 -0.002578 0.000000 -0.000652 0.000000
# 2 -0.001852 0.016579 -0.004402 0.000000 -0.003909 0.000000
# 3 -0.002578 -0.004402 0.012318 0.000000 0.001474 0.000000
# 4 0.000000 0.000000 0.000000 0.012074 0.000000 -0.033825
# 5 -0.000652 -0.003909 0.001474 0.000000 0.030510 0.000000
# 6 0.000000 0.000000 0.000000 -0.033825 0.000000 -0.030377
#
#
# Mechanical properties :
#
#
# Convention : Reuss Voigt Hill
#
# Bulk Modulus (GPa) = 48.32619 51.31124 49.81871
# Shear Modulus (GPa) = 66.55449 22.90449 44.72949
#
# Velocity S-wave (km/s) = 5.60947 3.29074 4.59865
# Velocity P-wave (km/s) = 8.05003 6.22077 7.19378
#
# Compressibility (1/GPa) = 0.02069271
#
# Stress axis : x y z
#
# Youngs Moduli (GPa) = 105.70320 60.31621 81.18233
#
# Poissons Ratio (x) = 0.11173 0.20927
# Poissons Ratio (y) = 0.19581 0.35738
# Poissons Ratio (z) = 0.27248 0.26553
#
# Static dielectric constant tensor:
#      x y z
#    x 1.796740 0.000000 -0.034890 
#    y 0.000000 1.785100 0.000000 
#    z -0.034890 0.000000 1.818540 
# 
# From -- ./inp_files/44876.got.cif
#   From: 2010.05.17/outbox.cif.g08.bks.cpg/sg15_23_cif.got.tgz:44876.got - 2010.06.03 18:47:42.
