data_PCOD9276156
_publ_section_title
;
Structure prediction by ZEFSAII (Michael W. Deem and Ramdas Pophale) SiO2 
 PCOD9276156
Probable space group: C 2/C
;
_chemical_formula_sum "Si O2"
_cell_formula_units_Z 48
_cell_length_a 11.986442
_cell_length_b 12.322316
_cell_length_c 16.394215
_cell_angle_alpha 90.000000
_cell_angle_beta 60.458486
_cell_angle_gamma 90.000000
_cell_volume 2106.647390
_symmetry_space_group_name_H-M "C 2/C"
_symmetry_group_IT_number 15
_symmetry_cell_setting 'monoclinic'
loop_
_space_group_symop_operation_xyz
x,y,z
-x,y,1/2-z
-x,-y,-z
x,-y,1/2+z
1/2+x,1/2+y,z
1/2-x,1/2+y,1/2-z
1/2-x,1/2-y,-z
1/2+x,1/2-y,1/2+z
loop_
_atom_site_type_symbol
_atom_site_label
_atom_site_fract_x
_atom_site_fract_y
_atom_site_fract_z
Si Si1 0.692585 0.040319 0.700486
Si Si2 0.096783 0.708121 0.470134
Si Si3 0.031043 0.013046 0.329719
Si Si4 0.885871 0.259116 0.176263
Si Si5 0.282524 0.429154 0.000218
Si Si6 0.897867 0.313218 0.720412
O O1 0.628422 0.153761 0.746746
O O2 0.698645 0.018810 0.601816
O O3 0.839602 0.036754 0.680171
O O4 0.618884 0.943089 0.770140
O O5 0.196993 0.611799 0.455508
O O6 0.163118 0.819424 0.476879
O O7 0.071008 0.715775 0.383907
O O8 0.971895 0.695866 0.571705
O O9 0.055667 0.143528 0.318477
O O10 0.000000 0.976080 0.250000
O O11 0.904015 0.999798 0.430144
O O12 0.740235 0.233692 0.204595
O O13 0.000000 0.278952 0.750000
#
# Coordination Sequence:
#
# PCOD9276156 Si02
#       6
#     8   8   8   8   8   8
#     4  11  23  39  63  96 126 170 214 259 320 380
#     4  10  22  41  68  95 125 167 219 262 318 376
#     4  10  22  40  64  95 131 165 216 271 313 374
#     4  10  23  41  67  91 126 173 219 260 313 380
#     4  10  20  39  69  95 121 168 217 267 311 376
#     4  11  25  44  60  95 135 164 209 269 326 383
#
# _framework density 22.785018000000001
#
# number of rings (size 3 to 8) (size 9 to 14) (size 15 to 20)
#    0.000    1.667    1.667    2.500    7.000    2.000 
#    3.000    0.000    0.000    0.000    0.000    0.000 
#    0.000    0.000    0.000    0.000    0.000    0.000 
#
# Total GULP energy -134325.562941 kJ/mol
# GULP energy per Si atom -5596.898456 kJ/mol
# Density = 2.273316 g / cm^3
# Si number density = 22.785018 Si / 1000 Ang^3
#
#
#
# Elastic Constant Matrix: (Units=GPa)
#
#
# Indices 1 2 3 4 5 6 
#
# 1 126.6382 -5.6604 49.2425 0.0000 14.7420 0.0000
# 2 -5.6604 61.7903 7.4774 0.0000 -5.1187 0.0000
# 3 49.2425 7.4774 135.2348 0.0000 1.6119 0.0000
# 4 0.0000 0.0000 0.0000 22.0932 0.0000 -0.3639
# 5 14.7420 -5.1187 1.6119 0.0000 41.7540 0.0000
# 6 0.0000 0.0000 0.0000 -0.3639 0.0000 -4.8290
#
#
#
# Elastic Compliance Matrix: (Units=1/GPa)
#
#
# Indices 1 2 3 4 5 6 
#
# 1 0.009691 0.001056 -0.003550 0.000000 -0.003155 0.000000
# 2 0.001056 0.016582 -0.001322 0.000000 0.001711 0.000000
# 3 -0.003550 -0.001322 0.008751 0.000000 0.000753 0.000000
# 4 0.000000 0.000000 0.000000 0.045207 0.000000 -0.003407
# 5 -0.003155 0.001711 0.000753 0.000000 0.025244 0.000000
# 6 0.000000 0.000000 0.000000 -0.003407 0.000000 -0.206826
#
#
# Mechanical properties :
#
#
# Convention : Reuss Voigt Hill
#
# Bulk Modulus (GPa) = 36.50463 47.30913 41.90688
# Shear Modulus (GPa) = -59.10976 29.97723 -14.56627
#
# Velocity S-wave (km/s) = -5.09889 3.63113 -2.53116
# Velocity P-wave (km/s) = 4.31379 6.19584 3.14481
#
# Compressibility (1/GPa) = 0.02739379
#
# Stress axis : x y z
#
# Youngs Moduli (GPa) = 103.18585 60.30562 114.27061
#
# Poissons Ratio (x) = -0.06368 0.40562
# Poissons Ratio (y) = -0.10896 0.15104
# Poissons Ratio (z) = 0.36627 0.07971
#
# Static dielectric constant tensor:
#      x y z
#    x 1.843490 0.000000 -0.014660 
#    y 0.000000 1.874030 0.000000 
#    z -0.014660 0.000000 1.820590 
# 
# From -- ./inp_files/143826.got.cif
#   From: 2010.05.17/outbox.cif.g08.bks.cpg/sg15_72_cif.got.tgz:143826.got - 2010.06.03 18:47:42.
