data_PCOD9276179
_publ_section_title
;
Structure prediction by ZEFSAII (Michael W. Deem and Ramdas Pophale) SiO2 
 PCOD9276179
Probable space group: C 2/C
;
_chemical_formula_sum "Si O2"
_cell_formula_units_Z 44
_cell_length_a 25.073547
_cell_length_b 5.596794
_cell_length_c 13.957061
_cell_angle_alpha 90.000000
_cell_angle_beta 59.380539
_cell_angle_gamma 90.000000
_cell_volume 1685.523495
_symmetry_space_group_name_H-M "C 2/C"
_symmetry_group_IT_number 15
_symmetry_cell_setting 'monoclinic'
loop_
_space_group_symop_operation_xyz
x,y,z
-x,y,1/2-z
-x,-y,-z
x,-y,1/2+z
1/2+x,1/2+y,z
1/2-x,1/2+y,1/2-z
1/2-x,1/2-y,-z
1/2+x,1/2-y,1/2+z
loop_
_atom_site_type_symbol
_atom_site_label
_atom_site_fract_x
_atom_site_fract_y
_atom_site_fract_z
Si Si1 0.100911 0.387772 0.379780
Si Si2 0.312610 0.506901 0.096058
Si Si3 0.075453 0.015787 0.251082
Si Si4 0.000000 0.348327 0.750000
Si Si5 0.805672 0.248791 0.798755
Si Si6 0.086122 0.693291 0.564298
O O1 0.153493 0.523328 0.270572
O O2 0.070878 0.595611 0.472371
O O3 0.133800 0.195319 0.421391
O O4 0.064047 0.225783 0.337510
O O5 0.256897 0.649636 0.098752
O O6 0.287964 0.395944 0.218520
O O7 0.343080 0.282504 0.013525
O O8 0.031388 0.793190 0.308794
O O9 0.146405 0.927020 0.192366
O O10 0.062208 0.092000 0.153744
O O11 0.940520 0.483890 0.845872
#
# Coordination Sequence:
#
# PCOD9276179 Si02
#       6
#     8   8   8   4   8   8
#     4  10  22  43  70 106 138 186 234 288 352 423
#     4  10  20  39  70 106 142 185 229 285 348 421
#     4  11  25  44  70 100 141 192 238 287 351 417
#     4  12  26  50  66  94 148 188 240 308 334 412
#     4  10  20  39  70 105 143 185 228 284 347 421
#     4  11  25  44  72 104 143 184 239 295 351 414
#
# _framework density 26.104648999999998
#
# number of rings (size 3 to 8) (size 9 to 14) (size 15 to 20)
#    0.000    1.455    1.818    2.727    0.000    1.455 
#    0.000   20.000    0.000    0.000    0.000    0.000 
#    0.000    0.000    0.000    0.000    0.000    0.000 
#
# Total GULP energy -122746.375625 kJ/mol
# GULP energy per Si atom -5579.380710 kJ/mol
# Density = 2.604523 g / cm^3
# Si number density = 26.104649 Si / 1000 Ang^3
#
#
#
# Elastic Constant Matrix: (Units=GPa)
#
#
# Indices 1 2 3 4 5 6 
#
# 1 102.0525 57.2269 62.4039 0.0003 3.5321 0.0012
# 2 57.2269 103.8539 49.4146 0.0008 9.9270 0.0071
# 3 62.4039 49.4146 109.7946 0.0000 -1.2873 0.0003
# 4 0.0003 0.0008 0.0000 14.8602 -0.0002 -9.2698
# 5 3.5321 9.9270 -1.2873 -0.0002 17.8068 -0.0004
# 6 0.0012 0.0071 0.0003 -9.2698 -0.0004 49.1618
#
#
#
# Elastic Compliance Matrix: (Units=1/GPa)
#
#
# Indices 1 2 3 4 5 6 
#
# 1 0.017805 -0.006286 -0.007297 0.000000 -0.000555 0.000001
# 2 -0.006286 0.015480 -0.003484 -0.000002 -0.007635 -0.000003
# 3 -0.007297 -0.003484 0.014876 0.000001 0.004465 0.000001
# 4 0.000000 -0.000002 0.000001 0.076264 0.000003 0.014380
# 5 -0.000555 -0.007635 0.004465 0.000003 0.060847 0.000002
# 6 0.000001 -0.000003 0.000001 0.014380 0.000002 0.023052
#
#
# Mechanical properties :
#
#
# Convention : Reuss Voigt Hill
#
# Bulk Modulus (GPa) = 71.29202 72.64355 71.96779
# Shear Modulus (GPa) = 20.23185 26.14282 23.18734
#
# Velocity S-wave (km/s) = 2.78695 3.16802 2.98358
# Velocity P-wave (km/s) = 6.14211 6.42418 6.28473
#
# Compressibility (1/GPa) = 0.01402682
#
# Stress axis : x y z
#
# Youngs Moduli (GPa) = 56.16292 64.59879 67.22340
#
# Poissons Ratio (x) = 0.40608 0.49055
# Poissons Ratio (y) = 0.35305 0.23419
# Poissons Ratio (z) = 0.40984 0.22505
#
# Static dielectric constant tensor:
#      x y z
#    x 2.040270 0.000000 -0.018000 
#    y 0.000000 2.102850 0.000000 
#    z -0.018000 0.000000 2.061200 
# 
# From -- ./inp_files/175621.got.cif
#   From: 2010.05.17/outbox.cif.g08.bks.cpg/sg15_88_cif.got.tgz:175621.got - 2010.06.03 18:47:42.
