data_PCOD9276047
_publ_section_title
;
Structure prediction by ZEFSAII (Michael W. Deem and Ramdas Pophale) SiO2 
 PCOD9276047
Probable space group: C 2/C
;
_chemical_formula_sum "Si O2"
_cell_formula_units_Z 52
_cell_length_a 13.706241
_cell_length_b 26.375115
_cell_length_c 8.566900
_cell_angle_alpha 90.000000
_cell_angle_beta 134.421039
_cell_angle_gamma 90.000000
_cell_volume 2211.901714
_symmetry_space_group_name_H-M "C 2/C"
_symmetry_group_IT_number 15
_symmetry_cell_setting 'monoclinic'
loop_
_space_group_symop_operation_xyz
x,y,z
-x,y,1/2-z
-x,-y,-z
x,-y,1/2+z
1/2+x,1/2+y,z
1/2-x,1/2+y,1/2-z
1/2-x,1/2-y,-z
1/2+x,1/2-y,1/2+z
loop_
_atom_site_type_symbol
_atom_site_label
_atom_site_fract_x
_atom_site_fract_y
_atom_site_fract_z
Si Si1 0.437597 0.109509 0.846905
Si Si2 0.738826 0.460744 0.307653
Si Si3 0.000000 0.922021 0.250000
Si Si4 0.500000 0.254330 0.250000
Si Si5 0.500000 0.297299 0.750000
Si Si6 0.383531 0.963135 0.794089
Si Si7 0.138725 0.838412 0.611475
Si Si8 0.081581 0.704928 0.034225
O O1 0.500000 0.091153 0.750000
O O2 0.298770 0.082519 0.754139
O O3 0.553066 0.090887 0.097563
O O4 0.446078 0.170536 0.852507
O O5 0.594564 0.449893 0.227933
O O6 0.843924 0.464650 0.570457
O O7 0.750586 0.514388 0.232823
O O8 0.102542 0.885922 0.464006
O O9 0.600447 0.290168 0.460951
O O10 0.575913 0.221087 0.207484
O O11 0.549648 0.332845 0.666903
O O12 0.405462 0.255689 0.554386
O O13 0.500000 0.000000 0.000000
O O14 0.289594 0.830763 0.844679
#
# Coordination Sequence:
#
# PCOD9276047 Si02
#       8
#     8   8   4   4   4   8   8   8
#     4  11  22  37  62  98 128 161 212 270 325 378
#     4  11  24  43  65  94 133 166 221 259 326 398
#     4  11  26  44  64  95 128 188 219 264 316 399
#     4   9  22  36  58  88 119 169 210 264 322 389
#     4  10  22  42  58  97 129 173 217 274 334 392
#     4  10  20  39  67  93 125 165 201 274 329 376
#     4  10  22  41  61  86 130 170 218 261 332 381
#     4  11  21  37  62  93 123 166 215 272 326 379
#
# _framework density 23.509180000000001
#
# number of rings (size 3 to 8) (size 9 to 14) (size 15 to 20)
#    0.000    1.538    0.769    5.538    4.308    1.846 
#    5.538    1.538    0.000    0.000    0.000    0.000 
#    0.000    0.000    0.000    0.000    0.000    0.000 
#
# Total GULP energy -145018.488830 kJ/mol
# GULP energy per Si atom -5577.634186 kJ/mol
# Density = 2.345567 g / cm^3
# Si number density = 23.509180 Si / 1000 Ang^3
#
#
#
# Elastic Constant Matrix: (Units=GPa)
#
#
# Indices 1 2 3 4 5 6 
#
# 1 136.0499 28.0433 19.5274 0.0000 -11.5270 0.0000
# 2 28.0433 41.1198 -18.6143 0.0000 -0.0252 0.0000
# 3 19.5274 -18.6143 58.4039 0.0000 -15.8988 0.0000
# 4 0.0000 0.0000 0.0000 15.0364 0.0000 -5.6544
# 5 -11.5270 -0.0252 -15.8988 0.0000 44.9743 0.0000
# 6 0.0000 0.0000 0.0000 -5.6544 0.0000 17.4054
#
#
#
# Elastic Compliance Matrix: (Units=1/GPa)
#
#
# Indices 1 2 3 4 5 6 
#
# 1 0.010405 -0.010085 -0.006604 0.000000 0.000326 0.000000
# 2 -0.010085 0.038720 0.016614 0.000000 0.003310 0.000000
# 3 -0.006604 0.016614 0.026740 0.000000 0.007770 0.000000
# 4 0.000000 0.000000 0.000000 0.075761 0.000000 0.024612
# 5 0.000326 0.003310 0.007770 0.000000 0.025067 0.000000
# 6 0.000000 0.000000 0.000000 0.024612 0.000000 0.065449
#
#
# Mechanical properties :
#
#
# Convention : Reuss Voigt Hill
#
# Bulk Modulus (GPa) = 13.20764 32.60958 22.90861
# Shear Modulus (GPa) = 18.68937 29.25771 23.97354
#
# Velocity S-wave (km/s) = 2.82260 3.53161 3.19682
# Velocity P-wave (km/s) = 4.03151 5.52547 4.83652
#
# Compressibility (1/GPa) = 0.07571378
#
# Stress axis : x y z
#
# Youngs Moduli (GPa) = 96.11059 25.82627 37.39647
#
# Poissons Ratio (x) = 0.26047 0.24698
# Poissons Ratio (y) = 0.96931 -0.62130
# Poissons Ratio (z) = 0.63475 -0.42908
#
# Static dielectric constant tensor:
#      x y z
#    x 1.986290 0.000000 0.071560 
#    y 0.000000 1.933190 0.000000 
#    z 0.071560 0.000000 1.906000 
# 
# From -- ./inp_files/44957.got.cif
#   From: 2010.05.17/outbox.cif.g08.bks.cpg/sg15_23_cif.got.tgz:44957.got - 2010.06.03 18:47:42.
