data_PCOD9276660
_publ_section_title
;
Structure prediction by ZEFSAII (Michael W. Deem and Ramdas Pophale) SiO2 
 PCOD9276660
Probable space group: C 2/C
;
_chemical_formula_sum "Si O2"
_cell_formula_units_Z 64
_cell_length_a 21.804714
_cell_length_b 12.428850
_cell_length_c 14.544314
_cell_angle_alpha 90.000000
_cell_angle_beta 46.218779
_cell_angle_gamma 90.000000
_cell_volume 2845.797457
_symmetry_space_group_name_H-M "C 2/C"
_symmetry_group_IT_number 15
_symmetry_cell_setting 'monoclinic'
loop_
_space_group_symop_operation_xyz
x,y,z
-x,y,1/2-z
-x,-y,-z
x,-y,1/2+z
1/2+x,1/2+y,z
1/2-x,1/2+y,1/2-z
1/2-x,1/2-y,-z
1/2+x,1/2-y,1/2+z
loop_
_atom_site_type_symbol
_atom_site_label
_atom_site_fract_x
_atom_site_fract_y
_atom_site_fract_z
Si Si1 0.127464 0.747606 0.673751
Si Si2 0.629911 0.032225 0.435389
Si Si3 0.554777 0.252015 0.549627
Si Si4 0.097991 0.719716 0.177222
Si Si5 0.643547 0.628168 0.794877
Si Si6 0.662049 0.803457 0.407303
Si Si7 0.100592 0.483923 0.172710
Si Si8 0.810761 0.888327 0.745521
O O1 0.115197 0.759671 0.577312
O O2 0.136468 0.620570 0.684675
O O3 0.195072 0.823117 0.652521
O O4 0.037604 0.776354 0.814699
O O5 0.563213 0.129228 0.503198
O O6 0.717406 0.079577 0.305559
O O7 0.609056 0.909438 0.430310
O O8 0.647104 0.012219 0.526429
O O9 0.585682 0.329172 0.437421
O O10 0.119198 0.812213 0.226183
O O11 0.109801 0.600115 0.208718
O O12 0.000000 0.725624 0.250000
O O13 0.148932 0.721536 0.028621
O O14 0.740859 0.663071 0.712410
O O15 0.640989 0.499868 0.790579
O O16 0.645233 0.695176 0.369099
O O17 0.000000 0.467502 0.250000
#
# Coordination Sequence:
#
# PCOD9276660 Si02
#       8
#     8   8   8   8   8   8   8   8
#     4  10  21  38  62  92 125 156 197 257 310 358
#     4   9  18  38  62  87 121 155 201 254 300 363
#     4  10  20  40  64  88 122 161 200 249 314 360
#     4  10  23  41  65  93 121 161 208 254 312 362
#     4  11  24  43  62  88 127 167 205 252 301 368
#     4  10  22  42  63  89 126 157 203 259 305 359
#     4   9  16  36  62  90 119 147 199 257 301 358
#     4  11  24  39  60  92 124 161 210 249 298 374
#
# _framework density 22.489303
#
# number of rings (size 3 to 8) (size 9 to 14) (size 15 to 20)
#    0.000    2.000    3.750    0.375    1.750    4.500 
#    2.250    1.250    0.000    0.000    0.000    0.000 
#    0.000    0.000    0.000    0.000    0.000    0.000 
#
# Total GULP energy -178731.316140 kJ/mol
# GULP energy per Si atom -5585.353629 kJ/mol
# Density = 2.243812 g / cm^3
# Si number density = 22.489303 Si / 1000 Ang^3
#
#
#
# Elastic Constant Matrix: (Units=GPa)
#
#
# Indices 1 2 3 4 5 6 
#
# 1 61.6477 48.4985 13.0795 0.0000 11.6249 0.0000
# 2 48.4985 199.0974 30.9949 0.0000 18.1084 0.0000
# 3 13.0795 30.9949 76.4117 0.0000 5.5721 0.0000
# 4 0.0000 0.0000 0.0000 90.9443 0.0000 -45.4593
# 5 11.6249 18.1084 5.5721 0.0000 26.9154 0.0000
# 6 0.0000 0.0000 0.0000 -45.4593 0.0000 73.3476
#
#
#
# Elastic Compliance Matrix: (Units=1/GPa)
#
#
# Indices 1 2 3 4 5 6 
#
# 1 0.021071 -0.004381 -0.001402 0.000000 -0.005863 0.000000
# 2 -0.004381 0.006559 -0.001753 0.000000 -0.002158 0.000000
# 3 -0.001402 -0.001753 0.014121 0.000000 -0.001138 0.000000
# 4 0.000000 0.000000 0.000000 0.015931 0.000000 0.009874
# 5 -0.005863 -0.002158 -0.001138 0.000000 0.041373 0.000000
# 6 0.000000 0.000000 0.000000 0.009874 0.000000 0.019753
#
#
# Mechanical properties :
#
#
# Convention : Reuss Voigt Hill
#
# Bulk Modulus (GPa) = 37.48398 58.03363 47.75881
# Shear Modulus (GPa) = 35.02027 54.54707 44.78367
#
# Velocity S-wave (km/s) = 3.95041 4.93025 4.46728
# Velocity P-wave (km/s) = 6.12465 7.63353 6.92034
#
# Compressibility (1/GPa) = 0.02667806
#
# Stress axis : x y z
#
# Youngs Moduli (GPa) = 47.45872 152.46019 70.81560
#
# Poissons Ratio (x) = 0.66796 0.09929
# Poissons Ratio (y) = 0.20793 0.12416
# Poissons Ratio (z) = 0.06654 0.26731
#
# Static dielectric constant tensor:
#      x y z
#    x 1.860990 0.000000 -0.001050 
#    y 0.000000 1.854840 0.000000 
#    z -0.001050 0.000000 1.857230 
# 
# From -- ./inp_files/177797.got.cif
#   From: 2010.05.17/outbox.cif.g08.bks.cpg/sg15_89_cif.got.tgz:177797.got - 2010.06.03 18:47:42.
