data_PCOD9276637
_publ_section_title
;
Structure prediction by ZEFSAII (Michael W. Deem and Ramdas Pophale) SiO2 
 PCOD9276637
Probable space group: C 2/C
;
_chemical_formula_sum "Si O2"
_cell_formula_units_Z 60
_cell_length_a 12.121449
_cell_length_b 9.016055
_cell_length_c 27.783736
_cell_angle_alpha 90.000000
_cell_angle_beta 64.291290
_cell_angle_gamma 90.000000
_cell_volume 2735.847399
_symmetry_space_group_name_H-M "C 2/C"
_symmetry_group_IT_number 15
_symmetry_cell_setting 'monoclinic'
loop_
_space_group_symop_operation_xyz
x,y,z
-x,y,1/2-z
-x,-y,-z
x,-y,1/2+z
1/2+x,1/2+y,z
1/2-x,1/2+y,1/2-z
1/2-x,1/2-y,-z
1/2+x,1/2-y,1/2+z
loop_
_atom_site_type_symbol
_atom_site_label
_atom_site_fract_x
_atom_site_fract_y
_atom_site_fract_z
Si Si1 0.796932 0.957034 0.287739
Si Si2 0.954646 0.263186 0.908489
Si Si3 0.834324 0.295231 0.553410
Si Si4 0.469439 0.815545 0.157985
Si Si5 0.662137 0.947527 0.047519
Si Si6 0.500000 0.019868 0.750000
Si Si7 0.862015 0.698615 0.213627
Si Si8 0.600622 0.473829 0.633692
O O1 0.667994 0.873786 0.322367
O O2 0.847626 0.865349 0.233434
O O3 0.882186 0.950938 0.317779
O O4 0.761687 0.126893 0.283696
O O5 0.051123 0.271913 0.933723
O O6 0.031769 0.312402 0.846281
O O7 0.846322 0.378315 0.940339
O O8 0.909779 0.098629 0.904968
O O9 0.782730 0.139267 0.542580
O O10 0.860184 0.400976 0.503143
O O11 0.722245 0.374464 0.602483
O O12 0.551157 0.879774 0.099668
O O13 0.519694 0.879327 0.199386
O O14 0.488061 0.639762 0.154051
O O15 0.605692 0.906762 0.747175
#
# Coordination Sequence:
#
# PCOD9276637 Si02
#       8
#     8   8   8   8   8   4   8   8
#     4  11  24  41  60  94 133 166 219 262 313 386
#     4  12  23  43  65  96 129 168 212 264 322 381
#     4  10  23  44  70  95 128 169 214 267 327 379
#     4  10  23  41  64  91 126 174 210 263 325 375
#     4  10  21  44  69  94 130 168 212 270 323 383
#     4  10  20  40  64  84 126 172 212 256 318 382
#     4  11  24  39  61  95 126 173 214 259 321 374
#     4  11  25  41  65  96 129 167 217 266 316 384
#
# _framework density 21.931047
#
# number of rings (size 3 to 8) (size 9 to 14) (size 15 to 20)
#    0.000    1.333    4.000    1.200    5.600    1.600 
#    0.000    6.000    0.000    0.000    0.000    0.000 
#    0.000    0.000    0.000    0.000    0.000    0.000 
#
# Total GULP energy -167761.147687 kJ/mol
# GULP energy per Si atom -5592.038256 kJ/mol
# Density = 2.188113 g / cm^3
# Si number density = 21.931047 Si / 1000 Ang^3
#
#
#
# Elastic Constant Matrix: (Units=GPa)
#
#
# Indices 1 2 3 4 5 6 
#
# 1 51.7282 27.9852 5.4419 0.0000 11.3352 0.0000
# 2 27.9852 84.2581 -1.3265 0.0000 22.9006 0.0000
# 3 5.4419 -1.3265 61.0263 0.0000 11.3548 0.0000
# 4 0.0000 0.0000 0.0000 20.2392 0.0000 3.8222
# 5 11.3352 22.9006 11.3548 0.0000 21.7031 0.0000
# 6 0.0000 0.0000 0.0000 3.8222 0.0000 24.1432
#
#
#
# Elastic Compliance Matrix: (Units=1/GPa)
#
#
# Indices 1 2 3 4 5 6 
#
# 1 0.024181 -0.006762 -0.001419 0.000000 -0.004751 0.000000
# 2 -0.006762 0.019472 0.004644 0.000000 -0.019445 0.000000
# 3 -0.001419 0.004644 0.019263 0.000000 -0.014237 0.000000
# 4 0.000000 0.000000 0.000000 0.050932 0.000000 -0.008063
# 5 -0.004751 -0.019445 -0.014237 0.000000 0.076524 0.000000
# 6 0.000000 0.000000 0.000000 -0.008063 0.000000 0.042696
#
#
# Mechanical properties :
#
#
# Convention : Reuss Voigt Hill
#
# Bulk Modulus (GPa) = 17.90790 29.02378 23.46584
# Shear Modulus (GPa) = 19.32321 24.21124 21.76723
#
# Velocity S-wave (km/s) = 2.97153 3.32621 3.15386
# Velocity P-wave (km/s) = 4.46728 5.29286 4.89750
#
# Compressibility (1/GPa) = 0.05584129
#
# Stress axis : x y z
#
# Youngs Moduli (GPa) = 41.35525 51.35505 51.91313
#
# Poissons Ratio (x) = 0.34728 0.07368
# Poissons Ratio (y) = 0.27966 -0.24110
# Poissons Ratio (z) = 0.05869 -0.23850
#
# Static dielectric constant tensor:
#      x y z
#    x 1.784860 0.000000 -0.012550 
#    y 0.000000 1.842290 0.000000 
#    z -0.012550 0.000000 1.805760 
# 
# From -- ./inp_files/310273.got.cif
#   From: 2010.05.17/outbox.cif.g08.bks.cpg/sg15_156_cif.got.tgz:310273.got - 2010.06.03 18:47:42.
