data_PCOD9276899
_publ_section_title
;
Structure prediction by ZEFSAII (Michael W. Deem and Ramdas Pophale) SiO2 
 PCOD9276899
Probable space group: C 2/C
;
_chemical_formula_sum "Si O2"
_cell_formula_units_Z 44
_cell_length_a 29.928766
_cell_length_b 5.267964
_cell_length_c 13.949783
_cell_angle_alpha 90.000000
_cell_angle_beta 56.168904
_cell_angle_gamma 90.000000
_cell_volume 1826.981231
_symmetry_space_group_name_H-M "C 2/C"
_symmetry_group_IT_number 15
_symmetry_cell_setting 'monoclinic'
loop_
_space_group_symop_operation_xyz
x,y,z
-x,y,1/2-z
-x,-y,-z
x,-y,1/2+z
1/2+x,1/2+y,z
1/2-x,1/2+y,1/2-z
1/2-x,1/2-y,-z
1/2+x,1/2-y,1/2+z
loop_
_atom_site_type_symbol
_atom_site_label
_atom_site_fract_x
_atom_site_fract_y
_atom_site_fract_z
Si Si1 0.000000 0.435120 0.250000
Si Si2 0.333967 0.693108 0.469415
Si Si3 0.760603 0.518488 0.791799
Si Si4 0.432673 0.405198 0.979507
Si Si5 0.813042 0.293905 0.893501
Si Si6 0.979260 0.304782 0.603676
O O1 0.966397 0.274285 0.366434
O O2 0.959756 0.585761 0.227310
O O3 0.275349 0.656951 0.585178
O O4 0.373931 0.618379 0.507406
O O5 0.340057 0.477918 0.380463
O O6 0.337086 0.979242 0.428733
O O7 0.731357 0.259492 0.788380
O O8 0.811444 0.401042 0.787017
O O9 0.466427 0.661456 0.930075
O O10 0.438328 0.352023 0.086772
O O11 0.750000 0.250000 0.000000
O O12 0.000000 0.500000 0.500000
#
# Coordination Sequence:
#
# PCOD9276899 Si02
#       6
#     4   8   8   8   8   8
#     4  10  20  40  66  88 132 168 210 262 342 388
#     4  11  23  40  68  92 125 173 221 262 312 407
#     4  11  21  40  62  91 128 165 207 264 327 375
#     4  10  22  40  64  96 124 172 220 268 328 392
#     4  10  21  41  64  88 128 172 209 258 335 381
#     4   9  20  40  64  86 130 171 204 271 337 385
#
# _framework density 24.083444
#
# number of rings (size 3 to 8) (size 9 to 14) (size 15 to 20)
#    0.000    1.818    0.000    6.000    5.091    0.000 
#    3.273    9.091    0.000    0.000    0.000    0.000 
#    0.000    0.000    0.000    0.000    0.000    0.000 
#
# Total GULP energy -122631.528871 kJ/mol
# GULP energy per Si atom -5574.160403 kJ/mol
# Density = 2.402863 g / cm^3
# Si number density = 24.083444 Si / 1000 Ang^3
#
#
#
# Elastic Constant Matrix: (Units=GPa)
#
#
# Indices 1 2 3 4 5 6 
#
# 1 45.5990 18.3453 -0.5585 -0.0002 8.3041 -0.0002
# 2 18.3453 130.5962 32.2889 0.0018 13.7172 -0.0002
# 3 -0.5585 32.2889 89.6908 -0.0002 21.7841 -0.0001
# 4 -0.0002 0.0018 -0.0002 47.2987 -0.0001 23.2202
# 5 8.3041 13.7172 21.7841 -0.0001 27.3240 -0.0002
# 6 -0.0002 -0.0002 -0.0001 23.2202 -0.0002 22.5342
#
#
#
# Elastic Compliance Matrix: (Units=1/GPa)
#
#
# Indices 1 2 3 4 5 6 
#
# 1 0.024937 -0.003461 0.003497 0.000000 -0.008629 0.000000
# 2 -0.003461 0.008998 -0.003000 -0.000001 -0.001073 0.000001
# 3 0.003497 -0.003000 0.015060 0.000000 -0.011563 0.000000
# 4 0.000000 -0.000001 0.000000 0.042787 0.000000 -0.044090
# 5 -0.008629 -0.001073 -0.011563 0.000000 0.048978 0.000000
# 6 0.000000 0.000001 0.000000 -0.044090 0.000000 0.089809
#
#
# Mechanical properties :
#
#
# Convention : Reuss Voigt Hill
#
# Bulk Modulus (GPa) = 23.22001 40.67083 31.94542
# Shear Modulus (GPa) = 19.93205 33.81874 26.87540
#
# Velocity S-wave (km/s) = 2.87997 3.75137 3.34418
# Velocity P-wave (km/s) = 4.55207 5.97393 5.31080
#
# Compressibility (1/GPa) = 0.04306630
#
# Stress axis : x y z
#
# Youngs Moduli (GPa) = 40.10086 111.13698 66.40253
#
# Poissons Ratio (x) = 0.38468 -0.23222
# Poissons Ratio (y) = 0.13880 0.19922
# Poissons Ratio (z) = -0.14024 0.33342
#
# Static dielectric constant tensor:
#      x y z
#    x 1.998280 0.000000 -0.077870 
#    y 0.000000 2.010170 0.000000 
#    z -0.077870 0.000000 1.897870 
# 
# From -- ./inp_files/125014.got.cif
#   From: 2010.05.17/outbox.cif.g08.bks.cpg/sg15_63_cif.got.tgz:125014.got - 2010.06.03 18:47:42.
