data_PCOD9276512
_publ_section_title
;
Structure prediction by ZEFSAII (Michael W. Deem and Ramdas Pophale) SiO2 
 PCOD9276512
Probable space group: C 2/C
;
_chemical_formula_sum "Si O2"
_cell_formula_units_Z 44
_cell_length_a 8.894868
_cell_length_b 29.084612
_cell_length_c 7.992022
_cell_angle_alpha 90.000000
_cell_angle_beta 63.920465
_cell_angle_gamma 90.000000
_cell_volume 1857.056361
_symmetry_space_group_name_H-M "C 2/C"
_symmetry_group_IT_number 15
_symmetry_cell_setting 'monoclinic'
loop_
_space_group_symop_operation_xyz
x,y,z
-x,y,1/2-z
-x,-y,-z
x,-y,1/2+z
1/2+x,1/2+y,z
1/2-x,1/2+y,1/2-z
1/2-x,1/2-y,-z
1/2+x,1/2-y,1/2+z
loop_
_atom_site_type_symbol
_atom_site_label
_atom_site_fract_x
_atom_site_fract_y
_atom_site_fract_z
Si Si1 0.321864 0.474002 0.603845
Si Si2 0.759869 0.563408 0.991997
Si Si3 0.500000 0.866730 0.250000
Si Si4 0.544502 0.614509 0.546348
Si Si5 0.272492 0.301670 0.692677
Si Si6 0.561298 0.207927 0.954579
O O1 0.500000 0.500000 0.500000
O O2 0.198931 0.515572 0.622060
O O3 0.330727 0.429040 0.482770
O O4 0.296859 0.453441 0.798901
O O5 0.909847 0.599269 0.922277
O O6 0.614454 0.591253 0.965875
O O7 0.386511 0.831822 0.199423
O O8 0.500000 0.634684 0.750000
O O9 0.625442 0.651538 0.382704
O O10 0.394815 0.258022 0.636342
O O11 0.164426 0.297503 0.574726
O O12 0.134780 0.298938 0.906221
#
# Coordination Sequence:
#
# PCOD9276512 Si02
#       6
#     8   8   4   8   8   8
#     4  10  20  40  62  93 126 164 214 270 315 391
#     4  11  24  40  65  94 135 171 219 270 335 389
#     4  12  26  44  62 100 136 172 218 280 328 396
#     4  11  21  37  67  95 126 174 223 270 323 389
#     4  10  23  43  68  92 129 179 218 269 332 393
#     4  10  24  43  65  94 133 170 224 273 325 394
#
# _framework density 23.693408999999999
#
# number of rings (size 3 to 8) (size 9 to 14) (size 15 to 20)
#    0.000    1.455    0.000    6.545    7.636    1.455 
#    3.273    1.818    0.000    0.000    0.000    0.000 
#    0.000    0.000    0.000    0.000    0.000    0.000 
#
# Total GULP energy -123014.481404 kJ/mol
# GULP energy per Si atom -5591.567337 kJ/mol
# Density = 2.363948 g / cm^3
# Si number density = 23.693409 Si / 1000 Ang^3
#
#
#
# Elastic Constant Matrix: (Units=GPa)
#
#
# Indices 1 2 3 4 5 6 
#
# 1 28.1172 17.5484 22.5845 0.0000 -0.4247 0.0000
# 2 17.5484 173.8655 44.4941 0.0000 -22.7811 0.0000
# 3 22.5845 44.4941 123.0211 0.0000 1.5170 0.0000
# 4 0.0000 0.0000 0.0000 38.6263 0.0000 3.0767
# 5 -0.4247 -22.7811 1.5170 0.0000 23.9541 0.0000
# 6 0.0000 0.0000 0.0000 3.0767 0.0000 19.0738
#
#
#
# Elastic Compliance Matrix: (Units=1/GPa)
#
#
# Indices 1 2 3 4 5 6 
#
# 1 0.042752 -0.002753 -0.006835 0.000000 -0.001427 0.000000
# 2 -0.002753 0.007583 -0.002327 0.000000 0.007310 0.000000
# 3 -0.006835 -0.002327 0.010262 0.000000 -0.002984 0.000000
# 4 0.000000 0.000000 0.000000 0.026226 0.000000 -0.004230
# 5 -0.001427 0.007310 -0.002984 0.000000 0.048862 0.000000
# 6 0.000000 0.000000 0.000000 -0.004230 0.000000 0.053110
#
#
# Mechanical properties :
#
#
# Convention : Reuss Voigt Hill
#
# Bulk Modulus (GPa) = 27.19883 54.91753 41.05818
# Shear Modulus (GPa) = 22.23387 32.35597 27.29492
#
# Velocity S-wave (km/s) = 3.06665 3.69943 3.39780
# Velocity P-wave (km/s) = 4.90342 6.44022 5.72363
#
# Compressibility (1/GPa) = 0.03676629
#
# Stress axis : x y z
#
# Youngs Moduli (GPa) = 23.39058 131.87708 97.44610
#
# Poissons Ratio (x) = 0.36302 0.66608
# Poissons Ratio (y) = 0.06439 0.22679
# Poissons Ratio (z) = 0.15988 0.30692
#
# Static dielectric constant tensor:
#      x y z
#    x 1.955950 0.000000 -0.044920 
#    y 0.000000 1.902750 0.000000 
#    z -0.044920 0.000000 1.930340 
# 
# From -- ./inp_files/33987.got.cif
#   From: 2010.05.17/outbox.cif.g08.bks.cpg/sg15_17_cif.got.tgz:33987.got - 2010.06.03 18:47:42.
