data_PCOD9276817
_publ_section_title
;
Structure prediction by ZEFSAII (Michael W. Deem and Ramdas Pophale) SiO2 
 PCOD9276817
Probable space group: C 2/C
;
_chemical_formula_sum "Si O2"
_cell_formula_units_Z 40
_cell_length_a 5.535752
_cell_length_b 25.375273
_cell_length_c 12.475379
_cell_angle_alpha 90.000000
_cell_angle_beta 77.371357
_cell_angle_gamma 90.000000
_cell_volume 1710.036135
_symmetry_space_group_name_H-M "C 2/C"
_symmetry_group_IT_number 15
_symmetry_cell_setting 'monoclinic'
loop_
_space_group_symop_operation_xyz
x,y,z
-x,y,1/2-z
-x,-y,-z
x,-y,1/2+z
1/2+x,1/2+y,z
1/2-x,1/2+y,1/2-z
1/2-x,1/2-y,-z
1/2+x,1/2-y,1/2+z
loop_
_atom_site_type_symbol
_atom_site_label
_atom_site_fract_x
_atom_site_fract_y
_atom_site_fract_z
Si Si1 0.938500 0.218343 0.631946
Si Si2 0.218082 0.384309 0.068289
Si Si3 0.142126 0.896544 0.847830
Si Si4 0.785290 0.501627 0.928825
Si Si5 0.905313 0.321192 0.951337
O O1 0.885731 0.276685 0.589386
O O2 0.185684 0.202146 0.544204
O O3 0.000000 0.223666 0.750000
O O4 0.756238 0.168988 0.632482
O O5 0.188659 0.440529 0.127377
O O6 0.446332 0.391179 0.964204
O O7 0.995940 0.370974 0.010258
O O8 0.303298 0.844344 0.850658
O O9 0.000000 0.897972 0.750000
O O10 0.292920 0.950380 0.853170
O O11 0.500000 0.500000 0.000000
O O12 0.000000 0.500000 0.000000
#
# Coordination Sequence:
#
# PCOD9276817 Si02
#       5
#     8   8   8   8   8
#     4  10  23  39  60  93 125 166 220 266 331 395
#     4  10  21  39  64  86 129 169 212 268 331 389
#     4  10  22  37  62  98 125 168 221 267 330 397
#     4  10  20  40  65  91 131 174 217 278 335 391
#     4  10  21  41  61  88 129 167 210 275 325 390
#
# _framework density 23.391317000000001
#
# number of rings (size 3 to 8) (size 9 to 14) (size 15 to 20)
#    0.000    2.000    2.000    0.600    2.800    1.600 
#    0.000    0.000    8.800    0.000    0.000    0.000 
#    0.000    0.000    0.000    0.000    0.000    0.000 
#
# Total GULP energy -111567.842438 kJ/mol
# GULP energy per Si atom -5578.392122 kJ/mol
# Density = 2.333808 g / cm^3
# Si number density = 23.391317 Si / 1000 Ang^3
#
#
#
# Elastic Constant Matrix: (Units=GPa)
#
#
# Indices 1 2 3 4 5 6 
#
# 1 80.9891 18.7793 22.5013 0.0000 9.5117 0.0000
# 2 18.7793 165.5783 43.0098 0.0000 16.9617 0.0000
# 3 22.5013 43.0098 92.3249 0.0000 12.9350 0.0000
# 4 0.0000 0.0000 0.0000 -186.2030 0.0000 293.9116
# 5 9.5117 16.9617 12.9350 0.0000 36.7603 0.0000
# 6 0.0000 0.0000 0.0000 293.9116 0.0000 -337.9288
#
#
#
# Elastic Compliance Matrix: (Units=1/GPa)
#
#
# Indices 1 2 3 4 5 6 
#
# 1 0.013501 -0.000599 -0.002693 0.000000 -0.002269 0.000000
# 2 -0.000599 0.007063 -0.002850 0.000000 -0.002101 0.000000
# 3 -0.002693 -0.002850 0.013183 0.000000 -0.002627 0.000000
# 4 0.000000 0.000000 0.000000 0.014404 0.000000 0.012528
# 5 -0.002269 -0.002101 -0.002627 0.000000 0.029684 0.000000
# 6 0.000000 0.000000 0.000000 0.012528 0.000000 0.007937
#
#
# Mechanical properties :
#
#
# Convention : Reuss Voigt Hill
#
# Bulk Modulus (GPa) = 46.59292 56.38590 51.48941
# Shear Modulus (GPa) = 47.52328 -80.50083 -16.48878
#
# Velocity S-wave (km/s) = 4.51229 -5.87278 -2.65789
# Velocity P-wave (km/s) = 6.86366 4.67207 3.55539
#
# Compressibility (1/GPa) = 0.02146249
#
# Stress axis : x y z
#
# Youngs Moduli (GPa) = 74.06810 141.58500 75.85277
#
# Poissons Ratio (x) = 0.08483 0.20430
# Poissons Ratio (y) = 0.04438 0.21617
# Poissons Ratio (z) = 0.19950 0.40350
#
# Static dielectric constant tensor:
#      x y z
#    x 1.362180 0.000000 0.173050 
#    y 0.000000 1.983740 0.000000 
#    z 0.173050 0.000000 1.792620 
# 
# From -- ./inp_files/73043.got.cif
#   From: 2010.05.17/outbox.cif.g08.bks.cpg/sg15_37_cif.got.tgz:73043.got - 2010.06.03 18:47:42.
