data_PCOD9276235
_publ_section_title
;
Structure prediction by ZEFSAII (Michael W. Deem and Ramdas Pophale) SiO2 
 PCOD9276235
Probable space group: C 2/C
;
_chemical_formula_sum "Si O2"
_cell_formula_units_Z 52
_cell_length_a 12.743096
_cell_length_b 33.694649
_cell_length_c 5.927030
_cell_angle_alpha 90.000000
_cell_angle_beta 74.237049
_cell_angle_gamma 90.000000
_cell_volume 2449.209069
_symmetry_space_group_name_H-M "C 2/C"
_symmetry_group_IT_number 15
_symmetry_cell_setting 'monoclinic'
loop_
_space_group_symop_operation_xyz
x,y,z
-x,y,1/2-z
-x,-y,-z
x,-y,1/2+z
1/2+x,1/2+y,z
1/2-x,1/2+y,1/2-z
1/2-x,1/2-y,-z
1/2+x,1/2-y,1/2+z
loop_
_atom_site_type_symbol
_atom_site_label
_atom_site_fract_x
_atom_site_fract_y
_atom_site_fract_z
Si Si1 0.125664 0.512837 0.166664
Si Si2 0.606934 0.298929 0.057080
Si Si3 0.000000 0.665573 0.250000
Si Si4 0.397860 0.224275 0.680906
Si Si5 0.674831 0.104202 0.100159
Si Si6 0.891955 0.876371 0.717419
Si Si7 0.762947 0.658095 0.818491
O O1 0.171662 0.502116 0.393328
O O2 0.129728 0.560328 0.144790
O O3 0.000000 0.498236 0.250000
O O4 0.500000 0.283632 0.250000
O O5 0.696060 0.317196 0.170256
O O6 0.658288 0.262888 0.887403
O O7 0.569137 0.336580 0.932815
O O8 0.943721 0.694436 0.463723
O O9 0.903944 0.635403 0.223102
O O10 0.500000 0.242204 0.750000
O O11 0.334049 0.193856 0.879008
O O12 0.800751 0.103484 0.111306
O O13 0.674881 0.122866 0.848558
O O14 0.000000 0.897722 0.750000
O O15 0.820014 0.861735 0.966339
#
# Coordination Sequence:
#
# PCOD9276235 Si02
#       7
#     8   8   4   8   8   8   8
#     4  10  22  42  69 106 140 175 206 249 320 399
#     4  11  21  37  55  75 113 156 210 268 315 372
#     4  10  20  40  54  86 128 158 202 248 330 374
#     4  11  22  35  54  82 112 156 203 259 327 381
#     4  10  22  38  64  92 128 162 201 257 307 392
#     4  11  22  38  60  84 114 160 216 266 314 363
#     4  10  23  38  57  84 110 162 206 263 315 374
#
# _framework density 21.231345000000001
#
# number of rings (size 3 to 8) (size 9 to 14) (size 15 to 20)
#    0.000    1.538    3.077    1.846    2.154    0.615 
#    0.000    0.000    0.000    0.923    0.000    0.000 
#    0.000    0.000    0.000    0.000    0.000    0.000 
#
# Total GULP energy -144912.422225 kJ/mol
# GULP energy per Si atom -5573.554701 kJ/mol
# Density = 2.118302 g / cm^3
# Si number density = 21.231345 Si / 1000 Ang^3
#
#
#
# Elastic Constant Matrix: (Units=GPa)
#
#
# Indices 1 2 3 4 5 6 
#
# 1 52.6562 -13.5736 -10.8108 0.0000 1.8551 0.0000
# 2 -13.5736 70.7617 17.5804 0.0000 4.0173 0.0000
# 3 -10.8108 17.5804 67.7866 0.0000 -1.5576 0.0000
# 4 0.0000 0.0000 0.0000 2.0944 0.0000 -4.0122
# 5 1.8551 4.0173 -1.5576 0.0000 28.3157 0.0000
# 6 0.0000 0.0000 0.0000 -4.0122 0.0000 14.8655
#
#
#
# Elastic Compliance Matrix: (Units=1/GPa)
#
#
# Indices 1 2 3 4 5 6 
#
# 1 0.020414 0.003434 0.002326 0.000000 -0.001697 0.000000
# 2 0.003434 0.015842 -0.003622 0.000000 -0.002672 0.000000
# 3 0.002326 -0.003622 0.016091 0.000000 0.001247 0.000000
# 4 0.000000 0.000000 0.000000 0.988625 0.000000 0.266831
# 5 -0.001697 -0.002672 0.001247 0.000000 0.035875 0.000000
# 6 0.000000 0.000000 0.000000 0.266831 0.000000 0.139288
#
#
# Mechanical properties :
#
#
# Convention : Reuss Voigt Hill
#
# Bulk Modulus (GPa) = 17.66070 19.73296 18.69683
# Shear Modulus (GPa) = 4.06262 22.25568 13.15915
#
# Velocity S-wave (km/s) = 1.38479 3.24118 2.49228
# Velocity P-wave (km/s) = 3.30048 4.82922 4.13609
#
# Compressibility (1/GPa) = 0.05662290
#
# Stress axis : x y z
#
# Youngs Moduli (GPa) = 48.98674 63.12194 62.14557
#
# Poissons Ratio (x) = -0.21677 -0.14455
# Poissons Ratio (y) = -0.16823 0.22512
# Poissons Ratio (z) = -0.11394 0.22865
#
# Static dielectric constant tensor:
#      x y z
#    x 1.872270 0.000000 0.030310 
#    y 0.000000 1.717490 0.000000 
#    z 0.030310 0.000000 1.853600 
# 
# From -- ./inp_files/9011.got.cif
#   From: 2010.05.17/outbox.cif.g08.bks.cpg/sg15_5_cif.got.tgz:9011.got - 2010.06.03 18:47:42.
