data_PCOD9276943
_publ_section_title
;
Structure prediction by ZEFSAII (Michael W. Deem and Ramdas Pophale) SiO2 
 PCOD9276943
Probable space group: C 2/C
;
_chemical_formula_sum "Si O2"
_cell_formula_units_Z 48
_cell_length_a 14.367254
_cell_length_b 28.628011
_cell_length_c 9.138655
_cell_angle_alpha 90.000000
_cell_angle_beta 137.205720
_cell_angle_gamma 90.000000
_cell_volume 2553.596923
_symmetry_space_group_name_H-M "C 2/C"
_symmetry_group_IT_number 15
_symmetry_cell_setting 'monoclinic'
loop_
_space_group_symop_operation_xyz
x,y,z
-x,y,1/2-z
-x,-y,-z
x,-y,1/2+z
1/2+x,1/2+y,z
1/2-x,1/2+y,1/2-z
1/2-x,1/2-y,-z
1/2+x,1/2-y,1/2+z
loop_
_atom_site_type_symbol
_atom_site_label
_atom_site_fract_x
_atom_site_fract_y
_atom_site_fract_z
Si Si1 0.609436 0.747490 0.247719
Si Si2 0.373140 0.899444 0.206092
Si Si3 0.226286 0.844786 0.789597
Si Si4 0.058678 0.070395 0.968560
Si Si5 0.499726 0.169536 0.425694
Si Si6 0.869733 0.032905 0.992727
O O1 0.500000 0.751905 0.250000
O O2 0.750000 0.750000 0.500000
O O3 0.617717 0.696488 0.184609
O O4 0.578272 0.786308 0.089112
O O5 0.500000 0.914897 0.250000
O O6 0.429879 0.876288 0.420264
O O7 0.263892 0.940114 0.108373
O O8 0.299900 0.858453 0.027247
O O9 0.149939 0.891367 0.651462
O O10 0.345378 0.830394 0.813501
O O11 0.000000 0.089284 0.750000
O O12 0.926441 0.054640 0.908615
O O13 0.144317 0.022723 0.041279
O O14 0.500000 0.169788 0.250000
O O15 0.000000 0.039687 0.250000
#
# Coordination Sequence:
#
# PCOD9276943 Si02
#       6
#     8   8   8   8   8   8
#     4  12  23  44  69  94 124 169 216 256 307 387
#     4  10  21  41  66  90 124 174 216 249 309 387
#     4  11  23  42  65  92 128 170 216 251 317 381
#     4  10  23  38  62  96 132 159 213 268 315 367
#     4  11  25  43  62  95 134 162 204 272 318 367
#     4  10  20  40  66  93 124 169 213 263 313 371
#
# _framework density 18.797015999999999
#
# number of rings (size 3 to 8) (size 9 to 14) (size 15 to 20)
#    0.000    1.333    5.000    0.500    4.667    1.333 
#    0.000    4.167    0.000    0.000    0.000    0.000 
#    0.000    0.000    0.000    0.000    0.000    0.000 
#
# Total GULP energy -133961.798994 kJ/mol
# GULP energy per Si atom -5581.741625 kJ/mol
# Density = 1.875423 g / cm^3
# Si number density = 18.797016 Si / 1000 Ang^3
#
#
#
# Elastic Constant Matrix: (Units=GPa)
#
#
# Indices 1 2 3 4 5 6 
#
# 1 90.6744 56.6094 57.3406 0.0000 -9.3359 0.0000
# 2 56.6094 105.2252 49.6002 0.0000 6.8902 0.0000
# 3 57.3406 49.6002 104.2453 0.0000 -15.3378 0.0000
# 4 0.0000 0.0000 0.0000 22.5383 0.0000 -0.7919
# 5 -9.3359 6.8902 -15.3378 0.0000 35.7006 0.0000
# 6 0.0000 0.0000 0.0000 -0.7919 0.0000 24.9634
#
#
#
# Elastic Compliance Matrix: (Units=1/GPa)
#
#
# Indices 1 2 3 4 5 6 
#
# 1 0.021081 -0.008283 -0.007054 0.000000 0.004081 0.000000
# 2 -0.008283 0.016481 -0.004347 0.000000 -0.007215 0.000000
# 3 -0.007054 -0.004347 0.016432 0.000000 0.006054 0.000000
# 4 0.000000 0.000000 0.000000 0.044418 0.000000 0.001409
# 5 0.004081 -0.007215 0.006054 0.000000 0.033071 0.000000
# 6 0.000000 0.000000 0.000000 0.001409 0.000000 0.040103
#
#
# Mechanical properties :
#
#
# Convention : Reuss Voigt Hill
#
# Bulk Modulus (GPa) = 68.37468 69.69394 69.03431
# Shear Modulus (GPa) = 23.16632 25.74676 24.45654
#
# Velocity S-wave (km/s) = 3.51443 3.70500 3.61097
# Velocity P-wave (km/s) = 7.27479 7.44717 7.36148
#
# Compressibility (1/GPa) = 0.01462530
#
# Stress axis : x y z
#
# Youngs Moduli (GPa) = 47.43652 60.67519 60.85740
#
# Poissons Ratio (x) = 0.50259 0.42928
# Poissons Ratio (y) = 0.39293 0.26455
# Poissons Ratio (z) = 0.33461 0.26376
#
# Static dielectric constant tensor:
#      x y z
#    x 1.652990 0.000000 -0.029500 
#    y 0.000000 1.665800 0.000000 
#    z -0.029500 0.000000 1.679860 
# 
# From -- ./inp_files/43944.got.cif
#   From: 2010.05.17/outbox.cif.g08.bks.cpg/sg15_22_cif.got.tgz:43944.got - 2010.06.03 18:47:42.
