data_PCOD9276146
_publ_section_title
;
Structure prediction by ZEFSAII (Michael W. Deem and Ramdas Pophale) SiO2 
 PCOD9276146
Probable space group: C 2/C
;
_chemical_formula_sum "Si O2"
_cell_formula_units_Z 44
_cell_length_a 5.698977
_cell_length_b 16.893337
_cell_length_c 18.381518
_cell_angle_alpha 90.000000
_cell_angle_beta 100.313436
_cell_angle_gamma 90.000000
_cell_volume 1741.083339
_symmetry_space_group_name_H-M "C 2/C"
_symmetry_group_IT_number 15
_symmetry_cell_setting 'monoclinic'
loop_
_space_group_symop_operation_xyz
x,y,z
-x,y,1/2-z
-x,-y,-z
x,-y,1/2+z
1/2+x,1/2+y,z
1/2-x,1/2+y,1/2-z
1/2-x,1/2-y,-z
1/2+x,1/2-y,1/2+z
loop_
_atom_site_type_symbol
_atom_site_label
_atom_site_fract_x
_atom_site_fract_y
_atom_site_fract_z
Si Si1 0.111024 0.024349 0.390801
Si Si2 0.308960 0.389471 0.999693
Si Si3 0.570832 0.154319 0.135479
Si Si4 0.272091 0.292832 0.425045
Si Si5 0.789054 0.591938 0.689175
Si Si6 0.500000 0.731766 0.750000
O O1 0.289182 0.072350 0.348464
O O2 0.980573 0.080601 0.443215
O O3 0.244760 0.962244 0.450348
O O4 0.909059 0.974259 0.337839
O O5 0.081513 0.357140 0.945887
O O6 0.456604 0.326919 0.055992
O O7 0.771057 0.219863 0.130930
O O8 0.415590 0.202897 0.185501
O O9 0.250000 0.250000 0.500000
O O10 0.136450 0.368728 0.384667
O O11 0.683716 0.667849 0.726896
O O12 0.000000 0.560239 0.750000
#
# Coordination Sequence:
#
# PCOD9276146 Si02
#       6
#     8   8   8   8   8   4
#     4  10  22  42  66 101 136 176 230 292 354 425
#     4  10  21  39  66 103 135 172 228 285 370 411
#     4  11  22  41  69  99 140 179 231 297 343 433
#     4  10  20  39  69 103 129 178 234 294 346 418
#     4  10  24  45  68  94 144 190 234 292 355 430
#     4  10  26  44  66 100 132 190 242 274 360 430
#
# _framework density 25.271621
#
# number of rings (size 3 to 8) (size 9 to 14) (size 15 to 20)
#    0.000    1.818    1.818    1.091    2.545    1.455 
#    4.909    0.000    0.000    0.000    0.000    0.000 
#    0.000    0.000    0.000    0.000    0.000    0.000 
#
# Total GULP energy -122655.415454 kJ/mol
# GULP energy per Si atom -5575.246157 kJ/mol
# Density = 2.521410 g / cm^3
# Si number density = 25.271621 Si / 1000 Ang^3
#
#
#
# Elastic Constant Matrix: (Units=GPa)
#
#
# Indices 1 2 3 4 5 6 
#
# 1 53.3938 50.5675 30.9917 0.0000 10.8621 0.0000
# 2 50.5675 147.7930 49.9707 0.0000 6.2045 0.0000
# 3 30.9917 49.9707 96.5830 0.0000 24.8747 0.0000
# 4 0.0000 0.0000 0.0000 44.9533 0.0000 -16.5951
# 5 10.8621 6.2045 24.8747 0.0000 43.9670 0.0000
# 6 0.0000 0.0000 0.0000 -16.5951 0.0000 24.9548
#
#
#
# Elastic Compliance Matrix: (Units=1/GPa)
#
#
# Indices 1 2 3 4 5 6 
#
# 1 0.030250 -0.008779 -0.004166 0.000000 -0.003877 0.000000
# 2 -0.008779 0.010829 -0.003454 0.000000 0.002595 0.000000
# 3 -0.004166 -0.003454 0.015319 0.000000 -0.007150 0.000000
# 4 0.000000 0.000000 0.000000 0.029483 0.000000 0.019607
# 5 -0.003877 0.002595 -0.007150 0.000000 0.027381 0.000000
# 6 0.000000 0.000000 0.000000 0.019607 0.000000 0.053111
#
#
# Mechanical properties :
#
#
# Convention : Reuss Voigt Hill
#
# Bulk Modulus (GPa) = 42.37233 62.31440 52.34337
# Shear Modulus (GPa) = 24.15025 33.85768 29.00396
#
# Velocity S-wave (km/s) = 3.09468 3.66423 3.39143
# Velocity P-wave (km/s) = 5.43806 6.52790 6.00775
#
# Compressibility (1/GPa) = 0.02360031
#
# Stress axis : x y z
#
# Youngs Moduli (GPa) = 33.05833 92.34679 65.27757
#
# Poissons Ratio (x) = 0.81067 0.27194
# Poissons Ratio (y) = 0.29021 0.22547
# Poissons Ratio (z) = 0.13772 0.31897
#
# Static dielectric constant tensor:
#      x y z
#    x 2.071460 0.000000 -0.151750 
#    y 0.000000 1.985540 0.000000 
#    z -0.151750 0.000000 2.130250 
# 
# From -- ./inp_files/227017.got.cif
#   From: 2010.05.17/outbox.cif.g08.bks.cpg/sg15_114_cif.got.tgz:227017.got - 2010.06.03 18:47:42.
