data_PCOD9276261
_publ_section_title
;
Structure prediction by ZEFSAII (Michael W. Deem and Ramdas Pophale) SiO2 
 PCOD9276261
Probable space group: C 2/C
;
_chemical_formula_sum "Si O2"
_cell_formula_units_Z 56
_cell_length_a 22.644972
_cell_length_b 7.700973
_cell_length_c 13.528802
_cell_angle_alpha 90.000000
_cell_angle_beta 76.856388
_cell_angle_gamma 90.000000
_cell_volume 2297.459747
_symmetry_space_group_name_H-M "C 2/C"
_symmetry_group_IT_number 15
_symmetry_cell_setting 'monoclinic'
loop_
_space_group_symop_operation_xyz
x,y,z
-x,y,1/2-z
-x,-y,-z
x,-y,1/2+z
1/2+x,1/2+y,z
1/2-x,1/2+y,1/2-z
1/2-x,1/2-y,-z
1/2+x,1/2-y,1/2+z
loop_
_atom_site_type_symbol
_atom_site_label
_atom_site_fract_x
_atom_site_fract_y
_atom_site_fract_z
Si Si1 0.425489 0.074407 0.676205
Si Si2 0.945223 0.155239 0.461414
Si Si3 0.781286 0.192674 0.703998
Si Si4 0.500000 0.000000 0.000000
Si Si5 0.851988 0.430216 0.526578
Si Si6 0.600412 0.525291 0.334978
Si Si7 0.816947 0.446182 0.840506
Si Si8 0.500000 0.527831 0.750000
O O1 0.494328 0.021033 0.630104
O O2 0.408989 0.275929 0.693369
O O3 0.382678 0.966635 0.764127
O O4 0.406386 0.025782 0.566743
O O5 0.885337 0.269448 0.461277
O O6 0.924175 0.008398 0.545678
O O7 0.987721 0.287659 0.505820
O O8 0.974111 0.081046 0.352501
O O9 0.806359 0.345024 0.622103
O O10 0.831093 0.040501 0.690060
O O11 0.781626 0.280858 0.810847
O O12 0.720702 0.112656 0.683931
O O13 0.822847 0.548751 0.455424
O O14 0.561158 0.401464 0.276721
#
# Coordination Sequence:
#
# PCOD9276261 Si02
#       8
#     8   8   8   4   8   8   8   4
#     4  10  21  38  64  89 129 161 206 259 314 368
#     4  10  22  39  59  87 126 162 203 259 314 367
#     4  10  23  41  64  92 130 163 208 266 315 364
#     4  10  20  40  58  82 122 166 198 262 316 354
#     4   9  21  39  64  92 124 162 208 253 316 377
#     4  11  23  42  60  92 129 166 205 266 315 372
#     4  11  21  42  65  94 123 167 210 256 313 386
#     4  12  22  36  64  92 120 168 214 248 314 382
#
# _framework density 24.374748
#
# number of rings (size 3 to 8) (size 9 to 14) (size 15 to 20)
#    0.000    1.714    1.429    3.429    0.000    1.143 
#    2.571    9.286    0.000    0.000    0.000    0.000 
#    0.000    0.000    0.000    0.000    0.000    0.000 
#
# Total GULP energy -155965.541401 kJ/mol
# GULP energy per Si atom -5570.197907 kJ/mol
# Density = 2.431927 g / cm^3
# Si number density = 24.374748 Si / 1000 Ang^3
#
#
#
# Elastic Constant Matrix: (Units=GPa)
#
#
# Indices 1 2 3 4 5 6 
#
# 1 68.1563 2.1076 20.5044 0.0000 3.6481 0.0000
# 2 2.1076 62.2328 13.4835 0.0000 0.0790 0.0000
# 3 20.5044 13.4835 63.9817 0.0000 8.7549 0.0000
# 4 0.0000 0.0000 0.0000 27.6637 0.0000 -2.5983
# 5 3.6481 0.0790 8.7549 0.0000 28.1058 0.0000
# 6 0.0000 0.0000 0.0000 -2.5983 0.0000 27.1820
#
#
#
# Elastic Compliance Matrix: (Units=1/GPa)
#
#
# Indices 1 2 3 4 5 6 
#
# 1 0.016265 0.000592 -0.005273 0.000000 -0.000470 0.000000
# 2 0.000592 0.016892 -0.003899 0.000000 0.001090 0.000000
# 3 -0.005273 -0.003899 0.018849 0.000000 -0.005176 0.000000
# 4 0.000000 0.000000 0.000000 0.036476 0.000000 0.003487
# 5 -0.000470 0.001090 -0.005176 0.000000 0.037250 0.000000
# 6 0.000000 0.000000 0.000000 0.003487 0.000000 0.037122
#
#
# Mechanical properties :
#
#
# Convention : Reuss Voigt Hill
#
# Bulk Modulus (GPa) = 28.69656 29.61797 29.15726
# Shear Modulus (GPa) = 26.09193 27.14198 26.61696
#
# Velocity S-wave (km/s) = 3.27532 3.34058 3.30811
# Velocity P-wave (km/s) = 5.10904 5.20161 5.15553
#
# Compressibility (1/GPa) = 0.03484738
#
# Stress axis : x y z
#
# Youngs Moduli (GPa) = 61.48024 59.19971 53.05255
#
# Poissons Ratio (x) = -0.03506 0.27975
# Poissons Ratio (y) = -0.03641 0.20684
# Poissons Ratio (z) = 0.32419 0.23081
#
# Static dielectric constant tensor:
#      x y z
#    x 1.563550 0.000000 0.328560 
#    y 0.000000 1.961830 0.000000 
#    z 0.328560 0.000000 1.764950 
# 
# From -- ./inp_files/171830.got.cif
#   From: 2010.05.17/outbox.cif.g08.bks.cpg/sg15_86_cif.got.tgz:171830.got - 2010.06.03 18:47:42.
