data_PCOD9276932
_publ_section_title
;
Structure prediction by ZEFSAII (Michael W. Deem and Ramdas Pophale) SiO2 
 PCOD9276932
Probable space group: C 2/C
;
_chemical_formula_sum "Si O2"
_cell_formula_units_Z 48
_cell_length_a 9.879327
_cell_length_b 21.901472
_cell_length_c 9.326038
_cell_angle_alpha 90.000000
_cell_angle_beta 93.575704
_cell_angle_gamma 90.000000
_cell_volume 2013.963362
_symmetry_space_group_name_H-M "C 2/C"
_symmetry_group_IT_number 15
_symmetry_cell_setting 'monoclinic'
loop_
_space_group_symop_operation_xyz
x,y,z
-x,y,1/2-z
-x,-y,-z
x,-y,1/2+z
1/2+x,1/2+y,z
1/2-x,1/2+y,1/2-z
1/2-x,1/2-y,-z
1/2+x,1/2-y,1/2+z
loop_
_atom_site_type_symbol
_atom_site_label
_atom_site_fract_x
_atom_site_fract_y
_atom_site_fract_z
Si Si1 0.371724 0.462609 0.548732
Si Si2 0.306368 0.682040 0.489827
Si Si3 0.500000 0.640092 0.250000
Si Si4 0.000000 0.433791 0.750000
Si Si5 0.705454 0.962985 0.264919
Si Si6 0.000000 0.640537 0.750000
Si Si7 0.500000 0.713731 0.750000
Si Si8 0.495731 0.171614 0.444587
O O1 0.500000 0.500000 0.500000
O O2 0.410619 0.405383 0.647649
O O3 0.294495 0.442047 0.402853
O O4 0.288480 0.509553 0.640169
O O5 0.250000 0.750000 0.500000
O O6 0.404886 0.674071 0.359788
O O7 0.393450 0.674505 0.645297
O O8 0.157766 0.653894 0.446324
O O9 0.111632 0.481171 0.814590
O O10 0.935558 0.388252 0.863550
O O11 0.617014 0.905961 0.212480
O O12 0.960269 0.677720 0.608128
O O13 0.548153 0.765638 0.636905
#
# Coordination Sequence:
#
# PCOD9276932 Si02
#       8
#     8   8   4   4   8   4   4   8
#     4  12  24  43  64  98 146 191 231 282 335 430
#     4  10  24  46  71  98 135 175 236 307 349 427
#     4  12  26  45  71 101 135 199 229 280 376 408
#     4  10  20  40  66  91 135 186 230 288 340 402
#     4  11  23  39  62  97 142 180 237 281 330 402
#     4  11  24  36  64 104 132 186 228 286 341 416
#     4   9  22  45  67  94 128 171 219 306 359 414
#     4  10  21  41  66  96 133 173 230 283 361 414
#
# _framework density 23.833601000000002
#
# number of rings (size 3 to 8) (size 9 to 14) (size 15 to 20)
#    0.000    1.333    1.667    3.000    2.333    9.333 
#    0.000    4.167    0.000    0.000    0.000    0.000 
#    0.000    0.000    0.000    0.000    0.000    0.000 
#
# Total GULP energy -133979.916033 kJ/mol
# GULP energy per Si atom -5582.496501 kJ/mol
# Density = 2.377935 g / cm^3
# Si number density = 23.833601 Si / 1000 Ang^3
#
#
#
# Elastic Constant Matrix: (Units=GPa)
#
#
# Indices 1 2 3 4 5 6 
#
# 1 81.9382 15.0844 23.8276 0.0000 -1.1609 0.0000
# 2 15.0844 52.6466 31.9704 0.0000 -2.0462 0.0000
# 3 23.8276 31.9704 139.0039 0.0000 -5.2390 0.0000
# 4 0.0000 0.0000 0.0000 42.2774 0.0000 -2.4831
# 5 -1.1609 -2.0462 -5.2390 0.0000 49.5268 0.0000
# 6 0.0000 0.0000 0.0000 -2.4831 0.0000 13.9096
#
#
#
# Elastic Compliance Matrix: (Units=1/GPa)
#
#
# Indices 1 2 3 4 5 6 
#
# 1 0.013190 -0.002796 -0.001617 0.000000 0.000023 0.000000
# 2 -0.002796 0.022678 -0.004723 0.000000 0.000372 0.000000
# 3 -0.001617 -0.004723 0.008583 0.000000 0.000675 0.000000
# 4 0.000000 0.000000 0.000000 0.023904 0.000000 0.004267
# 5 0.000023 0.000372 0.000675 0.000000 0.020278 0.000000
# 6 0.000000 0.000000 0.000000 0.004267 0.000000 0.072655
#
#
# Mechanical properties :
#
#
# Convention : Reuss Voigt Hill
#
# Bulk Modulus (GPa) = 38.19863 46.15037 42.17450
# Shear Modulus (GPa) = 26.55544 34.65649 30.60597
#
# Velocity S-wave (km/s) = 3.34159 3.81741 3.58739
# Velocity P-wave (km/s) = 5.56330 6.23183 5.90703
#
# Compressibility (1/GPa) = 0.02617895
#
# Stress axis : x y z
#
# Youngs Moduli (GPa) = 75.81710 44.09543 116.51193
#
# Poissons Ratio (x) = 0.12331 0.18839
# Poissons Ratio (y) = 0.21201 0.55023
# Poissons Ratio (z) = 0.12259 0.20824
#
# Static dielectric constant tensor:
#      x y z
#    x 2.485320 0.000000 0.251140 
#    y 0.000000 1.725630 0.000000 
#    z 0.251140 0.000000 2.184170 
# 
# From -- ./inp_files/31988.got.cif
#   From: 2010.05.17/outbox.cif.g08.bks.cpg/sg15_16_cif.got.tgz:31988.got - 2010.06.03 18:47:42.
