data_PCOD9276132
_publ_section_title
;
Structure prediction by ZEFSAII (Michael W. Deem and Ramdas Pophale) SiO2 
 PCOD9276132
Probable space group: C 2/C
;
_chemical_formula_sum "Si O2"
_cell_formula_units_Z 32
_cell_length_a 5.009886
_cell_length_b 13.524418
_cell_length_c 22.156624
_cell_angle_alpha 90.000000
_cell_angle_beta 74.668576
_cell_angle_gamma 90.000000
_cell_volume 1447.814329
_symmetry_space_group_name_H-M "C 2/C"
_symmetry_group_IT_number 15
_symmetry_cell_setting 'monoclinic'
loop_
_space_group_symop_operation_xyz
x,y,z
-x,y,1/2-z
-x,-y,-z
x,-y,1/2+z
1/2+x,1/2+y,z
1/2-x,1/2+y,1/2-z
1/2-x,1/2-y,-z
1/2+x,1/2-y,1/2+z
loop_
_atom_site_type_symbol
_atom_site_label
_atom_site_fract_x
_atom_site_fract_y
_atom_site_fract_z
Si Si1 0.489467 0.295505 0.678865
Si Si2 0.955124 0.382883 0.095677
Si Si3 0.966744 0.115360 0.985443
Si Si4 0.923235 0.387858 0.883177
O O1 0.500000 0.294210 0.750000
O O2 0.426812 0.188343 0.654323
O O3 0.254642 0.367621 0.666086
O O4 0.786074 0.332510 0.637370
O O5 0.222132 0.347482 0.041094
O O6 0.014447 0.496358 0.110381
O O7 0.690072 0.379517 0.068646
O O8 0.768185 0.153106 0.050576
O O9 0.000000 0.000000 0.000000
#
# Coordination Sequence:
#
# PCOD9276132 Si02
#       4
#     8   8   8   8
#     4  12  27  42  61  92 125 170 222 247 291 375
#     4  11  23  42  66  94 128 161 200 261 318 366
#     4  10  20  39  68  98 124 155 202 256 323 384
#     4  11  23  43  66  92 127 161 202 263 316 362
#
# _framework density 22.10228
#
# number of rings (size 3 to 8) (size 9 to 14) (size 15 to 20)
#    0.000    1.000    0.000    9.750    0.000    8.000 
#    0.000    0.000    0.000    0.000    0.000    0.000 
#    0.000    0.000    0.000    0.000    0.000    0.000 
#
# Total GULP energy -89608.421369 kJ/mol
# GULP energy per Si atom -5600.526336 kJ/mol
# Density = 2.205197 g / cm^3
# Si number density = 22.102280 Si / 1000 Ang^3
#
#
#
# Elastic Constant Matrix: (Units=GPa)
#
#
# Indices 1 2 3 4 5 6 
#
# 1 98.8475 7.9339 -14.1310 0.0000 10.8314 0.0000
# 2 7.9339 89.0363 33.6667 0.0000 8.5366 0.0000
# 3 -14.1310 33.6667 54.4838 0.0000 21.3555 0.0000
# 4 0.0000 0.0000 0.0000 24.6794 0.0000 4.1867
# 5 10.8314 8.5366 21.3555 0.0000 40.9652 0.0000
# 6 0.0000 0.0000 0.0000 4.1867 0.0000 11.0573
#
#
#
# Elastic Compliance Matrix: (Units=1/GPa)
#
#
# Indices 1 2 3 4 5 6 
#
# 1 0.012253 -0.003447 0.007913 0.000000 -0.006646 0.000000
# 2 -0.003447 0.015770 -0.012200 0.000000 0.003985 0.000000
# 3 0.007913 -0.012200 0.034900 0.000000 -0.017743 0.000000
# 4 0.000000 0.000000 0.000000 0.043301 0.000000 -0.016395
# 5 -0.006646 0.003985 -0.017743 0.000000 0.034588 0.000000
# 6 0.000000 0.000000 0.000000 -0.016395 0.000000 0.096646
#
#
# Mechanical properties :
#
#
# Convention : Reuss Voigt Hill
#
# Bulk Modulus (GPa) = 21.07315 33.03409 27.05362
# Shear Modulus (GPa) = 18.60514 29.66692 24.13603
#
# Velocity S-wave (km/s) = 2.90448 3.66766 3.30815
# Velocity P-wave (km/s) = 4.56104 5.73708 5.18253
#
# Compressibility (1/GPa) = 0.04745374
#
# Stress axis : x y z
#
# Youngs Moduli (GPa) = 81.61469 63.41299 28.65345
#
# Poissons Ratio (x) = 0.21856 -0.22673
# Poissons Ratio (y) = 0.28129 0.34958
# Poissons Ratio (z) = -0.64579 0.77366
#
# Static dielectric constant tensor:
#      x y z
#    x 1.784540 0.000000 -0.026330 
#    y 0.000000 1.831530 0.000000 
#    z -0.026330 0.000000 1.800280 
# 
# From -- ./inp_files/183873.got.cif
#   From: 2010.05.17/outbox.cif.g08.bks.cpg/sg15_92_cif.got.tgz:183873.got - 2010.06.03 18:47:42.
