data_PCOD9276760
_publ_section_title
;
Structure prediction by ZEFSAII (Michael W. Deem and Ramdas Pophale) SiO2 
 PCOD9276760
Probable space group: C 2/C
;
_chemical_formula_sum "Si O2"
_cell_formula_units_Z 60
_cell_length_a 13.597702
_cell_length_b 19.374764
_cell_length_c 13.427267
_cell_angle_alpha 90.000000
_cell_angle_beta 137.620946
_cell_angle_gamma 90.000000
_cell_volume 2384.351755
_symmetry_space_group_name_H-M "C 2/C"
_symmetry_group_IT_number 15
_symmetry_cell_setting 'monoclinic'
loop_
_space_group_symop_operation_xyz
x,y,z
-x,y,1/2-z
-x,-y,-z
x,-y,1/2+z
1/2+x,1/2+y,z
1/2-x,1/2+y,1/2-z
1/2-x,1/2-y,-z
1/2+x,1/2-y,1/2+z
loop_
_atom_site_type_symbol
_atom_site_label
_atom_site_fract_x
_atom_site_fract_y
_atom_site_fract_z
Si Si1 0.722619 0.897623 0.570857
Si Si2 0.604134 0.115218 0.707526
Si Si3 0.494538 0.738280 0.583884
Si Si4 0.324088 0.963342 0.758057
Si Si5 0.617548 0.118072 0.476135
Si Si6 0.500000 0.477304 0.750000
Si Si7 0.691321 0.260682 0.747902
Si Si8 0.605824 0.409838 0.447962
O O1 0.569548 0.886408 0.401429
O O2 0.682337 0.952508 0.628240
O O3 0.861093 0.930861 0.622766
O O4 0.778424 0.826064 0.660213
O O5 0.622242 0.117912 0.599705
O O6 0.673786 0.187794 0.792011
O O7 0.672126 0.040789 0.780501
O O8 0.408258 0.801445 0.569045
O O9 0.443611 0.732988 0.429512
O O10 0.664214 0.756121 0.711806
O O11 0.465743 0.664482 0.608545
O O12 0.473852 0.925141 0.840532
O O13 0.184965 0.923772 0.610926
O O14 0.760194 0.089348 0.530044
O O15 0.507271 0.530224 0.662966
#
# Coordination Sequence:
#
# PCOD9276760 Si02
#       8
#     8   8   8   8   8   4   8   8
#     4  11  22  47  64  94 132 173 224 272 335 391
#     4  10  22  40  72  93 127 178 224 270 325 404
#     4  11  22  39  65 101 135 176 214 266 332 405
#     4  11  21  40  69  91 129 177 226 268 322 403
#     4  10  20  40  64  96 137 174 208 263 340 401
#     4  12  30  42  64  92 138 178 214 290 336 384
#     4  11  21  42  70  97 124 176 228 270 324 394
#     4  12  25  39  59 103 139 167 219 271 337 400
#
# _framework density 25.164072000000001
#
# number of rings (size 3 to 8) (size 9 to 14) (size 15 to 20)
#    0.000    1.067    5.333    4.000    5.600    1.600 
#    2.400    0.667    2.933    0.000    0.000    0.000 
#    0.000    0.000    0.000    0.000    0.000    0.000 
#
# Total GULP energy -168075.495311 kJ/mol
# GULP energy per Si atom -5602.516510 kJ/mol
# Density = 2.510680 g / cm^3
# Si number density = 25.164072 Si / 1000 Ang^3
#
#
#
# Elastic Constant Matrix: (Units=GPa)
#
#
# Indices 1 2 3 4 5 6 
#
# 1 28.2625 12.3703 2.0002 0.0000 2.8733 0.0000
# 2 12.3703 187.8530 22.3946 0.0000 9.4868 0.0000
# 3 2.0002 22.3946 73.9018 0.0000 0.3157 0.0000
# 4 0.0000 0.0000 0.0000 28.8101 0.0000 10.3790
# 5 2.8733 9.4868 0.3157 0.0000 20.3381 0.0000
# 6 0.0000 0.0000 0.0000 10.3790 0.0000 37.5547
#
#
#
# Elastic Compliance Matrix: (Units=1/GPa)
#
#
# Indices 1 2 3 4 5 6 
#
# 1 0.036781 -0.002173 -0.000319 0.000000 -0.004178 0.000000
# 2 -0.002173 0.005787 -0.001685 0.000000 -0.002366 0.000000
# 3 -0.000319 -0.001685 0.014048 0.000000 0.000613 0.000000
# 4 0.000000 0.000000 0.000000 0.038548 0.000000 -0.010654
# 5 -0.004178 -0.002366 0.000613 0.000000 0.050853 0.000000
# 6 0.000000 0.000000 0.000000 -0.010654 0.000000 0.029572
#
#
# Mechanical properties :
#
#
# Convention : Reuss Voigt Hill
#
# Bulk Modulus (GPa) = 20.72022 40.39416 30.55719
# Shear Modulus (GPa) = 24.99626 34.22408 29.61017
#
# Velocity S-wave (km/s) = 3.15513 3.69187 3.43400
# Velocity P-wave (km/s) = 4.63951 5.85323 5.28136
#
# Compressibility (1/GPa) = 0.04826204
#
# Stress axis : x y z
#
# Youngs Moduli (GPa) = 27.18799 172.80917 71.18451
#
# Poissons Ratio (x) = 0.37552 0.02272
# Poissons Ratio (y) = 0.05908 0.11992
# Poissons Ratio (z) = 0.00868 0.29112
#
# Static dielectric constant tensor:
#      x y z
#    x 2.005070 0.000000 -0.072890 
#    y 0.000000 1.961770 0.000000 
#    z -0.072890 0.000000 1.979430 
# 
# From -- ./inp_files/211763.got.cif
#   From: 2010.05.17/outbox.cif.g08.bks.cpg/sg15_106_cif.got.tgz:211763.got - 2010.06.03 18:47:42.
