data_PCOD9276896
_publ_section_title
;
Structure prediction by ZEFSAII (Michael W. Deem and Ramdas Pophale) SiO2 
 PCOD9276896
Probable space group: C 2/C
;
_chemical_formula_sum "Si O2"
_cell_formula_units_Z 56
_cell_length_a 11.184885
_cell_length_b 8.194877
_cell_length_c 26.891947
_cell_angle_alpha 90.000000
_cell_angle_beta 75.441204
_cell_angle_gamma 90.000000
_cell_volume 2385.735536
_symmetry_space_group_name_H-M "C 2/C"
_symmetry_group_IT_number 15
_symmetry_cell_setting 'monoclinic'
loop_
_space_group_symop_operation_xyz
x,y,z
-x,y,1/2-z
-x,-y,-z
x,-y,1/2+z
1/2+x,1/2+y,z
1/2-x,1/2+y,1/2-z
1/2-x,1/2-y,-z
1/2+x,1/2-y,1/2+z
loop_
_atom_site_type_symbol
_atom_site_label
_atom_site_fract_x
_atom_site_fract_y
_atom_site_fract_z
Si Si1 0.592246 0.543547 0.056848
Si Si2 0.954793 0.750534 0.306956
Si Si3 0.815851 0.673687 0.679242
Si Si4 0.975025 0.738792 0.493469
Si Si5 0.622375 0.897684 0.218524
Si Si6 0.850595 0.511778 0.079531
Si Si7 0.631331 0.541162 0.851163
O O1 0.604499 0.385615 0.020570
O O2 0.707014 0.557119 0.082798
O O3 0.453876 0.518669 0.094305
O O4 0.576546 0.696730 0.022331
O O5 0.819499 0.815113 0.330198
O O6 0.940043 0.558268 0.299180
O O7 0.000000 0.820254 0.250000
O O8 0.048056 0.819632 0.336033
O O9 0.810592 0.593580 0.734515
O O10 0.881148 0.566765 0.630146
O O11 0.854363 0.865031 0.678564
O O12 0.054084 0.656771 0.441471
O O13 0.888412 0.616944 0.532753
O O14 0.500000 0.797402 0.250000
O O15 0.732434 0.874185 0.166992
#
# Coordination Sequence:
#
# PCOD9276896 Si02
#       7
#     8   8   8   8   8   8   8
#     4  11  22  43  68  98 130 174 223 267 330 391
#     4  10  20  40  66  88 128 173 209 267 321 382
#     4  11  22  41  64  99 132 170 224 267 327 396
#     4  10  24  42  65  98 133 171 220 273 327 396
#     4  10  24  43  61  96 135 170 217 266 319 398
#     4  11  22  43  67  94 134 173 214 278 330 382
#     4  11  22  41  69  96 132 174 215 269 330 387
#
# _framework density 23.472843000000001
#
# number of rings (size 3 to 8) (size 9 to 14) (size 15 to 20)
#    0.000    1.429    4.286    0.857    0.000    2.857 
#    2.571    1.429    0.000    0.000    0.000    0.000 
#    0.000    0.000    0.000    0.000    0.000    0.000 
#
# Total GULP energy -155879.241448 kJ/mol
# GULP energy per Si atom -5567.115766 kJ/mol
# Density = 2.341942 g / cm^3
# Si number density = 23.472843 Si / 1000 Ang^3
#
#
#
# Elastic Constant Matrix: (Units=GPa)
#
#
# Indices 1 2 3 4 5 6 
#
# 1 96.6013 27.2477 10.2264 0.0000 -11.2753 0.0000
# 2 27.2477 68.5381 18.7961 0.0000 5.7621 0.0000
# 3 10.2264 18.7961 80.4552 0.0000 -11.7788 0.0000
# 4 0.0000 0.0000 0.0000 73.2376 0.0000 86.2500
# 5 -11.2753 5.7621 -11.7788 0.0000 32.0144 0.0000
# 6 0.0000 0.0000 0.0000 86.2500 0.0000 187.8707
#
#
#
# Elastic Compliance Matrix: (Units=1/GPa)
#
#
# Indices 1 2 3 4 5 6 
#
# 1 0.012531 -0.005602 0.000539 0.000000 0.005620 0.000000
# 2 -0.005602 0.018698 -0.004690 0.000000 -0.007064 0.000000
# 3 0.000539 -0.004690 0.014383 0.000000 0.006326 0.000000
# 4 0.000000 0.000000 0.000000 0.029726 0.000000 -0.013647
# 5 0.005620 -0.007064 0.006326 0.000000 0.036814 0.000000
# 6 0.000000 0.000000 0.000000 -0.013647 0.000000 0.011588
#
#
# Mechanical properties :
#
#
# Convention : Reuss Voigt Hill
#
# Bulk Modulus (GPa) = 38.30811 39.79277 39.05044
# Shear Modulus (GPa) = 32.90620 71.24615 52.07618
#
# Velocity S-wave (km/s) = 3.74824 5.51530 4.71528
# Velocity P-wave (km/s) = 5.92351 7.58600 6.80571
#
# Compressibility (1/GPa) = 0.02610414
#
# Stress axis : x y z
#
# Youngs Moduli (GPa) = 79.80324 53.48269 69.52821
#
# Poissons Ratio (x) = 0.29960 -0.03746
# Poissons Ratio (y) = 0.44705 0.32611
# Poissons Ratio (z) = -0.04299 0.25085
#
# Static dielectric constant tensor:
#      x y z
#    x 1.941360 0.000000 -0.163320 
#    y 0.000000 1.929880 0.000000 
#    z -0.163320 0.000000 1.701000 
# 
# From -- ./inp_files/291498.got.cif
#   From: 2010.05.17/outbox.cif.g08.bks.cpg/sg15_146_cif.got.tgz:291498.got - 2010.06.03 18:47:42.
