data_PCOD9276654
_publ_section_title
;
Structure prediction by ZEFSAII (Michael W. Deem and Ramdas Pophale) SiO2 
 PCOD9276654
Probable space group: C 2/C
;
_chemical_formula_sum "Si O2"
_cell_formula_units_Z 44
_cell_length_a 9.771609
_cell_length_b 19.736057
_cell_length_c 13.647875
_cell_angle_alpha 90.000000
_cell_angle_beta 131.910856
_cell_angle_gamma 90.000000
_cell_volume 1958.720271
_symmetry_space_group_name_H-M "C 2/C"
_symmetry_group_IT_number 15
_symmetry_cell_setting 'monoclinic'
loop_
_space_group_symop_operation_xyz
x,y,z
-x,y,1/2-z
-x,-y,-z
x,-y,1/2+z
1/2+x,1/2+y,z
1/2-x,1/2+y,1/2-z
1/2-x,1/2-y,-z
1/2+x,1/2-y,1/2+z
loop_
_atom_site_type_symbol
_atom_site_label
_atom_site_fract_x
_atom_site_fract_y
_atom_site_fract_z
Si Si1 0.146390 0.101815 0.606047
Si Si2 0.500000 0.197030 0.750000
Si Si3 0.217429 0.068336 0.837533
Si Si4 0.455866 0.275741 0.112897
Si Si5 0.330993 0.434187 0.595201
Si Si6 0.529159 0.181044 0.979241
O O1 0.320454 0.150286 0.670134
O O2 0.219338 0.050343 0.723293
O O3 0.096652 0.068301 0.480723
O O4 0.993959 0.151252 0.581003
O O5 0.510807 0.224812 0.868378
O O6 0.345023 0.134761 0.906835
O O7 0.000000 0.079390 0.750000
O O8 0.269319 0.005474 0.929992
O O9 0.500000 0.271896 0.250000
O O10 0.250000 0.250000 0.000000
O O11 0.566786 0.225439 0.093224
O O12 0.500000 0.428480 0.750000
O O13 0.191392 0.372803 0.544362
#
# Coordination Sequence:
#
# PCOD9276654 Si02
#       6
#     8   4   8   8   8   8
#     4  10  21  41  62  90 127 166 215 255 326 390
#     4   8  18  38  64  88 122 170 204 254 320 378
#     4  10  20  40  64  87 125 169 210 258 323 389
#     4  12  26  43  65  93 131 175 215 268 328 394
#     4  10  23  38  61  95 125 166 211 269 319 371
#     4  10  21  41  62  95 127 164 218 262 321 383
#
# _framework density 22.463647000000002
#
# number of rings (size 3 to 8) (size 9 to 14) (size 15 to 20)
#    0.000    1.818    0.000    4.364    2.545    5.818 
#    6.545    0.000    0.000    0.000    0.000    0.000 
#    0.000    0.000    0.000    0.000    0.000    0.000 
#
# Total GULP energy -122680.013125 kJ/mol
# GULP energy per Si atom -5576.364233 kJ/mol
# Density = 2.241252 g / cm^3
# Si number density = 22.463647 Si / 1000 Ang^3
#
#
#
# Elastic Constant Matrix: (Units=GPa)
#
#
# Indices 1 2 3 4 5 6 
#
# 1 87.5176 32.4351 44.9414 0.0001 -23.1844 0.0001
# 2 32.4351 87.4856 49.1314 0.0000 -34.0539 0.0000
# 3 44.9414 49.1314 151.1534 0.0001 -51.2450 0.0001
# 4 0.0001 0.0000 0.0001 22.7952 0.0001 -7.3445
# 5 -23.1844 -34.0539 -51.2450 0.0001 64.9409 0.0001
# 6 0.0001 0.0000 0.0001 -7.3445 0.0001 -20.7778
#
#
#
# Elastic Compliance Matrix: (Units=1/GPa)
#
#
# Indices 1 2 3 4 5 6 
#
# 1 0.014407 -0.003299 -0.002804 0.000000 0.001201 0.000000
# 2 -0.003299 0.016104 -0.002444 0.000000 0.005339 0.000000
# 3 -0.002804 -0.002444 0.010198 0.000000 0.005765 0.000000
# 4 0.000000 0.000000 0.000000 0.039384 0.000000 -0.013921
# 5 0.001201 0.005339 0.005765 0.000000 0.023176 0.000000
# 6 0.000000 0.000000 0.000000 -0.013921 0.000000 -0.043207
#
#
# Mechanical properties :
#
#
# Convention : Reuss Voigt Hill
#
# Bulk Modulus (GPa) = 42.34543 64.35250 53.34896
# Shear Modulus (GPa) = 58.80476 26.70156 42.75316
#
# Velocity S-wave (km/s) = 5.12197 3.45143 4.36732
# Velocity P-wave (km/s) = 7.33969 6.67778 7.01654
#
# Compressibility (1/GPa) = 0.02361530
#
# Stress axis : x y z
#
# Youngs Moduli (GPa) = 69.41061 62.09627 98.05559
#
# Poissons Ratio (x) = 0.20487 0.27496
# Poissons Ratio (y) = 0.22900 0.23961
# Poissons Ratio (z) = 0.19463 0.15174
#
# Static dielectric constant tensor:
#      x y z
#    x 1.923530 0.000000 -0.053450 
#    y 0.000000 1.902330 0.000000 
#    z -0.053450 0.000000 1.878990 
# 
# From -- ./inp_files/79959.got.cif
#   From: 2010.05.17/outbox.cif.g08.bks.cpg/sg15_40_cif.got.tgz:79959.got - 2010.06.03 18:47:42.
