data_PCOD9276128
_publ_section_title
;
Structure prediction by ZEFSAII (Michael W. Deem and Ramdas Pophale) SiO2 
 PCOD9276128
Probable space group: C 2/C
;
_chemical_formula_sum "Si O2"
_cell_formula_units_Z 44
_cell_length_a 9.128090
_cell_length_b 12.433263
_cell_length_c 30.145605
_cell_angle_alpha 90.000000
_cell_angle_beta 42.842588
_cell_angle_gamma 90.000000
_cell_volume 2326.426454
_symmetry_space_group_name_H-M "C 2/C"
_symmetry_group_IT_number 15
_symmetry_cell_setting 'monoclinic'
loop_
_space_group_symop_operation_xyz
x,y,z
-x,y,1/2-z
-x,-y,-z
x,-y,1/2+z
1/2+x,1/2+y,z
1/2-x,1/2+y,1/2-z
1/2-x,1/2-y,-z
1/2+x,1/2-y,1/2+z
loop_
_atom_site_type_symbol
_atom_site_label
_atom_site_fract_x
_atom_site_fract_y
_atom_site_fract_z
Si Si1 0.431646 0.614764 0.151537
Si Si2 0.279302 0.053747 0.564760
Si Si3 0.501989 0.723192 0.043871
Si Si4 0.586477 0.780449 0.183673
Si Si5 0.542075 0.675166 0.545674
Si Si6 0.000000 0.511517 0.750000
O O1 0.631601 0.536476 0.121135
O O2 0.425988 0.649899 0.101345
O O3 0.460434 0.723676 0.172645
O O4 0.210453 0.556811 0.211721
O O5 0.355629 0.167159 0.570382
O O6 0.124958 0.077534 0.556889
O O7 0.500000 0.000000 0.500000
O O8 0.507227 0.662754 0.995243
O O9 0.750000 0.750000 0.000000
O O10 0.500000 0.735007 0.250000
O O11 0.542566 0.907237 0.199623
O O12 0.838824 0.772389 0.115996
O O13 0.750000 0.750000 0.500000
#
# Coordination Sequence:
#
# PCOD9276128 Si02
#       6
#     8   8   8   8   8   4
#     4  12  23  44  67  96 134 175 224 281 329 402
#     4  11  21  39  64  99 135 169 217 273 341 401
#     4  11  22  39  67 103 133 165 223 283 339 399
#     4  10  22  45  64  90 138 176 224 272 329 407
#     4  10  20  39  68  97 134 174 212 283 338 385
#     4  10  26  44  64  90 134 182 224 270 332 404
#
# _framework density 18.913128
#
# number of rings (size 3 to 8) (size 9 to 14) (size 15 to 20)
#    0.545    0.727    5.455    1.091    0.000    5.091 
#    6.545    0.000    0.000    0.000    0.000    0.000 
#    0.000    0.000    0.000    0.000    0.000    0.000 
#
# Total GULP energy -122479.363776 kJ/mol
# GULP energy per Si atom -5567.243808 kJ/mol
# Density = 1.887008 g / cm^3
# Si number density = 18.913128 Si / 1000 Ang^3
#
#
#
# Elastic Constant Matrix: (Units=GPa)
#
#
# Indices 1 2 3 4 5 6 
#
# 1 113.1500 33.8798 42.8986 0.0001 -3.9121 -0.0001
# 2 33.8798 72.0705 25.3932 0.0001 -17.4887 -0.0001
# 3 42.8986 25.3932 121.0806 -0.0001 -20.2651 -0.0001
# 4 0.0001 0.0001 -0.0001 34.7247 -0.0001 -4.2968
# 5 -3.9121 -17.4887 -20.2651 -0.0001 41.3051 0.0001
# 6 -0.0001 -0.0001 -0.0001 -4.2968 0.0001 46.3404
#
#
#
# Elastic Compliance Matrix: (Units=1/GPa)
#
#
# Indices 1 2 3 4 5 6 
#
# 1 0.011525 -0.004828 -0.003519 0.000000 -0.002679 0.000000
# 2 -0.004828 0.018120 -0.000961 0.000000 0.006743 0.000000
# 3 -0.003519 -0.000961 0.010441 0.000000 0.004382 0.000000
# 4 0.000000 0.000000 0.000000 0.029132 0.000000 0.002701
# 5 -0.002679 0.006743 0.004382 0.000000 0.028961 0.000000
# 6 0.000000 0.000000 0.000000 0.002701 0.000000 0.021830
#
#
# Mechanical properties :
#
#
# Convention : Reuss Voigt Hill
#
# Bulk Modulus (GPa) = 46.57805 56.73825 51.65815
# Shear Modulus (GPa) = 34.29778 38.08265 36.19021
#
# Velocity S-wave (km/s) = 4.26307 4.49214 4.37910
# Velocity P-wave (km/s) = 6.99375 7.54786 7.27608
#
# Compressibility (1/GPa) = 0.02146934
#
# Stress axis : x y z
#
# Youngs Moduli (GPa) = 86.76752 55.18815 95.77829
#
# Poissons Ratio (x) = 0.26645 0.33706
# Poissons Ratio (y) = 0.41892 0.09204
# Poissons Ratio (z) = 0.30535 0.05303
#
# Static dielectric constant tensor:
#      x y z
#    x 1.609580 0.000010 -0.061230 
#    y 0.000010 0.698060 0.000030 
#    z -0.061230 0.000030 1.517590 
# 
# From -- ./inp_files/263607.got.cif
#   From: 2010.05.17/outbox.cif.g08.bks.cpg/sg15_132_cif.got.tgz:263607.got - 2010.06.03 18:47:42.
