data_PCOD9276812
_publ_section_title
;
Structure prediction by ZEFSAII (Michael W. Deem and Ramdas Pophale) SiO2 
 PCOD9276812
Probable space group: C 2/C
;
_chemical_formula_sum "Si O2"
_cell_formula_units_Z 52
_cell_length_a 17.400217
_cell_length_b 14.242764
_cell_length_c 15.548690
_cell_angle_alpha 90.000000
_cell_angle_beta 40.037742
_cell_angle_gamma 90.000000
_cell_volume 2478.854024
_symmetry_space_group_name_H-M "C 2/C"
_symmetry_group_IT_number 15
_symmetry_cell_setting 'monoclinic'
loop_
_space_group_symop_operation_xyz
x,y,z
-x,y,1/2-z
-x,-y,-z
x,-y,1/2+z
1/2+x,1/2+y,z
1/2-x,1/2+y,1/2-z
1/2-x,1/2-y,-z
1/2+x,1/2-y,1/2+z
loop_
_atom_site_type_symbol
_atom_site_label
_atom_site_fract_x
_atom_site_fract_y
_atom_site_fract_z
Si Si1 0.524124 0.779142 0.412063
Si Si2 0.204994 0.480339 0.135764
Si Si3 0.762929 0.206231 0.810334
Si Si4 0.587678 0.106011 0.357444
Si Si5 0.000000 0.341022 0.250000
Si Si6 0.911982 0.087124 0.567019
Si Si7 0.613577 0.145292 0.095899
O O1 0.660403 0.790081 0.325067
O O2 0.451540 0.867376 0.513860
O O3 0.494341 0.777935 0.338561
O O4 0.483368 0.682501 0.488775
O O5 0.164569 0.517594 0.264989
O O6 0.113356 0.407248 0.172717
O O7 0.329530 0.434054 0.054202
O O8 0.189407 0.572713 0.088820
O O9 0.841278 0.300376 0.734083
O O10 0.840159 0.115403 0.716085
O O11 0.701213 0.203614 0.957657
O O12 0.466607 0.092168 0.406747
O O13 0.000000 0.000000 0.500000
O O14 0.500000 0.187285 0.250000
#
# Coordination Sequence:
#
# PCOD9276812 Si02
#       7
#     8   8   8   8   4   8   8
#     4  10  23  41  63  93 127 174 222 263 332 395
#     4  11  21  39  62  96 131 162 217 280 316 391
#     4  10  20  40  65  90 128 176 215 271 332 389
#     4   9  19  37  63  90 124 169 218 262 325 393
#     4  12  22  40  64  92 130 162 222 274 334 380
#     4  11  24  44  65  91 130 176 225 268 323 401
#     4   9  19  36  59  94 125 162 214 272 325 387
#
# _framework density 20.977435
#
# number of rings (size 3 to 8) (size 9 to 14) (size 15 to 20)
#    0.000    1.846    3.846    0.923    0.000    4.923 
#    2.769    3.077    0.000    0.000    0.000    0.000 
#    0.000    0.000    0.000    0.000    0.000    0.000 
#
# Total GULP energy -144809.943187 kJ/mol
# GULP energy per Si atom -5569.613200 kJ/mol
# Density = 2.092969 g / cm^3
# Si number density = 20.977435 Si / 1000 Ang^3
#
#
#
# Elastic Constant Matrix: (Units=GPa)
#
#
# Indices 1 2 3 4 5 6 
#
# 1 74.3490 23.2692 31.4049 0.0000 -2.4021 0.0000
# 2 23.2692 68.2282 28.8799 0.0000 -6.6584 0.0000
# 3 31.4049 28.8799 84.6548 0.0000 11.7401 0.0000
# 4 0.0000 0.0000 0.0000 23.0516 0.0000 8.1935
# 5 -2.4021 -6.6584 11.7401 0.0000 35.8437 0.0000
# 6 0.0000 0.0000 0.0000 8.1935 0.0000 27.4653
#
#
#
# Elastic Compliance Matrix: (Units=1/GPa)
#
#
# Indices 1 2 3 4 5 6 
#
# 1 0.016841 -0.003196 -0.005480 0.000000 0.002330 0.000000
# 2 -0.003196 0.018771 -0.005942 0.000000 0.005219 0.000000
# 3 -0.005480 -0.005942 0.016842 0.000000 -0.006987 0.000000
# 4 0.000000 0.000000 0.000000 0.048527 0.000000 -0.014477
# 5 0.002330 0.005219 -0.006987 0.000000 0.031313 0.000000
# 6 0.000000 0.000000 0.000000 -0.014477 0.000000 0.040728
#
#
# Mechanical properties :
#
#
# Convention : Reuss Voigt Hill
#
# Bulk Modulus (GPa) = 43.07208 43.81554 43.44381
# Shear Modulus (GPa) = 23.80991 26.85067 25.33029
#
# Velocity S-wave (km/s) = 3.37267 3.58156 3.47868
# Velocity P-wave (km/s) = 5.97860 6.16731 6.07369
#
# Compressibility (1/GPa) = 0.02321690
#
# Stress axis : x y z
#
# Youngs Moduli (GPa) = 59.38063 53.27312 59.37661
#
# Poissons Ratio (x) = 0.17029 0.32539
# Poissons Ratio (y) = 0.18981 0.35280
# Poissons Ratio (z) = 0.32541 0.31653
#
# Static dielectric constant tensor:
#      x y z
#    x 1.768620 0.000000 -0.047850 
#    y 0.000000 1.756080 0.000000 
#    z -0.047850 0.000000 1.979130 
# 
# From -- ./inp_files/162491.got.cif
#   From: 2010.05.17/outbox.cif.g08.bks.cpg/sg15_82_cif.got.tgz:162491.got - 2010.06.03 18:47:42.
