data_PCOD9276224
_publ_section_title
;
Structure prediction by ZEFSAII (Michael W. Deem and Ramdas Pophale) SiO2 
 PCOD9276224
Probable space group: C 2/C
;
_chemical_formula_sum "Si O2"
_cell_formula_units_Z 44
_cell_length_a 9.773192
_cell_length_b 11.583409
_cell_length_c 17.018348
_cell_angle_alpha 90.000000
_cell_angle_beta 52.037911
_cell_angle_gamma 90.000000
_cell_volume 1518.961351
_symmetry_space_group_name_H-M "C 2/C"
_symmetry_group_IT_number 15
_symmetry_cell_setting 'monoclinic'
loop_
_space_group_symop_operation_xyz
x,y,z
-x,y,1/2-z
-x,-y,-z
x,-y,1/2+z
1/2+x,1/2+y,z
1/2-x,1/2+y,1/2-z
1/2-x,1/2-y,-z
1/2+x,1/2-y,1/2+z
loop_
_atom_site_type_symbol
_atom_site_label
_atom_site_fract_x
_atom_site_fract_y
_atom_site_fract_z
Si Si1 0.317561 0.325261 0.905832
Si Si2 0.950673 0.281988 0.641145
Si Si3 0.844687 0.034587 0.670180
Si Si4 0.500000 0.160514 0.750000
Si Si5 0.736038 0.314595 0.877193
Si Si6 0.809321 0.545096 0.595659
O O1 0.178374 0.311560 0.883796
O O2 0.489376 0.253746 0.823357
O O3 0.321676 0.462998 0.907923
O O4 0.250000 0.250000 0.000000
O O5 0.848577 0.302081 0.758116
O O6 0.132903 0.342668 0.596962
O O7 0.972175 0.144354 0.624592
O O8 0.886685 0.920328 0.604339
O O9 0.668480 0.082716 0.690126
O O10 0.769181 0.024120 0.787179
O O11 0.675033 0.184001 0.915361
O O12 0.000000 0.500000 0.500000
#
# Coordination Sequence:
#
# PCOD9276224 Si02
#       6
#     8   8   8   4   8   8
#     4  11  23  43  68 103 146 186 239 299 365 447
#     4   9  20  39  68 101 129 179 243 297 353 432
#     4  10  20  39  73  99 131 184 245 292 367 434
#     4  10  22  40  74  98 134 194 238 296 368 438
#     4  10  20  42  72  97 136 184 241 302 353 435
#     4  11  24  43  67 101 146 187 236 304 373 434
#
# _framework density 28.967161000000001
#
# number of rings (size 3 to 8) (size 9 to 14) (size 15 to 20)
#    0.000    1.818    1.818    2.182    0.000    2.909 
#    3.273    1.818    8.000    0.000    0.000    0.000 
#    0.000    0.000    0.000    0.000    0.000    0.000 
#
# Total GULP energy -122995.672233 kJ/mol
# GULP energy per Si atom -5590.712374 kJ/mol
# Density = 2.890123 g / cm^3
# Si number density = 28.967161 Si / 1000 Ang^3
#
#
#
# Elastic Constant Matrix: (Units=GPa)
#
#
# Indices 1 2 3 4 5 6 
#
# 1 139.5073 39.2476 1.6234 0.0000 39.4426 0.0000
# 2 39.2476 199.0574 -1.8766 0.0000 14.8275 0.0000
# 3 1.6234 -1.8766 81.7062 0.0000 11.3314 0.0000
# 4 0.0000 0.0000 0.0000 31.9946 0.0000 -6.7013
# 5 39.4426 14.8275 11.3314 0.0000 26.2837 0.0000
# 6 0.0000 0.0000 0.0000 -6.7013 0.0000 60.7563
#
#
#
# Elastic Compliance Matrix: (Units=1/GPa)
#
#
# Indices 1 2 3 4 5 6 
#
# 1 0.013158 -0.001064 0.002520 0.000000 -0.020232 0.000000
# 2 -0.001064 0.005355 0.000363 0.000000 -0.001581 0.000000
# 3 0.002520 0.000363 0.013561 0.000000 -0.009833 0.000000
# 4 0.000000 0.000000 0.000000 0.031994 0.000000 0.003529
# 5 -0.020232 -0.001581 -0.009833 0.000000 0.073539 0.000000
# 6 0.000000 0.000000 0.000000 0.003529 0.000000 0.016848
#
#
# Mechanical properties :
#
#
# Convention : Reuss Voigt Hill
#
# Bulk Modulus (GPa) = 28.00054 55.36222 41.68138
# Shear Modulus (GPa) = 30.72754 49.22536 39.97645
#
# Velocity S-wave (km/s) = 3.26048 4.12679 3.71895
# Velocity P-wave (km/s) = 4.88484 6.46999 5.73247
#
# Compressibility (1/GPa) = 0.03571359
#
# Stress axis : x y z
#
# Youngs Moduli (GPa) = 75.99824 186.75560 73.74115
#
# Poissons Ratio (x) = 0.19862 -0.18583
# Poissons Ratio (y) = 0.08083 -0.02680
# Poissons Ratio (z) = -0.19152 -0.06787
#
# Static dielectric constant tensor:
#      x y z
#    x 1.956370 0.000000 -0.106140 
#    y 0.000000 2.406230 0.000000 
#    z -0.106140 0.000000 2.491530 
# 
# From -- ./inp_files/196453.got.cif
#   From: 2010.05.17/outbox.cif.g08.bks.cpg/sg15_99_cif.got.tgz:196453.got - 2010.06.03 18:47:42.
