data_PCOD9276492
_publ_section_title
;
Structure prediction by ZEFSAII (Michael W. Deem and Ramdas Pophale) SiO2 
 PCOD9276492
Probable space group: C 2/C
;
_chemical_formula_sum "Si O2"
_cell_formula_units_Z 56
_cell_length_a 15.721337
_cell_length_b 17.927670
_cell_length_c 12.296020
_cell_angle_alpha 90.000000
_cell_angle_beta 59.227673
_cell_angle_gamma 90.000000
_cell_volume 2977.664393
_symmetry_space_group_name_H-M "C 2/C"
_symmetry_group_IT_number 15
_symmetry_cell_setting 'monoclinic'
loop_
_space_group_symop_operation_xyz
x,y,z
-x,y,1/2-z
-x,-y,-z
x,-y,1/2+z
1/2+x,1/2+y,z
1/2-x,1/2+y,1/2-z
1/2-x,1/2-y,-z
1/2+x,1/2-y,1/2+z
loop_
_atom_site_type_symbol
_atom_site_label
_atom_site_fract_x
_atom_site_fract_y
_atom_site_fract_z
Si Si1 0.084245 0.325040 0.554971
Si Si2 0.602386 0.992299 0.497147
Si Si3 0.255072 0.461855 0.719114
Si Si4 0.855712 0.305717 0.752773
Si Si5 0.319707 0.779911 0.235311
Si Si6 0.610956 0.375138 0.716550
Si Si7 0.223156 0.587870 0.570728
O O1 0.098162 0.413675 0.560327
O O2 0.137517 0.287486 0.623367
O O3 0.126796 0.303803 0.410662
O O4 0.967835 0.308301 0.637576
O O5 0.500000 0.000000 0.500000
O O6 0.690607 0.994668 0.351738
O O7 0.629353 0.058080 0.562765
O O8 0.193985 0.386977 0.730102
O O9 0.354613 0.431743 0.710546
O O10 0.263775 0.517293 0.612551
O O11 0.788749 0.248931 0.729411
O O12 0.376194 0.709129 0.248963
O O13 0.309041 0.846678 0.327448
O O14 0.500000 0.388804 0.750000
O O15 0.691988 0.385760 0.567924
#
# Coordination Sequence:
#
# PCOD9276492 Si02
#       7
#     8   8   8   8   8   8   8
#     4  11  21  37  64  91 126 170 207 258 318 374
#     4  11  21  35  60  97 127 153 200 255 324 379
#     4  10  20  40  62  91 123 162 201 265 310 370
#     4  10  22  39  61  93 131 163 210 259 312 378
#     4  11  24  41  63  90 131 169 213 257 313 378
#     4  10  25  43  61  88 126 168 212 260 308 369
#     4  11  23  40  67  92 124 166 209 265 318 375
#
# _framework density 18.806685999999999
#
# number of rings (size 3 to 8) (size 9 to 14) (size 15 to 20)
#    0.000    1.429    4.286    0.857    2.000    2.286 
#    0.000    0.000    3.143    0.000    0.000    0.000 
#    0.000    0.000    0.000    0.000    0.000    0.000 
#
# Total GULP energy -156406.792283 kJ/mol
# GULP energy per Si atom -5585.956867 kJ/mol
# Density = 1.876388 g / cm^3
# Si number density = 18.806686 Si / 1000 Ang^3
#
#
#
# Elastic Constant Matrix: (Units=GPa)
#
#
# Indices 1 2 3 4 5 6 
#
# 1 151.9306 43.0483 28.8237 0.0000 4.4246 0.0000
# 2 43.0483 73.1762 25.9302 0.0000 6.3139 0.0000
# 3 28.8237 25.9302 73.2907 0.0000 9.5283 0.0000
# 4 0.0000 0.0000 0.0000 29.6539 0.0000 13.5711
# 5 4.4246 6.3139 9.5283 0.0000 25.8677 0.0000
# 6 0.0000 0.0000 0.0000 13.5711 0.0000 23.6899
#
#
#
# Elastic Compliance Matrix: (Units=1/GPa)
#
#
# Indices 1 2 3 4 5 6 
#
# 1 0.008084 -0.004162 -0.001742 0.000000 0.000275 0.000000
# 2 -0.004162 0.017853 -0.004417 0.000000 -0.002019 0.000000
# 3 -0.001742 -0.004417 0.016504 0.000000 -0.004703 0.000000
# 4 0.000000 0.000000 0.000000 0.045705 0.000000 -0.026183
# 5 0.000275 -0.002019 -0.004703 0.000000 0.040836 0.000000
# 6 0.000000 0.000000 0.000000 -0.026183 0.000000 0.057211
#
#
# Mechanical properties :
#
#
# Convention : Reuss Voigt Hill
#
# Bulk Modulus (GPa) = 45.87618 54.88912 50.38265
# Shear Modulus (GPa) = 23.35333 29.21531 26.28432
#
# Velocity S-wave (km/s) = 3.52768 3.94566 3.74251
# Velocity P-wave (km/s) = 6.40618 7.07156 6.74708
#
# Compressibility (1/GPa) = 0.02179781
#
# Stress axis : x y z
#
# Youngs Moduli (GPa) = 123.70516 56.01161 60.59193
#
# Poissons Ratio (x) = 0.23311 0.10558
# Poissons Ratio (y) = 0.51484 0.26765
# Poissons Ratio (z) = 0.21555 0.24742
#
# Static dielectric constant tensor:
#      x y z
#    x 1.648200 0.000000 0.031190 
#    y 0.000000 1.641190 0.000000 
#    z 0.031190 0.000000 1.644620 
# 
# From -- ./inp_files/98385.got.cif
#   From: 2010.05.17/outbox.cif.g08.bks.cpg/sg15_50_cif.got.tgz:98385.got - 2010.06.03 18:47:42.
