data_PCOD9276240
_publ_section_title
;
Structure prediction by ZEFSAII (Michael W. Deem and Ramdas Pophale) SiO2 
 PCOD9276240
Probable space group: C 2/C
;
_chemical_formula_sum "Si O2"
_cell_formula_units_Z 56
_cell_length_a 5.926673
_cell_length_b 30.048221
_cell_length_c 12.305808
_cell_angle_alpha 90.000000
_cell_angle_beta 95.430967
_cell_angle_gamma 90.000000
_cell_volume 2181.654175
_symmetry_space_group_name_H-M "C 2/C"
_symmetry_group_IT_number 15
_symmetry_cell_setting 'monoclinic'
loop_
_space_group_symop_operation_xyz
x,y,z
-x,y,1/2-z
-x,-y,-z
x,-y,1/2+z
1/2+x,1/2+y,z
1/2-x,1/2+y,1/2-z
1/2-x,1/2-y,-z
1/2+x,1/2-y,1/2+z
loop_
_atom_site_type_symbol
_atom_site_label
_atom_site_fract_x
_atom_site_fract_y
_atom_site_fract_z
Si Si1 0.277899 0.024955 0.569366
Si Si2 0.000000 0.246275 0.750000
Si Si3 0.857923 0.705339 0.632152
Si Si4 0.716471 0.449115 0.411011
Si Si5 0.104476 0.574295 0.150384
Si Si6 0.385327 0.707665 0.404517
Si Si7 0.000000 0.866200 0.750000
Si Si8 0.621590 0.859170 0.020042
O O1 0.532319 0.036164 0.624706
O O2 0.284003 0.049078 0.449061
O O3 0.049001 0.038307 0.624229
O O4 0.247418 0.973360 0.531700
O O5 0.110288 0.216204 0.662629
O O6 0.190874 0.276601 0.812191
O O7 0.000000 0.700429 0.750000
O O8 0.953511 0.749916 0.578297
O O9 0.899999 0.660494 0.568359
O O10 0.736175 0.395898 0.408538
O O11 0.293859 0.601578 0.222075
O O12 0.000000 0.548319 0.250000
O O13 0.951196 0.612711 0.088017
O O14 0.506706 0.666760 0.352415
O O15 0.260803 0.684930 0.498932
#
# Coordination Sequence:
#
# PCOD9276240 Si02
#       8
#     8   4   8   8   8   8   4   8
#     4   9  19  37  62  87 126 167 195 251 322 378
#     4  10  20  40  56  78 123 168 207 272 324 370
#     4  10  23  42  58  83 118 168 217 271 317 378
#     4   9  19  39  60  91 122 158 211 251 307 385
#     4  11  23  36  58  96 129 161 203 266 320 391
#     4  11  20  36  59  84 120 162 206 263 322 380
#     4  12  20  36  58  86 133 158 207 260 328 384
#     4  11  22  39  62  93 119 166 215 260 322 388
#
# _framework density 25.668596000000001
#
# number of rings (size 3 to 8) (size 9 to 14) (size 15 to 20)
#    0.000    1.714    3.571    2.143    2.000    0.571 
#   15.429    0.714    0.000    0.000    0.000    0.000 
#    0.000    0.000    0.000    0.000    0.000    0.000 
#
# Total GULP energy -156217.479681 kJ/mol
# GULP energy per Si atom -5579.195703 kJ/mol
# Density = 2.561017 g / cm^3
# Si number density = 25.668596 Si / 1000 Ang^3
#
#
#
# Elastic Constant Matrix: (Units=GPa)
#
#
# Indices 1 2 3 4 5 6 
#
# 1 161.0934 51.1045 32.5517 0.0000 -11.1503 0.0000
# 2 51.1045 123.1787 49.6421 0.0000 -27.4066 0.0000
# 3 32.5517 49.6421 76.3299 0.0000 -13.9545 0.0000
# 4 0.0000 0.0000 0.0000 -171.8538 0.0000 263.1218
# 5 -11.1503 -27.4066 -13.9545 0.0000 41.3675 0.0000
# 6 0.0000 0.0000 0.0000 263.1218 0.0000 -356.7879
#
#
#
# Elastic Compliance Matrix: (Units=1/GPa)
#
#
# Indices 1 2 3 4 5 6 
#
# 1 0.007282 -0.002433 -0.001555 0.000000 -0.000174 0.000000
# 2 -0.002433 0.012973 -0.006339 0.000000 0.005801 0.000000
# 3 -0.001555 -0.006339 0.018162 0.000000 0.001508 0.000000
# 4 0.000000 0.000000 0.000000 0.045062 0.000000 0.033232
# 5 -0.000174 0.005801 0.001508 0.000000 0.028478 0.000000
# 6 0.000000 0.000000 0.000000 0.033232 0.000000 0.021705
#
#
# Mechanical properties :
#
#
# Convention : Reuss Voigt Hill
#
# Bulk Modulus (GPa) = 56.29577 69.68874 62.99225
# Shear Modulus (GPa) = 31.20378 -82.30126 -25.54874
#
# Velocity S-wave (km/s) = 3.49039 -5.66856 -3.15831
# Velocity P-wave (km/s) = 6.18248 3.95413 3.36065
#
# Compressibility (1/GPa) = 0.01776332
#
# Stress axis : x y z
#
# Youngs Moduli (GPa) = 137.33311 77.08281 55.05874
#
# Poissons Ratio (x) = 0.18755 0.08560
# Poissons Ratio (y) = 0.33414 0.34902
# Poissons Ratio (z) = 0.21351 0.48864
#
# Static dielectric constant tensor:
#      x y z
#    x 2.137450 0.000000 0.022790 
#    y 0.000000 1.996520 0.000000 
#    z 0.022790 0.000000 2.191010 
# 
# From -- ./inp_files/130809.got.cif
#   From: 2010.05.17/outbox.cif.g08.bks.cpg/sg15_66_cif.got.tgz:130809.got - 2010.06.03 18:47:42.
