data_PCOD9276609
_publ_section_title
;
Structure prediction by ZEFSAII (Michael W. Deem and Ramdas Pophale) SiO2 
 PCOD9276609
Probable space group: C 2/C
;
_chemical_formula_sum "Si O2"
_cell_formula_units_Z 52
_cell_length_a 14.224153
_cell_length_b 13.982789
_cell_length_c 15.440181
_cell_angle_alpha 90.000000
_cell_angle_beta 126.982468
_cell_angle_gamma 90.000000
_cell_volume 2453.134335
_symmetry_space_group_name_H-M "C 2/C"
_symmetry_group_IT_number 15
_symmetry_cell_setting 'monoclinic'
loop_
_space_group_symop_operation_xyz
x,y,z
-x,y,1/2-z
-x,-y,-z
x,-y,1/2+z
1/2+x,1/2+y,z
1/2-x,1/2+y,1/2-z
1/2-x,1/2-y,-z
1/2+x,1/2-y,1/2+z
loop_
_atom_site_type_symbol
_atom_site_label
_atom_site_fract_x
_atom_site_fract_y
_atom_site_fract_z
Si Si1 0.000000 0.754532 0.750000
Si Si2 0.849278 0.390556 0.082681
Si Si3 0.777203 0.116333 0.165660
Si Si4 0.000000 0.136740 0.750000
Si Si5 0.000000 0.554009 0.250000
Si Si6 0.449269 0.495942 0.852752
Si Si7 0.601215 0.643042 0.531468
Si Si8 0.598939 0.787085 0.682201
O O1 0.041224 0.682536 0.849167
O O2 0.115239 0.817190 0.802593
O O3 0.894269 0.484886 0.158357
O O4 0.731604 0.347954 0.064085
O O5 0.811572 0.401674 0.962273
O O6 0.838766 0.019814 0.229817
O O7 0.719458 0.166503 0.216815
O O8 0.906365 0.207122 0.744836
O O9 0.036202 0.066721 0.849029
O O10 0.971064 0.624033 0.314871
O O11 0.399658 0.549554 0.907995
O O12 0.509748 0.395237 0.909267
O O13 0.563038 0.729480 0.573768
#
# Coordination Sequence:
#
# PCOD9276609 Si02
#       8
#     4   8   8   4   4   8   8   8
#     4  11  23  37  61  94 122 166 211 265 315 387
#     4  11  23  40  64  88 133 164 211 264 329 378
#     4  12  23  38  66  95 126 163 216 263 320 378
#     4   9  19  41  61  90 128 172 205 259 315 377
#     4  10  24  46  64  92 130 172 210 264 324 388
#     4  10  21  36  65  93 126 167 214 257 316 380
#     4  10  20  40  63  94 127 168 210 264 314 376
#     4  10  22  40  66  92 129 167 212 264 315 378
#
# _framework density 21.197371
#
# number of rings (size 3 to 8) (size 9 to 14) (size 15 to 20)
#    0.000    1.538    1.538    3.692    2.154    0.615 
#    0.000    4.615    0.000   17.538    0.000    0.000 
#    0.000    0.000    0.000    0.000    0.000    0.000 
#
# Total GULP energy -144770.477451 kJ/mol
# GULP energy per Si atom -5568.095287 kJ/mol
# Density = 2.114913 g / cm^3
# Si number density = 21.197371 Si / 1000 Ang^3
#
#
#
# Elastic Constant Matrix: (Units=GPa)
#
#
# Indices 1 2 3 4 5 6 
#
# 1 88.0445 19.8214 25.7218 0.0000 -21.7827 0.0000
# 2 19.8214 78.3113 39.0571 0.0000 -6.7519 0.0000
# 3 25.7218 39.0571 114.3127 0.0000 5.7533 0.0000
# 4 0.0000 0.0000 0.0000 15.2473 0.0000 -0.0766
# 5 -21.7827 -6.7519 5.7533 0.0000 26.6983 0.0000
# 6 0.0000 0.0000 0.0000 -0.0766 0.0000 32.6782
#
#
#
# Elastic Compliance Matrix: (Units=1/GPa)
#
#
# Indices 1 2 3 4 5 6 
#
# 1 0.016154 -0.000889 -0.004027 0.000000 0.013823 0.000000
# 2 -0.000889 0.016155 -0.005549 0.000000 0.004556 0.000000
# 3 -0.004027 -0.005549 0.011915 0.000000 -0.007257 0.000000
# 4 0.000000 0.000000 0.000000 0.065586 0.000000 0.000154
# 5 0.013823 0.004556 -0.007257 0.000000 0.051450 0.000000
# 6 0.000000 0.000000 0.000000 0.000154 0.000000 0.030602
#
#
# Mechanical properties :
#
#
# Convention : Reuss Voigt Hill
#
# Bulk Modulus (GPa) = 42.92736 49.98544 46.45640
# Shear Modulus (GPa) = 22.66996 27.99596 25.33296
#
# Velocity S-wave (km/s) = 3.27382 3.63812 3.46077
# Velocity P-wave (km/s) = 5.88097 6.42496 6.15897
#
# Compressibility (1/GPa) = 0.02329517
#
# Stress axis : x y z
#
# Youngs Moduli (GPa) = 61.90288 61.90121 83.92643
#
# Poissons Ratio (x) = 0.05500 0.33798
# Poissons Ratio (y) = 0.05500 0.46570
# Poissons Ratio (z) = 0.24929 0.34349
#
# Static dielectric constant tensor:
#      x y z
#    x 1.755620 0.000000 -0.038880 
#    y 0.000000 1.838420 0.000000 
#    z -0.038880 0.000000 1.830870 
# 
# From -- ./inp_files/97147.got.cif
#   From: 2010.05.17/outbox.cif.g08.bks.cpg/sg15_49_cif.got.tgz:97147.got - 2010.06.03 18:47:42.
