data_PCOD9276215
_publ_section_title
;
Structure prediction by ZEFSAII (Michael W. Deem and Ramdas Pophale) SiO2 
 PCOD9276215
Probable space group: C 2/C
;
_chemical_formula_sum "Si O2"
_cell_formula_units_Z 48
_cell_length_a 9.274131
_cell_length_b 16.308427
_cell_length_c 16.597719
_cell_angle_alpha 90.000000
_cell_angle_beta 119.264610
_cell_angle_gamma 90.000000
_cell_volume 2189.954637
_symmetry_space_group_name_H-M "C 2/C"
_symmetry_group_IT_number 15
_symmetry_cell_setting 'monoclinic'
loop_
_space_group_symop_operation_xyz
x,y,z
-x,y,1/2-z
-x,-y,-z
x,-y,1/2+z
1/2+x,1/2+y,z
1/2-x,1/2+y,1/2-z
1/2-x,1/2-y,-z
1/2+x,1/2-y,1/2+z
loop_
_atom_site_type_symbol
_atom_site_label
_atom_site_fract_x
_atom_site_fract_y
_atom_site_fract_z
Si Si1 0.862647 0.126626 0.160751
Si Si2 0.500000 0.322283 0.250000
Si Si3 0.429121 0.287348 0.527595
Si Si4 0.006919 0.454348 0.587051
Si Si5 0.769749 0.200895 0.822596
Si Si6 0.500000 0.059745 0.750000
Si Si7 0.286415 0.824403 0.449626
O O1 0.938529 0.138101 0.092430
O O2 0.685822 0.088003 0.129149
O O3 0.836994 0.220348 0.183401
O O4 0.000000 0.081604 0.250000
O O5 0.623705 0.274970 0.225642
O O6 0.637288 0.358106 0.351787
O O7 0.250000 0.250000 0.500000
O O8 0.401867 0.315819 0.429282
O O9 0.567173 0.215861 0.566822
O O10 0.988674 0.505957 0.664551
O O11 0.000000 0.500000 0.500000
O O12 0.861136 0.389876 0.532144
O O13 0.656490 0.120959 0.782778
O O14 0.250000 0.750000 0.500000
#
# Coordination Sequence:
#
# PCOD9276215 Si02
#       7
#     8   4   8   8   8   4   8
#     4  11  22  42  77 107 141 189 257 299 358 457
#     4  12  24  39  70 107 140 184 254 304 360 419
#     4  10  20  39  72 107 135 183 251 296 352 421
#     4  12  27  49  70 109 156 195 235 317 391 433
#     4  11  22  44  72 106 136 198 247 295 355 455
#     4  12  28  47  76 109 156 196 238 312 398 439
#     4  12  24  45  72 109 147 191 250 310 362 449
#
# _framework density 21.918261999999999
#
# number of rings (size 3 to 8) (size 9 to 14) (size 15 to 20)
#    0.000    0.667    5.833    3.000    4.667    4.000 
#    6.000    0.833    0.000    0.000    0.000    0.000 
#    0.000    0.000    0.000    0.000    0.000    0.000 
#
# Total GULP energy -133669.040660 kJ/mol
# GULP energy per Si atom -5569.543361 kJ/mol
# Density = 2.186838 g / cm^3
# Si number density = 21.918262 Si / 1000 Ang^3
#
#
#
# Elastic Constant Matrix: (Units=GPa)
#
#
# Indices 1 2 3 4 5 6 
#
# 1 90.1175 31.0417 56.3891 0.0000 -7.8926 0.0000
# 2 31.0417 90.4722 50.6548 0.0000 3.1809 0.0000
# 3 56.3891 50.6548 159.8419 0.0000 15.7490 0.0000
# 4 0.0000 0.0000 0.0000 36.2820 0.0000 -0.3129
# 5 -7.8926 3.1809 15.7490 0.0000 55.2892 0.0000
# 6 0.0000 0.0000 0.0000 -0.3129 0.0000 20.4842
#
#
#
# Elastic Compliance Matrix: (Units=1/GPa)
#
#
# Indices 1 2 3 4 5 6 
#
# 1 0.015460 -0.002644 -0.004988 0.000000 0.003780 0.000000
# 2 -0.002644 0.013901 -0.003453 0.000000 -0.000194 0.000000
# 3 -0.004988 -0.003453 0.009425 0.000000 -0.003198 0.000000
# 4 0.000000 0.000000 0.000000 0.027566 0.000000 0.000421
# 5 0.003780 -0.000194 -0.003198 0.000000 0.019548 0.000000
# 6 0.000000 0.000000 0.000000 0.000421 0.000000 0.048824
#
#
# Mechanical properties :
#
#
# Convention : Reuss Voigt Hill
#
# Bulk Modulus (GPa) = 60.18992 68.51142 64.35067
# Shear Modulus (GPa) = 30.78163 35.90082 33.34122
#
# Velocity S-wave (km/s) = 3.75158 4.05154 3.90444
# Velocity P-wave (km/s) = 6.80341 7.29467 7.05332
#
# Compressibility (1/GPa) = 0.01661408
#
# Stress axis : x y z
#
# Youngs Moduli (GPa) = 64.68333 71.93890 106.09563
#
# Poissons Ratio (x) = 0.19023 0.52925
# Poissons Ratio (y) = 0.17105 0.36638
# Poissons Ratio (z) = 0.32267 0.24842
#
# Static dielectric constant tensor:
#      x y z
#    x 1.846990 0.000000 -0.019760 
#    y 0.000000 1.866670 0.000000 
#    z -0.019760 0.000000 1.902650 
# 
# From -- ./inp_files/190681.got.cif
#   From: 2010.05.17/outbox.cif.g08.bks.cpg/sg15_96_cif.got.tgz:190681.got - 2010.06.03 18:47:42.
