data_PCOD9276835
_publ_section_title
;
Structure prediction by ZEFSAII (Michael W. Deem and Ramdas Pophale) SiO2 
 PCOD9276835
Probable space group: C 2/C
;
_chemical_formula_sum "Si O2"
_cell_formula_units_Z 48
_cell_length_a 22.412673
_cell_length_b 5.663272
_cell_length_c 15.767672
_cell_angle_alpha 90.000000
_cell_angle_beta 102.566401
_cell_angle_gamma 90.000000
_cell_volume 1953.431913
_symmetry_space_group_name_H-M "C 2/C"
_symmetry_group_IT_number 15
_symmetry_cell_setting 'monoclinic'
loop_
_space_group_symop_operation_xyz
x,y,z
-x,y,1/2-z
-x,-y,-z
x,-y,1/2+z
1/2+x,1/2+y,z
1/2-x,1/2+y,1/2-z
1/2-x,1/2-y,-z
1/2+x,1/2-y,1/2+z
loop_
_atom_site_type_symbol
_atom_site_label
_atom_site_fract_x
_atom_site_fract_y
_atom_site_fract_z
Si Si1 0.147654 0.750365 0.403793
Si Si2 0.669859 0.642316 0.519129
Si Si3 0.115202 0.646549 0.688143
Si Si4 0.571176 0.029480 0.002676
Si Si5 0.068607 0.873034 0.240327
Si Si6 0.716719 0.133457 0.854323
O O1 0.093308 0.581864 0.421088
O O2 0.111552 0.930594 0.333882
O O3 0.199885 0.639932 0.361904
O O4 0.177514 0.876154 0.492341
O O5 0.599357 0.707793 0.512123
O O6 0.692025 0.777079 0.439926
O O7 0.712051 0.691536 0.613828
O O8 0.110963 0.596729 0.587638
O O9 0.088669 0.392081 0.715516
O O10 0.178834 0.695782 0.758315
O O11 0.076646 0.889382 0.687747
O O12 0.500000 0.000000 0.000000
O O13 0.000000 0.854399 0.250000
#
# Coordination Sequence:
#
# PCOD9276835 Si02
#       6
#     8   8   8   8   8   8
#     4  10  21  39  67  94 120 177 221 277 338 401
#     4  10  20  40  65  93 123 174 219 277 335 397
#     4  11  24  43  62 100 132 176 217 289 338 401
#     4  11  26  41  61  96 143 177 221 274 354 418
#     4  11  23  40  68  94 129 173 232 276 330 400
#     4   9  20  41  66  93 125 161 233 277 327 397
#
# _framework density 24.572140000000001
#
# number of rings (size 3 to 8) (size 9 to 14) (size 15 to 20)
#    0.000    1.667    1.667    2.000    4.667    0.667 
#    3.000    0.000    0.000    0.000    0.000    0.000 
#    0.000    0.000    0.000    0.000    0.000    0.000 
#
# Total GULP energy -133639.973083 kJ/mol
# GULP energy per Si atom -5568.332212 kJ/mol
# Density = 2.451621 g / cm^3
# Si number density = 24.572140 Si / 1000 Ang^3
#
#
#
# Elastic Constant Matrix: (Units=GPa)
#
#
# Indices 1 2 3 4 5 6 
#
# 1 58.0323 12.4222 -4.1335 0.0000 20.8371 0.0000
# 2 12.4222 72.2145 -0.0314 0.0000 -2.4812 0.0000
# 3 -4.1335 -0.0314 88.0874 0.0000 8.9449 0.0000
# 4 0.0000 0.0000 0.0000 35.6851 0.0000 -8.4908
# 5 20.8371 -2.4812 8.9449 0.0000 30.2147 0.0000
# 6 0.0000 0.0000 0.0000 -8.4908 0.0000 16.9717
#
#
#
# Elastic Compliance Matrix: (Units=1/GPa)
#
#
# Indices 1 2 3 4 5 6 
#
# 1 0.025244 -0.004985 0.003085 0.000000 -0.018732 0.000000
# 2 -0.004985 0.014872 -0.000723 0.000000 0.004873 0.000000
# 3 0.003085 -0.000723 0.012082 0.000000 -0.005764 0.000000
# 4 0.000000 0.000000 0.000000 0.031809 0.000000 0.015914
# 5 -0.018732 0.004873 -0.005764 0.000000 0.048121 0.000000
# 6 0.000000 0.000000 0.000000 0.015914 0.000000 0.066883
#
#
# Mechanical properties :
#
#
# Convention : Reuss Voigt Hill
#
# Bulk Modulus (GPa) = 21.29821 26.09431 23.69626
# Shear Modulus (GPa) = 22.73657 30.57943 26.65800
#
# Velocity S-wave (km/s) = 3.04517 3.53154 3.29734
# Velocity P-wave (km/s) = 4.58809 5.22222 4.91539
#
# Compressibility (1/GPa) = 0.04695229
#
# Stress axis : x y z
#
# Youngs Moduli (GPa) = 39.61265 67.23940 82.76679
#
# Poissons Ratio (x) = 0.33517 -0.25533
# Poissons Ratio (y) = 0.19746 0.05988
# Poissons Ratio (z) = -0.12220 0.04864
#
# Static dielectric constant tensor:
#      x y z
#    x 1.936940 0.000000 0.013100 
#    y 0.000000 2.145860 0.000000 
#    z 0.013100 0.000000 2.080290 
# 
# From -- ./inp_files/221011.got.cif
#   From: 2010.05.17/outbox.cif.g08.bks.cpg/sg15_111_cif.got.tgz:221011.got - 2010.06.03 18:47:42.
