data_PCOD9276366
_publ_section_title
;
Structure prediction by ZEFSAII (Michael W. Deem and Ramdas Pophale) SiO2 
 PCOD9276366
Probable space group: C 2/C
;
_chemical_formula_sum "Si O2"
_cell_formula_units_Z 52
_cell_length_a 22.420218
_cell_length_b 17.694849
_cell_length_c 6.928106
_cell_angle_alpha 90.000000
_cell_angle_beta 54.403591
_cell_angle_gamma 90.000000
_cell_volume 2234.935887
_symmetry_space_group_name_H-M "C 2/C"
_symmetry_group_IT_number 15
_symmetry_cell_setting 'monoclinic'
loop_
_space_group_symop_operation_xyz
x,y,z
-x,y,1/2-z
-x,-y,-z
x,-y,1/2+z
1/2+x,1/2+y,z
1/2-x,1/2+y,1/2-z
1/2-x,1/2-y,-z
1/2+x,1/2-y,1/2+z
loop_
_atom_site_type_symbol
_atom_site_label
_atom_site_fract_x
_atom_site_fract_y
_atom_site_fract_z
Si Si1 0.737033 0.438901 0.520975
Si Si2 0.708286 0.607486 0.511162
Si Si3 0.095838 0.434415 0.225299
Si Si4 0.360857 0.827035 0.704524
Si Si5 0.500000 0.070464 0.250000
Si Si6 0.583771 0.715085 0.610808
Si Si7 0.177466 0.210676 0.051590
O O1 0.702675 0.521646 0.592141
O O2 0.729122 0.403454 0.746356
O O3 0.824252 0.444625 0.326937
O O4 0.696042 0.376672 0.468859
O O5 0.783206 0.646822 0.442460
O O6 0.634724 0.656189 0.634125
O O7 0.060936 0.514254 0.230647
O O8 0.042484 0.396367 0.483873
O O9 0.105574 0.388001 0.007643
O O10 0.344530 0.757845 0.591641
O O11 0.409366 0.205858 0.286320
O O12 0.500000 0.691690 0.750000
O O13 0.617883 0.718168 0.332764
O O14 0.250000 0.250000 0.000000
#
# Coordination Sequence:
#
# PCOD9276366 Si02
#       7
#     8   8   8   8   4   8   8
#     4  10  21  38  68  96 131 172 238 282 338 410
#     4  10  22  41  70 104 128 178 233 283 346 418
#     4  10  20  40  60  96 137 188 229 275 339 418
#     4  11  23  45  72  97 136 185 239 278 344 416
#     4  10  22  38  58  92 152 180 224 276 346 410
#     4  11  26  46  69 103 140 179 234 294 353 412
#     4  11  22  45  69 102 138 178 234 292 340 417
#
# _framework density 23.266887000000001
#
# number of rings (size 3 to 8) (size 9 to 14) (size 15 to 20)
#    0.000    1.538    4.615    2.308    2.154    1.846 
#    9.692    3.077    0.000    0.000    0.000    0.000 
#    0.000    0.000    0.000    0.000    0.000    0.000 
#
# Total GULP energy -145482.113240 kJ/mol
# GULP energy per Si atom -5595.465894 kJ/mol
# Density = 2.321393 g / cm^3
# Si number density = 23.266887 Si / 1000 Ang^3
#
#
#
# Elastic Constant Matrix: (Units=GPa)
#
#
# Indices 1 2 3 4 5 6 
#
# 1 78.0990 31.0360 46.0403 0.0000 -12.7614 0.0000
# 2 31.0360 106.8604 40.5124 0.0000 -4.0141 0.0000
# 3 46.0403 40.5124 144.7806 0.0000 -20.9952 0.0000
# 4 0.0000 0.0000 0.0000 32.3497 0.0000 -1.5243
# 5 -12.7614 -4.0141 -20.9952 0.0000 36.5276 0.0000
# 6 0.0000 0.0000 0.0000 -1.5243 0.0000 37.6452
#
#
#
# Elastic Compliance Matrix: (Units=1/GPa)
#
#
# Indices 1 2 3 4 5 6 
#
# 1 0.017016 -0.003297 -0.004013 0.000000 0.003276 0.000000
# 2 -0.003297 0.011119 -0.002239 0.000000 -0.001217 0.000000
# 3 -0.004013 -0.002239 0.009350 0.000000 0.003726 0.000000
# 4 0.000000 0.000000 0.000000 0.030971 0.000000 0.001254
# 5 0.003276 -0.001217 0.003726 0.000000 0.030529 0.000000
# 6 0.000000 0.000000 0.000000 0.001254 0.000000 0.026615
#
#
# Mechanical properties :
#
#
# Convention : Reuss Voigt Hill
#
# Bulk Modulus (GPa) = 54.39253 62.76861 58.58057
# Shear Modulus (GPa) = 33.15042 35.44793 34.29918
#
# Velocity S-wave (km/s) = 3.77873 3.90748 3.84365
# Velocity P-wave (km/s) = 6.51666 6.88434 6.70302
#
# Compressibility (1/GPa) = 0.01838488
#
# Stress axis : x y z
#
# Youngs Moduli (GPa) = 58.76906 89.93710 106.95017
#
# Poissons Ratio (x) = 0.29656 0.42923
# Poissons Ratio (y) = 0.19379 0.23948
# Poissons Ratio (z) = 0.23586 0.20139
#
# Static dielectric constant tensor:
#      x y z
#    x 1.915760 0.000000 0.030060 
#    y 0.000000 2.007580 0.000000 
#    z 0.030060 0.000000 1.906630 
# 
# From -- ./inp_files/70387.got.cif
#   From: 2010.05.17/outbox.cif.g08.bks.cpg/sg15_36_cif.got.tgz:70387.got - 2010.06.03 18:47:42.
