data_PCOD9276976
_publ_section_title
;
Structure prediction by ZEFSAII (Michael W. Deem and Ramdas Pophale) SiO2 
 PCOD9276976
Probable space group: C 2/C
;
_chemical_formula_sum "Si O2"
_cell_formula_units_Z 48
_cell_length_a 11.326652
_cell_length_b 17.990699
_cell_length_c 10.940774
_cell_angle_alpha 90.000000
_cell_angle_beta 73.239357
_cell_angle_gamma 90.000000
_cell_volume 2134.737616
_symmetry_space_group_name_H-M "C 2/C"
_symmetry_group_IT_number 15
_symmetry_cell_setting 'monoclinic'
loop_
_space_group_symop_operation_xyz
x,y,z
-x,y,1/2-z
-x,-y,-z
x,-y,1/2+z
1/2+x,1/2+y,z
1/2-x,1/2+y,1/2-z
1/2-x,1/2-y,-z
1/2+x,1/2-y,1/2+z
loop_
_atom_site_type_symbol
_atom_site_label
_atom_site_fract_x
_atom_site_fract_y
_atom_site_fract_z
Si Si1 0.395603 0.802842 0.118793
Si Si2 0.873793 0.459269 0.822149
Si Si3 0.695252 0.043450 0.900457
Si Si4 0.673179 0.818521 0.077460
Si Si5 0.869547 0.920798 0.913379
Si Si6 0.629799 0.366649 0.857488
O O1 0.311228 0.867760 0.089711
O O2 0.538975 0.824676 0.054147
O O3 0.362011 0.805534 0.272130
O O4 0.377842 0.716807 0.089948
O O5 0.855756 0.518323 0.717094
O O6 0.753042 0.408883 0.855921
O O7 0.000000 0.418181 0.750000
O O8 0.882649 0.485256 0.959456
O O9 0.825990 0.001734 0.880876
O O10 0.750000 0.750000 0.000000
O O11 0.765714 0.887323 0.032405
O O12 0.867358 0.869477 0.791989
O O13 0.005463 0.911901 0.926741
#
# Coordination Sequence:
#
# PCOD9276976 Si02
#       6
#     8   8   8   8   8   8
#     4  11  23  36  64 107 128 178 230 288 327 414
#     4  11  26  45  68  96 135 188 219 282 340 418
#     4  11  26  42  69  98 139 169 233 284 344 400
#     4  11  19  35  66  99 133 175 240 281 321 404
#     4  10  20  40  66  97 132 183 216 290 342 402
#     4  10  21  41  67  92 135 179 232 265 352 407
#
# _framework density 22.485198
#
# number of rings (size 3 to 8) (size 9 to 14) (size 15 to 20)
#    0.000    1.333    3.333    2.500    9.333    1.333 
#    0.000    3.333    7.333    0.000    0.000    0.000 
#    0.000    0.000    0.000    0.000    0.000    0.000 
#
# Total GULP energy -133959.046208 kJ/mol
# GULP energy per Si atom -5581.626925 kJ/mol
# Density = 2.243402 g / cm^3
# Si number density = 22.485198 Si / 1000 Ang^3
#
#
#
# Elastic Constant Matrix: (Units=GPa)
#
#
# Indices 1 2 3 4 5 6 
#
# 1 125.8428 78.7868 37.6676 0.0000 -26.8465 0.0000
# 2 78.7868 119.8994 16.9314 0.0000 -13.8450 0.0000
# 3 37.6676 16.9314 108.7213 0.0000 -4.3400 0.0000
# 4 0.0000 0.0000 0.0000 25.4393 0.0000 -5.4019
# 5 -26.8465 -13.8450 -4.3400 0.0000 41.6444 0.0000
# 6 0.0000 0.0000 0.0000 -5.4019 0.0000 20.5207
#
#
#
# Elastic Compliance Matrix: (Units=1/GPa)
#
#
# Indices 1 2 3 4 5 6 
#
# 1 0.016642 -0.009547 -0.003994 0.000000 0.007138 0.000000
# 2 -0.009547 0.014320 0.001026 0.000000 -0.001287 0.000000
# 3 -0.003994 0.001026 0.010376 0.000000 -0.001152 0.000000
# 4 0.000000 0.000000 0.000000 0.041637 0.000000 0.010961
# 5 0.007138 -0.001287 -0.001152 0.000000 0.028067 0.000000
# 6 0.000000 0.000000 0.000000 0.010961 0.000000 0.051617
#
#
# Mechanical properties :
#
#
# Convention : Reuss Voigt Hill
#
# Bulk Modulus (GPa) = 61.31955 69.02612 65.17284
# Shear Modulus (GPa) = 25.89003 32.25940 29.07471
#
# Velocity S-wave (km/s) = 3.39695 3.79185 3.59982
# Velocity P-wave (km/s) = 6.53574 7.06653 6.80632
#
# Compressibility (1/GPa) = 0.01630801
#
# Stress axis : x y z
#
# Youngs Moduli (GPa) = 60.08849 69.83015 96.37817
#
# Poissons Ratio (x) = 0.66670 0.38494
# Poissons Ratio (y) = 0.57369 -0.09891
# Poissons Ratio (z) = 0.24000 -0.07166
#
# Static dielectric constant tensor:
#      x y z
#    x 1.867000 0.000000 0.033810 
#    y 0.000000 1.905840 0.000000 
#    z 0.033810 0.000000 1.847750 
# 
# From -- ./inp_files/87779.got.cif
#   From: 2010.05.17/outbox.cif.g08.bks.cpg/sg15_44_cif.got.tgz:87779.got - 2010.06.03 18:47:42.
