data_PCOD9276513
_publ_section_title
;
Structure prediction by ZEFSAII (Michael W. Deem and Ramdas Pophale) SiO2 
 PCOD9276513
Probable space group: C 2/C
;
_chemical_formula_sum "Si O2"
_cell_formula_units_Z 44
_cell_length_a 8.609535
_cell_length_b 24.453175
_cell_length_c 12.406936
_cell_angle_alpha 90.000000
_cell_angle_beta 141.789693
_cell_angle_gamma 90.000000
_cell_volume 1615.675473
_symmetry_space_group_name_H-M "C 2/C"
_symmetry_group_IT_number 15
_symmetry_cell_setting 'monoclinic'
loop_
_space_group_symop_operation_xyz
x,y,z
-x,y,1/2-z
-x,-y,-z
x,-y,1/2+z
1/2+x,1/2+y,z
1/2-x,1/2+y,1/2-z
1/2-x,1/2-y,-z
1/2+x,1/2-y,1/2+z
loop_
_atom_site_type_symbol
_atom_site_label
_atom_site_fract_x
_atom_site_fract_y
_atom_site_fract_z
Si Si1 0.648446 0.927037 0.116316
Si Si2 0.500000 0.209893 0.250000
Si Si3 0.337864 0.846574 0.055120
Si Si4 0.739222 0.021709 0.310344
Si Si5 0.072501 0.238116 0.162658
Si Si6 0.846034 0.884255 0.004943
O O1 0.383909 0.900349 0.008948
O O2 0.702192 0.989301 0.179756
O O3 0.700419 0.917786 0.019718
O O4 0.866982 0.891905 0.299451
O O5 0.347058 0.238534 0.262216
O O6 0.713724 0.173799 0.425720
O O7 0.500000 0.857160 0.250000
O O8 0.458431 0.795127 0.057143
O O9 0.071622 0.819088 0.942042
O O10 0.500000 0.002982 0.250000
O O11 0.781320 0.085425 0.357312
O O12 0.000000 0.000000 0.500000
O O13 0.000000 0.244054 0.250000
#
# Coordination Sequence:
#
# PCOD9276513 Si02
#       6
#     8   4   8   8   8   8
#     4  10  21  39  66  88 124 174 218 268 338 392
#     4  12  22  40  64  92 138 172 206 278 342 380
#     4  10  20  40  62  93 127 167 220 269 318 402
#     4  10  21  40  61  86 123 165 213 276 334 386
#     4  10  23  40  64  94 134 170 215 271 331 395
#     4  10  22  39  60  94 129 162 222 276 319 407
#
# _framework density 27.233191999999999
#
# number of rings (size 3 to 8) (size 9 to 14) (size 15 to 20)
#    0.000    1.818    0.909    2.727    0.000    3.636 
#    0.000   10.000    4.000    0.000    0.000    0.000 
#    0.000    0.000    0.000    0.000    0.000    0.000 
#
# Total GULP energy -122877.691756 kJ/mol
# GULP energy per Si atom -5585.349625 kJ/mol
# Density = 2.717121 g / cm^3
# Si number density = 27.233192 Si / 1000 Ang^3
#
#
#
# Elastic Constant Matrix: (Units=GPa)
#
#
# Indices 1 2 3 4 5 6 
#
# 1 148.5107 45.2320 29.2756 0.0000 23.7018 0.0000
# 2 45.2320 109.6645 16.6173 0.0000 9.0442 0.0000
# 3 29.2756 16.6173 100.3886 0.0000 2.0664 0.0000
# 4 0.0000 0.0000 0.0000 22.0835 0.0000 11.9599
# 5 23.7018 9.0442 2.0664 0.0000 52.1248 0.0000
# 6 0.0000 0.0000 0.0000 11.9599 0.0000 38.8515
#
#
#
# Elastic Compliance Matrix: (Units=1/GPa)
#
#
# Indices 1 2 3 4 5 6 
#
# 1 0.008541 -0.002958 -0.001933 0.000000 -0.003294 0.000000
# 2 -0.002958 0.010507 -0.000867 0.000000 -0.000443 0.000000
# 3 -0.001933 -0.000867 0.010656 0.000000 0.000607 0.000000
# 4 0.000000 0.000000 0.000000 0.054342 0.000000 -0.016729
# 5 -0.003294 -0.000443 0.000607 0.000000 0.020735 0.000000
# 6 0.000000 0.000000 0.000000 -0.016729 0.000000 0.030889
#
#
# Mechanical properties :
#
#
# Convention : Reuss Voigt Hill
#
# Bulk Modulus (GPa) = 54.98637 60.09042 57.53839
# Shear Modulus (GPa) = 32.62616 40.44122 36.53369
#
# Velocity S-wave (km/s) = 3.46501 3.85775 3.66664
# Velocity P-wave (km/s) = 6.02023 6.47734 6.25297
#
# Compressibility (1/GPa) = 0.01818633
#
# Stress axis : x y z
#
# Youngs Moduli (GPa) = 117.07736 95.17544 93.84230
#
# Poissons Ratio (x) = 0.28156 0.18143
# Poissons Ratio (y) = 0.34635 0.08140
# Poissons Ratio (z) = 0.22635 0.08255
#
# Static dielectric constant tensor:
#      x y z
#    x 2.075180 0.000000 0.068790 
#    y 0.000000 2.187300 0.000000 
#    z 0.068790 0.000000 2.225280 
# 
# From -- ./inp_files/138803.got.cif
#   From: 2010.05.17/outbox.cif.g08.bks.cpg/sg15_70_cif.got.tgz:138803.got - 2010.06.03 18:47:42.
