data_PCOD9276588
_publ_section_title
;
Structure prediction by ZEFSAII (Michael W. Deem and Ramdas Pophale) SiO2 
 PCOD9276588
Probable space group: C 2/C
;
_chemical_formula_sum "Si O2"
_cell_formula_units_Z 48
_cell_length_a 16.578297
_cell_length_b 7.853343
_cell_length_c 18.165447
_cell_angle_alpha 90.000000
_cell_angle_beta 111.286047
_cell_angle_gamma 90.000000
_cell_volume 2203.706726
_symmetry_space_group_name_H-M "C 2/C"
_symmetry_group_IT_number 15
_symmetry_cell_setting 'monoclinic'
loop_
_space_group_symop_operation_xyz
x,y,z
-x,y,1/2-z
-x,-y,-z
x,-y,1/2+z
1/2+x,1/2+y,z
1/2-x,1/2+y,1/2-z
1/2-x,1/2-y,-z
1/2+x,1/2-y,1/2+z
loop_
_atom_site_type_symbol
_atom_site_label
_atom_site_fract_x
_atom_site_fract_y
_atom_site_fract_z
Si Si1 0.757391 0.337731 0.136285
Si Si2 0.567174 0.748896 0.520596
Si Si3 0.172101 0.867815 0.387555
Si Si4 0.162274 0.512108 0.468070
Si Si5 0.308701 0.485717 0.749449
Si Si6 0.005136 0.012614 0.620515
O O1 0.824361 0.379869 0.094250
O O2 0.746100 0.480505 0.195392
O O3 0.778873 0.171656 0.190393
O O4 0.664762 0.321899 0.065173
O O5 0.522734 0.691117 0.582324
O O6 0.515340 0.637602 0.444024
O O7 0.587409 0.938252 0.496482
O O8 0.155150 0.692345 0.424639
O O9 0.249704 0.964197 0.455609
O O10 0.081352 0.966253 0.361334
O O11 0.197553 0.857954 0.310547
O O12 0.407802 0.469914 0.807729
#
# Coordination Sequence:
#
# PCOD9276588 Si02
#       6
#     8   8   8   8   8   8
#     4  11  21  40  64  92 123 164 210 258 312 385
#     4  10  20  40  63  92 119 168 210 261 311 387
#     4  11  22  39  61  95 125 167 211 263 317 384
#     4  11  22  38  66  90 125 165 220 255 311 390
#     4  11  23  39  63  92 128 164 208 265 324 375
#     4  10  22  39  63  91 129 165 210 257 329 375
#
# _framework density 21.781483000000001
#
# number of rings (size 3 to 8) (size 9 to 14) (size 15 to 20)
#    0.000    1.333    3.333    3.000    0.000    0.667 
#    0.000    6.667    0.000    0.000    0.000    0.000 
#    0.000    0.000    0.000    0.000    0.000    0.000 
#
# Total GULP energy -133936.658841 kJ/mol
# GULP energy per Si atom -5580.694118 kJ/mol
# Density = 2.173191 g / cm^3
# Si number density = 21.781483 Si / 1000 Ang^3
#
#
#
# Elastic Constant Matrix: (Units=GPa)
#
#
# Indices 1 2 3 4 5 6 
#
# 1 80.6319 21.0836 25.7936 0.0000 -7.3053 0.0000
# 2 21.0836 86.5369 37.8568 0.0000 13.6827 0.0000
# 3 25.7936 37.8568 124.6102 0.0000 4.2257 0.0000
# 4 0.0000 0.0000 0.0000 30.8299 0.0000 -10.4104
# 5 -7.3053 13.6827 4.2257 0.0000 16.0920 0.0000
# 6 0.0000 0.0000 0.0000 -10.4104 0.0000 33.1623
#
#
#
# Elastic Compliance Matrix: (Units=1/GPa)
#
#
# Indices 1 2 3 4 5 6 
#
# 1 0.015333 -0.004597 -0.002165 0.000000 0.011438 0.000000
# 2 -0.004597 0.016670 -0.003593 0.000000 -0.015317 0.000000
# 3 -0.002165 -0.003593 0.009580 0.000000 -0.000443 0.000000
# 4 0.000000 0.000000 0.000000 0.036282 0.000000 0.011390
# 5 0.011438 -0.015317 -0.000443 0.000000 0.080475 0.000000
# 6 0.000000 0.000000 0.000000 0.011390 0.000000 0.033730
#
#
# Mechanical properties :
#
#
# Convention : Reuss Voigt Hill
#
# Bulk Modulus (GPa) = 47.91209 51.24966 49.58087
# Shear Modulus (GPa) = 22.75438 29.81984 26.28711
#
# Velocity S-wave (km/s) = 3.23564 3.70408 3.47775
# Velocity P-wave (km/s) = 6.00030 6.47099 6.24008
#
# Compressibility (1/GPa) = 0.02087156
#
# Stress axis : x y z
#
# Youngs Moduli (GPa) = 65.21892 59.98968 104.38563
#
# Poissons Ratio (x) = 0.27577 0.22601
# Poissons Ratio (y) = 0.29981 0.37508
# Poissons Ratio (z) = 0.14121 0.21556
#
# Static dielectric constant tensor:
#      x y z
#    x 1.779640 0.000000 -0.036870 
#    y 0.000000 1.880170 0.000000 
#    z -0.036870 0.000000 1.752280 
# 
# From -- ./inp_files/209292.got.cif
#   From: 2010.05.17/outbox.cif.g08.bks.cpg/sg15_105_cif.got.tgz:209292.got - 2010.06.03 18:47:42.
