data_PCOD9276074
_publ_section_title
;
Structure prediction by ZEFSAII (Michael W. Deem and Ramdas Pophale) SiO2 
 PCOD9276074
Probable space group: C 2/C
;
_chemical_formula_sum "Si O2"
_cell_formula_units_Z 64
_cell_length_a 9.753821
_cell_length_b 29.496252
_cell_length_c 14.455845
_cell_angle_alpha 90.000000
_cell_angle_beta 44.983008
_cell_angle_gamma 90.000000
_cell_volume 2939.958947
_symmetry_space_group_name_H-M "C 2/C"
_symmetry_group_IT_number 15
_symmetry_cell_setting 'monoclinic'
loop_
_space_group_symop_operation_xyz
x,y,z
-x,y,1/2-z
-x,-y,-z
x,-y,1/2+z
1/2+x,1/2+y,z
1/2-x,1/2+y,1/2-z
1/2-x,1/2-y,-z
1/2+x,1/2-y,1/2+z
loop_
_atom_site_type_symbol
_atom_site_label
_atom_site_fract_x
_atom_site_fract_y
_atom_site_fract_z
Si Si1 0.859086 0.118354 0.524752
Si Si2 0.899992 0.561565 0.988173
Si Si3 0.173972 0.282461 0.895409
Si Si4 0.128723 0.295869 0.106022
Si Si5 0.783221 0.034928 0.891464
Si Si6 0.430604 0.719269 0.888576
Si Si7 0.450536 0.382710 0.383245
Si Si8 0.819138 0.122900 0.265845
O O1 0.692605 0.089837 0.552028
O O2 0.811941 0.170432 0.520747
O O3 0.877084 0.111131 0.625366
O O4 0.073233 0.108673 0.379514
O O5 0.804037 0.511969 0.031577
O O6 0.827830 0.587736 0.116027
O O7 0.129692 0.554020 0.889417
O O8 0.333434 0.256144 0.881511
O O9 0.230273 0.326554 0.811142
O O10 0.098853 0.242035 0.868644
O O11 0.037277 0.297913 0.046865
O O12 0.000000 0.315482 0.250000
O O13 0.808707 0.074396 0.955510
O O14 0.000000 0.025577 0.750000
O O15 0.500000 0.721262 0.750000
O O16 0.377959 0.667771 0.938837
O O17 0.250000 0.750000 0.000000
O O18 0.500000 0.381604 0.250000
O O19 0.000000 0.124914 0.250000
#
# Coordination Sequence:
#
# PCOD9276074 Si02
#       8
#     8   8   8   8   8   8   8   8
#     4  11  22  42  67 100 136 179 234 284 342 410
#     4  10  22  42  72 107 129 179 228 279 347 423
#     4  11  23  40  61  91 131 172 226 287 337 398
#     4  11  24  34  62  95 127 171 225 285 343 395
#     4  10  22  44  72  97 143 178 216 281 358 410
#     4  11  27  42  62  90 132 188 235 275 345 423
#     4  10  24  44  63  93 139 183 224 283 341 401
#     4  10  20  39  67  97 133 166 226 288 342 396
#
# _framework density 21.769012
#
# number of rings (size 3 to 8) (size 9 to 14) (size 15 to 20)
#    0.000    1.500    3.750    1.500    7.000    2.500 
#    0.000    0.625    0.000    6.000    0.000    0.000 
#    0.000    0.000    0.000    0.000    0.000    0.000 
#
# Total GULP energy -178371.898821 kJ/mol
# GULP energy per Si atom -5574.121838 kJ/mol
# Density = 2.171946 g / cm^3
# Si number density = 21.769012 Si / 1000 Ang^3
#
#
#
# Elastic Constant Matrix: (Units=GPa)
#
#
# Indices 1 2 3 4 5 6 
#
# 1 110.4715 50.8425 30.7122 0.0000 11.5377 0.0000
# 2 50.8425 147.0157 11.8801 0.0000 -3.6710 0.0000
# 3 30.7122 11.8801 66.7848 0.0000 1.4501 0.0000
# 4 0.0000 0.0000 0.0000 17.7027 0.0000 -0.8120
# 5 11.5377 -3.6710 1.4501 0.0000 31.8943 0.0000
# 6 0.0000 0.0000 0.0000 -0.8120 0.0000 25.1022
#
#
#
# Elastic Compliance Matrix: (Units=1/GPa)
#
#
# Indices 1 2 3 4 5 6 
#
# 1 0.012899 -0.004173 -0.005083 0.000000 -0.004915 0.000000
# 2 -0.004173 0.008274 0.000394 0.000000 0.002444 0.000000
# 3 -0.005083 0.000394 0.017217 0.000000 0.001101 0.000000
# 4 0.000000 0.000000 0.000000 0.056573 0.000000 0.001830
# 5 -0.004915 0.002444 0.001101 0.000000 0.033363 0.000000
# 6 0.000000 0.000000 0.000000 0.001830 0.000000 0.039896
#
#
# Mechanical properties :
#
#
# Convention : Reuss Voigt Hill
#
# Bulk Modulus (GPa) = 48.38666 56.79351 52.59008
# Shear Modulus (GPa) = 25.92898 30.32899 28.12899
#
# Velocity S-wave (km/s) = 3.45497 3.73663 3.59856
# Velocity P-wave (km/s) = 6.17991 6.69047 6.44025
#
# Compressibility (1/GPa) = 0.02066685
#
# Stress axis : x y z
#
# Youngs Moduli (GPa) = 77.52513 120.85627 58.08244
#
# Poissons Ratio (x) = 0.50432 0.29522
# Poissons Ratio (y) = 0.32350 -0.02289
# Poissons Ratio (z) = 0.39405 -0.04762
#
# Static dielectric constant tensor:
#      x y z
#    x 1.909520 0.000000 0.014350 
#    y 0.000000 1.791700 0.000000 
#    z 0.014350 0.000000 2.002870 
# 
# From -- ./inp_files/139810.got.cif
#   From: 2010.05.17/outbox.cif.g08.bks.cpg/sg15_70_cif.got.tgz:139810.got - 2010.06.03 18:47:42.
