data_PCOD9276793
_publ_section_title
;
Structure prediction by ZEFSAII (Michael W. Deem and Ramdas Pophale) SiO2 
 PCOD9276793
Probable space group: C 2/C
;
_chemical_formula_sum "Si O2"
_cell_formula_units_Z 56
_cell_length_a 7.968744
_cell_length_b 28.404271
_cell_length_c 12.618622
_cell_angle_alpha 90.000000
_cell_angle_beta 106.175079
_cell_angle_gamma 90.000000
_cell_volume 2743.117193
_symmetry_space_group_name_H-M "C 2/C"
_symmetry_group_IT_number 15
_symmetry_cell_setting 'monoclinic'
loop_
_space_group_symop_operation_xyz
x,y,z
-x,y,1/2-z
-x,-y,-z
x,-y,1/2+z
1/2+x,1/2+y,z
1/2-x,1/2+y,1/2-z
1/2-x,1/2-y,-z
1/2+x,1/2-y,1/2+z
loop_
_atom_site_type_symbol
_atom_site_label
_atom_site_fract_x
_atom_site_fract_y
_atom_site_fract_z
Si Si1 0.958156 0.541559 0.571976
Si Si2 0.822262 0.880085 0.546070
Si Si3 0.000000 0.941914 0.750000
Si Si4 0.738571 0.473216 0.234083
Si Si5 0.000000 0.249618 0.750000
Si Si6 0.873544 0.124519 0.820657
Si Si7 0.130018 0.302446 0.187030
Si Si8 0.867341 0.288328 0.953137
O O1 0.841711 0.584854 0.510050
O O2 0.851080 0.518577 0.649512
O O3 0.000000 0.500000 0.500000
O O4 0.144647 0.552726 0.656860
O O5 0.902221 0.862690 0.447974
O O6 0.753182 0.833609 0.590697
O O7 0.953503 0.909892 0.641377
O O8 0.157899 0.978391 0.758139
O O9 0.609396 0.432025 0.175404
O O10 0.188473 0.224395 0.801039
O O11 0.045665 0.272711 0.642671
O O12 0.691309 0.148950 0.755167
O O13 0.000000 0.140657 0.750000
O O14 0.000000 0.278564 0.250000
O O15 0.018631 0.305549 0.060782
O O16 0.750000 0.250000 0.000000
#
# Coordination Sequence:
#
# PCOD9276793 Si02
#       8
#     8   8   4   8   4   8   8   8
#     4  10  20  40  65  86 132 181 228 269 347 411
#     4  11  25  43  67 100 140 185 229 298 355 424
#     4  12  24  43  62  98 148 176 221 284 362 422
#     4  10  22  37  64  97 128 176 227 287 336 416
#     4  12  26  47  76 112 138 190 233 292 386 428
#     4  11  22  41  70 101 131 176 249 290 347 410
#     4  12  23  46  78 104 143 182 244 308 347 426
#     4  12  26  49  75 102 147 190 237 296 364 430
#
# _framework density 20.414731
#
# number of rings (size 3 to 8) (size 9 to 14) (size 15 to 20)
#    0.000    0.857    5.714    1.286    2.000    4.571 
#    5.143    0.000    0.000    0.000    0.000    0.000 
#    0.000    0.000    0.000    0.000    0.000    0.000 
#
# Total GULP energy -155921.176296 kJ/mol
# GULP energy per Si atom -5568.613439 kJ/mol
# Density = 2.036827 g / cm^3
# Si number density = 20.414731 Si / 1000 Ang^3
#
#
#
# Elastic Constant Matrix: (Units=GPa)
#
#
# Indices 1 2 3 4 5 6 
#
# 1 96.3698 31.0224 29.1253 0.0000 -19.7972 0.0000
# 2 31.0224 67.2993 35.5066 0.0000 -15.4596 0.0000
# 3 29.1253 35.5066 113.4262 0.0000 -8.7355 0.0000
# 4 0.0000 0.0000 0.0000 8.0544 0.0000 20.3432
# 5 -19.7972 -15.4596 -8.7355 0.0000 37.9547 0.0000
# 6 0.0000 0.0000 0.0000 20.3432 0.0000 3.7544
#
#
#
# Elastic Compliance Matrix: (Units=1/GPa)
#
#
# Indices 1 2 3 4 5 6 
#
# 1 0.013203 -0.004053 -0.001749 0.000000 0.004833 0.000000
# 2 -0.004053 0.020534 -0.004994 0.000000 0.005100 0.000000
# 3 -0.001749 -0.004994 0.010793 0.000000 -0.000463 0.000000
# 4 0.000000 0.000000 0.000000 -0.009787 0.000000 0.053032
# 5 0.004833 0.005100 -0.000463 0.000000 0.030839 0.000000
# 6 0.000000 0.000000 0.000000 0.053032 0.000000 -0.020997
#
#
# Mechanical properties :
#
#
# Convention : Reuss Voigt Hill
#
# Bulk Modulus (GPa) = 43.59767 52.04486 47.82126
# Shear Modulus (GPa) = 67.72849 22.04876 44.88863
#
# Velocity S-wave (km/s) = 5.76613 3.28996 4.69426
# Velocity P-wave (km/s) = 8.10761 6.32305 7.27029
#
# Compressibility (1/GPa) = 0.02293701
#
# Stress axis : x y z
#
# Youngs Moduli (GPa) = 75.74081 48.70020 92.65031
#
# Poissons Ratio (x) = 0.19737 0.16207
# Poissons Ratio (y) = 0.30697 0.46273
# Poissons Ratio (z) = 0.13249 0.24323
#
# Static dielectric constant tensor:
#      x y z
#    x 1.879790 0.000000 -0.046420 
#    y 0.000000 1.737200 0.000000 
#    z -0.046420 0.000000 1.791060 
# 
# From -- ./inp_files/81474.got.cif
#   From: 2010.05.17/outbox.cif.g08.bks.cpg/sg15_41_cif.got.tgz:81474.got - 2010.06.03 18:47:42.
