data_PCOD9276107
_publ_section_title
;
Structure prediction by ZEFSAII (Michael W. Deem and Ramdas Pophale) SiO2 
 PCOD9276107
Probable space group: C 2/C
;
_chemical_formula_sum "Si O2"
_cell_formula_units_Z 56
_cell_length_a 18.508625
_cell_length_b 8.864139
_cell_length_c 30.067437
_cell_angle_alpha 90.000000
_cell_angle_beta 142.757463
_cell_angle_gamma 90.000000
_cell_volume 2985.376313
_symmetry_space_group_name_H-M "C 2/C"
_symmetry_group_IT_number 15
_symmetry_cell_setting 'monoclinic'
loop_
_space_group_symop_operation_xyz
x,y,z
-x,y,1/2-z
-x,-y,-z
x,-y,1/2+z
1/2+x,1/2+y,z
1/2-x,1/2+y,1/2-z
1/2-x,1/2-y,-z
1/2+x,1/2-y,1/2+z
loop_
_atom_site_type_symbol
_atom_site_label
_atom_site_fract_x
_atom_site_fract_y
_atom_site_fract_z
Si Si1 0.711913 0.710538 0.031099
Si Si2 0.421980 0.007871 0.506713
Si Si3 0.858924 0.525491 0.174026
Si Si4 0.973952 0.050105 0.936860
Si Si5 0.224431 0.844295 0.693889
Si Si6 0.710547 0.772506 0.611904
Si Si7 0.326379 0.994021 0.831610
O O1 0.811323 0.621558 0.108471
O O2 0.666016 0.866107 0.031373
O O3 0.750000 0.750000 0.000000
O O4 0.595105 0.604325 0.974177
O O5 0.348335 0.161314 0.462032
O O6 0.500000 0.000000 0.500000
O O7 0.528396 0.999248 0.594558
O O8 0.797687 0.602415 0.186778
O O9 0.808404 0.353467 0.148667
O O10 0.000000 0.526655 0.250000
O O11 0.884560 0.188509 0.902321
O O12 0.904966 0.921387 0.876545
O O13 0.000000 0.000000 0.000000
O O14 0.284500 0.906831 0.767583
O O15 0.214100 0.666158 0.690424
O O16 0.736215 0.916433 0.655858
#
# Coordination Sequence:
#
# PCOD9276107 Si02
#       7
#     8   8   8   8   8   8   8
#     4  12  25  41  65 103 135 174 219 274 336 397
#     4  10  20  39  68  92 126 169 223 266 317 398
#     4  11  25  42  65  89 139 179 212 271 346 400
#     4  11  19  39  67  93 124 173 225 265 325 398
#     4  11  23  38  65  97 127 170 226 277 330 393
#     4  10  20  39  68  93 121 172 231 268 320 397
#     4  11  22  36  64 101 125 158 225 289 321 379
#
# _framework density 18.758103999999999
#
# number of rings (size 3 to 8) (size 9 to 14) (size 15 to 20)
#    0.000    1.143    5.714    4.286    2.000    0.000 
#    0.000    6.429    0.000    0.000    0.000    0.000 
#    0.000    0.000    0.000    0.000    0.000    0.000 
#
# Total GULP energy -156211.242212 kJ/mol
# GULP energy per Si atom -5578.972936 kJ/mol
# Density = 1.871541 g / cm^3
# Si number density = 18.758104 Si / 1000 Ang^3
#
#
#
# Elastic Constant Matrix: (Units=GPa)
#
#
# Indices 1 2 3 4 5 6 
#
# 1 95.2504 43.2854 54.5794 0.0000 6.4950 0.0000
# 2 43.2854 159.5546 78.3448 0.0000 5.0867 0.0000
# 3 54.5794 78.3448 155.2409 0.0000 1.1875 0.0000
# 4 0.0000 0.0000 0.0000 36.1198 0.0000 -7.5836
# 5 6.4950 5.0867 1.1875 0.0000 33.2560 0.0000
# 6 0.0000 0.0000 0.0000 -7.5836 0.0000 24.6239
#
#
#
# Elastic Compliance Matrix: (Units=1/GPa)
#
#
# Indices 1 2 3 4 5 6 
#
# 1 0.013682 -0.001710 -0.003930 0.000000 -0.002270 0.000000
# 2 -0.001710 0.008588 -0.003727 0.000000 -0.000847 0.000000
# 3 -0.003930 -0.003727 0.009696 0.000000 0.000991 0.000000
# 4 0.000000 0.000000 0.000000 0.029600 0.000000 0.009116
# 5 -0.002270 -0.000847 0.000991 0.000000 0.030607 0.000000
# 6 0.000000 0.000000 0.000000 0.009116 0.000000 0.043418
#
#
# Mechanical properties :
#
#
# Convention : Reuss Voigt Hill
#
# Bulk Modulus (GPa) = 75.56280 84.71835 80.14058
# Shear Modulus (GPa) = 31.49871 34.38904 32.94388
#
# Velocity S-wave (km/s) = 4.10226 4.28634 4.19531
# Velocity P-wave (km/s) = 7.92516 8.35216 8.14146
#
# Compressibility (1/GPa) = 0.01323403
#
# Stress axis : x y z
#
# Youngs Moduli (GPa) = 73.08613 116.44064 103.13018
#
# Poissons Ratio (x) = 0.19908 0.40533
# Poissons Ratio (y) = 0.12495 0.38432
# Poissons Ratio (z) = 0.28725 0.43392
#
# Static dielectric constant tensor:
#      x y z
#    x 1.609830 0.000000 -0.026310 
#    y 0.000000 1.730280 0.000000 
#    z -0.026310 0.000000 1.673760 
# 
# From -- ./inp_files/298585.got.cif
#   From: 2010.05.17/outbox.cif.g08.bks.cpg/sg15_150_cif.got.tgz:298585.got - 2010.06.03 18:47:42.
