data_PCOD9276873
_publ_section_title
;
Structure prediction by ZEFSAII (Michael W. Deem and Ramdas Pophale) SiO2 
 PCOD9276873
Probable space group: C 2/C
;
_chemical_formula_sum "Si O2"
_cell_formula_units_Z 44
_cell_length_a 23.985688
_cell_length_b 6.378780
_cell_length_c 13.301235
_cell_angle_alpha 90.000000
_cell_angle_beta 55.328211
_cell_angle_gamma 90.000000
_cell_volume 1673.700218
_symmetry_space_group_name_H-M "C 2/C"
_symmetry_group_IT_number 15
_symmetry_cell_setting 'monoclinic'
loop_
_space_group_symop_operation_xyz
x,y,z
-x,y,1/2-z
-x,-y,-z
x,-y,1/2+z
1/2+x,1/2+y,z
1/2-x,1/2+y,1/2-z
1/2-x,1/2-y,-z
1/2+x,1/2-y,1/2+z
loop_
_atom_site_type_symbol
_atom_site_label
_atom_site_fract_x
_atom_site_fract_y
_atom_site_fract_z
Si Si1 0.488653 0.747938 0.039114
Si Si2 0.222129 0.219472 0.881187
Si Si3 0.802878 0.558317 0.449198
Si Si4 0.588079 0.296943 0.269466
Si Si5 0.500000 0.359972 0.750000
Si Si6 0.656048 0.613880 0.346684
O O1 0.509445 0.767475 0.135296
O O2 0.408660 0.763189 0.095572
O O3 0.460854 0.172469 0.100498
O O4 0.500000 0.500000 0.000000
O O5 0.270990 0.278439 0.738554
O O6 0.164408 0.043572 0.931286
O O7 0.276734 0.118580 0.899913
O O8 0.192999 0.436164 0.950939
O O9 0.750000 0.750000 0.500000
O O10 0.874900 0.633331 0.338183
O O11 0.555620 0.473036 0.231354
O O12 0.642974 0.436147 0.274433
#
# Coordination Sequence:
#
# PCOD9276873 Si02
#       6
#     8   8   8   8   4   8
#     4   8  18  36  64 101 132 187 227 288 354 418
#     4  11  24  42  68 103 136 186 229 304 351 428
#     4  11  24  43  66  99 141 182 239 291 355 424
#     4  10  20  41  66  98 138 187 232 285 357 419
#     4   8  16  34  66  94 136 182 230 290 354 408
#     4  10  20  40  66 101 133 180 234 284 362 414
#
# _framework density 26.289057
#
# number of rings (size 3 to 8) (size 9 to 14) (size 15 to 20)
#    0.000    2.545    1.818    1.091    0.000    4.364 
#    9.818    0.909   12.000    1.091    0.000    0.000 
#    0.000    0.000    0.000    0.000    0.000    0.000 
#
# Total GULP energy -122824.429626 kJ/mol
# GULP energy per Si atom -5582.928619 kJ/mol
# Density = 2.622922 g / cm^3
# Si number density = 26.289057 Si / 1000 Ang^3
#
#
#
# Elastic Constant Matrix: (Units=GPa)
#
#
# Indices 1 2 3 4 5 6 
#
# 1 99.9780 24.9171 51.6446 0.0000 -1.9811 -0.0004
# 2 24.9171 77.2591 70.3885 -0.0001 -0.3704 -0.0016
# 3 51.6446 70.3885 178.7890 0.0000 -18.3396 0.0001
# 4 0.0000 -0.0001 0.0000 33.6231 0.0000 7.6670
# 5 -1.9811 -0.3704 -18.3396 0.0000 35.4412 -0.0001
# 6 -0.0004 -0.0016 0.0001 7.6670 -0.0001 41.0430
#
#
#
# Elastic Compliance Matrix: (Units=1/GPa)
#
#
# Indices 1 2 3 4 5 6 
#
# 1 0.011846 -0.000961 -0.003143 0.000000 -0.000974 0.000000
# 2 -0.000961 0.020847 -0.008356 0.000000 -0.004160 0.000001
# 3 -0.003143 -0.008356 0.010311 0.000000 0.005073 0.000000
# 4 0.000000 0.000000 0.000000 0.031065 0.000000 -0.005803
# 5 -0.000974 -0.004160 0.005073 0.000000 0.030743 0.000000
# 6 0.000000 0.000001 0.000000 -0.005803 0.000000 0.025449
#
#
# Mechanical properties :
#
#
# Convention : Reuss Voigt Hill
#
# Bulk Modulus (GPa) = 55.30294 72.21405 63.75850
# Shear Modulus (GPa) = 31.01546 35.95986 33.48766
#
# Velocity S-wave (km/s) = 3.43853 3.70248 3.57294
# Velocity P-wave (km/s) = 6.07016 6.76806 6.42859
#
# Compressibility (1/GPa) = 0.01808222
#
# Stress axis : x y z
#
# Youngs Moduli (GPa) = 84.41512 47.96907 96.98070
#
# Poissons Ratio (x) = 0.04612 0.30484
# Poissons Ratio (y) = 0.08116 0.81040
# Poissons Ratio (z) = 0.26534 0.40084
#
# Static dielectric constant tensor:
#      x y z
#    x 2.164460 0.000000 0.082770 
#    y 0.000000 2.223370 0.000000 
#    z 0.082770 0.000000 2.262600 
# 
# From -- ./inp_files/175638.got.cif
#   From: 2010.05.17/outbox.cif.g08.bks.cpg/sg15_88_cif.got.tgz:175638.got - 2010.06.03 18:47:42.
