data_PCOD9276111
_publ_section_title
;
Structure prediction by ZEFSAII (Michael W. Deem and Ramdas Pophale) SiO2 
 PCOD9276111
Probable space group: C 2/C
;
_chemical_formula_sum "Si O2"
_cell_formula_units_Z 36
_cell_length_a 7.753527
_cell_length_b 17.295295
_cell_length_c 16.831385
_cell_angle_alpha 90.000000
_cell_angle_beta 55.137832
_cell_angle_gamma 90.000000
_cell_volume 1852.001445
_symmetry_space_group_name_H-M "C 2/C"
_symmetry_group_IT_number 15
_symmetry_cell_setting 'monoclinic'
loop_
_space_group_symop_operation_xyz
x,y,z
-x,y,1/2-z
-x,-y,-z
x,-y,1/2+z
1/2+x,1/2+y,z
1/2-x,1/2+y,1/2-z
1/2-x,1/2-y,-z
1/2+x,1/2-y,1/2+z
loop_
_atom_site_type_symbol
_atom_site_label
_atom_site_fract_x
_atom_site_fract_y
_atom_site_fract_z
Si Si1 0.171330 0.832288 0.770654
Si Si2 0.906181 0.966586 0.606399
Si Si3 0.502403 0.960080 0.875049
Si Si4 0.000000 0.209585 0.750000
Si Si5 0.224541 0.074513 0.602051
O O1 0.066896 0.877384 0.873538
O O2 0.322733 0.897873 0.693693
O O3 0.323121 0.763504 0.756981
O O4 0.000000 0.810109 0.750000
O O5 0.661234 0.975933 0.652198
O O6 0.000000 0.000000 0.500000
O O7 0.027684 0.016750 0.639787
O O8 0.619584 0.036685 0.874576
O O9 0.362646 0.925815 0.984959
O O10 0.876445 0.154485 0.844126
#
# Coordination Sequence:
#
# PCOD9276111 Si02
#       5
#     8   8   8   4   8
#     4  12  23  40  61  90 131 173 205 257 319 376
#     4  10  20  39  68  94 117 163 218 257 306 376
#     4  10  20  40  69  90 119 165 217 257 309 374
#     4  12  26  40  58  96 136 162 202 266 330 364
#     4  10  22  39  66  96 121 159 216 267 305 376
#
# _framework density 19.438428999999999
#
# number of rings (size 3 to 8) (size 9 to 14) (size 15 to 20)
#    0.000    1.333    4.444    1.333    0.000    2.667 
#    0.000    1.111    0.000    0.000    0.000    0.000 
#    0.000    0.000    0.000    0.000    0.000    0.000 
#
# Total GULP energy -100371.040923 kJ/mol
# GULP energy per Si atom -5576.168940 kJ/mol
# Density = 1.939419 g / cm^3
# Si number density = 19.438429 Si / 1000 Ang^3
#
#
#
# Elastic Constant Matrix: (Units=GPa)
#
#
# Indices 1 2 3 4 5 6 
#
# 1 184.5911 54.4099 9.8121 0.0000 -4.3330 0.0000
# 2 54.4099 111.9339 34.8818 0.0000 -3.4954 0.0000
# 3 9.8121 34.8818 92.9476 0.0000 -13.3913 0.0000
# 4 0.0000 0.0000 0.0000 22.9757 0.0000 -13.7776
# 5 -4.3330 -3.4954 -13.3913 0.0000 18.6957 0.0000
# 6 0.0000 0.0000 0.0000 -13.7776 0.0000 37.9671
#
#
#
# Elastic Compliance Matrix: (Units=1/GPa)
#
#
# Indices 1 2 3 4 5 6 
#
# 1 0.006382 -0.003297 0.000767 0.000000 0.001412 0.000000
# 2 -0.003297 0.011835 -0.004332 0.000000 -0.001654 0.000000
# 3 0.000767 -0.004332 0.013618 0.000000 0.009122 0.000000
# 4 0.000000 0.000000 0.000000 0.055630 0.000000 0.020187
# 5 0.001412 -0.001654 0.009122 0.000000 0.060040 0.000000
# 6 0.000000 0.000000 0.000000 0.020187 0.000000 0.033664
#
#
# Mechanical properties :
#
#
# Convention : Reuss Voigt Hill
#
# Bulk Modulus (GPa) = 55.21578 65.29779 60.25678
# Shear Modulus (GPa) = 24.88459 35.28563 30.08511
#
# Velocity S-wave (km/s) = 3.58184 4.26520 3.93837
# Velocity P-wave (km/s) = 6.75079 7.61058 7.19354
#
# Compressibility (1/GPa) = 0.01811077
#
# Stress axis : x y z
#
# Youngs Moduli (GPa) = 156.70156 84.49750 73.43438
#
# Poissons Ratio (x) = 0.27858 -0.05633
# Poissons Ratio (y) = 0.51664 0.31809
# Poissons Ratio (z) = -0.12020 0.36601
#
# Static dielectric constant tensor:
#      x y z
#    x 1.688990 0.000000 0.032080 
#    y 0.000000 1.643730 0.000000 
#    z 0.032080 0.000000 1.806310 
# 
# From -- ./inp_files/230593.got.cif
#   From: 2010.05.17/outbox.cif.g08.bks.cpg/sg15_116_cif.got.tgz:230593.got - 2010.06.03 18:47:42.
