data_PCOD9276877
_publ_section_title
;
Structure prediction by ZEFSAII (Michael W. Deem and Ramdas Pophale) SiO2 
 PCOD9276877
Probable space group: C 2/C
;
_chemical_formula_sum "Si O2"
_cell_formula_units_Z 40
_cell_length_a 22.841259
_cell_length_b 10.475622
_cell_length_c 15.549488
_cell_angle_alpha 90.000000
_cell_angle_beta 35.235968
_cell_angle_gamma 90.000000
_cell_volume 2146.596888
_symmetry_space_group_name_H-M "C 2/C"
_symmetry_group_IT_number 15
_symmetry_cell_setting 'monoclinic'
loop_
_space_group_symop_operation_xyz
x,y,z
-x,y,1/2-z
-x,-y,-z
x,-y,1/2+z
1/2+x,1/2+y,z
1/2-x,1/2+y,1/2-z
1/2-x,1/2-y,-z
1/2+x,1/2-y,1/2+z
loop_
_atom_site_type_symbol
_atom_site_label
_atom_site_fract_x
_atom_site_fract_y
_atom_site_fract_z
Si Si1 0.260198 0.391285 0.944016
Si Si2 0.562683 0.877635 0.398598
Si Si3 0.706139 0.549867 0.909451
Si Si4 0.928267 0.289933 0.406767
Si Si5 0.906885 0.098847 0.100458
O O1 0.339354 0.399208 0.770048
O O2 0.250000 0.250000 0.000000
O O3 0.291231 0.474931 0.990048
O O4 0.147328 0.399333 0.038546
O O5 0.679016 0.917817 0.252632
O O6 0.511129 0.843524 0.370702
O O7 0.556209 0.744277 0.457656
O O8 0.500000 0.000000 0.500000
O O9 0.660007 0.445711 0.900692
O O10 0.641241 0.678951 0.971373
O O11 0.000000 0.225246 0.250000
O O12 0.000000 0.000000 0.000000
#
# Coordination Sequence:
#
# PCOD9276877 Si02
#       5
#     8   8   8   8   8
#     4  10  20  40  66 102 130 179 238 285 331 427
#     4  12  24  41  65  96 135 183 228 285 356 417
#     4  11  23  38  68  99 137 169 233 297 344 401
#     4  11  19  38  68  97 125 175 241 280 329 413
#     4  12  24  40  68 105 135 176 237 296 349 411
#
# _framework density 18.634146000000001
#
# number of rings (size 3 to 8) (size 9 to 14) (size 15 to 20)
#    0.000    0.800    8.000    2.400    0.000    0.000 
#    0.000    0.000    4.400    3.600    0.000    0.000 
#    0.000    0.000    0.000    0.000    0.000    0.000 
#
# Total GULP energy -111416.466579 kJ/mol
# GULP energy per Si atom -5570.823329 kJ/mol
# Density = 1.859173 g / cm^3
# Si number density = 18.634146 Si / 1000 Ang^3
#
#
#
# Elastic Constant Matrix: (Units=GPa)
#
#
# Indices 1 2 3 4 5 6 
#
# 1 130.7921 56.2455 33.7239 0.0000 -12.8931 0.0000
# 2 56.2455 107.2505 57.4547 0.0000 -2.8240 0.0000
# 3 33.7239 57.4547 130.2391 0.0000 -13.9839 0.0000
# 4 0.0000 0.0000 0.0000 31.6627 0.0000 -9.7546
# 5 -12.8931 -2.8240 -13.9839 0.0000 36.8641 0.0000
# 6 0.0000 0.0000 0.0000 -9.7546 0.0000 31.5503
#
#
#
# Elastic Compliance Matrix: (Units=1/GPa)
#
#
# Indices 1 2 3 4 5 6 
#
# 1 0.010230 -0.005297 0.000030 0.000000 0.003183 0.000000
# 2 -0.005297 0.014999 -0.005547 0.000000 -0.002808 0.000000
# 3 0.000030 -0.005547 0.010501 0.000000 0.003569 0.000000
# 4 0.000000 0.000000 0.000000 0.034908 0.000000 0.010793
# 5 0.003183 -0.002808 0.003569 0.000000 0.029379 0.000000
# 6 0.000000 0.000000 0.000000 0.010793 0.000000 0.035032
#
#
# Mechanical properties :
#
#
# Convention : Reuss Voigt Hill
#
# Bulk Modulus (GPa) = 70.91383 73.68111 72.29747
# Shear Modulus (GPa) = 30.98331 34.73925 32.86128
#
# Velocity S-wave (km/s) = 4.08207 4.32241 4.20396
# Velocity P-wave (km/s) = 7.76892 8.03354 7.90234
#
# Compressibility (1/GPa) = 0.01410162
#
# Stress axis : x y z
#
# Youngs Moduli (GPa) = 97.75435 66.66963 95.23201
#
# Poissons Ratio (x) = 0.35314 -0.00282
# Poissons Ratio (y) = 0.51779 0.52824
# Poissons Ratio (z) = -0.00289 0.36981
#
# Static dielectric constant tensor:
#      x y z
#    x 1.718120 0.000000 -0.029150 
#    y 0.000000 1.480900 0.000000 
#    z -0.029150 0.000000 1.631430 
# 
# From -- ./inp_files/218769.got.cif
#   From: 2010.05.17/outbox.cif.g08.bks.cpg/sg15_110_cif.got.tgz:218769.got - 2010.06.03 18:47:42.
