data_PCOD9276581
_publ_section_title
;
Structure prediction by ZEFSAII (Michael W. Deem and Ramdas Pophale) SiO2 
 PCOD9276581
Probable space group: C 2/C
;
_chemical_formula_sum "Si O2"
_cell_formula_units_Z 56
_cell_length_a 16.519343
_cell_length_b 9.313767
_cell_length_c 22.396664
_cell_angle_alpha 90.000000
_cell_angle_beta 128.196354
_cell_angle_gamma 90.000000
_cell_volume 2708.112412
_symmetry_space_group_name_H-M "C 2/C"
_symmetry_group_IT_number 15
_symmetry_cell_setting 'monoclinic'
loop_
_space_group_symop_operation_xyz
x,y,z
-x,y,1/2-z
-x,-y,-z
x,-y,1/2+z
1/2+x,1/2+y,z
1/2-x,1/2+y,1/2-z
1/2-x,1/2-y,-z
1/2+x,1/2-y,1/2+z
loop_
_atom_site_type_symbol
_atom_site_label
_atom_site_fract_x
_atom_site_fract_y
_atom_site_fract_z
Si Si1 0.882042 0.105112 0.696119
Si Si2 0.211617 0.613364 0.314442
Si Si3 0.883327 0.309757 0.051059
Si Si4 0.904572 0.317610 0.421509
Si Si5 0.221970 0.312095 0.385446
Si Si6 0.776017 0.431109 0.816191
Si Si7 0.294445 0.119213 0.981442
O O1 0.871183 0.276230 0.697039
O O2 0.803399 0.072506 0.605278
O O3 0.000000 0.061013 0.750000
O O4 0.824852 0.032281 0.726164
O O5 0.319886 0.699837 0.363946
O O6 0.216850 0.470440 0.355838
O O7 0.189510 0.588058 0.235314
O O8 0.877166 0.271585 0.118660
O O9 0.992197 0.298675 0.067943
O O10 0.810827 0.212377 0.975581
O O11 0.839038 0.473303 0.029387
O O12 0.864659 0.477771 0.388696
O O13 0.889949 0.316387 0.486223
O O14 0.246864 0.207710 0.341446
O O15 0.250000 0.250000 0.000000
#
# Coordination Sequence:
#
# PCOD9276581 Si02
#       7
#     8   8   8   8   8   8   8
#     4  10  22  41  60  86 118 161 209 251 314 377
#     4  10  22  41  60  89 123 163 207 258 311 385
#     4  11  22  39  64  92 129 164 211 260 319 385
#     4  10  22  40  62  91 120 167 214 251 318 378
#     4  11  22  39  64  90 130 163 200 266 323 367
#     4  10  21  42  62  87 124 161 204 263 313 372
#     4  10  20  40  63  90 127 165 210 267 313 381
#
# _framework density 20.678611
#
# number of rings (size 3 to 8) (size 9 to 14) (size 15 to 20)
#    0.000    2.000    2.857    3.857    0.000    4.000 
#    2.571    2.143    0.000    0.000    0.000    0.000 
#    0.000    0.000    0.000    0.000    0.000    0.000 
#
# Total GULP energy -156021.753676 kJ/mol
# GULP energy per Si atom -5572.205488 kJ/mol
# Density = 2.063155 g / cm^3
# Si number density = 20.678611 Si / 1000 Ang^3
#
#
#
# Elastic Constant Matrix: (Units=GPa)
#
#
# Indices 1 2 3 4 5 6 
#
# 1 125.3336 3.4908 18.1307 0.0000 2.4639 0.0000
# 2 3.4908 59.6723 -1.6707 0.0000 -11.6535 0.0000
# 3 18.1307 -1.6707 27.9387 0.0000 -15.2237 0.0000
# 4 0.0000 0.0000 0.0000 15.6333 0.0000 -12.2680
# 5 2.4639 -11.6535 -15.2237 0.0000 37.1088 0.0000
# 6 0.0000 0.0000 0.0000 -12.2680 0.0000 27.9381
#
#
#
# Elastic Compliance Matrix: (Units=1/GPa)
#
#
# Indices 1 2 3 4 5 6 
#
# 1 0.009394 -0.001729 -0.008804 0.000000 -0.004778 0.000000
# 2 -0.001729 0.018805 0.007118 0.000000 0.008940 0.000000
# 3 -0.008804 0.007118 0.055982 0.000000 0.025786 0.000000
# 4 0.000000 0.000000 0.000000 0.097597 0.000000 0.042856
# 5 -0.004778 0.008940 0.025786 0.000000 0.040651 0.000000
# 6 0.000000 0.000000 0.000000 0.042856 0.000000 0.054612
#
#
# Mechanical properties :
#
#
# Convention : Reuss Voigt Hill
#
# Bulk Modulus (GPa) = 12.92792 28.09403 20.51097
# Shear Modulus (GPa) = 16.14700 29.00228 22.57464
#
# Velocity S-wave (km/s) = 2.79741 3.74909 3.30766
# Velocity P-wave (km/s) = 4.08649 5.68827 4.95257
#
# Compressibility (1/GPa) = 0.07735197
#
# Stress axis : x y z
#
# Youngs Moduli (GPa) = 106.44734 53.17840 17.86284
#
# Poissons Ratio (x) = 0.09196 0.15726
# Poissons Ratio (y) = 0.18407 -0.12715
# Poissons Ratio (z) = 0.93711 -0.37853
#
# Static dielectric constant tensor:
#      x y z
#    x 1.840560 0.000000 -0.053810 
#    y 0.000000 1.779220 0.000000 
#    z -0.053810 0.000000 1.809180 
# 
# From -- ./inp_files/276598.got.cif
#   From: 2010.05.17/outbox.cif.g08.bks.cpg/sg15_139_cif.got.tgz:276598.got - 2010.06.03 18:47:42.
