data_PCOD9276530
_publ_section_title
;
Structure prediction by ZEFSAII (Michael W. Deem and Ramdas Pophale) SiO2 
 PCOD9276530
Probable space group: C 2/C
;
_chemical_formula_sum "Si O2"
_cell_formula_units_Z 48
_cell_length_a 13.143739
_cell_length_b 16.992299
_cell_length_c 13.076902
_cell_angle_alpha 90.000000
_cell_angle_beta 138.766166
_cell_angle_gamma 90.000000
_cell_volume 1925.082853
_symmetry_space_group_name_H-M "C 2/C"
_symmetry_group_IT_number 15
_symmetry_cell_setting 'monoclinic'
loop_
_space_group_symop_operation_xyz
x,y,z
-x,y,1/2-z
-x,-y,-z
x,-y,1/2+z
1/2+x,1/2+y,z
1/2-x,1/2+y,1/2-z
1/2-x,1/2-y,-z
1/2+x,1/2-y,1/2+z
loop_
_atom_site_type_symbol
_atom_site_label
_atom_site_fract_x
_atom_site_fract_y
_atom_site_fract_z
Si Si1 0.000000 0.638421 0.250000
Si Si2 0.368779 0.062271 0.437916
Si Si3 0.685250 0.433908 0.001960
Si Si4 0.316529 0.414773 0.906908
Si Si5 0.500000 0.698327 0.250000
Si Si6 0.627584 0.170694 0.706340
Si Si7 0.633626 0.755912 0.006874
O O1 0.156994 0.591099 0.353239
O O2 0.003732 0.691688 0.354838
O O3 0.275748 0.039786 0.468792
O O4 0.247383 0.075242 0.255501
O O5 0.459678 0.140490 0.542875
O O6 0.500000 0.000000 0.500000
O O7 0.599798 0.509456 0.983431
O O8 0.795588 0.400696 0.174719
O O9 0.584530 0.359688 0.891904
O O10 0.404577 0.332569 0.988051
O O11 0.389188 0.756401 0.229492
O O12 0.701354 0.198911 0.655952
O O13 0.750000 0.750000 0.000000
#
# Coordination Sequence:
#
# PCOD9276530 Si02
#       7
#     4   8   8   8   4   8   8
#     4  10  20  40  62  96 132 184 230 282 352 418
#     4  12  23  42  74 108 137 180 250 307 347 422
#     4  12  27  45  71 108 143 195 241 298 371 433
#     4  11  23  40  65  99 139 174 238 292 354 421
#     4  12  28  46  72 102 154 194 242 300 370 446
#     4  12  24  45  72 104 139 191 252 300 354 437
#     4  10  24  39  65 101 140 179 231 298 360 429
#
# _framework density 24.933990999999999
#
# number of rings (size 3 to 8) (size 9 to 14) (size 15 to 20)
#    0.000    0.667    5.000    2.500    4.667    0.667 
#    0.000    3.333    0.000    0.000    0.000    0.000 
#    0.000    0.000    0.000    0.000    0.000    0.000 
#
# Total GULP energy -134358.342971 kJ/mol
# GULP energy per Si atom -5598.264290 kJ/mol
# Density = 2.487724 g / cm^3
# Si number density = 24.933991 Si / 1000 Ang^3
#
#
#
# Elastic Constant Matrix: (Units=GPa)
#
#
# Indices 1 2 3 4 5 6 
#
# 1 102.6579 17.9963 19.0010 0.0000 -31.2710 0.0000
# 2 17.9963 122.3098 49.3620 0.0000 -27.8012 0.0000
# 3 19.0010 49.3620 98.9577 0.0000 -40.0619 0.0000
# 4 0.0000 0.0000 0.0000 54.6362 0.0000 -6.0343
# 5 -31.2710 -27.8012 -40.0619 0.0000 45.5521 0.0000
# 6 0.0000 0.0000 0.0000 -6.0343 0.0000 25.2788
#
#
#
# Elastic Compliance Matrix: (Units=1/GPa)
#
#
# Indices 1 2 3 4 5 6 
#
# 1 0.012499 -0.000292 0.001782 0.000000 0.009969 0.000000
# 2 -0.000292 0.010467 -0.004131 0.000000 0.002555 0.000000
# 3 0.001782 -0.004131 0.017545 0.000000 0.014132 0.000000
# 4 0.000000 0.000000 0.000000 0.018798 0.000000 0.004487
# 5 0.009969 0.002555 0.014132 0.000000 0.042785 0.000000
# 6 0.000000 0.000000 0.000000 0.004487 0.000000 0.040630
#
#
# Mechanical properties :
#
#
# Convention : Reuss Voigt Hill
#
# Bulk Modulus (GPa) = 28.38596 55.18269 41.78433
# Shear Modulus (GPa) = 31.29898 40.93117 36.11507
#
# Velocity S-wave (km/s) = 3.54683 4.05604 3.80995
# Velocity P-wave (km/s) = 5.30872 6.64190 6.01237
#
# Compressibility (1/GPa) = 0.03522868
#
# Stress axis : x y z
#
# Youngs Moduli (GPa) = 80.00449 95.54130 56.99613
#
# Poissons Ratio (x) = 0.02791 -0.10155
# Poissons Ratio (y) = 0.02337 0.23543
# Poissons Ratio (z) = -0.14254 0.39465
#
# Static dielectric constant tensor:
#      x y z
#    x 2.019750 0.000000 0.045720 
#    y 0.000000 2.026240 0.000000 
#    z 0.045720 0.000000 1.966970 
# 
# From -- ./inp_files/162395.got.cif
#   From: 2010.05.17/outbox.cif.g08.bks.cpg/sg15_82_cif.got.tgz:162395.got - 2010.06.03 18:47:42.
