data_PCOD9276349
_publ_section_title
;
Structure prediction by ZEFSAII (Michael W. Deem and Ramdas Pophale) SiO2 
 PCOD9276349
Probable space group: C 2/C
;
_chemical_formula_sum "Si O2"
_cell_formula_units_Z 60
_cell_length_a 23.810334
_cell_length_b 7.300669
_cell_length_c 24.480577
_cell_angle_alpha 90.000000
_cell_angle_beta 141.016835
_cell_angle_gamma 90.000000
_cell_volume 2677.096159
_symmetry_space_group_name_H-M "C 2/C"
_symmetry_group_IT_number 15
_symmetry_cell_setting 'monoclinic'
loop_
_space_group_symop_operation_xyz
x,y,z
-x,y,1/2-z
-x,-y,-z
x,-y,1/2+z
1/2+x,1/2+y,z
1/2-x,1/2+y,1/2-z
1/2-x,1/2-y,-z
1/2+x,1/2-y,1/2+z
loop_
_atom_site_type_symbol
_atom_site_label
_atom_site_fract_x
_atom_site_fract_y
_atom_site_fract_z
Si Si1 0.399293 0.679242 0.095711
Si Si2 0.500000 0.043349 0.750000
Si Si3 0.764883 0.166043 0.087613
Si Si4 0.822876 0.295109 0.290102
Si Si5 0.848723 0.483383 0.708676
Si Si6 0.289329 0.841391 0.384333
Si Si7 0.059700 0.898610 0.465384
Si Si8 0.877188 0.907447 0.374942
O O1 0.463150 0.816325 0.176371
O O2 0.331434 0.600586 0.090289
O O3 0.441702 0.523246 0.089752
O O4 0.333828 0.801914 0.009415
O O5 0.428000 0.925137 0.728527
O O6 0.798330 0.360979 0.135038
O O7 0.759811 0.016520 0.130149
O O8 0.873954 0.410491 0.283138
O O9 0.831207 0.377594 0.356972
O O10 0.857407 0.090466 0.324597
O O11 0.717179 0.304403 0.195462
O O12 0.782824 0.321284 0.675135
O O13 0.366770 0.761242 0.481849
O O14 0.093549 0.026648 0.542148
O O15 0.963434 0.822269 0.410930
#
# Coordination Sequence:
#
# PCOD9276349 Si02
#       8
#     8   4   8   8   8   8   8   8
#     4  10  20  42  63  89 123 172 212 270 323 385
#     4  10  24  40  68  92 126 168 216 272 334 378
#     4  10  22  39  67  90 123 173 222 249 325 397
#     4  11  19  38  63  92 126 171 210 256 329 377
#     4  11  21  44  63  94 134 168 214 270 319 388
#     4  11  23  39  66 100 127 177 212 267 327 386
#     4  10  20  40  60  92 128 168 216 265 325 379
#     4  10  21  35  63  92 129 170 212 270 317 389
#
# _framework density 22.412344000000001
#
# number of rings (size 3 to 8) (size 9 to 14) (size 15 to 20)
#    0.000    1.600    4.000    1.600    0.000    1.600 
#    2.400    2.667    0.000    6.400    0.000    0.000 
#    0.000    0.000    0.000    0.000    0.000    0.000 
#
# Total GULP energy -167703.038876 kJ/mol
# GULP energy per Si atom -5590.101296 kJ/mol
# Density = 2.236133 g / cm^3
# Si number density = 22.412344 Si / 1000 Ang^3
#
#
#
# Elastic Constant Matrix: (Units=GPa)
#
#
# Indices 1 2 3 4 5 6 
#
# 1 109.9583 21.0596 11.9848 0.0000 -8.3370 0.0000
# 2 21.0596 26.0675 -4.6352 0.0000 -5.3098 0.0002
# 3 11.9848 -4.6352 23.4207 0.0000 -17.1813 0.0000
# 4 0.0000 0.0000 0.0000 12.8401 0.0000 -8.2982
# 5 -8.3370 -5.3098 -17.1813 0.0000 31.9015 0.0001
# 6 0.0000 0.0002 0.0000 -8.2982 0.0001 14.9915
#
#
#
# Elastic Compliance Matrix: (Units=1/GPa)
#
#
# Indices 1 2 3 4 5 6 
#
# 1 0.012906 -0.014377 -0.014433 0.000000 -0.006793 0.000000
# 2 -0.014377 0.063143 0.041010 -0.000001 0.028839 -0.000002
# 3 -0.014433 0.041010 0.099915 -0.000002 0.056865 -0.000002
# 4 0.000000 -0.000001 -0.000002 0.121259 -0.000001 0.067120
# 5 -0.006793 0.028839 0.056865 -0.000001 0.064997 -0.000002
# 6 0.000000 -0.000002 -0.000002 0.067120 -0.000002 0.103857
#
#
# Mechanical properties :
#
#
# Convention : Reuss Voigt Hill
#
# Bulk Modulus (GPa) = 4.99092 24.02943 14.51017
# Shear Modulus (GPa) = 9.83353 20.68245 15.25799
#
# Velocity S-wave (km/s) = 2.09692 3.04108 2.61202
# Velocity P-wave (km/s) = 2.84508 4.80372 3.94779
#
# Compressibility (1/GPa) = 0.20036406
#
# Stress axis : x y z
#
# Youngs Moduli (GPa) = 77.48429 15.83705 10.00851
#
# Poissons Ratio (x) = 0.22768 0.14445
# Poissons Ratio (y) = 1.11396 -0.41044
# Poissons Ratio (z) = 1.11832 -0.64947
#
# Static dielectric constant tensor:
#      x y z
#    x 1.849140 0.000000 0.001310 
#    y 0.000000 1.799120 0.000000 
#    z 0.001310 0.000000 1.859950 
# 
# From -- ./inp_files/281700.got.cif
#   From: 2010.05.17/outbox.cif.g08.bks.cpg/sg15_141_cif.got.tgz:281700.got - 2010.06.03 18:47:42.
