data_PCOD9276590
_publ_section_title
;
Structure prediction by ZEFSAII (Michael W. Deem and Ramdas Pophale) SiO2 
 PCOD9276590
Probable space group: C 2/C
;
_chemical_formula_sum "Si O2"
_cell_formula_units_Z 48
_cell_length_a 18.628488
_cell_length_b 9.037183
_cell_length_c 23.077000
_cell_angle_alpha 90.000000
_cell_angle_beta 31.613820
_cell_angle_gamma 90.000000
_cell_volume 2036.478679
_symmetry_space_group_name_H-M "C 2/C"
_symmetry_group_IT_number 15
_symmetry_cell_setting 'monoclinic'
loop_
_space_group_symop_operation_xyz
x,y,z
-x,y,1/2-z
-x,-y,-z
x,-y,1/2+z
1/2+x,1/2+y,z
1/2-x,1/2+y,1/2-z
1/2-x,1/2-y,-z
1/2+x,1/2-y,1/2+z
loop_
_atom_site_type_symbol
_atom_site_label
_atom_site_fract_x
_atom_site_fract_y
_atom_site_fract_z
Si Si1 0.850679 0.532473 0.076098
Si Si2 0.957457 0.791956 0.946575
Si Si3 0.825624 0.920907 0.528827
Si Si4 0.966885 0.650421 0.394767
Si Si5 0.753217 0.738085 0.696266
Si Si6 0.581529 0.888947 0.142368
O O1 0.742509 0.435830 0.185772
O O2 0.869229 0.450160 0.001726
O O3 0.000000 0.500000 0.000000
O O4 0.851828 0.705712 0.062385
O O5 0.113169 0.749258 0.855519
O O6 0.918496 0.725912 0.910481
O O7 0.944399 0.965336 0.963642
O O8 0.883636 0.800934 0.443339
O O9 0.782673 0.829771 0.616116
O O10 0.717781 0.032798 0.573373
O O11 0.999864 0.537766 0.320863
O O12 0.113782 0.699182 0.319001
O O13 0.500000 0.813119 0.250000
#
# Coordination Sequence:
#
# PCOD9276590 Si02
#       6
#     8   8   8   8   8   8
#     4   8  18  37  56  83 121 159 192 250 316 364
#     4  10  22  39  61  91 127 165 201 267 320 368
#     4  11  22  40  64  91 124 160 219 259 309 379
#     4  10  21  38  64  89 118 163 213 257 308 378
#     4  10  20  40  63  92 123 162 212 259 315 379
#     4  11  22  43  62  87 130 174 204 252 324 380
#
# _framework density 23.570098000000002
#
# number of rings (size 3 to 8) (size 9 to 14) (size 15 to 20)
#    0.000    2.000    1.667    1.500    0.000    4.000 
#   12.000    0.833    0.000    0.000    0.000    0.000 
#    0.000    0.000    0.000    0.000    0.000    0.000 
#
# Total GULP energy -133753.684690 kJ/mol
# GULP energy per Si atom -5573.070195 kJ/mol
# Density = 2.351645 g / cm^3
# Si number density = 23.570098 Si / 1000 Ang^3
#
#
#
# Elastic Constant Matrix: (Units=GPa)
#
#
# Indices 1 2 3 4 5 6 
#
# 1 72.7838 1.4012 0.5965 0.0000 2.0868 0.0000
# 2 1.4012 103.7361 15.7393 -0.0001 8.6239 0.0000
# 3 0.5965 15.7393 34.6248 -0.0003 -4.1700 0.0000
# 4 0.0000 -0.0001 -0.0003 15.5072 0.0001 -6.1517
# 5 2.0868 8.6239 -4.1700 0.0001 24.6710 0.0000
# 6 0.0000 0.0000 0.0000 -6.1517 0.0000 27.5745
#
#
#
# Elastic Compliance Matrix: (Units=1/GPa)
#
#
# Indices 1 2 3 4 5 6 
#
# 1 0.013778 -0.000029 -0.000371 0.000000 -0.001218 0.000000
# 2 -0.000029 0.010869 -0.005510 0.000000 -0.004728 0.000000
# 3 -0.000371 -0.005510 0.032285 0.000001 0.007414 0.000000
# 4 0.000000 0.000000 0.000001 0.070747 0.000000 0.015783
# 5 -0.001218 -0.004728 0.007414 0.000000 0.043542 0.000000
# 6 0.000000 0.000000 0.000000 0.015783 0.000000 0.039787
#
#
# Mechanical properties :
#
#
# Convention : Reuss Voigt Hill
#
# Bulk Modulus (GPa) = 22.16644 27.40208 24.78426
# Shear Modulus (GPa) = 21.02032 26.44438 23.73235
#
# Velocity S-wave (km/s) = 2.98958 3.35318 3.17659
# Velocity P-wave (km/s) = 4.61970 5.16166 4.89819
#
# Compressibility (1/GPa) = 0.04511324
#
# Stress axis : x y z
#
# Youngs Moduli (GPa) = 72.58037 92.00249 30.97421
#
# Poissons Ratio (x) = 0.00262 0.01149
# Poissons Ratio (y) = 0.00207 0.17066
# Poissons Ratio (z) = 0.02694 0.50691
#
# Static dielectric constant tensor:
#      x y z
#    x 2.006290 0.000000 0.046410 
#    y 0.000000 1.917250 0.000000 
#    z 0.046410 0.000000 1.977670 
# 
# From -- ./inp_files/180716.got.cif
#   From: 2010.05.17/outbox.cif.g08.bks.cpg/sg15_91_cif.got.tgz:180716.got - 2010.06.03 18:47:42.
