data_PCOD9276622
_publ_section_title
;
Structure prediction by ZEFSAII (Michael W. Deem and Ramdas Pophale) SiO2 
 PCOD9276622
Probable space group: C 2/C
;
_chemical_formula_sum "Si O2"
_cell_formula_units_Z 56
_cell_length_a 5.117900
_cell_length_b 26.927599
_cell_length_c 16.986995
_cell_angle_alpha 90.000000
_cell_angle_beta 76.291658
_cell_angle_gamma 90.000000
_cell_volume 2274.339687
_symmetry_space_group_name_H-M "C 2/C"
_symmetry_group_IT_number 15
_symmetry_cell_setting 'monoclinic'
loop_
_space_group_symop_operation_xyz
x,y,z
-x,y,1/2-z
-x,-y,-z
x,-y,1/2+z
1/2+x,1/2+y,z
1/2-x,1/2+y,1/2-z
1/2-x,1/2-y,-z
1/2+x,1/2-y,1/2+z
loop_
_atom_site_type_symbol
_atom_site_label
_atom_site_fract_x
_atom_site_fract_y
_atom_site_fract_z
Si Si1 0.912926 0.634312 0.165585
Si Si2 0.978318 0.070948 0.834561
Si Si3 0.578073 0.114713 0.990917
Si Si4 0.649266 0.971626 0.824377
Si Si5 0.549252 0.752961 0.838738
Si Si6 0.252905 0.029022 0.946024
Si Si7 0.547606 0.779108 0.072112
O O1 0.734463 0.584094 0.173888
O O2 0.000000 0.635676 0.250000
O O3 0.830944 0.691174 0.156394
O O4 0.127992 0.623673 0.080218
O O5 0.814345 0.095988 0.916929
O O6 0.000000 0.098577 0.750000
O O7 0.245910 0.056026 0.860597
O O8 0.845659 0.017754 0.823368
O O9 0.345168 0.074288 0.992964
O O10 0.491959 0.167057 0.961447
O O11 0.500000 0.972209 0.750000
O O12 0.445991 0.983921 0.909914
O O13 0.500000 0.745178 0.750000
O O14 0.778561 0.718424 0.859871
O O15 0.249866 0.745380 0.897299
O O16 0.000000 0.000000 0.000000
O O17 0.750000 0.750000 0.000000
#
# Coordination Sequence:
#
# PCOD9276622 Si02
#       7
#     8   8   8   8   8   8   8
#     4  10  22  44  72 101 140 185 244 307 369 442
#     4  11  23  42  67  99 146 189 237 296 359 443
#     4  11  26  43  70 107 140 187 246 296 375 445
#     4  10  20  40  63  98 137 181 234 286 357 428
#     4  11  26  51  76 113 149 196 252 318 378 453
#     4  11  23  40  67  98 140 183 232 295 356 433
#     4  12  26  48  79 107 153 195 249 313 384 452
#
# _framework density 24.622532
#
# number of rings (size 3 to 8) (size 9 to 14) (size 15 to 20)
#    0.000    1.143    2.857    2.571    2.000    4.000 
#    5.143    0.000    0.000    0.000    0.000    0.000 
#    0.000    0.000    0.000    0.000    0.000    0.000 
#
# Total GULP energy -156187.932224 kJ/mol
# GULP energy per Si atom -5578.140437 kJ/mol
# Density = 2.456649 g / cm^3
# Si number density = 24.622532 Si / 1000 Ang^3
#
#
#
# Elastic Constant Matrix: (Units=GPa)
#
#
# Indices 1 2 3 4 5 6 
#
# 1 50.1764 25.2609 15.9471 0.0000 -1.8726 0.0000
# 2 25.2609 131.3564 43.3231 0.0000 2.8983 0.0000
# 3 15.9471 43.3231 161.1969 0.0000 5.4978 0.0000
# 4 0.0000 0.0000 0.0000 35.6854 0.0000 8.9051
# 5 -1.8726 2.8983 5.4978 0.0000 53.4187 0.0000
# 6 0.0000 0.0000 0.0000 8.9051 0.0000 12.0674
#
#
#
# Elastic Compliance Matrix: (Units=1/GPa)
#
#
# Indices 1 2 3 4 5 6 
#
# 1 0.022326 -0.003925 -0.001192 0.000000 0.001118 0.000000
# 2 -0.003925 0.009046 -0.002029 0.000000 -0.000420 0.000000
# 3 -0.001192 -0.002029 0.006889 0.000000 -0.000641 0.000000
# 4 0.000000 0.000000 0.000000 0.034348 0.000000 -0.025347
# 5 0.001118 -0.000420 -0.000641 0.000000 0.018848 0.000000
# 6 0.000000 0.000000 0.000000 -0.025347 0.000000 0.101572
#
#
# Mechanical properties :
#
#
# Convention : Reuss Voigt Hill
#
# Bulk Modulus (GPa) = 41.71949 56.86578 49.29264
# Shear Modulus (GPa) = 23.22233 37.44755 30.33494
#
# Velocity S-wave (km/s) = 3.07438 3.90406 3.51379
# Velocity P-wave (km/s) = 5.43901 6.59298 6.04360
#
# Compressibility (1/GPa) = 0.02396961
#
# Stress axis : x y z
#
# Youngs Moduli (GPa) = 44.79025 110.54595 145.16815
#
# Poissons Ratio (x) = 0.43390 0.17304
# Poissons Ratio (y) = 0.17581 0.29448
# Poissons Ratio (z) = 0.05339 0.22425
#
# Static dielectric constant tensor:
#      x y z
#    x 1.962960 0.000000 0.052570 
#    y 0.000000 1.963010 0.000000 
#    z 0.052570 0.000000 2.049200 
# 
# From -- ./inp_files/186098.got.cif
#   From: 2010.05.17/outbox.cif.g08.bks.cpg/sg15_94_cif.got.tgz:186098.got - 2010.06.03 18:47:42.
