data_PCOD9276840
_publ_section_title
;
Structure prediction by ZEFSAII (Michael W. Deem and Ramdas Pophale) SiO2 
 PCOD9276840
Probable space group: C 2/C
;
_chemical_formula_sum "Si O2"
_cell_formula_units_Z 40
_cell_length_a 29.837313
_cell_length_b 9.736415
_cell_length_c 18.197065
_cell_angle_alpha 90.000000
_cell_angle_beta 21.980059
_cell_angle_gamma 90.000000
_cell_volume 1978.614799
_symmetry_space_group_name_H-M "C 2/C"
_symmetry_group_IT_number 15
_symmetry_cell_setting 'monoclinic'
loop_
_space_group_symop_operation_xyz
x,y,z
-x,y,1/2-z
-x,-y,-z
x,-y,1/2+z
1/2+x,1/2+y,z
1/2-x,1/2+y,1/2-z
1/2-x,1/2-y,-z
1/2+x,1/2-y,1/2+z
loop_
_atom_site_type_symbol
_atom_site_label
_atom_site_fract_x
_atom_site_fract_y
_atom_site_fract_z
Si Si1 0.028469 0.662009 0.949887
Si Si2 0.607288 0.755456 0.696545
Si Si3 0.000000 0.516830 0.250000
Si Si4 0.760779 0.887988 0.159619
Si Si5 0.359417 0.148302 0.082951
Si Si6 0.000000 0.972794 0.250000
O O1 0.967202 0.730552 0.114234
O O2 0.966433 0.707818 0.969673
O O3 0.000000 0.500000 0.000000
O O4 0.171456 0.669888 0.733832
O O5 0.750000 0.750000 0.500000
O O6 0.571418 0.886158 0.699516
O O7 0.558449 0.625571 0.723901
O O8 0.911028 0.419814 0.431042
O O9 0.766198 0.768795 0.211325
O O10 0.703616 0.025793 0.278001
O O11 0.893440 0.928590 0.936959
#
# Coordination Sequence:
#
# PCOD9276840 Si02
#       6
#     8   8   4   8   8   4
#     4  10  20  40  65  93 128 174 210 267 325 387
#     4  11  22  39  68  99 132 171 223 267 327 392
#     4  11  23  40  62 100 128 178 206 266 334 380
#     4  11  23  44  64  95 132 172 216 275 320 390
#     4  11  24  42  68  93 133 169 217 265 333 385
#     4  11  25  40  66  98 132 170 224 270 324 388
#
# _framework density 20.216165
#
# number of rings (size 3 to 8) (size 9 to 14) (size 15 to 20)
#    0.000    1.200    4.000    4.200    5.600    0.000 
#    3.600    4.000    0.000    0.000    0.000    0.000 
#    0.000    0.000    0.000    0.000    0.000    0.000 
#
# Total GULP energy -111607.051017 kJ/mol
# GULP energy per Si atom -5580.352551 kJ/mol
# Density = 2.017015 g / cm^3
# Si number density = 20.216165 Si / 1000 Ang^3
#
#
#
# Elastic Constant Matrix: (Units=GPa)
#
#
# Indices 1 2 3 4 5 6 
#
# 1 94.1017 31.1790 24.6738 0.0000 -29.4829 0.0000
# 2 31.1790 56.7513 6.6299 0.0000 -18.9628 0.0000
# 3 24.6738 6.6299 106.7175 0.0000 -20.4051 0.0000
# 4 0.0000 0.0000 0.0000 30.5191 0.0000 0.5765
# 5 -29.4829 -18.9628 -20.4051 0.0000 45.4287 0.0000
# 6 0.0000 0.0000 0.0000 0.5765 0.0000 16.6051
#
#
#
# Elastic Compliance Matrix: (Units=1/GPa)
#
#
# Indices 1 2 3 4 5 6 
#
# 1 0.015115 -0.005914 -0.001886 0.000000 0.006494 0.000000
# 2 -0.005914 0.022806 0.001134 0.000000 0.006191 0.000000
# 3 -0.001886 0.001134 0.010494 0.000000 0.003963 0.000000
# 4 0.000000 0.000000 0.000000 0.032788 0.000000 -0.001138
# 5 0.006494 0.006191 0.003963 0.000000 0.030592 0.000000
# 6 0.000000 0.000000 0.000000 -0.001138 0.000000 0.060262
#
#
# Mechanical properties :
#
#
# Convention : Reuss Voigt Hill
#
# Bulk Modulus (GPa) = 28.50270 42.50397 35.50334
# Shear Modulus (GPa) = 25.37009 31.51644 28.44326
#
# Velocity S-wave (km/s) = 3.54636 3.95267 3.75501
# Velocity P-wave (km/s) = 5.55864 6.47316 6.03325
#
# Compressibility (1/GPa) = 0.03508439
#
# Stress axis : x y z
#
# Youngs Moduli (GPa) = 66.15742 43.84795 95.29408
#
# Poissons Ratio (x) = 0.25932 0.17969
# Poissons Ratio (y) = 0.39126 -0.10809
# Poissons Ratio (z) = 0.12475 -0.04974
#
# Static dielectric constant tensor:
#      x y z
#    x 1.939350 0.000000 -0.133210 
#    y 0.000000 1.730030 0.000000 
#    z -0.133210 0.000000 1.792610 
# 
# From -- ./inp_files/126374.got.cif
#   From: 2010.05.17/outbox.cif.g08.bks.cpg/sg15_64_cif.got.tgz:126374.got - 2010.06.03 18:47:42.
