data_PCOD9276841
_publ_section_title
;
Structure prediction by ZEFSAII (Michael W. Deem and Ramdas Pophale) SiO2 
 PCOD9276841
Probable space group: C 2/C
;
_chemical_formula_sum "Si O2"
_cell_formula_units_Z 60
_cell_length_a 21.455587
_cell_length_b 23.555425
_cell_length_c 13.083600
_cell_angle_alpha 90.000000
_cell_angle_beta 26.090936
_cell_angle_gamma 90.000000
_cell_volume 2908.110899
_symmetry_space_group_name_H-M "C 2/C"
_symmetry_group_IT_number 15
_symmetry_cell_setting 'monoclinic'
loop_
_space_group_symop_operation_xyz
x,y,z
-x,y,1/2-z
-x,-y,-z
x,-y,1/2+z
1/2+x,1/2+y,z
1/2-x,1/2+y,1/2-z
1/2-x,1/2-y,-z
1/2+x,1/2-y,1/2+z
loop_
_atom_site_type_symbol
_atom_site_label
_atom_site_fract_x
_atom_site_fract_y
_atom_site_fract_z
Si Si1 0.500000 0.245516 0.750000
Si Si2 0.026944 0.159182 0.360515
Si Si3 0.053390 0.676622 0.063701
Si Si4 0.605550 0.865297 0.889278
Si Si5 0.156946 0.462505 0.972998
Si Si6 0.788408 0.786480 0.752209
Si Si7 0.795551 0.607475 0.897818
Si Si8 0.267821 0.422741 0.229009
O O1 0.530363 0.283208 0.604590
O O2 0.653725 0.215652 0.528884
O O3 0.089718 0.174598 0.377644
O O4 0.921265 0.106372 0.511852
O O5 0.160502 0.147353 0.090504
O O6 0.000000 0.699706 0.250000
O O7 0.929752 0.647929 0.176660
O O8 0.138358 0.726497 0.880264
O O9 0.161740 0.625554 0.925641
O O10 0.717617 0.819082 0.761768
O O11 0.648996 0.924870 0.880291
O O12 0.446132 0.861269 0.170724
O O13 0.218982 0.425282 0.974205
O O14 0.000000 0.476314 0.250000
O O15 0.244155 0.518966 0.822440
O O16 0.780767 0.569152 0.817977
#
# Coordination Sequence:
#
# PCOD9276841 Si02
#       8
#     4   8   8   8   8   8   8   8
#     4  12  20  36  64  96 128 166 210 264 322 382
#     4  12  21  38  60  93 132 161 206 264 323 384
#     4  11  25  43  65  90 128 175 220 262 316 386
#     4  10  22  42  64  95 123 162 224 261 315 383
#     4  10  22  40  69  94 124 170 216 273 317 377
#     4  12  23  39  64  97 127 172 209 266 327 379
#     4  10  20  40  65  93 129 165 205 275 324 373
#     4  11  23  41  62  97 127 165 219 262 327 381
#
# _framework density 20.63195
#
# number of rings (size 3 to 8) (size 9 to 14) (size 15 to 20)
#    0.000    1.067    4.000    3.200    0.933    6.933 
#    0.000    0.000    0.000    0.000    0.000    0.000 
#    0.000    0.000    0.000    0.000    0.000    0.000 
#
# Total GULP energy -167246.778737 kJ/mol
# GULP energy per Si atom -5574.892625 kJ/mol
# Density = 2.058499 g / cm^3
# Si number density = 20.631950 Si / 1000 Ang^3
#
#
#
# Elastic Constant Matrix: (Units=GPa)
#
#
# Indices 1 2 3 4 5 6 
#
# 1 100.1569 25.3871 35.9240 0.0010 -8.5340 -0.0023
# 2 25.3871 68.1719 23.9931 0.0011 -6.6121 -0.0008
# 3 35.9240 23.9931 35.9064 0.0003 -0.9204 -0.0004
# 4 0.0010 0.0011 0.0003 36.8777 0.0003 -3.2431
# 5 -8.5340 -6.6121 -0.9204 0.0003 29.5218 0.0009
# 6 -0.0023 -0.0008 -0.0004 -3.2431 0.0009 18.2890
#
#
#
# Elastic Compliance Matrix: (Units=1/GPa)
#
#
# Indices 1 2 3 4 5 6 
#
# 1 0.016064 0.000052 -0.016001 0.000000 0.004157 0.000001
# 2 0.000052 0.019639 -0.013072 0.000000 0.004006 0.000000
# 3 -0.016001 -0.013072 0.052442 0.000000 -0.005918 -0.000001
# 4 0.000000 0.000000 0.000000 0.027546 -0.000001 0.004885
# 5 0.004157 0.004006 -0.005918 -0.000001 0.035788 -0.000001
# 6 0.000001 0.000000 -0.000001 0.004885 -0.000001 0.055544
#
#
# Mechanical properties :
#
#
# Convention : Reuss Voigt Hill
#
# Bulk Modulus (GPa) = 33.21862 41.64930 37.43396
# Shear Modulus (GPa) = 18.17531 24.86645 21.52088
#
# Velocity S-wave (km/s) = 2.97127 3.47542 3.23319
# Velocity P-wave (km/s) = 5.28269 6.02788 5.66755
#
# Compressibility (1/GPa) = 0.03010359
#
# Stress axis : x y z
#
# Youngs Moduli (GPa) = 62.24987 50.91970 19.06869
#
# Poissons Ratio (x) = -0.00266 0.30511
# Poissons Ratio (y) = -0.00325 0.24927
# Poissons Ratio (z) = 0.99603 0.66565
#
# Static dielectric constant tensor:
#      x y z
#    x 1.785860 0.000000 -0.003130 
#    y 0.000000 1.768280 0.000000 
#    z -0.003130 0.000000 1.762660 
# 
# From -- ./inp_files/114814.got.cif
#   From: 2010.05.17/outbox.cif.g08.bks.cpg/sg15_58_cif.got.tgz:114814.got - 2010.06.03 18:47:42.
