data_PCOD9276708
_publ_section_title
;
Structure prediction by ZEFSAII (Michael W. Deem and Ramdas Pophale) SiO2 
 PCOD9276708
Probable space group: C 2/C
;
_chemical_formula_sum "Si O2"
_cell_formula_units_Z 44
_cell_length_a 15.908163
_cell_length_b 9.314463
_cell_length_c 14.472851
_cell_angle_alpha 90.000000
_cell_angle_beta 110.874846
_cell_angle_gamma 90.000000
_cell_volume 2003.764360
_symmetry_space_group_name_H-M "C 2/C"
_symmetry_group_IT_number 15
_symmetry_cell_setting 'monoclinic'
loop_
_space_group_symop_operation_xyz
x,y,z
-x,y,1/2-z
-x,-y,-z
x,-y,1/2+z
1/2+x,1/2+y,z
1/2-x,1/2+y,1/2-z
1/2-x,1/2-y,-z
1/2+x,1/2-y,1/2+z
loop_
_atom_site_type_symbol
_atom_site_label
_atom_site_fract_x
_atom_site_fract_y
_atom_site_fract_z
Si Si1 0.322481 0.021992 0.101918
Si Si2 0.000000 0.407222 0.750000
Si Si3 0.323579 0.575094 0.302723
Si Si4 0.064428 0.805528 0.120649
Si Si5 0.384491 0.186657 0.962643
Si Si6 0.198281 0.391929 0.586406
O O1 0.426181 0.997880 0.169375
O O2 0.260781 0.027036 0.166631
O O3 0.331613 0.166392 0.040790
O O4 0.284121 0.908531 0.014543
O O5 0.054381 0.298671 0.705038
O O6 0.408320 0.466980 0.341938
O O7 0.346146 0.724126 0.362241
O O8 0.284421 0.583525 0.184350
O O9 0.149246 0.750324 0.096908
O O10 0.975433 0.768427 0.027234
O O11 0.377110 0.020248 0.928072
#
# Coordination Sequence:
#
# PCOD9276708 Si02
#       6
#     8   4   8   8   8   8
#     4   9  22  37  65  87 126 161 212 243 314 374
#     4  10  20  40  64  92 124 174 210 246 306 396
#     4  12  21  38  63  94 125 159 203 272 310 355
#     4  11  22  37  63  90 123 164 212 253 312 364
#     4   9  22  39  58  86 123 163 207 247 306 381
#     4  10  22  37  62  90 120 163 215 249 304 379
#
# _framework density 21.958670999999999
#
# number of rings (size 3 to 8) (size 9 to 14) (size 15 to 20)
#    1.091    0.727    1.818    2.727    0.000    2.182 
#    0.000    0.000    0.000    3.273    0.000    0.000 
#    0.000    0.000    0.000    0.000    0.000    0.000 
#
# Total GULP energy -122499.394673 kJ/mol
# GULP energy per Si atom -5568.154303 kJ/mol
# Density = 2.190869 g / cm^3
# Si number density = 21.958671 Si / 1000 Ang^3
#
#
#
# Elastic Constant Matrix: (Units=GPa)
#
#
# Indices 1 2 3 4 5 6 
#
# 1 48.6054 6.6946 15.2543 0.0000 7.4636 0.0000
# 2 6.6946 60.1245 -1.4063 0.0000 -8.1894 0.0000
# 3 15.2543 -1.4063 123.9736 0.0000 7.3411 0.0000
# 4 0.0000 0.0000 0.0000 -25.4985 0.0000 -4.2136
# 5 7.4636 -8.1894 7.3411 0.0000 27.4699 0.0000
# 6 0.0000 0.0000 0.0000 -4.2136 0.0000 9.3140
#
#
#
# Elastic Compliance Matrix: (Units=1/GPa)
#
#
# Indices 1 2 3 4 5 6 
#
# 1 0.022840 -0.003498 -0.002460 0.000000 -0.006591 0.000000
# 2 -0.003498 0.017873 0.000266 0.000000 0.006208 0.000000
# 3 -0.002460 0.000266 0.008462 0.000000 -0.001514 0.000000
# 4 0.000000 0.000000 0.000000 -0.036490 0.000000 -0.016508
# 5 -0.006591 0.006208 -0.001514 0.000000 0.040450 0.000000
# 6 0.000000 0.000000 0.000000 -0.016508 0.000000 0.099897
#
#
# Mechanical properties :
#
#
# Convention : Reuss Voigt Hill
#
# Bulk Modulus (GPa) = 26.46220 30.42098 28.44159
# Shear Modulus (GPa) = 28.24650 16.40114 22.32382
#
# Velocity S-wave (km/s) = 3.59046 2.73593 3.19192
# Velocity P-wave (km/s) = 5.40977 4.88510 5.15412
#
# Compressibility (1/GPa) = 0.03778975
#
# Stress axis : x y z
#
# Youngs Moduli (GPa) = 43.78335 55.94887 118.18182
#
# Poissons Ratio (x) = 0.19573 0.29069
# Poissons Ratio (y) = 0.15317 -0.03139
# Poissons Ratio (z) = 0.10769 -0.01486
#
# Static dielectric constant tensor:
#      x y z
#    x 1.834000 0.000000 -0.026420 
#    y 0.000000 1.864920 0.000000 
#    z -0.026420 0.000000 1.869660 
# 
# From -- ./inp_files/160522.got.cif
#   From: 2010.05.17/outbox.cif.g08.bks.cpg/sg15_81_cif.got.tgz:160522.got - 2010.06.03 18:47:42.
