data_PCOD9276597
_publ_section_title
;
Structure prediction by ZEFSAII (Michael W. Deem and Ramdas Pophale) SiO2 
 PCOD9276597
Probable space group: C 2/C
;
_chemical_formula_sum "Si O2"
_cell_formula_units_Z 40
_cell_length_a 22.354476
_cell_length_b 5.605194
_cell_length_c 25.557232
_cell_angle_alpha 90.000000
_cell_angle_beta 148.252937
_cell_angle_gamma 90.000000
_cell_volume 1684.982196
_symmetry_space_group_name_H-M "C 2/C"
_symmetry_group_IT_number 15
_symmetry_cell_setting 'monoclinic'
loop_
_space_group_symop_operation_xyz
x,y,z
-x,y,1/2-z
-x,-y,-z
x,-y,1/2+z
1/2+x,1/2+y,z
1/2-x,1/2+y,1/2-z
1/2-x,1/2-y,-z
1/2+x,1/2-y,1/2+z
loop_
_atom_site_type_symbol
_atom_site_label
_atom_site_fract_x
_atom_site_fract_y
_atom_site_fract_z
Si Si1 0.182666 0.505571 0.456926
Si Si2 0.912437 0.669888 0.715426
Si Si3 0.837158 0.384667 0.750772
Si Si4 0.800694 0.508973 0.415369
Si Si5 0.895332 0.161828 0.900492
O O1 0.250000 0.750000 0.500000
O O2 0.102554 0.498246 0.346566
O O3 0.140990 0.528676 0.485598
O O4 0.250000 0.250000 0.500000
O O5 0.921545 0.540602 0.777909
O O6 0.795654 0.802390 0.640796
O O7 0.000000 0.847848 0.750000
O O8 0.903186 0.255068 0.846974
O O9 0.728929 0.532280 0.692710
O O10 0.770570 0.207455 0.661909
O O11 0.880193 0.621282 0.430140
O O12 0.000000 0.000000 0.000000
#
# Coordination Sequence:
#
# PCOD9276597 Si02
#       5
#     8   8   8   8   8
#     4  10  20  40  63  92 131 177 225 280 357 422
#     4  10  23  40  64  97 130 179 227 289 357 427
#     4  11  22  44  67  93 141 176 235 296 347 431
#     4  10  22  42  66  92 138 178 228 301 347 433
#     4  11  25  43  68 101 134 188 237 293 366 429
#
# _framework density 23.739121000000001
#
# number of rings (size 3 to 8) (size 9 to 14) (size 15 to 20)
#    0.000    1.600    4.000    0.000    0.000    4.800 
#    0.000    0.000    0.000    0.000    0.000    0.000 
#    0.000    0.000    0.000    0.000    0.000    0.000 
#
# Total GULP energy -111363.114186 kJ/mol
# GULP energy per Si atom -5568.155709 kJ/mol
# Density = 2.368509 g / cm^3
# Si number density = 23.739121 Si / 1000 Ang^3
#
#
#
# Elastic Constant Matrix: (Units=GPa)
#
#
# Indices 1 2 3 4 5 6 
#
# 1 151.7920 26.3426 57.9837 0.0008 -17.4408 -0.0066
# 2 26.3426 50.2937 33.6362 0.0038 -14.3263 -0.0090
# 3 57.9837 33.6362 143.9053 -0.0022 -26.0123 -0.0045
# 4 0.0008 0.0038 -0.0022 21.1936 0.0004 -20.2260
# 5 -17.4408 -14.3263 -26.0123 0.0004 44.6086 0.0014
# 6 -0.0066 -0.0090 -0.0045 -20.2260 0.0014 -32.8683
#
#
#
# Elastic Compliance Matrix: (Units=1/GPa)
#
#
# Indices 1 2 3 4 5 6 
#
# 1 0.008061 -0.002247 -0.002553 0.000000 0.000942 0.000000
# 2 -0.002247 0.025180 -0.004110 -0.000007 0.004811 -0.000002
# 3 -0.002553 -0.004110 0.009523 0.000001 0.003235 0.000000
# 4 0.000000 -0.000007 0.000001 0.029727 -0.000001 -0.018293
# 5 0.000942 0.004811 0.003235 -0.000001 0.026217 0.000000
# 6 0.000000 -0.000002 0.000000 -0.018293 0.000000 -0.019168
#
#
# Mechanical properties :
#
#
# Convention : Reuss Voigt Hill
#
# Bulk Modulus (GPa) = 40.08996 64.65733 52.37364
# Shear Modulus (GPa) = 47.31528 21.78868 34.55198
#
# Velocity S-wave (km/s) = 4.46930 3.03287 3.81922
# Velocity P-wave (km/s) = 6.59979 6.28969 6.44660
#
# Compressibility (1/GPa) = 0.02494390
#
# Stress axis : x y z
#
# Youngs Moduli (GPa) = 124.05104 39.71473 105.00765
#
# Poissons Ratio (x) = 0.08923 0.26806
# Poissons Ratio (y) = 0.27872 0.43163
# Poissons Ratio (z) = 0.31667 0.16325
#
# Static dielectric constant tensor:
#      x y z
#    x 1.805120 0.000390 -0.249100 
#    y 0.000390 2.155390 0.000780 
#    z -0.249100 0.000780 1.475440 
# 
# From -- ./inp_files/170543.got.cif
#   From: 2010.05.17/outbox.cif.g08.bks.cpg/sg15_86_cif.got.tgz:170543.got - 2010.06.03 18:47:42.
