data_PCOD9276174
_publ_section_title
;
Structure prediction by ZEFSAII (Michael W. Deem and Ramdas Pophale) SiO2 
 PCOD9276174
Probable space group: C 2/C
;
_chemical_formula_sum "Si O2"
_cell_formula_units_Z 52
_cell_length_a 12.467023
_cell_length_b 10.818760
_cell_length_c 21.609082
_cell_angle_alpha 90.000000
_cell_angle_beta 50.003517
_cell_angle_gamma 90.000000
_cell_volume 2232.815812
_symmetry_space_group_name_H-M "C 2/C"
_symmetry_group_IT_number 15
_symmetry_cell_setting 'monoclinic'
loop_
_space_group_symop_operation_xyz
x,y,z
-x,y,1/2-z
-x,-y,-z
x,-y,1/2+z
1/2+x,1/2+y,z
1/2-x,1/2+y,1/2-z
1/2-x,1/2-y,-z
1/2+x,1/2-y,1/2+z
loop_
_atom_site_type_symbol
_atom_site_label
_atom_site_fract_x
_atom_site_fract_y
_atom_site_fract_z
Si Si1 0.500000 0.130921 0.750000
Si Si2 0.159771 0.197004 0.090507
Si Si3 0.855564 0.133428 0.178643
Si Si4 0.239006 0.887327 0.279255
Si Si5 0.761221 0.742612 0.598064
Si Si6 0.516455 0.764805 0.596037
Si Si7 0.363892 0.021901 0.092783
O O1 0.410874 0.208979 0.833908
O O2 0.622917 0.060948 0.738573
O O3 0.256238 0.106662 0.094714
O O4 0.022670 0.135066 0.112216
O O5 0.250000 0.250000 0.000000
O O6 0.796947 0.257521 0.232003
O O7 0.793562 0.146226 0.132795
O O8 0.817790 0.011631 0.231655
O O9 0.102150 0.839915 0.366616
O O10 0.606887 0.748440 0.625179
O O11 0.794416 0.614246 0.622306
O O12 0.872330 0.745614 0.500772
O O13 0.435897 0.895835 0.620061
O O14 0.500000 0.000000 0.000000
#
# Coordination Sequence:
#
# PCOD9276174 Si02
#       7
#     4   8   8   8   8   8   8
#     4  10  24  44  66 100 144 192 240 304 368 438
#     4  11  22  44  70 105 145 195 246 305 372 455
#     4  11  27  45  72 106 140 194 242 303 377 447
#     4  11  25  46  67 102 143 188 242 302 375 437
#     4  10  23  42  66 108 139 187 244 297 380 443
#     4  10  21  42  68 101 145 187 236 308 358 450
#     4  10  20  39  70 101 139 192 239 301 374 444
#
# _framework density 23.288979000000001
#
# number of rings (size 3 to 8) (size 9 to 14) (size 15 to 20)
#    0.000    1.538    1.538    2.769    2.154    2.462 
#   13.846    0.000    0.000    0.000    0.000    0.000 
#    0.000    0.000    0.000    0.000    0.000    0.000 
#
# Total GULP energy -144964.419646 kJ/mol
# GULP energy per Si atom -5575.554602 kJ/mol
# Density = 2.323597 g / cm^3
# Si number density = 23.288979 Si / 1000 Ang^3
#
#
#
# Elastic Constant Matrix: (Units=GPa)
#
#
# Indices 1 2 3 4 5 6 
#
# 1 118.1876 50.3657 42.1194 0.0000 -29.6940 0.0000
# 2 50.3657 115.9048 49.3971 0.0000 -18.8684 0.0000
# 3 42.1194 49.3971 110.7012 0.0000 -23.7029 0.0000
# 4 0.0000 0.0000 0.0000 45.7754 0.0000 0.7490
# 5 -29.6940 -18.8684 -23.7029 0.0000 35.8681 0.0000
# 6 0.0000 0.0000 0.0000 0.7490 0.0000 34.2001
#
#
#
# Elastic Compliance Matrix: (Units=1/GPa)
#
#
# Indices 1 2 3 4 5 6 
#
# 1 0.012361 -0.003508 -0.001563 0.000000 0.007355 0.000000
# 2 -0.003508 0.011909 -0.003797 0.000000 0.000851 0.000000
# 3 -0.001563 -0.003797 0.012368 0.000000 0.004882 0.000000
# 4 0.000000 0.000000 0.000000 0.021854 0.000000 -0.000479
# 5 0.007355 0.000851 0.004882 0.000000 0.037643 0.000000
# 6 0.000000 0.000000 0.000000 -0.000479 0.000000 0.029250
#
#
# Mechanical properties :
#
#
# Convention : Reuss Voigt Hill
#
# Bulk Modulus (GPa) = 52.90546 69.83978 61.37262
# Shear Modulus (GPa) = 33.46267 36.69614 35.07941
#
# Velocity S-wave (km/s) = 3.79469 3.97380 3.88528
# Velocity P-wave (km/s) = 6.47810 7.14900 6.82180
#
# Compressibility (1/GPa) = 0.01890164
#
# Stress axis : x y z
#
# Youngs Moduli (GPa) = 80.90003 83.97030 80.85692
#
# Poissons Ratio (x) = 0.29456 0.12637
# Poissons Ratio (y) = 0.28379 0.30702
# Poissons Ratio (z) = 0.12644 0.31884
#
# Static dielectric constant tensor:
#      x y z
#    x 1.918380 0.000000 0.091930 
#    y 0.000000 1.887810 0.000000 
#    z 0.091930 0.000000 2.047350 
# 
# From -- ./inp_files/269209.got.cif
#   From: 2010.05.17/outbox.cif.g08.bks.cpg/sg15_135_cif.got.tgz:269209.got - 2010.06.03 18:47:42.
