data_PCOD9276540
_publ_section_title
;
Structure prediction by ZEFSAII (Michael W. Deem and Ramdas Pophale) SiO2 
 PCOD9276540
Probable space group: C 2/C
;
_chemical_formula_sum "Si O2"
_cell_formula_units_Z 60
_cell_length_a 19.411866
_cell_length_b 22.078570
_cell_length_c 8.568313
_cell_angle_alpha 90.000000
_cell_angle_beta 58.038729
_cell_angle_gamma 90.000000
_cell_volume 3115.568696
_symmetry_space_group_name_H-M "C 2/C"
_symmetry_group_IT_number 15
_symmetry_cell_setting 'monoclinic'
loop_
_space_group_symop_operation_xyz
x,y,z
-x,y,1/2-z
-x,-y,-z
x,-y,1/2+z
1/2+x,1/2+y,z
1/2-x,1/2+y,1/2-z
1/2-x,1/2-y,-z
1/2+x,1/2-y,1/2+z
loop_
_atom_site_type_symbol
_atom_site_label
_atom_site_fract_x
_atom_site_fract_y
_atom_site_fract_z
Si Si1 0.950567 0.443375 0.126194
Si Si2 0.149419 0.779802 0.943614
Si Si3 0.284510 0.327030 0.306198
Si Si4 0.500000 0.227319 0.250000
Si Si5 0.412622 0.876491 0.690660
Si Si6 0.674165 0.916051 0.996510
Si Si7 0.813635 0.551004 0.552561
Si Si8 0.291783 0.315397 0.957176
O O1 0.918576 0.432284 0.338913
O O2 0.861996 0.449970 0.155419
O O3 0.000000 0.500000 0.000000
O O4 0.999959 0.388718 0.991764
O O5 0.209076 0.720424 0.873299
O O6 0.164102 0.816950 0.764953
O O7 0.171059 0.810834 0.084659
O O8 0.053963 0.764131 0.063923
O O9 0.250500 0.395068 0.369219
O O10 0.331486 0.321179 0.082896
O O11 0.569737 0.185891 0.245510
O O12 0.342717 0.880984 0.645781
O O13 0.383949 0.928166 0.845897
O O14 0.715183 0.982102 0.936343
O O15 0.724564 0.868407 0.034927
O O16 0.250000 0.250000 0.000000
#
# Coordination Sequence:
#
# PCOD9276540 Si02
#       8
#     8   8   8   4   8   8   8   8
#     4  12  21  34  45  80 125 168 192 234 277 349
#     4  10  22  41  63  83 117 158 209 262 306 357
#     4  10  20  40  63  82 117 166 205 250 303 356
#     4  12  24  40  62  88 116 164 206 254 318 358
#     4  12  23  32  52  77 123 162 196 235 292 359
#     4  12  24  35  54  84 121 166 209 242 293 366
#     4  12  20  36  55  81 121 163 204 240 291 363
#     4  10  23  40  58  82 116 160 213 256 291 353
#
# _framework density 19.258120999999999
#
# number of rings (size 3 to 8) (size 9 to 14) (size 15 to 20)
#    0.000    0.800    6.667    1.200    5.600    0.000 
#    0.000    0.667    0.000    0.000    0.000    0.933 
#    0.000    0.000    0.000    0.000    0.000    0.000 
#
# Total GULP energy -167041.741242 kJ/mol
# GULP energy per Si atom -5568.058041 kJ/mol
# Density = 1.921429 g / cm^3
# Si number density = 19.258121 Si / 1000 Ang^3
#
#
#
# Elastic Constant Matrix: (Units=GPa)
#
#
# Indices 1 2 3 4 5 6 
#
# 1 35.2684 24.2179 27.8272 0.0000 15.9050 0.0000
# 2 24.2179 99.7582 28.8366 0.0000 0.4670 0.0000
# 3 27.8272 28.8366 115.7116 0.0000 19.8577 0.0000
# 4 0.0000 0.0000 0.0000 31.4810 0.0000 -3.3789
# 5 15.9050 0.4670 19.8577 0.0000 26.7587 0.0000
# 6 0.0000 0.0000 0.0000 -3.3789 0.0000 22.3848
#
#
#
# Elastic Compliance Matrix: (Units=1/GPa)
#
#
# Indices 1 2 3 4 5 6 
#
# 1 0.052192 -0.011051 -0.005164 0.000000 -0.026997 0.000000
# 2 -0.011051 0.013244 -0.001983 0.000000 0.007809 0.000000
# 3 -0.005164 -0.001983 0.011282 0.000000 -0.005268 0.000000
# 4 0.000000 0.000000 0.000000 0.032288 0.000000 0.004874
# 5 -0.026997 0.007809 -0.005268 0.000000 0.057191 0.000000
# 6 0.000000 0.000000 0.000000 0.004874 0.000000 0.045409
#
#
# Mechanical properties :
#
#
# Convention : Reuss Voigt Hill
#
# Bulk Modulus (GPa) = 24.80089 45.83349 35.31719
# Shear Modulus (GPa) = 19.12454 27.44868 23.28661
#
# Velocity S-wave (km/s) = 3.15471 3.77942 3.48110
# Velocity P-wave (km/s) = 5.11622 6.54955 5.87674
#
# Compressibility (1/GPa) = 0.04032113
#
# Stress axis : x y z
#
# Youngs Moduli (GPa) = 19.15995 75.50733 88.63300
#
# Poissons Ratio (x) = 0.83445 0.45774
# Poissons Ratio (y) = 0.21174 0.17575
# Poissons Ratio (z) = 0.09895 0.14973
#
# Static dielectric constant tensor:
#      x y z
#    x 1.783440 0.000000 0.121630 
#    y 0.000000 1.690590 0.000000 
#    z 0.121630 0.000000 1.847730 
# 
# From -- ./inp_files/50640.got.cif
#   From: 2010.05.17/outbox.cif.g08.bks.cpg/sg15_26_cif.got.tgz:50640.got - 2010.06.03 18:47:42.
