data_PCOD9276325
_publ_section_title
;
Structure prediction by ZEFSAII (Michael W. Deem and Ramdas Pophale) SiO2 
 PCOD9276325
Probable space group: C 2/C
;
_chemical_formula_sum "Si O2"
_cell_formula_units_Z 48
_cell_length_a 21.163796
_cell_length_b 26.087134
_cell_length_c 5.497660
_cell_angle_alpha 90.000000
_cell_angle_beta 47.892328
_cell_angle_gamma 90.000000
_cell_volume 2251.827019
_symmetry_space_group_name_H-M "C 2/C"
_symmetry_group_IT_number 15
_symmetry_cell_setting 'monoclinic'
loop_
_space_group_symop_operation_xyz
x,y,z
-x,y,1/2-z
-x,-y,-z
x,-y,1/2+z
1/2+x,1/2+y,z
1/2-x,1/2+y,1/2-z
1/2-x,1/2-y,-z
1/2+x,1/2-y,1/2+z
loop_
_atom_site_type_symbol
_atom_site_label
_atom_site_fract_x
_atom_site_fract_y
_atom_site_fract_z
Si Si1 0.500000 0.621340 0.250000
Si Si2 0.626141 0.290940 0.371208
Si Si3 0.797781 0.285963 0.194424
Si Si4 0.915234 0.369635 0.837142
Si Si5 0.392980 0.468927 0.866467
Si Si6 0.500000 0.210162 0.750000
Si Si7 0.808934 0.530445 0.572302
O O1 0.429730 0.659466 0.542829
O O2 0.552852 0.583112 0.285160
O O3 0.719207 0.305893 0.230224
O O4 0.568489 0.251385 0.684582
O O5 0.643850 0.254391 0.099199
O O6 0.750000 0.250000 0.500000
O O7 0.851584 0.333396 0.156353
O O8 0.948945 0.329621 0.549874
O O9 0.000000 0.387945 0.750000
O O10 0.861656 0.417994 0.892866
O O11 0.410459 0.502002 0.578599
O O12 0.292040 0.458140 0.148747
O O13 0.827686 0.494468 0.289415
#
# Coordination Sequence:
#
# PCOD9276325 Si02
#       7
#     4   8   8   8   8   4   8
#     4  11  20  38  62  96 122 162 212 257 318 372
#     4   9  20  38  59  88 124 161 203 259 301 382
#     4  10  20  40  60  87 123 165 208 250 313 377
#     4  11  23  37  62  90 120 164 203 264 321 368
#     4  10  22  44  65  91 130 169 207 261 318 377
#     4   9  20  38  58  86 128 154 200 257 322 372
#     4  10  24  45  66  93 126 167 216 261 312 382
#
# _framework density 21.316026000000001
#
# number of rings (size 3 to 8) (size 9 to 14) (size 15 to 20)
#    0.000    2.000    0.000    2.500    2.333    0.667 
#   15.000    0.000    0.000    0.000    0.000    0.000 
#    0.000    0.000    0.000    0.000    0.000    0.000 
#
# Total GULP energy -133719.491583 kJ/mol
# GULP energy per Si atom -5571.645483 kJ/mol
# Density = 2.126751 g / cm^3
# Si number density = 21.316026 Si / 1000 Ang^3
#
#
#
# Elastic Constant Matrix: (Units=GPa)
#
#
# Indices 1 2 3 4 5 6 
#
# 1 57.3232 59.7546 37.1304 0.0000 -3.6066 0.0000
# 2 59.7546 117.6304 59.2062 0.0000 -25.4017 0.0000
# 3 37.1304 59.2062 89.1356 0.0000 -9.8504 0.0000
# 4 0.0000 0.0000 0.0000 168.9931 0.0000 -33.6140
# 5 -3.6066 -25.4017 -9.8504 0.0000 25.2116 0.0000
# 6 0.0000 0.0000 0.0000 -33.6140 0.0000 39.2126
#
#
#
# Elastic Compliance Matrix: (Units=1/GPa)
#
#
# Indices 1 2 3 4 5 6 
#
# 1 0.045370 -0.025326 -0.004369 0.000000 -0.020733 0.000000
# 2 -0.025326 0.029870 -0.006652 0.000000 0.023873 0.000000
# 3 -0.004369 -0.006652 0.017399 0.000000 -0.000530 0.000000
# 4 0.000000 0.000000 0.000000 0.007134 0.000000 0.006115
# 5 -0.020733 0.023873 -0.000530 0.000000 0.060544 0.000000
# 6 0.000000 0.000000 0.000000 0.006115 0.000000 0.030744
#
#
# Mechanical properties :
#
#
# Convention : Reuss Voigt Hill
#
# Bulk Modulus (GPa) = 50.13729 64.03018 57.08374
# Shear Modulus (GPa) = 18.49091 53.88332 36.18712
#
# Velocity S-wave (km/s) = 2.94847 5.03321 4.12472
# Velocity P-wave (km/s) = 5.92987 7.99258 7.03721
#
# Compressibility (1/GPa) = 0.01994523
#
# Stress axis : x y z
#
# Youngs Moduli (GPa) = 22.04093 33.47855 57.47507
#
# Poissons Ratio (x) = 0.84787 0.25109
# Poissons Ratio (y) = 0.55820 0.38235
# Poissons Ratio (z) = 0.09629 0.22271
#
# Static dielectric constant tensor:
#      x y z
#    x 1.903420 0.000000 -0.039630 
#    y 0.000000 1.733010 0.000000 
#    z -0.039630 0.000000 1.921120 
# 
# From -- ./inp_files/13829.got.cif
#   From: 2010.05.17/outbox.cif.g08.bks.cpg/sg15_7_cif.got.tgz:13829.got - 2010.06.03 18:47:42.
