data_PCOD9276939
_publ_section_title
;
Structure prediction by ZEFSAII (Michael W. Deem and Ramdas Pophale) SiO2 
 PCOD9276939
Probable space group: C 2/C
;
_chemical_formula_sum "Si O2"
_cell_formula_units_Z 44
_cell_length_a 15.082559
_cell_length_b 7.224904
_cell_length_c 17.557393
_cell_angle_alpha 90.000000
_cell_angle_beta 110.295040
_cell_angle_gamma 90.000000
_cell_volume 1794.454544
_symmetry_space_group_name_H-M "C 2/C"
_symmetry_group_IT_number 15
_symmetry_cell_setting 'monoclinic'
loop_
_space_group_symop_operation_xyz
x,y,z
-x,y,1/2-z
-x,-y,-z
x,-y,1/2+z
1/2+x,1/2+y,z
1/2-x,1/2+y,1/2-z
1/2-x,1/2-y,-z
1/2+x,1/2-y,1/2+z
loop_
_atom_site_type_symbol
_atom_site_label
_atom_site_fract_x
_atom_site_fract_y
_atom_site_fract_z
Si Si1 0.049987 0.910797 0.890028
Si Si2 0.840217 0.936387 0.849056
Si Si3 0.269851 0.472707 0.495937
Si Si4 0.500000 0.114397 0.750000
Si Si5 0.836944 0.490698 0.306331
Si Si6 0.402346 0.898070 0.979056
O O1 0.050026 0.756654 0.823770
O O2 0.067009 0.792570 0.972012
O O3 0.947574 0.003545 0.863957
O O4 0.146413 0.028202 0.920696
O O5 0.849506 0.714975 0.843207
O O6 0.797293 0.976898 0.918997
O O7 0.764081 0.995394 0.763354
O O8 0.250000 0.250000 0.500000
O O9 0.166274 0.531571 0.491856
O O10 0.578564 0.995164 0.729885
O O11 0.851868 0.625151 0.382337
O O12 0.500000 0.000000 0.000000
#
# Coordination Sequence:
#
# PCOD9276939 Si02
#       6
#     8   8   8   4   8   8
#     4  10  22  41  70  97 129 173 223 281 326 403
#     4  11  24  42  67 101 129 174 225 276 335 398
#     4  10  23  40  71  93 130 174 220 271 342 395
#     4  10  20  40  66  92 130 182 216 252 352 394
#     4  11  25  40  69  94 138 175 228 276 328 407
#     4  11  21  42  64  94 129 182 214 270 331 402
#
# _framework density 24.519984999999998
#
# number of rings (size 3 to 8) (size 9 to 14) (size 15 to 20)
#    0.000    1.455    3.636    2.727   10.182    0.727 
#    0.000    0.000    0.000    0.000    0.000    0.000 
#    0.000    0.000    0.000    0.000    0.000    0.000 
#
# Total GULP energy -122993.618458 kJ/mol
# GULP energy per Si atom -5590.619021 kJ/mol
# Density = 2.446418 g / cm^3
# Si number density = 24.519985 Si / 1000 Ang^3
#
#
#
# Elastic Constant Matrix: (Units=GPa)
#
#
# Indices 1 2 3 4 5 6 
#
# 1 184.0458 3.0911 48.1398 0.0000 20.0870 0.0000
# 2 3.0911 34.6715 0.4723 0.0000 -3.4329 0.0000
# 3 48.1398 0.4723 149.5567 0.0000 19.3174 0.0000
# 4 0.0000 0.0000 0.0000 36.5163 0.0000 2.9325
# 5 20.0870 -3.4329 19.3174 0.0000 49.5129 0.0000
# 6 0.0000 0.0000 0.0000 2.9325 0.0000 16.4691
#
#
#
# Elastic Compliance Matrix: (Units=1/GPa)
#
#
# Indices 1 2 3 4 5 6 
#
# 1 0.006098 -0.000703 -0.001721 0.000000 -0.001851 0.000000
# 2 -0.000703 0.029142 -0.000172 0.000000 0.002373 0.000000
# 3 -0.001721 -0.000172 0.007532 0.000000 -0.002252 0.000000
# 4 0.000000 0.000000 0.000000 0.027782 0.000000 -0.004947
# 5 -0.001851 0.002373 -0.002252 0.000000 0.021991 0.000000
# 6 0.000000 0.000000 0.000000 -0.004947 0.000000 0.061601
#
#
# Mechanical properties :
#
#
# Convention : Reuss Voigt Hill
#
# Bulk Modulus (GPa) = 26.61152 52.40893 39.51023
# Shear Modulus (GPa) = 29.09256 41.60437 35.34846
#
# Velocity S-wave (km/s) = 3.44827 4.12364 3.80098
# Velocity P-wave (km/s) = 5.17017 6.64025 5.95078
#
# Compressibility (1/GPa) = 0.03757771
#
# Stress axis : x y z
#
# Youngs Moduli (GPa) = 164.00138 34.31458 132.76763
#
# Poissons Ratio (x) = 0.02414 0.22855
# Poissons Ratio (y) = 0.11536 0.02285
# Poissons Ratio (z) = 0.28231 0.00591
#
# Static dielectric constant tensor:
#      x y z
#    x 2.233690 0.000000 -0.015820 
#    y 0.000000 2.097750 0.000000 
#    z -0.015820 0.000000 1.984720 
# 
# From -- ./inp_files/202796.got.cif
#   From: 2010.05.17/outbox.cif.g08.bks.cpg/sg15_102_cif.got.tgz:202796.got - 2010.06.03 18:47:42.
