data_PCOD9276042
_publ_section_title
;
Structure prediction by ZEFSAII (Michael W. Deem and Ramdas Pophale) SiO2 
 PCOD9276042
Probable space group: C 2/C
;
_chemical_formula_sum "Si O2"
_cell_formula_units_Z 48
_cell_length_a 9.393945
_cell_length_b 16.905276
_cell_length_c 25.846342
_cell_angle_alpha 90.000000
_cell_angle_beta 150.208506
_cell_angle_gamma 90.000000
_cell_volume 2039.343588
_symmetry_space_group_name_H-M "C 2/C"
_symmetry_group_IT_number 15
_symmetry_cell_setting 'monoclinic'
loop_
_space_group_symop_operation_xyz
x,y,z
-x,y,1/2-z
-x,-y,-z
x,-y,1/2+z
1/2+x,1/2+y,z
1/2-x,1/2+y,1/2-z
1/2-x,1/2-y,-z
1/2+x,1/2-y,1/2+z
loop_
_atom_site_type_symbol
_atom_site_label
_atom_site_fract_x
_atom_site_fract_y
_atom_site_fract_z
Si Si1 0.846587 0.480204 0.538253
Si Si2 0.853266 0.046759 0.629417
Si Si3 0.047021 0.308765 0.483220
Si Si4 0.800380 0.695214 0.066821
Si Si5 0.470552 0.119940 0.847579
Si Si6 0.438647 0.275526 0.788234
O O1 0.159460 0.495881 0.608542
O O2 0.823969 0.546862 0.575189
O O3 0.632928 0.493209 0.422536
O O4 0.806932 0.394785 0.550478
O O5 0.659975 0.124681 0.558224
O O6 0.156766 0.079830 0.743540
O O7 0.358287 0.318174 0.606533
O O8 0.934928 0.223820 0.466481
O O9 0.002664 0.325149 0.408916
O O10 0.102670 0.714197 0.189144
O O11 0.750000 0.750000 0.000000
O O12 0.506717 0.181609 0.812918
O O13 0.500000 0.305500 0.750000
#
# Coordination Sequence:
#
# PCOD9276042 Si02
#       6
#     8   8   8   8   8   8
#     4  10  21  35  62  98 122 171 227 273 330 412
#     4  10  20  39  67  92 136 173 215 288 352 383
#     4  11  22  40  66  98 129 173 228 279 340 408
#     4  12  22  41  65  97 134 171 223 287 345 403
#     4  11  24  43  66  98 140 178 224 290 350 397
#     4  12  24  39  69  94 134 185 232 273 344 414
#
# _framework density 23.536985000000001
#
# number of rings (size 3 to 8) (size 9 to 14) (size 15 to 20)
#    0.000    1.000    5.000    2.500    0.000    6.667 
#    0.000    0.833    3.667    0.000    0.000    0.000 
#    0.000    0.000    0.000    0.000    0.000    0.000 
#
# Total GULP energy -134084.925512 kJ/mol
# GULP energy per Si atom -5586.871896 kJ/mol
# Density = 2.348341 g / cm^3
# Si number density = 23.536985 Si / 1000 Ang^3
#
#
#
# Elastic Constant Matrix: (Units=GPa)
#
#
# Indices 1 2 3 4 5 6 
#
# 1 32.1602 25.7548 38.9328 -0.0002 -1.9916 -0.0003
# 2 25.7548 155.6149 31.9182 0.0000 -14.4317 -0.0004
# 3 38.9328 31.9182 193.4740 -0.0016 -5.8431 -0.0010
# 4 -0.0002 0.0000 -0.0016 41.1799 -0.0002 -14.3692
# 5 -1.9916 -14.4317 -5.8431 -0.0002 30.4464 -0.0009
# 6 -0.0003 -0.0004 -0.0010 -14.3692 -0.0009 38.8981
#
#
#
# Elastic Compliance Matrix: (Units=1/GPa)
#
#
# Indices 1 2 3 4 5 6 
#
# 1 0.045848 -0.006025 -0.008276 0.000000 -0.001445 0.000000
# 2 -0.006025 0.007719 0.000038 0.000000 0.003272 0.000000
# 3 -0.008276 0.000038 0.006852 0.000000 0.000791 0.000000
# 4 0.000000 0.000000 0.000000 0.027877 0.000001 0.010298
# 5 -0.001445 0.003272 0.000791 0.000001 0.034453 0.000001
# 6 0.000000 0.000000 0.000000 0.010298 0.000001 0.029512
#
#
# Mechanical properties :
#
#
# Convention : Reuss Voigt Hill
#
# Bulk Modulus (GPa) = 31.35445 63.82896 47.59171
# Shear Modulus (GPa) = 26.12099 41.08112 33.60106
#
# Velocity S-wave (km/s) = 3.33496 4.18231 3.78244
# Velocity P-wave (km/s) = 5.30844 7.10632 6.27213
#
# Compressibility (1/GPa) = 0.03189340
#
# Stress axis : x y z
#
# Youngs Moduli (GPa) = 21.81124 129.55205 145.95010
#
# Poissons Ratio (x) = 0.78049 1.20784
# Poissons Ratio (y) = 0.13140 -0.00550
# Poissons Ratio (z) = 0.18050 -0.00489
#
# Static dielectric constant tensor:
#      x y z
#    x 1.966250 0.000000 0.006460 
#    y 0.000000 1.950430 0.000000 
#    z 0.006460 0.000000 1.938210 
# 
# From -- ./inp_files/311445.got.cif
#   From: 2010.05.17/outbox.cif.g08.bks.cpg/sg15_156_cif.got.tgz:311445.got - 2010.06.03 18:47:42.
