data_PCOD9276281
_publ_section_title
;
Structure prediction by ZEFSAII (Michael W. Deem and Ramdas Pophale) SiO2 
 PCOD9276281
Probable space group: C 2/C
;
_chemical_formula_sum "Si O2"
_cell_formula_units_Z 52
_cell_length_a 20.594215
_cell_length_b 26.761596
_cell_length_c 5.492815
_cell_angle_alpha 90.000000
_cell_angle_beta 61.478566
_cell_angle_gamma 90.000000
_cell_volume 2659.882659
_symmetry_space_group_name_H-M "C 2/C"
_symmetry_group_IT_number 15
_symmetry_cell_setting 'monoclinic'
loop_
_space_group_symop_operation_xyz
x,y,z
-x,y,1/2-z
-x,-y,-z
x,-y,1/2+z
1/2+x,1/2+y,z
1/2-x,1/2+y,1/2-z
1/2-x,1/2-y,-z
1/2+x,1/2-y,1/2+z
loop_
_atom_site_type_symbol
_atom_site_label
_atom_site_fract_x
_atom_site_fract_y
_atom_site_fract_z
Si Si1 0.000000 0.088065 0.750000
Si Si2 0.891449 0.847006 0.127571
Si Si3 0.271478 0.615707 0.543159
Si Si4 0.782404 0.792091 0.680060
Si Si5 0.144622 0.969009 0.835644
Si Si6 0.000000 0.775818 0.750000
Si Si7 0.833438 0.314836 0.016674
Si Si8 0.000000 0.713374 0.250000
O O1 0.045455 0.123965 0.844980
O O2 0.063104 0.056771 0.494635
O O3 0.835738 0.888262 0.127258
O O4 0.844354 0.809279 0.375499
O O5 0.929954 0.812100 0.862385
O O6 0.288662 0.666784 0.373075
O O7 0.288686 0.571109 0.326606
O O8 0.198162 0.633049 0.818378
O O9 0.802681 0.735197 0.710584
O O10 0.704353 0.802579 0.679084
O O11 0.150129 0.003699 0.586332
O O12 0.000391 0.745029 0.499620
O O13 0.921611 0.315109 0.874816
#
# Coordination Sequence:
#
# PCOD9276281 Si02
#       8
#     4   8   8   8   8   4   8   4
#     4  12  23  44  61  96 134 178 218 281 313 378
#     4  11  22  36  59  88 128 181 223 258 309 370
#     4  11  23  41  64  85 127 170 225 269 324 388
#     4  10  20  40  58  91 125 175 217 257 309 390
#     4  12  27  45  66  94 128 173 224 280 330 378
#     4  12  24  36  55  88 134 174 220 259 300 372
#     4  10  23  37  64  91 129 171 213 267 322 389
#     4  12  25  40  58  94 130 170 214 274 319 374
#
# _framework density 19.549733
#
# number of rings (size 3 to 8) (size 9 to 14) (size 15 to 20)
#    0.000    0.923    3.077    4.154    4.308    1.231 
#    0.000    0.000    0.000    0.000    0.000    1.077 
#    0.000    0.000    0.000    0.000    0.000    0.000 
#
# Total GULP energy -145040.517092 kJ/mol
# GULP energy per Si atom -5578.481427 kJ/mol
# Density = 1.950524 g / cm^3
# Si number density = 19.549733 Si / 1000 Ang^3
#
#
#
# Elastic Constant Matrix: (Units=GPa)
#
#
# Indices 1 2 3 4 5 6 
#
# 1 105.0675 32.5713 46.5830 0.0000 -16.5711 0.0000
# 2 32.5713 77.1421 45.6764 0.0000 -2.4143 0.0000
# 3 46.5830 45.6764 98.7167 0.0000 -9.2400 0.0000
# 4 0.0000 0.0000 0.0000 40.2151 0.0000 10.9712
# 5 -16.5711 -2.4143 -9.2400 0.0000 30.0216 0.0000
# 6 0.0000 0.0000 0.0000 10.9712 0.0000 -0.8531
#
#
#
# Elastic Compliance Matrix: (Units=1/GPa)
#
#
# Indices 1 2 3 4 5 6 
#
# 1 0.013248 -0.002796 -0.004422 0.000000 0.005727 0.000000
# 2 -0.002796 0.018483 -0.007453 0.000000 -0.002351 0.000000
# 3 -0.004422 -0.007453 0.015837 0.000000 0.001834 0.000000
# 4 0.000000 0.000000 0.000000 0.005515 0.000000 0.070931
# 5 0.005727 -0.002351 0.001834 0.000000 0.036846 0.000000
# 6 0.000000 0.000000 0.000000 0.070931 0.000000 -0.259999
#
#
# Mechanical properties :
#
#
# Convention : Reuss Voigt Hill
#
# Bulk Modulus (GPa) = 54.86552 58.95421 56.90986
# Shear Modulus (GPa) = -37.13237 24.28309 -6.42464
#
# Velocity S-wave (km/s) = -4.36292 3.52819 -1.81478
# Velocity P-wave (km/s) = 1.65695 6.84244 4.97818
#
# Compressibility (1/GPa) = 0.01822638
#
# Stress axis : x y z
#
# Youngs Moduli (GPa) = 75.48171 54.10400 63.14512
#
# Poissons Ratio (x) = 0.15129 0.27921
# Poissons Ratio (y) = 0.21107 0.47059
# Poissons Ratio (z) = 0.33376 0.40321
#
# Static dielectric constant tensor:
#      x y z
#    x 1.751090 0.000000 0.048830 
#    y 0.000000 1.727170 0.000000 
#    z 0.048830 0.000000 1.837460 
# 
# From -- ./inp_files/13867.got.cif
#   From: 2010.05.17/outbox.cif.g08.bks.cpg/sg15_7_cif.got.tgz:13867.got - 2010.06.03 18:47:42.
