data_PCOD9276037
_publ_section_title
;
Structure prediction by ZEFSAII (Michael W. Deem and Ramdas Pophale) SiO2 
 PCOD9276037
Probable space group: C 2/C
;
_chemical_formula_sum "Si O2"
_cell_formula_units_Z 48
_cell_length_a 10.091820
_cell_length_b 29.073345
_cell_length_c 17.278987
_cell_angle_alpha 90.000000
_cell_angle_beta 149.614743
_cell_angle_gamma 90.000000
_cell_volume 2564.317176
_symmetry_space_group_name_H-M "C 2/C"
_symmetry_group_IT_number 15
_symmetry_cell_setting 'monoclinic'
loop_
_space_group_symop_operation_xyz
x,y,z
-x,y,1/2-z
-x,-y,-z
x,-y,1/2+z
1/2+x,1/2+y,z
1/2-x,1/2+y,1/2-z
1/2-x,1/2-y,-z
1/2+x,1/2-y,1/2+z
loop_
_atom_site_type_symbol
_atom_site_label
_atom_site_fract_x
_atom_site_fract_y
_atom_site_fract_z
Si Si1 0.518051 0.217734 0.850395
Si Si2 0.287660 0.125707 0.483297
Si Si3 0.167259 0.636251 0.170203
Si Si4 0.112200 0.976590 0.895144
Si Si5 0.940661 0.461353 0.810997
Si Si6 0.020755 0.732486 0.168845
O O1 0.500000 0.225805 0.750000
O O2 0.255277 0.234559 0.759748
O O3 0.750000 0.250000 0.000000
O O4 0.571727 0.163770 0.893594
O O5 0.404056 0.130151 0.455696
O O6 0.263327 0.071517 0.489644
O O7 0.982139 0.139545 0.329230
O O8 0.079122 0.591874 0.173814
O O9 0.065076 0.682476 0.155416
O O10 0.000000 0.974691 0.750000
O O11 0.847800 0.981060 0.812824
O O12 0.326986 0.015158 0.022199
O O13 0.000000 0.466622 0.750000
O O14 0.000000 0.729933 0.250000
O O15 0.750000 0.750000 0.000000
#
# Coordination Sequence:
#
# PCOD9276037 Si02
#       6
#     8   8   8   8   8   8
#     4  12  24  42  70  94 123 171 219 258 309 385
#     4  10  20  39  67  92 117 167 221 253 305 381
#     4  10  20  40  66  87 125 171 208 254 322 380
#     4  11  22  42  68  92 130 173 213 262 322 385
#     4  11  23  41  65  98 126 168 215 264 323 378
#     4  12  25  41  60  94 131 161 203 264 322 367
#
# _framework density 18.718433999999998
#
# number of rings (size 3 to 8) (size 9 to 14) (size 15 to 20)
#    0.000    1.000    5.000    4.500    0.000    0.667 
#    3.000    0.833    0.000    0.000    0.000    0.000 
#    0.000    0.000    0.000    0.000    0.000    0.000 
#
# Total GULP energy -134023.299056 kJ/mol
# GULP energy per Si atom -5584.304127 kJ/mol
# Density = 1.867583 g / cm^3
# Si number density = 18.718434 Si / 1000 Ang^3
#
#
#
# Elastic Constant Matrix: (Units=GPa)
#
#
# Indices 1 2 3 4 5 6 
#
# 1 129.7718 37.8370 41.0520 0.0000 12.0397 0.0000
# 2 37.8370 111.7374 61.2539 0.0000 12.0994 0.0000
# 3 41.0520 61.2539 91.6823 0.0001 8.5238 0.0001
# 4 0.0000 0.0000 0.0001 46.1513 0.0000 2.2778
# 5 12.0397 12.0994 8.5238 0.0000 26.4853 0.0000
# 6 0.0000 0.0000 0.0001 2.2778 0.0000 22.0670
#
#
#
# Elastic Compliance Matrix: (Units=1/GPa)
#
#
# Indices 1 2 3 4 5 6 
#
# 1 0.009281 -0.001121 -0.003157 0.000000 -0.002691 0.000000
# 2 -0.001121 0.014583 -0.008936 0.000000 -0.003276 0.000000
# 3 -0.003157 -0.008936 0.018326 0.000000 -0.000381 0.000000
# 4 0.000000 0.000000 0.000000 0.021779 0.000000 -0.002248
# 5 -0.002691 -0.003276 -0.000381 0.000000 0.040599 0.000000
# 6 0.000000 0.000000 0.000000 -0.002248 0.000000 0.045549
#
#
# Mechanical properties :
#
#
# Convention : Reuss Voigt Hill
#
# Bulk Modulus (GPa) = 63.44207 68.16413 65.80310
# Shear Modulus (GPa) = 27.50296 31.81064 29.65680
#
# Velocity S-wave (km/s) = 3.83730 4.12688 3.98472
# Velocity P-wave (km/s) = 7.32117 7.69434 7.51007
#
# Compressibility (1/GPa) = 0.01576241
#
# Stress axis : x y z
#
# Youngs Moduli (GPa) = 107.74867 68.57403 54.56583
#
# Poissons Ratio (x) = 0.07687 0.17224
# Poissons Ratio (y) = 0.12078 0.48762
# Poissons Ratio (z) = 0.34011 0.61280
#
# Static dielectric constant tensor:
#      x y z
#    x 1.630370 0.000000 -0.015970 
#    y 0.000000 1.893900 0.000000 
#    z -0.015970 0.000000 1.615000 
# 
# From -- ./inp_files/194302.got.cif
#   From: 2010.05.17/outbox.cif.g08.bks.cpg/sg15_98_cif.got.tgz:194302.got - 2010.06.03 18:47:42.
