data_PCOD9276585
_publ_section_title
;
Structure prediction by ZEFSAII (Michael W. Deem and Ramdas Pophale) SiO2 
 PCOD9276585
Probable space group: C 2/C
;
_chemical_formula_sum "Si O2"
_cell_formula_units_Z 56
_cell_length_a 24.502073
_cell_length_b 14.844558
_cell_length_c 8.425485
_cell_angle_alpha 90.000000
_cell_angle_beta 55.348180
_cell_angle_gamma 90.000000
_cell_volume 2520.957775
_symmetry_space_group_name_H-M "C 2/C"
_symmetry_group_IT_number 15
_symmetry_cell_setting 'monoclinic'
loop_
_space_group_symop_operation_xyz
x,y,z
-x,y,1/2-z
-x,-y,-z
x,-y,1/2+z
1/2+x,1/2+y,z
1/2-x,1/2+y,1/2-z
1/2-x,1/2-y,-z
1/2+x,1/2-y,1/2+z
loop_
_atom_site_type_symbol
_atom_site_label
_atom_site_fract_x
_atom_site_fract_y
_atom_site_fract_z
Si Si1 0.392059 0.869874 0.944598
Si Si2 0.427954 0.533984 0.564778
Si Si3 0.545265 0.290935 0.331374
Si Si4 0.930398 0.719343 0.712148
Si Si5 0.362530 0.400452 0.869057
Si Si6 0.785321 0.555126 0.803823
Si Si7 0.129847 0.566451 0.527197
O O1 0.412921 0.797464 0.781405
O O2 0.410741 0.973267 0.877871
O O3 0.423920 0.837878 0.058812
O O4 0.314479 0.880732 0.116554
O O5 0.500000 0.500000 0.500000
O O6 0.412421 0.621449 0.697961
O O7 0.377919 0.453019 0.682620
O O8 0.417469 0.566052 0.403848
O O9 0.500000 0.309834 0.250000
O O10 0.497482 0.273738 0.561525
O O11 0.873388 0.794853 0.823711
O O12 0.919504 0.650195 0.874917
O O13 0.292071 0.432092 0.052014
O O14 0.818624 0.581273 0.914681
O O15 0.821811 0.460014 0.699127
#
# Coordination Sequence:
#
# PCOD9276585 Si02
#       7
#     8   8   8   8   8   8   8
#     4   8  20  38  62  91 127 161 202 262 310 367
#     4  12  25  42  63  92 127 163 209 268 315 372
#     4  10  20  40  63  91 125 165 210 258 317 370
#     4  10  21  38  66  92 126 167 213 255 313 382
#     4  12  25  41  66  94 124 172 210 260 319 372
#     4   9  20  41  60  90 127 161 211 250 311 375
#     4   9  19  40  62  92 127 164 202 264 303 373
#
# _framework density 22.213778999999999
#
# number of rings (size 3 to 8) (size 9 to 14) (size 15 to 20)
#    0.857    1.143    1.429    2.143    2.000    4.000 
#    2.571    0.714    0.000    0.000    0.000    0.000 
#    0.000    0.000    0.000    0.000    0.000    0.000 
#
# Total GULP energy -156037.260573 kJ/mol
# GULP energy per Si atom -5572.759306 kJ/mol
# Density = 2.216322 g / cm^3
# Si number density = 22.213779 Si / 1000 Ang^3
#
#
#
# Elastic Constant Matrix: (Units=GPa)
#
#
# Indices 1 2 3 4 5 6 
#
# 1 51.1091 0.0202 11.0604 0.0000 2.6014 0.0000
# 2 0.0202 122.6273 14.3912 0.0000 1.6557 0.0000
# 3 11.0604 14.3912 78.1404 0.0000 -10.1282 0.0000
# 4 0.0000 0.0000 0.0000 33.2623 0.0000 7.6144
# 5 2.6014 1.6557 -10.1282 0.0000 30.1716 0.0000
# 6 0.0000 0.0000 0.0000 7.6144 0.0000 14.9720
#
#
#
# Elastic Compliance Matrix: (Units=1/GPa)
#
#
# Indices 1 2 3 4 5 6 
#
# 1 0.020439 0.000429 -0.003349 0.000000 -0.002910 0.000000
# 2 0.000429 0.008374 -0.001743 0.000000 -0.001082 0.000000
# 3 -0.003349 -0.001743 0.014263 0.000000 0.005172 0.000000
# 4 0.000000 0.000000 0.000000 0.034026 0.000000 -0.017305
# 5 -0.002910 -0.001082 0.005172 0.000000 0.035190 0.000000
# 6 0.000000 0.000000 0.000000 -0.017305 0.000000 0.075592
#
#
# Mechanical properties :
#
#
# Convention : Reuss Voigt Hill
#
# Bulk Modulus (GPa) = 29.63061 33.64670 31.63866
# Shear Modulus (GPa) = 23.98541 30.77482 27.38012
#
# Velocity S-wave (km/s) = 3.28953 3.72613 3.51461
# Velocity P-wave (km/s) = 5.27217 5.80445 5.54470
#
# Compressibility (1/GPa) = 0.03374888
#
# Stress axis : x y z
#
# Youngs Moduli (GPa) = 48.92674 119.41867 70.11155
#
# Poissons Ratio (x) = -0.05123 0.23482
# Poissons Ratio (y) = -0.02099 0.12222
# Poissons Ratio (z) = 0.16387 0.20816
#
# Static dielectric constant tensor:
#      x y z
#    x 1.843320 0.000000 0.007810 
#    y 0.000000 1.861440 0.000000 
#    z 0.007810 0.000000 1.885540 
# 
# From -- ./inp_files/61825.got.cif
#   From: 2010.05.17/outbox.cif.g08.bks.cpg/sg15_31_cif.got.tgz:61825.got - 2010.06.03 18:47:42.
