data_PCOD9276610
_publ_section_title
;
Structure prediction by ZEFSAII (Michael W. Deem and Ramdas Pophale) SiO2 
 PCOD9276610
Probable space group: C 2/C
;
_chemical_formula_sum "Si O2"
_cell_formula_units_Z 60
_cell_length_a 24.440068
_cell_length_b 20.434486
_cell_length_c 7.549730
_cell_angle_alpha 90.000000
_cell_angle_beta 133.296054
_cell_angle_gamma 90.000000
_cell_volume 2744.236441
_symmetry_space_group_name_H-M "C 2/C"
_symmetry_group_IT_number 15
_symmetry_cell_setting 'monoclinic'
loop_
_space_group_symop_operation_xyz
x,y,z
-x,y,1/2-z
-x,-y,-z
x,-y,1/2+z
1/2+x,1/2+y,z
1/2-x,1/2+y,1/2-z
1/2-x,1/2-y,-z
1/2+x,1/2-y,1/2+z
loop_
_atom_site_type_symbol
_atom_site_label
_atom_site_fract_x
_atom_site_fract_y
_atom_site_fract_z
Si Si1 0.574034 0.455446 0.016994
Si Si2 0.059008 0.226822 0.755985
Si Si3 0.705099 0.215065 0.672830
Si Si4 0.607496 0.591170 0.988156
Si Si5 0.154883 0.698837 0.960070
Si Si6 0.240554 0.926034 0.305607
Si Si7 0.226032 0.430707 0.706533
Si Si8 0.000000 0.239796 0.250000
O O1 0.500000 0.432753 0.750000
O O2 0.570142 0.534705 0.021079
O O3 0.589883 0.429758 0.247400
O O4 0.651239 0.438490 0.084130
O O5 0.080397 0.165022 0.927808
O O6 0.000000 0.264896 0.750000
O O7 0.026884 0.206034 0.493094
O O8 0.134867 0.267425 0.892620
O O9 0.669699 0.220622 0.790646
O O10 0.734817 0.141565 0.724512
O O11 0.773905 0.264587 0.790022
O O12 0.696158 0.587307 0.220363
O O13 0.074049 0.720766 0.851224
O O14 0.165174 0.620919 0.005378
O O15 0.257842 0.919027 0.551683
O O16 0.283226 0.991552 0.337356
#
# Coordination Sequence:
#
# PCOD9276610 Si02
#       8
#     8   8   8   8   8   8   8   4
#     4  10  21  37  54  91 130 171 222 269 335 395
#     4  12  25  46  66 100 139 177 229 285 344 397
#     4  11  24  45  69  97 137 182 224 284 341 412
#     4  10  22  38  60  89 131 180 220 275 328 404
#     4  11  24  44  70 101 133 177 232 279 348 408
#     4  10  22  37  65  91 126 176 224 277 337 403
#     4  10  20  40  63  95 126 173 225 275 331 408
#     4  12  28  42  72 102 134 180 228 288 340 414
#
# _framework density 21.864004000000001
#
# number of rings (size 3 to 8) (size 9 to 14) (size 15 to 20)
#    0.000    1.333    2.667    2.400    4.667    2.133 
#    0.000    0.000    1.467    2.400    0.000    0.000 
#    0.000    0.000    0.000    0.000    0.000    0.000 
#
# Total GULP energy -167692.441741 kJ/mol
# GULP energy per Si atom -5589.748058 kJ/mol
# Density = 2.181424 g / cm^3
# Si number density = 21.864004 Si / 1000 Ang^3
#
#
#
# Elastic Constant Matrix: (Units=GPa)
#
#
# Indices 1 2 3 4 5 6 
#
# 1 88.8236 22.3918 20.5462 0.0000 14.1263 0.0000
# 2 22.3918 116.3121 30.0362 0.0000 20.3023 0.0000
# 3 20.5462 30.0362 86.9751 0.0000 3.8798 0.0000
# 4 0.0000 0.0000 0.0000 15.4862 0.0000 -14.5402
# 5 14.1263 20.3023 3.8798 0.0000 37.1184 0.0000
# 6 0.0000 0.0000 0.0000 -14.5402 0.0000 22.4718
#
#
#
# Elastic Compliance Matrix: (Units=1/GPa)
#
#
# Indices 1 2 3 4 5 6 
#
# 1 0.012740 -0.001128 -0.002443 0.000000 -0.003976 0.000000
# 2 -0.001128 0.010494 -0.003135 0.000000 -0.004983 0.000000
# 3 -0.002443 -0.003135 0.013100 0.000000 0.001275 0.000000
# 4 0.000000 0.000000 0.000000 0.164524 0.000000 0.106454
# 5 -0.003976 -0.004983 0.001275 0.000000 0.031046 0.000000
# 6 0.000000 0.000000 0.000000 0.106454 0.000000 0.113380
#
#
# Mechanical properties :
#
#
# Convention : Reuss Voigt Hill
#
# Bulk Modulus (GPa) = 43.62456 48.67324 46.14890
# Shear Modulus (GPa) = 13.64859 29.62439 21.63649
#
# Velocity S-wave (km/s) = 2.50121 3.68494 3.14919
# Velocity P-wave (km/s) = 5.32329 6.35730 5.86313
#
# Compressibility (1/GPa) = 0.02292287
#
# Stress axis : x y z
#
# Youngs Moduli (GPa) = 78.49296 95.29155 76.33304
#
# Poissons Ratio (x) = 0.10747 0.18646
# Poissons Ratio (y) = 0.08852 0.23933
# Poissons Ratio (z) = 0.19174 0.29877
#
# Static dielectric constant tensor:
#      x y z
#    x 1.849230 0.000000 -0.003960 
#    y 0.000000 1.796460 0.000000 
#    z -0.003960 0.000000 1.825780 
# 
# From -- ./inp_files/63532.got.cif
#   From: 2010.05.17/outbox.cif.g08.bks.cpg/sg15_32_cif.got.tgz:63532.got - 2010.06.03 18:47:42.
