data_PCOD9276570
_publ_section_title
;
Structure prediction by ZEFSAII (Michael W. Deem and Ramdas Pophale) SiO2 
 PCOD9276570
Probable space group: C 2/C
;
_chemical_formula_sum "Si O2"
_cell_formula_units_Z 56
_cell_length_a 17.658914
_cell_length_b 12.118345
_cell_length_c 12.348366
_cell_angle_alpha 90.000000
_cell_angle_beta 49.829869
_cell_angle_gamma 90.000000
_cell_volume 2019.228268
_symmetry_space_group_name_H-M "C 2/C"
_symmetry_group_IT_number 15
_symmetry_cell_setting 'monoclinic'
loop_
_space_group_symop_operation_xyz
x,y,z
-x,y,1/2-z
-x,-y,-z
x,-y,1/2+z
1/2+x,1/2+y,z
1/2-x,1/2+y,1/2-z
1/2-x,1/2-y,-z
1/2+x,1/2-y,1/2+z
loop_
_atom_site_type_symbol
_atom_site_label
_atom_site_fract_x
_atom_site_fract_y
_atom_site_fract_z
Si Si1 0.157904 0.648461 0.057355
Si Si2 0.631290 0.563739 0.258924
Si Si3 0.700868 0.831132 0.886560
Si Si4 0.000000 0.000000 0.500000
Si Si5 0.154111 0.326866 0.181209
Si Si6 0.185962 0.000082 0.465741
Si Si7 0.000000 0.521809 0.750000
Si Si8 0.350495 0.311071 0.257756
O O1 0.115933 0.754309 0.160607
O O2 0.073339 0.558642 0.117636
O O3 0.230145 0.588247 0.077857
O O4 0.231780 0.677600 0.892104
O O5 0.752986 0.550984 0.179947
O O6 0.516654 0.597507 0.390319
O O7 0.641627 0.538364 0.120473
O O8 0.593855 0.425053 0.324093
O O9 0.822535 0.792303 0.788060
O O10 0.641389 0.775115 0.847885
O O11 0.660987 0.817544 0.043683
O O12 0.892333 0.949430 0.543635
O O13 0.057985 0.400178 0.281414
O O14 0.251571 0.392560 0.128871
#
# Coordination Sequence:
#
# PCOD9276570 Si02
#       8
#     8   8   8   4   8   8   4   8
#     4   9  20  40  65  90 130 162 207 263 323 383
#     4  10  22  37  54  87 125 159 206 261 308 370
#     4  10  20  40  63  89 123 173 210 256 322 385
#     4  12  20  34  58  86 112 164 210 248 302 366
#     4   9  20  40  65  90 130 162 207 263 323 383
#     4   9  19  37  60  86 122 161 199 259 315 373
#     4  10  20  44  68 102 128 170 210 272 334 382
#     4  10  20  40  63  89 123 173 210 256 322 385
#
# _framework density 27.733364999999999
#
# number of rings (size 3 to 8) (size 9 to 14) (size 15 to 20)
#    0.000    2.286    0.000    3.000    0.000    1.143 
#   20.571    1.429    0.000    0.000    0.000    0.000 
#    0.000    0.000    0.000    0.000    0.000    0.000 
#
# Total GULP energy -155934.779744 kJ/mol
# GULP energy per Si atom -5569.099277 kJ/mol
# Density = 2.767024 g / cm^3
# Si number density = 27.733365 Si / 1000 Ang^3
#
#
#
# Elastic Constant Matrix: (Units=GPa)
#
#
# Indices 1 2 3 4 5 6 
#
# 1 77.4269 14.3396 12.0133 0.0000 -14.5087 0.0000
# 2 14.3396 129.4665 46.3133 0.0000 -0.9076 0.0000
# 3 12.0133 46.3133 111.2100 0.0000 -17.6207 0.0000
# 4 0.0000 0.0000 0.0000 46.0089 0.0000 -10.8133
# 5 -14.5087 -0.9076 -17.6207 0.0000 37.4048 0.0000
# 6 0.0000 0.0000 0.0000 -10.8133 0.0000 50.8318
#
#
#
# Elastic Compliance Matrix: (Units=1/GPa)
#
#
# Indices 1 2 3 4 5 6 
#
# 1 0.014227 -0.001525 -0.000036 0.000000 0.005465 0.000000
# 2 -0.001525 0.009339 -0.004087 0.000000 -0.002290 0.000000
# 3 -0.000036 -0.004087 0.011542 0.000000 0.005324 0.000000
# 4 0.000000 0.000000 0.000000 0.022879 0.000000 0.004867
# 5 0.005465 -0.002290 0.005324 0.000000 0.031307 0.000000
# 6 0.000000 0.000000 0.000000 0.004867 0.000000 0.020708
#
#
# Mechanical properties :
#
#
# Convention : Reuss Voigt Hill
#
# Bulk Modulus (GPa) = 41.99615 51.49286 46.74450
# Shear Modulus (GPa) = 38.68927 43.21157 40.95042
#
# Velocity S-wave (km/s) = 3.73908 3.95157 3.84679
# Velocity P-wave (km/s) = 5.81521 6.27912 6.05161
#
# Compressibility (1/GPa) = 0.02381171
#
# Stress axis : x y z
#
# Youngs Moduli (GPa) = 70.28718 107.07820 86.64288
#
# Poissons Ratio (x) = 0.16325 0.00313
# Poissons Ratio (y) = 0.10716 0.35414
# Poissons Ratio (z) = 0.00254 0.43767
#
# Static dielectric constant tensor:
#      x y z
#    x 2.169300 0.000000 -0.021570 
#    y 0.000000 1.246580 0.000000 
#    z -0.021570 0.000000 2.623070 
# 
# From -- ./inp_files/162236.got.cif
#   From: 2010.05.17/outbox.cif.g08.bks.cpg/sg15_82_cif.got.tgz:162236.got - 2010.06.03 18:47:42.
