data_PCOD9276426
_publ_section_title
;
Structure prediction by ZEFSAII (Michael W. Deem and Ramdas Pophale) SiO2 
 PCOD9276426
Probable space group: C 2/C
;
_chemical_formula_sum "Si O2"
_cell_formula_units_Z 36
_cell_length_a 23.194149
_cell_length_b 13.559252
_cell_length_c 5.044690
_cell_angle_alpha 90.000000
_cell_angle_beta 62.559284
_cell_angle_gamma 90.000000
_cell_volume 1408.027742
_symmetry_space_group_name_H-M "C 2/C"
_symmetry_group_IT_number 15
_symmetry_cell_setting 'monoclinic'
loop_
_space_group_symop_operation_xyz
x,y,z
-x,y,1/2-z
-x,-y,-z
x,-y,1/2+z
1/2+x,1/2+y,z
1/2-x,1/2+y,1/2-z
1/2-x,1/2-y,-z
1/2+x,1/2-y,1/2+z
loop_
_atom_site_type_symbol
_atom_site_label
_atom_site_fract_x
_atom_site_fract_y
_atom_site_fract_z
Si Si1 0.720847 0.137435 0.545364
Si Si2 0.000000 0.394852 0.250000
Si Si3 0.062908 0.234081 0.504926
Si Si4 0.861484 0.056427 0.239148
Si Si5 0.129453 0.380273 0.729662
O O1 0.750000 0.250000 0.500000
O O2 0.784495 0.071064 0.398930
O O3 0.675268 0.132087 0.385056
O O4 0.676799 0.096100 0.881706
O O5 0.963095 0.324770 0.115702
O O6 0.937598 0.438945 0.546119
O O7 0.106745 0.159712 0.252181
O O8 0.101541 0.277661 0.672238
O O9 0.000000 0.180345 0.750000
O O10 0.881114 0.973607 0.403752
#
# Coordination Sequence:
#
# PCOD9276426 Si02
#       5
#     8   4   8   8   8
#     4  12  23  39  67  91 122 170 221 264 319 369
#     4  10  20  40  62 104 128 158 216 274 310 384
#     4  10  23  39  64  91 135 168 216 255 307 382
#     4  12  28  43  60  92 134 176 215 256 313 379
#     4  11  21  37  65  95 124 156 211 272 316 362
#
# _framework density 25.567678999999998
#
# number of rings (size 3 to 8) (size 9 to 14) (size 15 to 20)
#    0.000    0.889    4.444    2.000    9.333    0.889 
#    0.000    0.000    0.000    0.000    0.000   15.556 
#    0.000    0.000    0.000    0.000    0.000    0.000 
#
# Total GULP energy -100679.727040 kJ/mol
# GULP energy per Si atom -5593.318169 kJ/mol
# Density = 2.550949 g / cm^3
# Si number density = 25.567679 Si / 1000 Ang^3
#
#
#
# Elastic Constant Matrix: (Units=GPa)
#
#
# Indices 1 2 3 4 5 6 
#
# 1 125.7013 34.6066 61.2255 0.0000 10.2228 0.0000
# 2 34.6066 81.3280 20.6109 0.0000 2.4133 0.0000
# 3 61.2255 20.6109 138.0882 0.0000 4.2815 0.0000
# 4 0.0000 0.0000 0.0000 37.2341 0.0000 -4.8242
# 5 10.2228 2.4133 4.2815 0.0000 59.8577 0.0000
# 6 0.0000 0.0000 0.0000 -4.8242 0.0000 25.9336
#
#
#
# Elastic Compliance Matrix: (Units=1/GPa)
#
#
# Indices 1 2 3 4 5 6 
#
# 1 0.011203 -0.003613 -0.004383 0.000000 -0.001454 0.000000
# 2 -0.003613 0.013953 -0.000483 0.000000 0.000089 0.000000
# 3 -0.004383 -0.000483 0.009254 0.000000 0.000106 0.000000
# 4 0.000000 0.000000 0.000000 0.027520 0.000000 0.005119
# 5 -0.001454 0.000089 0.000106 0.000000 0.016943 0.000000
# 6 0.000000 0.000000 0.000000 0.005119 0.000000 0.039512
#
#
# Mechanical properties :
#
#
# Convention : Reuss Voigt Hill
#
# Bulk Modulus (GPa) = 57.30226 64.22263 60.76244
# Shear Modulus (GPa) = 35.42016 39.85005 37.63510
#
# Velocity S-wave (km/s) = 3.72607 3.95221 3.84080
# Velocity P-wave (km/s) = 6.40094 6.78231 6.59439
#
# Compressibility (1/GPa) = 0.01745132
#
# Stress axis : x y z
#
# Youngs Moduli (GPa) = 89.26059 71.66788 108.06291
#
# Poissons Ratio (x) = 0.25895 0.47362
# Poissons Ratio (y) = 0.32252 0.05223
# Poissons Ratio (z) = 0.39122 0.03464
#
# Static dielectric constant tensor:
#      x y z
#    x 1.934270 0.000000 -0.043260 
#    y 0.000000 2.002430 0.000000 
#    z -0.043260 0.000000 2.109420 
# 
# From -- ./inp_files/14881.got.cif
#   From: 2010.05.17/outbox.cif.g08.bks.cpg/sg15_8_cif.got.tgz:14881.got - 2010.06.03 18:47:42.
