data_PCOD9276803
_publ_section_title
;
Structure prediction by ZEFSAII (Michael W. Deem and Ramdas Pophale) SiO2 
 PCOD9276803
Probable space group: C 2/C
;
_chemical_formula_sum "Si O2"
_cell_formula_units_Z 56
_cell_length_a 30.982181
_cell_length_b 9.235285
_cell_length_c 18.640626
_cell_angle_alpha 90.000000
_cell_angle_beta 146.447405
_cell_angle_gamma 90.000000
_cell_volume 2947.908460
_symmetry_space_group_name_H-M "C 2/C"
_symmetry_group_IT_number 15
_symmetry_cell_setting 'monoclinic'
loop_
_space_group_symop_operation_xyz
x,y,z
-x,y,1/2-z
-x,-y,-z
x,-y,1/2+z
1/2+x,1/2+y,z
1/2-x,1/2+y,1/2-z
1/2-x,1/2-y,-z
1/2+x,1/2-y,1/2+z
loop_
_atom_site_type_symbol
_atom_site_label
_atom_site_fract_x
_atom_site_fract_y
_atom_site_fract_z
Si Si1 0.328787 0.260156 0.564501
Si Si2 0.953075 0.286988 0.999118
Si Si3 0.951889 0.474893 0.255012
Si Si4 0.651818 0.350902 0.639275
Si Si5 0.802878 0.161958 0.862465
Si Si6 0.084148 0.061405 0.197893
Si Si7 0.476499 0.753838 0.873560
O O1 0.250000 0.250000 0.500000
O O2 0.317565 0.311324 0.467508
O O3 0.383176 0.370151 0.684167
O O4 0.370440 0.104565 0.628794
O O5 0.000619 0.393659 0.116237
O O6 0.999733 0.134153 0.067079
O O7 0.866746 0.257694 0.907974
O O8 0.959632 0.332860 0.925920
O O9 0.000000 0.453569 0.250000
O O10 0.949582 0.641560 0.273389
O O11 0.717172 0.225503 0.726729
O O12 0.681627 0.495287 0.639334
O O13 0.636245 0.395538 0.701134
O O14 0.568027 0.290423 0.495955
O O15 0.073156 0.892168 0.191253
#
# Coordination Sequence:
#
# PCOD9276803 Si02
#       7
#     8   8   8   8   8   8   8
#     4  11  24  43  64  88 127 172 206 251 324 383
#     4  10  20  40  65  89 121 168 211 249 309 377
#     4  11  24  38  63  96 127 163 211 263 302 375
#     4  11  24  40  64  96 128 165 206 269 308 375
#     4  12  23  40  67  93 129 163 213 261 318 368
#     4  10  20  43  66  87 125 167 208 255 312 379
#     4  11  22  42  66  94 128 163 214 259 317 366
#
# _framework density 18.99652
#
# number of rings (size 3 to 8) (size 9 to 14) (size 15 to 20)
#    0.000    1.143    5.714    1.286    2.000    2.286 
#    0.000    0.714    0.000    0.000    0.000    0.000 
#    0.000    0.000    0.000    0.000    0.000    0.000 
#
# Total GULP energy -156387.903623 kJ/mol
# GULP energy per Si atom -5585.282272 kJ/mol
# Density = 1.895328 g / cm^3
# Si number density = 18.996520 Si / 1000 Ang^3
#
#
#
# Elastic Constant Matrix: (Units=GPa)
#
#
# Indices 1 2 3 4 5 6 
#
# 1 80.2567 56.7073 56.7061 0.0000 54.0398 0.0000
# 2 56.7073 74.1680 11.5606 0.0000 -19.5725 0.0000
# 3 56.7061 11.5606 51.9242 0.0000 -13.2944 0.0000
# 4 0.0000 0.0000 0.0000 14.4535 0.0000 2.0140
# 5 54.0398 -19.5725 -13.2944 0.0000 -7.9315 0.0000
# 6 0.0000 0.0000 0.0000 2.0140 0.0000 28.7624
#
#
#
# Elastic Compliance Matrix: (Units=1/GPa)
#
#
# Indices 1 2 3 4 5 6 
#
# 1 0.002501 0.001470 0.000263 0.000000 0.012972 0.000000
# 2 0.001470 0.011287 -0.006077 0.000000 -0.007651 0.000000
# 3 0.000263 -0.006077 0.017229 0.000000 -0.012092 0.000000
# 4 0.000000 0.000000 0.000000 0.069869 0.000000 -0.004892
# 5 0.012972 -0.007651 -0.012092 0.000000 0.001451 0.000000
# 6 0.000000 0.000000 0.000000 -0.004892 0.000000 0.035110
#
#
# Mechanical properties :
#
#
# Convention : Reuss Voigt Hill
#
# Bulk Modulus (GPa) = 44.78629 50.69965 47.74297
# Shear Modulus (GPa) = 32.55637 12.48188 22.51912
#
# Velocity S-wave (km/s) = 4.14431 2.56610 3.44675
# Velocity P-wave (km/s) = 6.82111 5.96043 6.40524
#
# Compressibility (1/GPa) = 0.02232826
#
# Stress axis : x y z
#
# Youngs Moduli (GPa) = 399.83586 88.59569 58.04131
#
# Poissons Ratio (x) = -0.13025 -0.01525
# Poissons Ratio (y) = -0.58780 0.35274
# Poissons Ratio (z) = -0.10502 0.53843
#
# Static dielectric constant tensor:
#      x y z
#    x 1.656950 0.000000 0.125040 
#    y 0.000000 1.677350 0.000000 
#    z 0.125040 0.000000 3.044160 
# 
# From -- ./inp_files/213795.got.cif
#   From: 2010.05.17/outbox.cif.g08.bks.cpg/sg15_107_cif.got.tgz:213795.got - 2010.06.03 18:47:42.
