data_PCOD9276124
_publ_section_title
;
Structure prediction by ZEFSAII (Michael W. Deem and Ramdas Pophale) SiO2 
 PCOD9276124
Probable space group: C 2/C
;
_chemical_formula_sum "Si O2"
_cell_formula_units_Z 36
_cell_length_a 14.539496
_cell_length_b 21.773917
_cell_length_c 7.842748
_cell_angle_alpha 90.000000
_cell_angle_beta 35.280474
_cell_angle_gamma 90.000000
_cell_volume 1434.055350
_symmetry_space_group_name_H-M "C 2/C"
_symmetry_group_IT_number 15
_symmetry_cell_setting 'monoclinic'
loop_
_space_group_symop_operation_xyz
x,y,z
-x,y,1/2-z
-x,-y,-z
x,-y,1/2+z
1/2+x,1/2+y,z
1/2-x,1/2+y,1/2-z
1/2-x,1/2-y,-z
1/2+x,1/2-y,1/2+z
loop_
_atom_site_type_symbol
_atom_site_label
_atom_site_fract_x
_atom_site_fract_y
_atom_site_fract_z
Si Si1 0.500000 0.098521 0.250000
Si Si2 0.107933 0.679335 0.363946
Si Si3 0.926168 0.190675 0.679288
Si Si4 0.690582 0.404514 0.719430
Si Si5 0.684661 0.984205 0.274326
O O1 0.485823 0.138024 0.444147
O O2 0.347462 0.053873 0.502290
O O3 0.062727 0.749894 0.456564
O O4 0.178412 0.646856 0.423868
O O5 0.246811 0.678652 0.007681
O O6 0.000000 0.210410 0.750000
O O7 0.025036 0.131933 0.469866
O O8 0.729704 0.440530 0.489338
O O9 0.714353 0.455879 0.830053
O O10 0.500000 0.000000 0.500000
#
# Coordination Sequence:
#
# PCOD9276124 Si02
#       5
#     4   8   8   8   8
#     4  12  22  38  70  94 126 188 222 274 342 408
#     4  10  20  39  68  96 135 174 221 268 349 405
#     4   9  20  40  67  98 134 177 219 282 336 402
#     4  11  22  41  71 101 134 177 230 279 337 403
#     4  12  22  40  67  96 134 178 226 281 332 406
#
# _framework density 25.103632999999999
#
# number of rings (size 3 to 8) (size 9 to 14) (size 15 to 20)
#    0.000    1.333    5.556    0.000    0.000    0.000 
#    0.000   20.000    9.778    0.000    0.000    0.000 
#    0.000    0.000    0.000    0.000    0.000    0.000 
#
# Total GULP energy -100607.533626 kJ/mol
# GULP energy per Si atom -5589.307424 kJ/mol
# Density = 2.504650 g / cm^3
# Si number density = 25.103633 Si / 1000 Ang^3
#
#
#
# Elastic Constant Matrix: (Units=GPa)
#
#
# Indices 1 2 3 4 5 6 
#
# 1 42.9615 40.6566 36.4517 0.0000 12.7062 0.0002
# 2 40.6566 193.6807 83.0073 0.0000 4.2628 0.0000
# 3 36.4517 83.0073 101.1917 0.0000 8.5165 0.0002
# 4 0.0000 0.0000 0.0000 42.9189 0.0000 -14.9159
# 5 12.7062 4.2628 8.5165 0.0000 38.2865 -0.0001
# 6 0.0002 0.0000 0.0002 -14.9159 -0.0001 25.4740
#
#
#
# Elastic Compliance Matrix: (Units=1/GPa)
#
#
# Indices 1 2 3 4 5 6 
#
# 1 0.038006 -0.003472 -0.010001 0.000000 -0.010002 0.000000
# 2 -0.003472 0.008292 -0.005677 0.000000 0.001492 0.000000
# 3 -0.010001 -0.005677 0.018149 0.000000 -0.000086 0.000000
# 4 0.000000 0.000000 0.000000 0.029252 0.000000 0.017128
# 5 -0.010002 0.001492 -0.000086 0.000000 0.029291 0.000000
# 6 0.000000 0.000000 0.000000 0.017128 0.000000 0.049285
#
#
# Mechanical properties :
#
#
# Convention : Reuss Voigt Hill
#
# Bulk Modulus (GPa) = 38.24457 73.11832 55.68144
# Shear Modulus (GPa) = 22.80082 33.18377 27.99230
#
# Velocity S-wave (km/s) = 3.01702 3.63970 3.34289
# Velocity P-wave (km/s) = 5.23491 6.84493 6.09333
#
# Compressibility (1/GPa) = 0.02614750
#
# Stress axis : x y z
#
# Youngs Moduli (GPa) = 26.31175 120.59723 55.09989
#
# Poissons Ratio (x) = 0.41867 0.55106
# Poissons Ratio (y) = 0.09135 0.31280
# Poissons Ratio (z) = 0.26314 0.68462
#
# Static dielectric constant tensor:
#      x y z
#    x 2.085460 0.000000 -0.078010 
#    y 0.000000 2.073950 0.000000 
#    z -0.078010 0.000000 2.033440 
# 
# From -- ./inp_files/50543.got.cif
#   From: 2010.05.17/outbox.cif.g08.bks.cpg/sg15_26_cif.got.tgz:50543.got - 2010.06.03 18:47:42.
