data_PCOD9276293
_publ_section_title
;
Structure prediction by ZEFSAII (Michael W. Deem and Ramdas Pophale) SiO2 
 PCOD9276293
Probable space group: C 2/C
;
_chemical_formula_sum "Si O2"
_cell_formula_units_Z 40
_cell_length_a 22.824428
_cell_length_b 11.881979
_cell_length_c 8.601591
_cell_angle_alpha 90.000000
_cell_angle_beta 42.358945
_cell_angle_gamma 90.000000
_cell_volume 1571.741518
_symmetry_space_group_name_H-M "C 2/C"
_symmetry_group_IT_number 15
_symmetry_cell_setting 'monoclinic'
loop_
_space_group_symop_operation_xyz
x,y,z
-x,y,1/2-z
-x,-y,-z
x,-y,1/2+z
1/2+x,1/2+y,z
1/2-x,1/2+y,1/2-z
1/2-x,1/2-y,-z
1/2+x,1/2-y,1/2+z
loop_
_atom_site_type_symbol
_atom_site_label
_atom_site_fract_x
_atom_site_fract_y
_atom_site_fract_z
Si Si1 0.326118 0.459815 0.001420
Si Si2 0.071119 0.080628 0.500411
Si Si3 0.830168 0.738361 0.222034
Si Si4 0.188378 0.640090 0.568734
Si Si5 0.495638 0.170806 0.430850
O O1 0.343721 0.572543 0.061438
O O2 0.338431 0.358438 0.105890
O O3 0.238654 0.451131 0.074130
O O4 0.398462 0.461187 0.724235
O O5 0.039546 0.204102 0.532963
O O6 0.000000 0.022741 0.750000
O O7 0.750000 0.750000 0.500000
O O8 0.914792 0.695236 0.152917
O O9 0.818469 0.653454 0.101646
O O10 0.250000 0.750000 0.500000
O O11 0.087097 0.624250 0.814423
O O12 0.500000 0.116086 0.250000
#
# Coordination Sequence:
#
# PCOD9276293 Si02
#       5
#     8   8   8   8   8
#     4  11  25  39  59  93 138 176 214 263 331 403
#     4  11  25  37  60  95 142 174 209 261 339 411
#     4  11  24  39  64  92 129 173 224 277 325 386
#     4  10  20  40  59  87 131 168 225 261 311 389
#     4  11  22  38  64  95 130 168 217 270 331 389
#
# _framework density 25.449477000000002
#
# number of rings (size 3 to 8) (size 9 to 14) (size 15 to 20)
#    0.000    1.200    4.000    3.600   11.200    0.000 
#    0.000    0.000    0.000    0.000    0.000   26.600 
#    0.000    0.000    0.000    0.000    0.000    0.000 
#
# Total GULP energy -111431.375628 kJ/mol
# GULP energy per Si atom -5571.568781 kJ/mol
# Density = 2.539155 g / cm^3
# Si number density = 25.449477 Si / 1000 Ang^3
#
#
#
# Elastic Constant Matrix: (Units=GPa)
#
#
# Indices 1 2 3 4 5 6 
#
# 1 546.0154 -44.1338 204.6398 0.0000 -27.9965 0.0000
# 2 -44.1338 42.6853 -6.5803 0.0000 7.0380 0.0000
# 3 204.6398 -6.5803 249.6074 0.0000 6.3504 0.0000
# 4 0.0000 0.0000 0.0000 -21.9170 0.0000 -3.1461
# 5 -27.9965 7.0380 6.3504 0.0000 57.5156 0.0000
# 6 0.0000 0.0000 0.0000 -3.1461 0.0000 40.5912
#
#
#
# Elastic Compliance Matrix: (Units=1/GPa)
#
#
# Indices 1 2 3 4 5 6 
#
# 1 0.003028 0.002515 -0.002452 0.000000 0.001437 0.000000
# 2 0.002515 0.026124 -0.001327 0.000000 -0.001826 0.000000
# 3 -0.002452 -0.001327 0.006025 0.000000 -0.001697 0.000000
# 4 0.000000 0.000000 0.000000 -0.045125 0.000000 -0.003498
# 5 0.001437 -0.001826 -0.001697 0.000000 0.018497 0.000000
# 6 0.000000 0.000000 0.000000 -0.003498 0.000000 0.024365
#
#
# Mechanical properties :
#
#
# Convention : Reuss Voigt Hill
#
# Bulk Modulus (GPa) = 30.62887 127.35105 78.98996
# Shear Modulus (GPa) = 107.93319 60.86345 84.39832
#
# Velocity S-wave (km/s) = 6.51942 4.89564 5.76499
# Velocity P-wave (km/s) = 8.29046 9.06122 8.68440
#
# Compressibility (1/GPa) = 0.03264893
#
# Stress axis : x y z
#
# Youngs Moduli (GPa) = 330.30128 38.27831 165.97437
#
# Poissons Ratio (x) = -0.09628 0.40703
# Poissons Ratio (y) = -0.83082 0.22025
# Poissons Ratio (z) = 0.81002 0.05080
#
# Static dielectric constant tensor:
#      x y z
#    x 2.121390 0.000000 0.133470 
#    y 0.000000 2.130340 0.000000 
#    z 0.133470 0.000000 2.405160 
# 
# From -- ./inp_files/56361.got.cif
#   From: 2010.05.17/outbox.cif.g08.bks.cpg/sg15_29_cif.got.tgz:56361.got - 2010.06.03 18:47:42.
