data_PCOD9276688
_publ_section_title
;
Structure prediction by ZEFSAII (Michael W. Deem and Ramdas Pophale) SiO2 
 PCOD9276688
Probable space group: C 2/C
;
_chemical_formula_sum "Si O2"
_cell_formula_units_Z 56
_cell_length_a 16.748564
_cell_length_b 30.210457
_cell_length_c 9.078039
_cell_angle_alpha 90.000000
_cell_angle_beta 141.944789
_cell_angle_gamma 90.000000
_cell_volume 2831.418133
_symmetry_space_group_name_H-M "C 2/C"
_symmetry_group_IT_number 15
_symmetry_cell_setting 'monoclinic'
loop_
_space_group_symop_operation_xyz
x,y,z
-x,y,1/2-z
-x,-y,-z
x,-y,1/2+z
1/2+x,1/2+y,z
1/2-x,1/2+y,1/2-z
1/2-x,1/2-y,-z
1/2+x,1/2-y,1/2+z
loop_
_atom_site_type_symbol
_atom_site_label
_atom_site_fract_x
_atom_site_fract_y
_atom_site_fract_z
Si Si1 0.733191 0.600895 0.426387
Si Si2 0.121056 0.635059 0.142310
Si Si3 0.335756 0.856371 0.318609
Si Si4 0.709265 0.928867 0.019215
Si Si5 0.486734 0.548614 0.051259
Si Si6 0.852800 0.714604 0.086759
Si Si7 0.909638 0.520290 0.740314
O O1 0.810728 0.627427 0.414086
O O2 0.716234 0.633795 0.538709
O O3 0.603660 0.580310 0.172938
O O4 0.803445 0.558193 0.607234
O O5 0.177122 0.593269 0.316171
O O6 0.147485 0.677927 0.282954
O O7 0.965525 0.639486 0.908976
O O8 0.360305 0.895804 0.470112
O O9 0.314095 0.812724 0.383332
O O10 0.854631 0.931988 0.291621
O O11 0.656426 0.978366 0.933625
O O12 0.500000 0.545784 0.250000
O O13 0.500000 0.500000 0.000000
O O14 0.000000 0.729633 0.250000
O O15 0.750000 0.750000 0.000000
O O16 0.000000 0.542434 0.750000
O O17 0.000000 0.500000 0.000000
#
# Coordination Sequence:
#
# PCOD9276688 Si02
#       7
#     8   8   8   8   8   8   8
#     4  12  23  39  58  87 127 164 218 255 313 369
#     4  10  22  38  65  96 120 158 204 259 320 371
#     4  10  20  40  64  90 127 157 198 267 316 366
#     4  11  21  39  57  82 122 168 217 256 313 357
#     4  12  27  42  55  76 126 182 222 267 316 366
#     4   9  20  43  70  98 128 159 201 254 326 403
#     4  12  23  32  54  84 115 156 211 264 297 346
#
# _framework density 19.778075000000001
#
# number of rings (size 3 to 8) (size 9 to 14) (size 15 to 20)
#    0.000    1.143    2.857    6.000    2.000    0.000 
#    5.143    0.714    0.000    0.000    0.000    0.000 
#    0.000    0.000    0.000    0.000    0.000    0.000 
#
# Total GULP energy -155970.890622 kJ/mol
# GULP energy per Si atom -5570.388951 kJ/mol
# Density = 1.973306 g / cm^3
# Si number density = 19.778075 Si / 1000 Ang^3
#
#
#
# Elastic Constant Matrix: (Units=GPa)
#
#
# Indices 1 2 3 4 5 6 
#
# 1 99.5732 43.6322 32.3489 0.0000 -0.4151 0.0000
# 2 43.6322 82.2576 17.6335 0.0000 13.7506 0.0000
# 3 32.3489 17.6335 86.1653 0.0000 11.5960 0.0000
# 4 0.0000 0.0000 0.0000 12.8525 0.0000 9.9071
# 5 -0.4151 13.7506 11.5960 0.0000 32.6425 0.0000
# 6 0.0000 0.0000 0.0000 9.9071 0.0000 29.7118
#
#
#
# Elastic Compliance Matrix: (Units=1/GPa)
#
#
# Indices 1 2 3 4 5 6 
#
# 1 0.015031 -0.007821 -0.004738 0.000000 0.005169 0.000000
# 2 -0.007821 0.017495 0.000379 0.000000 -0.007604 0.000000
# 3 -0.004738 0.000379 0.014006 0.000000 -0.005196 0.000000
# 4 0.000000 0.000000 0.000000 0.104722 0.000000 -0.034918
# 5 0.005169 -0.007604 -0.005196 0.000000 0.035750 0.000000
# 6 0.000000 0.000000 0.000000 -0.034918 0.000000 0.045300
#
#
# Mechanical properties :
#
#
# Convention : Reuss Voigt Hill
#
# Bulk Modulus (GPa) = 45.10146 50.58060 47.84103
# Shear Modulus (GPa) = 18.93550 26.66679 22.80114
#
# Velocity S-wave (km/s) = 3.09754 3.67590 3.39905
# Velocity P-wave (km/s) = 5.97045 6.60651 6.29652
#
# Compressibility (1/GPa) = 0.02217223
#
# Stress axis : x y z
#
# Youngs Moduli (GPa) = 66.52953 57.15780 71.39800
#
# Poissons Ratio (x) = 0.44705 0.33829
# Poissons Ratio (y) = 0.52035 -0.02708
# Poissons Ratio (z) = 0.31522 -0.02168
#
# Static dielectric constant tensor:
#      x y z
#    x 1.816570 0.000000 0.075810 
#    y 0.000000 1.693090 0.000000 
#    z 0.075810 0.000000 1.808920 
# 
# From -- ./inp_files/52345.got.cif
#   From: 2010.05.17/outbox.cif.g08.bks.cpg/sg15_27_cif.got.tgz:52345.got - 2010.06.03 18:47:42.
