data_PCOD9276802
_publ_section_title
;
Structure prediction by ZEFSAII (Michael W. Deem and Ramdas Pophale) SiO2 
 PCOD9276802
Probable space group: C 2/C
;
_chemical_formula_sum "Si O2"
_cell_formula_units_Z 64
_cell_length_a 28.536511
_cell_length_b 8.374230
_cell_length_c 13.139532
_cell_angle_alpha 90.000000
_cell_angle_beta 127.391626
_cell_angle_gamma 90.000000
_cell_volume 2494.717683
_symmetry_space_group_name_H-M "C 2/C"
_symmetry_group_IT_number 15
_symmetry_cell_setting 'monoclinic'
loop_
_space_group_symop_operation_xyz
x,y,z
-x,y,1/2-z
-x,-y,-z
x,-y,1/2+z
1/2+x,1/2+y,z
1/2-x,1/2+y,1/2-z
1/2-x,1/2-y,-z
1/2+x,1/2-y,1/2+z
loop_
_atom_site_type_symbol
_atom_site_label
_atom_site_fract_x
_atom_site_fract_y
_atom_site_fract_z
Si Si1 0.767044 0.292700 0.309341
Si Si2 0.476961 0.044000 0.833263
Si Si3 0.292347 0.409266 0.676407
Si Si4 0.193650 0.457186 0.782896
Si Si5 0.917221 0.970232 0.911834
Si Si6 0.356965 0.821833 0.129147
Si Si7 0.595081 0.189357 0.031501
Si Si8 0.520133 0.329241 0.163907
O O1 0.733621 0.417135 0.339047
O O2 0.748096 0.216646 0.173020
O O3 0.813844 0.411595 0.317853
O O4 0.757164 0.128459 0.358602
O O5 0.500000 0.085239 0.750000
O O6 0.418836 0.151896 0.772685
O O7 0.536708 0.083629 0.973669
O O8 0.461002 0.856065 0.807965
O O9 0.350952 0.409480 0.825400
O O10 0.320109 0.335741 0.611122
O O11 0.182721 0.535958 0.876839
O O12 0.143210 0.333331 0.683635
O O13 0.934001 0.045434 0.823998
O O14 0.923313 0.125903 0.991318
O O15 0.964038 0.845611 0.015446
O O16 0.376024 0.843287 0.039225
O O17 0.500000 0.374156 0.250000
#
# Coordination Sequence:
#
# PCOD9276802 Si02
#       8
#     8   8   8   8   8   8   8   8
#     4   9  20  40  65  84 122 163 203 270 321 364
#     4   9  21  39  58  87 127 165 198 245 301 368
#     4  10  21  40  64  93 119 166 209 257 325 366
#     4  10  20  40  65  89 121 165 208 261 321 370
#     4  11  24  37  63  96 123 170 208 254 313 369
#     4  10  23  39  65  93 125 165 206 256 312 379
#     4  11  23  40  63  94 128 166 209 252 308 380
#     4  10  24  41  59  93 135 168 208 253 301 374
#
# _framework density 25.654208000000001
#
# number of rings (size 3 to 8) (size 9 to 14) (size 15 to 20)
#    0.000    2.000    1.250    0.750    8.750    1.500 
#    0.000    6.250    0.000    0.000    0.000    0.000 
#    0.000    0.000    0.000    0.000    0.000    0.000 
#
# Total GULP energy -178376.880617 kJ/mol
# GULP energy per Si atom -5574.277519 kJ/mol
# Density = 2.559582 g / cm^3
# Si number density = 25.654208 Si / 1000 Ang^3
#
#
#
# Elastic Constant Matrix: (Units=GPa)
#
#
# Indices 1 2 3 4 5 6 
#
# 1 151.9330 43.6330 35.4003 0.0000 -30.7295 0.0000
# 2 43.6330 86.8530 22.5396 0.0000 -16.5044 0.0000
# 3 35.4003 22.5396 49.5236 0.0000 -9.5787 0.0000
# 4 0.0000 0.0000 0.0000 20.3950 0.0000 5.8812
# 5 -30.7295 -16.5044 -9.5787 0.0000 52.6021 0.0000
# 6 0.0000 0.0000 0.0000 5.8812 0.0000 40.4709
#
#
#
# Elastic Compliance Matrix: (Units=1/GPa)
#
#
# Indices 1 2 3 4 5 6 
#
# 1 0.009180 -0.002716 -0.004616 0.000000 0.003670 0.000000
# 2 -0.002716 0.014375 -0.004182 0.000000 0.002162 0.000000
# 3 -0.004616 -0.004182 0.025519 0.000000 0.000638 0.000000
# 4 0.000000 0.000000 0.000000 0.051176 0.000000 -0.007437
# 5 0.003670 0.002162 0.000638 0.000000 0.021949 0.000000
# 6 0.000000 0.000000 0.000000 -0.007437 0.000000 0.025790
#
#
# Mechanical properties :
#
#
# Convention : Reuss Voigt Hill
#
# Bulk Modulus (GPa) = 38.39662 54.60614 46.50138
# Shear Modulus (GPa) = 27.82441 35.14270 31.48356
#
# Velocity S-wave (km/s) = 3.29689 3.70518 3.50698
# Velocity P-wave (km/s) = 5.43067 6.29572 5.87913
#
# Compressibility (1/GPa) = 0.02604396
#
# Stress axis : x y z
#
# Youngs Moduli (GPa) = 108.93639 69.56733 39.18691
#
# Poissons Ratio (x) = 0.18898 0.18087
# Poissons Ratio (y) = 0.29592 0.16389
# Poissons Ratio (z) = 0.50281 0.29096
#
# Static dielectric constant tensor:
#      x y z
#    x 2.085450 0.000000 0.038840 
#    y 0.000000 2.039590 0.000000 
#    z 0.038840 0.000000 2.088290 
# 
# From -- ./inp_files/176638.got.cif
#   From: 2010.05.17/outbox.cif.g08.bks.cpg/sg15_89_cif.got.tgz:176638.got - 2010.06.03 18:47:42.
