data_PCOD9276386
_publ_section_title
;
Structure prediction by ZEFSAII (Michael W. Deem and Ramdas Pophale) SiO2 
 PCOD9276386
Probable space group: C 2/C
;
_chemical_formula_sum "Si O2"
_cell_formula_units_Z 40
_cell_length_a 8.799125
_cell_length_b 26.363214
_cell_length_c 8.072295
_cell_angle_alpha 90.000000
_cell_angle_beta 109.462246
_cell_angle_gamma 90.000000
_cell_volume 1765.560690
_symmetry_space_group_name_H-M "C 2/C"
_symmetry_group_IT_number 15
_symmetry_cell_setting 'monoclinic'
loop_
_space_group_symop_operation_xyz
x,y,z
-x,y,1/2-z
-x,-y,-z
x,-y,1/2+z
1/2+x,1/2+y,z
1/2-x,1/2+y,1/2-z
1/2-x,1/2-y,-z
1/2+x,1/2-y,1/2+z
loop_
_atom_site_type_symbol
_atom_site_label
_atom_site_fract_x
_atom_site_fract_y
_atom_site_fract_z
Si Si1 0.310420 0.767599 0.200810
Si Si2 0.818389 0.666526 0.242980
Si Si3 0.675101 0.465771 0.231511
Si Si4 0.817291 0.626719 0.622619
Si Si5 0.183095 0.438267 0.884532
O O1 0.500000 0.772728 0.250000
O O2 0.270060 0.720369 0.302955
O O3 0.252058 0.825149 0.206515
O O4 0.250000 0.750000 0.000000
O O5 0.819991 0.645714 0.433228
O O6 0.754267 0.619006 0.115315
O O7 0.000000 0.675823 0.250000
O O8 0.500000 0.461851 0.250000
O O9 0.708938 0.422802 0.106884
O O10 0.805722 0.454012 0.421403
O O11 0.709355 0.521136 0.173177
O O12 0.000000 0.616025 0.750000
O O13 0.000000 0.439753 0.750000
#
# Coordination Sequence:
#
# PCOD9276386 Si02
#       5
#     8   8   8   8   8
#     4   9  20  37  59  85 119 159 195 240 297 348
#     4  10  21  38  62  91 119 158 204 247 294 354
#     4  12  25  40  62  93 122 155 199 253 303 350
#     4  10  20  40  61  86 124 163 199 242 297 362
#     4  11  23  41  62  87 119 163 201 240 298 364
#
# _framework density 22.655691999999998
#
# number of rings (size 3 to 8) (size 9 to 14) (size 15 to 20)
#    0.000    1.600    0.000    5.400    0.000    4.800 
#    0.000   14.000    0.000    0.000    0.000    0.000 
#    0.000    0.000    0.000    0.000    0.000    0.000 
#
# Total GULP energy -111789.512364 kJ/mol
# GULP energy per Si atom -5589.475618 kJ/mol
# Density = 2.260413 g / cm^3
# Si number density = 22.655692 Si / 1000 Ang^3
#
#
#
# Elastic Constant Matrix: (Units=GPa)
#
#
# Indices 1 2 3 4 5 6 
#
# 1 66.5151 41.4376 -10.5212 0.0000 -14.6916 0.0000
# 2 41.4376 154.5093 -20.9585 0.0000 -25.7085 0.0000
# 3 -10.5212 -20.9585 51.8706 0.0000 -2.0263 0.0000
# 4 0.0000 0.0000 0.0000 55.1695 0.0000 9.4004
# 5 -14.6916 -25.7085 -2.0263 0.0000 31.1230 0.0000
# 6 0.0000 0.0000 0.0000 9.4004 0.0000 19.4630
#
#
#
# Elastic Compliance Matrix: (Units=1/GPa)
#
#
# Indices 1 2 3 4 5 6 
#
# 1 0.019137 -0.003766 0.002598 0.000000 0.006092 0.000000
# 2 -0.003766 0.008847 0.003034 0.000000 0.005727 0.000000
# 3 0.002598 0.003034 0.021232 0.000000 0.005115 0.000000
# 4 0.000000 0.000000 0.000000 0.019751 0.000000 -0.009540
# 5 0.006092 0.005727 0.005115 0.000000 0.040070 0.000000
# 6 0.000000 0.000000 0.000000 -0.009540 0.000000 0.055987
#
#
# Mechanical properties :
#
#
# Convention : Reuss Voigt Hill
#
# Bulk Modulus (GPa) = 18.88688 32.53452 25.71070
# Shear Modulus (GPa) = 27.94214 38.68023 33.31118
#
# Velocity S-wave (km/s) = 3.51570 4.13644 3.83864
# Velocity P-wave (km/s) = 4.98345 6.09960 5.56956
#
# Compressibility (1/GPa) = 0.05294682
#
# Stress axis : x y z
#
# Youngs Moduli (GPa) = 52.25495 113.03593 47.09973
#
# Poissons Ratio (x) = 0.42573 -0.12236
# Poissons Ratio (y) = 0.19681 -0.14292
# Poissons Ratio (z) = -0.13575 -0.34299
#
# Static dielectric constant tensor:
#      x y z
#    x 1.820900 0.000000 -0.014160 
#    y 0.000000 1.909260 0.000000 
#    z -0.014160 0.000000 1.869120 
# 
# From -- ./inp_files/24429.got.cif
#   From: 2010.05.17/outbox.cif.g08.bks.cpg/sg15_13_cif.got.tgz:24429.got - 2010.06.03 18:47:42.
