data_PCOD9276157
_publ_section_title
;
Structure prediction by ZEFSAII (Michael W. Deem and Ramdas Pophale) SiO2 
 PCOD9276157
Probable space group: C 2/C
;
_chemical_formula_sum "Si O2"
_cell_formula_units_Z 64
_cell_length_a 11.334420
_cell_length_b 16.760878
_cell_length_c 16.287394
_cell_angle_alpha 90.000000
_cell_angle_beta 89.947780
_cell_angle_gamma 90.000000
_cell_volume 3094.193635
_symmetry_space_group_name_H-M "C 2/C"
_symmetry_group_IT_number 15
_symmetry_cell_setting 'monoclinic'
loop_
_space_group_symop_operation_xyz
x,y,z
-x,y,1/2-z
-x,-y,-z
x,-y,1/2+z
1/2+x,1/2+y,z
1/2-x,1/2+y,1/2-z
1/2-x,1/2-y,-z
1/2+x,1/2-y,1/2+z
loop_
_atom_site_type_symbol
_atom_site_label
_atom_site_fract_x
_atom_site_fract_y
_atom_site_fract_z
Si Si1 0.527715 0.528106 0.406461
Si Si2 0.194165 0.735496 0.412430
Si Si3 0.234487 0.586074 0.169622
Si Si4 0.927322 0.133037 0.678877
Si Si5 0.995105 0.607828 0.423981
Si Si6 0.324719 0.919672 0.262854
Si Si7 0.394479 0.669531 0.304643
Si Si8 0.525901 0.918615 0.389550
O O1 0.500000 0.500000 0.500000
O O2 0.666814 0.551959 0.394770
O O3 0.511770 0.448330 0.351425
O O4 0.450169 0.600271 0.365380
O O5 0.250000 0.750000 0.500000
O O6 0.107056 0.808592 0.393656
O O7 0.307324 0.726161 0.354024
O O8 0.111547 0.657836 0.403351
O O9 0.124932 0.628254 0.124960
O O10 0.178783 0.514465 0.222489
O O11 0.310824 0.633368 0.234725
O O12 0.804149 0.110246 0.719565
O O13 0.000000 0.175272 0.750000
O O14 0.972210 0.619644 0.521109
O O15 0.018245 0.514033 0.406276
O O16 0.413872 0.893532 0.334756
O O17 0.367020 0.900946 0.171646
O O18 0.500000 0.706442 0.250000
#
# Coordination Sequence:
#
# PCOD9276157 Si02
#       8
#     8   8   8   8   8   8   8   8
#     4  10  20  39  69  95 126 165 217 274 323 380
#     4  12  26  43  62  89 130 174 212 262 334 408
#     4   9  19  34  61  93 118 155 211 267 309 375
#     4  11  24  39  60  92 129 163 211 259 322 393
#     4  10  21  35  58  91 127 155 209 260 323 376
#     4   9  17  35  57  86 120 157 201 250 314 370
#     4  10  22  42  66  89 118 168 224 262 313 389
#     4   9  18  34  60  91 117 157 204 267 307 367
#
# _framework density 20.683903000000001
#
# number of rings (size 3 to 8) (size 9 to 14) (size 15 to 20)
#    0.000    2.000    0.000    4.125    1.750    7.000 
#    4.500    0.000    0.000    3.000    0.000    0.000 
#    0.000    0.000    0.000    0.000    0.000    0.000 
#
# Total GULP energy -178512.956224 kJ/mol
# GULP energy per Si atom -5578.529882 kJ/mol
# Density = 2.063683 g / cm^3
# Si number density = 20.683903 Si / 1000 Ang^3
#
#
#
# Elastic Constant Matrix: (Units=GPa)
#
#
# Indices 1 2 3 4 5 6 
#
# 1 60.4360 13.8858 25.2863 0.0000 6.8095 0.0000
# 2 13.8858 44.4451 3.2181 0.0000 2.0130 0.0000
# 3 25.2863 3.2181 98.6192 0.0000 -4.7617 0.0000
# 4 0.0000 0.0000 0.0000 21.9515 0.0000 0.2255
# 5 6.8095 2.0130 -4.7617 0.0000 36.4804 0.0000
# 6 0.0000 0.0000 0.0000 0.2255 0.0000 21.5797
#
#
#
# Elastic Compliance Matrix: (Units=1/GPa)
#
#
# Indices 1 2 3 4 5 6 
#
# 1 0.020579 -0.005856 -0.005289 0.000000 -0.004208 0.000000
# 2 -0.005856 0.024285 0.000701 0.000000 -0.000155 0.000000
# 3 -0.005289 0.000701 0.011592 0.000000 0.002462 0.000000
# 4 0.000000 0.000000 0.000000 0.045560 0.000000 -0.000476
# 5 -0.004208 -0.000155 0.002462 0.000000 0.028527 0.000000
# 6 0.000000 0.000000 0.000000 -0.000476 0.000000 0.046345
#
#
# Mechanical properties :
#
#
# Convention : Reuss Voigt Hill
#
# Bulk Modulus (GPa) = 28.11330 32.03119 30.07224
# Shear Modulus (GPa) = 23.85145 26.74300 25.29722
#
# Velocity S-wave (km/s) = 3.39948 3.59965 3.50099
# Velocity P-wave (km/s) = 5.38795 5.72680 5.55996
#
# Compressibility (1/GPa) = 0.03557035
#
# Stress axis : x y z
#
# Youngs Moduli (GPa) = 48.59380 41.17703 86.26650
#
# Poissons Ratio (x) = 0.24112 0.45623
# Poissons Ratio (y) = 0.28455 -0.06051
# Poissons Ratio (z) = 0.25699 -0.02888
#
# Static dielectric constant tensor:
#      x y z
#    x 1.751740 0.000000 -0.012260 
#    y 0.000000 1.780510 0.000000 
#    z -0.012260 0.000000 1.731970 
# 
# From -- ./inp_files/146096.got.cif
#   From: 2010.05.17/outbox.cif.g08.bks.cpg/sg15_74_cif.got.tgz:146096.got - 2010.06.03 18:47:42.
