data_PCOD9276485
_publ_section_title
;
Structure prediction by ZEFSAII (Michael W. Deem and Ramdas Pophale) SiO2 
 PCOD9276485
Probable space group: C 2/C
;
_chemical_formula_sum "Si O2"
_cell_formula_units_Z 48
_cell_length_a 27.293101
_cell_length_b 8.481226
_cell_length_c 14.348045
_cell_angle_alpha 90.000000
_cell_angle_beta 137.071092
_cell_angle_gamma 90.000000
_cell_volume 2262.085387
_symmetry_space_group_name_H-M "C 2/C"
_symmetry_group_IT_number 15
_symmetry_cell_setting 'monoclinic'
loop_
_space_group_symop_operation_xyz
x,y,z
-x,y,1/2-z
-x,-y,-z
x,-y,1/2+z
1/2+x,1/2+y,z
1/2-x,1/2+y,1/2-z
1/2-x,1/2-y,-z
1/2+x,1/2-y,1/2+z
loop_
_atom_site_type_symbol
_atom_site_label
_atom_site_fract_x
_atom_site_fract_y
_atom_site_fract_z
Si Si1 0.307921 0.871662 0.290400
Si Si2 0.385222 0.420351 0.836498
Si Si3 0.153279 0.795264 0.312904
Si Si4 0.436449 0.889841 0.949869
Si Si5 0.019403 0.915195 0.884799
Si Si6 0.285180 0.622416 0.422517
O O1 0.347852 0.748007 0.278255
O O2 0.292580 0.757143 0.355509
O O3 0.367693 0.008148 0.387761
O O4 0.236075 0.955639 0.152137
O O5 0.329706 0.554905 0.728513
O O6 0.448602 0.433950 0.849650
O O7 0.421100 0.466752 0.986084
O O8 0.084725 0.716245 0.169554
O O9 0.214398 0.663690 0.385380
O O10 0.151106 0.857179 0.414826
O O11 0.455871 0.763826 0.056782
O O12 0.500000 0.000000 0.000000
O O13 0.000000 0.937480 0.750000
#
# Coordination Sequence:
#
# PCOD9276485 Si02
#       6
#     8   8   8   8   8   8
#     4  11  22  39  64  87 125 161 205 262 309 373
#     4  10  21  39  61  90 123 160 203 264 307 374
#     4   9  21  40  60  86 125 161 207 259 307 371
#     4  10  20  40  62  90 128 161 205 264 315 372
#     4  10  22  39  60  91 126 163 207 249 319 388
#     4  10  22  40  60  90 120 165 209 252 313 373
#
# _framework density 21.219360000000002
#
# number of rings (size 3 to 8) (size 9 to 14) (size 15 to 20)
#    0.000    2.000    1.667    1.000    2.333    2.000 
#    3.000    0.833    0.000    0.000    0.000    0.000 
#    0.000    0.000    0.000    0.000    0.000    0.000 
#
# Total GULP energy -133811.984003 kJ/mol
# GULP energy per Si atom -5575.499333 kJ/mol
# Density = 2.117106 g / cm^3
# Si number density = 21.219360 Si / 1000 Ang^3
#
#
#
# Elastic Constant Matrix: (Units=GPa)
#
#
# Indices 1 2 3 4 5 6 
#
# 1 62.0331 20.3633 35.5225 0.0000 -14.5031 0.0000
# 2 20.3633 124.1818 55.7924 0.0000 -8.5911 0.0000
# 3 35.5225 55.7924 117.5818 0.0000 -40.8414 0.0000
# 4 0.0000 0.0000 0.0000 26.7662 0.0000 9.4321
# 5 -14.5031 -8.5911 -40.8414 0.0000 35.2186 0.0000
# 6 0.0000 0.0000 0.0000 9.4321 0.0000 41.4120
#
#
#
# Elastic Compliance Matrix: (Units=1/GPa)
#
#
# Indices 1 2 3 4 5 6 
#
# 1 0.019667 -0.000985 -0.004595 0.000000 0.002529 0.000000
# 2 -0.000985 0.010898 -0.006850 0.000000 -0.005691 0.000000
# 3 -0.004595 -0.006850 0.019936 0.000000 0.019555 0.000000
# 4 0.000000 0.000000 0.000000 0.040621 0.000000 -0.009252
# 5 0.002529 -0.005691 0.019555 0.000000 0.050725 0.000000
# 6 0.000000 0.000000 0.000000 -0.009252 0.000000 0.026255
#
#
# Mechanical properties :
#
#
# Convention : Reuss Voigt Hill
#
# Bulk Modulus (GPa) = 39.00347 58.57257 48.78802
# Shear Modulus (GPa) = 24.81264 33.48726 29.14995
#
# Velocity S-wave (km/s) = 3.42327 3.97690 3.71043
# Velocity P-wave (km/s) = 5.83490 6.98219 6.43416
#
# Compressibility (1/GPa) = 0.02563874
#
# Stress axis : x y z
#
# Youngs Moduli (GPa) = 50.84728 91.75741 50.16041
#
# Poissons Ratio (x) = 0.09041 0.23051
# Poissons Ratio (y) = 0.05010 0.34362
# Poissons Ratio (z) = 0.23366 0.62858
#
# Static dielectric constant tensor:
#      x y z
#    x 1.828030 0.000000 0.035230 
#    y 0.000000 1.806390 0.000000 
#    z 0.035230 0.000000 1.836300 
# 
# From -- ./inp_files/180920.got.cif
#   From: 2010.05.17/outbox.cif.g08.bks.cpg/sg15_91_cif.got.tgz:180920.got - 2010.06.03 18:47:42.
