data_PCOD9276405
_publ_section_title
;
Structure prediction by ZEFSAII (Michael W. Deem and Ramdas Pophale) SiO2 
 PCOD9276405
Probable space group: C 2/C
;
_chemical_formula_sum "Si O2"
_cell_formula_units_Z 36
_cell_length_a 21.416360
_cell_length_b 10.541588
_cell_length_c 11.170204
_cell_angle_alpha 90.000000
_cell_angle_beta 38.665362
_cell_angle_gamma 90.000000
_cell_volume 1575.554681
_symmetry_space_group_name_H-M "C 2/C"
_symmetry_group_IT_number 15
_symmetry_cell_setting 'monoclinic'
loop_
_space_group_symop_operation_xyz
x,y,z
-x,y,1/2-z
-x,-y,-z
x,-y,1/2+z
1/2+x,1/2+y,z
1/2-x,1/2+y,1/2-z
1/2-x,1/2-y,-z
1/2+x,1/2-y,1/2+z
loop_
_atom_site_type_symbol
_atom_site_label
_atom_site_fract_x
_atom_site_fract_y
_atom_site_fract_z
Si Si1 0.000000 0.232737 0.250000
Si Si2 0.531625 0.855416 0.963345
Si Si3 0.317733 0.427817 0.921291
Si Si4 0.184570 0.261606 0.276407
Si Si5 0.613840 0.705859 0.634109
O O1 0.082071 0.143330 0.186249
O O2 0.946952 0.316941 0.432014
O O3 0.607823 0.810854 0.747218
O O4 0.431383 0.779121 0.081110
O O5 0.500000 0.000000 0.000000
O O6 0.282175 0.361160 0.851088
O O7 0.345567 0.574160 0.873737
O O8 0.239510 0.384545 0.140310
O O9 0.184736 0.244741 0.417645
O O10 0.500000 0.688519 0.750000
#
# Coordination Sequence:
#
# PCOD9276405 Si02
#       5
#     4   8   8   8   8
#     4  10  22  36  64  88 116 164 200 254 302 368
#     4  10  23  40  61  88 122 163 204 246 313 370
#     4  10  20  40  61  91 123 156 207 252 309 358
#     4   9  22  39  59  91 126 156 196 267 299 354
#     4  10  21  38  67  89 118 164 205 251 301 370
#
# _framework density 22.849094999999998
#
# number of rings (size 3 to 8) (size 9 to 14) (size 15 to 20)
#    0.000    2.222    1.111    0.000    7.778    4.444 
#    8.000    2.222    0.000    0.000    0.000    0.000 
#    0.000    0.000    0.000    0.000    0.000    0.000 
#
# Total GULP energy -100537.418733 kJ/mol
# GULP energy per Si atom -5585.412152 kJ/mol
# Density = 2.279709 g / cm^3
# Si number density = 22.849095 Si / 1000 Ang^3
#
#
#
# Elastic Constant Matrix: (Units=GPa)
#
#
# Indices 1 2 3 4 5 6 
#
# 1 65.2426 24.1238 33.3562 0.0000 10.1654 0.0000
# 2 24.1238 135.1882 72.2011 0.0000 53.6324 0.0000
# 3 33.3562 72.2011 153.7741 0.0000 44.5643 0.0000
# 4 0.0000 0.0000 0.0000 26.7857 0.0000 -3.5627
# 5 10.1654 53.6324 44.5643 0.0000 40.1223 0.0000
# 6 0.0000 0.0000 0.0000 -3.5627 0.0000 10.2378
#
#
#
# Elastic Compliance Matrix: (Units=1/GPa)
#
#
# Indices 1 2 3 4 5 6 
#
# 1 0.017544 -0.002226 -0.003443 0.000000 0.002355 0.000000
# 2 -0.002226 0.016420 -0.001518 0.000000 -0.019699 0.000000
# 3 -0.003443 -0.001518 0.010502 0.000000 -0.008764 0.000000
# 4 0.000000 0.000000 0.000000 0.039145 0.000000 0.013622
# 5 0.002355 -0.019699 -0.008764 0.000000 0.060394 0.000000
# 6 0.000000 0.000000 0.000000 0.013622 0.000000 0.102418
#
#
# Mechanical properties :
#
#
# Convention : Reuss Voigt Hill
#
# Bulk Modulus (GPa) = 33.23047 68.17412 50.70230
# Shear Modulus (GPa) = 18.46193 30.39739 24.42966
#
# Velocity S-wave (km/s) = 2.84561 3.65136 3.27337
# Velocity P-wave (km/s) = 5.03703 6.90493 6.04358
#
# Compressibility (1/GPa) = 0.03009286
#
# Stress axis : x y z
#
# Youngs Moduli (GPa) = 57.00023 60.90066 95.21714
#
# Poissons Ratio (x) = 0.13557 0.32781
# Poissons Ratio (y) = 0.12689 0.14453
# Poissons Ratio (z) = 0.19624 0.09244
#
# Static dielectric constant tensor:
#      x y z
#    x 1.920290 0.000000 -0.011760 
#    y 0.000000 1.807380 0.000000 
#    z -0.011760 0.000000 1.929860 
# 
# From -- ./inp_files/65294.got.cif
#   From: 2010.05.17/outbox.cif.g08.bks.cpg/sg15_33_cif.got.tgz:65294.got - 2010.06.03 18:47:42.
