data_PCOD9276980
_publ_section_title
;
Structure prediction by ZEFSAII (Michael W. Deem and Ramdas Pophale) SiO2 
 PCOD9276980
Probable space group: C 2/C
;
_chemical_formula_sum "Si O2"
_cell_formula_units_Z 52
_cell_length_a 9.184795
_cell_length_b 18.743897
_cell_length_c 17.758751
_cell_angle_alpha 90.000000
_cell_angle_beta 52.438844
_cell_angle_gamma 90.000000
_cell_volume 2423.551975
_symmetry_space_group_name_H-M "C 2/C"
_symmetry_group_IT_number 15
_symmetry_cell_setting 'monoclinic'
loop_
_space_group_symop_operation_xyz
x,y,z
-x,y,1/2-z
-x,-y,-z
x,-y,1/2+z
1/2+x,1/2+y,z
1/2-x,1/2+y,1/2-z
1/2-x,1/2-y,-z
1/2+x,1/2-y,1/2+z
loop_
_atom_site_type_symbol
_atom_site_label
_atom_site_fract_x
_atom_site_fract_y
_atom_site_fract_z
Si Si1 0.167226 0.228892 0.946578
Si Si2 0.268483 0.683423 0.115196
Si Si3 0.934080 0.956748 0.609467
Si Si4 0.593866 0.995939 0.887468
Si Si5 0.500000 0.520041 0.250000
Si Si6 0.618078 0.829495 0.829025
Si Si7 0.275474 0.932580 0.399735
O O1 0.202357 0.287078 0.871917
O O2 0.249560 0.151586 0.900023
O O3 0.250000 0.250000 0.000000
O O4 0.948574 0.222906 0.030013
O O5 0.321099 0.599883 0.096660
O O6 0.220474 0.690521 0.218871
O O7 0.089767 0.696404 0.122232
O O8 0.132260 0.959878 0.508990
O O9 0.968777 0.935162 0.684167
O O10 0.811314 0.027551 0.644908
O O11 0.602472 0.913642 0.854903
O O12 0.807436 0.020365 0.824709
O O13 0.472052 0.041524 0.867097
O O14 0.500000 0.000000 0.000000
#
# Coordination Sequence:
#
# PCOD9276980 Si02
#       7
#     8   8   8   8   4   8   8
#     4  11  25  42  66  99 137 180 223 286 351 419
#     4  10  22  42  70  95 129 183 234 274 341 428
#     4  10  20  40  66  98 125 175 223 283 334 405
#     4  12  23  39  67 102 136 176 230 290 345 409
#     4  12  24  36  66 104 132 170 230 288 336 416
#     4  11  23  42  70  98 133 183 233 277 348 431
#     4  10  22  42  65  93 137 172 221 282 349 394
#
# _framework density 21.456111
#
# number of rings (size 3 to 8) (size 9 to 14) (size 15 to 20)
#    0.000    1.231    4.615    1.385    2.154    1.231 
#    0.000    6.154    0.000    0.000    0.000    0.000 
#    0.000    0.000    0.000    0.000    0.000    0.000 
#
# Total GULP energy -145117.786935 kJ/mol
# GULP energy per Si atom -5581.453344 kJ/mol
# Density = 2.140728 g / cm^3
# Si number density = 21.456111 Si / 1000 Ang^3
#
#
#
# Elastic Constant Matrix: (Units=GPa)
#
#
# Indices 1 2 3 4 5 6 
#
# 1 110.8241 30.6456 29.2028 0.0000 -6.8551 0.0000
# 2 30.6456 58.4114 11.4648 0.0000 -0.1441 0.0000
# 3 29.2028 11.4648 88.9419 0.0000 -6.9253 0.0000
# 4 0.0000 0.0000 0.0000 18.9681 0.0000 4.6012
# 5 -6.8551 -0.1441 -6.9253 0.0000 48.6641 0.0000
# 6 0.0000 0.0000 0.0000 4.6012 0.0000 28.9506
#
#
#
# Elastic Compliance Matrix: (Units=1/GPa)
#
#
# Indices 1 2 3 4 5 6 
#
# 1 0.011359 -0.005378 -0.002945 0.000000 0.001165 0.000000
# 2 -0.005378 0.020115 -0.000891 0.000000 -0.000825 0.000000
# 3 -0.002945 -0.000891 0.012430 0.000000 0.001351 0.000000
# 4 0.000000 0.000000 0.000000 0.054834 0.000000 -0.008715
# 5 0.001165 -0.000825 0.001351 0.000000 0.020903 0.000000
# 6 0.000000 0.000000 0.000000 -0.008715 0.000000 0.035927
#
#
# Mechanical properties :
#
#
# Convention : Reuss Voigt Hill
#
# Bulk Modulus (GPa) = 39.25596 44.53377 41.89487
# Shear Modulus (GPa) = 27.39892 31.77417 29.58655
#
# Velocity S-wave (km/s) = 3.57736 3.85241 3.71743
# Velocity P-wave (km/s) = 5.94970 6.37094 6.16392
#
# Compressibility (1/GPa) = 0.02547384
#
# Stress axis : x y z
#
# Youngs Moduli (GPa) = 88.03763 49.71513 80.44732
#
# Poissons Ratio (x) = 0.26739 0.23696
# Poissons Ratio (y) = 0.47350 0.07169
# Poissons Ratio (z) = 0.25931 0.04430
#
# Static dielectric constant tensor:
#      x y z
#    x 1.895260 0.000000 -0.007610 
#    y 0.000000 1.785170 0.000000 
#    z -0.007610 0.000000 1.846710 
# 
# From -- ./inp_files/190827.got.cif
#   From: 2010.05.17/outbox.cif.g08.bks.cpg/sg15_96_cif.got.tgz:190827.got - 2010.06.03 18:47:42.
