data_PCOD9276883
_publ_section_title
;
Structure prediction by ZEFSAII (Michael W. Deem and Ramdas Pophale) SiO2 
 PCOD9276883
Probable space group: C 2/C
;
_chemical_formula_sum "Si O2"
_cell_formula_units_Z 60
_cell_length_a 12.146890
_cell_length_b 16.274360
_cell_length_c 25.277444
_cell_angle_alpha 90.000000
_cell_angle_beta 40.107964
_cell_angle_gamma 90.000000
_cell_volume 3219.163854
_symmetry_space_group_name_H-M "C 2/C"
_symmetry_group_IT_number 15
_symmetry_cell_setting 'monoclinic'
loop_
_space_group_symop_operation_xyz
x,y,z
-x,y,1/2-z
-x,-y,-z
x,-y,1/2+z
1/2+x,1/2+y,z
1/2-x,1/2+y,1/2-z
1/2-x,1/2-y,-z
1/2+x,1/2-y,1/2+z
loop_
_atom_site_type_symbol
_atom_site_label
_atom_site_fract_x
_atom_site_fract_y
_atom_site_fract_z
Si Si1 0.500000 0.334764 0.250000
Si Si2 0.687604 0.768376 0.433498
Si Si3 0.956866 0.244861 0.421750
Si Si4 0.415779 0.959687 0.846335
Si Si5 0.948607 0.645892 0.713559
Si Si6 0.598519 0.423610 0.319704
Si Si7 0.742963 0.378782 0.996631
Si Si8 0.222801 0.092502 0.314409
O O1 0.351640 0.282864 0.334339
O O2 0.572987 0.392247 0.269576
O O3 0.526911 0.768688 0.453926
O O4 0.716386 0.688593 0.459800
O O5 0.671253 0.838801 0.483612
O O6 0.750000 0.250000 0.500000
O O7 0.004548 0.305312 0.356193
O O8 0.078423 0.163260 0.367171
O O9 0.580116 0.898713 0.778792
O O10 0.269380 0.937577 0.857090
O O11 0.471421 0.053834 0.817242
O O12 0.348259 0.949624 0.929971
O O13 0.747245 0.632437 0.788484
O O14 0.000000 0.686671 0.750000
O O15 0.434628 0.410195 0.415840
O O16 0.652692 0.517506 0.305445
#
# Coordination Sequence:
#
# PCOD9276883 Si02
#       8
#     4   8   8   8   8   8   8   8
#     4  10  20  40  66  84 130 164 202 266 324 380
#     4  10  22  39  60  96 122 161 208 260 322 376
#     4  12  27  41  61  91 137 172 204 265 336 387
#     4  10  20  40  70  94 117 164 224 276 301 369
#     4  11  23  43  63  92 130 170 215 261 327 386
#     4  10  21  40  64  92 121 168 212 263 318 380
#     4  10  22  35  67  97 120 153 218 274 304 371
#     4  10  22  41  64  92 122 170 221 257 315 387
#
# _framework density 18.638380000000002
#
# number of rings (size 3 to 8) (size 9 to 14) (size 15 to 20)
#    0.000    1.600    5.333    0.000    5.600    1.600 
#    1.200    2.000    0.000    0.000    0.000    0.000 
#    0.000    0.000    0.000    0.000    0.000    0.000 
#
# Total GULP energy -167071.749729 kJ/mol
# GULP energy per Si atom -5569.058324 kJ/mol
# Density = 1.859596 g / cm^3
# Si number density = 18.638380 Si / 1000 Ang^3
#
#
#
# Elastic Constant Matrix: (Units=GPa)
#
#
# Indices 1 2 3 4 5 6 
#
# 1 140.4484 33.6597 49.2073 -0.0001 -2.6622 0.0000
# 2 33.6597 45.2776 23.5011 -0.0001 -6.0524 0.0000
# 3 49.2073 23.5011 79.5318 -0.0003 17.8243 0.0000
# 4 -0.0001 -0.0001 -0.0003 9.3303 -0.0001 3.3661
# 5 -2.6622 -6.0524 17.8243 -0.0001 27.8936 -0.0001
# 6 0.0000 0.0000 0.0000 3.3661 -0.0001 25.5037
#
#
#
# Elastic Compliance Matrix: (Units=1/GPa)
#
#
# Indices 1 2 3 4 5 6 
#
# 1 0.010275 -0.003938 -0.006095 0.000000 0.004021 0.000000
# 2 -0.003938 0.031838 -0.009846 0.000000 0.012824 0.000000
# 3 -0.006095 -0.009846 0.023183 0.000000 -0.017532 0.000000
# 4 0.000000 0.000000 0.000000 0.112536 0.000000 -0.014853
# 5 0.004021 0.012824 -0.017532 0.000000 0.050220 0.000000
# 6 0.000000 0.000000 0.000000 -0.014853 0.000000 0.041170
#
#
# Mechanical properties :
#
#
# Convention : Reuss Voigt Hill
#
# Bulk Modulus (GPa) = 39.15477 53.11044 46.13261
# Shear Modulus (GPa) = 15.74834 23.13816 19.44325
#
# Velocity S-wave (km/s) = 2.90994 3.52721 3.23334
# Velocity P-wave (km/s) = 5.68714 6.71903 6.22450
#
# Compressibility (1/GPa) = 0.02553967
#
# Stress axis : x y z
#
# Youngs Moduli (GPa) = 97.31895 31.40933 43.13431
#
# Poissons Ratio (x) = 0.12368 0.26291
# Poissons Ratio (y) = 0.38321 0.42468
# Poissons Ratio (z) = 0.59318 0.30924
#
# Static dielectric constant tensor:
#      x y z
#    x 1.701260 0.000000 -0.002770 
#    y 0.000000 1.682990 0.000000 
#    z -0.002770 0.000000 1.680900 
# 
# From -- ./inp_files/270578.got.cif
#   From: 2010.05.17/outbox.cif.g08.bks.cpg/sg15_136_cif.got.tgz:270578.got - 2010.06.03 18:47:42.
