data_PCOD9276719
_publ_section_title
;
Structure prediction by ZEFSAII (Michael W. Deem and Ramdas Pophale) SiO2 
 PCOD9276719
Probable space group: C 2/C
;
_chemical_formula_sum "Si O2"
_cell_formula_units_Z 56
_cell_length_a 24.463857
_cell_length_b 8.552668
_cell_length_c 17.038836
_cell_angle_alpha 90.000000
_cell_angle_beta 128.408801
_cell_angle_gamma 90.000000
_cell_volume 2793.571586
_symmetry_space_group_name_H-M "C 2/C"
_symmetry_group_IT_number 15
_symmetry_cell_setting 'monoclinic'
loop_
_space_group_symop_operation_xyz
x,y,z
-x,y,1/2-z
-x,-y,-z
x,-y,1/2+z
1/2+x,1/2+y,z
1/2-x,1/2+y,1/2-z
1/2-x,1/2-y,-z
1/2+x,1/2-y,1/2+z
loop_
_atom_site_type_symbol
_atom_site_label
_atom_site_fract_x
_atom_site_fract_y
_atom_site_fract_z
Si Si1 0.295246 0.274727 0.801282
Si Si2 0.576151 0.499005 0.607536
Si Si3 0.934119 0.814605 0.746493
Si Si4 0.145184 0.315855 0.610589
Si Si5 0.756368 0.342826 0.586406
Si Si6 0.129260 0.472093 0.225847
Si Si7 0.315060 0.668815 0.015217
O O1 0.366413 0.372705 0.869805
O O2 0.225325 0.353975 0.705532
O O3 0.273295 0.234527 0.870056
O O4 0.310178 0.143189 0.750884
O O5 0.500000 0.500000 0.500000
O O6 0.562708 0.447565 0.684673
O O7 0.615263 0.660872 0.625562
O O8 0.923317 0.644781 0.777803
O O9 0.869626 0.851241 0.633249
O O10 0.000000 0.811947 0.750000
O O11 0.103555 0.450655 0.620892
O O12 0.149958 0.274097 0.522786
O O13 0.750000 0.250000 0.500000
O O14 0.833350 0.403538 0.682628
O O15 0.710149 0.501058 0.539643
O O16 0.250000 0.750000 0.000000
#
# Coordination Sequence:
#
# PCOD9276719 Si02
#       7
#     8   8   8   8   8   8   8
#     4  10  20  40  64  92 133 168 218 267 318 395
#     4  11  23  44  66  96 132 175 225 270 330 406
#     4  11  25  43  66  90 134 172 215 275 334 398
#     4  11  21  40  68  93 128 171 224 268 326 402
#     4  11  23  37  62 100 132 162 214 275 326 382
#     4  10  22  41  61  95 125 173 211 263 325 394
#     4  12  22  40  65  99 129 167 217 273 337 379
#
# _framework density 20.046021
#
# number of rings (size 3 to 8) (size 9 to 14) (size 15 to 20)
#    0.000    1.143    4.286    2.571    6.000    0.000 
#    0.000    8.571    0.000    0.000    0.000    0.000 
#    0.000    0.000    0.000    0.000    0.000    0.000 
#
# Total GULP energy -156027.896306 kJ/mol
# GULP energy per Si atom -5572.424868 kJ/mol
# Density = 2.000040 g / cm^3
# Si number density = 20.046021 Si / 1000 Ang^3
#
#
#
# Elastic Constant Matrix: (Units=GPa)
#
#
# Indices 1 2 3 4 5 6 
#
# 1 131.4516 29.9040 42.6050 0.0000 -18.7245 0.0000
# 2 29.9040 37.1737 15.8649 0.0000 -0.0281 0.0000
# 3 42.6050 15.8649 121.6623 0.0000 -6.8116 0.0000
# 4 0.0000 0.0000 0.0000 29.0853 0.0000 -18.2529
# 5 -18.7245 -0.0281 -6.8116 0.0000 43.5545 0.0000
# 6 0.0000 0.0000 0.0000 -18.2529 0.0000 31.0805
#
#
#
# Elastic Compliance Matrix: (Units=1/GPa)
#
#
# Indices 1 2 3 4 5 6 
#
# 1 0.010753 -0.007562 -0.002543 0.000000 0.004220 0.000000
# 2 -0.007562 0.033817 -0.001960 0.000000 -0.003535 0.000000
# 3 -0.002543 -0.001960 0.009387 0.000000 0.000373 0.000000
# 4 0.000000 0.000000 0.000000 0.054449 0.000000 0.031977
# 5 0.004220 -0.003535 0.000373 0.000000 0.024830 0.000000
# 6 0.000000 0.000000 0.000000 0.031977 0.000000 0.050954
#
#
# Mechanical properties :
#
#
# Convention : Reuss Voigt Hill
#
# Bulk Modulus (GPa) = 33.52595 51.89281 42.70938
# Shear Modulus (GPa) = 22.90829 34.20498 28.55664
#
# Velocity S-wave (km/s) = 3.38418 4.13525 3.77842
# Velocity P-wave (km/s) = 5.65959 6.98165 6.35509
#
# Compressibility (1/GPa) = 0.02982764
#
# Stress axis : x y z
#
# Youngs Moduli (GPa) = 92.99747 29.57071 106.53524
#
# Poissons Ratio (x) = 0.22360 0.27095
# Poissons Ratio (y) = 0.70320 0.20878
# Poissons Ratio (z) = 0.23652 0.05795
#
# Static dielectric constant tensor:
#      x y z
#    x 1.719410 0.000000 -0.019670 
#    y 0.000000 1.744420 0.000000 
#    z -0.019670 0.000000 1.716240 
# 
# From -- ./inp_files/218655.got.cif
#   From: 2010.05.17/outbox.cif.g08.bks.cpg/sg15_110_cif.got.tgz:218655.got - 2010.06.03 18:47:42.
