data_PCOD9276238
_publ_section_title
;
Structure prediction by ZEFSAII (Michael W. Deem and Ramdas Pophale) SiO2 
 PCOD9276238
Probable space group: C 2/C
;
_chemical_formula_sum "Si O2"
_cell_formula_units_Z 60
_cell_length_a 12.848250
_cell_length_b 26.730367
_cell_length_c 9.149021
_cell_angle_alpha 90.000000
_cell_angle_beta 103.268347
_cell_angle_gamma 90.000000
_cell_volume 3058.249001
_symmetry_space_group_name_H-M "C 2/C"
_symmetry_group_IT_number 15
_symmetry_cell_setting 'monoclinic'
loop_
_space_group_symop_operation_xyz
x,y,z
-x,y,1/2-z
-x,-y,-z
x,-y,1/2+z
1/2+x,1/2+y,z
1/2-x,1/2+y,1/2-z
1/2-x,1/2-y,-z
1/2+x,1/2-y,1/2+z
loop_
_atom_site_type_symbol
_atom_site_label
_atom_site_fract_x
_atom_site_fract_y
_atom_site_fract_z
Si Si1 0.766528 0.069795 0.724801
Si Si2 0.878061 0.165409 0.715364
Si Si3 0.418961 0.040997 0.332007
Si Si4 0.785253 0.491211 0.545414
Si Si5 0.938269 0.627333 0.982686
Si Si6 0.272171 0.246045 0.676225
Si Si7 0.735682 0.806040 0.925393
Si Si8 0.000000 0.695880 0.750000
O O1 0.855671 0.111437 0.775578
O O2 0.794086 0.035305 0.593373
O O3 0.654978 0.097716 0.639184
O O4 0.749554 0.037097 0.864053
O O5 0.806402 0.204119 0.783004
O O6 0.829534 0.164053 0.536232
O O7 0.000000 0.180654 0.750000
O O8 0.500000 0.010887 0.250000
O O9 0.325546 0.048694 0.181289
O O10 0.484395 0.088639 0.409765
O O11 0.372980 0.011372 0.455236
O O12 0.007152 0.659970 0.892493
O O13 0.873286 0.666180 0.064513
O O14 0.250000 0.250000 0.500000
O O15 0.249002 0.296435 0.759099
O O16 0.393905 0.228415 0.737371
O O17 0.750000 0.750000 0.000000
#
# Coordination Sequence:
#
# PCOD9276238 Si02
#       8
#     8   8   8   8   8   8   8   4
#     4  10  20  40  55  88 114 161 196 246 310 361
#     4  10  22  43  67  85 117 166 212 254 302 376
#     4  11  21  31  52  88 116 169 192 233 311 366
#     4  10  22  35  57  79 133 153 198 252 301 378
#     4  11  21  33  60  84 125 155 202 247 300 373
#     4  11  25  40  64  95 122 163 208 258 324 360
#     4   9  19  43  59  82 120 160 201 245 309 365
#     4  12  22  40  60  92 128 156 194 272 298 370
#
# _framework density 19.619071000000002
#
# number of rings (size 3 to 8) (size 9 to 14) (size 15 to 20)
#    0.000    1.600    5.333    1.200    3.733    1.067 
#    0.000    1.333    0.000    0.000    0.000    0.000 
#    0.000    0.000    0.000    0.000    0.000    0.000 
#
# Total GULP energy -167215.981540 kJ/mol
# GULP energy per Si atom -5573.866051 kJ/mol
# Density = 1.957442 g / cm^3
# Si number density = 19.619071 Si / 1000 Ang^3
#
#
#
# Elastic Constant Matrix: (Units=GPa)
#
#
# Indices 1 2 3 4 5 6 
#
# 1 91.7539 34.0123 29.5915 0.0000 -13.5665 0.0000
# 2 34.0123 77.1536 32.7207 0.0000 -17.5384 0.0000
# 3 29.5915 32.7207 136.1127 0.0000 -22.8401 0.0000
# 4 0.0000 0.0000 0.0000 34.3321 0.0000 -12.1298
# 5 -13.5665 -17.5384 -22.8401 0.0000 19.1794 0.0000
# 6 0.0000 0.0000 0.0000 -12.1298 0.0000 6.9672
#
#
#
# Elastic Compliance Matrix: (Units=1/GPa)
#
#
# Indices 1 2 3 4 5 6 
#
# 1 0.013566 -0.004568 -0.001177 0.000000 0.004017 0.000000
# 2 -0.004568 0.018252 -0.001420 0.000000 0.011769 0.000000
# 3 -0.001177 -0.001420 0.009481 0.000000 0.009160 0.000000
# 4 0.000000 0.000000 0.000000 0.075676 0.000000 0.131751
# 5 0.004017 0.011769 0.009160 0.000000 0.076650 0.000000
# 6 0.000000 0.000000 0.000000 0.131751 0.000000 0.372906
#
#
# Mechanical properties :
#
#
# Convention : Reuss Voigt Hill
#
# Bulk Modulus (GPa) = 37.07948 55.29658 46.18803
# Shear Modulus (GPa) = 8.47673 26.00879 17.24276
#
# Velocity S-wave (km/s) = 2.08087 3.64495 2.96780
# Velocity P-wave (km/s) = 4.97133 6.77942 5.94452
#
# Compressibility (1/GPa) = 0.02696910
#
# Stress axis : x y z
#
# Youngs Moduli (GPa) = 73.71619 54.78777 105.47293
#
# Poissons Ratio (x) = 0.25027 0.12415
# Poissons Ratio (y) = 0.33673 0.14975
# Poissons Ratio (z) = 0.08677 0.07779
#
# Static dielectric constant tensor:
#      x y z
#    x 1.725190 0.000000 0.021390 
#    y 0.000000 1.758570 0.000000 
#    z 0.021390 0.000000 1.751040 
# 
# From -- ./inp_files/35233.got.cif
#   From: 2010.05.17/outbox.cif.g08.bks.cpg/sg15_18_cif.got.tgz:35233.got - 2010.06.03 18:47:42.
