data_PCOD9276723
_publ_section_title
;
Structure prediction by ZEFSAII (Michael W. Deem and Ramdas Pophale) SiO2 
 PCOD9276723
Probable space group: C 2/C
;
_chemical_formula_sum "Si O2"
_cell_formula_units_Z 56
_cell_length_a 29.392700
_cell_length_b 22.243231
_cell_length_c 8.793167
_cell_angle_alpha 90.000000
_cell_angle_beta 30.331706
_cell_angle_gamma 90.000000
_cell_volume 2903.211229
_symmetry_space_group_name_H-M "C 2/C"
_symmetry_group_IT_number 15
_symmetry_cell_setting 'monoclinic'
loop_
_space_group_symop_operation_xyz
x,y,z
-x,y,1/2-z
-x,-y,-z
x,-y,1/2+z
1/2+x,1/2+y,z
1/2-x,1/2+y,1/2-z
1/2-x,1/2-y,-z
1/2+x,1/2-y,1/2+z
loop_
_atom_site_type_symbol
_atom_site_label
_atom_site_fract_x
_atom_site_fract_y
_atom_site_fract_z
Si Si1 0.321207 0.414909 0.824772
Si Si2 0.819836 0.414000 0.796355
Si Si3 0.500000 0.162956 0.750000
Si Si4 0.262168 0.201860 0.830666
Si Si5 0.748974 0.002098 0.267681
Si Si6 0.186453 0.804803 0.234046
Si Si7 0.062457 0.754812 0.342771
Si Si8 0.500000 0.338698 0.250000
O O1 0.297252 0.454738 0.748253
O O2 0.413600 0.379815 0.532929
O O3 0.245121 0.364049 0.074999
O O4 0.318496 0.460250 0.974638
O O5 0.803227 0.456564 0.700791
O O6 0.910794 0.376637 0.518679
O O7 0.815997 0.457042 0.953610
O O8 0.737555 0.366751 0.049685
O O9 0.498558 0.205933 0.606299
O O10 0.184979 0.201440 0.921302
O O11 0.354211 0.218843 0.477445
O O12 0.250000 0.250000 0.000000
O O13 0.101176 0.795052 0.371187
O O14 0.250000 0.750000 0.000000
O O15 0.020780 0.796482 0.334246
#
# Coordination Sequence:
#
# PCOD9276723 Si02
#       8
#     8   8   4   8   8   8   8   4
#     4  11  23  42  65  90 124 164 217 265 307 379
#     4  11  22  41  65  91 123 166 218 260 310 374
#     4  12  24  38  62  96 136 160 200 276 322 384
#     4  11  21  40  68  92 126 166 214 258 307 399
#     4  10  24  43  66  84 117 181 225 247 300 385
#     4  10  20  40  64  93 121 172 211 245 316 398
#     4  11  25  37  62 101 133 168 202 253 343 381
#     4  12  26  40  60 102 132 158 204 280 330 366
#
# _framework density 19.288985
#
# number of rings (size 3 to 8) (size 9 to 14) (size 15 to 20)
#    0.000    1.143    5.714    0.857    4.000    2.286 
#    0.000    0.000    0.000    0.000    0.000    0.000 
#    0.000    0.000    0.000    0.000    0.000    0.000 
#
# Total GULP energy -156362.433173 kJ/mol
# GULP energy per Si atom -5584.372613 kJ/mol
# Density = 1.924508 g / cm^3
# Si number density = 19.288985 Si / 1000 Ang^3
#
#
#
# Elastic Constant Matrix: (Units=GPa)
#
#
# Indices 1 2 3 4 5 6 
#
# 1 125.2472 78.1922 60.0162 0.0000 24.5731 0.0000
# 2 78.1922 152.6586 65.5759 0.0000 15.8255 0.0000
# 3 60.0162 65.5759 111.7845 0.0000 14.3591 0.0000
# 4 0.0000 0.0000 0.0000 41.0547 0.0000 8.6934
# 5 24.5731 15.8255 14.3591 0.0000 29.8197 0.0000
# 6 0.0000 0.0000 0.0000 8.6934 0.0000 34.2314
#
#
#
# Elastic Compliance Matrix: (Units=1/GPa)
#
#
# Indices 1 2 3 4 5 6 
#
# 1 0.014360 -0.004929 -0.003874 0.000000 -0.007352 0.000000
# 2 -0.004929 0.010602 -0.003594 0.000000 0.000166 0.000000
# 3 -0.003874 -0.003594 0.013302 0.000000 -0.001305 0.000000
# 4 0.000000 0.000000 0.000000 0.025742 0.000000 -0.006537
# 5 -0.007352 0.000166 -0.001305 0.000000 0.040134 0.000000
# 6 0.000000 0.000000 0.000000 -0.006537 0.000000 0.030873
#
#
# Mechanical properties :
#
#
# Convention : Reuss Voigt Hill
#
# Bulk Modulus (GPa) = 74.24246 88.58434 81.41340
# Shear Modulus (GPa) = 30.43245 33.41490 31.92368
#
# Velocity S-wave (km/s) = 3.97635 4.16664 4.07261
# Velocity P-wave (km/s) = 7.72366 8.31700 8.02581
#
# Compressibility (1/GPa) = 0.01346938
#
# Stress axis : x y z
#
# Youngs Moduli (GPa) = 69.63639 94.32130 75.17712
#
# Poissons Ratio (x) = 0.46492 0.29123
# Poissons Ratio (y) = 0.34325 0.27022
# Poissons Ratio (z) = 0.26977 0.33903
#
# Static dielectric constant tensor:
#      x y z
#    x 1.689480 0.000000 0.007420 
#    y 0.000000 1.658390 0.000000 
#    z 0.007420 0.000000 1.705430 
# 
# From -- ./inp_files/50163.got.cif
#   From: 2010.05.17/outbox.cif.g08.bks.cpg/sg15_26_cif.got.tgz:50163.got - 2010.06.03 18:47:42.
