data_PCOD9276441
_publ_section_title
;
Structure prediction by ZEFSAII (Michael W. Deem and Ramdas Pophale) SiO2 
 PCOD9276441
Probable space group: C 2/C
;
_chemical_formula_sum "Si O2"
_cell_formula_units_Z 60
_cell_length_a 18.138173
_cell_length_b 7.817710
_cell_length_c 15.725481
_cell_angle_alpha 90.000000
_cell_angle_beta 97.099905
_cell_angle_gamma 90.000000
_cell_volume 2212.758884
_symmetry_space_group_name_H-M "C 2/C"
_symmetry_group_IT_number 15
_symmetry_cell_setting 'monoclinic'
loop_
_space_group_symop_operation_xyz
x,y,z
-x,y,1/2-z
-x,-y,-z
x,-y,1/2+z
1/2+x,1/2+y,z
1/2-x,1/2+y,1/2-z
1/2-x,1/2-y,-z
1/2+x,1/2-y,1/2+z
loop_
_atom_site_type_symbol
_atom_site_label
_atom_site_fract_x
_atom_site_fract_y
_atom_site_fract_z
Si Si1 0.330392 0.153893 0.220666
Si Si2 0.852307 0.261734 0.176021
Si Si3 0.000000 0.404853 0.250000
Si Si4 0.861553 0.559851 0.979298
Si Si5 0.176571 0.146861 0.146206
Si Si6 0.077422 0.676770 0.131395
Si Si7 0.692049 0.445686 0.983498
Si Si8 0.070300 0.814945 0.383866
O O1 0.260004 0.222691 0.162179
O O2 0.337888 0.178189 0.321689
O O3 0.401325 0.269524 0.205472
O O4 0.327122 0.952200 0.201140
O O5 0.941222 0.288567 0.190955
O O6 0.838675 0.134139 0.254797
O O7 0.812988 0.218272 0.080732
O O8 0.960822 0.529652 0.313747
O O9 0.869436 0.704293 0.906696
O O10 0.908946 0.396105 0.959966
O O11 0.774105 0.526351 0.981202
O O12 0.900299 0.643153 0.065633
O O13 0.175692 0.986383 0.081259
O O14 0.017523 0.827772 0.120120
O O15 0.621663 0.541538 0.930103
#
# Coordination Sequence:
#
# PCOD9276441 Si02
#       8
#     8   8   4   8   8   8   8   8
#     4  11  20  38  66  88 130 167 223 270 323 403
#     4  11  24  41  67  92 130 179 219 273 343 401
#     4  10  20  40  62  84 128 174 216 260 336 398
#     4  11  20  39  64  94 127 170 209 279 341 387
#     4  11  21  41  67  96 129 175 227 266 341 404
#     4  11  20  37  65  94 121 172 219 271 322 402
#     4  11  24  42  67  94 139 172 212 291 337 388
#     4  11  20  38  65  94 126 165 219 272 332 396
#
# _framework density 27.115473000000001
#
# number of rings (size 3 to 8) (size 9 to 14) (size 15 to 20)
#    0.000    1.067    8.000    2.000    0.000    0.533 
#    2.400    0.667    0.000    0.000    0.000    0.000 
#    0.000    0.000    0.000    0.000    0.000    0.000 
#
# Total GULP energy -167447.496897 kJ/mol
# GULP energy per Si atom -5581.583230 kJ/mol
# Density = 2.705376 g / cm^3
# Si number density = 27.115473 Si / 1000 Ang^3
#
#
#
# Elastic Constant Matrix: (Units=GPa)
#
#
# Indices 1 2 3 4 5 6 
#
# 1 70.2184 18.0984 33.6136 0.0000 15.2979 0.0000
# 2 18.0984 68.5266 37.9702 0.0000 -9.3353 0.0000
# 3 33.6136 37.9702 87.4563 0.0000 -2.0276 0.0000
# 4 0.0000 0.0000 0.0000 54.8654 0.0000 9.4369
# 5 15.2979 -9.3353 -2.0276 0.0000 46.9620 0.0000
# 6 0.0000 0.0000 0.0000 9.4369 0.0000 33.6213
#
#
#
# Elastic Compliance Matrix: (Units=1/GPa)
#
#
# Indices 1 2 3 4 5 6 
#
# 1 0.019616 -0.002486 -0.006626 0.000000 -0.007170 0.000000
# 2 -0.002486 0.020110 -0.007672 0.000000 0.004476 0.000000
# 3 -0.006626 -0.007672 0.017344 0.000000 0.001382 0.000000
# 4 0.000000 0.000000 0.000000 0.019151 0.000000 -0.005375
# 5 -0.007170 0.004476 0.001382 0.000000 0.024579 0.000000
# 6 0.000000 0.000000 0.000000 -0.005375 0.000000 0.031252
#
#
# Mechanical properties :
#
#
# Convention : Reuss Voigt Hill
#
# Bulk Modulus (GPa) = 42.54952 45.06286 43.80619
# Shear Modulus (GPa) = 28.82605 36.19102 32.50854
#
# Velocity S-wave (km/s) = 3.26404 3.65732 3.46626
# Velocity P-wave (km/s) = 5.47095 5.87278 5.67542
#
# Compressibility (1/GPa) = 0.02350203
#
# Stress axis : x y z
#
# Youngs Moduli (GPa) = 50.97834 49.72622 57.65698
#
# Poissons Ratio (x) = 0.12362 0.38206
# Poissons Ratio (y) = 0.12673 0.44233
# Poissons Ratio (z) = 0.33780 0.38149
#
# Static dielectric constant tensor:
#      x y z
#    x 2.181820 0.000000 -0.062130 
#    y 0.000000 2.218440 0.000000 
#    z -0.062130 0.000000 2.137900 
# 
# From -- ./inp_files/213927.got.cif
#   From: 2010.05.17/outbox.cif.g08.bks.cpg/sg15_107_cif.got.tgz:213927.got - 2010.06.03 18:47:42.
