data_PCOD9276961
_publ_section_title
;
Structure prediction by ZEFSAII (Michael W. Deem and Ramdas Pophale) SiO2 
 PCOD9276961
Probable space group: C 2/C
;
_chemical_formula_sum "Si O2"
_cell_formula_units_Z 48
_cell_length_a 22.009336
_cell_length_b 8.780854
_cell_length_c 23.946776
_cell_angle_alpha 90.000000
_cell_angle_beta 149.661793
_cell_angle_gamma 90.000000
_cell_volume 2337.603867
_symmetry_space_group_name_H-M "C 2/C"
_symmetry_group_IT_number 15
_symmetry_cell_setting 'monoclinic'
loop_
_space_group_symop_operation_xyz
x,y,z
-x,y,1/2-z
-x,-y,-z
x,-y,1/2+z
1/2+x,1/2+y,z
1/2-x,1/2+y,1/2-z
1/2-x,1/2-y,-z
1/2+x,1/2-y,1/2+z
loop_
_atom_site_type_symbol
_atom_site_label
_atom_site_fract_x
_atom_site_fract_y
_atom_site_fract_z
Si Si1 0.080249 0.393966 0.603182
Si Si2 0.576955 0.071771 0.710206
Si Si3 0.995405 0.069377 0.558329
Si Si4 0.186968 0.899045 0.780728
Si Si5 0.206008 0.572436 0.020456
Si Si6 0.225752 0.059298 0.545857
O O1 0.122984 0.487014 0.691240
O O2 0.194915 0.341923 0.658187
O O3 0.000000 0.500000 0.500000
O O4 0.001294 0.250337 0.558265
O O5 0.602840 0.252608 0.725315
O O6 0.435120 0.040398 0.598178
O O7 0.650838 0.023045 0.823441
O O8 0.881797 0.008961 0.503103
O O9 0.000000 0.000000 0.500000
O O10 0.113447 0.014000 0.684495
O O11 0.232393 0.979140 0.873411
O O12 0.215088 0.756715 0.033942
O O13 0.270771 0.513259 0.016165
#
# Coordination Sequence:
#
# PCOD9276961 Si02
#       6
#     8   8   8   8   8   8
#     4  12  24  40  66  92 131 169 212 274 327 386
#     4  11  21  41  63  94 126 166 217 262 325 381
#     4  12  24  42  64  97 129 163 219 267 326 387
#     4  11  22  40  67  94 128 168 217 271 319 388
#     4  10  20  40  66  96 127 167 216 260 321 389
#     4  10  22  38  67  97 125 167 214 269 315 384
#
# _framework density 20.533846
#
# number of rings (size 3 to 8) (size 9 to 14) (size 15 to 20)
#    0.000    1.000    3.333    5.500    0.000    2.000 
#    0.000    0.833    3.667    0.000    0.000    0.000 
#    0.000    0.000    0.000    0.000    0.000    0.000 
#
# Total GULP energy -134146.597955 kJ/mol
# GULP energy per Si atom -5589.441581 kJ/mol
# Density = 2.048711 g / cm^3
# Si number density = 20.533846 Si / 1000 Ang^3
#
#
#
# Elastic Constant Matrix: (Units=GPa)
#
#
# Indices 1 2 3 4 5 6 
#
# 1 143.2696 22.5431 70.7334 0.0000 -21.2545 0.0000
# 2 22.5431 64.1042 30.2524 0.0000 -9.3145 0.0000
# 3 70.7334 30.2524 144.6961 0.0000 -26.1798 0.0000
# 4 0.0000 0.0000 0.0000 21.9053 0.0000 -0.1738
# 5 -21.2545 -9.3145 -26.1798 0.0000 39.3437 0.0000
# 6 0.0000 0.0000 0.0000 -0.1738 0.0000 22.9595
#
#
#
# Elastic Compliance Matrix: (Units=1/GPa)
#
#
# Indices 1 2 3 4 5 6 
#
# 1 0.009450 -0.001123 -0.003990 0.000000 0.002185 0.000000
# 2 -0.001123 0.017569 -0.002821 0.000000 0.001676 0.000000
# 3 -0.003990 -0.002821 0.010164 0.000000 0.003940 0.000000
# 4 0.000000 0.000000 0.000000 0.045654 0.000000 0.000346
# 5 0.002185 0.001676 0.003940 0.000000 0.029616 0.000000
# 6 0.000000 0.000000 0.000000 0.000346 0.000000 0.043558
#
#
# Mechanical properties :
#
#
# Convention : Reuss Voigt Hill
#
# Bulk Modulus (GPa) = 46.91308 66.56973 56.74141
# Shear Modulus (GPa) = 27.93545 32.07778 30.00662
#
# Velocity S-wave (km/s) = 3.69244 3.95674 3.82687
# Velocity P-wave (km/s) = 6.40899 7.30509 6.87166
#
# Compressibility (1/GPa) = 0.02131602
#
# Stress axis : x y z
#
# Youngs Moduli (GPa) = 105.81566 56.91724 98.38593
#
# Poissons Ratio (x) = 0.06392 0.39253
# Poissons Ratio (y) = 0.11884 0.27756
# Poissons Ratio (z) = 0.42217 0.16057
#
# Static dielectric constant tensor:
#      x y z
#    x 1.756670 0.000000 -0.007970 
#    y 0.000000 1.724910 0.000000 
#    z -0.007970 0.000000 1.727290 
# 
# From -- ./inp_files/116364.got.cif
#   From: 2010.05.17/outbox.cif.g08.bks.cpg/sg15_59_cif.got.tgz:116364.got - 2010.06.03 18:47:42.
