data_PCOD9276704
_publ_section_title
;
Structure prediction by ZEFSAII (Michael W. Deem and Ramdas Pophale) SiO2 
 PCOD9276704
Probable space group: C 2/C
;
_chemical_formula_sum "Si O2"
_cell_formula_units_Z 64
_cell_length_a 15.752312
_cell_length_b 29.874139
_cell_length_c 12.225891
_cell_angle_alpha 90.000000
_cell_angle_beta 35.815099
_cell_angle_gamma 90.000000
_cell_volume 3366.691389
_symmetry_space_group_name_H-M "C 2/C"
_symmetry_group_IT_number 15
_symmetry_cell_setting 'monoclinic'
loop_
_space_group_symop_operation_xyz
x,y,z
-x,y,1/2-z
-x,-y,-z
x,-y,1/2+z
1/2+x,1/2+y,z
1/2-x,1/2+y,1/2-z
1/2-x,1/2-y,-z
1/2+x,1/2-y,1/2+z
loop_
_atom_site_type_symbol
_atom_site_label
_atom_site_fract_x
_atom_site_fract_y
_atom_site_fract_z
Si Si1 0.406859 0.650812 0.577331
Si Si2 0.374568 0.110979 0.224109
Si Si3 0.103016 0.016347 0.745438
Si Si4 0.860366 0.228367 0.469838
Si Si5 0.107166 0.709001 0.354189
Si Si6 0.575668 0.279540 0.056245
Si Si7 0.691086 0.902043 0.464317
Si Si8 0.609620 0.569264 0.368005
O O1 0.331251 0.681638 0.564033
O O2 0.506583 0.685068 0.543237
O O3 0.290383 0.627138 0.778827
O O4 0.518651 0.612238 0.420619
O O5 0.401837 0.156211 0.128601
O O6 0.322510 0.121561 0.402877
O O7 0.248360 0.084341 0.293890
O O8 0.532695 0.089757 0.078157
O O9 0.233883 0.050487 0.589213
O O10 0.000000 0.010613 0.750000
O O11 0.152216 0.967726 0.734580
O O12 0.003303 0.042581 0.937207
O O13 0.750000 0.250000 0.500000
O O14 0.881682 0.265231 0.542873
O O15 0.000000 0.219952 0.250000
O O16 0.972794 0.730337 0.431125
O O17 0.252222 0.718449 0.132274
O O18 0.500000 0.289342 0.250000
#
# Coordination Sequence:
#
# PCOD9276704 Si02
#       8
#     8   8   8   8   8   8   8   8
#     4  10  22  39  61  90 119 160 220 250 317 362
#     4  11  22  38  63  94 129 161 203 247 326 380
#     4  10  20  40  64  92 122 159 204 254 326 370
#     4  11  25  43  62  80 120 176 217 268 307 356
#     4  11  24  38  58  89 123 163 214 255 307 367
#     4  11  22  35  58  89 128 163 197 257 313 375
#     4  10  23  37  64  95 127 162 191 263 318 397
#     4  10  21  38  65  92 120 158 209 265 303 392
#
# _framework density 19.009761999999998
#
# number of rings (size 3 to 8) (size 9 to 14) (size 15 to 20)
#    0.000    1.500    2.500    2.625    7.000    1.000 
#    0.000    0.000    0.000    0.000    0.000    0.000 
#    0.000    0.000    0.000    0.000    0.000    0.000 
#
# Total GULP energy -178556.136430 kJ/mol
# GULP energy per Si atom -5579.879263 kJ/mol
# Density = 1.896649 g / cm^3
# Si number density = 19.009762 Si / 1000 Ang^3
#
#
#
# Elastic Constant Matrix: (Units=GPa)
#
#
# Indices 1 2 3 4 5 6 
#
# 1 91.7070 53.9527 16.1605 0.0000 -9.1773 0.0000
# 2 53.9527 111.7115 20.0701 0.0000 2.0269 0.0000
# 3 16.1605 20.0701 52.7388 0.0000 -1.1218 0.0000
# 4 0.0000 0.0000 0.0000 24.8774 0.0000 -5.5977
# 5 -9.1773 2.0269 -1.1218 0.0000 32.0185 0.0000
# 6 0.0000 0.0000 0.0000 -5.5977 0.0000 38.2099
#
#
#
# Elastic Compliance Matrix: (Units=1/GPa)
#
#
# Indices 1 2 3 4 5 6 
#
# 1 0.016210 -0.007565 -0.001981 0.000000 0.005056 0.000000
# 2 -0.007565 0.013156 -0.002755 0.000000 -0.003098 0.000000
# 3 -0.001981 -0.002755 0.020624 0.000000 0.000329 0.000000
# 4 0.000000 0.000000 0.000000 0.041567 0.000000 0.006090
# 5 0.005056 -0.003098 0.000329 0.000000 0.032889 0.000000
# 6 0.000000 0.000000 0.000000 0.006090 0.000000 0.027063
#
#
# Mechanical properties :
#
#
# Convention : Reuss Voigt Hill
#
# Bulk Modulus (GPa) = 39.38624 48.50267 43.94445
# Shear Modulus (GPa) = 27.08975 30.08607 28.58791
#
# Velocity S-wave (km/s) = 3.77907 3.98259 3.88216
# Velocity P-wave (km/s) = 6.30918 6.83506 6.57738
#
# Compressibility (1/GPa) = 0.02538958
#
# Stress axis : x y z
#
# Youngs Moduli (GPa) = 61.69178 76.01019 48.48814
#
# Poissons Ratio (x) = 0.57498 0.09604
# Poissons Ratio (y) = 0.46667 0.13356
# Poissons Ratio (z) = 0.12220 0.20938
#
# Static dielectric constant tensor:
#      x y z
#    x 1.654260 0.000000 0.004140 
#    y 0.000000 1.676190 0.000000 
#    z 0.004140 0.000000 1.660090 
# 
# From -- ./inp_files/101637.got.cif
#   From: 2010.05.17/outbox.cif.g08.bks.cpg/sg15_51_cif.got.tgz:101637.got - 2010.06.03 18:47:42.
