data_PCOD9276831
_publ_section_title
;
Structure prediction by ZEFSAII (Michael W. Deem and Ramdas Pophale) SiO2 
 PCOD9276831
Probable space group: C 2/C
;
_chemical_formula_sum "Si O2"
_cell_formula_units_Z 48
_cell_length_a 11.981996
_cell_length_b 21.022393
_cell_length_c 8.685709
_cell_angle_alpha 90.000000
_cell_angle_beta 70.317529
_cell_angle_gamma 90.000000
_cell_volume 2060.017376
_symmetry_space_group_name_H-M "C 2/C"
_symmetry_group_IT_number 15
_symmetry_cell_setting 'monoclinic'
loop_
_space_group_symop_operation_xyz
x,y,z
-x,y,1/2-z
-x,-y,-z
x,-y,1/2+z
1/2+x,1/2+y,z
1/2-x,1/2+y,1/2-z
1/2-x,1/2-y,-z
1/2+x,1/2-y,1/2+z
loop_
_atom_site_type_symbol
_atom_site_label
_atom_site_fract_x
_atom_site_fract_y
_atom_site_fract_z
Si Si1 0.329093 0.148920 0.546975
Si Si2 0.564220 0.792943 0.057226
Si Si3 0.881036 0.956562 0.906301
Si Si4 0.693787 0.331480 0.401625
Si Si5 0.257146 0.563751 0.149307
Si Si6 0.577623 0.032067 0.835090
O O1 0.464262 0.174334 0.494204
O O2 0.242686 0.183319 0.706869
O O3 0.272809 0.132317 0.408492
O O4 0.333280 0.079472 0.626370
O O5 0.500000 0.784723 0.250000
O O6 0.689954 0.826534 0.040577
O O7 0.601456 0.723726 0.981601
O O8 0.789201 0.938965 0.813409
O O9 0.000000 0.959133 0.750000
O O10 0.867919 0.899500 0.036157
O O11 0.851709 0.022732 0.006004
O O12 0.139494 0.520844 0.203611
O O13 0.500000 0.071872 0.750000
O O14 0.500000 0.000000 0.000000
#
# Coordination Sequence:
#
# PCOD9276831 Si02
#       6
#     8   8   8   8   8   8
#     4  11  22  38  65  99 137 172 216 281 332 397
#     4   9  20  37  66  94 125 172 236 274 324 382
#     4  12  24  41  65  92 136 178 225 268 342 420
#     4  10  20  40  65  92 126 179 226 277 319 390
#     4  12  24  40  61 102 139 171 216 274 347 406
#     4  12  21  34  59  98 138 169 203 260 343 407
#
# _framework density 23.300775000000002
#
# number of rings (size 3 to 8) (size 9 to 14) (size 15 to 20)
#    0.000    1.000    5.000    2.500    2.333    0.000 
#    0.000    0.000    0.000   24.000    0.000    0.000 
#    0.000    0.000    0.000    0.000    0.000    0.000 
#
# Total GULP energy -134015.519471 kJ/mol
# GULP energy per Si atom -5583.979978 kJ/mol
# Density = 2.324774 g / cm^3
# Si number density = 23.300775 Si / 1000 Ang^3
#
#
#
# Elastic Constant Matrix: (Units=GPa)
#
#
# Indices 1 2 3 4 5 6 
#
# 1 38.9027 27.0632 17.9828 0.0000 -9.4745 0.0000
# 2 27.0632 73.0814 20.6425 0.0000 -18.4255 0.0000
# 3 17.9828 20.6425 55.8122 0.0000 -14.5486 0.0000
# 4 0.0000 0.0000 0.0000 29.3303 0.0000 -19.1053
# 5 -9.4745 -18.4255 -14.5486 0.0000 48.9238 0.0000
# 6 0.0000 0.0000 0.0000 -19.1053 0.0000 10.3381
#
#
#
# Elastic Compliance Matrix: (Units=1/GPa)
#
#
# Indices 1 2 3 4 5 6 
#
# 1 0.037411 -0.011542 -0.007620 0.000000 0.000632 0.000000
# 2 -0.011542 0.019775 -0.002424 0.000000 0.004491 0.000000
# 3 -0.007620 -0.002424 0.022381 0.000000 0.004267 0.000000
# 4 0.000000 0.000000 0.000000 -0.167306 0.000000 -0.309188
# 5 0.000632 0.004491 0.004267 0.000000 0.023523 0.000000
# 6 0.000000 0.000000 0.000000 -0.309188 0.000000 -0.474663
#
#
# Mechanical properties :
#
#
# Convention : Reuss Voigt Hill
#
# Bulk Modulus (GPa) = 27.47704 33.24147 30.35925
# Shear Modulus (GPa) = -10.33967 24.52564 7.09299
#
# Velocity S-wave (km/s) = -2.10882 3.24785 1.74663
# Velocity P-wave (km/s) = 2.42661 5.32559 4.13826
#
# Compressibility (1/GPa) = 0.03639402
#
# Stress axis : x y z
#
# Youngs Moduli (GPa) = 26.73010 50.56962 44.68018
#
# Poissons Ratio (x) = 0.58368 0.34047
# Poissons Ratio (y) = 0.30852 0.10831
# Poissons Ratio (z) = 0.20369 0.12259
#
# Static dielectric constant tensor:
#      x y z
#    x 2.055350 0.000000 0.077470 
#    y 0.000000 2.749030 0.000000 
#    z 0.077470 0.000000 1.956840 
# 
# From -- ./inp_files/32495.got.cif
#   From: 2010.05.17/outbox.cif.g08.bks.cpg/sg15_17_cif.got.tgz:32495.got - 2010.06.03 18:47:42.
