data_PCOD9276903
_publ_section_title
;
Structure prediction by ZEFSAII (Michael W. Deem and Ramdas Pophale) SiO2 
 PCOD9276903
Probable space group: C 2/C
;
_chemical_formula_sum "Si O2"
_cell_formula_units_Z 56
_cell_length_a 16.627902
_cell_length_b 7.612139
_cell_length_c 30.411251
_cell_angle_alpha 90.000000
_cell_angle_beta 34.064140
_cell_angle_gamma 90.000000
_cell_volume 2156.055891
_symmetry_space_group_name_H-M "C 2/C"
_symmetry_group_IT_number 15
_symmetry_cell_setting 'monoclinic'
loop_
_space_group_symop_operation_xyz
x,y,z
-x,y,1/2-z
-x,-y,-z
x,-y,1/2+z
1/2+x,1/2+y,z
1/2-x,1/2+y,1/2-z
1/2-x,1/2-y,-z
1/2+x,1/2-y,1/2+z
loop_
_atom_site_type_symbol
_atom_site_label
_atom_site_fract_x
_atom_site_fract_y
_atom_site_fract_z
Si Si1 0.721524 0.092430 0.753153
Si Si2 0.436662 0.342934 0.998326
Si Si3 0.724713 0.286892 0.834106
Si Si4 0.154912 0.489100 0.146396
Si Si5 0.540634 0.326332 0.779429
Si Si6 0.576416 0.102418 0.089841
Si Si7 0.630098 0.498244 0.064851
O O1 0.788285 0.151927 0.769884
O O2 0.688040 0.264486 0.737544
O O3 0.803644 0.955598 0.684887
O O4 0.570779 0.003308 0.838026
O O5 0.579680 0.226159 0.925009
O O6 0.392922 0.386432 0.968105
O O7 0.500000 0.500000 0.000000
O O8 0.280162 0.338400 0.092242
O O9 0.828780 0.368322 0.823066
O O10 0.017013 0.371786 0.201693
O O11 0.158233 0.598561 0.099869
O O12 0.500000 0.409815 0.750000
O O13 0.445790 0.417742 0.859258
O O14 0.564008 0.306450 0.084415
O O15 0.698707 0.018540 0.003693
#
# Coordination Sequence:
#
# PCOD9276903 Si02
#       7
#     8   8   8   8   8   8   8
#     4  11  24  38  62  88 126 171 211 256 329 381
#     4   9  19  35  62  86 115 159 205 250 310 374
#     4  11  22  39  57  90 127 166 205 259 319 386
#     4   9  20  39  63  87 123 160 212 256 314 380
#     4  11  21  39  63  95 123 166 212 265 313 384
#     4   9  22  40  64  91 117 166 211 268 314 376
#     4  10  20  40  66  89 124 156 216 269 316 367
#
# _framework density 25.973352999999999
#
# number of rings (size 3 to 8) (size 9 to 14) (size 15 to 20)
#    0.000    2.000    2.857    0.000    4.000    1.714 
#    5.143    0.000    0.000    3.429    0.000    0.000 
#    0.000    0.000    0.000    0.000    0.000    0.000 
#
# Total GULP energy -156024.028045 kJ/mol
# GULP energy per Si atom -5572.286716 kJ/mol
# Density = 2.591424 g / cm^3
# Si number density = 25.973353 Si / 1000 Ang^3
#
#
#
# Elastic Constant Matrix: (Units=GPa)
#
#
# Indices 1 2 3 4 5 6 
#
# 1 81.2865 -1.6915 16.9298 0.0031 15.8666 0.0072
# 2 -1.6915 62.3698 3.5257 0.0362 7.5977 0.0228
# 3 16.9298 3.5257 59.0276 -0.0118 8.5020 -0.0049
# 4 0.0031 0.0362 -0.0118 38.9984 0.0033 0.2579
# 5 15.8666 7.5977 8.5020 0.0033 48.5284 0.0012
# 6 0.0072 0.0228 -0.0049 0.2579 0.0012 26.3330
#
#
#
# Elastic Compliance Matrix: (Units=1/GPa)
#
#
# Indices 1 2 3 4 5 6 
#
# 1 0.013840 0.001068 -0.003444 -0.000003 -0.004089 -0.000005
# 2 0.001068 0.016450 -0.000890 -0.000015 -0.002769 -0.000014
# 3 -0.003444 -0.000890 0.018261 0.000007 -0.001934 0.000005
# 4 -0.000003 -0.000015 0.000007 0.025644 0.000000 -0.000251
# 5 -0.004089 -0.002769 -0.001934 0.000000 0.022716 0.000002
# 6 -0.000005 -0.000014 0.000005 -0.000251 0.000002 0.037978
#
#
# Mechanical properties :
#
#
# Convention : Reuss Voigt Hill
#
# Bulk Modulus (GPa) = 23.79929 26.69022 25.24476
# Shear Modulus (GPa) = 32.16961 35.03330 33.60145
#
# Velocity S-wave (km/s) = 3.52314 3.67661 3.60069
# Velocity P-wave (km/s) = 5.07276 5.32180 5.19877
#
# Compressibility (1/GPa) = 0.04201805
#
# Stress axis : x y z
#
# Youngs Moduli (GPa) = 72.25510 60.79035 54.76218
#
# Poissons Ratio (x) = -0.06493 0.18862
# Poissons Ratio (y) = -0.07718 0.04874
# Poissons Ratio (z) = 0.24887 0.05411
#
# Static dielectric constant tensor:
#      x y z
#    x 2.155490 -0.000010 -0.025680 
#    y -0.000010 2.093190 -0.000020 
#    z -0.025680 -0.000020 2.239700 
# 
# From -- ./inp_files/315492.got.cif
#   From: 2010.05.17/outbox.cif.g08.bks.cpg/sg15_158_cif.got.tgz:315492.got - 2010.06.03 18:47:42.
