data_PCOD9276551
_publ_section_title
;
Structure prediction by ZEFSAII (Michael W. Deem and Ramdas Pophale) SiO2 
 PCOD9276551
Probable space group: C 2/C
;
_chemical_formula_sum "Si O2"
_cell_formula_units_Z 56
_cell_length_a 14.640449
_cell_length_b 11.505369
_cell_length_c 17.949624
_cell_angle_alpha 90.000000
_cell_angle_beta 60.260980
_cell_angle_gamma 90.000000
_cell_volume 2625.288581
_symmetry_space_group_name_H-M "C 2/C"
_symmetry_group_IT_number 15
_symmetry_cell_setting 'monoclinic'
loop_
_space_group_symop_operation_xyz
x,y,z
-x,y,1/2-z
-x,-y,-z
x,-y,1/2+z
1/2+x,1/2+y,z
1/2-x,1/2+y,1/2-z
1/2-x,1/2-y,-z
1/2+x,1/2-y,1/2+z
loop_
_atom_site_type_symbol
_atom_site_label
_atom_site_fract_x
_atom_site_fract_y
_atom_site_fract_z
Si Si1 0.367026 0.815969 0.108517
Si Si2 0.285474 0.026005 0.344121
Si Si3 0.043431 0.084126 0.417584
Si Si4 0.995119 0.106391 0.839499
Si Si5 0.628634 0.180562 0.057343
Si Si6 0.217074 0.204856 0.812338
Si Si7 0.602002 0.925812 0.854797
O O1 0.463159 0.722751 0.071352
O O2 0.289084 0.791490 0.209238
O O3 0.396617 0.949317 0.108398
O O4 0.319395 0.808147 0.044875
O O5 0.271090 0.885599 0.347664
O O6 0.169268 0.068218 0.368289
O O7 0.317983 0.093909 0.405198
O O8 0.366188 0.058528 0.245282
O O9 0.990459 0.027374 0.366915
O O10 0.000000 0.000000 0.500000
O O11 0.104578 0.152787 0.830938
O O12 0.000000 0.117395 0.750000
O O13 0.902111 0.189350 0.904597
O O14 0.513452 0.125053 0.091526
O O15 0.187758 0.333843 0.851078
#
# Coordination Sequence:
#
# PCOD9276551 Si02
#       7
#     8   8   8   8   8   8   8
#     4  11  22  37  64  89 125 169 206 258 327 384
#     4  10  21  37  63  87 121 163 211 260 314 373
#     4  11  22  40  57  89 128 161 198 262 326 366
#     4  10  21  37  62  87 122 160 211 263 308 371
#     4  11  21  37  62  97 121 158 218 269 311 375
#     4   9  20  39  60  87 121 165 211 259 313 379
#     4  10  20  40  63  86 123 168 217 253 315 390
#
# _framework density 21.330987
#
# number of rings (size 3 to 8) (size 9 to 14) (size 15 to 20)
#    0.000    1.714    2.857    2.571    0.000    1.714 
#    0.000    3.571    0.000    0.000    0.000    0.000 
#    0.000    0.000    0.000    0.000    0.000    0.000 
#
# Total GULP energy -156229.637064 kJ/mol
# GULP energy per Si atom -5579.629895 kJ/mol
# Density = 2.128244 g / cm^3
# Si number density = 21.330987 Si / 1000 Ang^3
#
#
#
# Elastic Constant Matrix: (Units=GPa)
#
#
# Indices 1 2 3 4 5 6 
#
# 1 60.1205 49.8131 33.6065 0.0000 -0.8900 0.0000
# 2 49.8131 190.3171 41.8409 0.0000 9.8856 0.0000
# 3 33.6065 41.8409 71.4478 0.0000 3.5935 0.0000
# 4 0.0000 0.0000 0.0000 21.2023 0.0000 -13.5963
# 5 -0.8900 9.8856 3.5935 0.0000 33.4670 0.0000
# 6 0.0000 0.0000 0.0000 -13.5963 0.0000 11.1041
#
#
#
# Elastic Compliance Matrix: (Units=1/GPa)
#
#
# Indices 1 2 3 4 5 6 
#
# 1 0.026074 -0.004887 -0.009562 0.000000 0.003164 0.000000
# 2 -0.004887 0.007014 -0.001707 0.000000 -0.002018 0.000000
# 3 -0.009562 -0.001707 0.019587 0.000000 -0.001853 0.000000
# 4 0.000000 0.000000 0.000000 0.219565 0.000000 0.268844
# 5 0.003164 -0.002018 -0.001853 0.000000 0.030759 0.000000
# 6 0.000000 0.000000 0.000000 0.268844 0.000000 0.419239
#
#
# Mechanical properties :
#
#
# Convention : Reuss Voigt Hill
#
# Bulk Modulus (GPa) = 49.10863 63.60071 56.35467
# Shear Modulus (GPa) = 6.56740 26.26302 16.41521
#
# Velocity S-wave (km/s) = 1.75656 3.51267 2.77708
# Velocity P-wave (km/s) = 5.21404 6.80681 6.06295
#
# Compressibility (1/GPa) = 0.02036302
#
# Stress axis : x y z
#
# Youngs Moduli (GPa) = 38.35274 142.58037 51.05522
#
# Poissons Ratio (x) = 0.69675 0.48817
# Poissons Ratio (y) = 0.18742 0.08716
# Poissons Ratio (z) = 0.36671 0.24342
#
# Static dielectric constant tensor:
#      x y z
#    x 1.754060 0.000000 -0.006540 
#    y 0.000000 1.889970 0.000000 
#    z -0.006540 0.000000 1.808300 
# 
# From -- ./inp_files/204381.got.cif
#   From: 2010.05.17/outbox.cif.g08.bks.cpg/sg15_103_cif.got.tgz:204381.got - 2010.06.03 18:47:42.
