data_PCOD9276440
_publ_section_title
;
Structure prediction by ZEFSAII (Michael W. Deem and Ramdas Pophale) SiO2 
 PCOD9276440
Probable space group: C 2/C
;
_chemical_formula_sum "Si O2"
_cell_formula_units_Z 44
_cell_length_a 8.711890
_cell_length_b 10.620109
_cell_length_c 20.279260
_cell_angle_alpha 90.000000
_cell_angle_beta 111.581870
_cell_angle_gamma 90.000000
_cell_volume 1744.722669
_symmetry_space_group_name_H-M "C 2/C"
_symmetry_group_IT_number 15
_symmetry_cell_setting 'monoclinic'
loop_
_space_group_symop_operation_xyz
x,y,z
-x,y,1/2-z
-x,-y,-z
x,-y,1/2+z
1/2+x,1/2+y,z
1/2-x,1/2+y,1/2-z
1/2-x,1/2-y,-z
1/2+x,1/2-y,1/2+z
loop_
_atom_site_type_symbol
_atom_site_label
_atom_site_fract_x
_atom_site_fract_y
_atom_site_fract_z
Si Si1 0.500000 0.460936 0.750000
Si Si2 0.678158 0.962472 0.003259
Si Si3 0.415458 0.743958 0.594830
Si Si4 0.936858 0.859232 0.510762
Si Si5 0.720283 0.340410 0.213187
Si Si6 0.468651 0.756042 0.154541
O O1 0.363364 0.536480 0.769133
O O2 0.587711 0.371706 0.817064
O O3 0.671719 0.875161 0.936134
O O4 0.787743 0.874747 0.070838
O O5 0.500000 0.000000 0.000000
O O6 0.755085 0.098066 0.000629
O O7 0.523125 0.721885 0.545922
O O8 0.553248 0.740377 0.672912
O O9 0.996835 0.785853 0.584666
O O10 0.000000 0.000000 0.500000
O O11 0.831347 0.351752 0.163456
O O12 0.853677 0.291716 0.286881
#
# Coordination Sequence:
#
# PCOD9276440 Si02
#       6
#     4   8   8   8   8   8
#     4  10  20  40  62  84 128 170 204 262 322 370
#     4  10  21  36  60  92 125 163 209 260 316 373
#     4  10  22  40  61  92 128 164 214 266 321 387
#     4  10  21  40  67  93 127 169 211 268 328 379
#     4  10  22  41  65  91 127 173 214 266 329 387
#     4  10  24  43  62  95 129 163 222 270 313 396
#
# _framework density 25.218907000000002
#
# number of rings (size 3 to 8) (size 9 to 14) (size 15 to 20)
#    0.000    2.182    0.000    3.273    0.000   10.182 
#    0.000   18.182    0.000    0.000    0.000    0.000 
#    0.000    0.000    0.000    0.000    0.000    0.000 
#
# Total GULP energy -122772.012963 kJ/mol
# GULP energy per Si atom -5580.546044 kJ/mol
# Density = 2.516151 g / cm^3
# Si number density = 25.218907 Si / 1000 Ang^3
#
#
#
# Elastic Constant Matrix: (Units=GPa)
#
#
# Indices 1 2 3 4 5 6 
#
# 1 143.7315 38.7434 36.6379 0.0000 8.4475 0.0000
# 2 38.7434 87.7014 17.5785 0.0000 -1.4665 0.0000
# 3 36.6379 17.5785 90.2722 0.0000 7.3885 0.0000
# 4 0.0000 0.0000 0.0000 39.3391 0.0000 -3.3030
# 5 8.4475 -1.4665 7.3885 0.0000 51.3607 0.0000
# 6 0.0000 0.0000 0.0000 -3.3030 0.0000 55.4593
#
#
#
# Elastic Compliance Matrix: (Units=1/GPa)
#
#
# Indices 1 2 3 4 5 6 
#
# 1 0.008609 -0.003267 -0.002767 0.000000 -0.001111 0.000000
# 2 -0.003267 0.013129 -0.001321 0.000000 0.001102 0.000000
# 3 -0.002767 -0.001321 0.012572 0.000000 -0.001391 0.000000
# 4 0.000000 0.000000 0.000000 0.025548 0.000000 0.001522
# 5 -0.001111 0.001102 -0.001391 0.000000 0.019884 0.000000
# 6 0.000000 0.000000 0.000000 0.001522 0.000000 0.018122
#
#
# Mechanical properties :
#
#
# Convention : Reuss Voigt Hill
#
# Bulk Modulus (GPa) = 51.02093 56.40275 53.71184
# Shear Modulus (GPa) = 41.97958 44.48149 43.23054
#
# Velocity S-wave (km/s) = 4.08439 4.20434 4.14480
# Velocity P-wave (km/s) = 6.52059 6.78103 6.65209
#
# Compressibility (1/GPa) = 0.01959980
#
# Stress axis : x y z
#
# Youngs Moduli (GPa) = 116.16257 76.16872 79.54444
#
# Poissons Ratio (x) = 0.24884 0.22008
# Poissons Ratio (y) = 0.37950 0.10506
# Poissons Ratio (z) = 0.32140 0.10060
#
# Static dielectric constant tensor:
#      x y z
#    x 2.164410 0.000000 0.072380 
#    y 0.000000 2.070760 0.000000 
#    z 0.072380 0.000000 2.120470 
# 
# From -- ./inp_files/263614.got.cif
#   From: 2010.05.17/outbox.cif.g08.bks.cpg/sg15_132_cif.got.tgz:263614.got - 2010.06.03 18:47:42.
