data_PCOD9276139
_publ_section_title
;
Structure prediction by ZEFSAII (Michael W. Deem and Ramdas Pophale) SiO2 
 PCOD9276139
Probable space group: C 2/C
;
_chemical_formula_sum "Si O2"
_cell_formula_units_Z 44
_cell_length_a 28.504426
_cell_length_b 11.027696
_cell_length_c 21.011480
_cell_angle_alpha 90.000000
_cell_angle_beta 14.523767
_cell_angle_gamma 90.000000
_cell_volume 1656.339533
_symmetry_space_group_name_H-M "C 2/C"
_symmetry_group_IT_number 15
_symmetry_cell_setting 'monoclinic'
loop_
_space_group_symop_operation_xyz
x,y,z
-x,y,1/2-z
-x,-y,-z
x,-y,1/2+z
1/2+x,1/2+y,z
1/2-x,1/2+y,1/2-z
1/2-x,1/2-y,-z
1/2+x,1/2-y,1/2+z
loop_
_atom_site_type_symbol
_atom_site_label
_atom_site_fract_x
_atom_site_fract_y
_atom_site_fract_z
Si Si1 0.000000 0.375406 0.750000
Si Si2 0.553321 0.685884 0.473165
Si Si3 0.505550 0.475824 0.339229
Si Si4 0.926064 0.392568 0.424636
Si Si5 0.768349 0.648016 0.393556
Si Si6 0.890610 0.788908 0.741851
O O1 0.042493 0.468973 0.636904
O O2 0.165938 0.278020 0.536603
O O3 0.468986 0.573669 0.622863
O O4 0.767423 0.643662 0.184908
O O5 0.481475 0.807541 0.603372
O O6 0.501833 0.706404 0.467081
O O7 0.319524 0.417973 0.552960
O O8 0.506831 0.618869 0.344931
O O9 0.674268 0.429640 0.073371
O O10 0.103128 0.336865 0.229317
O O11 0.816073 0.335323 0.507287
#
# Coordination Sequence:
#
# PCOD9276139 Si02
#       6
#     4   8   8   8   8   8
#     4  10  22  40  64 102 130 192 220 286 344 432
#     4  10  21  41  67  95 136 181 227 277 347 415
#     4  10  20  39  68  99 135 178 224 289 349 406
#     4  10  24  42  67  97 139 178 237 273 351 407
#     4  10  23  40  67 102 139 173 235 287 350 404
#     4  10  23  42  68 100 134 186 221 289 337 417
#
# _framework density 26.564602000000001
#
# number of rings (size 3 to 8) (size 9 to 14) (size 15 to 20)
#    1.091    1.091    0.000    3.273    2.545    3.636 
#    0.000    8.182    0.000    0.000    0.000    0.000 
#    0.000    0.000    0.000    0.000    0.000    0.000 
#
# Total GULP energy -122696.524323 kJ/mol
# GULP energy per Si atom -5577.114742 kJ/mol
# Density = 2.650414 g / cm^3
# Si number density = 26.564602 Si / 1000 Ang^3
#
#
#
# Elastic Constant Matrix: (Units=GPa)
#
#
# Indices 1 2 3 4 5 6 
#
# 1 125.0038 64.9135 17.1521 -0.0015 31.1747 0.0006
# 2 64.9135 138.6645 15.4908 -0.0054 9.7374 -0.0004
# 3 17.1521 15.4908 63.8730 -0.0105 -0.7512 0.0038
# 4 -0.0015 -0.0054 -0.0105 28.3575 0.0020 -8.0911
# 5 31.1747 9.7374 -0.7512 0.0020 34.4660 -0.0001
# 6 0.0006 -0.0004 0.0038 -8.0911 -0.0001 56.0846
#
#
#
# Elastic Compliance Matrix: (Units=1/GPa)
#
#
# Indices 1 2 3 4 5 6 
#
# 1 0.013973 -0.005473 -0.002556 -0.000001 -0.011148 0.000000
# 2 -0.005473 0.009716 -0.000861 0.000001 0.002186 0.000000
# 3 -0.002556 -0.000861 0.016586 0.000006 0.002917 0.000000
# 4 -0.000001 0.000001 0.000006 0.036778 -0.000002 0.005306
# 5 -0.011148 0.002186 0.002917 -0.000002 0.038543 0.000000
# 6 0.000000 0.000000 0.000000 0.005306 0.000000 0.018596
#
#
# Mechanical properties :
#
#
# Convention : Reuss Voigt Hill
#
# Bulk Modulus (GPa) = 44.45453 58.07269 51.26361
# Shear Modulus (GPa) = 31.35408 39.11395 35.23402
#
# Velocity S-wave (km/s) = 3.43927 3.84136 3.64586
# Velocity P-wave (km/s) = 5.70458 6.44850 6.08791
#
# Compressibility (1/GPa) = 0.02249489
#
# Stress axis : x y z
#
# Youngs Moduli (GPa) = 71.56908 102.92031 60.29334
#
# Poissons Ratio (x) = 0.56325 0.15411
# Poissons Ratio (y) = 0.39167 0.05192
# Poissons Ratio (z) = 0.18293 0.08863
#
# Static dielectric constant tensor:
#      x y z
#    x 2.130320 0.000000 0.003500 
#    y 0.000000 1.998910 0.000000 
#    z 0.003500 0.000000 2.233700 
# 
# From -- ./inp_files/257466.got.cif
#   From: 2010.05.17/outbox.cif.g08.bks.cpg/sg15_129_cif.got.tgz:257466.got - 2010.06.03 18:47:42.
