data_PCOD9276636
_publ_section_title
;
Structure prediction by ZEFSAII (Michael W. Deem and Ramdas Pophale) SiO2 
 PCOD9276636
Probable space group: C 2/C
;
_chemical_formula_sum "Si O2"
_cell_formula_units_Z 60
_cell_length_a 11.930910
_cell_length_b 8.382811
_cell_length_c 28.778951
_cell_angle_alpha 90.000000
_cell_angle_beta 60.917021
_cell_angle_gamma 90.000000
_cell_volume 2515.406758
_symmetry_space_group_name_H-M "C 2/C"
_symmetry_group_IT_number 15
_symmetry_cell_setting 'monoclinic'
loop_
_space_group_symop_operation_xyz
x,y,z
-x,y,1/2-z
-x,-y,-z
x,-y,1/2+z
1/2+x,1/2+y,z
1/2-x,1/2+y,1/2-z
1/2-x,1/2-y,-z
1/2+x,1/2-y,1/2+z
loop_
_atom_site_type_symbol
_atom_site_label
_atom_site_fract_x
_atom_site_fract_y
_atom_site_fract_z
Si Si1 0.430576 0.496260 0.608332
Si Si2 0.233574 0.189798 0.283773
Si Si3 0.061249 0.492900 0.137698
Si Si4 0.722243 0.515353 0.533845
Si Si5 0.278034 0.946824 0.678644
Si Si6 0.500000 0.023410 0.250000
Si Si7 0.802845 0.162414 0.057891
Si Si8 0.749627 0.764582 0.904931
O O1 0.362351 0.424194 0.667744
O O2 0.579117 0.533067 0.583914
O O3 0.416128 0.363276 0.570951
O O4 0.347885 0.641819 0.601533
O O5 0.232671 0.370715 0.301952
O O6 0.376184 0.127475 0.264426
O O7 0.220565 0.165413 0.230898
O O8 0.030510 0.436715 0.196263
O O9 0.172129 0.626407 0.112880
O O10 0.125052 0.334584 0.104883
O O11 0.932887 0.566081 0.142927
O O12 0.802803 0.667304 0.534335
O O13 0.700963 0.535131 0.483289
O O14 0.790383 0.361159 0.541418
O O15 0.221862 0.896177 0.640667
#
# Coordination Sequence:
#
# PCOD9276636 Si02
#       8
#     8   8   8   8   8   4   8   8
#     4  11  22  43  65  93 129 167 208 269 314 378
#     4  11  22  41  62  91 127 166 212 258 324 373
#     4  10  22  41  66  86 128 167 207 259 319 371
#     4  11  24  41  67  96 127 168 219 259 316 379
#     4  11  24  40  62  93 127 167 212 263 311 384
#     4  10  20  40  64  84 126 166 194 264 320 368
#     4  10  22  43  66  93 131 168 209 268 317 371
#     4  11  23  41  64  94 127 165 218 257 312 382
#
# _framework density 23.853000000000002
#
# number of rings (size 3 to 8) (size 9 to 14) (size 15 to 20)
#    0.000    1.333    2.667    3.600    1.867    3.200 
#    2.400    7.333    0.000    0.000    0.000    0.000 
#    0.000    0.000    0.000    0.000    0.000    0.000 
#
# Total GULP energy -167623.347847 kJ/mol
# GULP energy per Si atom -5587.444928 kJ/mol
# Density = 2.379871 g / cm^3
# Si number density = 23.853000 Si / 1000 Ang^3
#
#
#
# Elastic Constant Matrix: (Units=GPa)
#
#
# Indices 1 2 3 4 5 6 
#
# 1 54.5512 1.7729 16.0496 0.0000 9.4057 0.0000
# 2 1.7729 52.2518 2.9391 0.0000 -5.8012 0.0000
# 3 16.0496 2.9391 74.4116 0.0000 8.6017 0.0000
# 4 0.0000 0.0000 0.0000 29.6909 0.0000 4.3095
# 5 9.4057 -5.8012 8.6017 0.0000 31.6609 0.0000
# 6 0.0000 0.0000 0.0000 4.3095 0.0000 10.4834
#
#
#
# Elastic Compliance Matrix: (Units=1/GPa)
#
#
# Indices 1 2 3 4 5 6 
#
# 1 0.020370 -0.001061 -0.003747 0.000000 -0.005228 0.000000
# 2 -0.001061 0.019699 -0.001035 0.000000 0.004206 0.000000
# 3 -0.003747 -0.001035 0.014641 0.000000 -0.003054 0.000000
# 4 0.000000 0.000000 0.000000 0.035817 0.000000 -0.014724
# 5 -0.005228 0.004206 -0.003054 0.000000 0.034738 0.000000
# 6 0.000000 0.000000 0.000000 -0.014724 0.000000 0.101442
#
#
# Mechanical properties :
#
#
# Convention : Reuss Voigt Hill
#
# Bulk Modulus (GPa) = 23.24341 24.74864 23.99603
# Shear Modulus (GPa) = 19.78353 25.06391 22.42372
#
# Velocity S-wave (km/s) = 2.88304 3.24507 3.06940
# Velocity P-wave (km/s) = 4.56598 4.94354 4.75851
#
# Compressibility (1/GPa) = 0.04302294
#
# Stress axis : x y z
#
# Youngs Moduli (GPa) = 49.09240 50.76327 68.30157
#
# Poissons Ratio (x) = 0.05385 0.25595
# Poissons Ratio (y) = 0.05208 0.07072
# Poissons Ratio (z) = 0.18396 0.05256
#
# Static dielectric constant tensor:
#      x y z
#    x 1.901200 0.000000 -0.015570 
#    y 0.000000 1.966490 0.000000 
#    z -0.015570 0.000000 1.928650 
# 
# From -- ./inp_files/272744.got.cif
#   From: 2010.05.17/outbox.cif.g08.bks.cpg/sg15_137_cif.got.tgz:272744.got - 2010.06.03 18:47:42.
