data_PCOD9276302
_publ_section_title
;
Structure prediction by ZEFSAII (Michael W. Deem and Ramdas Pophale) SiO2 
 PCOD9276302
Probable space group: C 2/C
;
_chemical_formula_sum "Si O2"
_cell_formula_units_Z 48
_cell_length_a 13.905046
_cell_length_b 18.049117
_cell_length_c 13.121415
_cell_angle_alpha 90.000000
_cell_angle_beta 144.530026
_cell_angle_gamma 90.000000
_cell_volume 1910.925903
_symmetry_space_group_name_H-M "C 2/C"
_symmetry_group_IT_number 15
_symmetry_cell_setting 'monoclinic'
loop_
_space_group_symop_operation_xyz
x,y,z
-x,y,1/2-z
-x,-y,-z
x,-y,1/2+z
1/2+x,1/2+y,z
1/2-x,1/2+y,1/2-z
1/2-x,1/2-y,-z
1/2+x,1/2-y,1/2+z
loop_
_atom_site_type_symbol
_atom_site_label
_atom_site_fract_x
_atom_site_fract_y
_atom_site_fract_z
Si Si1 0.863180 0.144995 0.777557
Si Si2 0.183102 0.596746 0.429057
Si Si3 0.243348 0.509191 0.798620
Si Si4 0.758108 0.189478 0.094235
Si Si5 0.944196 0.749276 0.929538
Si Si6 0.605759 0.949022 0.477155
O O1 0.816461 0.135407 0.618230
O O2 0.864271 0.067626 0.844659
O O3 0.707725 0.195208 0.681506
O O4 0.017379 0.195795 0.944464
O O5 0.270107 0.550295 0.412376
O O6 0.122500 0.530485 0.448511
O O7 0.000000 0.635363 0.250000
O O8 0.170495 0.456620 0.647316
O O9 0.089993 0.562563 0.699655
O O10 0.912344 0.201534 0.300698
O O11 0.726317 0.107998 0.025231
O O12 0.750000 0.250000 0.000000
O O13 0.601750 0.200415 0.034863
#
# Coordination Sequence:
#
# PCOD9276302 Si02
#       6
#     8   8   8   8   8   8
#     4  10  20  40  59  93 118 160 203 247 314 352
#     4   9  19  32  61  88 115 155 211 252 287 365
#     4   9  17  34  60  88 116 155 199 256 288 357
#     4  11  22  36  57  88 118 161 197 243 305 372
#     4  10  23  36  59  82 127 157 191 255 298 365
#     4   9  18  32  57  87 116 149 201 254 298 341
#
# _framework density 25.118713
#
# number of rings (size 3 to 8) (size 9 to 14) (size 15 to 20)
#    0.000    2.333    1.667    1.500    4.667    1.333 
#    0.000    4.167    0.000    2.000    0.000    0.000 
#    0.000    0.000    0.000    0.000    0.000    0.000 
#
# Total GULP energy -133856.109131 kJ/mol
# GULP energy per Si atom -5577.337880 kJ/mol
# Density = 2.506154 g / cm^3
# Si number density = 25.118713 Si / 1000 Ang^3
#
#
#
# Elastic Constant Matrix: (Units=GPa)
#
#
# Indices 1 2 3 4 5 6 
#
# 1 59.4064 6.8313 20.3072 0.0000 -11.7428 0.0000
# 2 6.8313 76.4028 36.1962 0.0000 -6.1207 0.0000
# 3 20.3072 36.1962 90.7883 0.0000 -32.8089 0.0000
# 4 0.0000 0.0000 0.0000 45.2420 0.0000 -9.9848
# 5 -11.7428 -6.1207 -32.8089 0.0000 50.9503 0.0000
# 6 0.0000 0.0000 0.0000 -9.9848 0.0000 33.0966
#
#
#
# Elastic Compliance Matrix: (Units=1/GPa)
#
#
# Indices 1 2 3 4 5 6 
#
# 1 0.018394 0.000146 -0.003433 0.000000 0.002046 0.000000
# 2 0.000146 0.016467 -0.007651 0.000000 -0.002915 0.000000
# 3 -0.003433 -0.007651 0.018526 0.000000 0.010219 0.000000
# 4 0.000000 0.000000 0.000000 0.023680 0.000000 0.007144
# 5 0.002046 -0.002915 0.010219 0.000000 0.026329 0.000000
# 6 0.000000 0.000000 0.000000 0.007144 0.000000 0.032370
#
#
# Mechanical properties :
#
#
# Convention : Reuss Voigt Hill
#
# Bulk Modulus (GPa) = 31.73578 39.25188 35.49383
# Shear Modulus (GPa) = 29.73603 36.74197 33.23900
#
# Velocity S-wave (km/s) = 3.44440 3.82872 3.64163
# Velocity P-wave (km/s) = 5.33669 5.93346 5.64297
#
# Compressibility (1/GPa) = 0.03151018
#
# Stress axis : x y z
#
# Youngs Moduli (GPa) = 54.36418 60.72858 53.97840
#
# Poissons Ratio (x) = -0.00884 0.18531
# Poissons Ratio (y) = -0.00792 0.41300
# Poissons Ratio (z) = 0.18663 0.46464
#
# Static dielectric constant tensor:
#      x y z
#    x 2.096120 0.000000 -0.024760 
#    y 0.000000 2.034100 0.000000 
#    z -0.024760 0.000000 2.117380 
# 
# From -- ./inp_files/163557.got.cif
#   From: 2010.05.17/outbox.cif.g08.bks.cpg/sg15_82_cif.got.tgz:163557.got - 2010.06.03 18:47:42.
