data_PCOD9276099
_publ_section_title
;
Structure prediction by ZEFSAII (Michael W. Deem and Ramdas Pophale) SiO2 
 PCOD9276099
Probable space group: C 2/C
;
_chemical_formula_sum "Si O2"
_cell_formula_units_Z 56
_cell_length_a 11.876309
_cell_length_b 27.935438
_cell_length_c 9.247545
_cell_angle_alpha 90.000000
_cell_angle_beta 114.315100
_cell_angle_gamma 90.000000
_cell_volume 2795.904387
_symmetry_space_group_name_H-M "C 2/C"
_symmetry_group_IT_number 15
_symmetry_cell_setting 'monoclinic'
loop_
_space_group_symop_operation_xyz
x,y,z
-x,y,1/2-z
-x,-y,-z
x,-y,1/2+z
1/2+x,1/2+y,z
1/2-x,1/2+y,1/2-z
1/2-x,1/2-y,-z
1/2+x,1/2-y,1/2+z
loop_
_atom_site_type_symbol
_atom_site_label
_atom_site_fract_x
_atom_site_fract_y
_atom_site_fract_z
Si Si1 0.492133 0.935606 0.589771
Si Si2 0.896039 0.856318 0.307079
Si Si3 0.885458 0.034404 0.891436
Si Si4 0.882313 0.197048 0.102608
Si Si5 0.619036 0.144797 0.646434
Si Si6 0.711192 0.985588 0.561607
Si Si7 0.618454 0.190603 0.958600
O O1 0.500000 0.910536 0.750000
O O2 0.432314 0.906209 0.427444
O O3 0.629207 0.949834 0.613820
O O4 0.396277 0.979612 0.558307
O O5 0.921182 0.911447 0.367653
O O6 0.892003 0.823486 0.446780
O O7 0.758808 0.852084 0.166534
O O8 0.000000 0.841298 0.250000
O O9 0.810031 0.012108 0.716710
O O10 0.788778 0.037024 0.972843
O O11 0.000000 0.000000 0.000000
O O12 0.750459 0.183290 0.102876
O O13 0.000000 0.179000 0.250000
O O14 0.884583 0.254715 0.096138
O O15 0.510248 0.179594 0.531772
O O16 0.624795 0.156420 0.820326
#
# Coordination Sequence:
#
# PCOD9276099 Si02
#       7
#     8   8   8   8   8   8   8
#     4  11  23  39  63  97 131 163 224 283 327 397
#     4  11  25  43  65  94 132 184 224 274 342 400
#     4  12  25  44  65  89 136 184 226 273 332 399
#     4  10  20  41  70  99 134 163 220 279 320 406
#     4  10  20  39  68  90 127 170 212 272 336 393
#     4  11  24  41  64  93 127 177 222 277 334 388
#     4   9  20  39  70 100 123 171 214 266 338 400
#
# _framework density 20.029299000000002
#
# number of rings (size 3 to 8) (size 9 to 14) (size 15 to 20)
#    0.000    1.429    4.286    1.286    6.000    1.143 
#    2.571    1.429    0.000    0.000    0.000    0.000 
#    0.000    0.000    0.000    0.000    0.000    0.000 
#
# Total GULP energy -156096.934739 kJ/mol
# GULP energy per Si atom -5574.890526 kJ/mol
# Density = 1.998371 g / cm^3
# Si number density = 20.029299 Si / 1000 Ang^3
#
#
#
# Elastic Constant Matrix: (Units=GPa)
#
#
# Indices 1 2 3 4 5 6 
#
# 1 125.0955 18.7287 24.1333 0.0000 23.9459 0.0000
# 2 18.7287 36.6602 10.3306 0.0000 -4.0038 0.0000
# 3 24.1333 10.3306 63.1351 0.0000 11.2095 0.0000
# 4 0.0000 0.0000 0.0000 37.8328 0.0000 2.3100
# 5 23.9459 -4.0038 11.2095 0.0000 43.9161 0.0000
# 6 0.0000 0.0000 0.0000 2.3100 0.0000 26.7452
#
#
#
# Elastic Compliance Matrix: (Units=1/GPa)
#
#
# Indices 1 2 3 4 5 6 
#
# 1 0.010239 -0.005251 -0.002072 0.000000 -0.005533 0.000000
# 2 -0.005251 0.031970 -0.004451 0.000000 0.006914 0.000000
# 3 -0.002072 -0.004451 0.018049 0.000000 -0.003883 0.000000
# 4 0.000000 0.000000 0.000000 0.026572 0.000000 -0.002295
# 5 -0.005533 0.006914 -0.003883 0.000000 0.027409 0.000000
# 6 0.000000 0.000000 0.000000 -0.002295 0.000000 0.037588
#
#
# Mechanical properties :
#
#
# Convention : Reuss Voigt Hill
#
# Bulk Modulus (GPa) = 27.24212 36.80847 32.02529
# Shear Modulus (GPa) = 26.65069 33.14536 29.89803
#
# Velocity S-wave (km/s) = 3.65168 4.07239 3.86776
# Velocity P-wave (km/s) = 5.60449 6.36629 5.99750
#
# Compressibility (1/GPa) = 0.03670787
#
# Stress axis : x y z
#
# Youngs Moduli (GPa) = 97.66658 31.27966 55.40493
#
# Poissons Ratio (x) = 0.16425 0.11481
# Poissons Ratio (y) = 0.51286 0.24663
# Poissons Ratio (z) = 0.20239 0.13924
#
# Static dielectric constant tensor:
#      x y z
#    x 1.738920 0.000000 0.020730 
#    y 0.000000 1.736360 0.000000 
#    z 0.020730 0.000000 1.705240 
# 
# From -- ./inp_files/35780.got.cif
#   From: 2010.05.17/outbox.cif.g08.bks.cpg/sg15_18_cif.got.tgz:35780.got - 2010.06.03 18:47:42.
