data_PCOD9276534
_publ_section_title
;
Structure prediction by ZEFSAII (Michael W. Deem and Ramdas Pophale) SiO2 
 PCOD9276534
Probable space group: C 2/C
;
_chemical_formula_sum "Si O2"
_cell_formula_units_Z 60
_cell_length_a 16.829930
_cell_length_b 11.485678
_cell_length_c 14.760772
_cell_angle_alpha 90.000000
_cell_angle_beta 65.903009
_cell_angle_gamma 90.000000
_cell_volume 2604.654432
_symmetry_space_group_name_H-M "C 2/C"
_symmetry_group_IT_number 15
_symmetry_cell_setting 'monoclinic'
loop_
_space_group_symop_operation_xyz
x,y,z
-x,y,1/2-z
-x,-y,-z
x,-y,1/2+z
1/2+x,1/2+y,z
1/2-x,1/2+y,1/2-z
1/2-x,1/2-y,-z
1/2+x,1/2-y,1/2+z
loop_
_atom_site_type_symbol
_atom_site_label
_atom_site_fract_x
_atom_site_fract_y
_atom_site_fract_z
Si Si1 0.099477 0.698037 0.734672
Si Si2 0.271368 0.431040 0.102857
Si Si3 0.278911 0.585823 0.266501
Si Si4 0.972340 0.376445 0.052714
Si Si5 0.889410 0.268214 0.621531
Si Si6 0.633509 0.812301 0.563799
Si Si7 0.808741 0.068620 0.922274
Si Si8 0.000000 0.681322 0.250000
O O1 0.175441 0.630451 0.642037
O O2 0.149667 0.813449 0.747680
O O3 0.073332 0.614970 0.830466
O O4 0.000000 0.729172 0.750000
O O5 0.273862 0.544682 0.165518
O O6 0.334067 0.345498 0.129122
O O7 0.317544 0.459426 0.985656
O O8 0.183231 0.633176 0.333405
O O9 0.297117 0.480490 0.327733
O O10 0.903942 0.316169 0.018424
O O11 0.000000 0.500000 0.000000
O O12 0.056352 0.296827 0.994955
O O13 0.949337 0.264429 0.684553
O O14 0.724955 0.871682 0.507476
O O15 0.628601 0.680475 0.603911
O O16 0.575151 0.885662 0.660803
#
# Coordination Sequence:
#
# PCOD9276534 Si02
#       8
#     8   8   8   8   8   8   8   4
#     4  11  27  44  68 102 141 174 234 289 343 417
#     4  11  24  43  68  96 133 184 229 273 346 420
#     4  11  24  46  67  99 138 188 223 283 353 420
#     4  11  23  42  66  96 133 173 221 294 345 395
#     4  10  23  40  67  93 136 168 228 276 337 414
#     4  10  22  40  65  98 134 171 231 283 338 409
#     4  11  23  41  69  95 134 185 226 276 349 428
#     4  10  20  40  62  98 128 172 212 296 330 384
#
# _framework density 23.035685000000001
#
# number of rings (size 3 to 8) (size 9 to 14) (size 15 to 20)
#    0.000    1.333    0.000    4.800    5.600    6.400 
#    9.600    3.333    0.000    0.000    0.000    0.000 
#    0.000    0.000    0.000    0.000    0.000    0.000 
#
# Total GULP energy -167232.927130 kJ/mol
# GULP energy per Si atom -5574.430904 kJ/mol
# Density = 2.298326 g / cm^3
# Si number density = 23.035685 Si / 1000 Ang^3
#
#
#
# Elastic Constant Matrix: (Units=GPa)
#
#
# Indices 1 2 3 4 5 6 
#
# 1 114.0810 41.0164 5.7822 0.0000 21.1224 0.0000
# 2 41.0164 65.9379 -3.1218 0.0000 -16.7610 0.0000
# 3 5.7822 -3.1218 68.6069 0.0000 2.2777 0.0000
# 4 0.0000 0.0000 0.0000 30.5384 0.0000 4.5927
# 5 21.1224 -16.7610 2.2777 0.0000 -21.7639 0.0000
# 6 0.0000 0.0000 0.0000 4.5927 0.0000 19.7323
#
#
#
# Elastic Compliance Matrix: (Units=1/GPa)
#
#
# Indices 1 2 3 4 5 6 
#
# 1 0.007969 -0.002570 -0.001107 0.000000 0.009597 0.000000
# 2 -0.002570 0.013568 0.001259 0.000000 -0.012811 0.000000
# 3 -0.001107 0.001259 0.014743 0.000000 -0.000501 0.000000
# 4 0.000000 0.000000 0.000000 0.033933 0.000000 -0.007898
# 5 0.009597 -0.012811 -0.000501 0.000000 -0.026820 0.000000
# 6 0.000000 0.000000 0.000000 -0.007898 0.000000 0.052517
#
#
# Mechanical properties :
#
#
# Convention : Reuss Voigt Hill
#
# Bulk Modulus (GPa) = 31.80273 37.33104 34.56688
# Shear Modulus (GPa) = 44.95333 19.36463 32.15898
#
# Velocity S-wave (km/s) = 4.42233 2.90252 3.74043
# Velocity P-wave (km/s) = 6.31758 5.24154 5.80455
#
# Compressibility (1/GPa) = 0.03144384
#
# Stress axis : x y z
#
# Youngs Moduli (GPa) = 125.48883 73.70554 67.82859
#
# Poissons Ratio (x) = 0.18941 0.07510
# Poissons Ratio (y) = 0.32249 -0.08541
# Poissons Ratio (z) = 0.13894 -0.09281
#
# Static dielectric constant tensor:
#      x y z
#    x 2.058300 0.000000 -0.211270 
#    y 0.000000 2.040770 0.000000 
#    z -0.211270 0.000000 2.127770 
# 
# From -- ./inp_files/161303.got.cif
#   From: 2010.05.17/outbox.cif.g08.bks.cpg/sg15_81_cif.got.tgz:161303.got - 2010.06.03 18:47:42.
