data_PCOD9276509
_publ_section_title
;
Structure prediction by ZEFSAII (Michael W. Deem and Ramdas Pophale) SiO2 
 PCOD9276509
Probable space group: C 2/C
;
_chemical_formula_sum "Si O2"
_cell_formula_units_Z 48
_cell_length_a 7.634587
_cell_length_b 22.241108
_cell_length_c 11.883230
_cell_angle_alpha 90.000000
_cell_angle_beta 95.311308
_cell_angle_gamma 90.000000
_cell_volume 2009.128851
_symmetry_space_group_name_H-M "C 2/C"
_symmetry_group_IT_number 15
_symmetry_cell_setting 'monoclinic'
loop_
_space_group_symop_operation_xyz
x,y,z
-x,y,1/2-z
-x,-y,-z
x,-y,1/2+z
1/2+x,1/2+y,z
1/2-x,1/2+y,1/2-z
1/2-x,1/2-y,-z
1/2+x,1/2-y,1/2+z
loop_
_atom_site_type_symbol
_atom_site_label
_atom_site_fract_x
_atom_site_fract_y
_atom_site_fract_z
Si Si1 0.787470 0.969122 0.632801
Si Si2 0.235563 0.403501 0.400069
Si Si3 0.000000 0.922423 0.250000
Si Si4 0.049347 0.671873 0.487462
Si Si5 0.000000 0.510363 0.750000
Si Si6 0.403686 0.693704 0.425452
Si Si7 0.732706 0.343300 0.812080
O O1 0.803257 0.941798 0.510254
O O2 0.813643 0.912576 0.719918
O O3 0.898709 0.028587 0.663363
O O4 0.581197 0.979065 0.646178
O O5 0.392610 0.379900 0.330566
O O6 0.071647 0.361798 0.427592
O O7 0.155061 0.450780 0.308501
O O8 0.929427 0.662868 0.369532
O O9 0.255053 0.654667 0.482532
O O10 0.065119 0.742112 0.516701
O O11 0.313958 0.697873 0.296115
O O12 0.598776 0.670768 0.407230
#
# Coordination Sequence:
#
# PCOD9276509 Si02
#       7
#     8   8   4   8   4   8   8
#     4  10  21  38  62  92 123 164 210 260 309 375
#     4  10  22  40  61  91 127 169 208 255 316 383
#     4  10  20  40  62  92 132 164 214 254 316 374
#     4  10  22  40  64  92 125 163 208 262 323 381
#     4  10  22  38  60  92 126 162 206 256 312 378
#     4  10  21  39  63  94 123 158 212 265 314 376
#     4  10  21  38  65  90 125 163 210 259 316 383
#
# _framework density 23.890951000000001
#
# number of rings (size 3 to 8) (size 9 to 14) (size 15 to 20)
#    0.000    2.000    0.000    3.000    4.667    1.333 
#   15.000    0.000    7.333    0.000    0.000    0.000 
#    0.000    0.000    0.000    0.000    0.000    0.000 
#
# Total GULP energy -133660.437792 kJ/mol
# GULP energy per Si atom -5569.184908 kJ/mol
# Density = 2.383657 g / cm^3
# Si number density = 23.890951 Si / 1000 Ang^3
#
#
#
# Elastic Constant Matrix: (Units=GPa)
#
#
# Indices 1 2 3 4 5 6 
#
# 1 109.8603 14.5238 24.1265 0.0000 -35.7572 0.0000
# 2 14.5238 39.2919 6.5285 0.0000 -3.6425 0.0000
# 3 24.1265 6.5285 85.0939 0.0000 -24.7315 0.0000
# 4 0.0000 0.0000 0.0000 9.1817 0.0000 -8.1484
# 5 -35.7572 -3.6425 -24.7315 0.0000 55.7041 0.0000
# 6 0.0000 0.0000 0.0000 -8.1484 0.0000 46.9901
#
#
#
# Elastic Compliance Matrix: (Units=1/GPa)
#
#
# Indices 1 2 3 4 5 6 
#
# 1 0.012123 -0.003643 -0.001108 0.000000 0.007051 0.000000
# 2 -0.003643 0.026916 -0.001378 0.000000 -0.001190 0.000000
# 3 -0.001108 -0.001378 0.013707 0.000000 0.005284 0.000000
# 4 0.000000 0.000000 0.000000 0.128721 0.000000 0.022321
# 5 0.007051 -0.001190 0.005284 0.000000 0.024747 0.000000
# 6 0.000000 0.000000 0.000000 0.022321 0.000000 0.025152
#
#
# Mechanical properties :
#
#
# Convention : Reuss Voigt Hill
#
# Bulk Modulus (GPa) = 24.69918 36.06705 30.38312
# Shear Modulus (GPa) = 19.44620 34.97968 27.21294
#
# Velocity S-wave (km/s) = 2.85609 3.83056 3.37864
# Velocity P-wave (km/s) = 4.60837 5.89012 5.28822
#
# Compressibility (1/GPa) = 0.04048717
#
# Stress axis : x y z
#
# Youngs Moduli (GPa) = 82.49097 37.15287 72.95282
#
# Poissons Ratio (x) = 0.13535 0.08084
# Poissons Ratio (y) = 0.30052 0.10053
# Poissons Ratio (z) = 0.09141 0.05120
#
# Static dielectric constant tensor:
#      x y z
#    x 2.308160 0.000000 -0.382720 
#    y 0.000000 1.892320 0.000000 
#    z -0.382720 0.000000 2.521220 
# 
# From -- ./inp_files/79325.got.cif
#   From: 2010.05.17/outbox.cif.g08.bks.cpg/sg15_40_cif.got.tgz:79325.got - 2010.06.03 18:47:42.
