data_PCOD9276434
_publ_section_title
;
Structure prediction by ZEFSAII (Michael W. Deem and Ramdas Pophale) SiO2 
 PCOD9276434
Probable space group: C 2/C
;
_chemical_formula_sum "Si O2"
_cell_formula_units_Z 60
_cell_length_a 22.431720
_cell_length_b 24.427348
_cell_length_c 8.704531
_cell_angle_alpha 90.000000
_cell_angle_beta 139.873963
_cell_angle_gamma 90.000000
_cell_volume 3073.886048
_symmetry_space_group_name_H-M "C 2/C"
_symmetry_group_IT_number 15
_symmetry_cell_setting 'monoclinic'
loop_
_space_group_symop_operation_xyz
x,y,z
-x,y,1/2-z
-x,-y,-z
x,-y,1/2+z
1/2+x,1/2+y,z
1/2-x,1/2+y,1/2-z
1/2-x,1/2-y,-z
1/2+x,1/2-y,1/2+z
loop_
_atom_site_type_symbol
_atom_site_label
_atom_site_fract_x
_atom_site_fract_y
_atom_site_fract_z
Si Si1 0.000000 0.540405 0.750000
Si Si2 0.212660 0.353129 0.630486
Si Si3 0.923783 0.627336 0.363087
Si Si4 0.454546 0.448825 0.993294
Si Si5 0.054837 0.723858 0.699165
Si Si6 0.074073 0.829726 0.530659
Si Si7 0.658677 0.952101 0.016349
Si Si8 0.256294 0.959048 0.997043
O O1 0.982237 0.580637 0.570493
O O2 0.915406 0.498087 0.583790
O O3 0.165701 0.360043 0.705472
O O4 0.150563 0.306723 0.427708
O O5 0.322233 0.340109 0.833640
O O6 0.197515 0.410222 0.509780
O O7 0.988397 0.680369 0.481714
O O8 0.890421 0.602670 0.136882
O O9 0.500000 0.447334 0.250000
O O10 0.500000 0.500000 0.000000
O O11 0.458767 0.385529 0.947387
O O12 0.346508 0.460713 0.769781
O O13 0.073428 0.778216 0.640961
O O14 0.000000 0.735285 0.750000
O O15 0.000000 0.820168 0.250000
O O16 0.728812 0.945419 0.295376
O O17 0.704972 0.980775 0.960504
#
# Coordination Sequence:
#
# PCOD9276434 Si02
#       8
#     4   8   8   8   8   8   8   8
#     4  12  20  36  56  86 134 168 202 238 308 362
#     4  10  20  40  62  84 121 163 205 258 312 364
#     4  11  21  38  60  88 127 172 206 252 305 371
#     4  10  22  41  64  87 114 153 197 253 308 357
#     4  10  21  40  64  87 120 161 209 256 309 366
#     4  10  23  41  63  90 118 158 204 258 317 365
#     4  12  23  32  55  91 130 167 200 245 301 379
#     4  11  21  36  56  88 123 159 205 248 306 372
#
# _framework density 19.519265999999998
#
# number of rings (size 3 to 8) (size 9 to 14) (size 15 to 20)
#    0.000    1.333    4.667    1.600    1.867    3.733 
#    0.000    5.333    0.000    0.000    0.000    0.000 
#    0.000    0.000    0.000    0.000    0.000    0.000 
#
# Total GULP energy -167346.409693 kJ/mol
# GULP energy per Si atom -5578.213656 kJ/mol
# Density = 1.947484 g / cm^3
# Si number density = 19.519266 Si / 1000 Ang^3
#
#
#
# Elastic Constant Matrix: (Units=GPa)
#
#
# Indices 1 2 3 4 5 6 
#
# 1 41.5330 37.9569 37.7842 0.0000 15.2115 0.0000
# 2 37.9569 118.0047 34.1327 0.0000 16.5078 0.0000
# 3 37.7842 34.1327 121.0258 0.0000 12.7822 0.0000
# 4 0.0000 0.0000 0.0000 21.4666 0.0000 0.8664
# 5 15.2115 16.5078 12.7822 0.0000 22.9744 0.0000
# 6 0.0000 0.0000 0.0000 0.8664 0.0000 12.0609
#
#
#
# Elastic Compliance Matrix: (Units=1/GPa)
#
#
# Indices 1 2 3 4 5 6 
#
# 1 0.050769 -0.010391 -0.010792 0.000000 -0.020144 0.000000
# 2 -0.010391 0.012059 0.000033 0.000000 -0.001804 0.000000
# 3 -0.010792 0.000033 0.011549 0.000000 0.000696 0.000000
# 4 0.000000 0.000000 0.000000 0.046719 0.000000 -0.003356
# 5 -0.020144 -0.001804 0.000696 0.000000 0.057773 0.000000
# 6 0.000000 0.000000 0.000000 -0.003356 0.000000 0.083154
#
#
# Mechanical properties :
#
#
# Convention : Reuss Voigt Hill
#
# Bulk Modulus (GPa) = 31.17338 55.59011 43.38175
# Shear Modulus (GPa) = 15.87228 22.67968 19.27598
#
# Velocity S-wave (km/s) = 2.85469 3.41238 3.14592
# Velocity P-wave (km/s) = 5.18372 6.63832 5.95559
#
# Compressibility (1/GPa) = 0.03207865
#
# Stress axis : x y z
#
# Youngs Moduli (GPa) = 19.69710 82.92504 86.58726
#
# Poissons Ratio (x) = 0.86164 0.93445
# Poissons Ratio (y) = 0.20466 -0.00289
# Poissons Ratio (z) = 0.21257 -0.00277
#
# Static dielectric constant tensor:
#      x y z
#    x 1.738170 0.000000 0.019920 
#    y 0.000000 1.688390 0.000000 
#    z 0.019920 0.000000 1.668320 
# 
# From -- ./inp_files/58794.got.cif
#   From: 2010.05.17/outbox.cif.g08.bks.cpg/sg15_30_cif.got.tgz:58794.got - 2010.06.03 18:47:42.
