data_PCOD9276711
_publ_section_title
;
Structure prediction by ZEFSAII (Michael W. Deem and Ramdas Pophale) SiO2 
 PCOD9276711
Probable space group: C 2/C
;
_chemical_formula_sum "Si O2"
_cell_formula_units_Z 44
_cell_length_a 25.153598
_cell_length_b 11.201984
_cell_length_c 13.985509
_cell_angle_alpha 90.000000
_cell_angle_beta 26.349961
_cell_angle_gamma 90.000000
_cell_volume 1749.090376
_symmetry_space_group_name_H-M "C 2/C"
_symmetry_group_IT_number 15
_symmetry_cell_setting 'monoclinic'
loop_
_space_group_symop_operation_xyz
x,y,z
-x,y,1/2-z
-x,-y,-z
x,-y,1/2+z
1/2+x,1/2+y,z
1/2-x,1/2+y,1/2-z
1/2-x,1/2-y,-z
1/2+x,1/2-y,1/2+z
loop_
_atom_site_type_symbol
_atom_site_label
_atom_site_fract_x
_atom_site_fract_y
_atom_site_fract_z
Si Si1 0.941629 0.658624 0.947560
Si Si2 0.740023 0.493567 0.717104
Si Si3 0.290258 0.462549 0.537459
Si Si4 0.000000 0.778445 0.250000
Si Si5 0.413553 0.078732 0.267122
Si Si6 0.005226 0.086364 0.359796
O O1 0.000000 0.673311 0.750000
O O2 0.008626 0.539881 0.876323
O O3 0.972111 0.782176 0.949259
O O4 0.804033 0.631188 0.142019
O O5 0.745570 0.547887 0.816277
O O6 0.824177 0.552910 0.502126
O O7 0.597691 0.501080 0.931182
O O8 0.385683 0.362785 0.416874
O O9 0.174592 0.400833 0.678954
O O10 0.359679 0.540868 0.346003
O O11 0.005423 0.689173 0.331748
O O12 0.000000 0.084007 0.250000
#
# Coordination Sequence:
#
# PCOD9276711 Si02
#       6
#     8   8   8   4   8   8
#     4   9  19  38  61  90 127 166 213 267 317 377
#     4  10  20  40  64  92 128 172 208 264 316 390
#     4  11  24  42  65  95 131 172 217 266 327 381
#     4  12  22  48  58  94 136 174 210 290 294 396
#     4  11  24  42  65  95 131 172 217 266 327 381
#     4   9  19  38  61  90 127 166 213 267 317 377
#
# _framework density 25.155933999999998
#
# number of rings (size 3 to 8) (size 9 to 14) (size 15 to 20)
#    0.000    1.818    5.455    0.545    2.545    2.182 
#    0.000    0.000    0.000    0.000    0.000    0.000 
#    0.000    0.000    0.000    0.000    0.000    0.000 
#
# Total GULP energy -122631.141696 kJ/mol
# GULP energy per Si atom -5574.142804 kJ/mol
# Density = 2.509868 g / cm^3
# Si number density = 25.155934 Si / 1000 Ang^3
#
#
#
# Elastic Constant Matrix: (Units=GPa)
#
#
# Indices 1 2 3 4 5 6 
#
# 1 81.3601 11.6428 7.6981 0.0000 -3.4119 0.0000
# 2 11.6428 130.0228 40.5725 0.0000 -20.5183 0.0000
# 3 7.6981 40.5725 152.3426 0.0000 5.4072 0.0000
# 4 0.0000 0.0000 0.0000 12.5995 0.0000 -2.6914
# 5 -3.4119 -20.5183 5.4072 0.0000 48.6596 0.0000
# 6 0.0000 0.0000 0.0000 -2.6914 0.0000 12.5335
#
#
#
# Elastic Compliance Matrix: (Units=1/GPa)
#
#
# Indices 1 2 3 4 5 6 
#
# 1 0.012482 -0.000905 -0.000409 0.000000 0.000539 0.000000
# 2 -0.000905 0.009217 -0.002555 0.000000 0.004107 0.000000
# 3 -0.000409 -0.002555 0.007333 0.000000 -0.001921 0.000000
# 4 0.000000 0.000000 0.000000 0.083184 0.000000 0.017862
# 5 0.000539 0.004107 -0.001921 0.000000 0.022534 0.000000
# 6 0.000000 0.000000 0.000000 0.017862 0.000000 0.083622
#
#
# Mechanical properties :
#
#
# Convention : Reuss Voigt Hill
#
# Bulk Modulus (GPa) = 46.95903 53.72801 50.34352
# Shear Modulus (GPa) = 21.44008 35.01266 28.22637
#
# Velocity S-wave (km/s) = 2.92256 3.73476 3.35334
# Velocity P-wave (km/s) = 5.48600 6.32474 5.92024
#
# Compressibility (1/GPa) = 0.02129516
#
# Stress axis : x y z
#
# Youngs Moduli (GPa) = 80.11645 108.49111 136.36231
#
# Poissons Ratio (x) = 0.09819 0.05575
# Poissons Ratio (y) = 0.07251 0.34838
# Poissons Ratio (z) = 0.03275 0.27718
#
# Static dielectric constant tensor:
#      x y z
#    x 2.096330 0.000000 0.048920 
#    y 0.000000 2.056780 0.000000 
#    z 0.048920 0.000000 2.125370 
# 
# From -- ./inp_files/225101.got.cif
#   From: 2010.05.17/outbox.cif.g08.bks.cpg/sg15_113_cif.got.tgz:225101.got - 2010.06.03 18:47:42.
