data_PCOD9276119
_publ_section_title
;
Structure prediction by ZEFSAII (Michael W. Deem and Ramdas Pophale) SiO2 
 PCOD9276119
Probable space group: C 2/C
;
_chemical_formula_sum "Si O2"
_cell_formula_units_Z 52
_cell_length_a 15.674675
_cell_length_b 11.273344
_cell_length_c 18.432833
_cell_angle_alpha 90.000000
_cell_angle_beta 54.229635
_cell_angle_gamma 90.000000
_cell_volume 2642.775917
_symmetry_space_group_name_H-M "C 2/C"
_symmetry_group_IT_number 15
_symmetry_cell_setting 'monoclinic'
loop_
_space_group_symop_operation_xyz
x,y,z
-x,y,1/2-z
-x,-y,-z
x,-y,1/2+z
1/2+x,1/2+y,z
1/2-x,1/2+y,1/2-z
1/2-x,1/2-y,-z
1/2+x,1/2-y,1/2+z
loop_
_atom_site_type_symbol
_atom_site_label
_atom_site_fract_x
_atom_site_fract_y
_atom_site_fract_z
Si Si1 0.882620 0.293071 0.413203
Si Si2 0.416297 0.303802 0.126955
Si Si3 0.345136 0.658593 0.957379
Si Si4 0.112317 0.435502 0.938901
Si Si5 0.699318 0.587602 0.950223
Si Si6 0.500000 0.340762 0.750000
Si Si7 0.336743 0.449915 0.306204
O O1 0.880891 0.373342 0.485322
O O2 0.816243 0.360320 0.384156
O O3 0.835681 0.167353 0.463539
O O4 0.987463 0.247083 0.324384
O O5 0.542820 0.300283 0.067697
O O6 0.383412 0.169413 0.123236
O O7 0.374744 0.381481 0.079868
O O8 0.369042 0.368093 0.221733
O O9 0.366839 0.616882 0.864902
O O10 0.250000 0.750000 0.000000
O O11 0.307084 0.547430 0.024028
O O12 0.212634 0.519051 0.873867
O O13 0.000000 0.500000 0.000000
O O14 0.596320 0.428097 0.722659
#
# Coordination Sequence:
#
# PCOD9276119 Si02
#       7
#     8   8   8   8   8   4   8
#     4  10  20  39  68  95 126 178 228 276 344 399
#     4  11  24  39  67 105 128 177 236 278 340 409
#     4  12  23  41  68  93 139 187 216 277 352 413
#     4  11  25  44  68  97 141 175 227 291 346 409
#     4  10  20  41  63  94 131 173 232 272 327 418
#     4  12  20  38  70  94 130 178 226 284 330 404
#     4  12  23  44  66  94 139 179 223 283 341 407
#
# _framework density 19.676279999999998
#
# number of rings (size 3 to 8) (size 9 to 14) (size 15 to 20)
#    0.000    0.923    4.615    3.231    0.000    4.923 
#    0.000    0.000    0.000    0.000    0.000    0.000 
#    0.000    0.000    0.000    0.000    0.000    0.000 
#
# Total GULP energy -144973.970716 kJ/mol
# GULP energy per Si atom -5575.921951 kJ/mol
# Density = 1.963150 g / cm^3
# Si number density = 19.676280 Si / 1000 Ang^3
#
#
#
# Elastic Constant Matrix: (Units=GPa)
#
#
# Indices 1 2 3 4 5 6 
#
# 1 130.5056 38.0217 32.8652 0.0000 -2.5207 0.0000
# 2 38.0217 52.1160 19.3388 0.0000 1.9872 0.0000
# 3 32.8652 19.3388 74.9661 0.0000 -2.9270 0.0000
# 4 0.0000 0.0000 0.0000 34.7039 0.0000 -13.1221
# 5 -2.5207 1.9872 -2.9270 0.0000 31.2275 0.0000
# 6 0.0000 0.0000 0.0000 -13.1221 0.0000 38.3559
#
#
#
# Elastic Compliance Matrix: (Units=1/GPa)
#
#
# Indices 1 2 3 4 5 6 
#
# 1 0.010278 -0.006500 -0.002791 0.000000 0.000982 0.000000
# 2 -0.006500 0.025440 -0.003810 0.000000 -0.002501 0.000000
# 3 -0.002791 -0.003810 0.015604 0.000000 0.001480 0.000000
# 4 0.000000 0.000000 0.000000 0.033097 0.000000 0.011323
# 5 0.000982 -0.002501 0.001480 0.000000 0.032400 0.000000
# 6 0.000000 0.000000 0.000000 0.011323 0.000000 0.029945
#
#
# Mechanical properties :
#
#
# Convention : Reuss Voigt Hill
#
# Bulk Modulus (GPa) = 39.81173 48.67103 44.24138
# Shear Modulus (GPa) = 27.57263 32.01490 29.79376
#
# Velocity S-wave (km/s) = 3.74747 4.03809 3.89549
# Velocity P-wave (km/s) = 6.24516 6.82137 6.53961
#
# Compressibility (1/GPa) = 0.02511822
#
# Stress axis : x y z
#
# Youngs Moduli (GPa) = 97.29446 39.30869 64.08785
#
# Poissons Ratio (x) = 0.25552 0.17885
# Poissons Ratio (y) = 0.63245 0.24421
# Poissons Ratio (z) = 0.27152 0.14979
#
# Static dielectric constant tensor:
#      x y z
#    x 1.750390 0.000000 -0.054640 
#    y 0.000000 1.692700 0.000000 
#    z -0.054640 0.000000 1.731600 
# 
# From -- ./inp_files/203907.got.cif
#   From: 2010.05.17/outbox.cif.g08.bks.cpg/sg15_102_cif.got.tgz:203907.got - 2010.06.03 18:47:42.
