data_PCOD9276889
_publ_section_title
;
Structure prediction by ZEFSAII (Michael W. Deem and Ramdas Pophale) SiO2 
 PCOD9276889
Probable space group: C 2/C
;
_chemical_formula_sum "Si O2"
_cell_formula_units_Z 40
_cell_length_a 10.645267
_cell_length_b 16.673765
_cell_length_c 10.767453
_cell_angle_alpha 90.000000
_cell_angle_beta 94.030707
_cell_angle_gamma 90.000000
_cell_volume 1906.459883
_symmetry_space_group_name_H-M "C 2/C"
_symmetry_group_IT_number 15
_symmetry_cell_setting 'monoclinic'
loop_
_space_group_symop_operation_xyz
x,y,z
-x,y,1/2-z
-x,-y,-z
x,-y,1/2+z
1/2+x,1/2+y,z
1/2-x,1/2+y,1/2-z
1/2-x,1/2-y,-z
1/2+x,1/2-y,1/2+z
loop_
_atom_site_type_symbol
_atom_site_label
_atom_site_fract_x
_atom_site_fract_y
_atom_site_fract_z
Si Si1 0.330675 0.037461 0.112564
Si Si2 0.000000 0.651559 0.250000
Si Si3 0.935110 0.952071 0.382295
Si Si4 0.689896 0.167671 0.610114
Si Si5 0.544096 0.284401 0.434091
Si Si6 0.500000 0.077779 0.750000
O O1 0.375331 0.099015 0.222577
O O2 0.204959 0.988407 0.132017
O O3 0.448245 0.975809 0.131672
O O4 0.312984 0.095902 0.993371
O O5 0.982313 0.707925 0.366618
O O6 0.000000 0.961554 0.250000
O O7 0.952592 0.859784 0.427507
O O8 0.000000 0.000000 0.500000
O O9 0.615393 0.247283 0.558580
O O10 0.835075 0.188643 0.640121
O O11 0.615902 0.132099 0.719062
#
# Coordination Sequence:
#
# PCOD9276889 Si02
#       6
#     8   4   8   8   8   4
#     4  10  22  39  65  96 130 173 223 275 336 397
#     4   9  20  40  68  87 124 182 218 255 340 410
#     4  12  24  43  68 101 135 174 225 280 337 398
#     4  10  21  40  63  93 128 173 222 276 332 404
#     4  10  20  40  66  87 129 177 217 268 341 397
#     4  11  22  38  64  93 132 172 226 275 336 398
#
# _framework density 20.981297000000001
#
# number of rings (size 3 to 8) (size 9 to 14) (size 15 to 20)
#    0.000    1.600    3.000    1.800    0.000    0.000 
#    1.800    1.000    0.000    0.000    0.000    0.000 
#    0.000    0.000    0.000    0.000    0.000    0.000 
#
# Total GULP energy -111441.245057 kJ/mol
# GULP energy per Si atom -5572.062253 kJ/mol
# Density = 2.093354 g / cm^3
# Si number density = 20.981297 Si / 1000 Ang^3
#
#
#
# Elastic Constant Matrix: (Units=GPa)
#
#
# Indices 1 2 3 4 5 6 
#
# 1 86.2536 58.9740 19.8674 0.0000 19.3877 0.0000
# 2 58.9740 128.0787 18.4333 0.0000 6.4220 0.0000
# 3 19.8674 18.4333 44.2422 0.0000 3.4571 0.0000
# 4 0.0000 0.0000 0.0000 20.3738 0.0000 13.0608
# 5 19.3877 6.4220 3.4571 0.0000 25.6737 0.0000
# 6 0.0000 0.0000 0.0000 13.0608 0.0000 50.2784
#
#
#
# Elastic Compliance Matrix: (Units=1/GPa)
#
#
# Indices 1 2 3 4 5 6 
#
# 1 0.021666 -0.008563 -0.005104 0.000000 -0.013532 0.000000
# 2 -0.008563 0.011758 -0.001343 0.000000 0.003706 0.000000
# 3 -0.005104 -0.001343 0.025394 0.000000 0.000771 0.000000
# 4 0.000000 0.000000 0.000000 0.058889 0.000000 -0.015298
# 5 -0.013532 0.003706 0.000771 0.000000 0.048138 0.000000
# 6 0.000000 0.000000 0.000000 -0.015298 0.000000 0.023863
#
#
# Mechanical properties :
#
#
# Convention : Reuss Voigt Hill
#
# Bulk Modulus (GPa) = 34.72527 50.34710 42.53619
# Shear Modulus (GPa) = 21.80281 30.01850 25.91066
#
# Velocity S-wave (km/s) = 3.22709 3.78660 3.51798
# Velocity P-wave (km/s) = 5.52014 6.57009 6.06787
#
# Compressibility (1/GPa) = 0.02879747
#
# Stress axis : x y z
#
# Youngs Moduli (GPa) = 46.15593 85.04850 39.37891
#
# Poissons Ratio (x) = 0.72826 0.20099
# Poissons Ratio (y) = 0.39523 0.05290
# Poissons Ratio (z) = 0.23558 0.11424
#
# Static dielectric constant tensor:
#      x y z
#    x 1.751700 0.000000 0.039810 
#    y 0.000000 1.804850 0.000000 
#    z 0.039810 0.000000 1.788650 
# 
# From -- ./inp_files/76850.got.cif
#   From: 2010.05.17/outbox.cif.g08.bks.cpg/sg15_39_cif.got.tgz:76850.got - 2010.06.03 18:47:42.
