data_PCOD9276598
_publ_section_title
;
Structure prediction by ZEFSAII (Michael W. Deem and Ramdas Pophale) SiO2 
 PCOD9276598
Probable space group: C 2/C
;
_chemical_formula_sum "Si O2"
_cell_formula_units_Z 64
_cell_length_a 7.124973
_cell_length_b 15.171069
_cell_length_c 29.042357
_cell_angle_alpha 90.000000
_cell_angle_beta 60.071422
_cell_angle_gamma 90.000000
_cell_volume 2720.658349
_symmetry_space_group_name_H-M "C 2/C"
_symmetry_group_IT_number 15
_symmetry_cell_setting 'monoclinic'
loop_
_space_group_symop_operation_xyz
x,y,z
-x,y,1/2-z
-x,-y,-z
x,-y,1/2+z
1/2+x,1/2+y,z
1/2-x,1/2+y,1/2-z
1/2-x,1/2-y,-z
1/2+x,1/2-y,1/2+z
loop_
_atom_site_type_symbol
_atom_site_label
_atom_site_fract_x
_atom_site_fract_y
_atom_site_fract_z
Si Si1 0.010744 0.946167 0.369760
Si Si2 0.600943 0.707945 0.557115
Si Si3 0.021976 0.353884 0.197090
Si Si4 0.969090 0.624023 0.109104
Si Si5 0.740729 0.977204 0.028118
Si Si6 0.212418 0.999722 0.198125
Si Si7 0.388287 0.382623 0.923407
Si Si8 0.888004 0.696846 0.910979
O O1 0.239466 0.898132 0.334977
O O2 0.868048 0.886255 0.422483
O O3 0.880779 0.959201 0.338370
O O4 0.054836 0.041243 0.388164
O O5 0.750000 0.750000 0.500000
O O6 0.565505 0.779135 0.602028
O O7 0.371752 0.700721 0.559620
O O8 0.835021 0.426907 0.213580
O O9 0.000000 0.311159 0.250000
O O10 0.009589 0.296532 0.152323
O O11 0.889463 0.573081 0.163495
O O12 0.753739 0.632671 0.104557
O O13 0.129872 0.566863 0.057775
O O14 0.601198 0.904365 0.074142
O O15 0.736453 0.929888 0.979249
O O16 0.000000 0.000000 0.000000
O O17 0.000000 0.034542 0.250000
O O18 0.458562 0.284465 0.930074
#
# Coordination Sequence:
#
# PCOD9276598 Si02
#       8
#     8   8   8   8   8   8   8   8
#     4  10  22  41  66  95 128 174 215 265 327 390
#     4  10  20  40  63  92 132 174 211 259 324 392
#     4  11  21  42  70  89 126 164 216 275 333 381
#     4  10  22  39  61  91 126 166 220 262 313 392
#     4  12  21  36  60  93 131 171 208 258 325 393
#     4  11  22  41  68  96 121 169 221 269 337 382
#     4  10  22  39  60  88 129 170 209 253 321 392
#     4  10  22  38  59  95 124 169 213 264 325 379
#
# _framework density 23.523717000000001
#
# number of rings (size 3 to 8) (size 9 to 14) (size 15 to 20)
#    0.000    1.500    2.500    3.750    0.000    3.000 
#    4.500   10.000    0.000    1.500    0.000    0.000 
#    0.000    0.000    0.000    0.000    0.000    0.000 
#
# Total GULP energy -178531.004302 kJ/mol
# GULP energy per Si atom -5579.093884 kJ/mol
# Density = 2.347018 g / cm^3
# Si number density = 23.523717 Si / 1000 Ang^3
#
#
#
# Elastic Constant Matrix: (Units=GPa)
#
#
# Indices 1 2 3 4 5 6 
#
# 1 52.6690 -0.0399 4.4103 -0.0001 -12.0686 0.0001
# 2 -0.0399 131.9187 20.0584 -0.0001 1.2674 0.0001
# 3 4.4103 20.0584 110.3355 -0.0001 -0.9743 0.0001
# 4 -0.0001 -0.0001 -0.0001 17.7843 0.0000 -5.3158
# 5 -12.0686 1.2674 -0.9743 0.0000 35.0726 0.0000
# 6 0.0001 0.0001 0.0001 -5.3158 0.0000 10.3056
#
#
#
# Elastic Compliance Matrix: (Units=1/GPa)
#
#
# Indices 1 2 3 4 5 6 
#
# 1 0.020676 0.000056 -0.000774 0.000000 0.007091 0.000000
# 2 0.000056 0.007800 -0.001423 0.000000 -0.000302 0.000000
# 3 -0.000774 -0.001423 0.009353 0.000000 0.000045 0.000000
# 4 0.000000 0.000000 0.000000 0.066479 0.000000 0.034291
# 5 0.007091 -0.000302 0.000045 0.000000 0.030965 0.000000
# 6 0.000000 0.000000 0.000000 0.034291 0.000000 0.114723
#
#
# Mechanical properties :
#
#
# Convention : Reuss Voigt Hill
#
# Bulk Modulus (GPa) = 29.80878 38.19786 34.00332
# Shear Modulus (GPa) = 18.83520 30.66547 24.75034
#
# Velocity S-wave (km/s) = 2.83272 3.61445 3.24720
# Velocity P-wave (km/s) = 4.83718 5.80451 5.34278
#
# Compressibility (1/GPa) = 0.03354716
#
# Stress axis : x y z
#
# Youngs Moduli (GPa) = 48.36468 128.21021 106.91453
#
# Poissons Ratio (x) = -0.00716 0.08275
# Poissons Ratio (y) = -0.00270 0.15212
# Poissons Ratio (z) = 0.03743 0.18242
#
# Static dielectric constant tensor:
#      x y z
#    x 1.948670 0.000000 0.046780 
#    y 0.000000 2.011180 0.000000 
#    z 0.046780 0.000000 1.906750 
# 
# From -- ./inp_files/308268.got.cif
#   From: 2010.05.17/outbox.cif.g08.bks.cpg/sg15_155_cif.got.tgz:308268.got - 2010.06.03 18:47:42.
