data_PCOD9276728
_publ_section_title
;
Structure prediction by ZEFSAII (Michael W. Deem and Ramdas Pophale) SiO2 
 PCOD9276728
Probable space group: C 2/C
;
_chemical_formula_sum "Si O2"
_cell_formula_units_Z 36
_cell_length_a 12.078448
_cell_length_b 11.659237
_cell_length_c 10.084663
_cell_angle_alpha 90.000000
_cell_angle_beta 74.347872
_cell_angle_gamma 90.000000
_cell_volume 1367.513856
_symmetry_space_group_name_H-M "C 2/C"
_symmetry_group_IT_number 15
_symmetry_cell_setting 'monoclinic'
loop_
_space_group_symop_operation_xyz
x,y,z
-x,y,1/2-z
-x,-y,-z
x,-y,1/2+z
1/2+x,1/2+y,z
1/2-x,1/2+y,1/2-z
1/2-x,1/2-y,-z
1/2+x,1/2-y,1/2+z
loop_
_atom_site_type_symbol
_atom_site_label
_atom_site_fract_x
_atom_site_fract_y
_atom_site_fract_z
Si Si1 0.000000 0.595498 0.250000
Si Si2 0.240523 0.720461 0.155077
Si Si3 0.537871 0.920457 0.074608
Si Si4 0.016683 0.146087 0.393135
Si Si5 0.776725 0.862999 0.080716
O O1 0.116282 0.667774 0.215191
O O2 0.991543 0.563202 0.080339
O O3 0.346868 0.633540 0.135796
O O4 0.249202 0.823751 0.260020
O O5 0.250000 0.750000 0.000000
O O6 0.500000 0.948867 0.250000
O O7 0.503041 0.784573 0.092132
O O8 0.676374 0.940981 0.052060
O O9 0.909702 0.102037 0.516233
O O10 0.000000 0.103563 0.250000
O O11 0.750000 0.750000 0.000000
#
# Coordination Sequence:
#
# PCOD9276728 Si02
#       5
#     4   8   8   8   8
#     4  12  24  38  62 100 134 170 226 288 334 388
#     4  12  23  39  62  97 137 178 225 276 338 411
#     4  11  21  38  65  98 129 167 224 290 336 390
#     4  11  21  41  68  94 130 181 228 275 341 417
#     4  10  20  40  64  93 129 176 225 273 336 418
#
# _framework density 26.325144999999999
#
# number of rings (size 3 to 8) (size 9 to 14) (size 15 to 20)
#    0.000    0.889    5.556    5.333    0.000    0.000 
#    0.000    1.111    0.000    2.667    0.000    0.000 
#    0.000    0.000    0.000    0.000    0.000    0.000 
#
# Total GULP energy -100552.752960 kJ/mol
# GULP energy per Si atom -5586.264053 kJ/mol
# Density = 2.626523 g / cm^3
# Si number density = 26.325145 Si / 1000 Ang^3
#
#
#
# Elastic Constant Matrix: (Units=GPa)
#
#
# Indices 1 2 3 4 5 6 
#
# 1 284.6968 28.7255 78.4704 0.0000 -27.2116 0.0000
# 2 28.7255 41.5774 13.8604 0.0000 -8.0053 0.0000
# 3 78.4704 13.8604 190.6386 0.0000 5.2967 0.0000
# 4 0.0000 0.0000 0.0000 43.7263 0.0000 -6.2744
# 5 -27.2116 -8.0053 5.2967 0.0000 67.3362 0.0000
# 6 0.0000 0.0000 0.0000 -6.2744 0.0000 42.5899
#
#
#
# Elastic Compliance Matrix: (Units=1/GPa)
#
#
# Indices 1 2 3 4 5 6 
#
# 1 0.004347 -0.002128 -0.001680 0.000000 0.001636 0.000000
# 2 -0.002128 0.026344 -0.001105 0.000000 0.002359 0.000000
# 3 -0.001680 -0.001105 0.006053 0.000000 -0.001286 0.000000
# 4 0.000000 0.000000 0.000000 0.023363 0.000000 0.003442
# 5 0.001636 0.002359 -0.001286 0.000000 0.015893 0.000000
# 6 0.000000 0.000000 0.000000 0.003442 0.000000 0.023987
#
#
# Mechanical properties :
#
#
# Convention : Reuss Voigt Hill
#
# Bulk Modulus (GPa) = 37.14960 84.33616 60.74288
# Shear Modulus (GPa) = 42.09244 57.12091 49.60667
#
# Velocity S-wave (km/s) = 4.00302 4.66319 4.34566
# Velocity P-wave (km/s) = 5.95886 7.81663 6.95010
#
# Compressibility (1/GPa) = 0.02691819
#
# Stress axis : x y z
#
# Youngs Moduli (GPa) = 230.06569 37.95884 165.20563
#
# Poissons Ratio (x) = 0.08078 0.27752
# Poissons Ratio (y) = 0.48960 0.18254
# Poissons Ratio (z) = 0.38648 0.04194
#
# Static dielectric constant tensor:
#      x y z
#    x 1.957240 0.000000 -0.046030 
#    y 0.000000 1.864760 0.000000 
#    z -0.046030 0.000000 2.128960 
# 
# From -- ./inp_files/85036.got.cif
#   From: 2010.05.17/outbox.cif.g08.bks.cpg/sg15_43_cif.got.tgz:85036.got - 2010.06.03 18:47:42.
