data_PCOD9276127
_publ_section_title
;
Structure prediction by ZEFSAII (Michael W. Deem and Ramdas Pophale) SiO2 
 PCOD9276127
Probable space group: C 2/C
;
_chemical_formula_sum "Si O2"
_cell_formula_units_Z 44
_cell_length_a 10.792559
_cell_length_b 24.217985
_cell_length_c 7.239979
_cell_angle_alpha 90.000000
_cell_angle_beta 84.591871
_cell_angle_gamma 90.000000
_cell_volume 1883.918934
_symmetry_space_group_name_H-M "C 2/C"
_symmetry_group_IT_number 15
_symmetry_cell_setting 'monoclinic'
loop_
_space_group_symop_operation_xyz
x,y,z
-x,y,1/2-z
-x,-y,-z
x,-y,1/2+z
1/2+x,1/2+y,z
1/2-x,1/2+y,1/2-z
1/2-x,1/2-y,-z
1/2+x,1/2-y,1/2+z
loop_
_atom_site_type_symbol
_atom_site_label
_atom_site_fract_x
_atom_site_fract_y
_atom_site_fract_z
Si Si1 0.000000 0.453272 0.750000
Si Si2 0.640038 0.587681 0.702697
Si Si3 0.364108 0.285640 0.287705
Si Si4 0.644391 0.583846 0.266409
Si Si5 0.354652 0.709412 0.228444
Si Si6 0.171949 0.543874 0.530863
O O1 0.926059 0.424260 0.592485
O O2 0.096160 0.492660 0.625346
O O3 0.500000 0.563234 0.750000
O O4 0.626445 0.651096 0.775156
O O5 0.668596 0.581694 0.481320
O O6 0.758375 0.569002 0.804222
O O7 0.500000 0.258267 0.250000
O O8 0.343546 0.291626 0.508679
O O9 0.252201 0.253180 0.206850
O O10 0.500000 0.576546 0.250000
O O11 0.673129 0.647096 0.201385
O O12 0.715095 0.539529 0.131260
O O13 0.500000 0.722514 0.250000
#
# Coordination Sequence:
#
# PCOD9276127 Si02
#       6
#     4   8   8   8   8   8
#     4  10  28  50  64  88 134 166 200 268 334 388
#     4  10  20  39  68  97 129 167 214 268 317 372
#     4   9  19  36  55  89 132 169 212 257 306 364
#     4  10  20  39  68  97 129 167 214 268 317 372
#     4   9  19  36  55  89 132 169 212 257 306 364
#     4  11  24  48  68  92 128 166 206 262 330 398
#
# _framework density 23.355571000000001
#
# number of rings (size 3 to 8) (size 9 to 14) (size 15 to 20)
#    0.000    2.182    1.818    0.000    7.636    0.727 
#    3.273    2.727    0.000    0.000    0.000    0.000 
#    0.000    0.000    0.000    0.000    0.000    0.000 
#
# Total GULP energy -122646.082138 kJ/mol
# GULP energy per Si atom -5574.821915 kJ/mol
# Density = 2.330241 g / cm^3
# Si number density = 23.355571 Si / 1000 Ang^3
#
#
#
# Elastic Constant Matrix: (Units=GPa)
#
#
# Indices 1 2 3 4 5 6 
#
# 1 181.4012 65.7873 39.3368 0.0000 34.6551 0.0000
# 2 65.7873 71.8056 17.6532 0.0000 1.6646 0.0000
# 3 39.3368 17.6532 141.7055 0.0000 28.6821 0.0000
# 4 0.0000 0.0000 0.0000 3.6712 0.0000 -3.8518
# 5 34.6551 1.6646 28.6821 0.0000 64.4078 0.0000
# 6 0.0000 0.0000 0.0000 -3.8518 0.0000 37.3726
#
#
#
# Elastic Compliance Matrix: (Units=1/GPa)
#
#
# Indices 1 2 3 4 5 6 
#
# 1 0.009663 -0.008581 -0.000666 0.000000 -0.004681 0.000000
# 2 -0.008581 0.022000 -0.001295 0.000000 0.004625 0.000000
# 3 -0.000666 -0.001295 0.008049 0.000000 -0.003193 0.000000
# 4 0.000000 0.000000 0.000000 0.305417 0.000000 0.031477
# 5 -0.004681 0.004625 -0.003193 0.000000 0.019347 0.000000
# 6 0.000000 0.000000 0.000000 0.031477 0.000000 0.030002
#
#
# Mechanical properties :
#
#
# Convention : Reuss Voigt Hill
#
# Bulk Modulus (GPa) = 53.68149 71.16298 62.42223
# Shear Modulus (GPa) = 11.85475 39.23266 25.54371
#
# Velocity S-wave (km/s) = 2.25539 4.10298 3.31068
# Velocity P-wave (km/s) = 5.46047 7.27884 6.43421
#
# Compressibility (1/GPa) = 0.01862840
#
# Stress axis : x y z
#
# Youngs Moduli (GPa) = 103.48274 45.45541 124.23470
#
# Poissons Ratio (x) = 0.39006 0.08274
# Poissons Ratio (y) = 0.88801 0.16084
# Poissons Ratio (z) = 0.06892 0.05885
#
# Static dielectric constant tensor:
#      x y z
#    x 1.927590 0.000000 -0.015720 
#    y 0.000000 1.953580 0.000000 
#    z -0.015720 0.000000 1.915990 
# 
# From -- ./inp_files/25540.got.cif
#   From: 2010.05.17/outbox.cif.g08.bks.cpg/sg15_13_cif.got.tgz:25540.got - 2010.06.03 18:47:42.
