data_PCOD9276921
_publ_section_title
;
Structure prediction by ZEFSAII (Michael W. Deem and Ramdas Pophale) SiO2 
 PCOD9276921
Probable space group: C 2/C
;
_chemical_formula_sum "Si O2"
_cell_formula_units_Z 56
_cell_length_a 26.979972
_cell_length_b 8.783423
_cell_length_c 18.681085
_cell_angle_alpha 90.000000
_cell_angle_beta 32.052904
_cell_angle_gamma 90.000000
_cell_volume 2349.406584
_symmetry_space_group_name_H-M "C 2/C"
_symmetry_group_IT_number 15
_symmetry_cell_setting 'monoclinic'
loop_
_space_group_symop_operation_xyz
x,y,z
-x,y,1/2-z
-x,-y,-z
x,-y,1/2+z
1/2+x,1/2+y,z
1/2-x,1/2+y,1/2-z
1/2-x,1/2-y,-z
1/2+x,1/2-y,1/2+z
loop_
_atom_site_type_symbol
_atom_site_label
_atom_site_fract_x
_atom_site_fract_y
_atom_site_fract_z
Si Si1 0.840063 0.637836 0.182296
Si Si2 0.444803 0.090136 0.910954
Si Si3 0.752442 0.626525 0.060279
Si Si4 0.174929 0.713651 0.792575
Si Si5 0.883646 0.081422 0.839410
Si Si6 0.984495 0.857994 0.073306
Si Si7 0.500000 0.661487 0.250000
Si Si8 0.500000 0.168121 0.250000
O O1 0.813696 0.466533 0.238836
O O2 0.754172 0.727188 0.250732
O O3 0.893955 0.753136 0.167827
O O4 0.914492 0.604224 0.028348
O O5 0.506162 0.232006 0.811303
O O6 0.494409 0.937487 0.826272
O O7 0.353119 0.102792 0.972788
O O8 0.688950 0.689843 0.202918
O O9 0.712227 0.467734 0.079024
O O10 0.750000 0.750000 0.000000
O O11 0.076208 0.755364 0.949185
O O12 0.962553 0.082573 0.679899
O O13 0.906981 0.231903 0.854593
O O14 0.910398 0.944828 0.859952
O O15 0.000000 0.000000 0.000000
#
# Coordination Sequence:
#
# PCOD9276921 Si02
#       8
#     8   8   8   8   8   8   4   4
#     4  11  25  43  66  99 130 175 225 273 339 400
#     4  10  22  41  65  90 130 172 213 271 329 396
#     4  11  23  42  65  95 129 173 220 266 330 407
#     4  11  25  44  65  97 133 173 224 279 335 400
#     4  11  23  41  64  99 126 168 221 264 333 391
#     4  12  23  42  70  95 134 175 219 280 329 405
#     4  10  20  40  66  90 130 172 214 258 328 406
#     4  10  24  42  64  96 130 166 216 280 326 390
#
# _framework density 23.835806999999999
#
# number of rings (size 3 to 8) (size 9 to 14) (size 15 to 20)
#    0.000    1.143    2.857    3.000    2.000    2.857 
#    2.571    0.000    0.000    0.000    0.000    0.000 
#    0.000    0.000    0.000    0.000    0.000    0.000 
#
# Total GULP energy -156611.127171 kJ/mol
# GULP energy per Si atom -5593.254542 kJ/mol
# Density = 2.378156 g / cm^3
# Si number density = 23.835807 Si / 1000 Ang^3
#
#
#
# Elastic Constant Matrix: (Units=GPa)
#
#
# Indices 1 2 3 4 5 6 
#
# 1 61.9914 25.2236 5.0528 -0.0012 -4.2940 0.0004
# 2 25.2236 141.5540 0.3456 -0.0059 -20.5626 0.0025
# 3 5.0528 0.3456 39.4759 -0.0043 -6.3142 0.0013
# 4 -0.0012 -0.0059 -0.0043 21.4871 0.0029 -0.1799
# 5 -4.2940 -20.5626 -6.3142 0.0029 26.2652 -0.0010
# 6 0.0004 0.0025 0.0013 -0.1799 -0.0010 26.0537
#
#
#
# Elastic Compliance Matrix: (Units=1/GPa)
#
#
# Indices 1 2 3 4 5 6 
#
# 1 0.017586 -0.003147 -0.002244 0.000000 -0.000128 0.000000
# 2 -0.003147 0.008570 0.001371 0.000002 0.006524 -0.000001
# 3 -0.002244 0.001371 0.026749 0.000005 0.007137 -0.000001
# 4 0.000000 0.000002 0.000005 0.046542 -0.000003 0.000321
# 5 -0.000128 0.006524 0.007137 -0.000003 0.044876 0.000001
# 6 0.000000 -0.000001 -0.000001 0.000321 0.000001 0.038384
#
#
# Mechanical properties :
#
#
# Convention : Reuss Voigt Hill
#
# Bulk Modulus (GPa) = 22.28889 33.80726 28.04807
# Shear Modulus (GPa) = 24.30724 28.92115 26.61419
#
# Velocity S-wave (km/s) = 3.19686 3.48709 3.34513
# Velocity P-wave (km/s) = 4.79561 5.51609 5.16842
#
# Compressibility (1/GPa) = 0.04486541
#
# Stress axis : x y z
#
# Youngs Moduli (GPa) = 56.86451 116.69249 37.38497
#
# Poissons Ratio (x) = 0.36720 0.08389
# Poissons Ratio (y) = 0.17894 -0.05127
# Poissons Ratio (z) = 0.12760 -0.16002
#
# Static dielectric constant tensor:
#      x y z
#    x 1.892970 0.000000 -0.025890 
#    y 0.000000 1.945290 0.000000 
#    z -0.025890 0.000000 1.900760 
# 
# From -- ./inp_files/172515.got.cif
#   From: 2010.05.17/outbox.cif.g08.bks.cpg/sg15_87_cif.got.tgz:172515.got - 2010.06.03 18:47:42.
