data_PCOD9276291
_publ_section_title
;
Structure prediction by ZEFSAII (Michael W. Deem and Ramdas Pophale) SiO2 
 PCOD9276291
Probable space group: C 2/C
;
_chemical_formula_sum "Si O2"
_cell_formula_units_Z 56
_cell_length_a 12.597735
_cell_length_b 18.114153
_cell_length_c 13.975185
_cell_angle_alpha 90.000000
_cell_angle_beta 55.443008
_cell_angle_gamma 90.000000
_cell_volume 2626.422345
_symmetry_space_group_name_H-M "C 2/C"
_symmetry_group_IT_number 15
_symmetry_cell_setting 'monoclinic'
loop_
_space_group_symop_operation_xyz
x,y,z
-x,y,1/2-z
-x,-y,-z
x,-y,1/2+z
1/2+x,1/2+y,z
1/2-x,1/2+y,1/2-z
1/2-x,1/2-y,-z
1/2+x,1/2-y,1/2+z
loop_
_atom_site_type_symbol
_atom_site_label
_atom_site_fract_x
_atom_site_fract_y
_atom_site_fract_z
Si Si1 0.000000 0.631766 0.750000
Si Si2 0.289013 0.432974 0.296475
Si Si3 0.500000 0.685135 0.750000
Si Si4 0.091904 0.928600 0.466507
Si Si5 0.483069 0.269142 0.052602
Si Si6 0.492128 0.111660 0.545076
Si Si7 0.791557 0.916289 0.881992
Si Si8 0.792709 0.243980 0.366528
O O1 0.994706 0.589655 0.850690
O O2 0.116954 0.688252 0.696786
O O3 0.379838 0.368387 0.289402
O O4 0.306313 0.429939 0.173245
O O5 0.144263 0.424326 0.412330
O O6 0.340191 0.512621 0.302077
O O7 0.468318 0.729616 0.863244
O O8 0.010676 0.851627 0.495618
O O9 0.168825 0.927058 0.527190
O O10 0.000000 0.000000 0.500000
O O11 0.330628 0.254189 0.135967
O O12 0.528334 0.199713 0.965210
O O13 0.637263 0.092490 0.437092
O O14 0.848234 0.837162 0.823212
O O15 0.750000 0.250000 0.500000
#
# Coordination Sequence:
#
# PCOD9276291 Si02
#       8
#     4   8   4   8   8   8   8   8
#     4  12  18  33  64  89 112 154 190 254 312 341
#     4  11  24  39  58  88 116 164 200 238 308 361
#     4  10  22  41  60  81 126 164 200 244 298 373
#     4  11  22  39  63  86 121 157 199 248 307 366
#     4  10  20  40  59  87 118 155 202 250 297 361
#     4  11  22  37  63  87 118 157 203 248 299 363
#     4  11  21  40  59  87 126 151 198 257 296 357
#     4  11  20  37  60  93 118 149 201 256 300 357
#
# _framework density 21.321781000000001
#
# number of rings (size 3 to 8) (size 9 to 14) (size 15 to 20)
#    0.000    1.143    4.286    4.714    0.000    3.429 
#    0.000    2.857    0.000    0.857    0.000    0.000 
#    0.000    0.000    0.000    0.000    0.000    0.000 
#
# Total GULP energy -156159.230363 kJ/mol
# GULP energy per Si atom -5577.115370 kJ/mol
# Density = 2.127325 g / cm^3
# Si number density = 21.321781 Si / 1000 Ang^3
#
#
#
# Elastic Constant Matrix: (Units=GPa)
#
#
# Indices 1 2 3 4 5 6 
#
# 1 84.7749 21.1851 9.6857 0.0000 2.0909 0.0000
# 2 21.1851 108.6728 3.3141 0.0000 11.4570 0.0000
# 3 9.6857 3.3141 31.5571 0.0000 7.5993 0.0000
# 4 0.0000 0.0000 0.0000 18.3038 0.0000 5.4911
# 5 2.0909 11.4570 7.5993 0.0000 41.8835 0.0000
# 6 0.0000 0.0000 0.0000 5.4911 0.0000 24.2123
#
#
#
# Elastic Compliance Matrix: (Units=1/GPa)
#
#
# Indices 1 2 3 4 5 6 
#
# 1 0.012834 -0.002461 -0.003857 0.000000 0.000732 0.000000
# 2 -0.002461 0.009952 0.000352 0.000000 -0.002663 0.000000
# 3 -0.003857 0.000352 0.034311 0.000000 -0.006129 0.000000
# 4 0.000000 0.000000 0.000000 0.058622 0.000000 -0.013295
# 5 0.000732 -0.002663 -0.006129 0.000000 0.025680 0.000000
# 6 0.000000 0.000000 0.000000 -0.013295 0.000000 0.044316
#
#
# Mechanical properties :
#
#
# Convention : Reuss Voigt Hill
#
# Bulk Modulus (GPa) = 22.14173 32.59717 27.36945
# Shear Modulus (GPa) = 23.50700 29.60125 26.55412
#
# Velocity S-wave (km/s) = 3.32398 3.73005 3.53285
# Velocity P-wave (km/s) = 5.01387 5.82000 5.43191
#
# Compressibility (1/GPa) = 0.04516358
#
# Stress axis : x y z
#
# Youngs Moduli (GPa) = 77.92021 100.48417 29.14487
#
# Poissons Ratio (x) = 0.24734 0.11241
# Poissons Ratio (y) = 0.19180 -0.01025
# Poissons Ratio (z) = 0.30053 -0.03534
#
# Static dielectric constant tensor:
#      x y z
#    x 1.823730 0.000000 -0.028740 
#    y 0.000000 1.788560 0.000000 
#    z -0.028740 0.000000 1.896530 
# 
# From -- ./inp_files/145768.got.cif
#   From: 2010.05.17/outbox.cif.g08.bks.cpg/sg15_73_cif.got.tgz:145768.got - 2010.06.03 18:47:42.
