data_PCOD9276945
_publ_section_title
;
Structure prediction by ZEFSAII (Michael W. Deem and Ramdas Pophale) SiO2 
 PCOD9276945
Probable space group: C 2/C
;
_chemical_formula_sum "Si O2"
_cell_formula_units_Z 56
_cell_length_a 14.671605
_cell_length_b 16.309648
_cell_length_c 18.960899
_cell_angle_alpha 90.000000
_cell_angle_beta 146.913195
_cell_angle_gamma 90.000000
_cell_volume 2476.859727
_symmetry_space_group_name_H-M "C 2/C"
_symmetry_group_IT_number 15
_symmetry_cell_setting 'monoclinic'
loop_
_space_group_symop_operation_xyz
x,y,z
-x,y,1/2-z
-x,-y,-z
x,-y,1/2+z
1/2+x,1/2+y,z
1/2-x,1/2+y,1/2-z
1/2-x,1/2-y,-z
1/2+x,1/2-y,1/2+z
loop_
_atom_site_type_symbol
_atom_site_label
_atom_site_fract_x
_atom_site_fract_y
_atom_site_fract_z
Si Si1 0.389496 0.565875 0.011380
Si Si2 0.858232 0.004329 0.719360
Si Si3 0.115618 0.520380 0.255224
Si Si4 0.366875 0.096945 0.525888
Si Si5 0.781759 0.191321 0.661404
Si Si6 0.949846 0.246430 0.000217
Si Si7 0.015681 0.307419 0.627670
O O1 0.299798 0.499935 0.902824
O O2 0.259171 0.583033 0.990979
O O3 0.556884 0.534455 0.157158
O O4 0.412907 0.652302 0.988663
O O5 0.807832 0.097635 0.698987
O O6 0.000000 0.005689 0.750000
O O7 0.706829 0.952288 0.588844
O O8 0.084930 0.604106 0.193820
O O9 0.000000 0.527895 0.250000
O O10 0.040411 0.444542 0.161918
O O11 0.378540 0.191685 0.512214
O O12 0.646594 0.236434 0.623148
O O13 0.945782 0.242955 0.785765
O O14 0.680886 0.188716 0.521689
O O15 0.899165 0.276752 0.889624
#
# Coordination Sequence:
#
# PCOD9276945 Si02
#       7
#     8   8   8   8   8   8   8
#     4  10  23  37  67  97 127 164 212 267 309 374
#     4  10  22  42  64  94 124 166 217 260 315 375
#     4  10  22  42  64  94 124 166 217 260 315 375
#     4  10  20  40  66  93 126 170 209 257 320 377
#     4  10  24  42  61  92 127 168 212 257 321 373
#     4  10  24  41  63  93 137 162 214 252 325 386
#     4  10  24  42  61  92 127 168 212 257 321 373
#
# _framework density 22.609275
#
# number of rings (size 3 to 8) (size 9 to 14) (size 15 to 20)
#    0.857    1.143    1.429    0.429    6.000    2.857 
#    0.000    7.143    0.000    0.000    0.000    0.000 
#    0.000    0.000    0.000    0.000    0.000    0.000 
#
# Total GULP energy -156427.435245 kJ/mol
# GULP energy per Si atom -5586.694116 kJ/mol
# Density = 2.255782 g / cm^3
# Si number density = 22.609275 Si / 1000 Ang^3
#
#
#
# Elastic Constant Matrix: (Units=GPa)
#
#
# Indices 1 2 3 4 5 6 
#
# 1 54.2189 22.8594 32.6390 -0.0055 -25.2251 0.0034
# 2 22.8594 144.2433 65.4935 -0.0145 -24.8243 0.0074
# 3 32.6390 65.4935 156.6991 -0.0203 -23.8676 0.0099
# 4 -0.0055 -0.0145 -0.0203 118.7587 -0.0113 -54.1976
# 5 -25.2251 -24.8243 -23.8676 -0.0113 22.4068 0.0069
# 6 0.0034 0.0074 0.0099 -54.1976 0.0069 59.7667
#
#
#
# Elastic Compliance Matrix: (Units=1/GPa)
#
#
# Indices 1 2 3 4 5 6 
#
# 1 0.039798 0.002576 -0.002515 0.000005 0.044978 -0.000003
# 2 0.002576 0.009679 -0.002992 0.000001 0.010436 -0.000001
# 3 -0.002515 -0.002992 0.008618 0.000001 0.003033 0.000000
# 4 0.000005 0.000001 0.000001 0.014365 0.000011 0.013027
# 5 0.044978 0.010436 0.003033 0.000011 0.110057 -0.000007
# 6 -0.000003 -0.000001 0.000000 0.013027 -0.000007 0.028545
#
#
# Mechanical properties :
#
#
# Convention : Reuss Voigt Hill
#
# Bulk Modulus (GPa) = 19.14560 66.34943 42.74752
# Shear Modulus (GPa) = 21.33675 55.79772 38.56724
#
# Velocity S-wave (km/s) = 3.07533 4.97320 4.13463
# Velocity P-wave (km/s) = 4.59311 7.89853 6.46078
#
# Compressibility (1/GPa) = 0.05223131
#
# Stress axis : x y z
#
# Youngs Moduli (GPa) = 25.12703 103.31364 116.03221
#
# Poissons Ratio (x) = -0.26610 0.29185
# Poissons Ratio (y) = -0.06472 0.34723
# Poissons Ratio (z) = 0.06320 0.30917
#
# Static dielectric constant tensor:
#      x y z
#    x 1.882400 0.000000 0.016280 
#    y 0.000000 1.758140 0.000000 
#    z 0.016280 0.000000 1.854420 
# 
# From -- ./inp_files/249272.got.cif
#   From: 2010.05.17/outbox.cif.g08.bks.cpg/sg15_125_cif.got.tgz:249272.got - 2010.06.03 18:47:42.
