data_PCOD9276651
_publ_section_title
;
Structure prediction by ZEFSAII (Michael W. Deem and Ramdas Pophale) SiO2 
 PCOD9276651
Probable space group: C 2/C
;
_chemical_formula_sum "Si O2"
_cell_formula_units_Z 48
_cell_length_a 7.192553
_cell_length_b 16.636926
_cell_length_c 16.682156
_cell_angle_alpha 90.000000
_cell_angle_beta 92.932217
_cell_angle_gamma 90.000000
_cell_volume 1993.606136
_symmetry_space_group_name_H-M "C 2/C"
_symmetry_group_IT_number 15
_symmetry_cell_setting 'monoclinic'
loop_
_space_group_symop_operation_xyz
x,y,z
-x,y,1/2-z
-x,-y,-z
x,-y,1/2+z
1/2+x,1/2+y,z
1/2-x,1/2+y,1/2-z
1/2-x,1/2-y,-z
1/2+x,1/2-y,1/2+z
loop_
_atom_site_type_symbol
_atom_site_label
_atom_site_fract_x
_atom_site_fract_y
_atom_site_fract_z
Si Si1 0.915317 0.122251 0.568138
Si Si2 0.834260 0.355594 0.130538
Si Si3 0.966771 0.201742 0.409470
Si Si4 0.086180 0.958618 0.869166
Si Si5 0.801848 0.769456 0.214293
Si Si6 0.812779 0.519389 0.212349
O O1 0.867878 0.170671 0.487469
O O2 0.866204 0.028245 0.566331
O O3 0.837387 0.163401 0.646812
O O4 0.137950 0.130773 0.583113
O O5 0.797254 0.306948 0.211665
O O6 0.897527 0.441726 0.166357
O O7 0.954739 0.292544 0.081947
O O8 0.826139 0.205298 0.331598
O O9 0.122430 0.133833 0.393229
O O10 0.192345 0.986576 0.791729
O O11 0.861846 0.959326 0.849851
O O12 0.000000 0.741119 0.250000
O O13 0.000000 0.562320 0.250000
#
# Coordination Sequence:
#
# PCOD9276651 Si02
#       6
#     8   8   8   8   8   8
#     4  10  21  43  62  88 130 171 200 253 328 385
#     4  10  21  38  65  90 116 166 217 255 301 379
#     4  12  23  37  64  97 126 156 212 270 315 362
#     4  10  23  39  63  93 129 168 209 260 322 378
#     4  10  21  38  61  91 123 164 212 253 306 377
#     4  10  20  40  64  87 123 172 216 253 312 384
#
# _framework density 24.076974
#
# number of rings (size 3 to 8) (size 9 to 14) (size 15 to 20)
#    0.000    1.667    1.667    3.000    4.667    0.667 
#    3.000    0.000    0.000    3.000    0.000    0.000 
#    0.000    0.000    0.000    0.000    0.000    0.000 
#
# Total GULP energy -133835.783337 kJ/mol
# GULP energy per Si atom -5576.490972 kJ/mol
# Density = 2.402217 g / cm^3
# Si number density = 24.076974 Si / 1000 Ang^3
#
#
#
# Elastic Constant Matrix: (Units=GPa)
#
#
# Indices 1 2 3 4 5 6 
#
# 1 62.7431 5.7129 -13.2362 0.0000 3.9274 0.0000
# 2 5.7129 110.4843 -3.1955 0.0000 -6.0460 0.0000
# 3 -13.2362 -3.1955 78.8130 0.0000 -7.2102 0.0000
# 4 0.0000 0.0000 0.0000 148.9606 0.0000 -217.2268
# 5 3.9274 -6.0460 -7.2102 0.0000 15.9899 0.0000
# 6 0.0000 0.0000 0.0000 -217.2268 0.0000 434.9068
#
#
#
# Elastic Compliance Matrix: (Units=1/GPa)
#
#
# Indices 1 2 3 4 5 6 
#
# 1 0.016759 -0.000980 0.002466 0.000000 -0.003375 0.000000
# 2 -0.000980 0.009339 0.000583 0.000000 0.004035 0.000000
# 3 0.002466 0.000583 0.013654 0.000000 0.005772 0.000000
# 4 0.000000 0.000000 0.000000 0.024715 0.000000 0.012345
# 5 -0.003375 0.004035 0.005772 0.000000 0.067497 0.000000
# 6 0.000000 0.000000 0.000000 0.012345 0.000000 0.008465
#
#
# Mechanical properties :
#
#
# Convention : Reuss Voigt Hill
#
# Bulk Modulus (GPa) = 22.78369 25.62251 24.20310
# Shear Modulus (GPa) = 33.12985 137.48875 85.30930
#
# Velocity S-wave (km/s) = 3.71347 7.56491 5.95893
# Velocity P-wave (km/s) = 5.27919 9.32570 7.57755
#
# Compressibility (1/GPa) = 0.04389105
#
# Stress axis : x y z
#
# Youngs Moduli (GPa) = 59.67043 107.07315 73.23807
#
# Poissons Ratio (x) = 0.10492 -0.18061
# Poissons Ratio (y) = 0.05847 -0.04272
# Poissons Ratio (z) = -0.14715 -0.06245
#
# Static dielectric constant tensor:
#      x y z
#    x 1.942130 0.000000 0.028330 
#    y 0.000000 2.003580 0.000000 
#    z 0.028330 0.000000 1.973280 
# 
# From -- ./inp_files/189947.got.cif
#   From: 2010.05.17/outbox.cif.g08.bks.cpg/sg15_95_cif.got.tgz:189947.got - 2010.06.03 18:47:42.
