data_PCOD9276104
_publ_section_title
;
Structure prediction by ZEFSAII (Michael W. Deem and Ramdas Pophale) SiO2 
 PCOD9276104
Probable space group: C 2/C
;
_chemical_formula_sum "Si O2"
_cell_formula_units_Z 48
_cell_length_a 15.693354
_cell_length_b 26.670975
_cell_length_c 9.522537
_cell_angle_alpha 90.000000
_cell_angle_beta 40.472275
_cell_angle_gamma 90.000000
_cell_volume 2587.054463
_symmetry_space_group_name_H-M "C 2/C"
_symmetry_group_IT_number 15
_symmetry_cell_setting 'monoclinic'
loop_
_space_group_symop_operation_xyz
x,y,z
-x,y,1/2-z
-x,-y,-z
x,-y,1/2+z
1/2+x,1/2+y,z
1/2-x,1/2+y,1/2-z
1/2-x,1/2-y,-z
1/2+x,1/2-y,1/2+z
loop_
_atom_site_type_symbol
_atom_site_label
_atom_site_fract_x
_atom_site_fract_y
_atom_site_fract_z
Si Si1 0.500000 0.814254 0.750000
Si Si2 0.781255 0.146035 0.946174
Si Si3 0.344997 0.782342 0.481247
Si Si4 0.500000 0.504767 0.250000
Si Si5 0.946653 0.229631 0.616319
Si Si6 0.150980 0.141153 0.319627
Si Si7 0.928732 0.066335 0.580190
O O1 0.628166 0.846064 0.619269
O O2 0.517922 0.776651 0.596911
O O3 0.855816 0.199144 0.837857
O O4 0.835563 0.110106 0.755667
O O5 0.818084 0.129165 0.056340
O O6 0.500000 0.785298 0.250000
O O7 0.250000 0.750000 0.500000
O O8 0.351435 0.751889 0.618577
O O9 0.280352 0.837127 0.583446
O O10 0.399978 0.537936 0.470626
O O11 0.560758 0.470665 0.298374
O O12 0.051269 0.188632 0.433748
O O13 0.069017 0.093258 0.372466
#
# Coordination Sequence:
#
# PCOD9276104 Si02
#       7
#     4   8   8   4   8   8   8
#     4  12  20  31  56  84 110 162 202 237 276 336
#     4  11  21  34  57  85 118 148 201 248 287 339
#     4  12  25  37  51  79 124 176 206 236 281 337
#     4  10  20  39  68  92 106 136 188 243 322 376
#     4  11  20  34  55  79 112 159 208 237 275 327
#     4  11  20  37  56  82 120 150 200 247 287 338
#     4  10  21  39  63  93 111 142 184 253 306 358
#
# _framework density 18.553917999999999
#
# number of rings (size 3 to 8) (size 9 to 14) (size 15 to 20)
#    0.000    1.000    6.667    2.500    0.000    2.667 
#    0.000    0.000    0.000    1.000    8.667    0.000 
#    0.000    0.000    0.000    0.000    0.000    0.000 
#
# Total GULP energy -133782.329988 kJ/mol
# GULP energy per Si atom -5574.263749 kJ/mol
# Density = 1.851169 g / cm^3
# Si number density = 18.553918 Si / 1000 Ang^3
#
#
#
# Elastic Constant Matrix: (Units=GPa)
#
#
# Indices 1 2 3 4 5 6 
#
# 1 69.4036 19.5115 10.1105 0.0000 1.6147 0.0000
# 2 19.5115 65.4290 29.3587 0.0000 2.6258 0.0000
# 3 10.1105 29.3587 74.3527 0.0000 -8.8316 0.0000
# 4 0.0000 0.0000 0.0000 23.7360 0.0000 12.2327
# 5 1.6147 2.6258 -8.8316 0.0000 35.2996 0.0000
# 6 0.0000 0.0000 0.0000 12.2327 0.0000 13.4937
#
#
#
# Elastic Compliance Matrix: (Units=1/GPa)
#
#
# Indices 1 2 3 4 5 6 
#
# 1 0.015743 -0.004482 -0.000430 0.000000 -0.000494 0.000000
# 2 -0.004482 0.020235 -0.007766 0.000000 -0.003243 0.000000
# 3 -0.000430 -0.007766 0.017155 0.000000 0.004889 0.000000
# 4 0.000000 0.000000 0.000000 0.079074 0.000000 -0.071685
# 5 -0.000494 -0.003243 0.004889 0.000000 0.029816 0.000000
# 6 0.000000 0.000000 0.000000 -0.071685 0.000000 0.139095
#
#
# Mechanical properties :
#
#
# Convention : Reuss Voigt Hill
#
# Bulk Modulus (GPa) = 35.99983 36.34964 36.17473
# Shear Modulus (GPa) = 14.89285 24.51948 19.70617
#
# Velocity S-wave (km/s) = 2.83623 3.63922 3.26253
# Velocity P-wave (km/s) = 5.49277 6.10676 5.80788
#
# Compressibility (1/GPa) = 0.02777791
#
# Stress axis : x y z
#
# Youngs Moduli (GPa) = 63.52195 49.41927 58.29225
#
# Poissons Ratio (x) = 0.22150 0.02504
# Poissons Ratio (y) = 0.28470 0.45268
# Poissons Ratio (z) = 0.02729 0.38378
#
# Static dielectric constant tensor:
#      x y z
#    x 1.666030 0.000000 0.029840 
#    y 0.000000 1.669080 0.000000 
#    z 0.029840 0.000000 1.708100 
# 
# From -- ./inp_files/44453.got.cif
#   From: 2010.05.17/outbox.cif.g08.bks.cpg/sg15_23_cif.got.tgz:44453.got - 2010.06.03 18:47:42.
