data_PCOD9276683
_publ_section_title
;
Structure prediction by ZEFSAII (Michael W. Deem and Ramdas Pophale) SiO2 
 PCOD9276683
Probable space group: C 2/C
;
_chemical_formula_sum "Si O2"
_cell_formula_units_Z 52
_cell_length_a 8.869409
_cell_length_b 28.469387
_cell_length_c 11.808988
_cell_angle_alpha 90.000000
_cell_angle_beta 119.910829
_cell_angle_gamma 90.000000
_cell_volume 2584.673226
_symmetry_space_group_name_H-M "C 2/C"
_symmetry_group_IT_number 15
_symmetry_cell_setting 'monoclinic'
loop_
_space_group_symop_operation_xyz
x,y,z
-x,y,1/2-z
-x,-y,-z
x,-y,1/2+z
1/2+x,1/2+y,z
1/2-x,1/2+y,1/2-z
1/2-x,1/2-y,-z
1/2+x,1/2-y,1/2+z
loop_
_atom_site_type_symbol
_atom_site_label
_atom_site_fract_x
_atom_site_fract_y
_atom_site_fract_z
Si Si1 0.957346 0.745636 0.601932
Si Si2 0.000000 0.382209 0.750000
Si Si3 0.988771 0.160212 0.500072
Si Si4 0.144770 0.064108 0.122881
Si Si5 0.686551 0.884108 0.263381
Si Si6 0.070135 0.966917 0.161935
Si Si7 0.141546 0.664876 0.519232
O O1 0.750000 0.750000 0.500000
O O2 0.000000 0.736105 0.750000
O O3 0.022371 0.796872 0.589492
O O4 0.056061 0.708276 0.556585
O O5 0.835826 0.415881 0.696056
O O6 0.980416 0.350454 0.630789
O O7 0.966434 0.111935 0.420622
O O8 0.832393 0.168603 0.531929
O O9 0.170841 0.152830 0.634355
O O10 0.118872 0.021125 0.197946
O O11 0.087317 0.039160 0.984643
O O12 0.500000 0.878374 0.250000
O O13 0.767773 0.935476 0.316243
O O14 0.661176 0.875245 0.121019
O O15 0.000000 0.944669 0.250000
#
# Coordination Sequence:
#
# PCOD9276683 Si02
#       7
#     8   4   8   8   8   8   8
#     4  12  27  43  67 100 138 172 222 278 335 395
#     4  10  22  40  64  92 132 160 220 268 320 384
#     4  10  22  44  68  90 130 176 217 269 324 396
#     4   9  21  39  61  91 124 161 214 264 314 386
#     4  11  22  41  67  97 129 170 217 273 326 384
#     4  10  20  40  64  90 125 170 217 258 322 388
#     4  11  23  43  66  95 127 174 221 264 322 398
#
# _framework density 20.118596
#
# number of rings (size 3 to 8) (size 9 to 14) (size 15 to 20)
#    0.000    1.538    0.000    6.000    5.385    0.615 
#   11.077    1.538    0.000    0.000    0.000    0.000 
#    0.000    0.000    0.000    0.000    0.000    0.000 
#
# Total GULP energy -144955.785088 kJ/mol
# GULP energy per Si atom -5575.222503 kJ/mol
# Density = 2.007281 g / cm^3
# Si number density = 20.118596 Si / 1000 Ang^3
#
#
#
# Elastic Constant Matrix: (Units=GPa)
#
#
# Indices 1 2 3 4 5 6 
#
# 1 123.6529 54.1442 47.4839 0.0000 9.8772 0.0000
# 2 54.1442 131.0442 49.0074 0.0000 -6.0781 0.0000
# 3 47.4839 49.0074 116.1899 0.0000 10.6182 0.0000
# 4 0.0000 0.0000 0.0000 21.7067 0.0000 -6.9702
# 5 9.8772 -6.0781 10.6182 0.0000 26.1725 0.0000
# 6 0.0000 0.0000 0.0000 -6.9702 0.0000 15.5883
#
#
#
# Elastic Compliance Matrix: (Units=1/GPa)
#
#
# Indices 1 2 3 4 5 6 
#
# 1 0.011050 -0.003800 -0.002546 0.000000 -0.004020 0.000000
# 2 -0.003800 0.010745 -0.003467 0.000000 0.005336 0.000000
# 3 -0.002546 -0.003467 0.011522 0.000000 -0.004519 0.000000
# 4 0.000000 0.000000 0.000000 0.053792 0.000000 0.024053
# 5 -0.004020 0.005336 -0.004519 0.000000 0.042798 0.000000
# 6 0.000000 0.000000 0.000000 0.024053 0.000000 0.074906
#
#
# Mechanical properties :
#
#
# Convention : Reuss Voigt Hill
#
# Bulk Modulus (GPa) = 73.03439 74.68424 73.85931
# Shear Modulus (GPa) = 21.83395 27.37693 24.60544
#
# Velocity S-wave (km/s) = 3.29791 3.69287 3.50096
# Velocity P-wave (km/s) = 7.13318 7.44215 7.28931
#
# Compressibility (1/GPa) = 0.01369218
#
# Stress axis : x y z
#
# Youngs Moduli (GPa) = 90.50061 93.06632 86.78917
#
# Poissons Ratio (x) = 0.35364 0.22093
# Poissons Ratio (y) = 0.34389 0.30088
# Poissons Ratio (z) = 0.23038 0.32264
#
# Static dielectric constant tensor:
#      x y z
#    x 1.716620 0.000000 0.005550 
#    y 0.000000 1.764960 0.000000 
#    z 0.005550 0.000000 1.732870 
# 
# From -- ./inp_files/82321.got.cif
#   From: 2010.05.17/outbox.cif.g08.bks.cpg/sg15_42_cif.got.tgz:82321.got - 2010.06.03 18:47:42.
