data_PCOD9276357
_publ_section_title
;
Structure prediction by ZEFSAII (Michael W. Deem and Ramdas Pophale) SiO2 
 PCOD9276357
Probable space group: C 2/C
;
_chemical_formula_sum "Si O2"
_cell_formula_units_Z 60
_cell_length_a 15.412095
_cell_length_b 15.010184
_cell_length_c 13.299057
_cell_angle_alpha 90.000000
_cell_angle_beta 71.388666
_cell_angle_gamma 90.000000
_cell_volume 2915.693365
_symmetry_space_group_name_H-M "C 2/C"
_symmetry_group_IT_number 15
_symmetry_cell_setting 'monoclinic'
loop_
_space_group_symop_operation_xyz
x,y,z
-x,y,1/2-z
-x,-y,-z
x,-y,1/2+z
1/2+x,1/2+y,z
1/2-x,1/2+y,1/2-z
1/2-x,1/2-y,-z
1/2+x,1/2-y,1/2+z
loop_
_atom_site_type_symbol
_atom_site_label
_atom_site_fract_x
_atom_site_fract_y
_atom_site_fract_z
Si Si1 0.640760 0.730686 0.038321
Si Si2 0.000000 0.052880 0.250000
Si Si3 0.667874 0.882781 0.895513
Si Si4 0.862022 0.193362 0.244576
Si Si5 0.591762 0.523513 0.026417
Si Si6 0.719257 0.952687 0.506796
Si Si7 0.753892 0.716610 0.614600
Si Si8 0.605100 0.148050 0.215689
O O1 0.608235 0.746469 0.165117
O O2 0.616565 0.629328 0.016915
O O3 0.750000 0.750000 0.000000
O O4 0.611086 0.801411 0.965874
O O5 0.937437 0.117113 0.203970
O O6 0.933949 0.001124 0.348366
O O7 0.768797 0.853459 0.818951
O O8 0.619353 0.909821 0.810929
O O9 0.682330 0.956100 0.974717
O O10 0.836534 0.246944 0.153904
O O11 0.685437 0.470885 0.968877
O O12 0.500000 0.500000 0.000000
O O13 0.739866 0.888212 0.404470
O O14 0.646583 0.906335 0.606933
O O15 0.750000 0.750000 0.500000
O O16 0.664926 0.760995 0.698168
O O17 0.500000 0.170732 0.250000
#
# Coordination Sequence:
#
# PCOD9276357 Si02
#       8
#     8   4   8   8   8   8   8   8
#     4   9  17  39  62  88 124 176 215 256 337 396
#     4  10  20  40  60  94 142 160 210 270 338 382
#     4  10  20  40  66  87 125 170 220 268 328 405
#     4   9  18  37  60  90 123 169 213 256 319 402
#     4  11  24  37  65 105 136 168 216 285 337 404
#     4  11  22  42  65  94 133 168 220 275 342 394
#     4   9  21  39  63  88 125 173 209 260 345 388
#     4  10  24  44  63  88 129 171 221 277 329 397
#
# _framework density 20.578295000000001
#
# number of rings (size 3 to 8) (size 9 to 14) (size 15 to 20)
#    0.000    2.133    4.000    0.000    5.600    2.667 
#   18.000    0.000    7.333    0.000    0.000    0.000 
#    0.000    0.000    0.000    0.000    0.000    0.000 
#
# Total GULP energy -167081.659316 kJ/mol
# GULP energy per Si atom -5569.388644 kJ/mol
# Density = 2.053146 g / cm^3
# Si number density = 20.578295 Si / 1000 Ang^3
#
#
#
# Elastic Constant Matrix: (Units=GPa)
#
#
# Indices 1 2 3 4 5 6 
#
# 1 84.6229 14.7281 22.7481 0.0000 6.1139 0.0000
# 2 14.7281 59.5026 19.3312 0.0000 6.4906 0.0000
# 3 22.7481 19.3312 73.4403 0.0000 3.2627 0.0000
# 4 0.0000 0.0000 0.0000 30.0007 0.0000 2.7333
# 5 6.1139 6.4906 3.2627 0.0000 32.4669 0.0000
# 6 0.0000 0.0000 0.0000 2.7333 0.0000 25.3990
#
#
#
# Elastic Compliance Matrix: (Units=1/GPa)
#
#
# Indices 1 2 3 4 5 6 
#
# 1 0.013224 -0.001943 -0.003507 0.000000 -0.001749 0.000000
# 2 -0.001943 0.019001 -0.004266 0.000000 -0.003004 0.000000
# 3 -0.003507 -0.004266 0.015829 0.000000 -0.000077 0.000000
# 4 0.000000 0.000000 0.000000 0.033663 0.000000 -0.003623
# 5 -0.001749 -0.003004 -0.000077 0.000000 0.031738 0.000000
# 6 0.000000 0.000000 0.000000 -0.003623 0.000000 0.039761
#
#
# Mechanical properties :
#
#
# Convention : Reuss Voigt Hill
#
# Bulk Modulus (GPa) = 34.93853 36.79786 35.86819
# Shear Modulus (GPa) = 27.44391 28.29054 27.86722
#
# Velocity S-wave (km/s) = 3.65586 3.71182 3.68394
# Velocity P-wave (km/s) = 5.90217 6.02419 5.96349
#
# Compressibility (1/GPa) = 0.02862170
#
# Stress axis : x y z
#
# Youngs Moduli (GPa) = 75.61735 52.62998 63.17442
#
# Poissons Ratio (x) = 0.10227 0.22156
# Poissons Ratio (y) = 0.14693 0.26951
# Poissons Ratio (z) = 0.26520 0.22452
#
# Static dielectric constant tensor:
#      x y z
#    x 1.837850 0.000000 0.048820 
#    y 0.000000 1.776980 0.000000 
#    z 0.048820 0.000000 1.780940 
# 
# From -- ./inp_files/153929.got.cif
#   From: 2010.05.17/outbox.cif.g08.bks.cpg/sg15_77_cif.got.tgz:153929.got - 2010.06.03 18:47:42.
