data_PCOD9276625
_publ_section_title
;
Structure prediction by ZEFSAII (Michael W. Deem and Ramdas Pophale) SiO2 
 PCOD9276625
Probable space group: C 2/C
;
_chemical_formula_sum "Si O2"
_cell_formula_units_Z 40
_cell_length_a 9.758425
_cell_length_b 23.879139
_cell_length_c 12.288919
_cell_angle_alpha 90.000000
_cell_angle_beta 38.445685
_cell_angle_gamma 90.000000
_cell_volume 1780.506479
_symmetry_space_group_name_H-M "C 2/C"
_symmetry_group_IT_number 15
_symmetry_cell_setting 'monoclinic'
loop_
_space_group_symop_operation_xyz
x,y,z
-x,y,1/2-z
-x,-y,-z
x,-y,1/2+z
1/2+x,1/2+y,z
1/2-x,1/2+y,1/2-z
1/2-x,1/2-y,-z
1/2+x,1/2-y,1/2+z
loop_
_atom_site_type_symbol
_atom_site_label
_atom_site_fract_x
_atom_site_fract_y
_atom_site_fract_z
Si Si1 0.752032 0.824446 0.610874
Si Si2 0.139312 0.551291 0.266650
Si Si3 0.301187 0.057040 0.675303
Si Si4 0.500000 0.117371 0.750000
Si Si5 0.398143 0.695669 0.430236
Si Si6 0.000000 0.144350 0.750000
O O1 0.500000 0.806392 0.750000
O O2 0.737659 0.888670 0.669852
O O3 0.907005 0.793963 0.602977
O O4 0.850616 0.822338 0.427748
O O5 0.291137 0.502363 0.223415
O O6 0.000000 0.531519 0.250000
O O7 0.953148 0.555337 0.474741
O O8 0.454926 0.080780 0.673203
O O9 0.123390 0.102794 0.755533
O O10 0.721449 0.152701 0.590007
O O11 0.500000 0.677679 0.250000
O O12 0.250000 0.750000 0.500000
#
# Coordination Sequence:
#
# PCOD9276625 Si02
#       6
#     8   8   8   4   8   4
#     4  11  24  46  72 103 142 184 234 291 358 427
#     4  10  20  40  64 100 149 190 238 281 339 427
#     4  11  22  39  67 100 145 194 236 285 345 420
#     4  12  24  46  74 103 144 189 244 296 358 418
#     4  12  27  49  77 102 137 181 240 309 366 426
#     4  12  22  40  68  97 142 189 230 286 348 416
#
# _framework density 22.465517999999999
#
# number of rings (size 3 to 8) (size 9 to 14) (size 15 to 20)
#    0.000    0.800    8.000    1.200    0.000    0.800 
#    9.000    1.000    2.200    0.000    0.000    0.000 
#    0.000    0.000    0.000    0.000    0.000    0.000 
#
# Total GULP energy -111671.162257 kJ/mol
# GULP energy per Si atom -5583.558113 kJ/mol
# Density = 2.241439 g / cm^3
# Si number density = 22.465518 Si / 1000 Ang^3
#
#
#
# Elastic Constant Matrix: (Units=GPa)
#
#
# Indices 1 2 3 4 5 6 
#
# 1 159.7755 32.3460 44.3972 0.0000 -3.4894 0.0000
# 2 32.3460 57.9480 28.5998 0.0000 7.3502 0.0000
# 3 44.3972 28.5998 153.9768 0.0000 17.0609 0.0000
# 4 0.0000 0.0000 0.0000 -50.5228 0.0000 8.5431
# 5 -3.4894 7.3502 17.0609 0.0000 41.0765 0.0000
# 6 0.0000 0.0000 0.0000 8.5431 0.0000 28.4119
#
#
#
# Elastic Compliance Matrix: (Units=1/GPa)
#
#
# Indices 1 2 3 4 5 6 
#
# 1 0.007508 -0.003596 -0.001718 0.000000 0.001995 0.000000
# 2 -0.003596 0.020883 -0.002510 0.000000 -0.003000 0.000000
# 3 -0.001718 -0.002510 0.007780 0.000000 -0.002928 0.000000
# 4 0.000000 0.000000 0.000000 -0.018835 0.000000 0.005664
# 5 0.001995 -0.003000 -0.002928 0.000000 0.026267 0.000000
# 6 0.000000 0.000000 0.000000 0.005664 0.000000 0.033494
#
#
# Mechanical properties :
#
#
# Convention : Reuss Voigt Hill
#
# Bulk Modulus (GPa) = 48.72226 64.70958 56.71592
# Shear Modulus (GPa) = 50.20837 21.55028 35.87932
#
# Velocity S-wave (km/s) = 4.73261 3.10055 4.00069
# Velocity P-wave (km/s) = 7.18318 6.45635 6.82944
#
# Compressibility (1/GPa) = 0.02052450
#
# Stress axis : x y z
#
# Youngs Moduli (GPa) = 133.19723 47.88550 128.52781
#
# Poissons Ratio (x) = 0.17219 0.22079
# Poissons Ratio (y) = 0.47896 0.32256
# Poissons Ratio (z) = 0.22881 0.12018
#
# Static dielectric constant tensor:
#      x y z
#    x 1.763700 0.000000 -0.032110 
#    y 0.000000 1.956000 0.000000 
#    z -0.032110 0.000000 1.848090 
# 
# From -- ./inp_files/24470.got.cif
#   From: 2010.05.17/outbox.cif.g08.bks.cpg/sg15_13_cif.got.tgz:24470.got - 2010.06.03 18:47:42.
