data_PCOD9276972
_publ_section_title
;
Structure prediction by ZEFSAII (Michael W. Deem and Ramdas Pophale) SiO2 
 PCOD9276972
Probable space group: C 2/C
;
_chemical_formula_sum "Si O2"
_cell_formula_units_Z 40
_cell_length_a 27.527084
_cell_length_b 5.005294
_cell_length_c 24.263292
_cell_angle_alpha 90.000000
_cell_angle_beta 150.945777
_cell_angle_gamma 90.000000
_cell_volume 1623.496651
_symmetry_space_group_name_H-M "C 2/C"
_symmetry_group_IT_number 15
_symmetry_cell_setting 'monoclinic'
loop_
_space_group_symop_operation_xyz
x,y,z
-x,y,1/2-z
-x,-y,-z
x,-y,1/2+z
1/2+x,1/2+y,z
1/2-x,1/2+y,1/2-z
1/2-x,1/2-y,-z
1/2+x,1/2-y,1/2+z
loop_
_atom_site_type_symbol
_atom_site_label
_atom_site_fract_x
_atom_site_fract_y
_atom_site_fract_z
Si Si1 0.979426 0.289083 0.332050
Si Si2 0.613693 0.306353 0.316853
Si Si3 0.159350 0.368823 0.984529
Si Si4 0.788420 0.914977 0.857464
Si Si5 0.848300 0.909654 0.797845
O O1 0.914573 0.546826 0.247531
O O2 0.941611 0.179829 0.353433
O O3 0.091922 0.390322 0.438790
O O4 0.957303 0.049576 0.268608
O O5 0.723949 0.416932 0.411215
O O6 0.616505 0.219956 0.383055
O O7 0.158538 0.157276 0.033252
O O8 0.859178 0.879746 0.874299
O O9 0.696525 0.703071 0.758367
O O10 0.740154 0.205910 0.807060
#
# Coordination Sequence:
#
# PCOD9276972 Si02
#       5
#     8   8   8   8   8
#     4  12  24  44  70  99 138 178 227 279 335 398
#     4  11  27  45  65 102 140 173 227 284 332 397
#     4  11  25  44  72  97 136 186 222 275 341 408
#     4  10  21  40  66  97 133 177 220 274 340 390
#     4  10  20  40  66  96 137 171 220 286 326 390
#
# _framework density 24.638178
#
# number of rings (size 3 to 8) (size 9 to 14) (size 15 to 20)
#    0.000    1.200    4.000    0.600    0.000   12.000 
#    0.000    0.000    0.000    9.600    0.000    0.000 
#    0.000    0.000    0.000    0.000    0.000    0.000 
#
# Total GULP energy -112111.488773 kJ/mol
# GULP energy per Si atom -5605.574439 kJ/mol
# Density = 2.458210 g / cm^3
# Si number density = 24.638178 Si / 1000 Ang^3
#
#
#
# Elastic Constant Matrix: (Units=GPa)
#
#
# Indices 1 2 3 4 5 6 
#
# 1 182.9100 10.3656 34.4035 0.0005 5.5206 0.0017
# 2 10.3656 69.5252 24.7048 0.0068 18.3012 0.0070
# 3 34.4035 24.7048 67.1939 0.0017 4.6418 0.0012
# 4 0.0005 0.0068 0.0017 27.3798 0.0010 -7.8531
# 5 5.5206 18.3012 4.6418 0.0010 47.2579 0.0002
# 6 0.0017 0.0070 0.0012 -7.8531 0.0002 22.1188
#
#
#
# Elastic Compliance Matrix: (Units=1/GPa)
#
#
# Indices 1 2 3 4 5 6 
#
# 1 0.006065 0.000377 -0.003207 0.000000 -0.000540 0.000000
# 2 0.000377 0.018347 -0.006489 -0.000006 -0.006512 -0.000008
# 3 -0.003207 -0.006489 0.018838 0.000001 0.001037 0.000002
# 4 0.000000 -0.000006 0.000001 0.040664 0.000001 0.014437
# 5 -0.000540 -0.006512 0.001037 0.000001 0.023643 0.000002
# 6 0.000000 -0.000008 0.000002 0.014437 0.000002 0.050336
#
#
# Mechanical properties :
#
#
# Convention : Reuss Voigt Hill
#
# Bulk Modulus (GPa) = 40.62792 50.95297 45.79044
# Shear Modulus (GPa) = 27.06572 36.02834 31.54703
#
# Velocity S-wave (km/s) = 3.31800 3.82815 3.58217
# Velocity P-wave (km/s) = 5.58609 6.34547 5.97785
#
# Compressibility (1/GPa) = 0.02461361
#
# Stress axis : x y z
#
# Youngs Moduli (GPa) = 164.87356 54.50536 53.08342
#
# Poissons Ratio (x) = -0.02056 0.17023
# Poissons Ratio (y) = -0.06221 0.34445
# Poissons Ratio (z) = 0.52873 0.35367
#
# Static dielectric constant tensor:
#      x y z
#    x 1.983150 0.000000 0.032330 
#    y 0.000000 1.893910 0.000000 
#    z 0.032330 0.000000 1.979790 
# 
# From -- ./inp_files/283110.got.cif
#   From: 2010.05.17/outbox.cif.g08.bks.cpg/sg15_142_cif.got.tgz:283110.got - 2010.06.03 18:47:42.
