data_PCOD9276808
_publ_section_title
;
Structure prediction by ZEFSAII (Michael W. Deem and Ramdas Pophale) SiO2 
 PCOD9276808
Probable space group: C 2/C
;
_chemical_formula_sum "Si O2"
_cell_formula_units_Z 64
_cell_length_a 12.923150
_cell_length_b 17.448163
_cell_length_c 32.577794
_cell_angle_alpha 90.000000
_cell_angle_beta 153.918750
_cell_angle_gamma 90.000000
_cell_volume 3229.551173
_symmetry_space_group_name_H-M "C 2/C"
_symmetry_group_IT_number 15
_symmetry_cell_setting 'monoclinic'
loop_
_space_group_symop_operation_xyz
x,y,z
-x,y,1/2-z
-x,-y,-z
x,-y,1/2+z
1/2+x,1/2+y,z
1/2-x,1/2+y,1/2-z
1/2-x,1/2-y,-z
1/2+x,1/2-y,1/2+z
loop_
_atom_site_type_symbol
_atom_site_label
_atom_site_fract_x
_atom_site_fract_y
_atom_site_fract_z
Si Si1 0.921166 0.346681 0.809237
Si Si2 0.578585 0.701116 0.908280
Si Si3 0.418652 0.424027 0.874373
Si Si4 0.767680 0.574643 0.338121
Si Si5 0.907168 0.457083 0.008319
Si Si6 0.485602 0.821870 0.985485
Si Si7 0.029794 0.142860 0.018925
Si Si8 0.765538 0.086323 0.849479
O O1 0.750855 0.367886 0.711383
O O2 0.824682 0.392276 0.814047
O O3 0.925498 0.259413 0.826886
O O4 0.193270 0.365470 0.894715
O O5 0.756942 0.660779 0.940935
O O6 0.432086 0.641624 0.882199
O O7 0.750000 0.750000 0.000000
O O8 0.502475 0.380984 0.945459
O O9 0.280603 0.499821 0.839065
O O10 0.634761 0.455711 0.923831
O O11 0.500000 0.550831 0.250000
O O12 0.941245 0.502697 0.404824
O O13 0.818990 0.640567 0.391070
O O14 0.958087 0.368465 0.017422
O O15 0.000000 0.500000 0.000000
O O16 0.464362 0.731508 0.985475
O O17 0.867655 0.091683 0.931709
O O18 0.500000 0.114248 0.750000
#
# Coordination Sequence:
#
# PCOD9276808 Si02
#       8
#     8   8   8   8   8   8   8   8
#     4  11  21  40  66  94 127 170 222 268 336 395
#     4  11  20  42  70  97 123 170 217 276 333 385
#     4  12  26  42  64  95 135 177 219 272 337 410
#     4  11  21  37  66  95 124 166 225 277 329 391
#     4  10  22  40  61  89 127 167 212 271 334 388
#     4  10  20  40  65  90 122 167 217 267 333 398
#     4  11  23  43  64  89 133 175 215 275 341 394
#     4  12  24  40  66 100 131 169 229 276 326 398
#
# _framework density 19.816994999999999
#
# number of rings (size 3 to 8) (size 9 to 14) (size 15 to 20)
#    0.000    1.000    3.750    5.250    0.000    4.500 
#    0.000    3.750    0.000    0.000    0.000    0.000 
#    0.000    0.000    0.000    0.000    0.000    0.000 
#
# Total GULP energy -178673.122501 kJ/mol
# GULP energy per Si atom -5583.535078 kJ/mol
# Density = 1.977189 g / cm^3
# Si number density = 19.816995 Si / 1000 Ang^3
#
#
#
# Elastic Constant Matrix: (Units=GPa)
#
#
# Indices 1 2 3 4 5 6 
#
# 1 62.3892 20.1226 28.3409 0.0011 -9.7409 -0.0005
# 2 20.1226 59.9332 29.9511 0.0010 -8.1163 -0.0007
# 3 28.3409 29.9511 103.4354 0.0031 -11.7441 -0.0023
# 4 0.0011 0.0010 0.0031 17.7607 0.0008 12.8907
# 5 -9.7409 -8.1163 -11.7441 0.0008 32.6016 -0.0008
# 6 -0.0005 -0.0007 -0.0023 12.8907 -0.0008 21.6685
#
#
#
# Elastic Compliance Matrix: (Units=1/GPa)
#
#
# Indices 1 2 3 4 5 6 
#
# 1 0.019647 -0.004249 -0.003760 -0.000001 0.003458 0.000001
# 2 -0.004249 0.020702 -0.004576 -0.000001 0.002236 0.000000
# 3 -0.003760 -0.004576 0.012268 -0.000004 0.002157 0.000004
# 4 -0.000001 -0.000001 -0.000004 0.099089 -0.000006 -0.058949
# 5 0.003458 0.002236 0.002157 -0.000006 0.033040 0.000005
# 6 0.000001 0.000000 0.000004 -0.058949 0.000005 0.081219
#
#
# Mechanical properties :
#
#
# Convention : Reuss Voigt Hill
#
# Bulk Modulus (GPa) = 36.43597 42.50967 39.47282
# Shear Modulus (GPa) = 16.65089 24.22903 20.43996
#
# Velocity S-wave (km/s) = 2.90182 3.50042 3.21508
# Velocity P-wave (km/s) = 5.44551 6.15101 5.80898
#
# Compressibility (1/GPa) = 0.02744541
#
# Stress axis : x y z
#
# Youngs Moduli (GPa) = 50.89875 48.30538 81.51182
#
# Poissons Ratio (x) = 0.20525 0.30650
# Poissons Ratio (y) = 0.21627 0.37303
# Poissons Ratio (z) = 0.19139 0.22106
#
# Static dielectric constant tensor:
#      x y z
#    x 1.715960 0.000000 -0.012270 
#    y 0.000000 1.721870 0.000000 
#    z -0.012270 0.000000 1.708250 
# 
# From -- ./inp_files/311662.got.cif
#   From: 2010.05.17/outbox.cif.g08.bks.cpg/sg15_156_cif.got.tgz:311662.got - 2010.06.03 18:47:42.
