data_PCOD9276144
_publ_section_title
;
Structure prediction by ZEFSAII (Michael W. Deem and Ramdas Pophale) SiO2 
 PCOD9276144
Probable space group: C 2/C
;
_chemical_formula_sum "Si O2"
_cell_formula_units_Z 56
_cell_length_a 15.546539
_cell_length_b 27.417136
_cell_length_c 5.767497
_cell_angle_alpha 90.000000
_cell_angle_beta 71.079296
_cell_angle_gamma 90.000000
_cell_volume 2325.518206
_symmetry_space_group_name_H-M "C 2/C"
_symmetry_group_IT_number 15
_symmetry_cell_setting 'monoclinic'
loop_
_space_group_symop_operation_xyz
x,y,z
-x,y,1/2-z
-x,-y,-z
x,-y,1/2+z
1/2+x,1/2+y,z
1/2-x,1/2+y,1/2-z
1/2-x,1/2-y,-z
1/2+x,1/2-y,1/2+z
loop_
_atom_site_type_symbol
_atom_site_label
_atom_site_fract_x
_atom_site_fract_y
_atom_site_fract_z
Si Si1 0.500000 0.301281 0.750000
Si Si2 0.235805 0.692998 0.061000
Si Si3 0.630054 0.631597 0.835822
Si Si4 0.500000 0.137047 0.750000
Si Si5 0.442338 0.781831 0.005667
Si Si6 0.889933 0.022179 0.713008
Si Si7 0.184063 0.513796 0.339515
Si Si8 0.801363 0.380794 0.522611
O O1 0.555519 0.335768 0.529854
O O2 0.429803 0.262473 0.695172
O O3 0.324034 0.663380 0.905642
O O4 0.250000 0.750000 0.000000
O O5 0.147675 0.688463 0.975192
O O6 0.208438 0.670219 0.330652
O O7 0.592130 0.579650 0.794043
O O8 0.715677 0.619115 0.927734
O O9 0.507762 0.175195 0.533561
O O10 0.597707 0.112179 0.673122
O O11 0.500000 0.758075 0.750000
O O12 0.919067 0.000805 0.435537
O O13 0.780494 0.013581 0.788558
O O14 0.139732 0.502557 0.633129
O O15 0.205282 0.571639 0.307767
#
# Coordination Sequence:
#
# PCOD9276144 Si02
#       8
#     4   8   8   4   8   8   8   8
#     4  11  28  44  64  98 138 178 236 294 345 412
#     4  12  25  39  68 101 131 184 235 281 351 423
#     4  12  25  43  70 100 136 182 235 286 355 423
#     4  11  24  40  64  98 130 178 228 274 335 418
#     4  11  22  44  62  90 142 178 220 291 340 400
#     4  10  20  41  72 101 137 182 231 295 359 418
#     4  10  20  39  69 101 138 184 228 291 357 414
#     4  12  24  41  71  99 136 181 235 284 350 427
#
# _framework density 24.080656999999999
#
# number of rings (size 3 to 8) (size 9 to 14) (size 15 to 20)
#    0.000    0.857    5.714    3.429    2.000    1.143 
#    0.000    1.429    0.000    0.000    0.000    0.000 
#    0.000    0.000    0.000    0.000    0.000    0.000 
#
# Total GULP energy -156245.168165 kJ/mol
# GULP energy per Si atom -5580.184577 kJ/mol
# Density = 2.402585 g / cm^3
# Si number density = 24.080657 Si / 1000 Ang^3
#
#
#
# Elastic Constant Matrix: (Units=GPa)
#
#
# Indices 1 2 3 4 5 6 
#
# 1 83.5164 16.8182 28.3283 0.0000 -6.4728 0.0000
# 2 16.8182 128.5968 35.3203 0.0000 5.1040 0.0000
# 3 28.3283 35.3203 107.7613 0.0000 -0.5933 0.0000
# 4 0.0000 0.0000 0.0000 46.6277 0.0000 -1.8124
# 5 -6.4728 5.1040 -0.5933 0.0000 34.3975 0.0000
# 6 0.0000 0.0000 0.0000 -1.8124 0.0000 0.6584
#
#
#
# Elastic Compliance Matrix: (Units=1/GPa)
#
#
# Indices 1 2 3 4 5 6 
#
# 1 0.013461 -0.000985 -0.003201 0.000000 0.002624 0.000000
# 2 -0.000985 0.008678 -0.002594 0.000000 -0.001518 0.000000
# 3 -0.003201 -0.002594 0.010971 0.000000 -0.000028 0.000000
# 4 0.000000 0.000000 0.000000 0.024016 0.000000 0.066114
# 5 0.002624 -0.001518 -0.000028 0.000000 0.029790 0.000000
# 6 0.000000 0.000000 0.000000 0.066114 0.000000 1.700875
#
#
# Mechanical properties :
#
#
# Convention : Reuss Voigt Hill
#
# Bulk Modulus (GPa) = 51.15141 53.42314 52.28727
# Shear Modulus (GPa) = 2.76569 32.29724 17.53146
#
# Velocity S-wave (km/s) = 1.07285 3.66623 2.70113
# Velocity P-wave (km/s) = 4.77729 6.33679 5.61148
#
# Compressibility (1/GPa) = 0.01954980
#
# Stress axis : x y z
#
# Youngs Moduli (GPa) = 74.28667 115.23796 91.14740
#
# Poissons Ratio (x) = 0.11356 0.29179
# Poissons Ratio (y) = 0.07320 0.23640
# Poissons Ratio (z) = 0.23781 0.29888
#
# Static dielectric constant tensor:
#      x y z
#    x 2.264440 0.000000 0.283970 
#    y 0.000000 1.907290 0.000000 
#    z 0.283970 0.000000 2.218470 
# 
# From -- ./inp_files/11535.got.cif
#   From: 2010.05.17/outbox.cif.g08.bks.cpg/sg15_6_cif.got.tgz:11535.got - 2010.06.03 18:47:42.
