data_PCOD9276549
_publ_section_title
;
Structure prediction by ZEFSAII (Michael W. Deem and Ramdas Pophale) SiO2 
 PCOD9276549
Probable space group: C 2/C
;
_chemical_formula_sum "Si O2"
_cell_formula_units_Z 52
_cell_length_a 5.282155
_cell_length_b 14.049192
_cell_length_c 27.938276
_cell_angle_alpha 90.000000
_cell_angle_beta 80.286232
_cell_angle_gamma 90.000000
_cell_volume 2043.574739
_symmetry_space_group_name_H-M "C 2/C"
_symmetry_group_IT_number 15
_symmetry_cell_setting 'monoclinic'
loop_
_space_group_symop_operation_xyz
x,y,z
-x,y,1/2-z
-x,-y,-z
x,-y,1/2+z
1/2+x,1/2+y,z
1/2-x,1/2+y,1/2-z
1/2-x,1/2-y,-z
1/2+x,1/2-y,1/2+z
loop_
_atom_site_type_symbol
_atom_site_label
_atom_site_fract_x
_atom_site_fract_y
_atom_site_fract_z
Si Si1 0.304376 0.209574 0.163397
Si Si2 0.285637 0.435307 0.032027
Si Si3 0.415471 0.445482 0.674593
Si Si4 0.000000 0.600458 0.250000
Si Si5 0.851087 0.402342 0.912062
Si Si6 0.573760 0.233763 0.958135
Si Si7 0.575095 0.383981 0.120737
O O1 0.432314 0.165522 0.206780
O O2 0.426508 0.169741 0.109724
O O3 0.379331 0.318950 0.157729
O O4 0.026572 0.161528 0.173950
O O5 0.075457 0.516255 0.052793
O O6 0.429635 0.406286 0.076073
O O7 0.156116 0.337518 0.018496
O O8 0.500000 0.500000 0.000000
O O9 0.226473 0.449263 0.635428
O O10 0.625978 0.523304 0.651871
O O11 0.246054 0.461044 0.726862
O O12 0.602769 0.341011 0.936731
O O13 0.683928 0.174588 0.908207
O O14 0.750000 0.250000 0.000000
#
# Coordination Sequence:
#
# PCOD9276549 Si02
#       7
#     8   8   8   4   8   8   8
#     4  10  20  40  63  86 120 160 203 261 329 392
#     4  11  23  38  59  91 127 167 218 271 325 396
#     4  10  20  40  63  86 120 160 203 261 329 392
#     4  10  22  40  58  94 118 148 202 260 328 394
#     4   9  21  37  58  84 121 160 206 262 316 390
#     4  11  23  38  59  91 127 167 218 271 325 396
#     4  10  23  40  63  92 119 172 218 259 338 396
#
# _framework density 25.445609000000001
#
# number of rings (size 3 to 8) (size 9 to 14) (size 15 to 20)
#    0.000    1.846    0.000    3.231    0.000    9.846 
#    5.538    0.000    0.000    0.000    0.000    0.000 
#    0.000    0.000    0.000    0.000    0.000    0.000 
#
# Total GULP energy -144958.805748 kJ/mol
# GULP energy per Si atom -5575.338683 kJ/mol
# Density = 2.538769 g / cm^3
# Si number density = 25.445609 Si / 1000 Ang^3
#
#
#
# Elastic Constant Matrix: (Units=GPa)
#
#
# Indices 1 2 3 4 5 6 
#
# 1 62.0339 15.3308 26.8231 0.0000 -6.8546 0.0000
# 2 15.3308 128.5828 54.1660 0.0000 -10.0954 0.0000
# 3 26.8231 54.1660 114.8447 0.0000 -11.7140 0.0000
# 4 0.0000 0.0000 0.0000 43.1763 0.0000 -3.0867
# 5 -6.8546 -10.0954 -11.7140 0.0000 42.6353 0.0000
# 6 0.0000 0.0000 0.0000 -3.0867 0.0000 35.4664
#
#
#
# Elastic Compliance Matrix: (Units=1/GPa)
#
#
# Indices 1 2 3 4 5 6 
#
# 1 0.018079 -0.000392 -0.003859 0.000000 0.001754 0.000000
# 2 -0.000392 0.009762 -0.004407 0.000000 0.001038 0.000000
# 3 -0.003859 -0.004407 0.011849 0.000000 0.001592 0.000000
# 4 0.000000 0.000000 0.000000 0.023306 0.000000 0.002028
# 5 0.001754 0.001038 0.001592 0.000000 0.024420 0.000000
# 6 0.000000 0.000000 0.000000 0.002028 0.000000 0.028372
#
#
# Mechanical properties :
#
#
# Convention : Reuss Voigt Hill
#
# Bulk Modulus (GPa) = 44.69254 55.34458 50.01856
# Shear Modulus (GPa) = 35.57152 38.19836 36.88494
#
# Velocity S-wave (km/s) = 3.74296 3.87871 3.81144
# Velocity P-wave (km/s) = 6.02344 6.46966 6.25053
#
# Compressibility (1/GPa) = 0.02237510
#
# Stress axis : x y z
#
# Youngs Moduli (GPa) = 55.31145 102.44206 84.39287
#
# Poissons Ratio (x) = 0.04020 0.32565
# Poissons Ratio (y) = 0.02171 0.37188
# Poissons Ratio (z) = 0.21343 0.45141
#
# Static dielectric constant tensor:
#      x y z
#    x 2.129020 0.000000 -0.093420 
#    y 0.000000 1.985410 0.000000 
#    z -0.093420 0.000000 2.026150 
# 
# From -- ./inp_files/305337.got.cif
#   From: 2010.05.17/outbox.cif.g08.bks.cpg/sg15_153_cif.got.tgz:305337.got - 2010.06.03 18:47:42.
