data_PCOD9276799
_publ_section_title
;
Structure prediction by ZEFSAII (Michael W. Deem and Ramdas Pophale) SiO2 
 PCOD9276799
Probable space group: C 2/C
;
_chemical_formula_sum "Si O2"
_cell_formula_units_Z 48
_cell_length_a 13.631718
_cell_length_b 13.638005
_cell_length_c 14.828875
_cell_angle_alpha 90.000000
_cell_angle_beta 104.722045
_cell_angle_gamma 90.000000
_cell_volume 2666.321290
_symmetry_space_group_name_H-M "C 2/C"
_symmetry_group_IT_number 15
_symmetry_cell_setting 'monoclinic'
loop_
_space_group_symop_operation_xyz
x,y,z
-x,y,1/2-z
-x,-y,-z
x,-y,1/2+z
1/2+x,1/2+y,z
1/2-x,1/2+y,1/2-z
1/2-x,1/2-y,-z
1/2+x,1/2-y,1/2+z
loop_
_atom_site_type_symbol
_atom_site_label
_atom_site_fract_x
_atom_site_fract_y
_atom_site_fract_z
Si Si1 0.171300 0.258755 0.563707
Si Si2 0.339462 0.735948 0.450436
Si Si3 0.995225 0.398799 0.447886
Si Si4 0.512910 0.405538 0.066119
Si Si5 0.000000 0.348308 0.250000
Si Si6 0.500000 0.483750 0.750000
Si Si7 0.167322 0.182437 0.255646
O O1 0.250000 0.250000 0.500000
O O2 0.083167 0.329431 0.507371
O O3 0.117261 0.155262 0.575568
O O4 0.231671 0.305129 0.661980
O O5 0.250000 0.750000 0.500000
O O6 0.391110 0.840367 0.440859
O O7 0.424102 0.668347 0.516831
O O8 0.312930 0.687875 0.347110
O O9 0.008600 0.408580 0.343676
O O10 0.000000 0.500000 0.500000
O O11 0.500389 0.447188 0.163156
O O12 0.500000 0.500000 0.000000
O O13 0.096055 0.275597 0.263305
O O14 0.401635 0.411847 0.734419
#
# Coordination Sequence:
#
# PCOD9276799 Si02
#       7
#     8   8   8   8   4   4   8
#     4  11  22  40  64  91 124 157 207 255 302 373
#     4  10  23  42  62  87 131 161 201 258 309 363
#     4  10  22  42  60  89 120 163 202 249 305 361
#     4  11  23  41  62  96 124 162 205 259 313 364
#     4   9  18  40  65  80 118 158 201 244 299 364
#     4  11  22  40  67  90 128 160 211 258 307 376
#     4  10  20  40  65  89 116 166 203 249 310 359
#
# _framework density 18.002331999999999
#
# number of rings (size 3 to 8) (size 9 to 14) (size 15 to 20)
#    0.000    1.667    3.333    1.000    2.333    2.667 
#    6.000    0.000    0.000    0.000    0.000    0.000 
#    0.000    0.000    0.000    0.000    0.000    0.000 
#
# Total GULP energy -133949.834451 kJ/mol
# GULP energy per Si atom -5581.243102 kJ/mol
# Density = 1.796136 g / cm^3
# Si number density = 18.002332 Si / 1000 Ang^3
#
#
#
# Elastic Constant Matrix: (Units=GPa)
#
#
# Indices 1 2 3 4 5 6 
#
# 1 111.3529 35.9602 67.2643 0.0000 -18.1623 0.0000
# 2 35.9602 104.7206 66.5480 0.0000 -20.2178 0.0000
# 3 67.2643 66.5480 184.1595 0.0000 -22.6473 0.0000
# 4 0.0000 0.0000 0.0000 37.1943 0.0000 -5.8744
# 5 -18.1623 -20.2178 -22.6473 0.0000 36.4321 0.0000
# 6 0.0000 0.0000 0.0000 -5.8744 0.0000 19.0403
#
#
#
# Elastic Compliance Matrix: (Units=1/GPa)
#
#
# Indices 1 2 3 4 5 6 
#
# 1 0.012046 -0.001280 -0.003558 0.000000 0.003083 0.000000
# 2 -0.001280 0.013230 -0.003778 0.000000 0.004356 0.000000
# 3 -0.003558 -0.003778 0.008249 0.000000 0.001258 0.000000
# 4 0.000000 0.000000 0.000000 0.028263 0.000000 0.008720
# 5 0.003083 0.004356 0.001258 0.000000 0.032184 0.000000
# 6 0.000000 0.000000 0.000000 0.008720 0.000000 0.055210
#
#
# Mechanical properties :
#
#
# Convention : Reuss Voigt Hill
#
# Bulk Modulus (GPa) = 61.37251 82.19755 71.78503
# Shear Modulus (GPa) = 29.09563 33.89737 31.49650
#
# Velocity S-wave (km/s) = 4.02458 4.34400 4.18733
# Velocity P-wave (km/s) = 7.46738 8.42134 7.95866
#
# Compressibility (1/GPa) = 0.01629394
#
# Stress axis : x y z
#
# Youngs Moduli (GPa) = 83.01487 75.58342 121.21995
#
# Poissons Ratio (x) = 0.09676 0.43131
# Poissons Ratio (y) = 0.10628 0.45793
# Poissons Ratio (z) = 0.29537 0.28553
#
# Static dielectric constant tensor:
#      x y z
#    x 1.620890 0.000000 -0.009260 
#    y 0.000000 1.585860 0.000000 
#    z -0.009260 0.000000 1.626100 
# 
# From -- ./inp_files/152231.got.cif
#   From: 2010.05.17/outbox.cif.g08.bks.cpg/sg15_77_cif.got.tgz:152231.got - 2010.06.03 18:47:42.
