data_PCOD9276218
_publ_section_title
;
Structure prediction by ZEFSAII (Michael W. Deem and Ramdas Pophale) SiO2 
 PCOD9276218
Probable space group: C 2/C
;
_chemical_formula_sum "Si O2"
_cell_formula_units_Z 60
_cell_length_a 16.230271
_cell_length_b 16.197620
_cell_length_c 14.052155
_cell_angle_alpha 90.000000
_cell_angle_beta 135.295130
_cell_angle_gamma 90.000000
_cell_volume 2598.700930
_symmetry_space_group_name_H-M "C 2/C"
_symmetry_group_IT_number 15
_symmetry_cell_setting 'monoclinic'
loop_
_space_group_symop_operation_xyz
x,y,z
-x,y,1/2-z
-x,-y,-z
x,-y,1/2+z
1/2+x,1/2+y,z
1/2-x,1/2+y,1/2-z
1/2-x,1/2-y,-z
1/2+x,1/2-y,1/2+z
loop_
_atom_site_type_symbol
_atom_site_label
_atom_site_fract_x
_atom_site_fract_y
_atom_site_fract_z
Si Si1 0.010928 0.874333 0.434445
Si Si2 0.843906 0.284472 0.150330
Si Si3 0.108769 0.377893 0.491461
Si Si4 0.537062 0.816080 0.971411
Si Si5 0.626508 0.380685 0.735299
Si Si6 0.764008 0.603004 0.751820
Si Si7 0.500000 0.482966 0.250000
Si Si8 0.951336 0.479152 0.818158
O O1 0.032781 0.777040 0.430862
O O2 0.873499 0.899157 0.336347
O O3 0.052583 0.927306 0.377849
O O4 0.923891 0.108943 0.411838
O O5 0.894733 0.353478 0.121669
O O6 0.911694 0.206339 0.249139
O O7 0.778967 0.327867 0.183384
O O8 0.750000 0.250000 0.000000
O O9 0.026931 0.314003 0.479066
O O10 0.233951 0.377004 0.642801
O O11 0.049143 0.466391 0.452777
O O12 0.460609 0.882913 0.851470
O O13 0.661634 0.859818 0.097742
O O14 0.589872 0.455526 0.772822
O O15 0.830547 0.524158 0.755765
O O16 0.000000 0.483231 0.750000
#
# Coordination Sequence:
#
# PCOD9276218 Si02
#       8
#     8   8   8   8   8   8   4   8
#     4  12  28  53  71 105 147 196 246 297 364 436
#     4  10  20  39  73 105 138 180 235 299 360 419
#     4  10  22  44  73 112 143 181 242 300 365 423
#     4  11  26  45  76 103 144 191 239 296 360 432
#     4  11  26  47  72 106 144 191 239 302 372 425
#     4  11  23  47  75 106 146 184 235 309 358 420
#     4  12  32  46  70 100 148 198 244 294 356 452
#     4  11  24  44  75 110 143 186 238 300 360 434
#
# _framework density 23.088459
#
# number of rings (size 3 to 8) (size 9 to 14) (size 15 to 20)
#    0.000    1.067    2.667    3.600   10.267    0.000 
#    2.400    0.667    0.000    0.000    0.000    0.000 
#    0.000    0.000    0.000    0.000    0.000    0.000 
#
# Total GULP energy -167481.719856 kJ/mol
# GULP energy per Si atom -5582.723995 kJ/mol
# Density = 2.303591 g / cm^3
# Si number density = 23.088459 Si / 1000 Ang^3
#
#
#
# Elastic Constant Matrix: (Units=GPa)
#
#
# Indices 1 2 3 4 5 6 
#
# 1 54.7930 54.7241 48.0984 0.0000 -14.2375 0.0000
# 2 54.7241 171.2879 52.9341 0.0000 -21.6221 0.0000
# 3 48.0984 52.9341 140.6539 0.0000 9.5447 0.0000
# 4 0.0000 0.0000 0.0000 31.9389 0.0000 -21.8179
# 5 -14.2375 -21.6221 9.5447 0.0000 39.7907 0.0000
# 6 0.0000 0.0000 0.0000 -21.8179 0.0000 36.0505
#
#
#
# Elastic Compliance Matrix: (Units=1/GPa)
#
#
# Indices 1 2 3 4 5 6 
#
# 1 0.038813 -0.007281 -0.011392 0.000000 0.012664 0.000000
# 2 -0.007281 0.008767 -0.000972 0.000000 0.002391 0.000000
# 3 -0.011392 -0.000972 0.011877 0.000000 -0.007453 0.000000
# 4 0.000000 0.000000 0.000000 0.053377 0.000000 0.032304
# 5 0.012664 0.002391 -0.007453 0.000000 0.032750 0.000000
# 6 0.000000 0.000000 0.000000 0.032304 0.000000 0.047289
#
#
# Mechanical properties :
#
#
# Convention : Reuss Voigt Hill
#
# Bulk Modulus (GPa) = 49.58582 75.36088 62.47335
# Shear Modulus (GPa) = 20.93066 35.62122 28.27594
#
# Velocity S-wave (km/s) = 3.01415 3.93213 3.50334
# Velocity P-wave (km/s) = 5.79970 7.30250 6.59405
#
# Compressibility (1/GPa) = 0.02016706
#
# Stress axis : x y z
#
# Youngs Moduli (GPa) = 25.76454 114.07058 84.19909
#
# Poissons Ratio (x) = 0.83057 0.95917
# Poissons Ratio (y) = 0.18760 0.08181
# Poissons Ratio (z) = 0.29350 0.11083
#
# Static dielectric constant tensor:
#      x y z
#    x 1.975900 0.000000 -0.015980 
#    y 0.000000 2.053860 0.000000 
#    z -0.015980 0.000000 1.960230 
# 
# From -- ./inp_files/215465.got.cif
#   From: 2010.05.17/outbox.cif.g08.bks.cpg/sg15_108_cif.got.tgz:215465.got - 2010.06.03 18:47:42.
