data_PCOD9276752
_publ_section_title
;
Structure prediction by ZEFSAII (Michael W. Deem and Ramdas Pophale) SiO2 
 PCOD9276752
Probable space group: C 2/C
;
_chemical_formula_sum "Si O2"
_cell_formula_units_Z 48
_cell_length_a 16.475287
_cell_length_b 11.999355
_cell_length_c 11.549926
_cell_angle_alpha 90.000000
_cell_angle_beta 104.213358
_cell_angle_gamma 90.000000
_cell_volume 2213.440189
_symmetry_space_group_name_H-M "C 2/C"
_symmetry_group_IT_number 15
_symmetry_cell_setting 'monoclinic'
loop_
_space_group_symop_operation_xyz
x,y,z
-x,y,1/2-z
-x,-y,-z
x,-y,1/2+z
1/2+x,1/2+y,z
1/2-x,1/2+y,1/2-z
1/2-x,1/2-y,-z
1/2+x,1/2-y,1/2+z
loop_
_atom_site_type_symbol
_atom_site_label
_atom_site_fract_x
_atom_site_fract_y
_atom_site_fract_z
Si Si1 0.169631 0.294045 0.540645
Si Si2 0.825239 0.525424 0.040802
Si Si3 0.643546 0.468028 0.354408
Si Si4 0.743405 0.392246 0.712325
Si Si5 0.126992 0.227809 0.997597
Si Si6 0.522514 0.346746 0.888576
O O1 0.250000 0.250000 0.500000
O O2 0.133175 0.412113 0.484249
O O3 0.207173 0.317544 0.679352
O O4 0.098412 0.207941 0.485844
O O5 0.809589 0.528222 0.172217
O O6 0.731073 0.513914 0.954335
O O7 0.868921 0.639620 0.016721
O O8 0.670685 0.530430 0.244815
O O9 0.625886 0.338306 0.374629
O O10 0.562375 0.531830 0.375727
O O11 0.707406 0.311563 0.600496
O O12 0.054203 0.178874 0.053803
O O13 0.500000 0.303183 0.750000
#
# Coordination Sequence:
#
# PCOD9276752 Si02
#       6
#     8   8   8   8   8   8
#     4  11  22  41  65  95 127 176 233 262 325 412
#     4  10  23  41  65  97 129 173 219 280 325 393
#     4  10  20  40  64  96 121 175 218 269 325 398
#     4  10  20  40  68  90 127 170 223 267 326 391
#     4  11  23  42  62  99 139 165 219 279 343 388
#     4  12  23  42  66  96 136 178 215 281 338 392
#
# _framework density 21.685700000000001
#
# number of rings (size 3 to 8) (size 9 to 14) (size 15 to 20)
#    0.000    1.333    5.000    2.500    0.000    7.333 
#    0.000    0.833    0.000    0.000    0.000    0.000 
#    0.000    0.000    0.000    0.000    0.000    0.000 
#
# Total GULP energy -133674.148351 kJ/mol
# GULP energy per Si atom -5569.756181 kJ/mol
# Density = 2.163634 g / cm^3
# Si number density = 21.685700 Si / 1000 Ang^3
#
#
#
# Elastic Constant Matrix: (Units=GPa)
#
#
# Indices 1 2 3 4 5 6 
#
# 1 67.6369 12.9881 17.4244 0.0000 -5.1535 0.0000
# 2 12.9881 125.6914 28.0007 0.0000 -9.9231 0.0000
# 3 17.4244 28.0007 49.5836 0.0000 -14.5727 0.0000
# 4 0.0000 0.0000 0.0000 25.7703 0.0000 15.5810
# 5 -5.1535 -9.9231 -14.5727 0.0000 30.5339 0.0000
# 6 0.0000 0.0000 0.0000 15.5810 0.0000 3.6433
#
#
#
# Elastic Compliance Matrix: (Units=1/GPa)
#
#
# Indices 1 2 3 4 5 6 
#
# 1 0.016280 -0.000467 -0.005461 0.000000 -0.000010 0.000000
# 2 -0.000467 0.009123 -0.004815 0.000000 0.000588 0.000000
# 3 -0.005461 -0.004815 0.028003 0.000000 0.010878 0.000000
# 4 0.000000 0.000000 0.000000 -0.024472 0.000000 0.104657
# 5 -0.000010 0.000588 0.010878 0.000000 0.038132 0.000000
# 6 0.000000 0.000000 0.000000 0.104657 0.000000 -0.173098
#
#
# Mechanical properties :
#
#
# Convention : Reuss Voigt Hill
#
# Bulk Modulus (GPa) = 31.32628 39.97093 35.64860
# Shear Modulus (GPa) = -67.65419 24.28941 -21.68239
#
# Velocity S-wave (km/s) = -5.59154 3.35037 -3.16547
# Velocity P-wave (km/s) = 5.21634 5.78261 1.76471
#
# Compressibility (1/GPa) = 0.03192208
#
# Stress axis : x y z
#
# Youngs Moduli (GPa) = 61.42352 109.60867 35.70997
#
# Poissons Ratio (x) = 0.05115 0.19500
# Poissons Ratio (y) = 0.02866 0.17195
# Poissons Ratio (z) = 0.33541 0.52780
#
# Static dielectric constant tensor:
#      x y z
#    x 1.964850 0.000000 -0.021460 
#    y 0.000000 1.824190 0.000000 
#    z -0.021460 0.000000 1.849240 
# 
# From -- ./inp_files/104275.got.cif
#   From: 2010.05.17/outbox.cif.g08.bks.cpg/sg15_53_cif.got.tgz:104275.got - 2010.06.03 18:47:42.
