data_PCOD9276053
_publ_section_title
;
Structure prediction by ZEFSAII (Michael W. Deem and Ramdas Pophale) SiO2 
 PCOD9276053
Probable space group: C 2/C
;
_chemical_formula_sum "Si O2"
_cell_formula_units_Z 56
_cell_length_a 11.971433
_cell_length_b 24.362121
_cell_length_c 18.996677
_cell_angle_alpha 90.000000
_cell_angle_beta 28.366922
_cell_angle_gamma 90.000000
_cell_volume 2632.320680
_symmetry_space_group_name_H-M "C 2/C"
_symmetry_group_IT_number 15
_symmetry_cell_setting 'monoclinic'
loop_
_space_group_symop_operation_xyz
x,y,z
-x,y,1/2-z
-x,-y,-z
x,-y,1/2+z
1/2+x,1/2+y,z
1/2-x,1/2+y,1/2-z
1/2-x,1/2-y,-z
1/2+x,1/2-y,1/2+z
loop_
_atom_site_type_symbol
_atom_site_label
_atom_site_fract_x
_atom_site_fract_y
_atom_site_fract_z
Si Si1 0.833498 0.911511 0.552067
Si Si2 0.495118 0.266633 0.670571
Si Si3 0.714621 0.685486 0.509329
Si Si4 0.190378 0.326358 0.317223
Si Si5 0.974848 0.546476 0.146287
Si Si6 0.626562 0.854928 0.875567
Si Si7 0.127425 0.571616 0.754175
O O1 0.814609 0.845517 0.549780
O O2 0.692436 0.931757 0.697672
O O3 0.728994 0.938225 0.538310
O O4 0.096924 0.930794 0.414298
O O5 0.500000 0.251833 0.750000
O O6 0.322012 0.229712 0.719810
O O7 0.384709 0.328005 0.727356
O O8 0.750000 0.250000 0.500000
O O9 0.750000 0.750000 0.500000
O O10 0.466438 0.667734 0.683358
O O11 0.956049 0.662449 0.406600
O O12 0.102442 0.373546 0.313323
O O13 0.010516 0.329721 0.481580
O O14 0.895031 0.579326 0.120958
O O15 0.950496 0.481388 0.158601
O O16 0.000000 0.572855 0.750000
#
# Coordination Sequence:
#
# PCOD9276053 Si02
#       7
#     8   8   8   8   8   8   8
#     4   9  20  38  60  95 124 155 221 274 318 385
#     4  12  25  45  66  93 136 176 219 269 321 401
#     4  10  20  39  67  94 121 168 214 273 332 384
#     4  11  24  42  64  96 131 167 222 268 334 391
#     4  10  21  39  65  92 125 166 214 275 326 384
#     4  11  24  42  63  94 132 171 213 276 326 396
#     4  11  22  39  66  93 126 172 214 271 328 392
#
# _framework density 21.274004999999999
#
# number of rings (size 3 to 8) (size 9 to 14) (size 15 to 20)
#    0.000    1.429    4.286    1.286    0.000    5.143 
#    5.143    0.000    0.000    0.000    0.000    0.000 
#    0.000    0.000    0.000    0.000    0.000    0.000 
#
# Total GULP energy -156122.648224 kJ/mol
# GULP energy per Si atom -5575.808865 kJ/mol
# Density = 2.122558 g / cm^3
# Si number density = 21.274005 Si / 1000 Ang^3
#
#
#
# Elastic Constant Matrix: (Units=GPa)
#
#
# Indices 1 2 3 4 5 6 
#
# 1 66.7632 16.0320 33.3109 0.0092 -9.7043 -0.0031
# 2 16.0320 93.9138 -2.3536 0.0101 -8.9511 -0.0090
# 3 33.3109 -2.3536 91.5263 0.0357 -24.7284 -0.0357
# 4 0.0092 0.0101 0.0357 21.1198 -0.0088 -1.3906
# 5 -9.7043 -8.9511 -24.7284 -0.0088 31.7426 -0.0004
# 6 -0.0031 -0.0090 -0.0357 -1.3906 -0.0004 20.4700
#
#
#
# Elastic Compliance Matrix: (Units=1/GPa)
#
#
# Indices 1 2 3 4 5 6 
#
# 1 0.019396 -0.003574 -0.007373 0.000005 -0.000822 -0.000011
# 2 -0.003574 0.011747 0.002790 -0.000006 0.004393 0.000009
# 3 -0.007373 0.002790 0.016826 -0.000020 0.011641 0.000028
# 4 0.000005 -0.000006 -0.000020 0.047562 -0.000003 0.003231
# 5 -0.000822 0.004393 0.011641 -0.000003 0.041559 0.000023
# 6 -0.000011 0.000009 0.000028 0.003231 0.000023 0.049071
#
#
# Mechanical properties :
#
#
# Convention : Reuss Voigt Hill
#
# Bulk Modulus (GPa) = 31.59180 38.46464 35.02822
# Shear Modulus (GPa) = 23.47118 28.34744 25.90931
#
# Velocity S-wave (km/s) = 3.32517 3.65429 3.49361
# Velocity P-wave (km/s) = 5.44284 5.99374 5.72492
#
# Compressibility (1/GPa) = 0.03165378
#
# Stress axis : x y z
#
# Youngs Moduli (GPa) = 51.55738 85.12922 59.43165
#
# Poissons Ratio (x) = 0.30427 0.43820
# Poissons Ratio (y) = 0.18428 -0.16580
# Poissons Ratio (z) = 0.38014 -0.23750
#
# Static dielectric constant tensor:
#      x y z
#    x 1.784720 0.000000 -0.000120 
#    y 0.000000 1.886370 0.000000 
#    z -0.000120 0.000000 1.790700 
# 
# From -- ./inp_files/240754.got.cif
#   From: 2010.05.17/outbox.cif.g08.bks.cpg/sg15_121_cif.got.tgz:240754.got - 2010.06.03 18:47:42.
