data_PCOD9276893
_publ_section_title
;
Structure prediction by ZEFSAII (Michael W. Deem and Ramdas Pophale) SiO2 
 PCOD9276893
Probable space group: C 2/C
;
_chemical_formula_sum "Si O2"
_cell_formula_units_Z 52
_cell_length_a 14.194914
_cell_length_b 15.154295
_cell_length_c 17.697993
_cell_angle_alpha 90.000000
_cell_angle_beta 137.774590
_cell_angle_gamma 90.000000
_cell_volume 2558.547597
_symmetry_space_group_name_H-M "C 2/C"
_symmetry_group_IT_number 15
_symmetry_cell_setting 'monoclinic'
loop_
_space_group_symop_operation_xyz
x,y,z
-x,y,1/2-z
-x,-y,-z
x,-y,1/2+z
1/2+x,1/2+y,z
1/2-x,1/2+y,1/2-z
1/2-x,1/2-y,-z
1/2+x,1/2-y,1/2+z
loop_
_atom_site_type_symbol
_atom_site_label
_atom_site_fract_x
_atom_site_fract_y
_atom_site_fract_z
Si Si1 0.314717 0.584560 0.578954
Si Si2 0.751098 0.645621 0.669214
Si Si3 0.864174 0.963383 0.873995
Si Si4 0.000000 0.748591 0.750000
Si Si5 0.118168 0.827108 0.240567
Si Si6 0.598551 0.608602 0.420673
Si Si7 0.848678 0.643875 0.153209
O O1 0.298572 0.601801 0.658399
O O2 0.463292 0.630391 0.644380
O O3 0.328203 0.481545 0.565016
O O4 0.197715 0.634460 0.460869
O O5 0.738642 0.546498 0.695268
O O6 0.901470 0.687181 0.742883
O O7 0.671046 0.696013 0.688658
O O8 0.672642 0.641034 0.541782
O O9 0.777764 0.898066 0.874861
O O10 0.937506 0.918451 0.845876
O O11 0.000000 0.000000 0.000000
O O12 0.906838 0.813757 0.643149
O O13 0.131033 0.739545 0.298426
O O14 0.000000 0.597566 0.250000
#
# Coordination Sequence:
#
# PCOD9276893 Si02
#       7
#     8   8   8   4   8   8   8
#     4  11  21  43  67  98 133 176 226 264 335 415
#     4  11  23  42  64  97 128 172 217 273 339 388
#     4  10  20  40  66  88 125 183 222 256 332 420
#     4  12  26  40  68 102 132 162 226 294 330 386
#     4  11  23  38  67 102 132 170 222 281 325 406
#     4  11  22  45  71  87 127 182 225 265 324 418
#     4  12  23  38  65 101 133 172 218 283 340 387
#
# _framework density 20.32403
#
# number of rings (size 3 to 8) (size 9 to 14) (size 15 to 20)
#    0.000    0.923    6.154    3.692    1.077    0.000 
#    0.000    0.000    0.000    1.846    0.000    0.000 
#    0.000    0.000    0.000    0.000    0.000    0.000 
#
# Total GULP energy -144980.974443 kJ/mol
# GULP energy per Si atom -5576.191325 kJ/mol
# Density = 2.027777 g / cm^3
# Si number density = 20.324030 Si / 1000 Ang^3
#
#
#
# Elastic Constant Matrix: (Units=GPa)
#
#
# Indices 1 2 3 4 5 6 
#
# 1 77.3808 30.7944 17.9270 0.0000 -5.0900 0.0000
# 2 30.7944 81.0638 27.9550 0.0000 3.0810 0.0000
# 3 17.9270 27.9550 104.6951 0.0001 -8.3388 0.0000
# 4 0.0000 0.0000 0.0001 21.6389 0.0000 0.7616
# 5 -5.0900 3.0810 -8.3388 0.0000 24.6561 0.0000
# 6 0.0000 0.0000 0.0000 0.7616 0.0000 21.8069
#
#
#
# Elastic Compliance Matrix: (Units=1/GPa)
#
#
# Indices 1 2 3 4 5 6 
#
# 1 0.015669 -0.005802 -0.000841 0.000000 0.003675 0.000000
# 2 -0.005802 0.015956 -0.003619 0.000000 -0.004415 0.000000
# 3 -0.000841 -0.003619 0.010980 0.000000 0.003992 0.000000
# 4 0.000000 0.000000 0.000000 0.046270 0.000000 -0.001616
# 5 0.003675 -0.004415 0.003992 0.000000 0.043218 0.000000
# 6 0.000000 0.000000 0.000000 -0.001616 0.000000 0.045913
#
#
# Mechanical properties :
#
#
# Convention : Reuss Voigt Hill
#
# Bulk Modulus (GPa) = 45.28775 46.27694 45.78234
# Shear Modulus (GPa) = 24.28493 26.05128 25.16810
#
# Velocity S-wave (km/s) = 3.46046 3.58410 3.52283
# Velocity P-wave (km/s) = 6.18851 6.32034 6.25477
#
# Compressibility (1/GPa) = 0.02208103
#
# Stress axis : x y z
#
# Youngs Moduli (GPa) = 63.82201 62.67376 91.07696
#
# Poissons Ratio (x) = 0.36362 0.07660
# Poissons Ratio (y) = 0.37028 0.32957
# Poissons Ratio (z) = 0.05368 0.22679
#
# Static dielectric constant tensor:
#      x y z
#    x 1.820380 0.000000 -0.040760 
#    y 0.000000 1.784930 0.000000 
#    z -0.040760 0.000000 1.757390 
# 
# From -- ./inp_files/205765.got.cif
#   From: 2010.05.17/outbox.cif.g08.bks.cpg/sg15_103_cif.got.tgz:205765.got - 2010.06.03 18:47:42.
