data_PCOD9276823
_publ_section_title
;
Structure prediction by ZEFSAII (Michael W. Deem and Ramdas Pophale) SiO2 
 PCOD9276823
Probable space group: C 2/C
;
_chemical_formula_sum "Si O2"
_cell_formula_units_Z 60
_cell_length_a 12.407283
_cell_length_b 13.504024
_cell_length_c 21.381112
_cell_angle_alpha 90.000000
_cell_angle_beta 60.176111
_cell_angle_gamma 90.000000
_cell_volume 3107.912486
_symmetry_space_group_name_H-M "C 2/C"
_symmetry_group_IT_number 15
_symmetry_cell_setting 'monoclinic'
loop_
_space_group_symop_operation_xyz
x,y,z
-x,y,1/2-z
-x,-y,-z
x,-y,1/2+z
1/2+x,1/2+y,z
1/2-x,1/2+y,1/2-z
1/2-x,1/2-y,-z
1/2+x,1/2-y,1/2+z
loop_
_atom_site_type_symbol
_atom_site_label
_atom_site_fract_x
_atom_site_fract_y
_atom_site_fract_z
Si Si1 0.763726 0.604385 0.271358
Si Si2 0.182559 0.949818 0.396423
Si Si3 0.634967 0.582834 0.180321
Si Si4 0.408347 0.379744 0.487741
Si Si5 0.831803 0.273443 0.415600
Si Si6 0.903181 0.738051 0.607419
Si Si7 0.327610 0.634789 0.878348
Si Si8 0.000000 0.718337 0.250000
O O1 0.739493 0.508515 0.321514
O O2 0.733129 0.582415 0.208647
O O3 0.666135 0.686690 0.325235
O O4 0.899186 0.650119 0.244234
O O5 0.268434 0.860833 0.394666
O O6 0.043367 0.911390 0.422824
O O7 0.159963 0.028157 0.459139
O O8 0.500000 0.595136 0.250000
O O9 0.660279 0.673916 0.127398
O O10 0.636552 0.478573 0.144129
O O11 0.429929 0.300981 0.536689
O O12 0.329005 0.345217 0.451739
O O13 0.750000 0.250000 0.500000
O O14 0.970416 0.299247 0.398618
O O15 0.804353 0.656010 0.615639
O O16 0.424487 0.710197 0.818441
#
# Coordination Sequence:
#
# PCOD9276823 Si02
#       8
#     8   8   8   8   8   8   8   4
#     4  10  23  42  60  93 124 167 212 260 322 378
#     4  10  22  38  67  90 127 163 209 262 317 386
#     4  12  24  42  64  93 131 172 217 263 320 397
#     4  10  20  40  65  92 121 168 208 253 320 394
#     4  12  24  42  66 100 129 172 218 265 322 383
#     4  10  22  41  63  92 127 162 211 266 315 379
#     4  11  23  39  65  92 122 168 212 263 321 380
#     4  10  24  40  62  88 130 158 212 266 316 384
#
# _framework density 19.305561999999998
#
# number of rings (size 3 to 8) (size 9 to 14) (size 15 to 20)
#    0.000    1.333    3.333    2.000    3.733    2.133 
#    1.200    2.667    0.000    0.000    0.000    0.000 
#    0.000    0.000    0.000    0.000    0.000    0.000 
#
# Total GULP energy -167708.954321 kJ/mol
# GULP energy per Si atom -5590.298477 kJ/mol
# Density = 1.926162 g / cm^3
# Si number density = 19.305562 Si / 1000 Ang^3
#
#
#
# Elastic Constant Matrix: (Units=GPa)
#
#
# Indices 1 2 3 4 5 6 
#
# 1 111.4683 40.1160 53.6457 0.0000 -2.7792 0.0000
# 2 40.1160 100.0473 46.1739 0.0000 -5.1687 0.0000
# 3 53.6457 46.1739 58.8517 0.0000 1.7444 0.0000
# 4 0.0000 0.0000 0.0000 16.8974 0.0000 -15.6246
# 5 -2.7792 -5.1687 1.7444 0.0000 30.3173 0.0000
# 6 0.0000 0.0000 0.0000 -15.6246 0.0000 9.2690
#
#
#
# Elastic Compliance Matrix: (Units=1/GPa)
#
#
# Indices 1 2 3 4 5 6 
#
# 1 0.016181 0.000756 -0.015417 0.000000 0.002499 0.000000
# 2 0.000756 0.016059 -0.013395 0.000000 0.003578 0.000000
# 3 -0.015417 -0.013395 0.041735 0.000000 -0.006098 0.000000
# 4 0.000000 0.000000 0.000000 -0.105924 0.000000 -0.178555
# 5 0.002499 0.003578 -0.006098 0.000000 0.034174 0.000000
# 6 0.000000 0.000000 0.000000 -0.178555 0.000000 -0.193100
#
#
# Mechanical properties :
#
#
# Convention : Reuss Voigt Hill
#
# Bulk Modulus (GPa) = 55.97925 61.13761 58.55843
# Shear Modulus (GPa) = -38.81739 19.99219 -9.41260
#
# Velocity S-wave (km/s) = -4.48893 3.22151 -2.21047
# Velocity P-wave (km/s) = 1.48056 6.75090 4.88706
#
# Compressibility (1/GPa) = 0.01786376
#
# Stress axis : x y z
#
# Youngs Moduli (GPa) = 61.80092 62.27079 23.96049
#
# Poissons Ratio (x) = -0.04710 0.36940
# Poissons Ratio (y) = -0.04674 0.32095
# Poissons Ratio (z) = 0.95279 0.83412
#
# Static dielectric constant tensor:
#      x y z
#    x 1.663660 0.000000 -0.003730 
#    y 0.000000 1.654700 0.000000 
#    z -0.003730 0.000000 1.651640 
# 
# From -- ./inp_files/238715.got.cif
#   From: 2010.05.17/outbox.cif.g08.bks.cpg/sg15_120_cif.got.tgz:238715.got - 2010.06.03 18:47:42.
