data_PCOD9276177
_publ_section_title
;
Structure prediction by ZEFSAII (Michael W. Deem and Ramdas Pophale) SiO2 
 PCOD9276177
Probable space group: C 2/C
;
_chemical_formula_sum "Si O2"
_cell_formula_units_Z 32
_cell_length_a 12.463589
_cell_length_b 14.380710
_cell_length_c 9.113558
_cell_angle_alpha 90.000000
_cell_angle_beta 129.697584
_cell_angle_gamma 90.000000
_cell_volume 1256.835802
_symmetry_space_group_name_H-M "C 2/C"
_symmetry_group_IT_number 15
_symmetry_cell_setting 'monoclinic'
loop_
_space_group_symop_operation_xyz
x,y,z
-x,y,1/2-z
-x,-y,-z
x,-y,1/2+z
1/2+x,1/2+y,z
1/2-x,1/2+y,1/2-z
1/2-x,1/2-y,-z
1/2+x,1/2-y,1/2+z
loop_
_atom_site_type_symbol
_atom_site_label
_atom_site_fract_x
_atom_site_fract_y
_atom_site_fract_z
Si Si1 0.310797 0.432893 0.835488
Si Si2 0.090996 0.269875 0.570663
Si Si3 0.000000 0.864685 0.750000
Si Si4 0.082102 0.424798 0.167361
Si Si5 0.000000 0.853837 0.250000
O O1 0.201560 0.351896 0.692388
O O2 0.418654 0.427144 0.796132
O O3 0.234663 0.530760 0.798335
O O4 0.389009 0.405886 0.051850
O O5 0.097948 0.204453 0.433252
O O6 0.941701 0.323753 0.422000
O O7 0.084593 0.208865 0.709163
O O8 0.000000 0.422275 0.250000
O O9 0.000000 0.500000 0.000000
#
# Coordination Sequence:
#
# PCOD9276177 Si02
#       5
#     8   8   4   8   4
#     4  10  22  39  67 103 146 177 239 290 354 429
#     4  10  20  39  70 105 131 183 247 291 340 420
#     4  10  20  40  67 107 136 190 226 302 362 404
#     4  10  22  41  68 106 132 184 241 293 343 415
#     4  10  22  40  69 107 138 186 224 304 360 404
#
# _framework density 25.460764000000001
#
# number of rings (size 3 to 8) (size 9 to 14) (size 15 to 20)
#    0.000    2.000    1.250    1.500    7.000    0.000 
#    0.000    5.000    0.000   18.000   13.000    0.000 
#    0.000    0.000    0.000    0.000    0.000    0.000 
#
# Total GULP energy -89652.913348 kJ/mol
# GULP energy per Si atom -5603.307084 kJ/mol
# Density = 2.540281 g / cm^3
# Si number density = 25.460764 Si / 1000 Ang^3
#
#
#
# Elastic Constant Matrix: (Units=GPa)
#
#
# Indices 1 2 3 4 5 6 
#
# 1 121.8045 71.7894 79.4780 0.0000 -5.8428 0.0000
# 2 71.7894 124.5316 75.5871 0.0000 0.0732 0.0000
# 3 79.4780 75.5871 171.8852 0.0000 -28.1629 0.0000
# 4 0.0000 0.0000 0.0000 64.3813 0.0000 91.8047
# 5 -5.8428 0.0732 -28.1629 0.0000 40.1003 0.0000
# 6 0.0000 0.0000 0.0000 91.8047 0.0000 177.0484
#
#
#
# Elastic Compliance Matrix: (Units=1/GPa)
#
#
# Indices 1 2 3 4 5 6 
#
# 1 0.014275 -0.005636 -0.004271 0.000000 -0.000909 0.000000
# 2 -0.005636 0.013730 -0.004035 0.000000 -0.003680 0.000000
# 3 -0.004271 -0.004035 0.010697 0.000000 0.006898 0.000000
# 4 0.000000 0.000000 0.000000 0.059602 0.000000 -0.030905
# 5 -0.000909 -0.003680 0.006898 0.000000 0.029656 0.000000
# 6 0.000000 0.000000 0.000000 -0.030905 0.000000 0.021673
#
#
# Mechanical properties :
#
#
# Convention : Reuss Voigt Hill
#
# Bulk Modulus (GPa) = 92.43471 96.88112 94.65792
# Shear Modulus (GPa) = 27.60527 69.06379 48.33453
#
# Velocity S-wave (km/s) = 3.29633 5.21387 4.36178
# Velocity P-wave (km/s) = 7.13241 8.62437 7.91363
#
# Compressibility (1/GPa) = 0.01081845
#
# Stress axis : x y z
#
# Youngs Moduli (GPa) = 70.05223 72.83095 93.48186
#
# Poissons Ratio (x) = 0.41049 0.39927
# Poissons Ratio (y) = 0.39483 0.37718
# Poissons Ratio (z) = 0.29920 0.29386
#
# Static dielectric constant tensor:
#      x y z
#    x 2.036290 0.000000 0.098180 
#    y 0.000000 1.982220 0.000000 
#    z 0.098180 0.000000 1.999920 
# 
# From -- ./inp_files/28921.got.cif
#   From: 2010.05.17/outbox.cif.g08.bks.cpg/sg15_15_cif.got.tgz:28921.got - 2010.06.03 18:47:42.
