data_PCOD9276665
_publ_section_title
;
Structure prediction by ZEFSAII (Michael W. Deem and Ramdas Pophale) SiO2 
 PCOD9276665
Probable space group: C 2/C
;
_chemical_formula_sum "Si O2"
_cell_formula_units_Z 36
_cell_length_a 8.283603
_cell_length_b 10.757077
_cell_length_c 30.707328
_cell_angle_alpha 90.000000
_cell_angle_beta 39.053009
_cell_angle_gamma 90.000000
_cell_volume 1723.943785
_symmetry_space_group_name_H-M "C 2/C"
_symmetry_group_IT_number 15
_symmetry_cell_setting 'monoclinic'
loop_
_space_group_symop_operation_xyz
x,y,z
-x,y,1/2-z
-x,-y,-z
x,-y,1/2+z
1/2+x,1/2+y,z
1/2-x,1/2+y,1/2-z
1/2-x,1/2-y,-z
1/2+x,1/2-y,1/2+z
loop_
_atom_site_type_symbol
_atom_site_label
_atom_site_fract_x
_atom_site_fract_y
_atom_site_fract_z
Si Si1 0.932253 0.613927 0.047393
Si Si2 0.649053 0.855352 0.668149
Si Si3 0.500000 0.359769 0.250000
Si Si4 0.122805 0.135012 0.474274
Si Si5 0.121373 0.047409 0.300639
O O1 0.155751 0.626715 0.036063
O O2 0.665108 0.591863 0.128459
O O3 0.938421 0.747631 0.022082
O O4 0.000000 0.500000 0.000000
O O5 0.706136 0.730737 0.683663
O O6 0.758554 0.846812 0.598013
O O7 0.761732 0.966727 0.674647
O O8 0.341252 0.867571 0.732280
O O9 0.601504 0.438662 0.269347
O O10 0.000000 0.000000 0.500000
#
# Coordination Sequence:
#
# PCOD9276665 Si02
#       5
#     8   8   4   8   8
#     4  11  24  42  66  97 130 170 218 264 322 386
#     4  10  24  41  61  95 126 163 215 262 318 381
#     4  10  20  40  64  88 126 164 208 264 316 370
#     4  11  25  43  65  96 133 171 214 266 323 386
#     4  10  21  39  64  89 121 166 209 260 316 374
#
# _framework density 20.882349999999999
#
# number of rings (size 3 to 8) (size 9 to 14) (size 15 to 20)
#    0.000    1.778    0.000    4.000    0.000   12.444 
#    0.000   17.778    0.000    0.000    0.000    0.000 
#    0.000    0.000    0.000    0.000    0.000    0.000 
#
# Total GULP energy -100247.502172 kJ/mol
# GULP energy per Si atom -5569.305676 kJ/mol
# Density = 2.083482 g / cm^3
# Si number density = 20.882350 Si / 1000 Ang^3
#
#
#
# Elastic Constant Matrix: (Units=GPa)
#
#
# Indices 1 2 3 4 5 6 
#
# 1 78.5784 53.0587 43.9399 -0.0005 17.5728 0.0003
# 2 53.0587 138.9824 77.8356 -0.0004 13.5582 0.0002
# 3 43.9399 77.8356 155.3328 -0.0016 14.5219 0.0004
# 4 -0.0005 -0.0004 -0.0016 37.4555 0.0008 14.7814
# 5 17.5728 13.5582 14.5219 0.0008 50.7592 -0.0001
# 6 0.0003 0.0002 0.0004 14.7814 -0.0001 31.8234
#
#
#
# Elastic Compliance Matrix: (Units=1/GPa)
#
#
# Indices 1 2 3 4 5 6 
#
# 1 0.018585 -0.005496 -0.002095 0.000000 -0.004367 0.000000
# 2 -0.005496 0.011708 -0.004313 0.000000 0.000009 0.000000
# 3 -0.002095 -0.004313 0.009264 0.000000 -0.000773 0.000000
# 4 0.000000 0.000000 0.000000 0.032691 -0.000001 -0.015184
# 5 -0.004367 0.000009 -0.000773 -0.000001 0.021431 0.000000
# 6 0.000000 0.000000 0.000000 -0.015184 0.000000 0.038476
#
#
# Mechanical properties :
#
#
# Convention : Reuss Voigt Hill
#
# Bulk Modulus (GPa) = 63.49552 80.28466 71.89009
# Shear Modulus (GPa) = 31.01497 37.21158 34.11328
#
# Velocity S-wave (km/s) = 3.85804 4.22591 4.04616
# Velocity P-wave (km/s) = 7.09354 7.89561 7.50530
#
# Compressibility (1/GPa) = 0.01574914
#
# Stress axis : x y z
#
# Youngs Moduli (GPa) = 53.80608 85.41366 107.94648
#
# Poissons Ratio (x) = 0.46942 0.22617
# Poissons Ratio (y) = 0.29571 0.46556
# Poissons Ratio (z) = 0.11273 0.36838
#
# Static dielectric constant tensor:
#      x y z
#    x 1.814420 0.000000 -0.014450 
#    y 0.000000 1.812640 0.000000 
#    z -0.014450 0.000000 1.717330 
# 
# From -- ./inp_files/287473.got.cif
#   From: 2010.05.17/outbox.cif.g08.bks.cpg/sg15_144_cif.got.tgz:287473.got - 2010.06.03 18:47:42.
