data_PCOD9276675
_publ_section_title
;
Structure prediction by ZEFSAII (Michael W. Deem and Ramdas Pophale) SiO2 
 PCOD9276675
Probable space group: C 2/C
;
_chemical_formula_sum "Si O2"
_cell_formula_units_Z 48
_cell_length_a 16.160896
_cell_length_b 19.629358
_cell_length_c 8.892487
_cell_angle_alpha 90.000000
_cell_angle_beta 49.671125
_cell_angle_gamma 90.000000
_cell_volume 2150.526376
_symmetry_space_group_name_H-M "C 2/C"
_symmetry_group_IT_number 15
_symmetry_cell_setting 'monoclinic'
loop_
_space_group_symop_operation_xyz
x,y,z
-x,y,1/2-z
-x,-y,-z
x,-y,1/2+z
1/2+x,1/2+y,z
1/2-x,1/2+y,1/2-z
1/2-x,1/2-y,-z
1/2+x,1/2-y,1/2+z
loop_
_atom_site_type_symbol
_atom_site_label
_atom_site_fract_x
_atom_site_fract_y
_atom_site_fract_z
Si Si1 0.423911 0.696142 0.982242
Si Si2 0.232770 0.307044 0.212574
Si Si3 0.660118 0.512327 0.117955
Si Si4 0.740738 0.912474 0.710146
Si Si5 0.619806 0.179942 0.546491
Si Si6 0.406922 0.402150 0.088969
O O1 0.500000 0.707864 0.750000
O O2 0.496774 0.652815 0.013868
O O3 0.369842 0.765569 0.103692
O O4 0.322671 0.647435 0.064518
O O5 0.194628 0.339975 0.101179
O O6 0.292381 0.362673 0.242523
O O7 0.325394 0.250564 0.069804
O O8 0.705933 0.553157 0.205369
O O9 0.582192 0.456377 0.289374
O O10 0.755095 0.470074 0.921099
O O11 0.605725 0.559019 0.054347
O O12 0.633601 0.874721 0.896779
O O13 0.500000 0.187829 0.750000
#
# Coordination Sequence:
#
# PCOD9276675 Si02
#       6
#     8   8   8   8   8   8
#     4  11  23  39  62 100 131 169 217 266 330 386
#     4  10  22  40  63  94 130 167 215 270 325 386
#     4  10  22  39  67  92 132 176 208 272 317 392
#     4  10  21  40  61  93 129 163 223 259 328 379
#     4  10  20  40  64  89 122 171 217 269 321 383
#     4  11  22  41  66  96 134 170 216 264 330 384
#
# _framework density 22.320118000000001
#
# number of rings (size 3 to 8) (size 9 to 14) (size 15 to 20)
#    0.000    1.667    3.333    1.000    0.000    5.333 
#    3.000    0.833    0.000    0.000    0.000    0.000 
#    0.000    0.000    0.000    0.000    0.000    0.000 
#
# Total GULP energy -134119.368016 kJ/mol
# GULP energy per Si atom -5588.307001 kJ/mol
# Density = 2.226932 g / cm^3
# Si number density = 22.320118 Si / 1000 Ang^3
#
#
#
# Elastic Constant Matrix: (Units=GPa)
#
#
# Indices 1 2 3 4 5 6 
#
# 1 56.5960 31.4471 24.2577 0.0000 4.6803 0.0000
# 2 31.4471 62.5472 49.6375 0.0000 -5.2500 0.0000
# 3 24.2577 49.6375 145.1631 0.0000 -12.9613 0.0000
# 4 0.0000 0.0000 0.0000 39.2852 0.0000 -2.0522
# 5 4.6803 -5.2500 -12.9613 0.0000 37.3610 0.0000
# 6 0.0000 0.0000 0.0000 -2.0522 0.0000 28.2275
#
#
#
# Elastic Compliance Matrix: (Units=1/GPa)
#
#
# Indices 1 2 3 4 5 6 
#
# 1 0.025430 -0.013011 -0.000256 0.000000 -0.005103 0.000000
# 2 -0.013011 0.028608 -0.007331 0.000000 0.003107 0.000000
# 3 -0.000256 -0.007331 0.009648 0.000000 0.002349 0.000000
# 4 0.000000 0.000000 0.000000 0.025552 0.000000 0.001858
# 5 -0.005103 0.003107 0.002349 0.000000 0.028657 0.000000
# 6 0.000000 0.000000 0.000000 0.001858 0.000000 0.035562
#
#
# Mechanical properties :
#
#
# Convention : Reuss Voigt Hill
#
# Bulk Modulus (GPa) = 44.46247 52.77674 48.61960
# Shear Modulus (GPa) = 24.73437 31.57233 28.15335
#
# Velocity S-wave (km/s) = 3.33252 3.76510 3.55539
# Velocity P-wave (km/s) = 5.89671 6.52671 6.21969
#
# Compressibility (1/GPa) = 0.02249088
#
# Stress axis : x y z
#
# Youngs Moduli (GPa) = 39.32344 34.95566 103.64787
#
# Poissons Ratio (x) = 0.45479 0.02657
# Poissons Ratio (y) = 0.51162 0.75981
# Poissons Ratio (z) = 0.01008 0.25625
#
# Static dielectric constant tensor:
#      x y z
#    x 1.822600 0.000000 0.010550 
#    y 0.000000 1.858610 0.000000 
#    z 0.010550 0.000000 1.852200 
# 
# From -- ./inp_files/50051.got.cif
#   From: 2010.05.17/outbox.cif.g08.bks.cpg/sg15_26_cif.got.tgz:50051.got - 2010.06.03 18:47:42.
