data_PCOD9276526
_publ_section_title
;
Structure prediction by ZEFSAII (Michael W. Deem and Ramdas Pophale) SiO2 
 PCOD9276526
Probable space group: C 2/C
;
_chemical_formula_sum "Si O2"
_cell_formula_units_Z 36
_cell_length_a 8.454288
_cell_length_b 29.385504
_cell_length_c 11.788049
_cell_angle_alpha 90.000000
_cell_angle_beta 146.320731
_cell_angle_gamma 90.000000
_cell_volume 1624.006009
_symmetry_space_group_name_H-M "C 2/C"
_symmetry_group_IT_number 15
_symmetry_cell_setting 'monoclinic'
loop_
_space_group_symop_operation_xyz
x,y,z
-x,y,1/2-z
-x,-y,-z
x,-y,1/2+z
1/2+x,1/2+y,z
1/2-x,1/2+y,1/2-z
1/2-x,1/2-y,-z
1/2+x,1/2-y,1/2+z
loop_
_atom_site_type_symbol
_atom_site_label
_atom_site_fract_x
_atom_site_fract_y
_atom_site_fract_z
Si Si1 0.562403 0.564826 0.980256
Si Si2 0.293088 0.476743 0.717134
Si Si3 0.000000 0.237989 0.250000
Si Si4 0.000000 0.606179 0.750000
Si Si5 0.000000 0.863214 0.250000
Si Si6 0.035608 0.319054 0.455215
O O1 0.502112 0.517599 0.881076
O O2 0.258482 0.577169 0.856286
O O3 0.614138 0.604090 0.919242
O O4 0.766424 0.554811 0.208900
O O5 0.500000 0.451968 0.750000
O O6 0.000000 0.500000 0.500000
O O7 0.020580 0.274802 0.364614
O O8 0.211375 0.200317 0.317880
O O9 0.897200 0.638786 0.586655
O O10 0.747364 0.832674 0.148648
#
# Coordination Sequence:
#
# PCOD9276526 Si02
#       6
#     8   8   4   4   4   8
#     4  10  21  40  62  88 127 162 215 260 325 375
#     4  11  23  41  64  87 118 172 213 265 314 381
#     4   9  18  38  58  93 120 172 208 243 300 420
#     4   9  18  38  58  88 122 166 202 270 314 378
#     4  10  20  40  62  95 128 166 200 283 318 368
#     4   9  19  35  64  85 128 162 209 250 320 369
#
# _framework density 22.167404999999999
#
# number of rings (size 3 to 8) (size 9 to 14) (size 15 to 20)
#    0.000    2.222    1.111    1.333    0.000    3.556 
#   10.000    0.000    4.889    0.000    0.000    0.000 
#    0.000    0.000    0.000    0.000    0.000    0.000 
#
# Total GULP energy -100280.948260 kJ/mol
# GULP energy per Si atom -5571.163792 kJ/mol
# Density = 2.211695 g / cm^3
# Si number density = 22.167405 Si / 1000 Ang^3
#
#
#
# Elastic Constant Matrix: (Units=GPa)
#
#
# Indices 1 2 3 4 5 6 
#
# 1 136.0036 48.2450 26.2684 0.0000 -7.2919 0.0000
# 2 48.2450 93.3436 23.1261 0.0000 5.2070 0.0000
# 3 26.2684 23.1261 57.4146 0.0000 -5.4832 0.0000
# 4 0.0000 0.0000 0.0000 -64.0466 0.0000 59.1600
# 5 -7.2919 5.2070 -5.4832 0.0000 21.9711 0.0000
# 6 0.0000 0.0000 0.0000 59.1600 0.0000 14.0304
#
#
#
# Elastic Compliance Matrix: (Units=1/GPa)
#
#
# Indices 1 2 3 4 5 6 
#
# 1 0.009621 -0.004643 -0.002173 0.000000 0.003751 0.000000
# 2 -0.004643 0.014516 -0.004301 0.000000 -0.006055 0.000000
# 3 -0.002173 -0.004301 0.020665 0.000000 0.005455 0.000000
# 4 0.000000 0.000000 0.000000 -0.003190 0.000000 0.013450
# 5 0.003751 -0.006055 0.005455 0.000000 0.049555 0.000000
# 6 0.000000 0.000000 0.000000 0.013450 0.000000 0.014561
#
#
# Mechanical properties :
#
#
# Convention : Reuss Voigt Hill
#
# Bulk Modulus (GPa) = 44.31224 53.56008 48.93616
# Shear Modulus (GPa) = 36.90428 6.99914 21.95171
#
# Velocity S-wave (km/s) = 4.08462 1.77884 3.15027
# Velocity P-wave (km/s) = 6.50221 5.33227 5.94608
#
# Compressibility (1/GPa) = 0.02256713
#
# Stress axis : x y z
#
# Youngs Moduli (GPa) = 103.94197 68.88788 48.39155
#
# Poissons Ratio (x) = 0.31987 0.10516
# Poissons Ratio (y) = 0.48264 0.20812
# Poissons Ratio (z) = 0.22588 0.29628
#
# Static dielectric constant tensor:
#      x y z
#    x 1.946590 0.000000 -0.044570 
#    y 0.000000 1.732260 0.000000 
#    z -0.044570 0.000000 3.086800 
# 
# From -- ./inp_files/80435.got.cif
#   From: 2010.05.17/outbox.cif.g08.bks.cpg/sg15_41_cif.got.tgz:80435.got - 2010.06.03 18:47:42.
