data_PCOD9276429
_publ_section_title
;
Structure prediction by ZEFSAII (Michael W. Deem and Ramdas Pophale) SiO2 
 PCOD9276429
Probable space group: C 2/C
;
_chemical_formula_sum "Si O2"
_cell_formula_units_Z 52
_cell_length_a 26.478409
_cell_length_b 13.915127
_cell_length_c 7.734637
_cell_angle_alpha 90.000000
_cell_angle_beta 69.707618
_cell_angle_gamma 90.000000
_cell_volume 2672.955721
_symmetry_space_group_name_H-M "C 2/C"
_symmetry_group_IT_number 15
_symmetry_cell_setting 'monoclinic'
loop_
_space_group_symop_operation_xyz
x,y,z
-x,y,1/2-z
-x,-y,-z
x,-y,1/2+z
1/2+x,1/2+y,z
1/2-x,1/2+y,1/2-z
1/2-x,1/2-y,-z
1/2+x,1/2-y,1/2+z
loop_
_atom_site_type_symbol
_atom_site_label
_atom_site_fract_x
_atom_site_fract_y
_atom_site_fract_z
Si Si1 0.618747 0.228022 0.170846
Si Si2 0.976767 0.898433 0.589468
Si Si3 0.288568 0.107763 0.319433
Si Si4 0.000000 0.754256 0.250000
Si Si5 0.646311 0.642517 0.308242
Si Si6 0.269970 0.465164 0.292328
Si Si7 0.820773 0.783780 0.078238
O O1 0.657703 0.136244 0.142042
O O2 0.557057 0.202277 0.208070
O O3 0.629228 0.278777 0.345411
O O4 0.639476 0.300876 0.997431
O O5 0.993070 0.820995 0.426404
O O6 0.912109 0.900233 0.669856
O O7 0.000000 0.875580 0.750000
O O8 0.000000 0.000000 0.500000
O O9 0.242245 0.089446 0.515026
O O10 0.282990 0.198174 0.195357
O O11 0.285364 0.012961 0.208082
O O12 0.687719 0.553085 0.254573
O O13 0.661832 0.718720 0.140102
O O14 0.291389 0.384361 0.139741
#
# Coordination Sequence:
#
# PCOD9276429 Si02
#       7
#     8   8   8   4   8   8   8
#     4   9  23  42  61  91 124 158 210 256 305 365
#     4  11  23  33  55  88 125 161 207 249 303 377
#     4  10  25  40  62  89 127 162 210 261 305 379
#     4  10  20  40  62  82 120 166 198 262 308 352
#     4  11  24  36  63  88 123 174 205 247 314 375
#     4  12  22  39  61  89 125 170 203 251 320 368
#     4  10  23  40  60  88 128 159 210 258 297 375
#
# _framework density 19.45412
#
# number of rings (size 3 to 8) (size 9 to 14) (size 15 to 20)
#    0.923    0.615    2.308    2.308    6.462    1.846 
#    0.000    0.000    0.000    0.923    0.000    0.000 
#    0.000    0.000    0.000    0.000    0.000    0.000 
#
# Total GULP energy -144942.257619 kJ/mol
# GULP energy per Si atom -5574.702216 kJ/mol
# Density = 1.940984 g / cm^3
# Si number density = 19.454120 Si / 1000 Ang^3
#
#
#
# Elastic Constant Matrix: (Units=GPa)
#
#
# Indices 1 2 3 4 5 6 
#
# 1 138.0391 42.0297 33.1748 0.0000 -9.1677 0.0000
# 2 42.0297 29.0745 -1.7640 0.0000 -10.6688 0.0000
# 3 33.1748 -1.7640 64.3943 0.0000 -3.2952 0.0000
# 4 0.0000 0.0000 0.0000 25.1298 0.0000 0.1299
# 5 -9.1677 -10.6688 -3.2952 0.0000 26.5307 0.0000
# 6 0.0000 0.0000 0.0000 0.1299 0.0000 26.1468
#
#
#
# Elastic Compliance Matrix: (Units=1/GPa)
#
#
# Indices 1 2 3 4 5 6 
#
# 1 0.018436 -0.029853 -0.010672 0.000000 -0.006959 0.000000
# 2 -0.029853 0.088931 0.019240 0.000000 0.027836 0.000000
# 3 -0.010672 0.019240 0.021901 0.000000 0.006769 0.000000
# 4 0.000000 0.000000 0.000000 0.039794 0.000000 -0.000198
# 5 -0.006959 0.027836 0.006769 0.000000 0.047322 0.000000
# 6 0.000000 0.000000 0.000000 -0.000198 0.000000 0.038247
#
#
# Mechanical properties :
#
#
# Convention : Reuss Voigt Hill
#
# Bulk Modulus (GPa) = 11.53419 42.04320 26.78870
# Shear Modulus (GPa) = 15.33277 26.09927 20.71602
#
# Velocity S-wave (km/s) = 2.81045 3.66673 3.26677
# Velocity P-wave (km/s) = 4.05873 6.29166 5.29425
#
# Compressibility (1/GPa) = 0.08669879
#
# Stress axis : x y z
#
# Youngs Moduli (GPa) = 54.24074 11.24473 45.66042
#
# Poissons Ratio (x) = 0.33568 0.48729
# Poissons Ratio (y) = 1.61923 -0.87851
# Poissons Ratio (z) = 0.57886 -0.21635
#
# Static dielectric constant tensor:
#      x y z
#    x 1.740050 0.000000 0.032310 
#    y 0.000000 1.650970 0.000000 
#    z 0.032310 0.000000 1.736200 
# 
# From -- ./inp_files/65380.got.cif
#   From: 2010.05.17/outbox.cif.g08.bks.cpg/sg15_33_cif.got.tgz:65380.got - 2010.06.03 18:47:42.
