data_PCOD9276796
_publ_section_title
;
Structure prediction by ZEFSAII (Michael W. Deem and Ramdas Pophale) SiO2 
 PCOD9276796
Probable space group: C 2/C
;
_chemical_formula_sum "Si O2"
_cell_formula_units_Z 56
_cell_length_a 8.219016
_cell_length_b 23.598663
_cell_length_c 17.117618
_cell_angle_alpha 90.000000
_cell_angle_beta 54.661277
_cell_angle_gamma 90.000000
_cell_volume 2708.357353
_symmetry_space_group_name_H-M "C 2/C"
_symmetry_group_IT_number 15
_symmetry_cell_setting 'monoclinic'
loop_
_space_group_symop_operation_xyz
x,y,z
-x,y,1/2-z
-x,-y,-z
x,-y,1/2+z
1/2+x,1/2+y,z
1/2-x,1/2+y,1/2-z
1/2-x,1/2-y,-z
1/2+x,1/2-y,1/2+z
loop_
_atom_site_type_symbol
_atom_site_label
_atom_site_fract_x
_atom_site_fract_y
_atom_site_fract_z
Si Si1 0.253153 0.043118 0.985633
Si Si2 0.814372 0.608748 0.125037
Si Si3 0.870653 0.502939 0.207355
Si Si4 0.032416 0.939261 0.387400
Si Si5 0.547080 0.265423 0.963697
Si Si6 0.236316 0.656532 0.976725
Si Si7 0.860574 0.228477 0.350364
O O1 0.148185 0.068571 0.937715
O O2 0.474044 0.022921 0.898409
O O3 0.257037 0.086788 0.055232
O O4 0.124995 0.989433 0.050630
O O5 0.776691 0.560227 0.198808
O O6 0.710862 0.668981 0.166720
O O7 0.051053 0.618995 0.055815
O O8 0.694720 0.460562 0.280371
O O9 0.000000 0.514609 0.250000
O O10 0.910761 0.883742 0.397928
O O11 0.652276 0.203832 0.940697
O O12 0.488215 0.281097 0.892880
O O13 0.684803 0.309545 0.969953
O O14 0.339711 0.260362 0.068848
O O15 0.000000 0.259818 0.250000
#
# Coordination Sequence:
#
# PCOD9276796 Si02
#       7
#     8   8   8   8   8   8   8
#     4  10  21  39  56  84 131 164 198 254 302 374
#     4  11  22  37  62  89 123 159 203 253 308 366
#     4  10  22  37  55  89 129 165 210 251 295 381
#     4  10  21  37  62  86 123 168 201 248 314 360
#     4   9  21  43  65  89 124 154 214 261 315 370
#     4  10  20  40  65  88 118 171 200 257 317 363
#     4  10  22  40  65  93 117 159 201 262 318 373
#
# _framework density 20.676739999999999
#
# number of rings (size 3 to 8) (size 9 to 14) (size 15 to 20)
#    0.000    2.000    1.429    1.286    2.000    1.143 
#    0.000   13.571    0.000    0.000    0.000    0.000 
#    0.000    0.000    0.000    0.000    0.000    0.000 
#
# Total GULP energy -156510.981697 kJ/mol
# GULP energy per Si atom -5589.677918 kJ/mol
# Density = 2.062968 g / cm^3
# Si number density = 20.676740 Si / 1000 Ang^3
#
#
#
# Elastic Constant Matrix: (Units=GPa)
#
#
# Indices 1 2 3 4 5 6 
#
# 1 77.7197 24.8891 27.0283 0.0000 -15.4384 0.0000
# 2 24.8891 44.9307 16.6543 0.0000 -7.6487 0.0000
# 3 27.0283 16.6543 87.3456 0.0000 -17.4605 0.0000
# 4 0.0000 0.0000 0.0000 8.5327 0.0000 2.4939
# 5 -15.4384 -7.6487 -17.4605 0.0000 16.8670 0.0000
# 6 0.0000 0.0000 0.0000 2.4939 0.0000 27.3767
#
#
#
# Elastic Compliance Matrix: (Units=1/GPa)
#
#
# Indices 1 2 3 4 5 6 
#
# 1 0.018153 -0.007419 -0.001959 0.000000 0.011223 0.000000
# 2 -0.007419 0.027809 -0.002324 0.000000 0.003414 0.000000
# 3 -0.001959 -0.002324 0.015042 0.000000 0.012724 0.000000
# 4 0.000000 0.000000 0.000000 0.120402 0.000000 -0.010968
# 5 0.011223 0.003414 0.012724 0.000000 0.084279 0.000000
# 6 0.000000 0.000000 0.000000 -0.010968 0.000000 0.037527
#
#
# Mechanical properties :
#
#
# Convention : Reuss Voigt Hill
#
# Bulk Modulus (GPa) = 26.59656 38.57106 32.58381
# Shear Modulus (GPa) = 14.74272 19.98357 17.36315
#
# Velocity S-wave (km/s) = 2.67312 3.11219 2.90098
# Velocity P-wave (km/s) = 4.73481 5.62220 5.19748
#
# Compressibility (1/GPa) = 0.03759885
#
# Stress axis : x y z
#
# Youngs Moduli (GPa) = 55.08590 35.95959 66.48209
#
# Poissons Ratio (x) = 0.26679 0.13025
# Poissons Ratio (y) = 0.40870 0.15452
# Poissons Ratio (z) = 0.10793 0.08358
#
# Static dielectric constant tensor:
#      x y z
#    x 1.745560 0.000000 -0.017030 
#    y 0.000000 1.727990 0.000000 
#    z -0.017030 0.000000 1.713150 
# 
# From -- ./inp_files/193191.got.cif
#   From: 2010.05.17/outbox.cif.g08.bks.cpg/sg15_97_cif.got.tgz:193191.got - 2010.06.03 18:47:42.
