data_PCOD9276347
_publ_section_title
;
Structure prediction by ZEFSAII (Michael W. Deem and Ramdas Pophale) SiO2 
 PCOD9276347
Probable space group: C 2/C
;
_chemical_formula_sum "Si O2"
_cell_formula_units_Z 56
_cell_length_a 8.153394
_cell_length_b 29.212691
_cell_length_c 13.268133
_cell_angle_alpha 90.000000
_cell_angle_beta 118.043997
_cell_angle_gamma 90.000000
_cell_volume 2789.184561
_symmetry_space_group_name_H-M "C 2/C"
_symmetry_group_IT_number 15
_symmetry_cell_setting 'monoclinic'
loop_
_space_group_symop_operation_xyz
x,y,z
-x,y,1/2-z
-x,-y,-z
x,-y,1/2+z
1/2+x,1/2+y,z
1/2-x,1/2+y,1/2-z
1/2-x,1/2-y,-z
1/2+x,1/2-y,1/2+z
loop_
_atom_site_type_symbol
_atom_site_label
_atom_site_fract_x
_atom_site_fract_y
_atom_site_fract_z
Si Si1 0.000000 0.223361 0.250000
Si Si2 0.425670 0.963366 0.339855
Si Si3 0.673191 0.616134 0.722623
Si Si4 0.820227 0.212416 0.864512
Si Si5 0.500000 0.777072 0.750000
Si Si6 0.716091 0.510024 0.439738
Si Si7 0.854637 0.826935 0.898907
Si Si8 0.053513 0.929018 0.520620
O O1 0.144950 0.257256 0.349191
O O2 0.096295 0.189776 0.198716
O O3 0.500000 0.975150 0.250000
O O4 0.338955 0.913018 0.316326
O O5 0.262917 0.995492 0.339169
O O6 0.599512 0.966334 0.464152
O O7 0.500000 0.621360 0.750000
O O8 0.741344 0.664868 0.703680
O O9 0.599579 0.586597 0.606405
O O10 0.902441 0.243959 0.800837
O O11 0.987504 0.197076 0.986316
O O12 0.648453 0.807379 0.854083
O O13 0.684377 0.463873 0.496865
O O14 0.545166 0.542798 0.418394
O O15 0.860515 0.881309 0.917665
#
# Coordination Sequence:
#
# PCOD9276347 Si02
#       8
#     4   8   8   8   4   8   8   8
#     4  10  22  40  58  94 126 162 198 252 314 380
#     4  11  22  38  59  91 121 151 199 263 306 368
#     4  11  20  36  62  89 116 154 204 259 306 359
#     4  10  21  37  65  91 120 159 205 254 315 361
#     4  10  20  40  60  92 122 162 200 250 308 378
#     4  10  22  40  60  88 123 159 204 254 310 365
#     4  10  22  40  62  87 125 161 208 252 303 370
#     4  10  21  41  60  85 122 163 204 253 301 364
#
# _framework density 20.077552000000001
#
# number of rings (size 3 to 8) (size 9 to 14) (size 15 to 20)
#    0.000    1.714    3.571    0.857    1.000    0.000 
#    3.857    4.286    0.000    0.000    0.000    0.000 
#    0.000    0.000    0.000    0.000    0.000    0.000 
#
# Total GULP energy -156197.387030 kJ/mol
# GULP energy per Si atom -5578.478108 kJ/mol
# Density = 2.003185 g / cm^3
# Si number density = 20.077552 Si / 1000 Ang^3
#
#
#
# Elastic Constant Matrix: (Units=GPa)
#
#
# Indices 1 2 3 4 5 6 
#
# 1 52.6465 19.9179 -2.0791 0.0000 -8.2833 0.0000
# 2 19.9179 123.9558 33.5982 0.0000 15.6805 0.0000
# 3 -2.0791 33.5982 37.4397 0.0000 8.7113 0.0000
# 4 0.0000 0.0000 0.0000 54.5395 0.0000 14.0011
# 5 -8.2833 15.6805 8.7113 0.0000 35.4952 0.0000
# 6 0.0000 0.0000 0.0000 14.0011 0.0000 20.9849
#
#
#
# Elastic Compliance Matrix: (Units=1/GPa)
#
#
# Indices 1 2 3 4 5 6 
#
# 1 0.022397 -0.005752 0.004877 0.000000 0.006571 0.000000
# 2 -0.005752 0.012352 -0.010417 0.000000 -0.004242 0.000000
# 3 0.004877 -0.010417 0.037112 0.000000 -0.003368 0.000000
# 4 0.000000 0.000000 0.000000 0.022125 0.000000 -0.014762
# 5 0.006571 -0.004242 -0.003368 0.000000 0.032407 0.000000
# 6 0.000000 0.000000 0.000000 -0.014762 0.000000 0.057502
#
#
# Mechanical properties :
#
#
# Convention : Reuss Voigt Hill
#
# Bulk Modulus (GPa) = 20.29344 35.21288 27.75316
# Shear Modulus (GPa) = 22.43109 33.04425 27.73767
#
# Velocity S-wave (km/s) = 3.34611 4.06128 3.72092
# Velocity P-wave (km/s) = 5.00581 6.29035 5.68448
#
# Compressibility (1/GPa) = 0.04927702
#
# Stress axis : x y z
#
# Youngs Moduli (GPa) = 44.64847 80.96016 26.94539
#
# Poissons Ratio (x) = 0.46568 -0.13140
# Poissons Ratio (y) = 0.25681 0.28068
# Poissons Ratio (z) = -0.21774 0.84334
#
# Static dielectric constant tensor:
#      x y z
#    x 1.792400 0.000000 0.027530 
#    y 0.000000 1.679500 0.000000 
#    z 0.027530 0.000000 1.724630 
# 
# From -- ./inp_files/138723.got.cif
#   From: 2010.05.17/outbox.cif.g08.bks.cpg/sg15_70_cif.got.tgz:138723.got - 2010.06.03 18:47:42.
