data_PCOD9276109
_publ_section_title
;
Structure prediction by ZEFSAII (Michael W. Deem and Ramdas Pophale) SiO2 
 PCOD9276109
Probable space group: C 2/C
;
_chemical_formula_sum "Si O2"
_cell_formula_units_Z 52
_cell_length_a 12.204126
_cell_length_b 24.776360
_cell_length_c 9.554115
_cell_angle_alpha 90.000000
_cell_angle_beta 67.178899
_cell_angle_gamma 90.000000
_cell_volume 2662.771116
_symmetry_space_group_name_H-M "C 2/C"
_symmetry_group_IT_number 15
_symmetry_cell_setting 'monoclinic'
loop_
_space_group_symop_operation_xyz
x,y,z
-x,y,1/2-z
-x,-y,-z
x,-y,1/2+z
1/2+x,1/2+y,z
1/2-x,1/2+y,1/2-z
1/2-x,1/2-y,-z
1/2+x,1/2-y,1/2+z
loop_
_atom_site_type_symbol
_atom_site_label
_atom_site_fract_x
_atom_site_fract_y
_atom_site_fract_z
Si Si1 0.437362 0.415843 0.142437
Si Si2 0.759526 0.304174 0.820756
Si Si3 0.747044 0.497688 0.290818
Si Si4 0.105535 0.895206 0.807453
Si Si5 0.401244 0.964724 0.971040
Si Si6 0.500000 0.131280 0.250000
Si Si7 0.140784 0.806079 0.188809
O O1 0.500000 0.439567 0.250000
O O2 0.361060 0.461139 0.102273
O O3 0.363063 0.363477 0.230167
O O4 0.541418 0.396779 0.989469
O O5 0.676141 0.339052 0.760531
O O6 0.786092 0.241899 0.773318
O O7 0.886904 0.333472 0.764806
O O8 0.699031 0.308194 0.005224
O O9 0.697621 0.555053 0.262492
O O10 0.845841 0.508399 0.359232
O O11 0.796687 0.463638 0.135889
O O12 0.000000 0.900951 0.750000
O O13 0.456376 0.908299 0.895774
O O14 0.500000 0.000000 0.000000
O O15 0.000000 0.791299 0.250000
#
# Coordination Sequence:
#
# PCOD9276109 Si02
#       7
#     8   8   8   8   8   4   8
#     4  11  21  39  61  90 121 160 211 256 307 366
#     4  11  21  39  65  95 121 161 211 260 309 375
#     4  12  23  38  60  88 126 168 206 260 309 372
#     4  12  23  39  60  94 129 164 205 259 321 366
#     4  12  22  39  57  86 126 164 211 249 310 372
#     4  12  22  38  62  90 124 168 210 252 310 368
#     4  10  20  39  68  93 119 156 214 265 308 361
#
# _framework density 19.528527
#
# number of rings (size 3 to 8) (size 9 to 14) (size 15 to 20)
#    0.000    0.615    6.923    3.692    0.000    0.000 
#    0.000    0.769    0.000    3.692    0.000    0.000 
#    0.000    0.000    0.000    0.000    0.000    0.000 
#
# Total GULP energy -145177.352621 kJ/mol
# GULP energy per Si atom -5583.744332 kJ/mol
# Density = 1.948408 g / cm^3
# Si number density = 19.528527 Si / 1000 Ang^3
#
#
#
# Elastic Constant Matrix: (Units=GPa)
#
#
# Indices 1 2 3 4 5 6 
#
# 1 106.9058 39.3971 18.3883 0.0000 11.3322 0.0000
# 2 39.3971 81.3939 -2.7214 0.0000 -2.3010 0.0000
# 3 18.3883 -2.7214 63.8133 0.0000 -7.6145 0.0000
# 4 0.0000 0.0000 0.0000 -86.2526 0.0000 109.5877
# 5 11.3322 -2.3010 -7.6145 0.0000 33.9696 0.0000
# 6 0.0000 0.0000 0.0000 109.5877 0.0000 -98.6774
#
#
#
# Elastic Compliance Matrix: (Units=1/GPa)
#
#
# Indices 1 2 3 4 5 6 
#
# 1 0.013319 -0.006778 -0.004842 0.000000 -0.005988 0.000000
# 2 -0.006778 0.015784 0.003107 0.000000 0.004027 0.000000
# 3 -0.004842 0.003107 0.017895 0.000000 0.005837 0.000000
# 4 0.000000 0.000000 0.000000 0.028207 0.000000 0.031326
# 5 -0.005988 0.004027 0.005837 0.000000 0.033017 0.000000
# 6 0.000000 0.000000 0.000000 0.031326 0.000000 0.024656
#
#
# Mechanical properties :
#
#
# Convention : Reuss Voigt Hill
#
# Bulk Modulus (GPa) = 33.36358 40.24900 36.80629
# Shear Modulus (GPa) = 31.27043 -17.05549 7.10747
#
# Velocity S-wave (km/s) = 4.00593 -2.95848 1.90983
# Velocity P-wave (km/s) = 6.20631 2.99750 4.87356
#
# Compressibility (1/GPa) = 0.02997280
#
# Stress axis : x y z
#
# Youngs Moduli (GPa) = 75.07824 63.35331 55.88201
#
# Poissons Ratio (x) = 0.42942 0.27056
# Poissons Ratio (y) = 0.50889 -0.17362
# Poissons Ratio (z) = 0.36350 -0.19683
#
# Static dielectric constant tensor:
#      x y z
#    x 1.736530 0.000000 -0.027730 
#    y 0.000000 1.691670 0.000000 
#    z -0.027730 0.000000 1.727350 
# 
# From -- ./inp_files/33481.got.cif
#   From: 2010.05.17/outbox.cif.g08.bks.cpg/sg15_17_cif.got.tgz:33481.got - 2010.06.03 18:47:42.
