data_PCOD9276138
_publ_section_title
;
Structure prediction by ZEFSAII (Michael W. Deem and Ramdas Pophale) SiO2 
 PCOD9276138
Probable space group: C 2/C
;
_chemical_formula_sum "Si O2"
_cell_formula_units_Z 36
_cell_length_a 7.112481
_cell_length_b 25.804464
_cell_length_c 7.855484
_cell_angle_alpha 90.000000
_cell_angle_beta 76.618913
_cell_angle_gamma 90.000000
_cell_volume 1402.606447
_symmetry_space_group_name_H-M "C 2/C"
_symmetry_group_IT_number 15
_symmetry_cell_setting 'monoclinic'
loop_
_space_group_symop_operation_xyz
x,y,z
-x,y,1/2-z
-x,-y,-z
x,-y,1/2+z
1/2+x,1/2+y,z
1/2-x,1/2+y,1/2-z
1/2-x,1/2-y,-z
1/2+x,1/2-y,1/2+z
loop_
_atom_site_type_symbol
_atom_site_label
_atom_site_fract_x
_atom_site_fract_y
_atom_site_fract_z
Si Si1 0.275124 0.440013 0.119949
Si Si2 0.500000 0.526342 0.250000
Si Si3 0.500000 0.773551 0.250000
Si Si4 0.704109 0.319193 0.881612
Si Si5 0.398634 0.856231 0.528320
Si Si6 0.500000 0.355640 0.250000
O O1 0.315381 0.491416 0.223339
O O2 0.328867 0.394630 0.237512
O O3 0.433279 0.445382 0.935149
O O4 0.096963 0.414149 0.053136
O O5 0.350808 0.737347 0.178119
O O6 0.374953 0.811613 0.392991
O O7 0.726247 0.352376 0.702613
O O8 0.944147 0.172666 0.933941
O O9 0.906124 0.335659 0.925551
#
# Coordination Sequence:
#
# PCOD9276138 Si02
#       6
#     8   4   4   8   8   4
#     4  10  20  39  68  99 132 172 219 275 339 409
#     4   9  20  39  72 104 132 174 222 271 348 429
#     4  12  24  43  66  95 136 187 232 271 328 400
#     4  11  25  42  66  98 135 182 230 275 328 396
#     4  11  24  42  67  99 137 173 227 290 334 387
#     4  11  22  40  70  99 134 181 226 268 336 411
#
# _framework density 25.666499999999999
#
# number of rings (size 3 to 8) (size 9 to 14) (size 15 to 20)
#    0.000    1.333    0.000    5.333    0.000    3.556 
#    0.000    2.222    0.000   60.000    0.000    0.000 
#    0.000    0.000    0.000    0.000    0.000    0.000 
#
# Total GULP energy -100371.989062 kJ/mol
# GULP energy per Si atom -5576.221615 kJ/mol
# Density = 2.560808 g / cm^3
# Si number density = 25.666500 Si / 1000 Ang^3
#
#
#
# Elastic Constant Matrix: (Units=GPa)
#
#
# Indices 1 2 3 4 5 6 
#
# 1 118.7447 28.3730 26.4016 0.0000 10.1457 0.0000
# 2 28.3730 74.6368 37.6485 0.0000 22.8522 0.0000
# 3 26.4016 37.6485 171.7514 0.0000 -11.4186 0.0000
# 4 0.0000 0.0000 0.0000 65.2144 0.0000 59.7388
# 5 10.1457 22.8522 -11.4186 0.0000 40.5933 0.0000
# 6 0.0000 0.0000 0.0000 59.7388 0.0000 99.0611
#
#
#
# Elastic Compliance Matrix: (Units=1/GPa)
#
#
# Indices 1 2 3 4 5 6 
#
# 1 0.009377 -0.002801 -0.000895 0.000000 -0.001018 0.000000
# 2 -0.002801 0.020739 -0.004938 0.000000 -0.012364 0.000000
# 3 -0.000895 -0.004938 0.007380 0.000000 0.005079 0.000000
# 4 0.000000 0.000000 0.000000 0.034260 0.000000 -0.020660
# 5 -0.001018 -0.012364 0.005079 0.000000 0.033278 0.000000
# 6 0.000000 0.000000 0.000000 -0.020660 0.000000 0.022554
#
#
# Mechanical properties :
#
#
# Convention : Reuss Voigt Hill
#
# Bulk Modulus (GPa) = 49.43550 61.10878 55.27214
# Shear Modulus (GPa) = 32.98188 59.15442 46.06815
#
# Velocity S-wave (km/s) = 3.58860 4.80597 4.24119
# Velocity P-wave (km/s) = 6.03931 7.39303 6.75019
#
# Compressibility (1/GPa) = 0.02022838
#
# Stress axis : x y z
#
# Youngs Moduli (GPa) = 106.64641 48.21762 135.50209
#
# Poissons Ratio (x) = 0.13507 0.12128
# Poissons Ratio (y) = 0.29874 0.66904
# Poissons Ratio (z) = 0.09545 0.23808
#
# Static dielectric constant tensor:
#      x y z
#    x 2.199580 0.000000 0.084900 
#    y 0.000000 2.019200 0.000000 
#    z 0.084900 0.000000 2.065130 
# 
# From -- ./inp_files/22583.got.cif
#   From: 2010.05.17/outbox.cif.g08.bks.cpg/sg15_12_cif.got.tgz:22583.got - 2010.06.03 18:47:42.
