data_PCOD9276595
_publ_section_title
;
Structure prediction by ZEFSAII (Michael W. Deem and Ramdas Pophale) SiO2 
 PCOD9276595
Probable space group: C 2/C
;
_chemical_formula_sum "Si O2"
_cell_formula_units_Z 64
_cell_length_a 14.510932
_cell_length_b 30.810725
_cell_length_c 10.582639
_cell_angle_alpha 90.000000
_cell_angle_beta 39.035768
_cell_angle_gamma 90.000000
_cell_volume 2979.871920
_symmetry_space_group_name_H-M "C 2/C"
_symmetry_group_IT_number 15
_symmetry_cell_setting 'monoclinic'
loop_
_space_group_symop_operation_xyz
x,y,z
-x,y,1/2-z
-x,-y,-z
x,-y,1/2+z
1/2+x,1/2+y,z
1/2-x,1/2+y,1/2-z
1/2-x,1/2-y,-z
1/2+x,1/2-y,1/2+z
loop_
_atom_site_type_symbol
_atom_site_label
_atom_site_fract_x
_atom_site_fract_y
_atom_site_fract_z
Si Si1 0.325193 0.613963 0.418726
Si Si2 0.081043 0.607985 0.029612
Si Si3 0.225862 0.383823 0.733765
Si Si4 0.833464 0.206164 0.387549
Si Si5 0.588130 0.459209 0.030136
Si Si6 0.588599 0.207216 0.023992
Si Si7 0.194113 0.048359 0.838693
Si Si8 0.217942 0.288297 0.737195
O O1 0.500000 0.616088 0.250000
O O2 0.284054 0.609931 0.315330
O O3 0.270400 0.662187 0.516915
O O4 0.280713 0.575795 0.560031
O O5 0.141593 0.657515 0.955779
O O6 0.000000 0.603195 0.250000
O O7 0.945662 0.605792 0.076885
O O8 0.195239 0.570345 0.877485
O O9 0.316457 0.416618 0.551297
O O10 0.234474 0.336137 0.658737
O O11 0.750000 0.250000 0.500000
O O12 0.809720 0.201526 0.264568
O O13 0.000000 0.210624 0.250000
O O14 0.500000 0.472725 0.250000
O O15 0.467790 0.448334 0.050740
O O16 0.695860 0.497489 0.869709
O O17 0.500000 0.211308 0.250000
O O18 0.457764 0.216569 0.062067
O O19 0.712284 0.244084 0.888988
#
# Coordination Sequence:
#
# PCOD9276595 Si02
#       8
#     8   8   8   8   8   8   8   8
#     4  10  20  40  63  92 130 166 214 261 327 386
#     4  10  23  43  62  93 134 172 214 266 326 388
#     4  10  22  41  63  92 134 167 212 271 316 390
#     4  10  21  35  56  86 123 165 205 260 309 373
#     4  11  24  41  69  99 121 163 220 269 323 393
#     4  10  21  37  60  88 127 169 212 262 312 375
#     4  11  24  40  68  93 125 170 208 270 330 388
#     4  10  21  36  57  88 125 165 212 257 306 378
#
# _framework density 21.477432
#
# number of rings (size 3 to 8) (size 9 to 14) (size 15 to 20)
#    0.000    1.750    1.250    2.250    3.500    2.500 
#    0.000    0.000    0.000    0.000    0.000    0.000 
#    0.000    0.000    0.000    0.000    0.000    0.000 
#
# Total GULP energy -178381.107713 kJ/mol
# GULP energy per Si atom -5574.409616 kJ/mol
# Density = 2.142855 g / cm^3
# Si number density = 21.477432 Si / 1000 Ang^3
#
#
#
# Elastic Constant Matrix: (Units=GPa)
#
#
# Indices 1 2 3 4 5 6 
#
# 1 107.9268 14.0786 7.3986 0.0000 -2.3491 0.0000
# 2 14.0786 146.9361 66.4875 0.0000 -14.3102 0.0000
# 3 7.3986 66.4875 58.7971 0.0000 0.7392 0.0000
# 4 0.0000 0.0000 0.0000 43.0443 0.0000 -4.7137
# 5 -2.3491 -14.3102 0.7392 0.0000 26.8116 0.0000
# 6 0.0000 0.0000 0.0000 -4.7137 0.0000 24.8862
#
#
#
# Elastic Compliance Matrix: (Units=1/GPa)
#
#
# Indices 1 2 3 4 5 6 
#
# 1 0.009392 -0.000644 -0.000460 0.000000 0.000492 0.000000
# 2 -0.000644 0.015869 -0.017975 0.000000 0.008909 0.000000
# 3 -0.000460 -0.017975 0.037526 0.000000 -0.010669 0.000000
# 4 0.000000 0.000000 0.000000 0.023724 0.000000 0.004494
# 5 0.000492 0.008909 -0.010669 0.000000 0.042389 0.000000
# 6 0.000000 0.000000 0.000000 0.004494 0.000000 0.041034
#
#
# Mechanical properties :
#
#
# Convention : Reuss Voigt Hill
#
# Bulk Modulus (GPa) = 40.60344 54.39882 47.50113
# Shear Modulus (GPa) = 23.11593 33.99478 28.55536
#
# Velocity S-wave (km/s) = 3.28424 3.98278 3.65026
# Velocity P-wave (km/s) = 5.77303 6.82154 6.31907
#
# Compressibility (1/GPa) = 0.02462846
#
# Stress axis : x y z
#
# Youngs Moduli (GPa) = 106.47626 63.01731 26.64822
#
# Poissons Ratio (x) = 0.04058 0.01225
# Poissons Ratio (y) = 0.06856 0.47901
# Poissons Ratio (z) = 0.04897 1.13275
#
# Static dielectric constant tensor:
#      x y z
#    x 1.811380 0.000000 0.028310 
#    y 0.000000 1.822970 0.000000 
#    z 0.028310 0.000000 1.772240 
# 
# From -- ./inp_files/101641.got.cif
#   From: 2010.05.17/outbox.cif.g08.bks.cpg/sg15_51_cif.got.tgz:101641.got - 2010.06.03 18:47:42.
