data_PCOD9276791
_publ_section_title
;
Structure prediction by ZEFSAII (Michael W. Deem and Ramdas Pophale) SiO2 
 PCOD9276791
Probable space group: C 2/C
;
_chemical_formula_sum "Si O2"
_cell_formula_units_Z 60
_cell_length_a 21.698051
_cell_length_b 26.165679
_cell_length_c 7.799973
_cell_angle_alpha 90.000000
_cell_angle_beta 37.393592
_cell_angle_gamma 90.000000
_cell_volume 2689.303456
_symmetry_space_group_name_H-M "C 2/C"
_symmetry_group_IT_number 15
_symmetry_cell_setting 'monoclinic'
loop_
_space_group_symop_operation_xyz
x,y,z
-x,y,1/2-z
-x,-y,-z
x,-y,1/2+z
1/2+x,1/2+y,z
1/2-x,1/2+y,1/2-z
1/2-x,1/2-y,-z
1/2+x,1/2-y,1/2+z
loop_
_atom_site_type_symbol
_atom_site_label
_atom_site_fract_x
_atom_site_fract_y
_atom_site_fract_z
Si Si1 0.103876 0.576816 0.583443
Si Si2 0.000000 0.954502 0.750000
Si Si3 0.381713 0.544757 0.185921
Si Si4 0.782648 0.806053 0.983572
Si Si5 0.678187 0.370379 0.914261
Si Si6 0.275693 0.693468 0.877262
Si Si7 0.847197 0.532942 0.675945
Si Si8 0.883916 0.634888 0.461642
O O1 0.204313 0.610819 0.344106
O O2 0.088811 0.557641 0.811593
O O3 0.122507 0.523517 0.442172
O O4 0.000000 0.601762 0.750000
O O5 0.074705 0.991317 0.476650
O O6 0.937031 0.930584 0.730783
O O7 0.381521 0.579905 0.016792
O O8 0.267520 0.534933 0.501796
O O9 0.828021 0.804109 0.074511
O O10 0.684842 0.842508 0.231378
O O11 0.750000 0.750000 0.000000
O O12 0.841332 0.831083 0.697771
O O13 0.662490 0.341177 0.126237
O O14 0.167200 0.665707 0.080539
O O15 0.250000 0.750000 0.000000
O O16 0.860153 0.574706 0.497305
O O17 0.000000 0.644231 0.250000
#
# Coordination Sequence:
#
# PCOD9276791 Si02
#       8
#     8   4   8   8   8   8   8   8
#     4  11  23  33  54  89 131 173 208 243 294 372
#     4  10  22  40  66  86 122 170 218 288 316 394
#     4  10  20  41  60  91 119 164 224 264 334 382
#     4  10  20  40  65  86 123 161 209 269 314 381
#     4  11  21  39  63  93 123 168 214 260 318 395
#     4  10  21  37  68  91 117 169 215 263 328 380
#     4  11  22  38  56  87 133 169 204 257 309 376
#     4  10  22  39  62  96 130 170 213 261 310 391
#
# _framework density 22.310611999999999
#
# number of rings (size 3 to 8) (size 9 to 14) (size 15 to 20)
#    0.800    0.800    4.000    2.400    3.733    0.000 
#   12.000    0.000    5.867    0.000    0.000    0.000 
#    0.000    0.000    0.000    0.000    0.000    0.000 
#
# Total GULP energy -167384.073942 kJ/mol
# GULP energy per Si atom -5579.469131 kJ/mol
# Density = 2.225983 g / cm^3
# Si number density = 22.310612 Si / 1000 Ang^3
#
#
#
# Elastic Constant Matrix: (Units=GPa)
#
#
# Indices 1 2 3 4 5 6 
#
# 1 139.2131 22.9453 22.8363 0.0000 23.2467 0.0000
# 2 22.9453 52.4879 2.2087 0.0000 18.9927 0.0000
# 3 22.8363 2.2087 40.9603 0.0000 -1.0744 0.0000
# 4 0.0000 0.0000 0.0000 10.9130 0.0000 17.5087
# 5 23.2467 18.9927 -1.0744 0.0000 33.6560 0.0000
# 6 0.0000 0.0000 0.0000 17.5087 0.0000 33.0415
#
#
#
# Elastic Compliance Matrix: (Units=1/GPa)
#
#
# Indices 1 2 3 4 5 6 
#
# 1 0.009263 -0.001828 -0.005211 0.000000 -0.005533 0.000000
# 2 -0.001828 0.024413 -0.000626 0.000000 -0.012534 0.000000
# 3 -0.005211 -0.000626 0.027480 0.000000 0.004830 0.000000
# 4 0.000000 0.000000 0.000000 0.611563 0.000000 -0.324067
# 5 -0.005533 -0.012534 0.004830 0.000000 0.040761 0.000000
# 6 0.000000 0.000000 0.000000 -0.324067 0.000000 0.201988
#
#
# Mechanical properties :
#
#
# Convention : Reuss Voigt Hill
#
# Bulk Modulus (GPa) = 21.82190 36.51578 29.16884
# Shear Modulus (GPa) = 5.28500 27.83350 16.55925
#
# Velocity S-wave (km/s) = 1.54077 3.53589 2.72732
# Velocity P-wave (km/s) = 3.60104 5.75088 4.79792
#
# Compressibility (1/GPa) = 0.04582552
#
# Stress axis : x y z
#
# Youngs Moduli (GPa) = 107.95301 40.96196 36.39060
#
# Poissons Ratio (x) = 0.07488 0.18963
# Poissons Ratio (y) = 0.19735 0.02278
# Poissons Ratio (z) = 0.56255 0.02564
#
# Static dielectric constant tensor:
#      x y z
#    x 1.930740 0.000000 0.032600 
#    y 0.000000 1.827300 0.000000 
#    z 0.032600 0.000000 1.838770 
# 
# From -- ./inp_files/59131.got.cif
#   From: 2010.05.17/outbox.cif.g08.bks.cpg/sg15_30_cif.got.tgz:59131.got - 2010.06.03 18:47:42.
