data_PCOD9276341
_publ_section_title
;
Structure prediction by ZEFSAII (Michael W. Deem and Ramdas Pophale) SiO2 
 PCOD9276341
Probable space group: C 2/C
;
_chemical_formula_sum "Si O2"
_cell_formula_units_Z 48
_cell_length_a 9.477399
_cell_length_b 9.901766
_cell_length_c 22.533002
_cell_angle_alpha 90.000000
_cell_angle_beta 81.693147
_cell_angle_gamma 90.000000
_cell_volume 2092.379301
_symmetry_space_group_name_H-M "C 2/C"
_symmetry_group_IT_number 15
_symmetry_cell_setting 'monoclinic'
loop_
_space_group_symop_operation_xyz
x,y,z
-x,y,1/2-z
-x,-y,-z
x,-y,1/2+z
1/2+x,1/2+y,z
1/2-x,1/2+y,1/2-z
1/2-x,1/2-y,-z
1/2+x,1/2-y,1/2+z
loop_
_atom_site_type_symbol
_atom_site_label
_atom_site_fract_x
_atom_site_fract_y
_atom_site_fract_z
Si Si1 0.387544 0.241040 0.077463
Si Si2 0.531053 0.972345 0.427757
Si Si3 0.724904 0.451730 0.179050
Si Si4 0.079738 0.989786 0.352519
Si Si5 0.084684 0.188133 0.053372
Si Si6 0.832030 0.799458 0.744832
O O1 0.349385 0.357763 0.125077
O O2 0.250018 0.163852 0.058424
O O3 0.491927 0.124325 0.095323
O O4 0.448887 0.310496 0.014297
O O5 0.678516 0.929612 0.385354
O O6 0.438869 0.840060 0.421148
O O7 0.500000 0.000000 0.500000
O O8 0.557742 0.439088 0.175861
O O9 0.768942 0.341476 0.225815
O O10 0.738834 0.608971 0.199238
O O11 0.012620 0.081602 0.408139
O O12 0.171622 0.092189 0.308550
O O13 0.000000 0.778621 0.750000
#
# Coordination Sequence:
#
# PCOD9276341 Si02
#       6
#     8   8   8   8   8   8
#     4  10  22  37  63  94 128 167 206 251 313 372
#     4  10  21  40  64  92 127 165 205 256 313 372
#     4  11  23  45  65  89 130 160 211 265 310 374
#     4  11  22  40  65  94 123 161 211 260 308 370
#     4  10  20  40  60  90 134 167 200 255 309 370
#     4  10  25  44  65  91 124 166 210 264 316 371
#
# _framework density 22.940391000000002
#
# number of rings (size 3 to 8) (size 9 to 14) (size 15 to 20)
#    0.000    1.667    3.333    0.500    2.333    1.333 
#    3.000    1.667    0.000    0.000    0.000    0.000 
#    0.000    0.000    0.000    0.000    0.000    0.000 
#
# Total GULP energy -133766.859038 kJ/mol
# GULP energy per Si atom -5573.619127 kJ/mol
# Density = 2.288818 g / cm^3
# Si number density = 22.940391 Si / 1000 Ang^3
#
#
#
# Elastic Constant Matrix: (Units=GPa)
#
#
# Indices 1 2 3 4 5 6 
#
# 1 36.7636 28.4303 17.9498 0.0000 -3.2255 0.0000
# 2 28.4303 144.9727 20.2504 0.0000 20.3835 0.0000
# 3 17.9498 20.2504 53.1531 0.0000 -13.9422 0.0000
# 4 0.0000 0.0000 0.0000 55.2949 0.0000 2.5442
# 5 -3.2255 20.3835 -13.9422 0.0000 29.4737 0.0000
# 6 0.0000 0.0000 0.0000 2.5442 0.0000 33.4500
#
#
#
# Elastic Compliance Matrix: (Units=1/GPa)
#
#
# Indices 1 2 3 4 5 6 
#
# 1 0.037046 -0.006673 -0.008784 0.000000 0.004513 0.000000
# 2 -0.006673 0.010156 -0.004167 0.000000 -0.009725 0.000000
# 3 -0.008784 -0.004167 0.027253 0.000000 0.014812 0.000000
# 4 0.000000 0.000000 0.000000 0.018148 0.000000 -0.001380
# 5 0.004513 -0.009725 0.014812 0.000000 0.048155 0.000000
# 6 0.000000 0.000000 0.000000 -0.001380 0.000000 0.030000
#
#
# Mechanical properties :
#
#
# Convention : Reuss Voigt Hill
#
# Bulk Modulus (GPa) = 28.40340 40.90561 34.65451
# Shear Modulus (GPa) = 22.54889 34.86098 28.70493
#
# Velocity S-wave (km/s) = 3.13858 3.90248 3.54119
# Velocity P-wave (km/s) = 5.05396 6.17865 5.64439
#
# Compressibility (1/GPa) = 0.03520705
#
# Stress axis : x y z
#
# Youngs Moduli (GPa) = 26.99359 98.46661 36.69366
#
# Poissons Ratio (x) = 0.65702 0.32233
# Poissons Ratio (y) = 0.18012 0.15289
# Poissons Ratio (z) = 0.23712 0.41028
#
# Static dielectric constant tensor:
#      x y z
#    x 1.828050 0.000000 -0.007330 
#    y 0.000000 1.850120 0.000000 
#    z -0.007330 0.000000 1.950690 
# 
# From -- ./inp_files/267638.got.cif
#   From: 2010.05.17/outbox.cif.g08.bks.cpg/sg15_134_cif.got.tgz:267638.got - 2010.06.03 18:47:42.
