data_PCOD9276266
_publ_section_title
;
Structure prediction by ZEFSAII (Michael W. Deem and Ramdas Pophale) SiO2 
 PCOD9276266
Probable space group: C 2/C
;
_chemical_formula_sum "Si O2"
_cell_formula_units_Z 60
_cell_length_a 21.325996
_cell_length_b 16.607702
_cell_length_c 11.320045
_cell_angle_alpha 90.000000
_cell_angle_beta 134.776752
_cell_angle_gamma 90.000000
_cell_volume 2846.017960
_symmetry_space_group_name_H-M "C 2/C"
_symmetry_group_IT_number 15
_symmetry_cell_setting 'monoclinic'
loop_
_space_group_symop_operation_xyz
x,y,z
-x,y,1/2-z
-x,-y,-z
x,-y,1/2+z
1/2+x,1/2+y,z
1/2-x,1/2+y,1/2-z
1/2-x,1/2-y,-z
1/2+x,1/2-y,1/2+z
loop_
_atom_site_type_symbol
_atom_site_label
_atom_site_fract_x
_atom_site_fract_y
_atom_site_fract_z
Si Si1 0.874040 0.832717 0.335435
Si Si2 0.562194 0.381933 0.689752
Si Si3 0.500000 0.524523 0.750000
Si Si4 0.851375 0.116010 0.427021
Si Si5 0.310102 0.303457 0.493336
Si Si6 0.651271 0.237202 0.417407
Si Si7 0.303714 0.066277 0.948885
Si Si8 0.779144 0.479234 0.155989
O O1 0.827286 0.781266 0.378636
O O2 0.901679 0.777582 0.260793
O O3 0.799608 0.899808 0.199050
O O4 0.963953 0.870027 0.507608
O O5 0.560422 0.465965 0.754550
O O6 0.641756 0.385364 0.702734
O O7 0.593801 0.312628 0.819742
O O8 0.442554 0.577305 0.589252
O O9 0.853125 0.205890 0.475916
O O10 0.778492 0.058138 0.385728
O O11 0.250000 0.250000 0.500000
O O12 0.270365 0.393996 0.429015
O O13 0.750000 0.250000 0.500000
O O14 0.640851 0.145344 0.439413
O O15 0.327918 0.036444 0.848288
O O16 0.314680 0.004305 0.072739
#
# Coordination Sequence:
#
# PCOD9276266 Si02
#       8
#     8   8   4   8   8   8   8   8
#     4  10  20  40  58  84 125 167 207 251 315 378
#     4  12  23  38  59  89 131 170 206 255 309 390
#     4  12  22  38  52  94 132 168 194 246 312 404
#     4  12  23  32  61  86 125 170 208 236 314 383
#     4  11  24  37  59  89 129 167 209 261 314 379
#     4  10  21  38  57  84 127 168 211 262 308 370
#     4  10  22  38  59  85 127 163 213 266 314 373
#     4  11  21  38  58  87 120 169 214 255 311 377
#
# _framework density 21.082087000000001
#
# number of rings (size 3 to 8) (size 9 to 14) (size 15 to 20)
#    0.000    1.067    5.333    2.800    5.600    1.067 
#    0.000    0.000    0.000    0.000    0.000    0.933 
#    8.000    0.000    0.000    0.000    0.000    0.000 
#
# Total GULP energy -167242.438728 kJ/mol
# GULP energy per Si atom -5574.747958 kJ/mol
# Density = 2.103410 g / cm^3
# Si number density = 21.082087 Si / 1000 Ang^3
#
#
#
# Elastic Constant Matrix: (Units=GPa)
#
#
# Indices 1 2 3 4 5 6 
#
# 1 57.2079 18.1693 15.0782 0.0000 -27.4218 0.0000
# 2 18.1693 77.9727 21.9193 0.0000 -13.2501 0.0000
# 3 15.0782 21.9193 72.0096 0.0000 -26.7640 0.0000
# 4 0.0000 0.0000 0.0000 25.6881 0.0000 -5.3516
# 5 -27.4218 -13.2501 -26.7640 0.0000 36.7111 0.0000
# 6 0.0000 0.0000 0.0000 -5.3516 0.0000 39.4902
#
#
#
# Elastic Compliance Matrix: (Units=1/GPa)
#
#
# Indices 1 2 3 4 5 6 
#
# 1 0.028569 -0.003826 0.003567 0.000000 0.022560 0.000000
# 2 -0.003826 0.014732 -0.003798 0.000000 -0.000310 0.000000
# 3 0.003567 -0.003798 0.020269 0.000000 0.016071 0.000000
# 4 0.000000 0.000000 0.000000 0.040060 0.000000 0.005429
# 5 0.022560 -0.000310 0.016071 0.000000 0.055695 0.000000
# 6 0.000000 0.000000 0.000000 0.005429 0.000000 0.026058
#
#
# Mechanical properties :
#
#
# Convention : Reuss Voigt Hill
#
# Bulk Modulus (GPa) = 18.03251 35.28041 26.65646
# Shear Modulus (GPa) = 23.58681 30.51277 27.04979
#
# Velocity S-wave (km/s) = 3.34849 3.80851 3.58588
# Velocity P-wave (km/s) = 4.84994 6.00922 5.46043
#
# Compressibility (1/GPa) = 0.05545539
#
# Stress axis : x y z
#
# Youngs Moduli (GPa) = 35.00338 67.88092 49.33526
#
# Poissons Ratio (x) = 0.25974 -0.17600
# Poissons Ratio (y) = 0.13394 0.18739
# Poissons Ratio (z) = -0.12487 0.25783
#
# Static dielectric constant tensor:
#      x y z
#    x 1.770100 0.000000 -0.007490 
#    y 0.000000 1.774950 0.000000 
#    z -0.007490 0.000000 1.811010 
# 
# From -- ./inp_files/118795.got.cif
#   From: 2010.05.17/outbox.cif.g08.bks.cpg/sg15_60_cif.got.tgz:118795.got - 2010.06.03 18:47:42.
