data_PCOD9276079
_publ_section_title
;
Structure prediction by ZEFSAII (Michael W. Deem and Ramdas Pophale) SiO2 
 PCOD9276079
Probable space group: C 2/C
;
_chemical_formula_sum "Si O2"
_cell_formula_units_Z 48
_cell_length_a 9.933024
_cell_length_b 16.856895
_cell_length_c 17.182440
_cell_angle_alpha 90.000000
_cell_angle_beta 47.035022
_cell_angle_gamma 90.000000
_cell_volume 2105.323132
_symmetry_space_group_name_H-M "C 2/C"
_symmetry_group_IT_number 15
_symmetry_cell_setting 'monoclinic'
loop_
_space_group_symop_operation_xyz
x,y,z
-x,y,1/2-z
-x,-y,-z
x,-y,1/2+z
1/2+x,1/2+y,z
1/2-x,1/2+y,1/2-z
1/2-x,1/2-y,-z
1/2+x,1/2-y,1/2+z
loop_
_atom_site_type_symbol
_atom_site_label
_atom_site_fract_x
_atom_site_fract_y
_atom_site_fract_z
Si Si1 0.905916 0.631887 0.563112
Si Si2 0.344026 0.516686 0.750303
Si Si3 0.416997 0.656903 0.922389
Si Si4 0.188656 0.296909 0.863477
Si Si5 0.905797 0.075260 0.077808
Si Si6 0.978350 0.218724 0.381536
O O1 0.827289 0.554354 0.636039
O O2 0.735652 0.669030 0.582565
O O3 0.971633 0.699347 0.596696
O O4 0.076686 0.625906 0.436115
O O5 0.500000 0.483815 0.750000
O O6 0.446868 0.591616 0.668806
O O7 0.300996 0.459949 0.694094
O O8 0.539042 0.732127 0.896747
O O9 0.318994 0.622030 0.038853
O O10 0.338005 0.304295 0.738077
O O11 0.311282 0.269666 0.888616
O O12 0.048726 0.140921 0.054409
O O13 0.000000 0.000000 0.000000
#
# Coordination Sequence:
#
# PCOD9276079 Si02
#       6
#     8   8   8   8   8   8
#     4  11  21  40  68  99 130 168 223 277 322 386
#     4   9  20  38  65  92 126 175 217 265 326 392
#     4  10  20  39  67  98 127 166 216 277 325 381
#     4  11  23  38  63 103 128 164 216 278 329 371
#     4  10  22  41  66  91 129 179 218 258 334 399
#     4  11  24  39  66  97 132 171 218 275 319 397
#
# _framework density 22.799351999999999
#
# number of rings (size 3 to 8) (size 9 to 14) (size 15 to 20)
#    0.000    1.667    3.333    1.000    2.333    0.000 
#    0.000    0.833    3.667    0.000    0.000    0.000 
#    0.000    0.000    0.000    0.000    0.000    0.000 
#
# Total GULP energy -133941.161380 kJ/mol
# GULP energy per Si atom -5580.881724 kJ/mol
# Density = 2.274746 g / cm^3
# Si number density = 22.799352 Si / 1000 Ang^3
#
#
#
# Elastic Constant Matrix: (Units=GPa)
#
#
# Indices 1 2 3 4 5 6 
#
# 1 61.7654 46.3210 32.4858 -0.0003 5.8685 0.0002
# 2 46.3210 89.2609 29.4319 -0.0003 1.7616 0.0003
# 3 32.4858 29.4319 122.5366 -0.0016 -0.4812 0.0012
# 4 -0.0003 -0.0003 -0.0016 32.7646 0.0005 16.0519
# 5 5.8685 1.7616 -0.4812 0.0005 31.8595 -0.0002
# 6 0.0002 0.0003 0.0012 16.0519 -0.0002 19.0554
#
#
#
# Elastic Compliance Matrix: (Units=1/GPa)
#
#
# Indices 1 2 3 4 5 6 
#
# 1 0.029172 -0.013564 -0.004494 0.000000 -0.004691 0.000000
# 2 -0.013564 0.018490 -0.000839 0.000000 0.001464 0.000000
# 3 -0.004494 -0.000839 0.009558 0.000001 0.001019 -0.000001
# 4 0.000000 0.000000 0.000001 0.051968 -0.000001 -0.043777
# 5 -0.004691 0.001464 0.001019 -0.000001 0.032186 0.000001
# 6 0.000000 0.000000 -0.000001 -0.043777 0.000001 0.089355
#
#
# Mechanical properties :
#
#
# Convention : Reuss Voigt Hill
#
# Bulk Modulus (GPa) = 51.48135 54.44892 52.96514
# Shear Modulus (GPa) = 18.18180 27.75751 22.96965
#
# Velocity S-wave (km/s) = 2.82701 3.49301 3.17751
# Velocity P-wave (km/s) = 5.76933 6.34049 6.06164
#
# Compressibility (1/GPa) = 0.01942451
#
# Stress axis : x y z
#
# Youngs Moduli (GPa) = 34.27900 54.08333 104.62511
#
# Poissons Ratio (x) = 0.73360 0.47022
# Poissons Ratio (y) = 0.46497 0.08781
# Poissons Ratio (z) = 0.15406 0.04539
#
# Static dielectric constant tensor:
#      x y z
#    x 1.810980 0.000000 0.058180 
#    y 0.000000 1.852290 0.000000 
#    z 0.058180 0.000000 1.938370 
# 
# From -- ./inp_files/191977.got.cif
#   From: 2010.05.17/outbox.cif.g08.bks.cpg/sg15_96_cif.got.tgz:191977.got - 2010.06.03 18:47:42.
