data_PCOD9276453
_publ_section_title
;
Structure prediction by ZEFSAII (Michael W. Deem and Ramdas Pophale) SiO2 
 PCOD9276453
Probable space group: C 2/C
;
_chemical_formula_sum "Si O2"
_cell_formula_units_Z 48
_cell_length_a 13.349548
_cell_length_b 7.913231
_cell_length_c 17.551626
_cell_angle_alpha 90.000000
_cell_angle_beta 94.763737
_cell_angle_gamma 90.000000
_cell_volume 1847.714835
_symmetry_space_group_name_H-M "C 2/C"
_symmetry_group_IT_number 15
_symmetry_cell_setting 'monoclinic'
loop_
_space_group_symop_operation_xyz
x,y,z
-x,y,1/2-z
-x,-y,-z
x,-y,1/2+z
1/2+x,1/2+y,z
1/2-x,1/2+y,1/2-z
1/2-x,1/2-y,-z
1/2+x,1/2-y,1/2+z
loop_
_atom_site_type_symbol
_atom_site_label
_atom_site_fract_x
_atom_site_fract_y
_atom_site_fract_z
Si Si1 0.928969 0.873884 0.895616
Si Si2 0.914656 0.512168 0.808566
Si Si3 0.866005 0.385976 0.949558
Si Si4 0.647569 0.333695 0.909287
Si Si5 0.714159 0.014857 0.334684
Si Si6 0.638350 0.216498 0.462218
O O1 0.914582 0.690652 0.852964
O O2 0.832505 0.978334 0.861409
O O3 0.043286 0.921014 0.880168
O O4 0.922210 0.845588 0.987044
O O5 0.928926 0.376019 0.876709
O O6 0.812936 0.479024 0.755332
O O7 0.000000 0.509717 0.750000
O O8 0.752505 0.430357 0.914962
O O9 0.862344 0.225770 0.003383
O O10 0.897234 0.537495 0.005989
O O11 0.668541 0.162170 0.863015
O O12 0.659604 0.170688 0.375470
O O13 0.750000 0.250000 0.500000
#
# Coordination Sequence:
#
# PCOD9276453 Si02
#       6
#     8   8   8   8   8   8
#     4  10  21  37  62  84 113 161 205 247 308 374
#     4  11  22  35  59  89 116 160 201 254 322 371
#     4   9  21  36  59  87 126 155 207 264 299 377
#     4  10  20  40  62  86 118 168 205 251 319 363
#     4  10  21  35  59  87 121 149 205 255 301 379
#     4   8  17  36  57  84 115 155 201 249 296 358
#
# _framework density 25.978034000000001
#
# number of rings (size 3 to 8) (size 9 to 14) (size 15 to 20)
#    0.000    2.333    1.667    0.000    4.667    2.000 
#    0.000   13.333    3.667    1.000    0.000    0.000 
#    0.000    0.000    0.000    0.000    0.000    0.000 
#
# Total GULP energy -134083.724664 kJ/mol
# GULP energy per Si atom -5586.821861 kJ/mol
# Density = 2.591891 g / cm^3
# Si number density = 25.978034 Si / 1000 Ang^3
#
#
#
# Elastic Constant Matrix: (Units=GPa)
#
#
# Indices 1 2 3 4 5 6 
#
# 1 178.7759 5.1508 7.5369 0.0000 5.9984 0.0000
# 2 5.1508 56.3680 24.0531 0.0000 -6.6248 0.0000
# 3 7.5369 24.0531 150.4862 0.0000 -3.3943 0.0000
# 4 0.0000 0.0000 0.0000 28.3123 0.0000 1.3713
# 5 5.9984 -6.6248 -3.3943 0.0000 38.3702 0.0000
# 6 0.0000 0.0000 0.0000 1.3713 0.0000 23.7497
#
#
#
# Elastic Compliance Matrix: (Units=1/GPa)
#
#
# Indices 1 2 3 4 5 6 
#
# 1 0.005652 -0.000540 -0.000219 0.000000 -0.000996 0.000000
# 2 -0.000540 0.019447 -0.003010 0.000000 0.003176 0.000000
# 3 -0.000219 -0.003010 0.007140 0.000000 0.000146 0.000000
# 4 0.000000 0.000000 0.000000 0.035419 0.000000 -0.002045
# 5 -0.000996 0.003176 0.000146 0.000000 0.026779 0.000000
# 6 0.000000 0.000000 0.000000 -0.002045 0.000000 0.042224
#
#
# Mechanical properties :
#
#
# Convention : Reuss Voigt Hill
#
# Bulk Modulus (GPa) = 40.48275 51.01240 45.74758
# Shear Modulus (GPa) = 32.80114 41.34572 37.07343
#
# Velocity S-wave (km/s) = 3.55723 3.99377 3.78181
# Velocity P-wave (km/s) = 5.69993 6.39893 6.05952
#
# Compressibility (1/GPa) = 0.02470188
#
# Stress axis : x y z
#
# Youngs Moduli (GPa) = 176.93418 51.42065 140.04682
#
# Poissons Ratio (x) = 0.02777 0.03070
# Poissons Ratio (y) = 0.09554 0.42150
# Poissons Ratio (z) = 0.03879 0.15476
#
# Static dielectric constant tensor:
#      x y z
#    x 2.153530 0.000000 -0.004500 
#    y 0.000000 2.111000 0.000000 
#    z -0.004500 0.000000 2.000650 
# 
# From -- ./inp_files/196049.got.cif
#   From: 2010.05.17/outbox.cif.g08.bks.cpg/sg15_99_cif.got.tgz:196049.got - 2010.06.03 18:47:42.
