data_PCOD9276852
_publ_section_title
;
Structure prediction by ZEFSAII (Michael W. Deem and Ramdas Pophale) SiO2 
 PCOD9276852
Probable space group: C 2/C
;
_chemical_formula_sum "Si O2"
_cell_formula_units_Z 56
_cell_length_a 27.849934
_cell_length_b 7.472703
_cell_length_c 15.188494
_cell_angle_alpha 90.000000
_cell_angle_beta 51.716049
_cell_angle_gamma 90.000000
_cell_volume 2481.181699
_symmetry_space_group_name_H-M "C 2/C"
_symmetry_group_IT_number 15
_symmetry_cell_setting 'monoclinic'
loop_
_space_group_symop_operation_xyz
x,y,z
-x,y,1/2-z
-x,-y,-z
x,-y,1/2+z
1/2+x,1/2+y,z
1/2-x,1/2+y,1/2-z
1/2-x,1/2-y,-z
1/2+x,1/2-y,1/2+z
loop_
_atom_site_type_symbol
_atom_site_label
_atom_site_fract_x
_atom_site_fract_y
_atom_site_fract_z
Si Si1 0.838079 0.519411 0.059166
Si Si2 0.432957 0.017451 0.803833
Si Si3 0.431867 0.441067 0.809077
Si Si4 0.566709 0.934555 0.898984
Si Si5 0.616466 0.418817 0.316820
Si Si6 0.171613 0.951178 0.433227
Si Si7 0.260555 0.242994 0.383602
O O1 0.881283 0.494755 0.094542
O O2 0.822723 0.733440 0.072604
O O3 0.778931 0.396272 0.120616
O O4 0.879140 0.457723 0.929143
O O5 0.500000 0.941688 0.750000
O O6 0.435527 0.228937 0.819008
O O7 0.420971 0.983934 0.715679
O O8 0.500000 0.514742 0.750000
O O9 0.410666 0.473453 0.733309
O O10 0.378593 0.504086 0.935821
O O11 0.566421 0.719727 0.909481
O O12 0.500000 0.000000 0.000000
O O13 0.645059 0.512877 0.369142
O O14 0.670346 0.291840 0.217774
O O15 0.234663 0.052646 0.380878
O O16 0.250000 0.250000 0.500000
#
# Coordination Sequence:
#
# PCOD9276852 Si02
#       7
#     8   8   8   8   8   8   8
#     4  10  24  44  67 100 134 179 226 279 346 399
#     4  10  20  40  65  95 136 177 220 277 344 405
#     4  10  23  44  68  97 137 177 222 288 352 404
#     4  11  23  42  67  99 135 172 229 282 339 410
#     4  11  26  44  66 105 133 180 235 278 347 415
#     4  10  25  46  67 101 141 173 231 283 338 414
#     4  12  25  47  70  97 138 181 234 282 335 410
#
# _framework density 22.569889
#
# number of rings (size 3 to 8) (size 9 to 14) (size 15 to 20)
#    0.000    1.429    2.857    0.857    8.000    2.857 
#    2.571    0.000    0.000    0.000    0.000    0.000 
#    0.000    0.000    0.000    0.000    0.000    0.000 
#
# Total GULP energy -156615.857223 kJ/mol
# GULP energy per Si atom -5593.423472 kJ/mol
# Density = 2.251852 g / cm^3
# Si number density = 22.569889 Si / 1000 Ang^3
#
#
#
# Elastic Constant Matrix: (Units=GPa)
#
#
# Indices 1 2 3 4 5 6 
#
# 1 71.7068 15.6227 20.9362 -0.0001 5.0977 0.0000
# 2 15.6227 62.0844 -4.5415 0.0000 -16.1136 0.0001
# 3 20.9362 -4.5415 43.3285 -0.0001 22.4241 0.0001
# 4 -0.0001 0.0000 -0.0001 24.4087 0.0000 6.0275
# 5 5.0977 -16.1136 22.4241 0.0000 49.4361 0.0000
# 6 0.0000 0.0001 0.0001 6.0275 0.0000 37.2542
#
#
#
# Elastic Compliance Matrix: (Units=1/GPa)
#
#
# Indices 1 2 3 4 5 6 
#
# 1 0.017747 -0.004932 -0.009556 0.000000 0.000897 0.000000
# 2 -0.004932 0.019038 0.001181 0.000000 0.006178 0.000000
# 3 -0.009556 0.001181 0.035429 0.000000 -0.014700 0.000000
# 4 0.000000 0.000000 0.000000 0.042674 0.000000 -0.006904
# 5 0.000897 0.006178 -0.014700 0.000000 0.028817 0.000000
# 6 0.000000 0.000000 0.000000 -0.006904 0.000000 0.027960
#
#
# Mechanical properties :
#
#
# Convention : Reuss Voigt Hill
#
# Bulk Modulus (GPa) = 21.93036 26.79497 24.36266
# Shear Modulus (GPa) = 23.42160 31.89328 27.65744
#
# Velocity S-wave (km/s) = 3.22489 3.76319 3.50439
# Velocity P-wave (km/s) = 4.85842 5.54796 5.21460
#
# Compressibility (1/GPa) = 0.04559889
#
# Stress axis : x y z
#
# Youngs Moduli (GPa) = 56.34886 52.52639 28.22577
#
# Poissons Ratio (x) = 0.25905 0.26974
# Poissons Ratio (y) = 0.27791 -0.03334
# Poissons Ratio (z) = 0.53849 -0.06204
#
# Static dielectric constant tensor:
#      x y z
#    x 1.829720 0.000000 -0.021640 
#    y 0.000000 1.857000 0.000000 
#    z -0.021640 0.000000 1.858210 
# 
# From -- ./inp_files/172253.got.cif
#   From: 2010.05.17/outbox.cif.g08.bks.cpg/sg15_87_cif.got.tgz:172253.got - 2010.06.03 18:47:42.
