data_PCOD9276941
_publ_section_title
;
Structure prediction by ZEFSAII (Michael W. Deem and Ramdas Pophale) SiO2 
 PCOD9276941
Probable space group: C 2/C
;
_chemical_formula_sum "Si O2"
_cell_formula_units_Z 36
_cell_length_a 13.930792
_cell_length_b 7.369839
_cell_length_c 13.994008
_cell_angle_alpha 90.000000
_cell_angle_beta 67.316069
_cell_angle_gamma 90.000000
_cell_volume 1325.595932
_symmetry_space_group_name_H-M "C 2/C"
_symmetry_group_IT_number 15
_symmetry_cell_setting 'monoclinic'
loop_
_space_group_symop_operation_xyz
x,y,z
-x,y,1/2-z
-x,-y,-z
x,-y,1/2+z
1/2+x,1/2+y,z
1/2-x,1/2+y,1/2-z
1/2-x,1/2-y,-z
1/2+x,1/2-y,1/2+z
loop_
_atom_site_type_symbol
_atom_site_label
_atom_site_fract_x
_atom_site_fract_y
_atom_site_fract_z
Si Si1 0.500000 0.057915 0.250000
Si Si2 0.034097 0.099020 0.632854
Si Si3 0.258428 0.470246 0.896719
Si Si4 0.550902 0.199980 0.501115
Si Si5 0.862647 0.274185 0.193955
O O1 0.440132 0.191079 0.344175
O O2 0.411777 0.939597 0.234589
O O3 0.000000 0.024570 0.750000
O O4 0.949978 0.161090 0.587026
O O5 0.146733 0.015956 0.569423
O O6 0.166468 0.358521 0.981459
O O7 0.208466 0.647502 0.863984
O O8 0.301878 0.354507 0.789420
O O9 0.472015 0.297563 0.605503
O O10 0.500000 0.000000 0.500000
#
# Coordination Sequence:
#
# PCOD9276941 Si02
#       5
#     4   8   8   8   8
#     4  10  20  40  66  92 142 172 222 296 330 406
#     4  10  20  40  68  99 136 178 225 285 347 410
#     4  11  22  41  70  95 137 187 223 284 364 395
#     4  10  20  42  67 102 135 170 240 288 333 424
#     4  11  23  42  66  97 136 175 231 288 338 421
#
# _framework density 27.157598
#
# number of rings (size 3 to 8) (size 9 to 14) (size 15 to 20)
#    0.667    0.889    4.444    2.667    1.556    3.556 
#    4.000    5.556    0.000    0.000    0.000    0.000 
#    0.000    0.000    0.000    0.000    0.000    0.000 
#
# Total GULP energy -100588.385237 kJ/mol
# GULP energy per Si atom -5588.243624 kJ/mol
# Density = 2.709579 g / cm^3
# Si number density = 27.157598 Si / 1000 Ang^3
#
#
#
# Elastic Constant Matrix: (Units=GPa)
#
#
# Indices 1 2 3 4 5 6 
#
# 1 149.0309 15.7891 -10.4257 0.0000 -28.8056 0.0000
# 2 15.7891 36.1618 6.2702 0.0000 -15.8994 0.0000
# 3 -10.4257 6.2702 79.2364 0.0000 -22.4499 0.0000
# 4 0.0000 0.0000 0.0000 38.7760 0.0000 -12.8700
# 5 -28.8056 -15.8994 -22.4499 0.0000 47.0244 0.0000
# 6 0.0000 0.0000 0.0000 -12.8700 0.0000 25.5441
#
#
#
# Elastic Compliance Matrix: (Units=1/GPa)
#
#
# Indices 1 2 3 4 5 6 
#
# 1 0.008207 -0.001490 0.002867 0.000000 0.005893 0.000000
# 2 -0.001490 0.032780 0.000106 0.000000 0.010221 0.000000
# 3 0.002867 0.000106 0.015608 0.000000 0.009244 0.000000
# 4 0.000000 0.000000 0.000000 0.030968 0.000000 0.015603
# 5 0.005893 0.010221 0.009244 0.000000 0.032744 0.000000
# 6 0.000000 0.000000 0.000000 0.015603 0.000000 0.047009
#
#
# Mechanical properties :
#
#
# Convention : Reuss Voigt Hill
#
# Bulk Modulus (GPa) = 16.78911 31.96625 24.37768
# Shear Modulus (GPa) = 27.14387 39.12194 33.13291
#
# Velocity S-wave (km/s) = 3.16491 3.79958 3.49667
# Velocity P-wave (km/s) = 4.42166 5.57183 5.02973
#
# Compressibility (1/GPa) = 0.05956241
#
# Stress axis : x y z
#
# Youngs Moduli (GPa) = 121.84049 30.50686 64.06804
#
# Poissons Ratio (x) = 0.04545 -0.18371
# Poissons Ratio (y) = 0.18152 -0.00679
# Poissons Ratio (z) = -0.34937 -0.00323
#
# Static dielectric constant tensor:
#      x y z
#    x 2.258330 0.000000 0.014450 
#    y 0.000000 2.345840 0.000000 
#    z 0.014450 0.000000 2.168870 
# 
# From -- ./inp_files/150134.got.cif
#   From: 2010.05.17/outbox.cif.g08.bks.cpg/sg15_76_cif.got.tgz:150134.got - 2010.06.03 18:47:42.
