data_PCOD9276269
_publ_section_title
;
Structure prediction by ZEFSAII (Michael W. Deem and Ramdas Pophale) SiO2 
 PCOD9276269
Probable space group: C 2/C
;
_chemical_formula_sum "Si O2"
_cell_formula_units_Z 36
_cell_length_a 21.029867
_cell_length_b 13.453560
_cell_length_c 10.603117
_cell_angle_alpha 90.000000
_cell_angle_beta 32.323668
_cell_angle_gamma 90.000000
_cell_volume 1604.052862
_symmetry_space_group_name_H-M "C 2/C"
_symmetry_group_IT_number 15
_symmetry_cell_setting 'monoclinic'
loop_
_space_group_symop_operation_xyz
x,y,z
-x,y,1/2-z
-x,-y,-z
x,-y,1/2+z
1/2+x,1/2+y,z
1/2-x,1/2+y,1/2-z
1/2-x,1/2-y,-z
1/2+x,1/2-y,1/2+z
loop_
_atom_site_type_symbol
_atom_site_label
_atom_site_fract_x
_atom_site_fract_y
_atom_site_fract_z
Si Si1 0.705648 0.884912 0.631271
Si Si2 0.568713 0.304293 0.364253
Si Si3 0.500000 0.369829 0.750000
Si Si4 0.755395 0.400522 0.410935
Si Si5 0.816422 0.191068 0.204509
O O1 0.606032 0.806095 0.759821
O O2 0.816980 0.873625 0.349266
O O3 0.754975 0.842933 0.680742
O O4 0.671449 0.998408 0.707154
O O5 0.530175 0.306049 0.575095
O O6 0.454409 0.338435 0.478425
O O7 0.621970 0.425349 0.582682
O O8 0.804522 0.309499 0.246294
O O9 0.743293 0.359144 0.573121
#
# Coordination Sequence:
#
# PCOD9276269 Si02
#       5
#     8   8   4   8   8
#     4  11  23  39  64  94 119 159 205 257 289 363
#     4  10  23  39  62  89 125 156 204 247 304 350
#     4  10  20  40  58  86 124 158 190 258 292 366
#     4  10  23  37  64  89 123 159 207 238 315 354
#     4  10  22  42  59  90 128 161 193 256 301 364
#
# _framework density 22.443149999999999
#
# number of rings (size 3 to 8) (size 9 to 14) (size 15 to 20)
#    0.000    1.778    2.222    0.667    6.222    2.667 
#    0.000    0.000    4.889    0.000    0.000    0.000 
#    0.000    0.000    0.000    0.000    0.000    0.000 
#
# Total GULP energy -100635.691693 kJ/mol
# GULP energy per Si atom -5590.871761 kJ/mol
# Density = 2.239207 g / cm^3
# Si number density = 22.443150 Si / 1000 Ang^3
#
#
#
# Elastic Constant Matrix: (Units=GPa)
#
#
# Indices 1 2 3 4 5 6 
#
# 1 50.0059 -15.6765 11.4792 0.0000 11.6058 0.0000
# 2 -15.6765 102.9770 -10.2674 0.0000 16.6069 0.0000
# 3 11.4792 -10.2674 50.2571 0.0000 16.4851 0.0000
# 4 0.0000 0.0000 0.0000 5.2347 0.0000 1.8550
# 5 11.6058 16.6069 16.4851 0.0000 26.6072 0.0000
# 6 0.0000 0.0000 0.0000 1.8550 0.0000 18.0123
#
#
#
# Elastic Compliance Matrix: (Units=1/GPa)
#
#
# Indices 1 2 3 4 5 6 
#
# 1 0.025476 0.006432 0.000574 0.000000 -0.015482 0.000000
# 2 0.006432 0.013810 0.006401 0.000000 -0.015391 0.000000
# 3 0.000574 0.006401 0.028197 0.000000 -0.021716 0.000000
# 4 0.000000 0.000000 0.000000 0.198268 0.000000 -0.020419
# 5 -0.015482 -0.015391 -0.021716 0.000000 0.067398 0.000000
# 6 0.000000 0.000000 0.000000 -0.020419 0.000000 0.057620
#
#
# Mechanical properties :
#
#
# Convention : Reuss Voigt Hill
#
# Bulk Modulus (GPa) = 10.60484 19.36788 14.98636
# Shear Modulus (GPa) = 12.64579 24.48450 18.56515
#
# Velocity S-wave (km/s) = 2.37630 3.30655 2.87924
# Velocity P-wave (km/s) = 3.50208 4.81935 4.21252
#
# Compressibility (1/GPa) = 0.09429658
#
# Stress axis : x y z
#
# Youngs Moduli (GPa) = 39.25312 72.40922 35.46436
#
# Poissons Ratio (x) = -0.46575 -0.02034
# Poissons Ratio (y) = -0.25248 -0.22700
# Poissons Ratio (z) = -0.02252 -0.46347
#
# Static dielectric constant tensor:
#      x y z
#    x 1.816080 0.000000 -0.014190 
#    y 0.000000 1.823740 0.000000 
#    z -0.014190 0.000000 1.851560 
# 
# From -- ./inp_files/84340.got.cif
#   From: 2010.05.17/outbox.cif.g08.bks.cpg/sg15_43_cif.got.tgz:84340.got - 2010.06.03 18:47:42.
