data_PCOD9276586
_publ_section_title
;
Structure prediction by ZEFSAII (Michael W. Deem and Ramdas Pophale) SiO2 
 PCOD9276586
Probable space group: C 2/C
;
_chemical_formula_sum "Si O2"
_cell_formula_units_Z 56
_cell_length_a 12.439161
_cell_length_b 7.034607
_cell_length_c 30.822420
_cell_angle_alpha 90.000000
_cell_angle_beta 58.774611
_cell_angle_gamma 90.000000
_cell_volume 2306.386863
_symmetry_space_group_name_H-M "C 2/C"
_symmetry_group_IT_number 15
_symmetry_cell_setting 'monoclinic'
loop_
_space_group_symop_operation_xyz
x,y,z
-x,y,1/2-z
-x,-y,-z
x,-y,1/2+z
1/2+x,1/2+y,z
1/2-x,1/2+y,1/2-z
1/2-x,1/2-y,-z
1/2+x,1/2-y,1/2+z
loop_
_atom_site_type_symbol
_atom_site_label
_atom_site_fract_x
_atom_site_fract_y
_atom_site_fract_z
Si Si1 0.051188 0.660834 0.692594
Si Si2 0.857565 0.767007 0.341049
Si Si3 0.382671 0.609044 0.685314
Si Si4 0.810592 0.550668 0.698315
Si Si5 0.673844 0.307737 0.389816
Si Si6 0.445413 0.108218 0.470231
Si Si7 0.769170 0.083404 0.048640
O O1 0.088449 0.435574 0.687664
O O2 0.182417 0.749561 0.649878
O O3 0.000000 0.724826 0.750000
O O4 0.935533 0.670166 0.683636
O O5 0.766653 0.858353 0.324651
O O6 0.793909 0.718415 0.400879
O O7 0.979029 0.898396 0.324180
O O8 0.278665 0.543072 0.740668
O O9 0.366598 0.542470 0.639248
O O10 0.352121 0.833409 0.684396
O O11 0.566437 0.152189 0.416013
O O12 0.676293 0.410054 0.435688
O O13 0.338762 0.016136 0.462089
O O14 0.374967 0.298948 0.501341
O O15 0.500000 0.000000 0.500000
#
# Coordination Sequence:
#
# PCOD9276586 Si02
#       7
#     8   8   8   8   8   8   8
#     4  10  20  40  63  91 135 176 213 270 330 389
#     4  10  21  40  68  95 130 176 225 267 334 397
#     4  11  23  42  65  98 142 178 227 274 327 401
#     4  11  23  40  66  96 139 183 222 270 328 396
#     4  11  23  44  69  99 137 176 223 277 335 405
#     4  11  25  47  71  98 134 170 229 291 342 408
#     4  10  24  44  72  98 128 177 221 280 351 398
#
# _framework density 24.280403
#
# number of rings (size 3 to 8) (size 9 to 14) (size 15 to 20)
#    0.000    1.429    2.857    2.571    4.000    0.571 
#    5.143    7.143    0.000    0.000    0.000    0.000 
#    0.000    0.000    0.000    0.000    0.000    0.000 
#
# Total GULP energy -156805.055270 kJ/mol
# GULP energy per Si atom -5600.180545 kJ/mol
# Density = 2.422514 g / cm^3
# Si number density = 24.280403 Si / 1000 Ang^3
#
#
#
# Elastic Constant Matrix: (Units=GPa)
#
#
# Indices 1 2 3 4 5 6 
#
# 1 226.1221 29.4352 25.8205 0.0000 12.9198 0.0000
# 2 29.4352 38.4958 4.7443 0.0000 2.5933 0.0000
# 3 25.8205 4.7443 106.1446 0.0000 -4.1644 0.0000
# 4 0.0000 0.0000 0.0000 15.5175 0.0000 9.8915
# 5 12.9198 2.5933 -4.1644 0.0000 54.2503 0.0000
# 6 0.0000 0.0000 0.0000 9.8915 0.0000 33.7047
#
#
#
# Elastic Compliance Matrix: (Units=1/GPa)
#
#
# Indices 1 2 3 4 5 6 
#
# 1 0.005093 -0.003681 -0.001119 0.000000 -0.001123 0.000000
# 2 -0.003681 0.028879 -0.000416 0.000000 -0.000536 0.000000
# 3 -0.001119 -0.000416 0.009752 0.000000 0.001035 0.000000
# 4 0.000000 0.000000 0.000000 0.079273 0.000000 -0.023265
# 5 -0.001123 -0.000536 0.001035 0.000000 0.018806 0.000000
# 6 0.000000 0.000000 0.000000 -0.023265 0.000000 0.036497
#
#
# Mechanical properties :
#
#
# Convention : Reuss Voigt Hill
#
# Bulk Modulus (GPa) = 30.03652 54.52917 42.28285
# Shear Modulus (GPa) = 25.02128 41.41201 33.21665
#
# Velocity S-wave (km/s) = 3.21364 4.13434 3.70272
# Velocity P-wave (km/s) = 5.11542 6.73032 5.97766
#
# Compressibility (1/GPa) = 0.03329280
#
# Stress axis : x y z
#
# Youngs Moduli (GPa) = 196.33016 34.62726 102.53870
#
# Poissons Ratio (x) = 0.12747 0.11469
# Poissons Ratio (y) = 0.72272 0.04269
# Poissons Ratio (z) = 0.21960 0.01442
#
# Static dielectric constant tensor:
#      x y z
#    x 1.959070 0.000000 0.068340 
#    y 0.000000 2.041650 0.000000 
#    z 0.068340 0.000000 1.936260 
# 
# From -- ./inp_files/310213.got.cif
#   From: 2010.05.17/outbox.cif.g08.bks.cpg/sg15_156_cif.got.tgz:310213.got - 2010.06.03 18:47:42.
