data_PCOD9276583
_publ_section_title
;
Structure prediction by ZEFSAII (Michael W. Deem and Ramdas Pophale) SiO2 
 PCOD9276583
Probable space group: C 2/C
;
_chemical_formula_sum "Si O2"
_cell_formula_units_Z 44
_cell_length_a 15.038994
_cell_length_b 8.723330
_cell_length_c 16.814921
_cell_angle_alpha 90.000000
_cell_angle_beta 93.056931
_cell_angle_gamma 90.000000
_cell_volume 2202.812312
_symmetry_space_group_name_H-M "C 2/C"
_symmetry_group_IT_number 15
_symmetry_cell_setting 'monoclinic'
loop_
_space_group_symop_operation_xyz
x,y,z
-x,y,1/2-z
-x,-y,-z
x,-y,1/2+z
1/2+x,1/2+y,z
1/2-x,1/2+y,1/2-z
1/2-x,1/2-y,-z
1/2+x,1/2-y,1/2+z
loop_
_atom_site_type_symbol
_atom_site_label
_atom_site_fract_x
_atom_site_fract_y
_atom_site_fract_z
Si Si1 0.340792 0.338512 0.482489
Si Si2 0.389866 0.755655 0.294841
Si Si3 0.427691 0.413472 0.653051
Si Si4 0.514019 0.254512 0.398996
Si Si5 0.500000 0.030714 0.250000
Si Si6 0.837044 0.802793 0.959782
O O1 0.250000 0.250000 0.500000
O O2 0.386606 0.361056 0.569439
O O3 0.413020 0.260056 0.427827
O O4 0.332377 0.512966 0.450659
O O5 0.482133 0.682140 0.331127
O O6 0.364924 0.637347 0.223419
O O7 0.333571 0.766980 0.371406
O O8 0.415484 0.919640 0.260767
O O9 0.456488 0.589098 0.644828
O O10 0.518288 0.125795 0.331240
O O11 0.579454 0.251723 0.479892
O O12 0.750000 0.750000 0.000000
#
# Coordination Sequence:
#
# PCOD9276583 Si02
#       6
#     8   8   8   8   4   8
#     4  11  23  40  65  95 122 163 210 251 312 375
#     4  10  20  40  63  91 124 160 209 255 315 357
#     4   9  18  40  67  85 118 166 203 249 315 367
#     4  11  21  43  64  90 124 163 211 250 312 371
#     4  10  24  34  66  96 118 168 208 264 302 360
#     4  11  24  42  64  92 125 168 202 255 315 375
#
# _framework density 19.974464999999999
#
# number of rings (size 3 to 8) (size 9 to 14) (size 15 to 20)
#    0.000    1.818    3.636    2.182    2.545    3.636 
#    3.273    0.000    0.000    0.000    0.000    0.000 
#    0.000    0.000    0.000    0.000    0.000    0.000 
#
# Total GULP energy -122614.496307 kJ/mol
# GULP energy per Si atom -5573.386196 kJ/mol
# Density = 1.992900 g / cm^3
# Si number density = 19.974465 Si / 1000 Ang^3
#
#
#
# Elastic Constant Matrix: (Units=GPa)
#
#
# Indices 1 2 3 4 5 6 
#
# 1 67.5084 25.7005 37.0439 0.0000 -34.8854 0.0000
# 2 25.7005 77.7196 67.9319 0.0000 -14.7135 0.0000
# 3 37.0439 67.9319 127.0326 0.0000 -51.1210 0.0000
# 4 0.0000 0.0000 0.0000 16.7770 0.0000 -6.0575
# 5 -34.8854 -14.7135 -51.1210 0.0000 40.1788 0.0000
# 6 0.0000 0.0000 0.0000 -6.0575 0.0000 12.5889
#
#
#
# Elastic Compliance Matrix: (Units=1/GPa)
#
#
# Indices 1 2 3 4 5 6 
#
# 1 0.038796 -0.021873 0.021959 0.000000 0.053614 0.000000
# 2 -0.021873 0.042394 -0.036246 0.000000 -0.049583 0.000000
# 3 0.021959 -0.036246 0.047507 0.000000 0.066238 0.000000
# 4 0.000000 0.000000 0.000000 0.072138 0.000000 0.034711
# 5 0.053614 -0.049583 0.066238 0.000000 0.137559 0.000000
# 6 0.000000 0.000000 0.000000 0.034711 0.000000 0.096137
#
#
# Mechanical properties :
#
#
# Convention : Reuss Voigt Hill
#
# Bulk Modulus (GPa) = 17.73747 59.29035 38.51391
# Shear Modulus (GPa) = 9.51217 23.34789 16.43003
#
# Velocity S-wave (km/s) = 2.18461 3.42261 2.87113
# Velocity P-wave (km/s) = 3.90675 6.73547 5.50587
#
# Compressibility (1/GPa) = 0.05637783
#
# Stress axis : x y z
#
# Youngs Moduli (GPa) = 25.77601 23.58828 21.04953
#
# Poissons Ratio (x) = 0.51594 -0.46223
# Poissons Ratio (y) = 0.56379 0.76296
# Poissons Ratio (z) = -0.56602 0.85498
#
# Static dielectric constant tensor:
#      x y z
#    x 1.712040 0.000000 -0.045380 
#    y 0.000000 1.764240 0.000000 
#    z -0.045380 0.000000 1.770510 
# 
# From -- ./inp_files/202723.got.cif
#   From: 2010.05.17/outbox.cif.g08.bks.cpg/sg15_102_cif.got.tgz:202723.got - 2010.06.03 18:47:42.
