data_PCOD9276153
_publ_section_title
;
Structure prediction by ZEFSAII (Michael W. Deem and Ramdas Pophale) SiO2 
 PCOD9276153
Probable space group: C 2/C
;
_chemical_formula_sum "Si O2"
_cell_formula_units_Z 40
_cell_length_a 9.200593
_cell_length_b 29.391388
_cell_length_c 15.289200
_cell_angle_alpha 90.000000
_cell_angle_beta 156.309807
_cell_angle_gamma 90.000000
_cell_volume 1661.196193
_symmetry_space_group_name_H-M "C 2/C"
_symmetry_group_IT_number 15
_symmetry_cell_setting 'monoclinic'
loop_
_space_group_symop_operation_xyz
x,y,z
-x,y,1/2-z
-x,-y,-z
x,-y,1/2+z
1/2+x,1/2+y,z
1/2-x,1/2+y,1/2-z
1/2-x,1/2-y,-z
1/2+x,1/2-y,1/2+z
loop_
_atom_site_type_symbol
_atom_site_label
_atom_site_fract_x
_atom_site_fract_y
_atom_site_fract_z
Si Si1 0.938166 0.101577 0.409415
Si Si2 0.116887 0.550785 0.086779
Si Si3 0.829565 0.384588 0.293458
Si Si4 0.064035 0.709631 0.001781
Si Si5 0.840298 0.298008 0.758542
O O1 0.325809 0.100005 0.574669
O O2 0.997217 0.104063 0.546174
O O3 0.691851 0.063027 0.229146
O O4 0.795220 0.150916 0.303988
O O5 0.500000 0.557925 0.250000
O O6 0.000000 0.500000 0.000000
O O7 0.850717 0.586353 0.893239
O O8 0.886698 0.331593 0.349355
O O9 0.500000 0.702615 0.250000
O O10 0.921472 0.709933 0.023815
O O11 0.962396 0.758654 0.907727
O O12 0.000000 0.296656 0.750000
#
# Coordination Sequence:
#
# PCOD9276153 Si02
#       5
#     8   8   8   8   8
#     4  10  21  40  65  93 128 169 220 269 324 388
#     4  10  21  43  67  95 127 164 215 273 331 393
#     4  10  20  39  69  94 123 170 223 274 311 384
#     4  12  22  40  65  93 132 181 234 266 312 398
#     4  12  25  39  58  96 139 174 217 276 334 377
#
# _framework density 24.079034
#
# number of rings (size 3 to 8) (size 9 to 14) (size 15 to 20)
#    0.000    1.200    4.000    3.000    2.800    0.800 
#    3.600    1.000    0.000    0.000    0.000    0.000 
#    0.000    0.000    0.000    0.000    0.000    0.000 
#
# Total GULP energy -111839.318297 kJ/mol
# GULP energy per Si atom -5591.965915 kJ/mol
# Density = 2.402423 g / cm^3
# Si number density = 24.079034 Si / 1000 Ang^3
#
#
#
# Elastic Constant Matrix: (Units=GPa)
#
#
# Indices 1 2 3 4 5 6 
#
# 1 94.4140 -1.7775 42.5176 0.0000 -13.9817 0.0000
# 2 -1.7775 133.8802 69.5684 0.0000 -16.9651 0.0000
# 3 42.5176 69.5684 115.0629 0.0000 -50.6120 0.0000
# 4 0.0000 0.0000 0.0000 44.3962 0.0000 -15.2331
# 5 -13.9817 -16.9651 -50.6120 0.0000 43.9456 0.0000
# 6 0.0000 0.0000 0.0000 -15.2331 0.0000 23.4113
#
#
#
# Elastic Compliance Matrix: (Units=1/GPa)
#
#
# Indices 1 2 3 4 5 6 
#
# 1 0.015030 0.005498 -0.011838 0.000000 -0.006729 0.000000
# 2 0.005498 0.014024 -0.014917 0.000000 -0.010016 0.000000
# 3 -0.011838 -0.014917 0.036267 0.000000 0.032243 0.000000
# 4 0.000000 0.000000 0.000000 0.028999 0.000000 0.018868
# 5 -0.006729 -0.010016 0.032243 0.000000 0.053882 0.000000
# 6 0.000000 0.000000 0.000000 0.018868 0.000000 0.054992
#
#
# Mechanical properties :
#
#
# Convention : Reuss Voigt Hill
#
# Bulk Modulus (GPa) = 43.84478 62.66378 53.25428
# Shear Modulus (GPa) = 19.73877 37.88720 28.81298
#
# Velocity S-wave (km/s) = 2.86623 3.97098 3.46294
# Velocity P-wave (km/s) = 5.40388 6.86335 6.17687
#
# Compressibility (1/GPa) = 0.02280773
#
# Stress axis : x y z
#
# Youngs Moduli (GPa) = 66.53521 71.30477 27.57348
#
# Poissons Ratio (x) = -0.39205 0.32641
# Poissons Ratio (y) = -0.36582 0.41130
# Poissons Ratio (z) = 0.78764 1.06363
#
# Static dielectric constant tensor:
#      x y z
#    x 2.112670 0.000000 0.028430 
#    y 0.000000 1.871380 0.000000 
#    z 0.028430 0.000000 1.992150 
# 
# From -- ./inp_files/139932.got.cif
#   From: 2010.05.17/outbox.cif.g08.bks.cpg/sg15_70_cif.got.tgz:139932.got - 2010.06.03 18:47:42.
