data_PCOD9276912
_publ_section_title
;
Structure prediction by ZEFSAII (Michael W. Deem and Ramdas Pophale) SiO2 
 PCOD9276912
Probable space group: C 2/C
;
_chemical_formula_sum "Si O2"
_cell_formula_units_Z 40
_cell_length_a 20.413361
_cell_length_b 9.063557
_cell_length_c 9.968267
_cell_angle_alpha 90.000000
_cell_angle_beta 118.796551
_cell_angle_gamma 90.000000
_cell_volume 1616.230663
_symmetry_space_group_name_H-M "C 2/C"
_symmetry_group_IT_number 15
_symmetry_cell_setting 'monoclinic'
loop_
_space_group_symop_operation_xyz
x,y,z
-x,y,1/2-z
-x,-y,-z
x,-y,1/2+z
1/2+x,1/2+y,z
1/2-x,1/2+y,1/2-z
1/2-x,1/2-y,-z
1/2+x,1/2-y,1/2+z
loop_
_atom_site_type_symbol
_atom_site_label
_atom_site_fract_x
_atom_site_fract_y
_atom_site_fract_z
Si Si1 0.627024 0.174686 0.884085
Si Si2 0.512615 0.167760 0.550819
Si Si3 0.349085 0.475966 0.479505
Si Si4 0.704655 0.118049 0.383522
Si Si5 0.082381 0.153838 0.706535
O O1 0.592438 0.187233 0.700239
O O2 0.553654 0.190687 0.906209
O O3 0.671543 0.318982 0.972394
O O4 0.668204 0.016513 0.932887
O O5 0.496835 0.272383 0.408020
O O6 0.500000 0.000000 0.500000
O O7 0.270025 0.546393 0.360265
O O8 0.394383 0.566426 0.637505
O O9 0.398304 0.453024 0.397221
O O10 0.750000 0.250000 0.500000
O O11 0.637225 0.204407 0.249237
#
# Coordination Sequence:
#
# PCOD9276912 Si02
#       5
#     8   8   8   8   8
#     4  10  21  39  64  93 127 168 213 268 326 373
#     4  10  20  40  66  90 124 168 221 263 312 390
#     4  10  23  41  63  97 133 164 210 269 323 379
#     4  10  21  39  63  93 130 167 215 261 320 390
#     4  10  22  42  65  96 129 170 217 260 323 384
#
# _framework density 24.748943000000001
#
# number of rings (size 3 to 8) (size 9 to 14) (size 15 to 20)
#    0.000    2.000    2.000    0.600    0.000    8.800 
#    7.200    0.000    0.000    0.000    0.000    0.000 
#    0.000    0.000    0.000    0.000    0.000    0.000 
#
# Total GULP energy -111718.261339 kJ/mol
# GULP energy per Si atom -5585.913067 kJ/mol
# Density = 2.469261 g / cm^3
# Si number density = 24.748943 Si / 1000 Ang^3
#
#
#
# Elastic Constant Matrix: (Units=GPa)
#
#
# Indices 1 2 3 4 5 6 
#
# 1 37.4847 37.4227 21.2926 0.0000 0.0040 0.0000
# 2 37.4227 137.7337 47.8227 0.0000 8.9629 0.0000
# 3 21.2926 47.8227 108.6407 0.0000 -3.4880 0.0000
# 4 0.0000 0.0000 0.0000 42.6462 0.0000 12.6586
# 5 0.0040 8.9629 -3.4880 0.0000 20.1314 0.0000
# 6 0.0000 0.0000 0.0000 12.6586 0.0000 48.4872
#
#
#
# Elastic Compliance Matrix: (Units=1/GPa)
#
#
# Indices 1 2 3 4 5 6 
#
# 1 0.037891 -0.009437 -0.003155 0.000000 0.003647 0.000000
# 2 -0.009437 0.011345 -0.003325 0.000000 -0.005625 0.000000
# 3 -0.003155 -0.003325 0.011398 0.000000 0.003456 0.000000
# 4 0.000000 0.000000 0.000000 0.025418 0.000000 -0.006636
# 5 0.003647 -0.005625 0.003456 0.000000 0.052776 0.000000
# 6 0.000000 0.000000 0.000000 -0.006636 0.000000 0.022356
#
#
# Mechanical properties :
#
#
# Convention : Reuss Voigt Hill
#
# Bulk Modulus (GPa) = 34.72311 55.21502 44.96906
# Shear Modulus (GPa) = 24.67697 34.07437 29.37567
#
# Velocity S-wave (km/s) = 3.16110 3.71455 3.44895
# Velocity P-wave (km/s) = 5.23297 6.38402 5.83694
#
# Compressibility (1/GPa) = 0.02879927
#
# Stress axis : x y z
#
# Youngs Moduli (GPa) = 26.39169 88.14497 87.73765
#
# Poissons Ratio (x) = 0.83181 0.27682
# Poissons Ratio (y) = 0.24906 0.29173
# Poissons Ratio (z) = 0.08327 0.29308
#
# Static dielectric constant tensor:
#      x y z
#    x 2.474290 0.000000 0.196090 
#    y 0.000000 1.990210 0.000000 
#    z 0.196090 0.000000 2.077810 
# 
# From -- ./inp_files/109791.got.cif
#   From: 2010.05.17/outbox.cif.g08.bks.cpg/sg15_55_cif.got.tgz:109791.got - 2010.06.03 18:47:42.
