data_PCOD9276657
_publ_section_title
;
Structure prediction by ZEFSAII (Michael W. Deem and Ramdas Pophale) SiO2 
 PCOD9276657
Probable space group: C 2/C
;
_chemical_formula_sum "Si O2"
_cell_formula_units_Z 60
_cell_length_a 26.515697
_cell_length_b 22.322990
_cell_length_c 11.789645
_cell_angle_alpha 90.000000
_cell_angle_beta 158.760343
_cell_angle_gamma 90.000000
_cell_volume 2528.065117
_symmetry_space_group_name_H-M "C 2/C"
_symmetry_group_IT_number 15
_symmetry_cell_setting 'monoclinic'
loop_
_space_group_symop_operation_xyz
x,y,z
-x,y,1/2-z
-x,-y,-z
x,-y,1/2+z
1/2+x,1/2+y,z
1/2-x,1/2+y,1/2-z
1/2-x,1/2-y,-z
1/2+x,1/2-y,1/2+z
loop_
_atom_site_type_symbol
_atom_site_label
_atom_site_fract_x
_atom_site_fract_y
_atom_site_fract_z
Si Si1 0.134996 0.564193 0.398583
Si Si2 0.381133 0.452267 0.592815
Si Si3 0.713052 0.197944 0.281050
Si Si4 0.594566 0.793867 0.278393
Si Si5 0.000000 0.469809 0.250000
Si Si6 0.869942 0.694169 0.043346
Si Si7 0.767839 0.928216 0.932119
Si Si8 0.809295 0.835679 0.551002
O O1 0.023318 0.513132 0.190513
O O2 0.080794 0.631806 0.298836
O O3 0.211948 0.559277 0.441058
O O4 0.240877 0.553501 0.724589
O O5 0.500000 0.442149 0.750000
O O6 0.376569 0.519740 0.630448
O O7 0.382249 0.399974 0.689675
O O8 0.793668 0.260260 0.466539
O O9 0.809248 0.141060 0.510211
O O10 0.565707 0.190796 0.035630
O O11 0.670955 0.201104 0.059787
O O12 0.686973 0.833552 0.387214
O O13 0.601644 0.725141 0.246879
O O14 0.136690 0.432686 0.569119
O O15 0.000000 0.722941 0.250000
O O16 0.759950 0.675657 0.716851
#
# Coordination Sequence:
#
# PCOD9276657 Si02
#       8
#     8   8   8   8   4   8   8   8
#     4  10  22  39  62  90 118 158 209 250 307 359
#     4  10  24  42  64  87 122 166 203 256 302 373
#     4  10  22  36  60  86 130 163 193 257 305 360
#     4   9  19  38  61  93 114 155 213 256 306 349
#     4  10  20  40  64  88 120 156 200 262 292 354
#     4  10  21  38  56  86 123 160 200 254 302 363
#     4  11  24  39  58  93 123 161 203 246 309 369
#     4   9  20  37  63  88 115 154 210 257 298 363
#
# _framework density 23.733564000000001
#
# number of rings (size 3 to 8) (size 9 to 14) (size 15 to 20)
#    0.000    2.133    0.667    1.200    7.467    4.800 
#    0.000    1.333    0.000    0.000    0.000    0.000 
#    0.000    0.000    0.000    0.000    0.000    0.000 
#
# Total GULP energy -167687.455237 kJ/mol
# GULP energy per Si atom -5589.581841 kJ/mol
# Density = 2.367955 g / cm^3
# Si number density = 23.733564 Si / 1000 Ang^3
#
#
#
# Elastic Constant Matrix: (Units=GPa)
#
#
# Indices 1 2 3 4 5 6 
#
# 1 100.7807 28.3078 -3.5510 0.0000 13.9413 0.0000
# 2 28.3078 109.0643 14.2581 0.0000 23.0425 0.0000
# 3 -3.5510 14.2581 19.1584 0.0000 4.4495 0.0000
# 4 0.0000 0.0000 0.0000 -16.4850 0.0000 -15.1563
# 5 13.9413 23.0425 4.4495 0.0000 41.8205 0.0000
# 6 0.0000 0.0000 0.0000 -15.1563 0.0000 22.2247
#
#
#
# Elastic Compliance Matrix: (Units=1/GPa)
#
#
# Indices 1 2 3 4 5 6 
#
# 1 0.011312 -0.003029 0.004962 0.000000 -0.002630 0.000000
# 2 -0.003029 0.012059 -0.008436 0.000000 -0.004737 0.000000
# 3 0.004962 -0.008436 0.060186 0.000000 -0.003410 0.000000
# 4 0.000000 0.000000 0.000000 -0.037284 0.000000 -0.025426
# 5 -0.002630 -0.004737 -0.003410 0.000000 0.027761 0.000000
# 6 0.000000 0.000000 0.000000 -0.025426 0.000000 0.027655
#
#
# Mechanical properties :
#
#
# Convention : Reuss Voigt Hill
#
# Bulk Modulus (GPa) = 14.17417 34.11480 24.14449
# Shear Modulus (GPa) = 36.17640 22.17795 29.17717
#
# Velocity S-wave (km/s) = 3.90843 3.06020 3.51003
# Velocity P-wave (km/s) = 5.13351 5.18572 5.15968
#
# Compressibility (1/GPa) = 0.07055084
#
# Stress axis : x y z
#
# Youngs Moduli (GPa) = 88.40180 82.92787 16.61516
#
# Poissons Ratio (x) = 0.25119 -0.08244
# Poissons Ratio (y) = 0.26778 0.14016
# Poissons Ratio (z) = -0.43863 0.69955
#
# Static dielectric constant tensor:
#      x y z
#    x 1.878890 0.000000 -0.014780 
#    y 0.000000 1.947830 0.000000 
#    z -0.014780 0.000000 1.915160 
# 
# From -- ./inp_files/119963.got.cif
#   From: 2010.05.17/outbox.cif.g08.bks.cpg/sg15_60_cif.got.tgz:119963.got - 2010.06.03 18:47:42.
