data_PCOD9276475
_publ_section_title
;
Structure prediction by ZEFSAII (Michael W. Deem and Ramdas Pophale) SiO2 
 PCOD9276475
Probable space group: C 2/C
;
_chemical_formula_sum "Si O2"
_cell_formula_units_Z 44
_cell_length_a 7.180847
_cell_length_b 18.970165
_cell_length_c 18.147614
_cell_angle_alpha 90.000000
_cell_angle_beta 58.497603
_cell_angle_gamma 90.000000
_cell_volume 2107.759072
_symmetry_space_group_name_H-M "C 2/C"
_symmetry_group_IT_number 15
_symmetry_cell_setting 'monoclinic'
loop_
_space_group_symop_operation_xyz
x,y,z
-x,y,1/2-z
-x,-y,-z
x,-y,1/2+z
1/2+x,1/2+y,z
1/2-x,1/2+y,1/2-z
1/2-x,1/2-y,-z
1/2+x,1/2-y,1/2+z
loop_
_atom_site_type_symbol
_atom_site_label
_atom_site_fract_x
_atom_site_fract_y
_atom_site_fract_z
Si Si1 0.801720 0.089033 0.515861
Si Si2 0.678506 0.758568 0.313455
Si Si3 0.000000 0.630346 0.250000
Si Si4 0.694995 0.295516 0.366923
Si Si5 0.550596 0.820168 0.493277
Si Si6 0.703383 0.934908 0.573151
O O1 0.805062 0.129161 0.593668
O O2 0.670767 0.141294 0.489584
O O3 0.052701 0.073722 0.444091
O O4 0.683973 0.014077 0.547668
O O5 0.792474 0.682717 0.291461
O O6 0.425547 0.759289 0.341875
O O7 0.804747 0.798536 0.221294
O O8 0.674309 0.793661 0.394711
O O9 0.972681 0.583950 0.328323
O O10 0.514651 0.245521 0.441631
O O11 0.677220 0.878008 0.514061
#
# Coordination Sequence:
#
# PCOD9276475 Si02
#       6
#     8   8   4   8   8   8
#     4  10  23  42  60  90 124 168 205 247 318 382
#     4  10  22  34  61  93 118 156 209 259 315 362
#     4  12  22  38  58  96 122 154 208 264 304 368
#     4  10  20  40  62  89 123 158 206 267 307 365
#     4  11  21  41  65  87 123 163 206 263 308 364
#     4  11  24  39  63  89 128 166 204 252 317 382
#
# _framework density 20.875252
#
# number of rings (size 3 to 8) (size 9 to 14) (size 15 to 20)
#    0.000    1.455    1.818    4.909    2.545    4.364 
#    0.000    0.000    0.000    0.000    0.000    0.000 
#    0.000    0.000    0.000    0.000    0.000    0.000 
#
# Total GULP energy -122990.204570 kJ/mol
# GULP energy per Si atom -5590.463844 kJ/mol
# Density = 2.082774 g / cm^3
# Si number density = 20.875252 Si / 1000 Ang^3
#
#
#
# Elastic Constant Matrix: (Units=GPa)
#
#
# Indices 1 2 3 4 5 6 
#
# 1 48.3638 9.0981 32.5491 0.0000 5.5859 0.0000
# 2 9.0981 116.6349 75.3435 0.0000 8.5347 0.0000
# 3 32.5491 75.3435 144.1645 0.0000 15.9062 0.0000
# 4 0.0000 0.0000 0.0000 8.2209 0.0000 7.5610
# 5 5.5859 8.5347 15.9062 0.0000 30.3762 0.0000
# 6 0.0000 0.0000 0.0000 7.5610 0.0000 25.3366
#
#
#
# Elastic Compliance Matrix: (Units=1/GPa)
#
#
# Indices 1 2 3 4 5 6 
#
# 1 0.024961 0.002562 -0.006780 0.000000 -0.001759 0.000000
# 2 0.002562 0.013207 -0.007449 0.000000 -0.000281 0.000000
# 3 -0.006780 -0.007449 0.012727 0.000000 -0.003325 0.000000
# 4 0.000000 0.000000 0.000000 0.167657 0.000000 -0.050032
# 5 -0.001759 -0.000281 -0.003325 0.000000 0.035064 0.000000
# 6 0.000000 0.000000 0.000000 -0.050032 0.000000 0.054399
#
#
# Mechanical properties :
#
#
# Convention : Reuss Voigt Hill
#
# Bulk Modulus (GPa) = 36.28592 60.34939 48.31766
# Shear Modulus (GPa) = 14.68264 25.59824 20.14044
#
# Velocity S-wave (km/s) = 2.65495 3.50558 3.10949
# Velocity P-wave (km/s) = 5.17865 6.73482 6.00734
#
# Compressibility (1/GPa) = 0.02755890
#
# Stress axis : x y z
#
# Youngs Moduli (GPa) = 40.06234 75.71929 78.57064
#
# Poissons Ratio (x) = -0.19396 0.53273
# Poissons Ratio (y) = -0.10262 0.58531
# Poissons Ratio (z) = 0.27163 0.56407
#
# Static dielectric constant tensor:
#      x y z
#    x 1.827170 0.000000 0.003170 
#    y 0.000000 1.704100 0.000000 
#    z 0.003170 0.000000 1.748860 
# 
# From -- ./inp_files/134277.got.cif
#   From: 2010.05.17/outbox.cif.g08.bks.cpg/sg15_68_cif.got.tgz:134277.got - 2010.06.03 18:47:42.
