data_PCOD9276738
_publ_section_title
;
Structure prediction by ZEFSAII (Michael W. Deem and Ramdas Pophale) SiO2 
 PCOD9276738
Probable space group: C 2/C
;
_chemical_formula_sum "Si O2"
_cell_formula_units_Z 48
_cell_length_a 24.552065
_cell_length_b 13.487651
_cell_length_c 5.651040
_cell_angle_alpha 90.000000
_cell_angle_beta 80.607569
_cell_angle_gamma 90.000000
_cell_volume 1846.252418
_symmetry_space_group_name_H-M "C 2/C"
_symmetry_group_IT_number 15
_symmetry_cell_setting 'monoclinic'
loop_
_space_group_symop_operation_xyz
x,y,z
-x,y,1/2-z
-x,-y,-z
x,-y,1/2+z
1/2+x,1/2+y,z
1/2-x,1/2+y,1/2-z
1/2-x,1/2-y,-z
1/2+x,1/2-y,1/2+z
loop_
_atom_site_type_symbol
_atom_site_label
_atom_site_fract_x
_atom_site_fract_y
_atom_site_fract_z
Si Si1 0.960077 0.409599 0.457772
Si Si2 0.243138 0.030111 0.338528
Si Si3 0.564879 0.541612 0.671705
Si Si4 0.644617 0.091567 0.727901
Si Si5 0.708736 0.221216 0.320261
Si Si6 0.103944 0.258007 0.658948
O O1 0.908909 0.458947 0.348744
O O2 0.935871 0.329507 0.656937
O O3 0.000000 0.349947 0.250000
O O4 0.000000 0.500000 0.500000
O O5 0.257307 0.145729 0.369626
O O6 0.217188 0.983938 0.594553
O O7 0.302573 0.975004 0.250259
O O8 0.500000 0.517219 0.750000
O O9 0.587600 0.486745 0.418938
O O10 0.571925 0.658622 0.616617
O O11 0.666096 0.154655 0.495160
O O12 0.625402 0.168468 0.938933
O O13 0.750000 0.250000 0.500000
O O14 0.662594 0.285035 0.222500
#
# Coordination Sequence:
#
# PCOD9276738 Si02
#       6
#     8   8   8   8   8   8
#     4  11  29  38  61 106 156 194 237 285 358 457
#     4  10  20  40  64  94 135 186 223 278 357 433
#     4  10  25  47  75  99 138 186 244 309 371 422
#     4  10  24  42  68  96 148 188 235 294 369 445
#     4  10  23  43  67  99 140 185 240 299 362 432
#     4  11  25  45  71 103 140 189 247 306 369 450
#
# _framework density 25.998612999999999
#
# number of rings (size 3 to 8) (size 9 to 14) (size 15 to 20)
#    0.000    1.667    1.667    0.000   16.333    1.333 
#    0.000    3.333    0.000    0.000    0.000    0.000 
#    0.000    0.000    0.000    0.000    0.000    0.000 
#
# Total GULP energy -133938.413708 kJ/mol
# GULP energy per Si atom -5580.767238 kJ/mol
# Density = 2.593944 g / cm^3
# Si number density = 25.998613 Si / 1000 Ang^3
#
#
#
# Elastic Constant Matrix: (Units=GPa)
#
#
# Indices 1 2 3 4 5 6 
#
# 1 93.0817 5.6336 30.6678 0.0000 3.9181 0.0000
# 2 5.6336 90.6958 17.4785 0.0000 -7.7205 0.0000
# 3 30.6678 17.4785 121.4359 0.0000 -9.0418 0.0000
# 4 0.0000 0.0000 0.0000 40.0200 0.0000 7.5985
# 5 3.9181 -7.7205 -9.0418 0.0000 54.0345 0.0000
# 6 0.0000 0.0000 0.0000 7.5985 0.0000 31.5395
#
#
#
# Elastic Compliance Matrix: (Units=1/GPa)
#
#
# Indices 1 2 3 4 5 6 
#
# 1 0.011824 -0.000266 -0.003053 0.000000 -0.001406 0.000000
# 2 -0.000266 0.011447 -0.001476 0.000000 0.001408 0.000000
# 3 -0.003053 -0.001476 0.009335 0.000000 0.001573 0.000000
# 4 0.000000 0.000000 0.000000 0.026185 0.000000 -0.006309
# 5 -0.001406 0.001408 0.001573 0.000000 0.019073 0.000000
# 6 0.000000 0.000000 0.000000 -0.006309 0.000000 0.033226
#
#
# Mechanical properties :
#
#
# Convention : Reuss Voigt Hill
#
# Bulk Modulus (GPa) = 43.44423 45.86368 44.65395
# Shear Modulus (GPa) = 38.95560 41.88101 40.41830
#
# Velocity S-wave (km/s) = 3.87508 4.01795 3.94716
# Velocity P-wave (km/s) = 6.06368 6.26134 6.16330
#
# Compressibility (1/GPa) = 0.02301802
#
# Stress axis : x y z
#
# Youngs Moduli (GPa) = 84.57182 87.36219 107.12171
#
# Poissons Ratio (x) = 0.02323 0.32700
# Poissons Ratio (y) = 0.02249 0.15806
# Poissons Ratio (z) = 0.25816 0.12891
#
# Static dielectric constant tensor:
#      x y z
#    x 3.705550 0.000000 0.509050 
#    y 0.000000 2.045910 0.000000 
#    z 0.509050 0.000000 2.362710 
# 
# From -- ./inp_files/16934.got.cif
#   From: 2010.05.17/outbox.cif.g08.bks.cpg/sg15_9_cif.got.tgz:16934.got - 2010.06.03 18:47:42.
