data_PCOD9276806
_publ_section_title
;
Structure prediction by ZEFSAII (Michael W. Deem and Ramdas Pophale) SiO2 
 PCOD9276806
Probable space group: C 2/C
;
_chemical_formula_sum "Si O2"
_cell_formula_units_Z 48
_cell_length_a 15.744036
_cell_length_b 19.842208
_cell_length_c 7.990181
_cell_angle_alpha 90.000000
_cell_angle_beta 65.263188
_cell_angle_gamma 90.000000
_cell_volume 2267.060354
_symmetry_space_group_name_H-M "C 2/C"
_symmetry_group_IT_number 15
_symmetry_cell_setting 'monoclinic'
loop_
_space_group_symop_operation_xyz
x,y,z
-x,y,1/2-z
-x,-y,-z
x,-y,1/2+z
1/2+x,1/2+y,z
1/2-x,1/2+y,1/2-z
1/2-x,1/2-y,-z
1/2+x,1/2-y,1/2+z
loop_
_atom_site_type_symbol
_atom_site_label
_atom_site_fract_x
_atom_site_fract_y
_atom_site_fract_z
Si Si1 0.622123 0.840541 0.728365
Si Si2 0.708150 0.694377 0.165528
Si Si3 0.402432 0.696877 0.912706
Si Si4 0.740237 0.583108 0.593181
Si Si5 0.047807 0.566038 0.537515
Si Si6 0.745715 0.558263 0.978464
O O1 0.704016 0.817972 0.786388
O O2 0.603768 0.773587 0.642405
O O3 0.663878 0.899682 0.580358
O O4 0.542974 0.873729 0.907678
O O5 0.621761 0.703011 0.367911
O O6 0.750000 0.750000 0.000000
O O7 0.690914 0.623707 0.086860
O O8 0.500000 0.672269 0.750000
O O9 0.325370 0.647115 0.893522
O O10 0.759669 0.570869 0.771146
O O11 0.699627 0.514247 0.548753
O O12 0.156659 0.555011 0.498424
O O13 0.000000 0.585116 0.750000
O O14 0.000000 0.500000 0.500000
#
# Coordination Sequence:
#
# PCOD9276806 Si02
#       6
#     8   8   8   8   8   8
#     4  10  22  38  59  85 122 165 199 242 307 381
#     4  10  20  40  65  90 119 161 208 247 305 383
#     4  11  24  40  60  90 123 159 208 268 311 347
#     4  11  21  41  62  87 119 160 211 250 302 380
#     4  11  23  37  57  94 130 156 197 252 309 370
#     4  11  22  38  65  88 116 165 204 245 304 379
#
# _framework density 21.172794
#
# number of rings (size 3 to 8) (size 9 to 14) (size 15 to 20)
#    0.000    1.333    0.000    9.000    0.000    6.000 
#    0.000    5.833    0.000    0.000    0.000    0.000 
#    0.000    0.000    0.000    0.000    0.000    0.000 
#
# Total GULP energy -133939.591820 kJ/mol
# GULP energy per Si atom -5580.816326 kJ/mol
# Density = 2.112460 g / cm^3
# Si number density = 21.172794 Si / 1000 Ang^3
#
#
#
# Elastic Constant Matrix: (Units=GPa)
#
#
# Indices 1 2 3 4 5 6 
#
# 1 33.8057 15.7775 34.1928 0.0000 4.6592 0.0000
# 2 15.7775 165.8365 88.3732 0.0000 10.8053 0.0000
# 3 34.1928 88.3732 199.2363 0.0000 11.8826 0.0000
# 4 0.0000 0.0000 0.0000 49.4956 0.0000 0.0656
# 5 4.6592 10.8053 11.8826 0.0000 34.4281 0.0000
# 6 0.0000 0.0000 0.0000 0.0656 0.0000 14.0831
#
#
#
# Elastic Compliance Matrix: (Units=1/GPa)
#
#
# Indices 1 2 3 4 5 6 
#
# 1 0.036057 -0.000052 -0.005999 0.000000 -0.002793 0.000000
# 2 -0.000052 0.007954 -0.003441 0.000000 -0.001301 0.000000
# 3 -0.005999 -0.003441 0.007619 0.000000 -0.000738 0.000000
# 4 0.000000 0.000000 0.000000 0.020204 0.000000 -0.000094
# 5 -0.002793 -0.001301 -0.000738 0.000000 0.030087 0.000000
# 6 0.000000 0.000000 0.000000 -0.000094 0.000000 0.071007
#
#
# Mechanical properties :
#
#
# Convention : Reuss Voigt Hill
#
# Bulk Modulus (GPa) = 30.63128 75.06281 52.84705
# Shear Modulus (GPa) = 24.65555 36.97037 30.81296
#
# Velocity S-wave (km/s) = 3.41617 4.18320 3.81899
# Velocity P-wave (km/s) = 5.48260 7.67214 6.66786
#
# Compressibility (1/GPa) = 0.03264637
#
# Stress axis : x y z
#
# Youngs Moduli (GPa) = 27.73371 125.72813 131.24913
#
# Poissons Ratio (x) = 0.00652 0.78730
# Poissons Ratio (y) = 0.00144 0.45168
# Poissons Ratio (z) = 0.16636 0.43268
#
# Static dielectric constant tensor:
#      x y z
#    x 1.821620 0.000000 -0.031800 
#    y 0.000000 1.780250 0.000000 
#    z -0.031800 0.000000 1.814500 
# 
# From -- ./inp_files/48372.got.cif
#   From: 2010.05.17/outbox.cif.g08.bks.cpg/sg15_25_cif.got.tgz:48372.got - 2010.06.03 18:47:42.
