data_PCOD9276612
_publ_section_title
;
Structure prediction by ZEFSAII (Michael W. Deem and Ramdas Pophale) SiO2 
 PCOD9276612
Probable space group: C 2/C
;
_chemical_formula_sum "Si O2"
_cell_formula_units_Z 60
_cell_length_a 23.053093
_cell_length_b 13.232380
_cell_length_c 15.606245
_cell_angle_alpha 90.000000
_cell_angle_beta 146.333535
_cell_angle_gamma 90.000000
_cell_volume 2639.097472
_symmetry_space_group_name_H-M "C 2/C"
_symmetry_group_IT_number 15
_symmetry_cell_setting 'monoclinic'
loop_
_space_group_symop_operation_xyz
x,y,z
-x,y,1/2-z
-x,-y,-z
x,-y,1/2+z
1/2+x,1/2+y,z
1/2-x,1/2+y,1/2-z
1/2-x,1/2-y,-z
1/2+x,1/2-y,1/2+z
loop_
_atom_site_type_symbol
_atom_site_label
_atom_site_fract_x
_atom_site_fract_y
_atom_site_fract_z
Si Si1 0.124207 0.386067 0.131382
Si Si2 0.773324 0.611741 0.440160
Si Si3 0.887220 0.414510 0.645999
Si Si4 0.889877 0.607506 0.347932
Si Si5 0.090223 0.023905 0.678180
Si Si6 0.500000 0.468652 0.750000
Si Si7 0.814888 0.827608 0.485372
Si Si8 0.247589 0.204119 0.859806
O O1 0.128116 0.506790 0.119351
O O2 0.212967 0.363251 0.309551
O O3 0.161698 0.327207 0.094358
O O4 0.006945 0.355044 0.013796
O O5 0.847556 0.519530 0.557139
O O6 0.678497 0.562313 0.271883
O O7 0.832848 0.711026 0.480811
O O8 0.713677 0.654411 0.450688
O O9 0.897777 0.430487 0.759633
O O10 0.803481 0.327989 0.517864
O O11 0.000000 0.385819 0.750000
O O12 0.797861 0.688639 0.225782
O O13 0.054333 0.024906 0.735258
O O14 0.148679 0.128838 0.731175
O O15 0.000000 0.000000 0.500000
O O16 0.415189 0.398027 0.597685
#
# Coordination Sequence:
#
# PCOD9276612 Si02
#       8
#     8   8   8   8   8   4   8   8
#     4  11  24  46  71 103 136 179 228 290 354 408
#     4   9  21  37  65  93 130 176 220 285 334 406
#     4  11  21  44  67  96 137 181 235 278 333 412
#     4  11  25  47  72  99 141 182 228 289 346 422
#     4  10  22  42  64  98 138 175 231 287 349 419
#     4  10  22  42  64  98 140 186 226 286 358 410
#     4  10  20  40  63  95 134 173 225 276 350 410
#     4  11  25  44  70 103 133 183 234 283 348 416
#
# _framework density 22.735045
#
# number of rings (size 3 to 8) (size 9 to 14) (size 15 to 20)
#    0.000    1.600    2.667    1.200    2.800    2.133 
#    6.000    0.000    0.000    0.000    0.000    0.000 
#    0.000    0.000    0.000    0.000    0.000    0.000 
#
# Total GULP energy -167528.902069 kJ/mol
# GULP energy per Si atom -5584.296736 kJ/mol
# Density = 2.268330 g / cm^3
# Si number density = 22.735045 Si / 1000 Ang^3
#
#
#
# Elastic Constant Matrix: (Units=GPa)
#
#
# Indices 1 2 3 4 5 6 
#
# 1 48.3814 12.5206 -7.5476 0.0000 8.4371 0.0000
# 2 12.5206 91.9637 19.6162 0.0000 20.4469 0.0000
# 3 -7.5476 19.6162 129.4062 0.0000 12.0492 0.0000
# 4 0.0000 0.0000 0.0000 11.3603 0.0000 2.8789
# 5 8.4371 20.4469 12.0492 0.0000 26.7506 0.0000
# 6 0.0000 0.0000 0.0000 2.8789 0.0000 11.7873
#
#
#
# Elastic Compliance Matrix: (Units=1/GPa)
#
#
# Indices 1 2 3 4 5 6 
#
# 1 0.022713 -0.002114 0.002256 0.000000 -0.006564 0.000000
# 2 -0.002114 0.013449 -0.001322 0.000000 -0.009017 0.000000
# 3 0.002256 -0.001322 0.008383 0.000000 -0.003477 0.000000
# 4 0.000000 0.000000 0.000000 0.093833 0.000000 -0.022918
# 5 -0.006564 -0.009017 -0.003477 0.000000 0.047911 0.000000
# 6 0.000000 0.000000 0.000000 -0.022918 0.000000 0.090434
#
#
# Mechanical properties :
#
#
# Convention : Reuss Voigt Hill
#
# Bulk Modulus (GPa) = 23.70530 35.43663 29.57097
# Shear Modulus (GPa) = 17.05638 26.32379 21.69009
#
# Velocity S-wave (km/s) = 2.74199 3.40641 3.09210
# Velocity P-wave (km/s) = 4.52483 5.57603 5.07771
#
# Compressibility (1/GPa) = 0.04218465
#
# Stress axis : x y z
#
# Youngs Moduli (GPa) = 44.02780 74.35737 119.28318
#
# Poissons Ratio (x) = 0.15721 -0.26915
# Poissons Ratio (y) = 0.09308 0.15773
# Poissons Ratio (z) = -0.09934 0.09833
#
# Static dielectric constant tensor:
#      x y z
#    x 1.991460 0.000000 0.073260 
#    y 0.000000 1.888860 0.000000 
#    z 0.073260 0.000000 2.053870 
# 
# From -- ./inp_files/222573.got.cif
#   From: 2010.05.17/outbox.cif.g08.bks.cpg/sg15_112_cif.got.tgz:222573.got - 2010.06.03 18:47:42.
