data_PCOD9276344
_publ_section_title
;
Structure prediction by ZEFSAII (Michael W. Deem and Ramdas Pophale) SiO2 
 PCOD9276344
Probable space group: C 2/C
;
_chemical_formula_sum "Si O2"
_cell_formula_units_Z 44
_cell_length_a 22.606490
_cell_length_b 6.491999
_cell_length_c 17.689494
_cell_angle_alpha 90.000000
_cell_angle_beta 51.550727
_cell_angle_gamma 90.000000
_cell_volume 2033.185164
_symmetry_space_group_name_H-M "C 2/C"
_symmetry_group_IT_number 15
_symmetry_cell_setting 'monoclinic'
loop_
_space_group_symop_operation_xyz
x,y,z
-x,y,1/2-z
-x,-y,-z
x,-y,1/2+z
1/2+x,1/2+y,z
1/2-x,1/2+y,1/2-z
1/2-x,1/2-y,-z
1/2+x,1/2-y,1/2+z
loop_
_atom_site_type_symbol
_atom_site_label
_atom_site_fract_x
_atom_site_fract_y
_atom_site_fract_z
Si Si1 0.781677 0.481925 0.910493
Si Si2 0.348948 0.078108 0.123432
Si Si3 0.611811 0.807484 0.282580
Si Si4 0.500000 0.234796 0.750000
Si Si5 0.686443 0.612353 0.712058
Si Si6 0.133575 0.216248 0.042910
O O1 0.810159 0.605447 0.813817
O O2 0.804364 0.249976 0.871120
O O3 0.824274 0.597268 0.944984
O O4 0.693694 0.533187 0.986999
O O5 0.333446 0.243152 0.201492
O O6 0.394575 0.893849 0.128296
O O7 0.268433 0.986708 0.161368
O O8 0.386505 0.190170 0.022384
O O9 0.547506 0.885809 0.276219
O O10 0.623038 0.564522 0.263008
O O11 0.437417 0.348123 0.850127
#
# Coordination Sequence:
#
# PCOD9276344 Si02
#       6
#     8   8   8   4   8   8
#     4   9  20  37  63  92 123 155 210 255 302 357
#     4  11  20  34  64  95 122 150 203 262 310 352
#     4  10  21  40  62  92 123 160 199 258 310 366
#     4  10  24  44  60  78 136 172 204 246 302 374
#     4  11  19  36  64  98 118 149 201 264 310 359
#     4  10  20  40  60  91 126 168 202 254 301 361
#
# _framework density 21.640920000000001
#
# number of rings (size 3 to 8) (size 9 to 14) (size 15 to 20)
#    0.000    1.818    3.636    1.091    0.000    1.455 
#    0.000    9.091    0.000    0.000    0.000    0.000 
#    0.000    0.000    0.000    0.000    0.000    0.000 
#
# Total GULP energy -122691.175736 kJ/mol
# GULP energy per Si atom -5576.871624 kJ/mol
# Density = 2.159166 g / cm^3
# Si number density = 21.640920 Si / 1000 Ang^3
#
#
#
# Elastic Constant Matrix: (Units=GPa)
#
#
# Indices 1 2 3 4 5 6 
#
# 1 76.2989 24.8585 30.3111 0.0017 13.3612 -0.0018
# 2 24.8585 97.5004 33.6392 -0.0048 16.6298 -0.0016
# 3 30.3111 33.6392 128.4639 -0.0016 8.3188 0.0010
# 4 0.0017 -0.0048 -0.0016 18.3204 0.0024 18.9410
# 5 13.3612 16.6298 8.3188 0.0024 40.0221 0.0004
# 6 -0.0018 -0.0016 0.0010 18.9410 0.0004 14.6124
#
#
#
# Elastic Compliance Matrix: (Units=1/GPa)
#
#
# Indices 1 2 3 4 5 6 
#
# 1 0.015648 -0.002392 -0.002830 0.000011 -0.003642 -0.000013
# 2 -0.002392 0.012356 -0.002423 -0.000007 -0.003832 0.000010
# 3 -0.002830 -0.002423 0.009082 -0.000005 0.000064 0.000005
# 4 0.000011 -0.000007 -0.000005 -0.160473 0.000008 0.208011
# 5 -0.003642 -0.003832 0.000064 0.000008 0.027781 -0.000012
# 6 -0.000013 0.000010 0.000005 0.208011 -0.000012 -0.201196
#
#
# Mechanical properties :
#
#
# Convention : Reuss Voigt Hill
#
# Bulk Modulus (GPa) = 45.87967 53.32006 49.59987
# Shear Modulus (GPa) = -18.23172 28.82127 5.29478
#
# Velocity S-wave (km/s) = -2.90567 3.65334 1.56587
# Velocity P-wave (km/s) = 3.16057 6.51827 5.12236
#
# Compressibility (1/GPa) = 0.02179615
#
# Stress axis : x y z
#
# Youngs Moduli (GPa) = 63.90747 80.93408 110.10386
#
# Poissons Ratio (x) = 0.19359 0.31158
# Poissons Ratio (y) = 0.15287 0.26677
# Poissons Ratio (z) = 0.18085 0.19610
#
# Static dielectric constant tensor:
#      x y z
#    x 1.823380 0.000000 0.007400 
#    y 0.000000 1.846130 0.000000 
#    z 0.007400 0.000000 1.807650 
# 
# From -- ./inp_files/221128.got.cif
#   From: 2010.05.17/outbox.cif.g08.bks.cpg/sg15_111_cif.got.tgz:221128.got - 2010.06.03 18:47:42.
