data_PCOD9276476
_publ_section_title
;
Structure prediction by ZEFSAII (Michael W. Deem and Ramdas Pophale) SiO2 
 PCOD9276476
Probable space group: C 2/C
;
_chemical_formula_sum "Si O2"
_cell_formula_units_Z 60
_cell_length_a 19.240518
_cell_length_b 12.253899
_cell_length_c 11.292411
_cell_angle_alpha 90.000000
_cell_angle_beta 86.537805
_cell_angle_gamma 90.000000
_cell_volume 2657.567851
_symmetry_space_group_name_H-M "C 2/C"
_symmetry_group_IT_number 15
_symmetry_cell_setting 'monoclinic'
loop_
_space_group_symop_operation_xyz
x,y,z
-x,y,1/2-z
-x,-y,-z
x,-y,1/2+z
1/2+x,1/2+y,z
1/2-x,1/2+y,1/2-z
1/2-x,1/2-y,-z
1/2+x,1/2-y,1/2+z
loop_
_atom_site_type_symbol
_atom_site_label
_atom_site_fract_x
_atom_site_fract_y
_atom_site_fract_z
Si Si1 0.000000 0.771533 0.250000
Si Si2 0.017915 0.322259 0.971069
Si Si3 0.802196 0.087915 0.583047
Si Si4 0.900473 0.823214 0.874623
Si Si5 0.439032 0.988044 0.857292
Si Si6 0.391844 0.436369 0.296023
Si Si7 0.255744 0.624898 0.958697
Si Si8 0.670579 0.871530 0.243191
O O1 0.951509 0.708374 0.161350
O O2 0.951555 0.853186 0.326596
O O3 0.946196 0.372861 0.925151
O O4 0.034447 0.223365 0.056765
O O5 0.050572 0.422084 0.040455
O O6 0.834590 0.154326 0.469732
O O7 0.867693 0.068394 0.662471
O O8 0.741151 0.147666 0.661269
O O9 0.766814 0.971671 0.552368
O O10 0.878505 0.732222 0.780424
O O11 0.914197 0.941065 0.820446
O O12 0.500000 0.998856 0.750000
O O13 0.369053 0.021696 0.800032
O O14 0.324434 0.397751 0.374139
O O15 0.191189 0.609238 0.876244
O O16 0.250000 0.750000 0.000000
#
# Coordination Sequence:
#
# PCOD9276476 Si02
#       8
#     4   8   8   8   8   8   8   8
#     4  12  22  42  64  94 126 172 220 260 330 392
#     4  10  22  40  64  90 125 169 212 264 325 385
#     4  10  20  40  62  89 123 162 211 264 315 386
#     4  10  20  41  60  90 124 162 214 265 316 377
#     4  10  22  41  61  94 135 165 214 263 323 402
#     4  10  23  39  63  92 126 163 218 265 314 394
#     4  10  22  40  62  95 127 165 213 270 328 376
#     4  10  22  37  64  92 122 167 210 259 330 375
#
# _framework density 22.577034000000001
#
# number of rings (size 3 to 8) (size 9 to 14) (size 15 to 20)
#    0.000    1.867    2.000    1.200    0.000    5.867 
#    4.800    2.667    0.000    0.000    0.000    0.000 
#    0.000    0.000    0.000    0.000    0.000    0.000 
#
# Total GULP energy -167156.123423 kJ/mol
# GULP energy per Si atom -5571.870781 kJ/mol
# Density = 2.252565 g / cm^3
# Si number density = 22.577034 Si / 1000 Ang^3
#
#
#
# Elastic Constant Matrix: (Units=GPa)
#
#
# Indices 1 2 3 4 5 6 
#
# 1 65.7559 28.4588 27.2152 0.0000 17.3511 0.0000
# 2 28.4588 131.3962 30.4421 0.0000 27.9298 0.0000
# 3 27.2152 30.4421 56.4906 0.0000 30.0899 0.0000
# 4 0.0000 0.0000 0.0000 29.8401 0.0000 9.3127
# 5 17.3511 27.9298 30.0899 0.0000 39.7953 0.0000
# 6 0.0000 0.0000 0.0000 9.3127 0.0000 29.8871
#
#
#
# Elastic Compliance Matrix: (Units=1/GPa)
#
#
# Indices 1 2 3 4 5 6 
#
# 1 0.019648 -0.002228 -0.007593 0.000000 -0.001262 0.000000
# 2 -0.002228 0.009409 -0.001669 0.000000 -0.004370 0.000000
# 3 -0.007593 -0.001669 0.033273 0.000000 -0.020676 0.000000
# 4 0.000000 0.000000 0.000000 0.037122 0.000000 -0.011567
# 5 -0.001262 -0.004370 -0.020676 0.000000 0.044379 0.000000
# 6 0.000000 0.000000 0.000000 -0.011567 0.000000 0.037063
#
#
# Mechanical properties :
#
#
# Convention : Reuss Voigt Hill
#
# Bulk Modulus (GPa) = 25.41374 47.31940 36.36657
# Shear Modulus (GPa) = 23.04257 31.07294 27.05775
#
# Velocity S-wave (km/s) = 3.19818 3.71389 3.46564
# Velocity P-wave (km/s) = 4.99186 6.27656 5.67071
#
# Compressibility (1/GPa) = 0.03934880
#
# Stress axis : x y z
#
# Youngs Moduli (GPa) = 50.89705 106.28426 30.05472
#
# Poissons Ratio (x) = 0.23681 0.22820
# Poissons Ratio (y) = 0.11340 0.05017
# Poissons Ratio (z) = 0.38645 0.17741
#
# Static dielectric constant tensor:
#      x y z
#    x 1.851250 0.000000 -0.032380 
#    y 0.000000 1.862950 0.000000 
#    z -0.032380 0.000000 1.901050 
# 
# From -- ./inp_files/111627.got.cif
#   From: 2010.05.17/outbox.cif.g08.bks.cpg/sg15_56_cif.got.tgz:111627.got - 2010.06.03 18:47:42.
