data_PCOD9276541
_publ_section_title
;
Structure prediction by ZEFSAII (Michael W. Deem and Ramdas Pophale) SiO2 
 PCOD9276541
Probable space group: C 2/C
;
_chemical_formula_sum "Si O2"
_cell_formula_units_Z 40
_cell_length_a 21.648971
_cell_length_b 13.655692
_cell_length_c 9.722466
_cell_angle_alpha 90.000000
_cell_angle_beta 135.733067
_cell_angle_gamma 90.000000
_cell_volume 2006.245834
_symmetry_space_group_name_H-M "C 2/C"
_symmetry_group_IT_number 15
_symmetry_cell_setting 'monoclinic'
loop_
_space_group_symop_operation_xyz
x,y,z
-x,y,1/2-z
-x,-y,-z
x,-y,1/2+z
1/2+x,1/2+y,z
1/2-x,1/2+y,1/2-z
1/2-x,1/2-y,-z
1/2+x,1/2-y,1/2+z
loop_
_atom_site_type_symbol
_atom_site_label
_atom_site_fract_x
_atom_site_fract_y
_atom_site_fract_z
Si Si1 0.084476 0.566896 0.164744
Si Si2 0.120325 0.940194 0.035934
Si Si3 0.503926 0.250824 0.912960
Si Si4 0.700463 0.990652 0.592855
Si Si5 0.861771 0.891028 0.747472
O O1 0.128486 0.536712 0.377923
O O2 0.156667 0.546399 0.161989
O O3 0.050001 0.676754 0.089637
O O4 0.000000 0.500000 0.000000
O O5 0.221857 0.931651 0.248801
O O6 0.093276 0.042886 0.061944
O O7 0.061200 0.849951 0.989407
O O8 0.121036 0.941444 0.872658
O O9 0.500000 0.208562 0.750000
O O10 0.407063 0.285679 0.807503
O O11 0.757527 0.902631 0.613681
#
# Coordination Sequence:
#
# PCOD9276541 Si02
#       5
#     8   8   8   8   8
#     4  12  24  42  59  84 122 163 200 246 305 356
#     4   9  18  37  64  89 120 154 199 244 303 350
#     4  10  21  38  61  91 122 158 196 248 299 364
#     4  10  20  40  63  85 118 158 201 245 294 356
#     4   9  18  38  62  93 117 154 198 248 297 354
#
# _framework density 19.937736000000001
#
# number of rings (size 3 to 8) (size 9 to 14) (size 15 to 20)
#    1.200    0.800    2.000    2.400    0.000    0.800 
#    3.600    7.000    0.000    0.000    0.000    0.000 
#    0.000    0.000    0.000    0.000    0.000    0.000 
#
# Total GULP energy -111483.385403 kJ/mol
# GULP energy per Si atom -5574.169270 kJ/mol
# Density = 1.989236 g / cm^3
# Si number density = 19.937736 Si / 1000 Ang^3
#
#
#
# Elastic Constant Matrix: (Units=GPa)
#
#
# Indices 1 2 3 4 5 6 
#
# 1 32.2617 -0.7893 -17.8925 0.0000 4.6062 0.0000
# 2 -0.7893 19.7668 -1.0614 0.0000 3.4072 0.0000
# 3 -17.8925 -1.0614 76.8322 0.0000 9.7107 0.0000
# 4 0.0000 0.0000 0.0000 -25.7966 0.0000 3.9745
# 5 4.6062 3.4072 9.7107 0.0000 31.9906 0.0000
# 6 0.0000 0.0000 0.0000 3.9745 0.0000 5.4566
#
#
#
# Elastic Compliance Matrix: (Units=1/GPa)
#
#
# Indices 1 2 3 4 5 6 
#
# 1 0.037894 0.003579 0.009995 0.000000 -0.008872 0.000000
# 2 0.003579 0.052032 0.002410 0.000000 -0.006789 0.000000
# 3 0.009995 0.002410 0.016213 0.000000 -0.006617 0.000000
# 4 0.000000 0.000000 0.000000 -0.034853 0.000000 0.025387
# 5 -0.008872 -0.006789 -0.006617 0.000000 0.035268 0.000000
# 6 0.000000 0.000000 0.000000 0.025387 0.000000 0.164773
#
#
# Mechanical properties :
#
#
# Convention : Reuss Voigt Hill
#
# Bulk Modulus (GPa) = 7.24066 9.93047 8.58556
# Shear Modulus (GPa) = 17.51964 12.23704 14.87834
#
# Velocity S-wave (km/s) = 2.96753 2.48011 2.73470
# Velocity P-wave (km/s) = 3.92189 3.63219 3.77982
#
# Compressibility (1/GPa) = 0.13810901
#
# Stress axis : x y z
#
# Youngs Moduli (GPa) = 26.38918 19.21879 61.67984
#
# Poissons Ratio (x) = -0.06878 -0.61652
# Poissons Ratio (y) = -0.09445 -0.14867
# Poissons Ratio (z) = -0.26377 -0.04632
#
# Static dielectric constant tensor:
#      x y z
#    x 1.733960 0.000000 0.025650 
#    y 0.000000 1.696180 0.000000 
#    z 0.025650 0.000000 1.710250 
# 
# From -- ./inp_files/55499.got.cif
#   From: 2010.05.17/outbox.cif.g08.bks.cpg/sg15_28_cif.got.tgz:55499.got - 2010.06.03 18:47:42.
