data_PCOD9276459
_publ_section_title
;
Structure prediction by ZEFSAII (Michael W. Deem and Ramdas Pophale) SiO2 
 PCOD9276459
Probable space group: C 2/C
;
_chemical_formula_sum "Si O2"
_cell_formula_units_Z 64
_cell_length_a 28.655082
_cell_length_b 21.367108
_cell_length_c 8.867826
_cell_angle_alpha 90.000000
_cell_angle_beta 147.899348
_cell_angle_gamma 90.000000
_cell_volume 2885.312327
_symmetry_space_group_name_H-M "C 2/C"
_symmetry_group_IT_number 15
_symmetry_cell_setting 'monoclinic'
loop_
_space_group_symop_operation_xyz
x,y,z
-x,y,1/2-z
-x,-y,-z
x,-y,1/2+z
1/2+x,1/2+y,z
1/2-x,1/2+y,1/2-z
1/2-x,1/2-y,-z
1/2+x,1/2-y,1/2+z
loop_
_atom_site_type_symbol
_atom_site_label
_atom_site_fract_x
_atom_site_fract_y
_atom_site_fract_z
Si Si1 0.574304 0.845498 0.197147
Si Si2 0.317741 0.532465 0.707174
Si Si3 0.558174 0.739687 0.758958
Si Si4 0.928544 0.434913 0.718154
Si Si5 0.375337 0.062812 0.417837
Si Si6 0.695378 0.169427 0.762315
Si Si7 0.151896 0.087700 0.378017
Si Si8 0.533924 0.620947 0.507604
O O1 0.600064 0.874335 0.426673
O O2 0.660853 0.827968 0.339207
O O3 0.503725 0.789441 0.000448
O O4 0.523266 0.901408 0.967218
O O5 0.228517 0.554241 0.383975
O O6 0.327650 0.458660 0.704318
O O7 0.398901 0.565760 0.845995
O O8 0.317870 0.554191 0.882094
O O9 0.500000 0.727184 0.750000
O O10 0.574935 0.678427 0.708783
O O11 0.649415 0.772180 0.055476
O O12 0.914104 0.503160 0.611612
O O13 0.911686 0.436973 0.849814
O O14 0.854761 0.390121 0.446708
O O15 0.796238 0.152580 0.009388
O O16 0.049263 0.098656 0.122986
O O17 0.500000 0.642512 0.250000
#
# Coordination Sequence:
#
# PCOD9276459 Si02
#       8
#     8   8   8   8   8   8   8   8
#     4  10  23  37  59  86 124 168 202 246 307 368
#     4  11  23  41  63  94 126 158 208 260 313 371
#     4   9  21  44  63  90 122 162 210 254 303 367
#     4  11  21  35  54  84 125 165 202 247 305 372
#     4  12  21  35  55  88 126 159 209 250 307 372
#     4  10  20  40  62  87 126 160 203 253 303 369
#     4  11  23  43  64  94 125 162 206 259 316 371
#     4  10  24  45  67  89 121 163 211 264 315 365
#
# _framework density 22.181307
#
# number of rings (size 3 to 8) (size 9 to 14) (size 15 to 20)
#    0.000    1.500    2.500    3.000    1.750    4.000 
#    2.250    2.500    0.000    0.000    0.000    0.000 
#    0.000    0.000    0.000    0.000    0.000    0.000 
#
# Total GULP energy -179037.360115 kJ/mol
# GULP energy per Si atom -5594.917504 kJ/mol
# Density = 2.213082 g / cm^3
# Si number density = 22.181307 Si / 1000 Ang^3
#
#
#
# Elastic Constant Matrix: (Units=GPa)
#
#
# Indices 1 2 3 4 5 6 
#
# 1 69.9667 3.0210 31.9941 0.0000 7.0076 0.0000
# 2 3.0210 51.3497 12.9170 0.0000 -10.9773 0.0000
# 3 31.9941 12.9170 45.0928 0.0000 15.6663 0.0000
# 4 0.0000 0.0000 0.0000 13.6024 0.0000 7.6305
# 5 7.0076 -10.9773 15.6663 0.0000 39.9789 0.0000
# 6 0.0000 0.0000 0.0000 7.6305 0.0000 1.2775
#
#
#
# Elastic Compliance Matrix: (Units=1/GPa)
#
#
# Indices 1 2 3 4 5 6 
#
# 1 0.022118 0.004336 -0.018523 0.000000 0.004572 0.000000
# 2 0.004336 0.025405 -0.014485 0.000000 0.011892 0.000000
# 3 -0.018523 -0.014485 0.045982 0.000000 -0.018749 0.000000
# 4 0.000000 0.000000 0.000000 -0.031277 0.000000 0.186809
# 5 0.004572 0.011892 -0.018749 0.000000 0.034824 0.000000
# 6 0.000000 0.000000 0.000000 0.186809 0.000000 -0.333012
#
#
# Mechanical properties :
#
#
# Convention : Reuss Voigt Hill
#
# Bulk Modulus (GPa) = 27.65516 29.14147 28.39831
# Shear Modulus (GPa) = -30.01915 18.87022 -5.57446
#
# Velocity S-wave (km/s) = -3.68279 2.91989 -1.58701
# Velocity P-wave (km/s) = 2.36412 4.95318 3.07774
#
# Compressibility (1/GPa) = 0.03615962
#
# Stress axis : x y z
#
# Youngs Moduli (GPa) = 45.21280 39.36201 21.74744
#
# Poissons Ratio (x) = -0.17066 0.40283
# Poissons Ratio (y) = -0.19603 0.31502
# Poissons Ratio (z) = 0.83749 0.57017
#
# Static dielectric constant tensor:
#      x y z
#    x 1.823390 0.000000 0.009760 
#    y 0.000000 1.789040 0.000000 
#    z 0.009760 0.000000 1.832460 
# 
# From -- ./inp_files/70985.got.cif
#   From: 2010.05.17/outbox.cif.g08.bks.cpg/sg15_36_cif.got.tgz:70985.got - 2010.06.03 18:47:42.
