data_PCOD9276103
_publ_section_title
;
Structure prediction by ZEFSAII (Michael W. Deem and Ramdas Pophale) SiO2 
 PCOD9276103
Probable space group: C 2/C
;
_chemical_formula_sum "Si O2"
_cell_formula_units_Z 40
_cell_length_a 8.668316
_cell_length_b 24.098078
_cell_length_c 7.580508
_cell_angle_alpha 90.000000
_cell_angle_beta 93.933023
_cell_angle_gamma 90.000000
_cell_volume 1579.761200
_symmetry_space_group_name_H-M "C 2/C"
_symmetry_group_IT_number 15
_symmetry_cell_setting 'monoclinic'
loop_
_space_group_symop_operation_xyz
x,y,z
-x,y,1/2-z
-x,-y,-z
x,-y,1/2+z
1/2+x,1/2+y,z
1/2-x,1/2+y,1/2-z
1/2-x,1/2-y,-z
1/2+x,1/2-y,1/2+z
loop_
_atom_site_type_symbol
_atom_site_label
_atom_site_fract_x
_atom_site_fract_y
_atom_site_fract_z
Si Si1 0.590479 0.094707 0.080712
Si Si2 0.189668 0.189502 0.447907
Si Si3 0.280604 0.918824 0.371567
Si Si4 0.665006 0.308738 0.523579
Si Si5 0.172591 0.017090 0.195958
O O1 0.500000 0.117259 0.250000
O O2 0.684111 0.143589 0.992927
O O3 0.457974 0.072485 0.941290
O O4 0.703203 0.049085 0.172942
O O5 0.250000 0.250000 0.500000
O O6 0.179239 0.180610 0.235038
O O7 0.019518 0.186958 0.519059
O O8 0.242969 0.854894 0.405777
O O9 0.182251 0.951845 0.511942
O O10 0.225236 0.952908 0.197539
O O11 0.750000 0.250000 0.500000
O O12 0.000000 0.023623 0.250000
#
# Coordination Sequence:
#
# PCOD9276103 Si02
#       5
#     8   8   8   8   8
#     4  10  20  39  68  91 132 174 217 273 335 388
#     4  11  23  41  72  95 128 179 220 270 337 396
#     4  11  23  42  66  92 134 174 217 276 329 393
#     4  11  24  45  68  97 136 171 220 276 337 395
#     4  11  22  40  65  94 128 175 219 271 333 389
#
# _framework density 25.320281999999999
#
# number of rings (size 3 to 8) (size 9 to 14) (size 15 to 20)
#    0.000    1.200    4.000    3.600    0.000    0.000 
#    7.200    0.000    8.800    0.000    0.000    0.000 
#    0.000    0.000    0.000    0.000    0.000    0.000 
#
# Total GULP energy -112095.352507 kJ/mol
# GULP energy per Si atom -5604.767625 kJ/mol
# Density = 2.526265 g / cm^3
# Si number density = 25.320282 Si / 1000 Ang^3
#
#
#
# Elastic Constant Matrix: (Units=GPa)
#
#
# Indices 1 2 3 4 5 6 
#
# 1 177.3870 46.1274 2.8731 0.0000 -11.0160 0.0000
# 2 46.1274 178.6124 8.2414 0.0000 -19.5423 0.0000
# 3 2.8731 8.2414 81.1999 0.0000 -18.6799 0.0000
# 4 0.0000 0.0000 0.0000 31.2726 0.0000 -5.2969
# 5 -11.0160 -19.5423 -18.6799 0.0000 23.3751 0.0000
# 6 0.0000 0.0000 0.0000 -5.2969 0.0000 43.7693
#
#
#
# Elastic Compliance Matrix: (Units=1/GPa)
#
#
# Indices 1 2 3 4 5 6 
#
# 1 0.006115 -0.001373 0.000394 0.000000 0.002049 0.000000
# 2 -0.001373 0.006502 0.000601 0.000000 0.005269 0.000000
# 3 0.000394 0.000601 0.015191 0.000000 0.012828 0.000000
# 4 0.000000 0.000000 0.000000 0.032646 0.000000 0.003951
# 5 0.002049 0.005269 0.012828 0.000000 0.058403 0.000000
# 6 0.000000 0.000000 0.000000 0.003951 0.000000 0.023325
#
#
# Mechanical properties :
#
#
# Convention : Reuss Voigt Hill
#
# Bulk Modulus (GPa) = 36.96507 61.29811 49.13159
# Shear Modulus (GPa) = 32.90408 45.01388 38.95898
#
# Velocity S-wave (km/s) = 3.60879 4.22095 3.92681
# Velocity P-wave (km/s) = 5.65643 6.92942 6.32503
#
# Compressibility (1/GPa) = 0.02705257
#
# Stress axis : x y z
#
# Youngs Moduli (GPa) = 163.52241 153.79546 65.82648
#
# Poissons Ratio (x) = 0.21121 -0.02596
# Poissons Ratio (y) = 0.22457 -0.03955
# Poissons Ratio (z) = -0.06449 -0.09239
#
# Static dielectric constant tensor:
#      x y z
#    x 1.970150 0.000000 -0.024170 
#    y 0.000000 1.954520 0.000000 
#    z -0.024170 0.000000 2.197270 
# 
# From -- ./inp_files/23596.got.cif
#   From: 2010.05.17/outbox.cif.g08.bks.cpg/sg15_12_cif.got.tgz:23596.got - 2010.06.03 18:47:42.
