data_PCOD9276205
_publ_section_title
;
Structure prediction by ZEFSAII (Michael W. Deem and Ramdas Pophale) SiO2 
 PCOD9276205
Probable space group: C 2/C
;
_chemical_formula_sum "Si O2"
_cell_formula_units_Z 32
_cell_length_a 13.570117
_cell_length_b 11.544546
_cell_length_c 11.919353
_cell_angle_alpha 90.000000
_cell_angle_beta 128.643935
_cell_angle_gamma 90.000000
_cell_volume 1458.436198
_symmetry_space_group_name_H-M "C 2/C"
_symmetry_group_IT_number 15
_symmetry_cell_setting 'monoclinic'
loop_
_space_group_symop_operation_xyz
x,y,z
-x,y,1/2-z
-x,-y,-z
x,-y,1/2+z
1/2+x,1/2+y,z
1/2-x,1/2+y,1/2-z
1/2-x,1/2-y,-z
1/2+x,1/2-y,1/2+z
loop_
_atom_site_type_symbol
_atom_site_label
_atom_site_fract_x
_atom_site_fract_y
_atom_site_fract_z
Si Si1 0.232968 0.294392 0.809703
Si Si2 0.850899 0.183157 0.151626
Si Si3 0.794776 0.086802 0.568730
Si Si4 0.994980 0.539319 0.124981
O O1 0.306543 0.287713 0.745997
O O2 0.172136 0.173587 0.807635
O O3 0.114641 0.378282 0.713095
O O4 0.322052 0.352980 0.968706
O O5 0.000000 0.210037 0.250000
O O6 0.836378 0.045042 0.114801
O O7 0.750000 0.250000 0.000000
O O8 0.643167 0.092281 0.466601
O O9 0.000000 0.471126 0.250000
O O10 0.000000 0.500000 0.000000
#
# Coordination Sequence:
#
# PCOD9276205 Si02
#       4
#     8   8   8   8
#     4  10  24  44  72 108 144 195 244 299 369 446
#     4  12  30  48  74 110 149 191 246 312 370 430
#     4  10  24  46  73 102 142 198 243 300 365 452
#     4  10  20  39  71 102 140 189 245 298 365 438
#
# _framework density 21.941309
#
# number of rings (size 3 to 8) (size 9 to 14) (size 15 to 20)
#    0.000    1.500    2.500    0.000    7.000    9.000 
#    0.000    0.000    0.000    0.000    0.000    0.000 
#    0.000    0.000    0.000    0.000    0.000    0.000 
#
# Total GULP energy -89136.255714 kJ/mol
# GULP energy per Si atom -5571.015982 kJ/mol
# Density = 2.189137 g / cm^3
# Si number density = 21.941309 Si / 1000 Ang^3
#
#
#
# Elastic Constant Matrix: (Units=GPa)
#
#
# Indices 1 2 3 4 5 6 
#
# 1 159.6061 37.6600 94.8792 0.0000 -23.8973 0.0000
# 2 37.6600 157.9799 75.8314 0.0000 -18.9923 0.0000
# 3 94.8792 75.8314 142.6395 0.0000 -33.8856 0.0000
# 4 0.0000 0.0000 0.0000 18.7466 0.0000 -21.3309
# 5 -23.8973 -18.9923 -33.8856 0.0000 58.9322 0.0000
# 6 0.0000 0.0000 0.0000 -21.3309 0.0000 -0.4709
#
#
#
# Elastic Compliance Matrix: (Units=1/GPa)
#
#
# Indices 1 2 3 4 5 6 
#
# 1 0.010519 0.001145 -0.007534 0.000000 0.000303 0.000000
# 2 0.001145 0.008625 -0.005300 0.000000 0.000196 0.000000
# 3 -0.007534 -0.005300 0.015877 0.000000 0.004366 0.000000
# 4 0.000000 0.000000 0.000000 0.001015 0.000000 -0.045988
# 5 0.000303 0.000196 0.004366 0.000000 0.019665 0.000000
# 6 0.000000 0.000000 0.000000 -0.045988 0.000000 -0.040416
#
#
# Mechanical properties :
#
#
# Convention : Reuss Voigt Hill
#
# Bulk Modulus (GPa) = 85.89008 97.44077 91.66543
# Shear Modulus (GPa) = 117.52756 32.23190 74.87973
#
# Velocity S-wave (km/s) = 7.32672 3.83692 5.84819
# Velocity P-wave (km/s) = 10.52638 8.00846 9.35254
#
# Compressibility (1/GPa) = 0.01164279
#
# Stress axis : x y z
#
# Youngs Moduli (GPa) = 95.06515 115.94661 62.98478
#
# Poissons Ratio (x) = -0.13277 0.47452
# Poissons Ratio (y) = -0.10886 0.33383
# Poissons Ratio (z) = 0.71620 0.61454
#
# Static dielectric constant tensor:
#      x y z
#    x 1.835600 0.000000 -0.158400 
#    y 0.000000 1.832190 0.000000 
#    z -0.158400 0.000000 2.018870 
# 
# From -- ./inp_files/94294.got.cif
#   From: 2010.05.17/outbox.cif.g08.bks.cpg/sg15_48_cif.got.tgz:94294.got - 2010.06.03 18:47:42.
