data_PCOD9276670
_publ_section_title
;
Structure prediction by ZEFSAII (Michael W. Deem and Ramdas Pophale) SiO2 
 PCOD9276670
Probable space group: C 2/C
;
_chemical_formula_sum "Si O2"
_cell_formula_units_Z 32
_cell_length_a 11.981105
_cell_length_b 7.382232
_cell_length_c 22.137301
_cell_angle_alpha 90.000000
_cell_angle_beta 132.236744
_cell_angle_gamma 90.000000
_cell_volume 1449.640113
_symmetry_space_group_name_H-M "C 2/C"
_symmetry_group_IT_number 15
_symmetry_cell_setting 'monoclinic'
loop_
_space_group_symop_operation_xyz
x,y,z
-x,y,1/2-z
-x,-y,-z
x,-y,1/2+z
1/2+x,1/2+y,z
1/2-x,1/2+y,1/2-z
1/2-x,1/2-y,-z
1/2+x,1/2-y,1/2+z
loop_
_atom_site_type_symbol
_atom_site_label
_atom_site_fract_x
_atom_site_fract_y
_atom_site_fract_z
Si Si1 0.943588 0.942568 0.378970
Si Si2 0.468081 0.163997 0.169036
Si Si3 0.422333 0.198271 0.576620
Si Si4 0.853987 0.797941 0.940594
O O1 0.905834 0.786013 0.318450
O O2 0.072308 0.862588 0.470482
O O3 0.003256 0.122152 0.367240
O O4 0.830543 0.026089 0.387722
O O5 0.500000 0.130954 0.250000
O O6 0.311155 0.277981 0.109477
O O7 0.441257 0.981423 0.121938
O O8 0.250000 0.250000 0.500000
O O9 0.522331 0.183823 0.551421
#
# Coordination Sequence:
#
# PCOD9276670 Si02
#       4
#     8   8   8   8
#     4   9  20  41  61  84 121 144 203 252 279 344
#     4  12  24  38  59  89 124 160 191 237 313 361
#     4  10  20  40  64  89 114 154 205 248 285 348
#     4   9  20  41  59  89 115 146 209 249 274 357
#
# _framework density 22.074445999999998
#
# number of rings (size 3 to 8) (size 9 to 14) (size 15 to 20)
#    1.500    0.500    2.500    0.750    0.000    4.000 
#    4.500    0.000    0.000    0.000    0.000    0.000 
#    0.000    0.000    0.000    0.000    0.000    0.000 
#
# Total GULP energy -89091.742673 kJ/mol
# GULP energy per Si atom -5568.233917 kJ/mol
# Density = 2.202420 g / cm^3
# Si number density = 22.074446 Si / 1000 Ang^3
#
#
#
# Elastic Constant Matrix: (Units=GPa)
#
#
# Indices 1 2 3 4 5 6 
#
# 1 95.6202 22.3528 31.5289 0.0000 -18.6624 0.0000
# 2 22.3528 98.5680 36.9702 0.0000 -33.5430 0.0000
# 3 31.5289 36.9702 51.4151 0.0000 -27.8043 0.0000
# 4 0.0000 0.0000 0.0000 13.2605 0.0000 -13.5457
# 5 -18.6624 -33.5430 -27.8043 0.0000 32.3046 0.0000
# 6 0.0000 0.0000 0.0000 -13.5457 0.0000 32.9125
#
#
#
# Elastic Compliance Matrix: (Units=1/GPa)
#
#
# Indices 1 2 3 4 5 6 
#
# 1 0.013142 0.000339 -0.007495 0.000000 0.001493 0.000000
# 2 0.000339 0.016308 -0.004997 0.000000 0.012828 0.000000
# 3 -0.007495 -0.004997 0.042075 0.000000 0.026695 0.000000
# 4 0.000000 0.000000 0.000000 0.130114 0.000000 0.053551
# 5 0.001493 0.012828 0.026695 0.000000 0.068114 0.000000
# 6 0.000000 0.000000 0.000000 0.053551 0.000000 0.052423
#
#
# Mechanical properties :
#
#
# Convention : Reuss Voigt Hill
#
# Bulk Modulus (GPa) = 21.17820 47.47856 34.32838
# Shear Modulus (GPa) = 13.80369 26.01228 19.90799
#
# Velocity S-wave (km/s) = 2.50336 3.43649 3.00635
# Velocity P-wave (km/s) = 4.23917 6.10746 5.25698
#
# Compressibility (1/GPa) = 0.04721836
#
# Stress axis : x y z
#
# Youngs Moduli (GPa) = 76.09459 61.31900 23.76712
#
# Poissons Ratio (x) = -0.02080 0.17814
# Poissons Ratio (y) = -0.02581 0.11877
# Poissons Ratio (z) = 0.57034 0.30642
#
# Static dielectric constant tensor:
#      x y z
#    x 1.806890 0.000000 0.014250 
#    y 0.000000 1.838990 0.000000 
#    z 0.014250 0.000000 1.776460 
# 
# From -- ./inp_files/194986.got.cif
#   From: 2010.05.17/outbox.cif.g08.bks.cpg/sg15_98_cif.got.tgz:194986.got - 2010.06.03 18:47:42.
