data_PCOD9276709
_publ_section_title
;
Structure prediction by ZEFSAII (Michael W. Deem and Ramdas Pophale) SiO2 
 PCOD9276709
Probable space group: C 2/C
;
_chemical_formula_sum "Si O2"
_cell_formula_units_Z 52
_cell_length_a 12.046790
_cell_length_b 12.558227
_cell_length_c 21.669546
_cell_angle_alpha 90.000000
_cell_angle_beta 123.369313
_cell_angle_gamma 90.000000
_cell_volume 2737.852869
_symmetry_space_group_name_H-M "C 2/C"
_symmetry_group_IT_number 15
_symmetry_cell_setting 'monoclinic'
loop_
_space_group_symop_operation_xyz
x,y,z
-x,y,1/2-z
-x,-y,-z
x,-y,1/2+z
1/2+x,1/2+y,z
1/2-x,1/2+y,1/2-z
1/2-x,1/2-y,-z
1/2+x,1/2-y,1/2+z
loop_
_atom_site_type_symbol
_atom_site_label
_atom_site_fract_x
_atom_site_fract_y
_atom_site_fract_z
Si Si1 0.619707 0.837672 0.027201
Si Si2 0.500000 0.253292 0.250000
Si Si3 0.903440 0.954496 0.293169
Si Si4 0.295658 0.524622 0.140816
Si Si5 0.177213 0.358747 0.905435
Si Si6 0.168843 0.722440 0.036474
Si Si7 0.134419 0.042440 0.573857
O O1 0.704165 0.728722 0.056225
O O2 0.705250 0.932249 0.083360
O O3 0.603389 0.858151 0.948866
O O4 0.478954 0.824940 0.017589
O O5 0.416556 0.334920 0.268555
O O6 0.413962 0.181049 0.178220
O O7 0.868957 0.966054 0.353525
O O8 0.802180 0.014717 0.216761
O O9 0.052402 0.001325 0.332290
O O10 0.247937 0.636788 0.100981
O O11 0.244957 0.472243 0.915277
O O12 0.148755 0.833975 0.063982
O O13 0.250000 0.750000 0.000000
O O14 0.000000 0.000000 0.500000
#
# Coordination Sequence:
#
# PCOD9276709 Si02
#       7
#     8   4   8   8   8   8   8
#     4  11  21  40  68  92 123 160 216 264 304 373
#     4  10  20  40  64  92 126 156 218 260 312 374
#     4  10  21  41  65  90 127 170 212 257 318 379
#     4  10  22  42  63  96 127 169 212 258 318 379
#     4  11  22  38  67  98 117 161 215 266 307 361
#     4  12  25  40  63  95 131 167 204 261 325 383
#     4  12  24  39  62  92 127 168 213 260 310 380
#
# _framework density 18.992985000000001
#
# number of rings (size 3 to 8) (size 9 to 14) (size 15 to 20)
#    0.000    1.231    4.615    4.154    0.000    2.462 
#    0.000    1.538    0.000    0.000    0.000    0.000 
#    0.000    0.000    0.000    0.000    0.000    0.000 
#
# Total GULP energy -145249.343969 kJ/mol
# GULP energy per Si atom -5586.513230 kJ/mol
# Density = 1.894976 g / cm^3
# Si number density = 18.992985 Si / 1000 Ang^3
#
#
#
# Elastic Constant Matrix: (Units=GPa)
#
#
# Indices 1 2 3 4 5 6 
#
# 1 83.8951 9.3615 44.8834 0.0000 -8.8208 0.0000
# 2 9.3615 115.2397 47.7392 0.0000 10.5921 0.0000
# 3 44.8834 47.7392 133.3622 0.0000 -6.8493 0.0000
# 4 0.0000 0.0000 0.0000 32.4317 0.0000 2.6477
# 5 -8.8208 10.5921 -6.8493 0.0000 29.7438 0.0000
# 6 0.0000 0.0000 0.0000 2.6477 0.0000 13.9295
#
#
#
# Elastic Compliance Matrix: (Units=1/GPa)
#
#
# Indices 1 2 3 4 5 6 
#
# 1 0.014884 0.000615 -0.005074 0.000000 0.003027 0.000000
# 2 0.000615 0.010852 -0.004332 0.000000 -0.004680 0.000000
# 3 -0.005074 -0.004332 0.010887 0.000000 0.002545 0.000000
# 4 0.000000 0.000000 0.000000 0.031320 0.000000 -0.005953
# 5 0.003027 -0.004680 0.002545 0.000000 0.036771 0.000000
# 6 0.000000 0.000000 0.000000 -0.005953 0.000000 0.072922
#
#
# Mechanical properties :
#
#
# Convention : Reuss Voigt Hill
#
# Bulk Modulus (GPa) = 52.51769 59.60726 56.06247
# Shear Modulus (GPa) = 24.80587 30.58851 27.69719
#
# Velocity S-wave (km/s) = 3.61786 4.01748 3.82289
# Velocity P-wave (km/s) = 6.72034 7.27820 7.00482
#
# Compressibility (1/GPa) = 0.01904120
#
# Stress axis : x y z
#
# Youngs Moduli (GPa) = 67.18756 92.14583 91.84961
#
# Poissons Ratio (x) = -0.05663 0.46602
# Poissons Ratio (y) = -0.04129 0.39789
# Poissons Ratio (z) = 0.34089 0.39917
#
# Static dielectric constant tensor:
#      x y z
#    x 1.688600 0.000000 -0.017780 
#    y 0.000000 1.643720 0.000000 
#    z -0.017780 0.000000 1.661990 
# 
# From -- ./inp_files/269319.got.cif
#   From: 2010.05.17/outbox.cif.g08.bks.cpg/sg15_135_cif.got.tgz:269319.got - 2010.06.03 18:47:42.
