data_PCOD9276472
_publ_section_title
;
Structure prediction by ZEFSAII (Michael W. Deem and Ramdas Pophale) SiO2 
 PCOD9276472
Probable space group: C 2/C
;
_chemical_formula_sum "Si O2"
_cell_formula_units_Z 52
_cell_length_a 26.349854
_cell_length_b 8.617923
_cell_length_c 19.292309
_cell_angle_alpha 90.000000
_cell_angle_beta 34.803772
_cell_angle_gamma 90.000000
_cell_volume 2500.485634
_symmetry_space_group_name_H-M "C 2/C"
_symmetry_group_IT_number 15
_symmetry_cell_setting 'monoclinic'
loop_
_space_group_symop_operation_xyz
x,y,z
-x,y,1/2-z
-x,-y,-z
x,-y,1/2+z
1/2+x,1/2+y,z
1/2-x,1/2+y,1/2-z
1/2-x,1/2-y,-z
1/2+x,1/2-y,1/2+z
loop_
_atom_site_type_symbol
_atom_site_label
_atom_site_fract_x
_atom_site_fract_y
_atom_site_fract_z
Si Si1 0.651873 0.585960 0.126000
Si Si2 0.755322 0.450084 0.642667
Si Si3 0.500000 0.347478 0.250000
Si Si4 0.522552 0.145742 0.803210
Si Si5 0.850875 0.852365 0.024731
Si Si6 0.935680 0.643102 0.452790
Si Si7 0.410284 0.423336 0.573685
O O1 0.728404 0.538404 0.092436
O O2 0.573030 0.459270 0.204967
O O3 0.609858 0.748096 0.201179
O O4 0.684965 0.608454 0.010906
O O5 0.788664 0.278577 0.626089
O O6 0.838029 0.564496 0.560733
O O7 0.663818 0.463328 0.786395
O O8 0.455848 0.245462 0.360962
O O9 0.500000 0.093004 0.750000
O O10 0.445108 0.267170 0.908557
O O11 0.508488 0.996521 0.867410
O O12 0.869375 0.998508 0.050889
O O13 0.935282 0.749968 0.521500
O O14 0.500000 0.500000 0.500000
#
# Coordination Sequence:
#
# PCOD9276472 Si02
#       7
#     8   8   4   8   8   8   8
#     4  11  20  41  67  95 128 181 214 267 341 403
#     4  11  25  40  64  96 134 171 223 274 336 395
#     4  12  20  38  68  94 136 166 218 268 334 384
#     4   9  17  35  63  89 126 165 214 266 318 384
#     4  10  20  40  62  88 128 171 217 266 328 399
#     4  11  23  40  64 100 133 167 219 288 318 390
#     4  12  24  45  66  91 130 184 223 270 341 400
#
# _framework density 20.795960999999998
#
# number of rings (size 3 to 8) (size 9 to 14) (size 15 to 20)
#    0.000    1.231    4.615    3.231    0.000    0.615 
#    0.000   10.000    0.000    0.000    0.000    0.000 
#    0.000    0.000    0.000    0.000    0.000    0.000 
#
# Total GULP energy -145115.778104 kJ/mol
# GULP energy per Si atom -5581.376081 kJ/mol
# Density = 2.074863 g / cm^3
# Si number density = 20.795961 Si / 1000 Ang^3
#
#
#
# Elastic Constant Matrix: (Units=GPa)
#
#
# Indices 1 2 3 4 5 6 
#
# 1 56.7891 14.9056 5.3666 0.0006 -2.1802 -0.0009
# 2 14.9056 72.5345 16.8687 0.0011 3.7187 -0.0018
# 3 5.3666 16.8687 87.2422 -0.0014 -8.8476 0.0002
# 4 0.0006 0.0011 -0.0014 29.3316 -0.0005 7.7053
# 5 -2.1802 3.7187 -8.8476 -0.0005 20.0963 0.0007
# 6 -0.0009 -0.0018 0.0002 7.7053 0.0007 26.9952
#
#
#
# Elastic Compliance Matrix: (Units=1/GPa)
#
#
# Indices 1 2 3 4 5 6 
#
# 1 0.018766 -0.003970 -0.000111 0.000000 0.002722 0.000000
# 2 -0.003970 0.015603 -0.003254 -0.000001 -0.004751 0.000001
# 3 -0.000111 -0.003254 0.012726 0.000001 0.006193 -0.000001
# 4 0.000000 -0.000001 0.000001 0.036856 0.000002 -0.010520
# 5 0.002722 -0.004751 0.006193 0.000002 0.053661 -0.000002
# 6 0.000000 0.000001 -0.000001 -0.010520 -0.000002 0.040046
#
#
# Mechanical properties :
#
#
# Convention : Reuss Voigt Hill
#
# Bulk Modulus (GPa) = 30.84067 32.31641 31.57854
# Shear Modulus (GPa) = 24.61376 27.24627 25.93002
#
# Velocity S-wave (km/s) = 3.44406 3.62356 3.53495
# Velocity P-wave (km/s) = 5.53874 5.75155 5.64615
#
# Compressibility (1/GPa) = 0.03242472
#
# Stress axis : x y z
#
# Youngs Moduli (GPa) = 53.28779 64.09104 78.57623
#
# Poissons Ratio (x) = 0.25445 0.00870
# Poissons Ratio (y) = 0.21156 0.25572
# Poissons Ratio (z) = 0.00590 0.20858
#
# Static dielectric constant tensor:
#      x y z
#    x 1.803230 0.000000 0.069920 
#    y 0.000000 1.776140 0.000000 
#    z 0.069920 0.000000 1.821740 
# 
# From -- ./inp_files/221865.got.cif
#   From: 2010.05.17/outbox.cif.g08.bks.cpg/sg15_111_cif.got.tgz:221865.got - 2010.06.03 18:47:42.
