data_PCOD9276639
_publ_section_title
;
Structure prediction by ZEFSAII (Michael W. Deem and Ramdas Pophale) SiO2 
 PCOD9276639
Probable space group: C 2/C
;
_chemical_formula_sum "Si O2"
_cell_formula_units_Z 48
_cell_length_a 11.027098
_cell_length_b 25.425108
_cell_length_c 8.733225
_cell_angle_alpha 90.000000
_cell_angle_beta 67.134170
_cell_angle_gamma 90.000000
_cell_volume 2256.082908
_symmetry_space_group_name_H-M "C 2/C"
_symmetry_group_IT_number 15
_symmetry_cell_setting 'monoclinic'
loop_
_space_group_symop_operation_xyz
x,y,z
-x,y,1/2-z
-x,-y,-z
x,-y,1/2+z
1/2+x,1/2+y,z
1/2-x,1/2+y,1/2-z
1/2-x,1/2-y,-z
1/2+x,1/2-y,1/2+z
loop_
_atom_site_type_symbol
_atom_site_label
_atom_site_fract_x
_atom_site_fract_y
_atom_site_fract_z
Si Si1 0.249757 0.625059 0.780610
Si Si2 0.654780 0.319679 0.977023
Si Si3 0.665787 0.152287 0.367886
Si Si4 0.583361 0.377024 0.574680
Si Si5 0.511805 0.058160 0.929804
Si Si6 0.057477 0.719506 0.876481
O O1 0.333649 0.598092 0.604849
O O2 0.146612 0.670328 0.776456
O O3 0.154712 0.581849 0.900294
O O4 0.337841 0.657412 0.856858
O O5 0.786633 0.340807 0.828777
O O6 0.525728 0.343325 0.959077
O O7 0.640170 0.258464 0.942127
O O8 0.802095 0.155336 0.395471
O O9 0.596701 0.097133 0.443532
O O10 0.563152 0.196651 0.467030
O O11 0.500000 0.406084 0.750000
O O12 0.500000 0.059430 0.750000
O O13 0.500000 0.000000 0.000000
O O14 0.000000 0.744805 0.750000
#
# Coordination Sequence:
#
# PCOD9276639 Si02
#       6
#     8   8   8   8   8   8
#     4  11  22  43  61  96 135 160 215 277 321 373
#     4  11  25  34  61  96 135 179 211 263 314 385
#     4  10  21  42  63  94 135 169 224 266 318 384
#     4  10  20  40  64  85 122 180 214 247 313 386
#     4  11  24  43  76  99 120 163 211 281 338 376
#     4  11  21  37  63  89 131 183 219 264 312 377
#
# _framework density 21.275815000000001
#
# number of rings (size 3 to 8) (size 9 to 14) (size 15 to 20)
#    0.000    1.333    3.333    3.500    4.667    3.333 
#    3.000    0.000    0.000   11.000    0.000    0.000 
#    0.000    0.000    0.000    0.000    0.000    0.000 
#
# Total GULP energy -133913.892112 kJ/mol
# GULP energy per Si atom -5579.745505 kJ/mol
# Density = 2.122739 g / cm^3
# Si number density = 21.275815 Si / 1000 Ang^3
#
#
#
# Elastic Constant Matrix: (Units=GPa)
#
#
# Indices 1 2 3 4 5 6 
#
# 1 88.0028 33.2140 43.2662 0.0000 -10.2046 0.0000
# 2 33.2140 98.3723 34.0553 0.0000 -8.3066 0.0000
# 3 43.2662 34.0553 130.8798 0.0000 -23.6830 0.0000
# 4 0.0000 0.0000 0.0000 22.5901 0.0000 3.3159
# 5 -10.2046 -8.3066 -23.6830 0.0000 40.5447 0.0000
# 6 0.0000 0.0000 0.0000 3.3159 0.0000 12.2691
#
#
#
# Elastic Compliance Matrix: (Units=1/GPa)
#
#
# Indices 1 2 3 4 5 6 
#
# 1 0.014659 -0.003578 -0.003779 0.000000 0.000749 0.000000
# 2 -0.003578 0.012061 -0.001869 0.000000 0.000479 0.000000
# 3 -0.003779 -0.001869 0.010215 0.000000 0.004632 0.000000
# 4 0.000000 0.000000 0.000000 0.046096 0.000000 -0.012458
# 5 0.000749 0.000479 0.004632 0.000000 0.027657 0.000000
# 6 0.000000 0.000000 0.000000 -0.012458 0.000000 0.084872
#
#
# Mechanical properties :
#
#
# Convention : Reuss Voigt Hill
#
# Bulk Modulus (GPa) = 54.10683 59.81399 56.96041
# Shear Modulus (GPa) = 22.70961 28.86208 25.78584
#
# Velocity S-wave (km/s) = 3.27064 3.68716 3.48513
# Velocity P-wave (km/s) = 6.30469 6.80452 6.55937
#
# Compressibility (1/GPa) = 0.01848196
#
# Stress axis : x y z
#
# Youngs Moduli (GPa) = 68.21978 82.91298 97.89966
#
# Poissons Ratio (x) = 0.29663 0.37000
# Poissons Ratio (y) = 0.24406 0.18297
# Poissons Ratio (z) = 0.25783 0.15496
#
# Static dielectric constant tensor:
#      x y z
#    x 1.795910 0.000000 0.023920 
#    y 0.000000 1.728420 0.000000 
#    z 0.023920 0.000000 1.839910 
# 
# From -- ./inp_files/33365.got.cif
#   From: 2010.05.17/outbox.cif.g08.bks.cpg/sg15_17_cif.got.tgz:33365.got - 2010.06.03 18:47:42.
