data_PCOD9276381
_publ_section_title
;
Structure prediction by ZEFSAII (Michael W. Deem and Ramdas Pophale) SiO2 
 PCOD9276381
Probable space group: C 2/C
;
_chemical_formula_sum "Si O2"
_cell_formula_units_Z 56
_cell_length_a 17.383190
_cell_length_b 22.346661
_cell_length_c 14.520198
_cell_angle_alpha 90.000000
_cell_angle_beta 149.690689
_cell_angle_gamma 90.000000
_cell_volume 2846.560117
_symmetry_space_group_name_H-M "C 2/C"
_symmetry_group_IT_number 15
_symmetry_cell_setting 'monoclinic'
loop_
_space_group_symop_operation_xyz
x,y,z
-x,y,1/2-z
-x,-y,-z
x,-y,1/2+z
1/2+x,1/2+y,z
1/2-x,1/2+y,1/2-z
1/2-x,1/2-y,-z
1/2+x,1/2-y,1/2+z
loop_
_atom_site_type_symbol
_atom_site_label
_atom_site_fract_x
_atom_site_fract_y
_atom_site_fract_z
Si Si1 0.205787 0.575679 0.602251
Si Si2 0.245392 0.813378 0.113545
Si Si3 0.711170 0.948765 0.311190
Si Si4 0.500000 0.002476 0.250000
Si Si5 0.500000 0.763063 0.250000
Si Si6 0.413635 0.685313 0.563203
Si Si7 0.953039 0.949519 0.095945
Si Si8 0.223820 0.209769 0.799838
O O1 0.142162 0.557951 0.637068
O O2 0.384530 0.557084 0.786891
O O3 0.204516 0.647556 0.588975
O O4 0.117899 0.543142 0.429560
O O5 0.216545 0.883882 0.093836
O O6 0.395829 0.802648 0.208877
O O7 0.266061 0.786654 0.236636
O O8 0.109733 0.778921 0.923272
O O9 0.591812 0.964765 0.268256
O O10 0.839810 0.999876 0.444457
O O11 0.500000 0.690619 0.750000
O O12 0.372749 0.615685 0.509855
O O13 0.279863 0.732468 0.412676
O O14 0.542962 0.701960 0.622687
O O15 0.000000 0.961811 0.250000
#
# Coordination Sequence:
#
# PCOD9276381 Si02
#       8
#     8   8   8   4   4   8   8   8
#     4  10  23  39  59  87 118 158 200 245 293 356
#     4  10  22  39  61  88 117 151 195 241 291 349
#     4  11  23  40  62  88 120 155 201 244 295 353
#     4  12  23  38  60  84 125 156 192 248 302 348
#     4  10  21  40  62  86 117 152 194 242 294 342
#     4  10  21  35  59  86 117 151 194 239 289 349
#     4  10  20  40  61  86 119 154 201 245 286 354
#     4  10  21  38  57  86 118 151 195 244 291 346
#
# _framework density 19.672868000000001
#
# number of rings (size 3 to 8) (size 9 to 14) (size 15 to 20)
#    0.000    1.714    1.429    2.571    2.000    1.143 
#    0.000    4.286    0.000    0.000    0.000    0.000 
#    0.000    0.000    0.000    0.000    0.000    0.000 
#
# Total GULP energy -156402.644695 kJ/mol
# GULP energy per Si atom -5585.808739 kJ/mol
# Density = 1.962809 g / cm^3
# Si number density = 19.672868 Si / 1000 Ang^3
#
#
#
# Elastic Constant Matrix: (Units=GPa)
#
#
# Indices 1 2 3 4 5 6 
#
# 1 79.2545 20.4090 10.9798 0.0000 -12.1909 0.0000
# 2 20.4090 101.0084 41.3990 0.0000 -2.8902 0.0000
# 3 10.9798 41.3990 39.0412 0.0000 2.3344 0.0000
# 4 0.0000 0.0000 0.0000 19.9790 0.0000 1.3033
# 5 -12.1909 -2.8902 2.3344 0.0000 18.7730 0.0000
# 6 0.0000 0.0000 0.0000 1.3033 0.0000 27.7194
#
#
#
# Elastic Compliance Matrix: (Units=1/GPa)
#
#
# Indices 1 2 3 4 5 6 
#
# 1 0.014960 -0.001364 -0.003354 0.000000 0.009922 0.000000
# 2 -0.001364 0.018122 -0.019088 0.000000 0.004278 0.000000
# 3 -0.003354 -0.019088 0.047457 0.000000 -0.011018 0.000000
# 4 0.000000 0.000000 0.000000 0.050207 0.000000 -0.002361
# 5 0.009922 0.004278 -0.011018 0.000000 0.061739 0.000000
# 6 0.000000 0.000000 0.000000 -0.002361 0.000000 0.036187
#
#
# Mechanical properties :
#
#
# Convention : Reuss Voigt Hill
#
# Bulk Modulus (GPa) = 30.37134 40.54220 35.45677
# Shear Modulus (GPa) = 17.40592 23.06203 20.23398
#
# Velocity S-wave (km/s) = 2.97773 3.42757 3.21054
# Velocity P-wave (km/s) = 5.22439 6.02638 5.63965
#
# Compressibility (1/GPa) = 0.03292578
#
# Stress axis : x y z
#
# Youngs Moduli (GPa) = 66.84656 55.18282 21.07178
#
# Poissons Ratio (x) = 0.07528 0.07067
# Poissons Ratio (y) = 0.09119 0.40222
# Poissons Ratio (z) = 0.22420 1.05334
#
# Static dielectric constant tensor:
#      x y z
#    x 1.739410 0.000000 0.012970 
#    y 0.000000 1.668350 0.000000 
#    z 0.012970 0.000000 1.660300 
# 
# From -- ./inp_files/163869.got.cif
#   From: 2010.05.17/outbox.cif.g08.bks.cpg/sg15_82_cif.got.tgz:163869.got - 2010.06.03 18:47:42.
