data_PCOD9276613
_publ_section_title
;
Structure prediction by ZEFSAII (Michael W. Deem and Ramdas Pophale) SiO2 
 PCOD9276613
Probable space group: C 2/C
;
_chemical_formula_sum "Si O2"
_cell_formula_units_Z 40
_cell_length_a 12.474753
_cell_length_b 10.956320
_cell_length_c 13.444350
_cell_angle_alpha 90.000000
_cell_angle_beta 77.538121
_cell_angle_gamma 90.000000
_cell_volume 1794.245828
_symmetry_space_group_name_H-M "C 2/C"
_symmetry_group_IT_number 15
_symmetry_cell_setting 'monoclinic'
loop_
_space_group_symop_operation_xyz
x,y,z
-x,y,1/2-z
-x,-y,-z
x,-y,1/2+z
1/2+x,1/2+y,z
1/2-x,1/2+y,1/2-z
1/2-x,1/2-y,-z
1/2+x,1/2-y,1/2+z
loop_
_atom_site_type_symbol
_atom_site_label
_atom_site_fract_x
_atom_site_fract_y
_atom_site_fract_z
Si Si1 0.391447 0.396256 0.207136
Si Si2 0.161066 0.601401 0.786923
Si Si3 0.920743 0.491564 0.402770
Si Si4 0.050487 0.701407 0.454334
Si Si5 0.441626 0.653943 0.153695
O O1 0.500000 0.378410 0.250000
O O2 0.284456 0.426439 0.294454
O O3 0.382758 0.276117 0.140799
O O4 0.407334 0.516932 0.137775
O O5 0.150763 0.547708 0.676893
O O6 0.151849 0.746248 0.806450
O O7 0.046174 0.552780 0.853710
O O8 0.885365 0.407412 0.502191
O O9 0.943875 0.632291 0.426381
O O10 0.012823 0.792390 0.549226
O O11 0.500000 0.650168 0.250000
#
# Coordination Sequence:
#
# PCOD9276613 Si02
#       5
#     8   8   8   8   8
#     4  11  26  37  61  93 130 163 201 254 310 362
#     4  10  20  41  65  85 123 167 204 249 305 369
#     4   9  20  39  66  91 117 160 211 255 298 361
#     4  10  20  40  63  96 122 156 209 258 300 366
#     4  10  20  44  61  86 129 164 202 249 313 367
#
# _framework density 22.293488
#
# number of rings (size 3 to 8) (size 9 to 14) (size 15 to 20)
#    0.000    2.000    4.000    0.600    5.600    0.800 
#    0.000   15.000    0.000    0.000    0.000    0.000 
#    0.000    0.000    0.000    0.000    0.000    0.000 
#
# Total GULP energy -111335.395948 kJ/mol
# GULP energy per Si atom -5566.769797 kJ/mol
# Density = 2.224275 g / cm^3
# Si number density = 22.293488 Si / 1000 Ang^3
#
#
#
# Elastic Constant Matrix: (Units=GPa)
#
#
# Indices 1 2 3 4 5 6 
#
# 1 91.7454 -7.5100 13.3326 0.0000 -8.9242 0.0000
# 2 -7.5100 77.9008 16.1840 0.0000 -5.4004 0.0000
# 3 13.3326 16.1840 52.2584 0.0000 0.0983 0.0000
# 4 0.0000 0.0000 0.0000 25.8593 0.0000 -2.3401
# 5 -8.9242 -5.4004 0.0983 0.0000 16.6192 0.0000
# 6 0.0000 0.0000 0.0000 -2.3401 0.0000 3.3983
#
#
#
# Elastic Compliance Matrix: (Units=1/GPa)
#
#
# Indices 1 2 3 4 5 6 
#
# 1 0.012416 0.002543 -0.003969 0.000000 0.007517 0.000000
# 2 0.002543 0.014583 -0.005176 0.000000 0.006135 0.000000
# 3 -0.003969 -0.005176 0.021759 0.000000 -0.003942 0.000000
# 4 0.000000 0.000000 0.000000 0.041241 0.000000 0.028399
# 5 0.007517 0.006135 -0.003942 0.000000 0.066224 0.000000
# 6 0.000000 0.000000 0.000000 0.028399 0.000000 0.313824
#
#
# Mechanical properties :
#
#
# Convention : Reuss Voigt Hill
#
# Bulk Modulus (GPa) = 28.12824 29.54641 28.83733
# Shear Modulus (GPa) = 10.09892 22.50189 16.30041
#
# Velocity S-wave (km/s) = 2.13069 3.18047 2.70696
# Velocity P-wave (km/s) = 4.32409 5.17391 4.76797
#
# Compressibility (1/GPa) = 0.03555145
#
# Stress axis : x y z
#
# Youngs Moduli (GPa) = 80.54228 68.57476 45.95836
#
# Poissons Ratio (x) = -0.17436 0.18242
# Poissons Ratio (y) = -0.20479 0.23790
# Poissons Ratio (z) = 0.31969 0.35497
#
# Static dielectric constant tensor:
#      x y z
#    x 1.838050 0.000000 0.005630 
#    y 0.000000 1.921400 0.000000 
#    z 0.005630 0.000000 1.874840 
# 
# From -- ./inp_files/150938.got.cif
#   From: 2010.05.17/outbox.cif.g08.bks.cpg/sg15_76_cif.got.tgz:150938.got - 2010.06.03 18:47:42.
