data_PCOD9276324
_publ_section_title
;
Structure prediction by ZEFSAII (Michael W. Deem and Ramdas Pophale) SiO2 
 PCOD9276324
Probable space group: C 2/C
;
_chemical_formula_sum "Si O2"
_cell_formula_units_Z 40
_cell_length_a 11.162493
_cell_length_b 18.838268
_cell_length_c 17.894478
_cell_angle_alpha 90.000000
_cell_angle_beta 145.688581
_cell_angle_gamma 90.000000
_cell_volume 2121.104463
_symmetry_space_group_name_H-M "C 2/C"
_symmetry_group_IT_number 15
_symmetry_cell_setting 'monoclinic'
loop_
_space_group_symop_operation_xyz
x,y,z
-x,y,1/2-z
-x,-y,-z
x,-y,1/2+z
1/2+x,1/2+y,z
1/2-x,1/2+y,1/2-z
1/2-x,1/2-y,-z
1/2+x,1/2-y,1/2+z
loop_
_atom_site_type_symbol
_atom_site_label
_atom_site_fract_x
_atom_site_fract_y
_atom_site_fract_z
Si Si1 0.346694 0.589469 0.345973
Si Si2 0.517597 0.727404 0.349385
Si Si3 0.043136 0.484756 0.936973
Si Si4 0.889485 0.381266 0.274627
Si Si5 0.582086 0.444534 0.458373
O O1 0.434044 0.660938 0.354087
O O2 0.526418 0.528041 0.437377
O O3 0.294116 0.588797 0.407133
O O4 0.146750 0.560908 0.196800
O O5 0.500000 0.712747 0.250000
O O6 0.387884 0.799475 0.297134
O O7 0.750000 0.750000 0.500000
O O8 0.029278 0.562611 0.892451
O O9 0.262911 0.444519 0.032638
O O10 0.000000 0.500000 0.000000
O O11 0.647951 0.408088 0.158341
O O12 0.000000 0.382515 0.250000
#
# Coordination Sequence:
#
# PCOD9276324 Si02
#       5
#     8   8   8   8   8
#     4  10  21  36  64  88 120 162 212 261 322 386
#     4  11  23  38  65  97 132 167 218 270 330 395
#     4  11  23  36  62  89 124 163 218 267 318 383
#     4  10  21  39  62  91 124 163 206 271 322 381
#     4  10  20  40  60  87 123 163 213 263 320 384
#
# _framework density 18.858098999999999
#
# number of rings (size 3 to 8) (size 9 to 14) (size 15 to 20)
#    0.000    1.600    0.000    7.800    5.600    2.400 
#    0.000    1.000    4.400    0.000    0.000    0.000 
#    0.000    0.000    0.000    0.000    0.000    0.000 
#
# Total GULP energy -111458.902850 kJ/mol
# GULP energy per Si atom -5572.945143 kJ/mol
# Density = 1.881518 g / cm^3
# Si number density = 18.858099 Si / 1000 Ang^3
#
#
#
# Elastic Constant Matrix: (Units=GPa)
#
#
# Indices 1 2 3 4 5 6 
#
# 1 135.3546 60.2253 60.5869 0.0003 7.5323 0.0002
# 2 60.2253 161.1040 26.8050 0.0000 -0.2184 0.0001
# 3 60.5869 26.8050 67.8202 -0.0003 3.8293 0.0002
# 4 0.0003 0.0000 -0.0003 14.3062 -0.0008 -5.1173
# 5 7.5323 -0.2184 3.8293 -0.0008 20.4153 -0.0002
# 6 0.0002 0.0001 0.0002 -5.1173 -0.0002 37.0174
#
#
#
# Elastic Compliance Matrix: (Units=1/GPa)
#
#
# Indices 1 2 3 4 5 6 
#
# 1 0.013992 -0.003409 -0.010975 -0.000001 -0.003140 0.000000
# 2 -0.003409 0.007481 0.000013 0.000000 0.001335 0.000000
# 3 -0.010975 0.000013 0.024576 0.000001 -0.000560 0.000000
# 4 -0.000001 0.000000 0.000001 0.073536 0.000003 0.010166
# 5 -0.003140 0.001335 -0.000560 0.000003 0.050261 0.000001
# 6 0.000000 0.000000 0.000000 0.010166 0.000001 0.028420
#
#
# Mechanical properties :
#
#
# Convention : Reuss Voigt Hill
#
# Bulk Modulus (GPa) = 57.77912 73.27926 65.52919
# Shear Modulus (GPa) = 21.47976 28.79187 25.13581
#
# Velocity S-wave (km/s) = 3.37860 3.91162 3.65484
# Velocity P-wave (km/s) = 6.77682 7.70348 7.25496
#
# Compressibility (1/GPa) = 0.01730729
#
# Stress axis : x y z
#
# Youngs Moduli (GPa) = 71.46832 133.66960 40.69003
#
# Poissons Ratio (x) = 0.45566 0.44658
# Poissons Ratio (y) = 0.24362 -0.00053
# Poissons Ratio (z) = 0.78438 -0.00175
#
# Static dielectric constant tensor:
#      x y z
#    x 1.909590 0.000000 0.101380 
#    y 0.000000 1.651890 0.000000 
#    z 0.101380 0.000000 1.774480 
# 
# From -- ./inp_files/76920.got.cif
#   From: 2010.05.17/outbox.cif.g08.bks.cpg/sg15_39_cif.got.tgz:76920.got - 2010.06.03 18:47:42.
