data_PCOD9276558
_publ_section_title
;
Structure prediction by ZEFSAII (Michael W. Deem and Ramdas Pophale) SiO2 
 PCOD9276558
Probable space group: C 2/C
;
_chemical_formula_sum "Si O2"
_cell_formula_units_Z 56
_cell_length_a 21.142405
_cell_length_b 9.086959
_cell_length_c 30.727183
_cell_angle_alpha 90.000000
_cell_angle_beta 150.656896
_cell_angle_gamma 90.000000
_cell_volume 2892.849205
_symmetry_space_group_name_H-M "C 2/C"
_symmetry_group_IT_number 15
_symmetry_cell_setting 'monoclinic'
loop_
_space_group_symop_operation_xyz
x,y,z
-x,y,1/2-z
-x,-y,-z
x,-y,1/2+z
1/2+x,1/2+y,z
1/2-x,1/2+y,1/2-z
1/2-x,1/2-y,-z
1/2+x,1/2-y,1/2+z
loop_
_atom_site_type_symbol
_atom_site_label
_atom_site_fract_x
_atom_site_fract_y
_atom_site_fract_z
Si Si1 0.800438 0.150114 0.679054
Si Si2 0.400831 0.402502 0.468742
Si Si3 0.719685 0.660398 0.049099
Si Si4 0.630713 0.299782 0.653908
Si Si5 0.348262 0.004526 0.794670
Si Si6 0.460665 0.212160 0.133391
Si Si7 0.376085 0.095666 0.408712
O O1 0.761306 0.217349 0.609375
O O2 0.706341 0.228157 0.658301
O O3 0.945880 0.180360 0.782427
O O4 0.753918 0.983154 0.652755
O O5 0.500000 0.500000 0.500000
O O6 0.306698 0.515310 0.437225
O O7 0.483011 0.323307 0.555547
O O8 0.366305 0.264681 0.417340
O O9 0.839967 0.652478 0.088403
O O10 0.598347 0.710261 0.945677
O O11 0.701057 0.454120 0.701427
O O12 0.644874 0.179137 0.699700
O O13 0.444518 0.924315 0.819887
O O14 0.385069 0.930759 0.862792
O O15 0.500000 0.000000 0.500000
#
# Coordination Sequence:
#
# PCOD9276558 Si02
#       7
#     8   8   8   8   8   8   8
#     4  10  20  40  63  87 121 166 207 251 308 376
#     4  12  22  36  60  94 123 154 207 258 314 365
#     4  11  23  39  64  89 124 166 210 257 299 380
#     4  10  22  34  58  91 117 153 192 255 311 359
#     4  10  21  37  58  85 122 152 197 251 304 372
#     4  10  23  40  63  88 124 171 211 242 318 374
#     4  11  20  36  60  92 121 159 198 259 321 365
#
# _framework density 19.358079
#
# number of rings (size 3 to 8) (size 9 to 14) (size 15 to 20)
#    0.000    1.429    4.286    2.143    8.000    0.000 
#    0.000    0.714    0.000    1.714    0.000    0.000 
#    0.000    0.000    0.000    0.000    0.000    0.000 
#
# Total GULP energy -156044.745613 kJ/mol
# GULP energy per Si atom -5573.026629 kJ/mol
# Density = 1.931402 g / cm^3
# Si number density = 19.358079 Si / 1000 Ang^3
#
#
#
# Elastic Constant Matrix: (Units=GPa)
#
#
# Indices 1 2 3 4 5 6 
#
# 1 54.2273 17.3383 6.9600 0.0000 6.2238 -0.0001
# 2 17.3383 98.0060 18.8497 0.0000 4.1205 -0.0004
# 3 6.9600 18.8497 85.3904 0.0003 -1.6357 0.0000
# 4 0.0000 0.0000 0.0003 33.5267 0.0000 -4.2905
# 5 6.2238 4.1205 -1.6357 0.0000 24.5690 0.0000
# 6 -0.0001 -0.0004 0.0000 -4.2905 0.0000 23.7091
#
#
#
# Elastic Compliance Matrix: (Units=1/GPa)
#
#
# Indices 1 2 3 4 5 6 
#
# 1 0.020117 -0.003166 -0.001030 0.000000 -0.004634 0.000000
# 2 -0.003166 0.011248 -0.002249 0.000000 -0.001234 0.000000
# 3 -0.001030 -0.002249 0.012319 0.000000 0.001458 0.000000
# 4 0.000000 0.000000 0.000000 0.030534 0.000000 0.005526
# 5 -0.004634 -0.001234 0.001458 0.000000 0.042179 0.000000
# 6 0.000000 0.000000 0.000000 0.005526 0.000000 0.043178
#
#
# Mechanical properties :
#
#
# Convention : Reuss Voigt Hill
#
# Bulk Modulus (GPa) = 32.47195 35.99108 34.23152
# Shear Modulus (GPa) = 27.36288 29.32601 28.34445
#
# Velocity S-wave (km/s) = 3.76375 3.89642 3.83066
# Velocity P-wave (km/s) = 5.97482 6.23502 6.10631
#
# Compressibility (1/GPa) = 0.03079581
#
# Stress axis : x y z
#
# Youngs Moduli (GPa) = 49.70885 88.90528 81.17465
#
# Poissons Ratio (x) = 0.28148 0.08357
# Poissons Ratio (y) = 0.15738 0.18252
# Poissons Ratio (z) = 0.05118 0.19991
#
# Static dielectric constant tensor:
#      x y z
#    x 1.698450 0.000000 -0.073210 
#    y 0.000000 1.732350 0.000000 
#    z -0.073210 0.000000 1.824550 
# 
# From -- ./inp_files/317567.got.cif
#   From: 2010.05.17/outbox.cif.g08.bks.cpg/sg15_159_cif.got.tgz:317567.got - 2010.06.03 18:47:42.
