data_PCOD9276394
_publ_section_title
;
Structure prediction by ZEFSAII (Michael W. Deem and Ramdas Pophale) SiO2 
 PCOD9276394
Probable space group: C 2/C
;
_chemical_formula_sum "Si O2"
_cell_formula_units_Z 64
_cell_length_a 17.586529
_cell_length_b 23.421946
_cell_length_c 14.407356
_cell_angle_alpha 90.000000
_cell_angle_beta 149.338674
_cell_angle_gamma 90.000000
_cell_volume 3026.394655
_symmetry_space_group_name_H-M "C 2/C"
_symmetry_group_IT_number 15
_symmetry_cell_setting 'monoclinic'
loop_
_space_group_symop_operation_xyz
x,y,z
-x,y,1/2-z
-x,-y,-z
x,-y,1/2+z
1/2+x,1/2+y,z
1/2-x,1/2+y,1/2-z
1/2-x,1/2-y,-z
1/2+x,1/2-y,1/2+z
loop_
_atom_site_type_symbol
_atom_site_label
_atom_site_fract_x
_atom_site_fract_y
_atom_site_fract_z
Si Si1 0.335343 0.861923 0.725842
Si Si2 0.977434 0.272465 0.455534
Si Si3 0.993102 0.856830 0.028436
Si Si4 0.745594 0.007911 0.012467
Si Si5 0.773796 0.732212 0.419894
Si Si6 0.156933 0.879708 0.374864
Si Si7 0.025736 0.514081 0.133147
Si Si8 0.414034 0.620830 0.250390
O O1 0.173130 0.872573 0.605517
O O2 0.286535 0.847896 0.568164
O O3 0.427575 0.919974 0.814105
O O4 0.436885 0.818074 0.890648
O O5 0.059971 0.270354 0.442704
O O6 0.991432 0.211451 0.519404
O O7 0.807160 0.273526 0.240969
O O8 0.010385 0.884073 0.944847
O O9 0.130770 0.873652 0.238471
O O10 0.844793 0.060638 0.148113
O O11 0.827131 0.947189 0.087735
O O12 0.619825 0.997697 0.958489
O O13 0.659328 0.019476 0.825358
O O14 0.750000 0.750000 0.500000
O O15 0.706088 0.668372 0.345361
O O16 0.000000 0.857832 0.250000
O O17 0.000000 0.500000 0.000000
O O18 0.500000 0.642907 0.250000
#
# Coordination Sequence:
#
# PCOD9276394 Si02
#       8
#     8   8   8   8   8   8   8   8
#     4  10  20  40  61  88 121 166 202 266 312 373
#     4  11  21  38  63  88 125 165 208 261 309 371
#     4  10  21  39  60  91 124 157 212 260 312 382
#     4  10  22  39  57  92 119 155 210 256 311 390
#     4  11  23  40  59  91 128 169 212 259 313 373
#     4   9  20  38  63  85 121 157 201 258 323 371
#     4  10  22  38  61  83 123 160 203 257 317 378
#     4  11  22  38  61  87 126 160 205 260 311 377
#
# _framework density 21.147276000000002
#
# number of rings (size 3 to 8) (size 9 to 14) (size 15 to 20)
#    0.000    1.750    2.500    3.000    0.000    4.000 
#    2.250    0.000    5.500    0.000    0.000    0.000 
#    0.000    0.000    0.000    0.000    0.000    0.000 
#
# Total GULP energy -178471.044311 kJ/mol
# GULP energy per Si atom -5577.220135 kJ/mol
# Density = 2.109914 g / cm^3
# Si number density = 21.147276 Si / 1000 Ang^3
#
#
#
# Elastic Constant Matrix: (Units=GPa)
#
#
# Indices 1 2 3 4 5 6 
#
# 1 66.3583 0.0916 30.2350 0.0000 -25.0095 0.0000
# 2 0.0916 50.9614 28.7141 0.0000 -14.4456 0.0000
# 3 30.2350 28.7141 108.0956 0.0000 -48.3876 0.0000
# 4 0.0000 0.0000 0.0000 28.9710 0.0000 -3.6131
# 5 -25.0095 -14.4456 -48.3876 0.0000 48.8871 0.0000
# 6 0.0000 0.0000 0.0000 -3.6131 0.0000 30.8102
#
#
#
# Elastic Compliance Matrix: (Units=1/GPa)
#
#
# Indices 1 2 3 4 5 6 
#
# 1 0.019474 0.003878 -0.002702 0.000000 0.008434 0.000000
# 2 0.003878 0.023899 -0.006076 0.000000 0.003032 0.000000
# 3 -0.002702 -0.006076 0.018312 0.000000 0.014947 0.000000
# 4 0.000000 0.000000 0.000000 0.035030 0.000000 0.004108
# 5 0.008434 0.003032 0.014947 0.000000 0.040460 0.000000
# 6 0.000000 0.000000 0.000000 0.004108 0.000000 0.032939
#
#
# Mechanical properties :
#
#
# Convention : Reuss Voigt Hill
#
# Bulk Modulus (GPa) = 19.27321 38.16627 28.71974
# Shear Modulus (GPa) = 25.35412 32.82530 29.08971
#
# Velocity S-wave (km/s) = 3.46631 3.94410 3.71290
# Velocity P-wave (km/s) = 5.01538 6.23123 5.65607
#
# Compressibility (1/GPa) = 0.05188549
#
# Stress axis : x y z
#
# Youngs Moduli (GPa) = 51.35021 41.84346 54.61043
#
# Poissons Ratio (x) = -0.16227 0.14754
# Poissons Ratio (y) = -0.19914 0.33180
# Poissons Ratio (z) = 0.13873 0.25423
#
# Static dielectric constant tensor:
#      x y z
#    x 1.847630 0.000000 -0.025570 
#    y 0.000000 1.728890 0.000000 
#    z -0.025570 0.000000 1.867630 
# 
# From -- ./inp_files/164265.got.cif
#   From: 2010.05.17/outbox.cif.g08.bks.cpg/sg15_83_cif.got.tgz:164265.got - 2010.06.03 18:47:42.
