data_PCOD9276686
_publ_section_title
;
Structure prediction by ZEFSAII (Michael W. Deem and Ramdas Pophale) SiO2 
 PCOD9276686
Probable space group: C 2/C
;
_chemical_formula_sum "Si O2"
_cell_formula_units_Z 36
_cell_length_a 16.343437
_cell_length_b 9.302477
_cell_length_c 11.810352
_cell_angle_alpha 90.000000
_cell_angle_beta 62.366700
_cell_angle_gamma 90.000000
_cell_volume 1590.765962
_symmetry_space_group_name_H-M "C 2/C"
_symmetry_group_IT_number 15
_symmetry_cell_setting 'monoclinic'
loop_
_space_group_symop_operation_xyz
x,y,z
-x,y,1/2-z
-x,-y,-z
x,-y,1/2+z
1/2+x,1/2+y,z
1/2-x,1/2+y,1/2-z
1/2-x,1/2-y,-z
1/2+x,1/2-y,1/2+z
loop_
_atom_site_type_symbol
_atom_site_label
_atom_site_fract_x
_atom_site_fract_y
_atom_site_fract_z
Si Si1 0.500000 0.645468 0.750000
Si Si2 0.845161 0.005575 0.980462
Si Si3 0.704764 0.921100 0.905546
Si Si4 0.173758 0.259435 0.342446
Si Si5 0.034657 0.236285 0.980833
O O1 0.410669 0.548226 0.833144
O O2 0.517152 0.730970 0.856193
O O3 0.754196 0.928775 0.994574
O O4 0.814812 0.152254 0.058871
O O5 0.909460 0.907626 0.019187
O O6 0.764547 0.811114 0.793267
O O7 0.600864 0.865417 0.973247
O O8 0.704488 0.079970 0.851773
O O9 0.063466 0.250418 0.394094
#
# Coordination Sequence:
#
# PCOD9276686 Si02
#       5
#     4   8   8   8   8
#     4  10  20  40  64  90 126 168 208 250 310 380
#     4  11  21  40  67  94 126 166 208 257 312 372
#     4  12  24  42  64  95 128 163 211 262 312 373
#     4  11  24  42  64  93 129 169 208 254 315 374
#     4  11  24  42  66  94 126 167 210 259 314 371
#
# _framework density 22.630609
#
# number of rings (size 3 to 8) (size 9 to 14) (size 15 to 20)
#    0.000    0.889    0.000   10.000    0.000    1.778 
#    0.000    2.222    0.000    1.333    0.000    0.000 
#    0.000    0.000    0.000    0.000    0.000    0.000 
#
# Total GULP energy -100764.778016 kJ/mol
# GULP energy per Si atom -5598.043223 kJ/mol
# Density = 2.257910 g / cm^3
# Si number density = 22.630609 Si / 1000 Ang^3
#
#
#
# Elastic Constant Matrix: (Units=GPa)
#
#
# Indices 1 2 3 4 5 6 
#
# 1 149.2493 44.0753 26.1076 0.0000 1.9375 0.0000
# 2 44.0753 123.6849 16.7666 0.0000 -6.9237 0.0000
# 3 26.1076 16.7666 42.2955 0.0000 -18.3830 0.0000
# 4 0.0000 0.0000 0.0000 21.0620 0.0000 -3.8360
# 5 1.9375 -6.9237 -18.3830 0.0000 21.9367 0.0000
# 6 0.0000 0.0000 0.0000 -3.8360 0.0000 39.5807
#
#
#
# Elastic Compliance Matrix: (Units=1/GPa)
#
#
# Indices 1 2 3 4 5 6 
#
# 1 0.009012 -0.002571 -0.008246 0.000000 -0.008517 0.000000
# 2 -0.002571 0.009278 -0.001132 0.000000 0.002207 0.000000
# 3 -0.008246 -0.001132 0.046153 0.000000 0.039048 0.000000
# 4 0.000000 0.000000 0.000000 0.048332 0.000000 0.004684
# 5 -0.008517 0.002207 0.039048 0.000000 0.079756 0.000000
# 6 0.000000 0.000000 0.000000 0.004684 0.000000 0.025719
#
#
# Mechanical properties :
#
#
# Convention : Reuss Voigt Hill
#
# Bulk Modulus (GPa) = 24.66318 54.34761 39.50540
# Shear Modulus (GPa) = 19.55694 31.73456 25.64575
#
# Velocity S-wave (km/s) = 2.94288 3.74877 3.37000
# Velocity P-wave (km/s) = 4.74017 6.54255 5.71289
#
# Compressibility (1/GPa) = 0.04054627
#
# Stress axis : x y z
#
# Youngs Moduli (GPa) = 110.95919 107.78095 21.66693
#
# Poissons Ratio (x) = 0.27705 0.17866
# Poissons Ratio (y) = 0.28522 0.02453
# Poissons Ratio (z) = 0.91497 0.12203
#
# Static dielectric constant tensor:
#      x y z
#    x 1.846730 0.000000 0.009560 
#    y 0.000000 1.841920 0.000000 
#    z 0.009560 0.000000 1.859800 
# 
# From -- ./inp_files/102613.got.cif
#   From: 2010.05.17/outbox.cif.g08.bks.cpg/sg15_52_cif.got.tgz:102613.got - 2010.06.03 18:47:42.
