data_PCOD9276062
_publ_section_title
;
Structure prediction by ZEFSAII (Michael W. Deem and Ramdas Pophale) SiO2 
 PCOD9276062
Probable space group: C 2/C
;
_chemical_formula_sum "Si O2"
_cell_formula_units_Z 32
_cell_length_a 10.601708
_cell_length_b 9.036217
_cell_length_c 12.238254
_cell_angle_alpha 90.000000
_cell_angle_beta 70.468626
_cell_angle_gamma 90.000000
_cell_volume 1104.954049
_symmetry_space_group_name_H-M "C 2/C"
_symmetry_group_IT_number 15
_symmetry_cell_setting 'monoclinic'
loop_
_space_group_symop_operation_xyz
x,y,z
-x,y,1/2-z
-x,-y,-z
x,-y,1/2+z
1/2+x,1/2+y,z
1/2-x,1/2+y,1/2-z
1/2-x,1/2-y,-z
1/2+x,1/2-y,1/2+z
loop_
_atom_site_type_symbol
_atom_site_label
_atom_site_fract_x
_atom_site_fract_y
_atom_site_fract_z
Si Si1 0.779805 0.960539 0.545588
Si Si2 0.366525 0.223170 0.238981
Si Si3 0.474960 0.323684 0.885635
Si Si4 0.145851 0.565990 0.859887
O O1 0.669174 0.905847 0.663414
O O2 0.907892 0.890675 0.571624
O O3 0.719674 0.894291 0.451424
O O4 0.841908 0.112182 0.478599
O O5 0.500000 0.294038 0.250000
O O6 0.254224 0.346845 0.250534
O O7 0.376582 0.109448 0.136425
O O8 0.500000 0.365816 0.750000
O O9 0.506659 0.149809 0.881715
#
# Coordination Sequence:
#
# PCOD9276062 Si02
#       4
#     8   8   8   8
#     4  10  22  41  68  97 129 176 220 264 327 392
#     4  11  25  42  66  99 133 172 220 271 325 388
#     4  10  20  39  67  95 127 167 217 268 318 382
#     4  11  24  44  66  97 134 172 221 270 324 390
#
# _framework density 28.960481000000001
#
# number of rings (size 3 to 8) (size 9 to 14) (size 15 to 20)
#    0.000    1.500    0.000    6.750    0.000   10.000 
#    0.000   11.250    0.000    0.000    0.000    0.000 
#    0.000    0.000    0.000    0.000    0.000    0.000 
#
# Total GULP energy -89379.822643 kJ/mol
# GULP energy per Si atom -5586.238915 kJ/mol
# Density = 2.889457 g / cm^3
# Si number density = 28.960481 Si / 1000 Ang^3
#
#
#
# Elastic Constant Matrix: (Units=GPa)
#
#
# Indices 1 2 3 4 5 6 
#
# 1 108.4143 35.0768 14.3728 0.0000 13.7698 0.0000
# 2 35.0768 134.2197 11.4788 0.0000 11.3681 0.0000
# 3 14.3728 11.4788 90.5175 0.0000 3.7458 0.0000
# 4 0.0000 0.0000 0.0000 18.1391 0.0000 0.9774
# 5 13.7698 11.3681 3.7458 0.0000 51.6437 0.0000
# 6 0.0000 0.0000 0.0000 0.9774 0.0000 12.1979
#
#
#
# Elastic Compliance Matrix: (Units=1/GPa)
#
#
# Indices 1 2 3 4 5 6 
#
# 1 0.010455 -0.002442 -0.001261 0.000000 -0.002159 0.000000
# 2 -0.002442 0.008235 -0.000610 0.000000 -0.001118 0.000000
# 3 -0.001261 -0.000610 0.011340 0.000000 -0.000352 0.000000
# 4 0.000000 0.000000 0.000000 0.055368 0.000000 -0.004436
# 5 -0.002159 -0.001118 -0.000352 0.000000 0.020211 0.000000
# 6 0.000000 0.000000 0.000000 -0.004436 0.000000 0.082337
#
#
# Mechanical properties :
#
#
# Convention : Reuss Voigt Hill
#
# Bulk Modulus (GPa) = 46.72023 50.55647 48.63835
# Shear Modulus (GPa) = 24.54499 34.54435 29.54467
#
# Velocity S-wave (km/s) = 2.91440 3.45746 3.19748
# Velocity P-wave (km/s) = 5.24332 5.78218 5.51933
#
# Compressibility (1/GPa) = 0.02140400
#
# Stress axis : x y z
#
# Youngs Moduli (GPa) = 95.64583 121.42653 88.18485
#
# Poissons Ratio (x) = 0.29648 0.11122
# Poissons Ratio (y) = 0.23354 0.05383
# Poissons Ratio (z) = 0.12063 0.07412
#
# Static dielectric constant tensor:
#      x y z
#    x 2.168100 0.000000 -0.053280 
#    y 0.000000 2.335950 0.000000 
#    z -0.053280 0.000000 2.612720 
# 
# From -- ./inp_files/83819.got.cif
#   From: 2010.05.17/outbox.cif.g08.bks.cpg/sg15_42_cif.got.tgz:83819.got - 2010.06.03 18:47:42.
