data_PCOD9276815
_publ_section_title
;
Structure prediction by ZEFSAII (Michael W. Deem and Ramdas Pophale) SiO2 
 PCOD9276815
Probable space group: C 2/C
;
_chemical_formula_sum "Si O2"
_cell_formula_units_Z 44
_cell_length_a 8.980959
_cell_length_b 12.213687
_cell_length_c 20.811504
_cell_angle_alpha 90.000000
_cell_angle_beta 118.117235
_cell_angle_gamma 90.000000
_cell_volume 2013.419340
_symmetry_space_group_name_H-M "C 2/C"
_symmetry_group_IT_number 15
_symmetry_cell_setting 'monoclinic'
loop_
_space_group_symop_operation_xyz
x,y,z
-x,y,1/2-z
-x,-y,-z
x,-y,1/2+z
1/2+x,1/2+y,z
1/2-x,1/2+y,1/2-z
1/2-x,1/2-y,-z
1/2+x,1/2-y,1/2+z
loop_
_atom_site_type_symbol
_atom_site_label
_atom_site_fract_x
_atom_site_fract_y
_atom_site_fract_z
Si Si1 0.000000 0.810868 0.250000
Si Si2 0.306876 0.795077 0.396012
Si Si3 0.777612 0.966674 0.296253
Si Si4 0.005645 0.086567 0.442744
Si Si5 0.981916 0.539739 0.651263
Si Si6 0.175676 0.475433 0.002606
O O1 0.855609 0.754267 0.177433
O O2 0.892714 0.885923 0.277877
O O3 0.426741 0.700549 0.446523
O O4 0.424504 0.866761 0.371318
O O5 0.249357 0.873832 0.442674
O O6 0.655105 0.914265 0.325954
O O7 0.636892 0.017959 0.219903
O O8 0.899938 0.046636 0.359691
O O9 0.000000 0.000000 0.500000
O O10 0.202205 0.079532 0.465331
O O11 0.876067 0.462383 0.582060
O O12 0.000000 0.500000 0.000000
#
# Coordination Sequence:
#
# PCOD9276815 Si02
#       6
#     4   8   8   8   8   8
#     4  10  20  42  66  94 128 176 224 278 332 410
#     4  10  23  41  68  96 132 179 226 269 341 403
#     4  10  20  40  65  90 133 169 214 279 330 392
#     4  12  24  42  63  98 133 172 220 279 332 398
#     4   9  20  40  66  92 132 171 215 277 332 398
#     4  10  21  42  65  96 130 172 217 272 331 394
#
# _framework density 21.853370999999999
#
# number of rings (size 3 to 8) (size 9 to 14) (size 15 to 20)
#    0.000    1.818    3.636    0.000    0.000    5.091 
#    0.000    5.455    0.000    0.000    0.000    0.000 
#    0.000    0.000    0.000    0.000    0.000    0.000 
#
# Total GULP energy -122663.062526 kJ/mol
# GULP energy per Si atom -5575.593751 kJ/mol
# Density = 2.180363 g / cm^3
# Si number density = 21.853371 Si / 1000 Ang^3
#
#
#
# Elastic Constant Matrix: (Units=GPa)
#
#
# Indices 1 2 3 4 5 6 
#
# 1 122.0865 5.2919 37.7160 0.0000 5.2606 0.0000
# 2 5.2919 33.4906 31.7796 0.0000 2.3696 0.0000
# 3 37.7160 31.7796 146.7218 0.0000 17.3933 0.0000
# 4 0.0000 0.0000 0.0000 33.1839 0.0000 8.3057
# 5 5.2606 2.3696 17.3933 0.0000 46.0195 0.0000
# 6 0.0000 0.0000 0.0000 8.3057 0.0000 27.1873
#
#
#
# Elastic Compliance Matrix: (Units=1/GPa)
#
#
# Indices 1 2 3 4 5 6 
#
# 1 0.008923 0.000958 -0.002486 0.000000 -0.000130 0.000000
# 2 0.000958 0.037750 -0.008563 0.000000 0.001183 0.000000
# 3 -0.002486 -0.008563 0.009656 0.000000 -0.002924 0.000000
# 4 0.000000 0.000000 0.000000 0.032630 0.000000 -0.009968
# 5 -0.000130 0.001183 -0.002924 0.000000 0.022789 0.000000
# 6 0.000000 0.000000 0.000000 -0.009968 0.000000 0.039827
#
#
# Mechanical properties :
#
#
# Convention : Reuss Voigt Hill
#
# Bulk Modulus (GPa) = 27.66481 50.20822 38.93652
# Shear Modulus (GPa) = 27.20268 36.44559 31.82413
#
# Velocity S-wave (km/s) = 3.53197 4.08822 3.82023
# Velocity P-wave (km/s) = 5.41478 6.73124 6.10858
#
# Compressibility (1/GPa) = 0.03614700
#
# Stress axis : x y z
#
# Youngs Moduli (GPa) = 112.07088 26.49038 103.56210
#
# Poissons Ratio (x) = -0.02538 0.25744
# Poissons Ratio (y) = -0.10738 0.88680
# Poissons Ratio (z) = 0.27859 0.22684
#
# Static dielectric constant tensor:
#      x y z
#    x 1.871500 0.000000 -0.016880 
#    y 0.000000 1.786300 0.000000 
#    z -0.016880 0.000000 1.863620 
# 
# From -- ./inp_files/231423.got.cif
#   From: 2010.05.17/outbox.cif.g08.bks.cpg/sg15_116_cif.got.tgz:231423.got - 2010.06.03 18:47:42.
