data_PCOD9276694
_publ_section_title
;
Structure prediction by ZEFSAII (Michael W. Deem and Ramdas Pophale) SiO2 
 PCOD9276694
Probable space group: C 2/C
;
_chemical_formula_sum "Si O2"
_cell_formula_units_Z 40
_cell_length_a 6.547482
_cell_length_b 25.572069
_cell_length_c 10.967810
_cell_angle_alpha 90.000000
_cell_angle_beta 87.916786
_cell_angle_gamma 90.000000
_cell_volume 1835.155937
_symmetry_space_group_name_H-M "C 2/C"
_symmetry_group_IT_number 15
_symmetry_cell_setting 'monoclinic'
loop_
_space_group_symop_operation_xyz
x,y,z
-x,y,1/2-z
-x,-y,-z
x,-y,1/2+z
1/2+x,1/2+y,z
1/2-x,1/2+y,1/2-z
1/2-x,1/2-y,-z
1/2+x,1/2-y,1/2+z
loop_
_atom_site_type_symbol
_atom_site_label
_atom_site_fract_x
_atom_site_fract_y
_atom_site_fract_z
Si Si1 0.382233 0.567431 0.381136
Si Si2 0.950950 0.773044 0.427114
Si Si3 0.368682 0.151195 0.640411
Si Si4 0.140056 0.049935 0.624571
Si Si5 0.310087 0.823519 0.575093
O O1 0.500000 0.565573 0.250000
O O2 0.519842 0.568500 0.503197
O O3 0.284170 0.509641 0.394225
O O4 0.248671 0.620035 0.370900
O O5 0.750000 0.750000 0.500000
O O6 0.845236 0.818614 0.352991
O O7 0.104361 0.800910 0.518566
O O8 0.087982 0.727280 0.363988
O O9 0.500000 0.169599 0.750000
O O10 0.321107 0.090178 0.642553
O O11 0.512482 0.163099 0.524017
O O12 0.000000 0.051901 0.750000
#
# Coordination Sequence:
#
# PCOD9276694 Si02
#       5
#     8   8   8   8   8
#     4  10  21  40  68  97 133 175 218 277 346 398
#     4   9  20  39  63  89 131 169 222 272 335 394
#     4  11  22  36  67  98 125 171 225 276 328 402
#     4  10  21  40  67  97 132 174 222 279 335 403
#     4  10  20  40  64  90 131 168 219 278 332 399
#
# _framework density 21.796512
#
# number of rings (size 3 to 8) (size 9 to 14) (size 15 to 20)
#    0.000    2.000    2.000    1.200    0.000    0.800 
#    0.000   12.000    4.400    0.000    0.000    0.000 
#    0.000    0.000    0.000    0.000    0.000    0.000 
#
# Total GULP energy -111422.476519 kJ/mol
# GULP energy per Si atom -5571.123826 kJ/mol
# Density = 2.174690 g / cm^3
# Si number density = 21.796512 Si / 1000 Ang^3
#
#
#
# Elastic Constant Matrix: (Units=GPa)
#
#
# Indices 1 2 3 4 5 6 
#
# 1 112.4915 60.1825 24.0509 0.0000 10.9579 0.0000
# 2 60.1825 160.9590 21.2241 0.0000 3.5181 0.0000
# 3 24.0509 21.2241 83.6926 0.0000 6.8908 0.0000
# 4 0.0000 0.0000 0.0000 2.4852 0.0000 -5.8055
# 5 10.9579 3.5181 6.8908 0.0000 24.4083 0.0000
# 6 0.0000 0.0000 0.0000 -5.8055 0.0000 38.7953
#
#
#
# Elastic Compliance Matrix: (Units=1/GPa)
#
#
# Indices 1 2 3 4 5 6 
#
# 1 0.011927 -0.004099 -0.002043 0.000000 -0.004187 0.000000
# 2 -0.004099 0.007842 -0.000890 0.000000 0.000961 0.000000
# 3 -0.002043 -0.000890 0.012977 0.000000 -0.002618 0.000000
# 4 0.000000 0.000000 0.000000 0.618627 0.000000 0.092574
# 5 -0.004187 0.000961 -0.002618 0.000000 0.043450 0.000000
# 6 0.000000 0.000000 0.000000 0.092574 0.000000 0.039630
#
#
# Mechanical properties :
#
#
# Convention : Reuss Voigt Hill
#
# Bulk Modulus (GPa) = 53.52801 63.11755 58.32278
# Shear Modulus (GPa) = 6.62477 29.91682 18.27080
#
# Velocity S-wave (km/s) = 1.74527 3.70881 2.89839
# Velocity P-wave (km/s) = 5.35469 6.88193 6.16578
#
# Compressibility (1/GPa) = 0.01868181
#
# Stress axis : x y z
#
# Youngs Moduli (GPa) = 83.84348 127.52593 77.05996
#
# Poissons Ratio (x) = 0.52267 0.15746
# Poissons Ratio (y) = 0.34364 0.06858
# Poissons Ratio (z) = 0.17132 0.11349
#
# Static dielectric constant tensor:
#      x y z
#    x 1.745190 0.000000 0.020710 
#    y 0.000000 1.901790 0.000000 
#    z 0.020710 0.000000 1.851990 
# 
# From -- ./inp_files/73057.got.cif
#   From: 2010.05.17/outbox.cif.g08.bks.cpg/sg15_37_cif.got.tgz:73057.got - 2010.06.03 18:47:42.
