data_PCOD9276204
_publ_section_title
;
Structure prediction by ZEFSAII (Michael W. Deem and Ramdas Pophale) SiO2 
 PCOD9276204
Probable space group: C 2/C
;
_chemical_formula_sum "Si O2"
_cell_formula_units_Z 44
_cell_length_a 13.052921
_cell_length_b 6.691212
_cell_length_c 17.295258
_cell_angle_alpha 90.000000
_cell_angle_beta 95.373526
_cell_angle_gamma 90.000000
_cell_volume 1503.927022
_symmetry_space_group_name_H-M "C 2/C"
_symmetry_group_IT_number 15
_symmetry_cell_setting 'monoclinic'
loop_
_space_group_symop_operation_xyz
x,y,z
-x,y,1/2-z
-x,-y,-z
x,-y,1/2+z
1/2+x,1/2+y,z
1/2-x,1/2+y,1/2-z
1/2-x,1/2-y,-z
1/2+x,1/2-y,1/2+z
loop_
_atom_site_type_symbol
_atom_site_label
_atom_site_fract_x
_atom_site_fract_y
_atom_site_fract_z
Si Si1 0.500000 0.000000 0.000000
Si Si2 0.287674 0.898676 0.067582
Si Si3 0.372772 0.358752 0.167355
Si Si4 0.158428 0.430027 0.116886
Si Si5 0.386038 0.890391 0.218951
Si Si6 0.897046 0.898228 0.349659
O O1 0.552133 0.857253 0.071155
O O2 0.480597 0.418760 0.134482
O O3 0.334514 0.780627 0.144672
O O4 0.186279 0.001479 0.099356
O O5 0.384598 0.002121 0.032850
O O6 0.250000 0.750000 0.000000
O O7 0.276759 0.393081 0.102250
O O8 0.374535 0.438801 0.257238
O O9 0.382226 0.120272 0.188973
O O10 0.172175 0.360101 0.206080
O O11 0.122894 0.664820 0.126609
O O12 0.500000 0.840201 0.250000
#
# Coordination Sequence:
#
# PCOD9276204 Si02
#       6
#     4   8   8   8   8   8
#     4  12  24  40  68  98 138 186 226 292 344 414
#     4  12  24  41  72 102 143 190 232 293 359 415
#     4  10  20  39  71 102 133 179 240 290 347 424
#     4  11  21  40  68 100 135 185 236 284 359 413
#     4  11  20  40  71  99 138 188 239 284 352 428
#     4  10  20  40  66  97 135 181 228 296 344 419
#
# _framework density 29.256740000000001
#
# number of rings (size 3 to 8) (size 9 to 14) (size 15 to 20)
#    0.000    1.091    9.091    0.000    0.000    0.000 
#    0.000    6.364    4.000    0.000    0.000    0.000 
#    0.000    0.000    0.000    0.000    0.000    0.000 
#
# Total GULP energy -122522.065879 kJ/mol
# GULP energy per Si atom -5569.184813 kJ/mol
# Density = 2.919015 g / cm^3
# Si number density = 29.256740 Si / 1000 Ang^3
#
#
#
# Elastic Constant Matrix: (Units=GPa)
#
#
# Indices 1 2 3 4 5 6 
#
# 1 302.7983 28.0056 43.2842 0.0000 19.3637 0.0000
# 2 28.0056 90.3867 -6.5865 0.0000 -1.7339 0.0000
# 3 43.2842 -6.5865 78.5753 0.0000 0.2209 0.0000
# 4 0.0000 0.0000 0.0000 27.3180 0.0000 -0.6571
# 5 19.3637 -1.7339 0.2209 0.0000 82.6282 0.0000
# 6 0.0000 0.0000 0.0000 -0.6571 0.0000 36.9319
#
#
#
# Elastic Compliance Matrix: (Units=1/GPa)
#
#
# Indices 1 2 3 4 5 6 
#
# 1 0.003802 -0.001356 -0.002205 0.000000 -0.000913 0.000000
# 2 -0.001356 0.011620 0.001719 0.000000 0.000557 0.000000
# 3 -0.002205 0.001719 0.014084 0.000000 0.000515 0.000000
# 4 0.000000 0.000000 0.000000 0.036622 0.000000 0.000652
# 5 -0.000913 0.000557 0.000515 0.000000 0.012327 0.000000
# 6 0.000000 0.000000 0.000000 0.000652 0.000000 0.027088
#
#
# Mechanical properties :
#
#
# Convention : Reuss Voigt Hill
#
# Bulk Modulus (GPa) = 38.72716 66.79631 52.76174
# Shear Modulus (GPa) = 42.43282 56.51276 49.47279
#
# Velocity S-wave (km/s) = 3.81249 4.39978 4.11662
# Velocity P-wave (km/s) = 5.71366 6.97792 6.37720
#
# Compressibility (1/GPa) = 0.02582167
#
# Stress axis : x y z
#
# Youngs Moduli (GPa) = 263.04665 86.06047 71.00184
#
# Poissons Ratio (x) = 0.11671 0.15658
# Poissons Ratio (y) = 0.35672 -0.12209
# Poissons Ratio (z) = 0.58009 -0.14798
#
# Static dielectric constant tensor:
#      x y z
#    x 2.156840 0.000000 -0.063500 
#    y 0.000000 2.483960 0.000000 
#    z -0.063500 0.000000 2.438480 
# 
# From -- ./inp_files/202793.got.cif
#   From: 2010.05.17/outbox.cif.g08.bks.cpg/sg15_102_cif.got.tgz:202793.got - 2010.06.03 18:47:42.
