data_PCOD9276014
_publ_section_title
;
Structure prediction by ZEFSAII (Michael W. Deem and Ramdas Pophale) SiO2 
 PCOD9276014
Probable space group: C 2/C
;
_chemical_formula_sum "Si O2"
_cell_formula_units_Z 56
_cell_length_a 15.806951
_cell_length_b 7.457105
_cell_length_c 18.744127
_cell_angle_alpha 90.000000
_cell_angle_beta 73.803290
_cell_angle_gamma 90.000000
_cell_volume 2121.753371
_symmetry_space_group_name_H-M "C 2/C"
_symmetry_group_IT_number 15
_symmetry_cell_setting 'monoclinic'
loop_
_space_group_symop_operation_xyz
x,y,z
-x,y,1/2-z
-x,-y,-z
x,-y,1/2+z
1/2+x,1/2+y,z
1/2-x,1/2+y,1/2-z
1/2-x,1/2-y,-z
1/2+x,1/2-y,1/2+z
loop_
_atom_site_type_symbol
_atom_site_label
_atom_site_fract_x
_atom_site_fract_y
_atom_site_fract_z
Si Si1 0.478491 0.383991 0.837500
Si Si2 0.227915 0.682825 0.773516
Si Si3 0.847429 0.960085 0.138190
Si Si4 0.872473 0.621468 0.486013
Si Si5 0.947683 0.278506 0.536612
Si Si6 0.542023 0.011567 0.313746
Si Si7 0.684818 0.611994 0.608555
O O1 0.500000 0.421410 0.750000
O O2 0.554834 0.494991 0.857586
O O3 0.487810 0.170716 0.841464
O O4 0.386213 0.457630 0.886995
O O5 0.285025 0.691398 0.688645
O O6 0.140366 0.568849 0.778758
O O7 0.295559 0.593987 0.812705
O O8 0.201619 0.859455 0.824756
O O9 0.875096 0.877836 0.055967
O O10 0.912576 0.428549 0.491797
O O11 0.778801 0.610965 0.547277
O O12 0.856660 0.701370 0.411119
O O13 0.948317 0.750117 0.503261
O O14 0.952042 0.367724 0.616222
O O15 0.500000 0.090905 0.250000
#
# Coordination Sequence:
#
# PCOD9276014 Si02
#       7
#     8   8   8   8   8   8   8
#     4  10  20  39  67 100 129 165 211 275 334 386
#     4  11  23  40  67 103 128 165 213 277 332 394
#     4  11  23  39  67  98 131 167 211 272 338 386
#     4  10  24  39  66  88 132 179 218 267 314 376
#     4  11  22  44  60  95 132 175 217 269 321 384
#     4  10  23  40  66  98 133 166 212 274 337 390
#     4  11  21  44  64  95 126 176 221 264 319 393
#
# _framework density 26.393266000000001
#
# number of rings (size 3 to 8) (size 9 to 14) (size 15 to 20)
#    0.000    1.429    4.286    0.857    0.000    2.857 
#    0.000    8.571    0.000    0.000    0.000    0.000 
#    0.000    0.000    0.000    0.000    0.000    0.000 
#
# Total GULP energy -156414.568666 kJ/mol
# GULP energy per Si atom -5586.234595 kJ/mol
# Density = 2.633319 g / cm^3
# Si number density = 26.393266 Si / 1000 Ang^3
#
#
#
# Elastic Constant Matrix: (Units=GPa)
#
#
# Indices 1 2 3 4 5 6 
#
# 1 120.5157 26.0605 53.6795 0.0000 -21.6931 0.0000
# 2 26.0605 88.7415 33.7539 0.0000 -9.2309 0.0000
# 3 53.6795 33.7539 123.8505 0.0000 -15.8415 0.0000
# 4 0.0000 0.0000 0.0000 34.3128 0.0000 5.1147
# 5 -21.6931 -9.2309 -15.8415 0.0000 59.5742 0.0000
# 6 0.0000 0.0000 0.0000 5.1147 0.0000 21.0624
#
#
#
# Elastic Compliance Matrix: (Units=1/GPa)
#
#
# Indices 1 2 3 4 5 6 
#
# 1 0.010855 -0.001395 -0.003982 0.000000 0.002678 0.000000
# 2 -0.001395 0.012818 -0.002795 0.000000 0.000735 0.000000
# 3 -0.003982 -0.002795 0.010684 0.000000 0.000958 0.000000
# 4 0.000000 0.000000 0.000000 0.030238 0.000000 -0.007343
# 5 0.002678 0.000735 0.000958 0.000000 0.018129 0.000000
# 6 0.000000 0.000000 0.000000 -0.007343 0.000000 0.049261
#
#
# Mechanical properties :
#
#
# Convention : Reuss Voigt Hill
#
# Bulk Modulus (GPa) = 55.51258 62.23283 58.87270
# Shear Modulus (GPa) = 32.39733 37.63080 35.01407
#
# Velocity S-wave (km/s) = 3.50735 3.78004 3.64624
# Velocity P-wave (km/s) = 6.12213 6.53313 6.33097
#
# Compressibility (1/GPa) = 0.01801394
#
# Stress axis : x y z
#
# Youngs Moduli (GPa) = 92.12377 78.01687 93.59378
#
# Poissons Ratio (x) = 0.10880 0.37271
# Poissons Ratio (y) = 0.12847 0.26158
# Poissons Ratio (z) = 0.36686 0.21805
#
# Static dielectric constant tensor:
#      x y z
#    x 2.057600 0.000000 0.000340 
#    y 0.000000 2.147600 0.000000 
#    z 0.000340 0.000000 2.112710 
# 
# From -- ./inp_files/273064.got.cif
#   From: 2010.05.17/outbox.cif.g08.bks.cpg/sg15_137_cif.got.tgz:273064.got - 2010.06.03 18:47:42.
