data_PCOD9276769
_publ_section_title
;
Structure prediction by ZEFSAII (Michael W. Deem and Ramdas Pophale) SiO2 
 PCOD9276769
Probable space group: C 2/C
;
_chemical_formula_sum "Si O2"
_cell_formula_units_Z 52
_cell_length_a 27.971069
_cell_length_b 5.188671
_cell_length_c 17.502843
_cell_angle_alpha 90.000000
_cell_angle_beta 110.846869
_cell_angle_gamma 90.000000
_cell_volume 2373.937665
_symmetry_space_group_name_H-M "C 2/C"
_symmetry_group_IT_number 15
_symmetry_cell_setting 'monoclinic'
loop_
_space_group_symop_operation_xyz
x,y,z
-x,y,1/2-z
-x,-y,-z
x,-y,1/2+z
1/2+x,1/2+y,z
1/2-x,1/2+y,1/2-z
1/2-x,1/2-y,-z
1/2+x,1/2-y,1/2+z
loop_
_atom_site_type_symbol
_atom_site_label
_atom_site_fract_x
_atom_site_fract_y
_atom_site_fract_z
Si Si1 0.840554 0.292649 0.681681
Si Si2 0.537694 0.604900 0.119537
Si Si3 0.564388 0.234968 0.995621
Si Si4 0.891383 0.786764 0.639634
Si Si5 0.628777 0.927674 0.149231
Si Si6 0.761455 0.790575 0.804095
Si Si7 0.500000 0.581595 0.250000
O O1 0.858666 0.537470 0.642894
O O2 0.856677 0.356833 0.779180
O O3 0.779136 0.265298 0.650781
O O4 0.866546 0.039522 0.662743
O O5 0.552205 0.442144 0.054033
O O6 0.515041 0.444695 0.178758
O O7 0.590301 0.740027 0.171346
O O8 0.492460 0.806781 0.071848
O O9 0.595511 0.019858 0.058596
O O10 0.600199 0.323372 0.946315
O O11 0.949683 0.756347 0.702316
O O12 0.679926 0.786990 0.150308
O O13 0.743199 0.579154 0.730940
#
# Coordination Sequence:
#
# PCOD9276769 Si02
#       7
#     8   8   8   8   8   8   4
#     4  11  23  43  67  97 129 174 224 282 316 388
#     4  10  21  41  62  98 132 172 223 265 334 397
#     4  10  24  40  63  96 138 180 210 272 338 411
#     4  11  24  42  64  95 139 172 220 269 335 387
#     4  11  22  39  70  92 131 173 226 276 333 393
#     4  10  23  40  68 100 129 169 229 284 332 382
#     4  10  20  40  64  98 124 176 218 270 316 392
#
# _framework density 21.904532
#
# number of rings (size 3 to 8) (size 9 to 14) (size 15 to 20)
#    0.000    1.538    1.538    3.231    6.462    0.615 
#    8.308    1.538    0.000    0.000    0.000    0.000 
#    0.000    0.000    0.000    0.000    0.000    0.000 
#
# Total GULP energy -145066.422353 kJ/mol
# GULP energy per Si atom -5579.477783 kJ/mol
# Density = 2.185468 g / cm^3
# Si number density = 21.904532 Si / 1000 Ang^3
#
#
#
# Elastic Constant Matrix: (Units=GPa)
#
#
# Indices 1 2 3 4 5 6 
#
# 1 206.8579 52.4382 63.6160 0.0000 -17.2029 0.0000
# 2 52.4382 69.8756 23.3621 0.0000 -8.2321 0.0000
# 3 63.6160 23.3621 74.8425 0.0000 -27.4120 0.0000
# 4 0.0000 0.0000 0.0000 19.6483 0.0000 3.4719
# 5 -17.2029 -8.2321 -27.4120 0.0000 40.2464 0.0000
# 6 0.0000 0.0000 0.0000 3.4719 0.0000 27.6538
#
#
#
# Elastic Compliance Matrix: (Units=1/GPa)
#
#
# Indices 1 2 3 4 5 6 
#
# 1 0.007426 -0.003858 -0.005642 0.000000 -0.001458 0.000000
# 2 -0.003858 0.017984 -0.002120 0.000000 0.000586 0.000000
# 3 -0.005642 -0.002120 0.023685 0.000000 0.013287 0.000000
# 4 0.000000 0.000000 0.000000 0.052050 0.000000 -0.006535
# 5 -0.001458 0.000586 0.013287 0.000000 0.033394 0.000000
# 6 0.000000 0.000000 0.000000 -0.006535 0.000000 0.036982
#
#
# Mechanical properties :
#
#
# Convention : Reuss Voigt Hill
#
# Bulk Modulus (GPa) = 38.67587 70.04541 54.36064
# Shear Modulus (GPa) = 24.58471 31.65368 28.11919
#
# Velocity S-wave (km/s) = 3.35379 3.80554 3.58678
# Velocity P-wave (km/s) = 5.71770 7.16634 6.48262
#
# Compressibility (1/GPa) = 0.02585591
#
# Stress axis : x y z
#
# Youngs Moduli (GPa) = 134.65970 55.60377 42.22097
#
# Poissons Ratio (x) = 0.21454 0.23819
# Poissons Ratio (y) = 0.51958 0.08950
# Poissons Ratio (z) = 0.75970 0.11786
#
# Static dielectric constant tensor:
#      x y z
#    x 1.810050 0.000000 -0.004810 
#    y 0.000000 1.805620 0.000000 
#    z -0.004810 0.000000 1.898080 
# 
# From -- ./inp_files/220983.got.cif
#   From: 2010.05.17/outbox.cif.g08.bks.cpg/sg15_111_cif.got.tgz:220983.got - 2010.06.03 18:47:42.
