data_PCOD9276444
_publ_section_title
;
Structure prediction by ZEFSAII (Michael W. Deem and Ramdas Pophale) SiO2 
 PCOD9276444
Probable space group: C 2/C
;
_chemical_formula_sum "Si O2"
_cell_formula_units_Z 64
_cell_length_a 9.288906
_cell_length_b 19.824280
_cell_length_c 22.408266
_cell_angle_alpha 90.000000
_cell_angle_beta 125.351981
_cell_angle_gamma 90.000000
_cell_volume 3365.537090
_symmetry_space_group_name_H-M "C 2/C"
_symmetry_group_IT_number 15
_symmetry_cell_setting 'monoclinic'
loop_
_space_group_symop_operation_xyz
x,y,z
-x,y,1/2-z
-x,-y,-z
x,-y,1/2+z
1/2+x,1/2+y,z
1/2-x,1/2+y,1/2-z
1/2-x,1/2-y,-z
1/2+x,1/2-y,1/2+z
loop_
_atom_site_type_symbol
_atom_site_label
_atom_site_fract_x
_atom_site_fract_y
_atom_site_fract_z
Si Si1 0.752108 0.315496 0.649228
Si Si2 0.572830 0.438107 0.082464
Si Si3 0.801376 0.830055 0.185491
Si Si4 0.642248 0.823113 0.690857
Si Si5 0.786268 0.571845 0.939163
Si Si6 0.529042 0.418794 0.938119
Si Si7 0.332894 0.916404 0.917924
Si Si8 0.708240 0.172087 0.791414
O O1 0.703841 0.237120 0.641681
O O2 0.771643 0.337943 0.723486
O O3 0.602263 0.358054 0.582827
O O4 0.934427 0.322382 0.656904
O O5 0.363650 0.427502 0.045714
O O6 0.586504 0.515499 0.108798
O O7 0.690217 0.380893 0.142013
O O8 0.614225 0.437332 0.022150
O O9 0.794887 0.882602 0.131764
O O10 0.726540 0.856903 0.229010
O O11 0.000000 0.808440 0.250000
O O12 0.683321 0.877479 0.648944
O O13 0.704845 0.747372 0.686812
O O14 0.817512 0.498124 0.917163
O O15 0.972887 0.597881 0.008603
O O16 0.674763 0.397519 0.924971
O O17 0.500000 0.179340 0.750000
#
# Coordination Sequence:
#
# PCOD9276444 Si02
#       8
#     8   8   8   8   8   8   8   8
#     4  10  20  40  62  85 117 157 192 238 291 353
#     4  10  21  43  60  85 120 159 196 240 294 350
#     4  11  20  41  63  85 114 154 202 240 287 353
#     4  10  21  40  61  85 120 153 195 236 294 353
#     4  10  21  41  64  83 120 157 200 240 288 352
#     4  10  23  38  62  88 122 153 195 245 293 345
#     4  10  23  38  60  93 117 155 194 247 293 340
#     4  11  24  39  61  89 118 153 195 249 295 340
#
# _framework density 19.016282
#
# number of rings (size 3 to 8) (size 9 to 14) (size 15 to 20)
#    0.000    1.750    3.750    0.750    5.250    3.000 
#    2.250    3.750    0.000    0.000    0.000    0.000 
#    0.000    0.000    0.000    0.000    0.000    0.000 
#
# Total GULP energy -178326.729192 kJ/mol
# GULP energy per Si atom -5572.710287 kJ/mol
# Density = 1.897300 g / cm^3
# Si number density = 19.016282 Si / 1000 Ang^3
#
#
#
# Elastic Constant Matrix: (Units=GPa)
#
#
# Indices 1 2 3 4 5 6 
#
# 1 101.4919 32.5752 38.1497 0.0000 -13.9778 0.0000
# 2 32.5752 65.3686 35.9170 0.0000 1.8962 0.0000
# 3 38.1497 35.9170 34.5730 0.0000 -12.9619 0.0000
# 4 0.0000 0.0000 0.0000 25.0612 0.0000 8.0427
# 5 -13.9778 1.8962 -12.9619 0.0000 37.3000 0.0000
# 6 0.0000 0.0000 0.0000 8.0427 0.0000 4.4276
#
#
#
# Elastic Compliance Matrix: (Units=1/GPa)
#
#
# Indices 1 2 3 4 5 6 
#
# 1 0.017578 0.006100 -0.026882 0.000000 -0.003065 0.000000
# 2 0.006100 0.050238 -0.067864 0.000000 -0.023851 -0.000001
# 3 -0.026882 -0.067864 0.145572 0.000000 0.043963 0.000001
# 4 0.000000 0.000000 0.000000 0.095678 0.000000 -0.173798
# 5 -0.003065 -0.023851 0.043963 0.000000 0.042151 0.000001
# 6 0.000000 -0.000001 0.000001 -0.173798 0.000001 0.541556
#
#
# Mechanical properties :
#
#
# Convention : Reuss Voigt Hill
#
# Bulk Modulus (GPa) = 27.70460 46.07969 36.89215
# Shear Modulus (GPa) = 4.62066 19.67719 12.14893
#
# Velocity S-wave (km/s) = 1.56049 3.22025 2.53033
# Velocity P-wave (km/s) = 4.22461 6.17341 5.28953
#
# Compressibility (1/GPa) = 0.03609508
#
# Stress axis : x y z
#
# Youngs Moduli (GPa) = 56.88970 19.90527 6.86946
#
# Poissons Ratio (x) = -0.12142 0.18467
# Poissons Ratio (y) = -0.34702 0.46619
# Poissons Ratio (z) = 1.52933 1.35085
#
# Static dielectric constant tensor:
#      x y z
#    x 1.834210 0.000000 0.058590 
#    y 0.000000 1.673520 0.000000 
#    z 0.058590 0.000000 1.664040 
# 
# From -- ./inp_files/233868.got.cif
#   From: 2010.05.17/outbox.cif.g08.bks.cpg/sg15_117_cif.got.tgz:233868.got - 2010.06.03 18:47:42.
