data_PCOD9276303
_publ_section_title
;
Structure prediction by ZEFSAII (Michael W. Deem and Ramdas Pophale) SiO2 
 PCOD9276303
Probable space group: C 2/C
;
_chemical_formula_sum "Si O2"
_cell_formula_units_Z 44
_cell_length_a 12.970260
_cell_length_b 9.807422
_cell_length_c 13.780208
_cell_angle_alpha 90.000000
_cell_angle_beta 111.235135
_cell_angle_gamma 90.000000
_cell_volume 1633.889557
_symmetry_space_group_name_H-M "C 2/C"
_symmetry_group_IT_number 15
_symmetry_cell_setting 'monoclinic'
loop_
_space_group_symop_operation_xyz
x,y,z
-x,y,1/2-z
-x,-y,-z
x,-y,1/2+z
1/2+x,1/2+y,z
1/2-x,1/2+y,1/2-z
1/2-x,1/2-y,-z
1/2+x,1/2-y,1/2+z
loop_
_atom_site_type_symbol
_atom_site_label
_atom_site_fract_x
_atom_site_fract_y
_atom_site_fract_z
Si Si1 0.500000 0.392384 0.250000
Si Si2 0.181810 0.906652 0.824382
Si Si3 0.381266 0.736328 0.532008
Si Si4 0.844771 0.960171 0.450577
Si Si5 0.114495 0.605917 0.828311
Si Si6 0.087110 0.653814 0.046713
O O1 0.403275 0.492319 0.257069
O O2 0.565210 0.300960 0.347386
O O3 0.142946 0.752572 0.789735
O O4 0.314561 0.921051 0.861462
O O5 0.163613 0.935302 0.934462
O O6 0.250000 0.750000 0.500000
O O7 0.401756 0.607314 0.467010
O O8 0.456882 0.861926 0.523580
O O9 0.723997 0.983614 0.363137
O O10 0.884943 0.814804 0.424922
O O11 0.000000 0.549897 0.750000
O O12 0.102279 0.637823 0.937778
#
# Coordination Sequence:
#
# PCOD9276303 Si02
#       6
#     4   8   8   8   8   8
#     4  10  20  40  60  78 112 166 194 232 296 352
#     4   8  15  32  61  85 107 134 191 248 295 339
#     4  11  23  41  56  79 128 166 194 230 283 352
#     4   8  17  34  56  82 110 147 183 239 293 333
#     4   9  15  30  59  91 112 134 186 249 293 334
#     4   9  18  35  61  87 112 146 191 246 293 338
#
# _framework density 26.929603
#
# number of rings (size 3 to 8) (size 9 to 14) (size 15 to 20)
#    0.000    2.909    0.909    2.727    0.000    0.000 
#    8.182    8.182    0.000    0.000    0.000    0.000 
#    0.000    0.000    0.000    0.000    0.000    0.000 
#
# Total GULP energy -123028.403709 kJ/mol
# GULP energy per Si atom -5592.200169 kJ/mol
# Density = 2.686831 g / cm^3
# Si number density = 26.929603 Si / 1000 Ang^3
#
#
#
# Elastic Constant Matrix: (Units=GPa)
#
#
# Indices 1 2 3 4 5 6 
#
# 1 114.3078 1.5242 38.4571 0.0000 49.4124 0.0000
# 2 1.5242 53.8706 21.5866 0.0000 2.6906 0.0000
# 3 38.4571 21.5866 152.6813 0.0000 47.0879 0.0000
# 4 0.0000 0.0000 0.0000 46.2304 0.0000 16.6391
# 5 49.4124 2.6906 47.0879 0.0000 55.3731 0.0000
# 6 0.0000 0.0000 0.0000 16.6391 0.0000 40.3443
#
#
#
# Elastic Compliance Matrix: (Units=1/GPa)
#
#
# Indices 1 2 3 4 5 6 
#
# 1 0.014265 0.000075 0.000438 0.000000 -0.013106 0.000000
# 2 0.000075 0.019829 -0.003395 0.000000 0.001856 0.000000
# 3 0.000438 -0.003395 0.009473 0.000000 -0.008282 0.000000
# 4 0.000000 0.000000 0.000000 0.025401 0.000000 -0.010476
# 5 -0.013106 0.001856 -0.008282 0.000000 0.036707 0.000000
# 6 0.000000 0.000000 0.000000 -0.010476 0.000000 0.029107
#
#
# Mechanical properties :
#
#
# Convention : Reuss Voigt Hill
#
# Bulk Modulus (GPa) = 26.45178 49.33280 37.89229
# Shear Modulus (GPa) = 32.64834 45.67566 39.16200
#
# Velocity S-wave (km/s) = 3.48567 4.12286 3.81758
# Velocity P-wave (km/s) = 5.10331 6.40491 5.79080
#
# Compressibility (1/GPa) = 0.03780465
#
# Stress axis : x y z
#
# Youngs Moduli (GPa) = 70.10045 50.43236 105.55843
#
# Poissons Ratio (x) = -0.00380 -0.04625
# Poissons Ratio (y) = -0.00529 0.35836
# Poissons Ratio (z) = -0.03072 0.17121
#
# Static dielectric constant tensor:
#      x y z
#    x 2.297080 0.000000 -0.026890 
#    y 0.000000 2.120880 0.000000 
#    z -0.026890 0.000000 2.049320 
# 
# From -- ./inp_files/151348.got.cif
#   From: 2010.05.17/outbox.cif.g08.bks.cpg/sg15_76_cif.got.tgz:151348.got - 2010.06.03 18:47:42.
