data_PCOD9276417
_publ_section_title
;
Structure prediction by ZEFSAII (Michael W. Deem and Ramdas Pophale) SiO2 
 PCOD9276417
Probable space group: C 2/C
;
_chemical_formula_sum "Si O2"
_cell_formula_units_Z 36
_cell_length_a 23.934520
_cell_length_b 7.466728
_cell_length_c 8.405060
_cell_angle_alpha 90.000000
_cell_angle_beta 109.344830
_cell_angle_gamma 90.000000
_cell_volume 1417.284817
_symmetry_space_group_name_H-M "C 2/C"
_symmetry_group_IT_number 15
_symmetry_cell_setting 'monoclinic'
loop_
_space_group_symop_operation_xyz
x,y,z
-x,y,1/2-z
-x,-y,-z
x,-y,1/2+z
1/2+x,1/2+y,z
1/2-x,1/2+y,1/2-z
1/2-x,1/2-y,-z
1/2+x,1/2-y,1/2+z
loop_
_atom_site_type_symbol
_atom_site_label
_atom_site_fract_x
_atom_site_fract_y
_atom_site_fract_z
Si Si1 0.774157 0.191885 0.786133
Si Si2 0.662138 0.092304 0.890823
Si Si3 0.925046 0.164272 0.394659
Si Si4 0.000000 0.890495 0.250000
Si Si5 0.172397 0.178878 0.968037
O O1 0.724063 0.116191 0.855365
O O2 0.808934 0.087001 0.678391
O O3 0.729670 0.302268 0.631098
O O4 0.821732 0.306511 0.929626
O O5 0.609763 0.186289 0.741193
O O6 0.651301 0.882265 0.911408
O O7 0.972870 0.221384 0.576044
O O8 0.876547 0.084521 0.472114
O O9 0.955208 0.023572 0.303634
#
# Coordination Sequence:
#
# PCOD9276417 Si02
#       5
#     8   8   8   4   8
#     4   9  19  35  55  97 133 168 209 238 321 385
#     4  10  20  40  61  94 134 172 211 260 312 394
#     4  10  23  45  68  89 124 169 211 281 332 362
#     4  10  24  50  66  94 124 154 240 280 312 400
#     4  10  20  40  61  94 134 172 211 260 312 394
#
# _framework density 25.400682
#
# number of rings (size 3 to 8) (size 9 to 14) (size 15 to 20)
#    0.000    2.222    0.000    2.667    0.000    3.556 
#   60.000    3.333    0.000    0.000    0.000    0.000 
#    0.000    0.000    0.000    0.000    0.000    0.000 
#
# Total GULP energy -100448.422371 kJ/mol
# GULP energy per Si atom -5580.467910 kJ/mol
# Density = 2.534287 g / cm^3
# Si number density = 25.400682 Si / 1000 Ang^3
#
#
#
# Elastic Constant Matrix: (Units=GPa)
#
#
# Indices 1 2 3 4 5 6 
#
# 1 111.0226 32.6697 51.9113 0.0000 -26.7518 0.0000
# 2 32.6697 88.2210 63.0917 0.0000 16.4839 0.0000
# 3 51.9113 63.0917 230.5555 0.0000 22.0265 0.0000
# 4 0.0000 0.0000 0.0000 43.3526 0.0000 11.4201
# 5 -26.7518 16.4839 22.0265 0.0000 76.9101 0.0000
# 6 0.0000 0.0000 0.0000 11.4201 0.0000 18.7232
#
#
#
# Elastic Compliance Matrix: (Units=1/GPa)
#
#
# Indices 1 2 3 4 5 6 
#
# 1 0.012764 -0.004205 -0.002296 0.000000 0.005999 0.000000
# 2 -0.004205 0.015775 -0.002989 0.000000 -0.003988 0.000000
# 3 -0.002296 -0.002989 0.005847 0.000000 -0.001833 0.000000
# 4 0.000000 0.000000 0.000000 0.027482 0.000000 -0.016763
# 5 0.005999 -0.003988 -0.001833 0.000000 0.016468 0.000000
# 6 0.000000 0.000000 0.000000 -0.016763 0.000000 0.063634
#
#
# Mechanical properties :
#
#
# Convention : Reuss Voigt Hill
#
# Bulk Modulus (GPa) = 64.91299 80.57161 72.74230
# Shear Modulus (GPa) = 30.10471 46.60561 38.35516
#
# Velocity S-wave (km/s) = 3.44640 4.28812 3.89009
# Velocity P-wave (km/s) = 6.43801 7.50376 6.99122
#
# Compressibility (1/GPa) = 0.01540524
#
# Stress axis : x y z
#
# Youngs Moduli (GPa) = 78.34749 63.39055 171.01656
#
# Poissons Ratio (x) = 0.26658 0.39267
# Poissons Ratio (y) = 0.32948 0.51118
# Poissons Ratio (z) = 0.17990 0.18948
#
# Static dielectric constant tensor:
#      x y z
#    x 2.149940 0.000000 0.030350 
#    y 0.000000 2.115190 0.000000 
#    z 0.030350 0.000000 2.035720 
# 
# From -- ./inp_files/59767.got.cif
#   From: 2010.05.17/outbox.cif.g08.bks.cpg/sg15_30_cif.got.tgz:59767.got - 2010.06.03 18:47:42.
