data_PCOD9276861
_publ_section_title
;
Structure prediction by ZEFSAII (Michael W. Deem and Ramdas Pophale) SiO2 
 PCOD9276861
Probable space group: C 2/C
;
_chemical_formula_sum "Si O2"
_cell_formula_units_Z 48
_cell_length_a 14.862868
_cell_length_b 17.027197
_cell_length_c 9.844561
_cell_angle_alpha 90.000000
_cell_angle_beta 122.231857
_cell_angle_gamma 90.000000
_cell_volume 2107.460739
_symmetry_space_group_name_H-M "C 2/C"
_symmetry_group_IT_number 15
_symmetry_cell_setting 'monoclinic'
loop_
_space_group_symop_operation_xyz
x,y,z
-x,y,1/2-z
-x,-y,-z
x,-y,1/2+z
1/2+x,1/2+y,z
1/2-x,1/2+y,1/2-z
1/2-x,1/2-y,-z
1/2+x,1/2-y,1/2+z
loop_
_atom_site_type_symbol
_atom_site_label
_atom_site_fract_x
_atom_site_fract_y
_atom_site_fract_z
Si Si1 0.120026 0.015366 0.301674
Si Si2 0.286632 0.893584 0.572568
Si Si3 0.552547 0.367190 0.138508
Si Si4 0.071365 0.476762 0.187218
Si Si5 0.289717 0.166054 0.790793
Si Si6 0.349603 0.671329 0.302281
O O1 0.173000 0.098692 0.315610
O O2 0.000000 0.033057 0.250000
O O3 0.197353 0.957644 0.449427
O O4 0.092743 0.957409 0.153833
O O5 0.325275 0.842043 0.477093
O O6 0.231169 0.839970 0.638434
O O7 0.378438 0.943992 0.713395
O O8 0.500000 0.359870 0.250000
O O9 0.662785 0.323180 0.201420
O O10 0.464969 0.343819 0.960025
O O11 0.165809 0.416065 0.230353
O O12 0.000000 0.441702 0.250000
O O13 0.000000 0.500000 0.000000
O O14 0.337854 0.239293 0.748806
#
# Coordination Sequence:
#
# PCOD9276861 Si02
#       6
#     8   8   8   8   8   8
#     4  10  21  38  66 100 129 180 227 279 350 418
#     4  11  22  44  71  96 138 179 241 280 345 421
#     4  10  20  40  65  97 132 177 232 283 336 421
#     4  12  27  50  74  99 138 195 244 284 339 425
#     4  11  25  43  65 107 137 177 233 297 348 409
#     4  12  23  39  67 100 143 178 225 296 356 405
#
# _framework density 22.776226000000001
#
# number of rings (size 3 to 8) (size 9 to 14) (size 15 to 20)
#    0.000    1.000    6.667    3.000    2.333    2.000 
#    0.000    0.833    0.000    0.000    0.000    0.000 
#    0.000    0.000    0.000    0.000    0.000    0.000 
#
# Total GULP energy -133974.880123 kJ/mol
# GULP energy per Si atom -5582.286672 kJ/mol
# Density = 2.272439 g / cm^3
# Si number density = 22.776226 Si / 1000 Ang^3
#
#
#
# Elastic Constant Matrix: (Units=GPa)
#
#
# Indices 1 2 3 4 5 6 
#
# 1 82.6976 10.3387 8.3458 0.0000 9.8855 0.0000
# 2 10.3387 102.2301 -6.5145 0.0000 9.0355 0.0000
# 3 8.3458 -6.5145 34.3350 0.0000 18.9451 0.0000
# 4 0.0000 0.0000 0.0000 -2.2711 0.0000 11.4110
# 5 9.8855 9.0355 18.9451 0.0000 26.8523 0.0000
# 6 0.0000 0.0000 0.0000 11.4110 0.0000 30.4759
#
#
#
# Elastic Compliance Matrix: (Units=1/GPa)
#
#
# Indices 1 2 3 4 5 6 
#
# 1 0.012773 -0.001099 -0.001511 0.000000 -0.003266 0.000000
# 2 -0.001099 0.011052 0.006865 0.000000 -0.008158 0.000000
# 3 -0.001511 0.006865 0.052009 0.000000 -0.038448 0.000000
# 4 0.000000 0.000000 0.000000 -0.152819 0.000000 0.057220
# 5 -0.003266 -0.008158 -0.038448 0.000000 0.068314 0.000000
# 6 0.000000 0.000000 0.000000 0.057220 0.000000 0.011388
#
#
# Mechanical properties :
#
#
# Convention : Reuss Voigt Hill
#
# Bulk Modulus (GPa) = 11.85637 27.06694 19.46165
# Shear Modulus (GPa) = 224.00555 24.81762 124.41159
#
# Velocity S-wave (km/s) = 9.92795 3.30453 7.39879
# Velocity P-wave (km/s) = 11.68913 5.14486 9.03065
#
# Compressibility (1/GPa) = 0.08434288
#
# Stress axis : x y z
#
# Youngs Moduli (GPa) = 78.29257 90.48535 19.22741
#
# Poissons Ratio (x) = 0.09947 0.02905
# Poissons Ratio (y) = 0.08607 -0.13200
# Poissons Ratio (z) = 0.11830 -0.62120
#
# Static dielectric constant tensor:
#      x y z
#    x 1.945350 0.000000 -0.026150 
#    y 0.000000 1.874140 0.000000 
#    z -0.026150 0.000000 1.936380 
# 
# From -- ./inp_files/97183.got.cif
#   From: 2010.05.17/outbox.cif.g08.bks.cpg/sg15_49_cif.got.tgz:97183.got - 2010.06.03 18:47:42.
