data_PCOD9276199
_publ_section_title
;
Structure prediction by ZEFSAII (Michael W. Deem and Ramdas Pophale) SiO2 
 PCOD9276199
Probable space group: C 2/C
;
_chemical_formula_sum "Si O2"
_cell_formula_units_Z 56
_cell_length_a 17.908398
_cell_length_b 11.096732
_cell_length_c 10.235791
_cell_angle_alpha 90.000000
_cell_angle_beta 104.854147
_cell_angle_gamma 90.000000
_cell_volume 1966.127808
_symmetry_space_group_name_H-M "C 2/C"
_symmetry_group_IT_number 15
_symmetry_cell_setting 'monoclinic'
loop_
_space_group_symop_operation_xyz
x,y,z
-x,y,1/2-z
-x,-y,-z
x,-y,1/2+z
1/2+x,1/2+y,z
1/2-x,1/2+y,1/2-z
1/2-x,1/2-y,-z
1/2+x,1/2-y,1/2+z
loop_
_atom_site_type_symbol
_atom_site_label
_atom_site_fract_x
_atom_site_fract_y
_atom_site_fract_z
Si Si1 0.455106 0.144850 0.972861
Si Si2 0.645590 0.302819 0.222572
Si Si3 0.583328 0.586905 0.944897
Si Si4 0.607365 0.235906 0.925000
Si Si5 0.500000 0.139055 0.250000
Si Si6 0.811768 0.498956 0.445754
Si Si7 0.263752 0.612892 0.336677
Si Si8 0.500000 0.401623 0.750000
O O1 0.524921 0.174756 0.912793
O O2 0.377627 0.078801 0.899544
O O3 0.445812 0.278376 0.034822
O O4 0.477533 0.067939 0.111279
O O5 0.624965 0.401357 0.321284
O O6 0.578645 0.203792 0.230632
O O7 0.730231 0.246045 0.286669
O O8 0.632471 0.318092 0.061454
O O9 0.516344 0.490461 0.879781
O O10 0.650495 0.578260 0.081227
O O11 0.579812 0.321593 0.793214
O O12 0.664791 0.123567 0.967328
O O13 0.758517 0.540592 0.302843
O O14 0.782457 0.418104 0.551262
#
# Coordination Sequence:
#
# PCOD9276199 Si02
#       8
#     8   8   8   8   4   8   8   4
#     4  10  20  39  70  99 125 178 231 301 336 420
#     4   9  18  38  65  94 128 172 234 282 338 417
#     4  11  23  43  72  97 133 185 248 293 346 432
#     4  10  24  40  62  99 142 180 223 297 358 425
#     4   8  13  29  58  92 114 149 211 268 324 380
#     4  11  24  43  69 106 142 180 236 287 368 421
#     4  11  24  42  68 110 137 186 230 298 364 429
#     4  12  27  43  60 100 138 189 231 292 370 410
#
# _framework density 28.482379999999999
#
# number of rings (size 3 to 8) (size 9 to 14) (size 15 to 20)
#    0.000    1.714    2.857    3.429    2.000    5.143 
#    2.571    0.714    0.000    0.000    0.000    0.000 
#    0.000    0.000    0.000    0.000    0.000    0.000 
#
# Total GULP energy -156274.160437 kJ/mol
# GULP energy per Si atom -5581.220016 kJ/mol
# Density = 2.841755 g / cm^3
# Si number density = 28.482380 Si / 1000 Ang^3
#
#
#
# Elastic Constant Matrix: (Units=GPa)
#
#
# Indices 1 2 3 4 5 6 
#
# 1 65.8782 28.9745 39.0700 0.0000 27.4332 0.0000
# 2 28.9745 93.1722 29.9038 0.0000 23.0998 0.0000
# 3 39.0700 29.9038 224.7326 0.0000 45.2330 0.0000
# 4 0.0000 0.0000 0.0000 35.3773 0.0000 16.6686
# 5 27.4332 23.0998 45.2330 0.0000 51.6863 0.0000
# 6 0.0000 0.0000 0.0000 16.6686 0.0000 19.5995
#
#
#
# Elastic Compliance Matrix: (Units=1/GPa)
#
#
# Indices 1 2 3 4 5 6 
#
# 1 0.021271 -0.004114 -0.001515 0.000000 -0.008125 0.000000
# 2 -0.004114 0.012940 -0.000342 0.000000 -0.003300 0.000000
# 3 -0.001515 -0.000342 0.005542 0.000000 -0.003893 0.000000
# 4 0.000000 0.000000 0.000000 0.047167 0.000000 -0.040114
# 5 -0.008125 -0.003300 -0.003893 0.000000 0.028542 0.000000
# 6 0.000000 0.000000 0.000000 -0.040114 0.000000 0.085137
#
#
# Mechanical properties :
#
#
# Convention : Reuss Voigt Hill
#
# Bulk Modulus (GPa) = 35.95786 64.40884 50.18335
# Shear Modulus (GPa) = 22.54153 40.38828 31.46490
#
# Velocity S-wave (km/s) = 2.81627 3.76973 3.32733
# Velocity P-wave (km/s) = 4.81946 6.45062 5.69375
#
# Compressibility (1/GPa) = 0.02781033
#
# Stress axis : x y z
#
# Youngs Moduli (GPa) = 47.01206 77.27807 180.43097
#
# Poissons Ratio (x) = 0.31793 0.27338
# Poissons Ratio (y) = 0.19341 0.06179
# Poissons Ratio (z) = 0.07123 0.02646
#
# Static dielectric constant tensor:
#      x y z
#    x 2.267350 0.000000 0.023320 
#    y 0.000000 2.398120 0.000000 
#    z 0.023320 0.000000 2.257030 
# 
# From -- ./inp_files/117697.got.cif
#   From: 2010.05.17/outbox.cif.g08.bks.cpg/sg15_59_cif.got.tgz:117697.got - 2010.06.03 18:47:42.
