data_PCOD9276259
_publ_section_title
;
Structure prediction by ZEFSAII (Michael W. Deem and Ramdas Pophale) SiO2 
 PCOD9276259
Probable space group: C 2/C
;
_chemical_formula_sum "Si O2"
_cell_formula_units_Z 56
_cell_length_a 11.561386
_cell_length_b 14.392197
_cell_length_c 15.327253
_cell_angle_alpha 90.000000
_cell_angle_beta 96.488343
_cell_angle_gamma 90.000000
_cell_volume 2534.023636
_symmetry_space_group_name_H-M "C 2/C"
_symmetry_group_IT_number 15
_symmetry_cell_setting 'monoclinic'
loop_
_space_group_symop_operation_xyz
x,y,z
-x,y,1/2-z
-x,-y,-z
x,-y,1/2+z
1/2+x,1/2+y,z
1/2-x,1/2+y,1/2-z
1/2-x,1/2-y,-z
1/2+x,1/2-y,1/2+z
loop_
_atom_site_type_symbol
_atom_site_label
_atom_site_fract_x
_atom_site_fract_y
_atom_site_fract_z
Si Si1 0.202367 0.471133 0.564328
Si Si2 0.845117 0.270464 0.930147
Si Si3 0.358638 0.478711 0.753123
Si Si4 0.549390 0.687829 0.162547
Si Si5 0.862646 0.185637 0.757481
Si Si6 0.703414 0.183932 0.572863
Si Si7 0.922696 0.091542 0.004065
O O1 0.121250 0.379173 0.560218
O O2 0.275021 0.472987 0.662160
O O3 0.170944 0.578092 0.546413
O O4 0.292824 0.445989 0.495581
O O5 0.808655 0.253364 0.826223
O O6 0.750000 0.250000 0.000000
O O7 0.936025 0.184311 0.947456
O O8 0.500000 0.478799 0.750000
O O9 0.348426 0.387914 0.812315
O O10 0.341401 0.580523 0.790947
O O11 0.500000 0.720926 0.250000
O O12 0.591642 0.770060 0.106780
O O13 0.451440 0.633446 0.101177
O O14 0.798680 0.186233 0.658815
O O15 0.000000 0.202073 0.750000
O O16 0.750000 0.250000 0.500000
O O17 0.000000 0.000000 0.000000
#
# Coordination Sequence:
#
# PCOD9276259 Si02
#       7
#     8   8   8   8   8   8   8
#     4  10  20  40  57  90 127 161 208 266 318 379
#     4  10  23  38  61  92 130 163 206 265 321 382
#     4   9  16  32  61  92 117 152 205 264 314 368
#     4  11  21  37  64  91 127 167 212 263 317 381
#     4  10  22  38  64  93 126 163 212 265 324 381
#     4  11  25  40  63  93 132 167 213 270 327 385
#     4  11  21  35  67  95 123 157 214 264 323 378
#
# _framework density 22.099242
#
# number of rings (size 3 to 8) (size 9 to 14) (size 15 to 20)
#    0.000    1.714    2.857    2.571    8.000    1.143 
#    0.000    1.429    0.000    0.000    0.000    0.000 
#    0.000    0.000    0.000    0.000    0.000    0.000 
#
# Total GULP energy -155913.025524 kJ/mol
# GULP energy per Si atom -5568.322340 kJ/mol
# Density = 2.204894 g / cm^3
# Si number density = 22.099242 Si / 1000 Ang^3
#
#
#
# Elastic Constant Matrix: (Units=GPa)
#
#
# Indices 1 2 3 4 5 6 
#
# 1 31.5849 31.6818 11.9444 0.0000 -6.1181 0.0000
# 2 31.6818 233.6059 54.1712 0.0000 -19.9378 0.0000
# 3 11.9444 54.1712 97.6640 0.0000 -10.9018 0.0000
# 4 0.0000 0.0000 0.0000 40.8346 0.0000 -1.9780
# 5 -6.1181 -19.9378 -10.9018 0.0000 29.9914 0.0000
# 6 0.0000 0.0000 0.0000 -1.9780 0.0000 31.2048
#
#
#
# Elastic Compliance Matrix: (Units=1/GPa)
#
#
# Indices 1 2 3 4 5 6 
#
# 1 0.037453 -0.004328 -0.001718 0.000000 0.004139 0.000000
# 2 -0.004328 0.005580 -0.002345 0.000000 0.001974 0.000000
# 3 -0.001718 -0.002345 0.012025 0.000000 0.002461 0.000000
# 4 0.000000 0.000000 0.000000 0.024564 0.000000 0.001557
# 5 0.004139 0.001974 0.002461 0.000000 0.036394 0.000000
# 6 0.000000 0.000000 0.000000 0.001557 0.000000 0.032145
#
#
# Mechanical properties :
#
#
# Convention : Reuss Voigt Hill
#
# Bulk Modulus (GPa) = 26.12631 62.04996 44.08813
# Shear Modulus (GPa) = 28.13682 38.07664 33.10673
#
# Velocity S-wave (km/s) = 3.57207 4.15539 3.87472
# Velocity P-wave (km/s) = 5.37223 7.15275 6.32545
#
# Compressibility (1/GPa) = 0.03827560
#
# Stress axis : x y z
#
# Youngs Moduli (GPa) = 26.69999 179.21091 83.16014
#
# Poissons Ratio (x) = 0.77559 0.14288
# Poissons Ratio (y) = 0.11555 0.19504
# Poissons Ratio (z) = 0.04587 0.42032
#
# Static dielectric constant tensor:
#      x y z
#    x 1.875690 0.000000 0.033520 
#    y 0.000000 1.904760 0.000000 
#    z 0.033520 0.000000 1.897160 
# 
# From -- ./inp_files/152617.got.cif
#   From: 2010.05.17/outbox.cif.g08.bks.cpg/sg15_77_cif.got.tgz:152617.got - 2010.06.03 18:47:42.
