data_PCOD9276084
_publ_section_title
;
Structure prediction by ZEFSAII (Michael W. Deem and Ramdas Pophale) SiO2 
 PCOD9276084
Probable space group: C 2/C
;
_chemical_formula_sum "Si O2"
_cell_formula_units_Z 64
_cell_length_a 14.616290
_cell_length_b 14.327892
_cell_length_c 23.037192
_cell_angle_alpha 90.000000
_cell_angle_beta 147.802138
_cell_angle_gamma 90.000000
_cell_volume 2570.689612
_symmetry_space_group_name_H-M "C 2/C"
_symmetry_group_IT_number 15
_symmetry_cell_setting 'monoclinic'
loop_
_space_group_symop_operation_xyz
x,y,z
-x,y,1/2-z
-x,-y,-z
x,-y,1/2+z
1/2+x,1/2+y,z
1/2-x,1/2+y,1/2-z
1/2-x,1/2-y,-z
1/2+x,1/2-y,1/2+z
loop_
_atom_site_type_symbol
_atom_site_label
_atom_site_fract_x
_atom_site_fract_y
_atom_site_fract_z
Si Si1 0.632279 0.355516 0.914405
Si Si2 0.691553 0.100796 0.871773
Si Si3 0.510502 0.562970 0.839375
Si Si4 0.959697 0.162931 0.920388
Si Si5 0.692351 0.119199 0.340891
Si Si6 0.142996 0.387571 0.564790
Si Si7 0.788169 0.401832 0.411511
Si Si8 0.265459 0.674807 0.249696
O O1 0.556531 0.455664 0.854690
O O2 0.739546 0.326764 0.915166
O O3 0.465376 0.299118 0.846364
O O4 0.760794 0.373872 0.036674
O O5 0.500000 0.130811 0.750000
O O6 0.837558 0.143582 0.908974
O O7 0.698370 0.988517 0.865253
O O8 0.461250 0.573709 0.879201
O O9 0.356970 0.593191 0.715435
O O10 0.681555 0.620854 0.912408
O O11 0.868122 0.241239 0.832155
O O12 0.156927 0.173329 0.044865
O O13 0.500000 0.154619 0.250000
O O14 0.734257 0.128983 0.295113
O O15 0.139923 0.492796 0.538821
O O16 0.218000 0.390754 0.669738
O O17 0.951307 0.350496 0.471896
#
# Coordination Sequence:
#
# PCOD9276084 Si02
#       8
#     8   8   8   8   8   8   8   8
#     4  11  21  45  73 101 138 185 236 304 351 419
#     4  11  25  45  77 107 135 183 251 300 354 414
#     4  10  20  39  67  98 139 176 234 294 352 408
#     4  12  26  45  69 104 143 188 233 292 354 428
#     4  11  26  48  77 103 138 190 242 301 357 418
#     4  10  22  37  68 101 135 176 235 285 357 419
#     4   9  20  36  63 103 131 174 228 297 353 405
#     4  12  26  44  69  98 146 191 229 283 367 429
#
# _framework density 24.896044
#
# number of rings (size 3 to 8) (size 9 to 14) (size 15 to 20)
#    0.000    1.250    3.750    1.500    3.500    4.500 
#    2.250    1.250    0.000    0.000    0.000    0.000 
#    0.000    0.000    0.000    0.000    0.000    0.000 
#
# Total GULP energy -179006.288916 kJ/mol
# GULP energy per Si atom -5593.946529 kJ/mol
# Density = 2.483938 g / cm^3
# Si number density = 24.896044 Si / 1000 Ang^3
#
#
#
# Elastic Constant Matrix: (Units=GPa)
#
#
# Indices 1 2 3 4 5 6 
#
# 1 159.2281 10.6983 67.6030 0.0000 17.0410 0.0000
# 2 10.6983 51.6463 13.6307 0.0001 13.4145 0.0000
# 3 67.6030 13.6307 177.6692 0.0005 30.6633 0.0001
# 4 0.0000 0.0001 0.0005 18.7760 0.0001 4.3927
# 5 17.0410 13.4145 30.6633 0.0001 50.6691 0.0000
# 6 0.0000 0.0000 0.0001 4.3927 0.0000 26.5373
#
#
#
# Elastic Compliance Matrix: (Units=1/GPa)
#
#
# Indices 1 2 3 4 5 6 
#
# 1 0.007547 -0.000662 -0.002694 0.000000 -0.000732 0.000000
# 2 -0.000662 0.020933 -0.000487 0.000000 -0.005025 0.000000
# 3 -0.002694 -0.000487 0.007272 0.000000 -0.003366 0.000000
# 4 0.000000 0.000000 0.000000 0.055405 0.000000 -0.009171
# 5 -0.000732 -0.005025 -0.003366 0.000000 0.023349 0.000000
# 6 0.000000 0.000000 0.000000 -0.009171 0.000000 0.039201
#
#
# Mechanical properties :
#
#
# Convention : Reuss Voigt Hill
#
# Bulk Modulus (GPa) = 35.63092 63.60083 49.61587
# Shear Modulus (GPa) = 29.28268 38.97060 34.12664
#
# Velocity S-wave (km/s) = 3.43330 3.96072 3.70640
# Velocity P-wave (km/s) = 5.48267 6.82044 6.18781
#
# Compressibility (1/GPa) = 0.02806551
#
# Stress axis : x y z
#
# Youngs Moduli (GPa) = 132.50034 47.77093 137.51554
#
# Poissons Ratio (x) = 0.03162 0.37054
# Poissons Ratio (y) = 0.08771 0.06696
# Poissons Ratio (z) = 0.35702 0.02326
#
# Static dielectric constant tensor:
#      x y z
#    x 2.025460 0.000000 0.059160 
#    y 0.000000 2.051610 0.000000 
#    z 0.059160 0.000000 1.957500 
# 
# From -- ./inp_files/274853.got.cif
#   From: 2010.05.17/outbox.cif.g08.bks.cpg/sg15_138_cif.got.tgz:274853.got - 2010.06.03 18:47:42.
