data_PCOD9276431
_publ_section_title
;
Structure prediction by ZEFSAII (Michael W. Deem and Ramdas Pophale) SiO2 
 PCOD9276431
Probable space group: C 2/C
;
_chemical_formula_sum "Si O2"
_cell_formula_units_Z 40
_cell_length_a 11.354148
_cell_length_b 31.646525
_cell_length_c 5.390433
_cell_angle_alpha 90.000000
_cell_angle_beta 110.138687
_cell_angle_gamma 90.000000
_cell_volume 1818.469371
_symmetry_space_group_name_H-M "C 2/C"
_symmetry_group_IT_number 15
_symmetry_cell_setting 'monoclinic'
loop_
_space_group_symop_operation_xyz
x,y,z
-x,y,1/2-z
-x,-y,-z
x,-y,1/2+z
1/2+x,1/2+y,z
1/2-x,1/2+y,1/2-z
1/2-x,1/2-y,-z
1/2+x,1/2-y,1/2+z
loop_
_atom_site_type_symbol
_atom_site_label
_atom_site_fract_x
_atom_site_fract_y
_atom_site_fract_z
Si Si1 0.643415 0.482326 0.592729
Si Si2 0.603160 0.786234 0.138600
Si Si3 0.278753 0.612987 0.393082
Si Si4 0.000000 0.636992 0.250000
Si Si5 0.663278 0.335463 0.059980
Si Si6 0.000000 0.219721 0.750000
O O1 0.500000 0.500000 0.500000
O O2 0.702811 0.504175 0.395878
O O3 0.655308 0.432430 0.569408
O O4 0.500000 0.769123 0.250000
O O5 0.729638 0.799474 0.362791
O O6 0.545362 0.830189 0.993515
O O7 0.607300 0.751750 0.923417
O O8 0.125800 0.611707 0.267477
O O9 0.309920 0.634630 0.680056
O O10 0.326205 0.639190 0.187799
O O11 0.540547 0.310705 0.057479
#
# Coordination Sequence:
#
# PCOD9276431 Si02
#       6
#     8   8   8   4   8   4
#     4  10  22  41  65  93 124 163 196 241 318 386
#     4  10  20  40  62  83 126 172 215 265 315 363
#     4  11  23  42  67  91 126 164 213 262 305 382
#     4   9  20  40  62  92 116 170 218 260 306 360
#     4  11  25  41  62  96 123 171 217 262 315 363
#     4  11  26  36  58  92 132 168 214 272 316 374
#
# _framework density 21.996521000000001
#
# number of rings (size 3 to 8) (size 9 to 14) (size 15 to 20)
#    0.000    1.600    2.000    1.800    2.800    5.600 
#    0.000    1.000    0.000    0.000    0.000    0.000 
#    0.000    0.000    0.000    0.000    0.000    0.000 
#
# Total GULP energy -111686.156757 kJ/mol
# GULP energy per Si atom -5584.307838 kJ/mol
# Density = 2.194646 g / cm^3
# Si number density = 21.996521 Si / 1000 Ang^3
#
#
#
# Elastic Constant Matrix: (Units=GPa)
#
#
# Indices 1 2 3 4 5 6 
#
# 1 95.9480 67.5903 33.2133 0.0000 -5.7345 0.0000
# 2 67.5903 137.9605 47.1599 0.0000 -5.8947 0.0000
# 3 33.2133 47.1599 101.7252 0.0000 -36.6200 0.0000
# 4 0.0000 0.0000 0.0000 34.1048 0.0000 -7.4964
# 5 -5.7345 -5.8947 -36.6200 0.0000 37.2432 0.0000
# 6 0.0000 0.0000 0.0000 -7.4964 0.0000 -1.4410
#
#
#
# Elastic Compliance Matrix: (Units=1/GPa)
#
#
# Indices 1 2 3 4 5 6 
#
# 1 0.016241 -0.007218 -0.002272 0.000000 -0.000875 0.000000
# 2 -0.007218 0.012217 -0.004661 0.000000 -0.003761 0.000000
# 3 -0.002272 -0.004661 0.019104 0.000000 0.017696 0.000000
# 4 0.000000 0.000000 0.000000 0.013680 0.000000 -0.071163
# 5 -0.000875 -0.003761 0.017696 0.000000 0.043521 0.000000
# 6 0.000000 0.000000 0.000000 -0.071163 0.000000 -0.323756
#
#
# Mechanical properties :
#
#
# Convention : Reuss Voigt Hill
#
# Bulk Modulus (GPa) = 51.91954 70.17342 61.04648
# Shear Modulus (GPa) = -27.13376 26.49275 -0.32050
#
# Velocity S-wave (km/s) = -3.51600 3.47422 -0.38213
# Velocity P-wave (km/s) = 2.67801 6.93289 5.25532
#
# Compressibility (1/GPa) = 0.01926057
#
# Stress axis : x y z
#
# Youngs Moduli (GPa) = 61.57335 81.85144 52.34621
#
# Poissons Ratio (x) = 0.59078 0.11891
# Poissons Ratio (y) = 0.44442 0.24400
# Poissons Ratio (z) = 0.13987 0.38153
#
# Static dielectric constant tensor:
#      x y z
#    x 1.899480 0.000000 -0.064960 
#    y 0.000000 1.766910 0.000000 
#    z -0.064960 0.000000 1.934690 
# 
# From -- ./inp_files/4988.got.cif
#   From: 2010.05.17/outbox.cif.g08.bks.cpg/sg15_3_cif.got.tgz:4988.got - 2010.06.03 18:47:42.
