data_PCOD9276172
_publ_section_title
;
Structure prediction by ZEFSAII (Michael W. Deem and Ramdas Pophale) SiO2 
 PCOD9276172
Probable space group: C 2/C
;
_chemical_formula_sum "Si O2"
_cell_formula_units_Z 40
_cell_length_a 5.077895
_cell_length_b 25.806658
_cell_length_c 15.974578
_cell_angle_alpha 90.000000
_cell_angle_beta 135.345067
_cell_angle_gamma 90.000000
_cell_volume 1471.290737
_symmetry_space_group_name_H-M "C 2/C"
_symmetry_group_IT_number 15
_symmetry_cell_setting 'monoclinic'
loop_
_space_group_symop_operation_xyz
x,y,z
-x,y,1/2-z
-x,-y,-z
x,-y,1/2+z
1/2+x,1/2+y,z
1/2-x,1/2+y,1/2-z
1/2-x,1/2-y,-z
1/2+x,1/2-y,1/2+z
loop_
_atom_site_type_symbol
_atom_site_label
_atom_site_fract_x
_atom_site_fract_y
_atom_site_fract_z
Si Si1 0.191292 0.944749 0.879095
Si Si2 0.482273 0.408106 0.061017
Si Si3 0.000000 0.000000 0.000000
Si Si4 0.073330 0.265619 0.167971
Si Si5 0.500000 0.635133 0.750000
Si Si6 0.412871 0.342588 0.885172
O O1 0.000000 0.956774 0.750000
O O2 0.960964 0.972584 0.897993
O O3 0.164975 0.883894 0.893613
O O4 0.643356 0.952656 0.971885
O O5 0.517679 0.391949 0.164111
O O6 0.786925 0.446840 0.092375
O O7 0.393858 0.361316 0.977347
O O8 0.500000 0.249991 0.250000
O O9 0.131237 0.326673 0.161324
O O10 0.900917 0.214331 0.085172
O O11 0.000000 0.262614 0.250000
O O12 0.000000 0.349408 0.750000
#
# Coordination Sequence:
#
# PCOD9276172 Si02
#       6
#     8   8   4   8   4   8
#     4  11  22  41  70  98 135 174 239 299 362 423
#     4  11  24  46  66 103 135 191 228 303 353 436
#     4  10  26  42  64 102 128 184 232 294 368 424
#     4   9  21  41  68 101 144 187 237 285 351 426
#     4  10  26  44  66  98 154 192 236 280 372 428
#     4  10  20  39  69  99 136 173 239 290 352 412
#
# _framework density 27.187011999999999
#
# number of rings (size 3 to 8) (size 9 to 14) (size 15 to 20)
#    0.600    1.200    2.000    1.200    4.200    4.000 
#    3.600    2.000    0.000    0.000    0.000    0.000 
#    0.000    0.000    0.000    0.000    0.000    0.000 
#
# Total GULP energy -111337.349657 kJ/mol
# GULP energy per Si atom -5566.867483 kJ/mol
# Density = 2.712513 g / cm^3
# Si number density = 27.187012 Si / 1000 Ang^3
#
#
#
# Elastic Constant Matrix: (Units=GPa)
#
#
# Indices 1 2 3 4 5 6 
#
# 1 125.4722 27.0410 57.4203 0.0000 -33.7572 0.0000
# 2 27.0410 181.5784 94.3442 0.0000 -43.7278 0.0000
# 3 57.4203 94.3442 176.2081 0.0000 -53.4321 0.0000
# 4 0.0000 0.0000 0.0000 17.4161 0.0000 -10.7520
# 5 -33.7572 -43.7278 -53.4321 0.0000 74.1210 0.0000
# 6 0.0000 0.0000 0.0000 -10.7520 0.0000 59.7760
#
#
#
# Elastic Compliance Matrix: (Units=1/GPa)
#
#
# Indices 1 2 3 4 5 6 
#
# 1 0.009838 0.000617 -0.002645 0.000000 0.002937 0.000000
# 2 0.000617 0.007905 -0.003755 0.000000 0.002238 0.000000
# 3 -0.002645 -0.003755 0.009612 0.000000 0.003509 0.000000
# 4 0.000000 0.000000 0.000000 0.064591 0.000000 0.011618
# 5 0.002937 0.002238 0.003509 0.000000 0.018679 0.000000
# 6 0.000000 0.000000 0.000000 0.011618 0.000000 0.018819
#
#
# Mechanical properties :
#
#
# Convention : Reuss Voigt Hill
#
# Bulk Modulus (GPa) = 63.34108 93.42997 78.38552
# Shear Modulus (GPa) = 34.18270 50.55949 42.37109
#
# Velocity S-wave (km/s) = 3.54971 4.31709 3.95207
# Velocity P-wave (km/s) = 6.33636 7.70000 7.05122
#
# Compressibility (1/GPa) = 0.01578754
#
# Stress axis : x y z
#
# Youngs Moduli (GPa) = 101.64828 126.49651 104.04088
#
# Poissons Ratio (x) = -0.07802 0.27522
# Poissons Ratio (y) = -0.06269 0.39068
# Poissons Ratio (z) = 0.26889 0.47500
#
# Static dielectric constant tensor:
#      x y z
#    x 2.484720 0.000000 0.123370 
#    y 0.000000 2.500680 0.000000 
#    z 0.123370 0.000000 2.234870 
# 
# From -- ./inp_files/130557.got.cif
#   From: 2010.05.17/outbox.cif.g08.bks.cpg/sg15_66_cif.got.tgz:130557.got - 2010.06.03 18:47:42.
