data_PCOD9276538
_publ_section_title
;
Structure prediction by ZEFSAII (Michael W. Deem and Ramdas Pophale) SiO2 
 PCOD9276538
Probable space group: C 2/C
;
_chemical_formula_sum "Si O2"
_cell_formula_units_Z 56
_cell_length_a 9.056186
_cell_length_b 13.773961
_cell_length_c 23.192237
_cell_angle_alpha 90.000000
_cell_angle_beta 67.590872
_cell_angle_gamma 90.000000
_cell_volume 2674.526089
_symmetry_space_group_name_H-M "C 2/C"
_symmetry_group_IT_number 15
_symmetry_cell_setting 'monoclinic'
loop_
_space_group_symop_operation_xyz
x,y,z
-x,y,1/2-z
-x,-y,-z
x,-y,1/2+z
1/2+x,1/2+y,z
1/2-x,1/2+y,1/2-z
1/2-x,1/2-y,-z
1/2+x,1/2-y,1/2+z
loop_
_atom_site_type_symbol
_atom_site_label
_atom_site_fract_x
_atom_site_fract_y
_atom_site_fract_z
Si Si1 0.620168 0.128823 0.914051
Si Si2 0.306402 0.566958 0.351342
Si Si3 0.351213 0.190482 0.030222
Si Si4 0.576620 0.579034 0.796618
Si Si5 0.067338 0.230424 0.595461
Si Si6 0.569724 0.117972 0.795603
Si Si7 0.969170 0.401833 0.688906
O O1 0.752957 0.190782 0.928240
O O2 0.583829 0.170479 0.854918
O O3 0.703253 0.027079 0.886503
O O4 0.462694 0.119104 0.975805
O O5 0.271364 0.643047 0.406502
O O6 0.483650 0.523301 0.318668
O O7 0.214116 0.603749 0.307690
O O8 0.477403 0.252400 0.048991
O O9 0.250000 0.250000 0.000000
O O10 0.500000 0.622834 0.750000
O O11 0.535522 0.650193 0.854590
O O12 0.760662 0.580271 0.753600
O O13 0.060629 0.331546 0.631541
O O14 0.500000 0.171998 0.750000
O O15 0.479093 0.015453 0.821361
O O16 0.000000 0.370966 0.750000
#
# Coordination Sequence:
#
# PCOD9276538 Si02
#       7
#     8   8   8   8   8   8   8
#     4  10  20  40  63  82 113 167 200 232 293 361
#     4   9  20  39  62  83 112 166 190 241 295 350
#     4  11  24  41  56  87 126 149 205 253 294 339
#     4  11  18  38  64  87 120 152 199 239 302 367
#     4  10  21  36  62  85 116 161 198 243 294 352
#     4  10  21  36  61  89 120 153 197 248 298 360
#     4   9  17  32  54  89 119 144 187 242 292 350
#
# _framework density 20.938289999999999
#
# number of rings (size 3 to 8) (size 9 to 14) (size 15 to 20)
#    0.000    2.000    4.286    1.286    2.000    0.000 
#    5.143    2.857    0.000    0.000    0.000    0.000 
#    0.000    0.000    0.000    0.000    0.000    0.000 
#
# Total GULP energy -156028.073577 kJ/mol
# GULP energy per Si atom -5572.431199 kJ/mol
# Density = 2.089063 g / cm^3
# Si number density = 20.938290 Si / 1000 Ang^3
#
#
#
# Elastic Constant Matrix: (Units=GPa)
#
#
# Indices 1 2 3 4 5 6 
#
# 1 87.3792 24.7681 55.7469 0.0000 27.0758 0.0000
# 2 24.7681 33.4196 16.0772 0.0000 4.5730 0.0000
# 3 55.7469 16.0772 107.2018 0.0000 19.8166 0.0000
# 4 0.0000 0.0000 0.0000 43.6336 0.0000 33.0225
# 5 27.0758 4.5730 19.8166 0.0000 47.8187 0.0000
# 6 0.0000 0.0000 0.0000 33.0225 0.0000 119.8157
#
#
#
# Elastic Compliance Matrix: (Units=1/GPa)
#
#
# Indices 1 2 3 4 5 6 
#
# 1 0.022751 -0.011614 -0.008570 0.000000 -0.008220 0.000000
# 2 -0.011614 0.038238 -0.000254 0.000000 0.003025 0.000000
# 3 -0.008570 -0.000254 0.013993 0.000000 -0.000922 0.000000
# 4 0.000000 0.000000 0.000000 0.028958 0.000000 -0.007981
# 5 -0.008220 0.003025 -0.000922 0.000000 0.025660 0.000000
# 6 0.000000 0.000000 0.000000 -0.007981 0.000000 0.010546
#
#
# Mechanical properties :
#
#
# Convention : Reuss Voigt Hill
#
# Bulk Modulus (GPa) = 29.31969 46.79833 38.05901
# Shear Modulus (GPa) = 25.98883 51.01418 38.50150
#
# Velocity S-wave (km/s) = 3.52690 4.94135 4.29279
# Velocity P-wave (km/s) = 5.53342 7.41317 6.54117
#
# Compressibility (1/GPa) = 0.03410677
#
# Stress axis : x y z
#
# Youngs Moduli (GPa) = 43.95472 26.15178 71.46341
#
# Poissons Ratio (x) = 0.30372 0.61241
# Poissons Ratio (y) = 0.51048 0.01818
# Poissons Ratio (z) = 0.37667 0.00665
#
# Static dielectric constant tensor:
#      x y z
#    x 1.811690 0.000000 0.001310 
#    y 0.000000 1.788990 0.000000 
#    z 0.001310 0.000000 1.804070 
# 
# From -- ./inp_files/264198.got.cif
#   From: 2010.05.17/outbox.cif.g08.bks.cpg/sg15_133_cif.got.tgz:264198.got - 2010.06.03 18:47:42.
