data_PCOD9276406
_publ_section_title
;
Structure prediction by ZEFSAII (Michael W. Deem and Ramdas Pophale) SiO2 
 PCOD9276406
Probable space group: C 2/C
;
_chemical_formula_sum "Si O2"
_cell_formula_units_Z 44
_cell_length_a 11.692269
_cell_length_b 21.581467
_cell_length_c 10.167303
_cell_angle_alpha 90.000000
_cell_angle_beta 58.192979
_cell_angle_gamma 90.000000
_cell_volume 2180.301841
_symmetry_space_group_name_H-M "C 2/C"
_symmetry_group_IT_number 15
_symmetry_cell_setting 'monoclinic'
loop_
_space_group_symop_operation_xyz
x,y,z
-x,y,1/2-z
-x,-y,-z
x,-y,1/2+z
1/2+x,1/2+y,z
1/2-x,1/2+y,1/2-z
1/2-x,1/2-y,-z
1/2+x,1/2-y,1/2+z
loop_
_atom_site_type_symbol
_atom_site_label
_atom_site_fract_x
_atom_site_fract_y
_atom_site_fract_z
Si Si1 0.296906 0.884314 0.203769
Si Si2 0.228804 0.444612 0.553148
Si Si3 0.179878 0.883526 0.749730
Si Si4 0.658809 0.244942 0.687307
Si Si5 0.500000 0.959994 0.250000
Si Si6 0.384000 0.561012 0.473690
O O1 0.297736 0.813766 0.252119
O O2 0.428971 0.917478 0.183857
O O3 0.175994 0.920314 0.350151
O O4 0.283403 0.896766 0.057978
O O5 0.225575 0.411843 0.696670
O O6 0.362211 0.488092 0.463889
O O7 0.109905 0.494599 0.620225
O O8 0.175634 0.809720 0.753341
O O9 0.204958 0.904590 0.584864
O O10 0.032776 0.912557 0.868230
O O11 0.500000 0.238860 0.750000
O O12 0.750000 0.250000 0.500000
#
# Coordination Sequence:
#
# PCOD9276406 Si02
#       6
#     8   8   8   8   4   8
#     4  11  22  39  65  90 121 165 207 251 307 363
#     4  11  24  37  61  95 128 153 203 262 315 359
#     4  11  22  40  63  91 125 161 204 253 309 362
#     4  12  23  43  67  88 122 167 218 253 298 383
#     4  10  22  40  60  90 126 164 202 246 308 386
#     4  10  20  40  61  91 123 167 198 245 308 381
#
# _framework density 20.180693000000002
#
# number of rings (size 3 to 8) (size 9 to 14) (size 15 to 20)
#    0.000    1.091    4.545    3.273    0.000    5.818 
#    0.000    0.000    0.000    2.182    0.000    0.000 
#    0.000    0.000    0.000    0.000    0.000    0.000 
#
# Total GULP energy -122929.013403 kJ/mol
# GULP energy per Si atom -5587.682427 kJ/mol
# Density = 2.013476 g / cm^3
# Si number density = 20.180693 Si / 1000 Ang^3
#
#
#
# Elastic Constant Matrix: (Units=GPa)
#
#
# Indices 1 2 3 4 5 6 
#
# 1 43.1232 28.2984 20.0697 0.0000 -9.6188 0.0000
# 2 28.2984 146.3769 22.4719 0.0000 12.2143 0.0000
# 3 20.0697 22.4719 63.6033 0.0000 6.0778 0.0000
# 4 0.0000 0.0000 0.0000 60.2919 0.0000 -19.1538
# 5 -9.6188 12.2143 6.0778 0.0000 35.5918 0.0000
# 6 0.0000 0.0000 0.0000 -19.1538 0.0000 6.1309
#
#
#
# Elastic Compliance Matrix: (Units=1/GPa)
#
#
# Indices 1 2 3 4 5 6 
#
# 1 0.035025 -0.006337 -0.010090 0.000000 0.013363 0.000000
# 2 -0.006337 0.008524 -0.000578 0.000000 -0.004539 0.000000
# 3 -0.010090 -0.000578 0.019673 0.000000 -0.005888 0.000000
# 4 0.000000 0.000000 0.000000 2.210651 0.000000 6.906421
# 5 0.013363 -0.004539 -0.005888 0.000000 0.034271 0.000000
# 6 0.000000 0.000000 0.000000 6.906421 0.000000 21.739851
#
#
# Mechanical properties :
#
#
# Convention : Reuss Voigt Hill
#
# Bulk Modulus (GPa) = 34.23314 43.86484 39.04899
# Shear Modulus (GPa) = 0.20754 32.55380 16.38067
#
# Velocity S-wave (km/s) = 0.32104 4.02072 2.85213
# Velocity P-wave (km/s) = 4.13975 6.58317 5.49889
#
# Compressibility (1/GPa) = 0.02921146
#
# Stress axis : x y z
#
# Youngs Moduli (GPa) = 28.55133 117.31038 50.83059
#
# Poissons Ratio (x) = 0.74343 0.51287
# Poissons Ratio (y) = 0.18094 0.02940
# Poissons Ratio (z) = 0.28808 0.06784
#
# Static dielectric constant tensor:
#      x y z
#    x 1.761070 0.000000 -0.025010 
#    y 0.000000 1.699720 0.000000 
#    z -0.025010 0.000000 1.713010 
# 
# From -- ./inp_files/30729.got.cif
#   From: 2010.05.17/outbox.cif.g08.bks.cpg/sg15_16_cif.got.tgz:30729.got - 2010.06.03 18:47:42.
