data_PCOD9276279
_publ_section_title
;
Structure prediction by ZEFSAII (Michael W. Deem and Ramdas Pophale) SiO2 
 PCOD9276279
Probable space group: C 2/C
;
_chemical_formula_sum "Si O2"
_cell_formula_units_Z 52
_cell_length_a 8.373053
_cell_length_b 13.739713
_cell_length_c 24.827926
_cell_angle_alpha 90.000000
_cell_angle_beta 56.189885
_cell_angle_gamma 90.000000
_cell_volume 2373.250137
_symmetry_space_group_name_H-M "C 2/C"
_symmetry_group_IT_number 15
_symmetry_cell_setting 'monoclinic'
loop_
_space_group_symop_operation_xyz
x,y,z
-x,y,1/2-z
-x,-y,-z
x,-y,1/2+z
1/2+x,1/2+y,z
1/2-x,1/2+y,1/2-z
1/2-x,1/2-y,-z
1/2+x,1/2-y,1/2+z
loop_
_atom_site_type_symbol
_atom_site_label
_atom_site_fract_x
_atom_site_fract_y
_atom_site_fract_z
Si Si1 0.574354 0.970687 0.571035
Si Si2 0.865631 0.990310 0.354030
Si Si3 0.984550 0.698716 0.354656
Si Si4 0.094398 0.796271 0.677689
Si Si5 0.240848 0.317175 0.054389
Si Si6 0.615793 0.359231 0.054155
Si Si7 0.500000 0.668372 0.750000
O O1 0.579244 0.913179 0.627819
O O2 0.697157 0.902328 0.508820
O O3 0.355983 0.984546 0.592938
O O4 0.669813 0.075301 0.554456
O O5 0.957262 0.940317 0.389266
O O6 0.864734 0.910689 0.305949
O O7 0.969348 0.091977 0.320214
O O8 0.181074 0.698494 0.351054
O O9 0.040713 0.754591 0.289909
O O10 0.840711 0.768050 0.414966
O O11 0.090611 0.731361 0.625090
O O12 0.000000 0.756787 0.750000
O O13 0.449418 0.331654 0.043335
O O14 0.250000 0.250000 0.000000
#
# Coordination Sequence:
#
# PCOD9276279 Si02
#       7
#     8   8   8   8   8   8   4
#     4  11  22  39  62  98 121 166 222 266 332 391
#     4  10  21  39  67  92 121 173 217 266 329 393
#     4   9  22  39  60  88 125 165 208 262 332 383
#     4  10  21  41  61  89 127 172 214 261 329 397
#     4  11  25  42  63  96 135 174 218 269 342 393
#     4  10  21  42  64  91 133 163 208 279 329 400
#     4  10  20  40  58  90 124 162 216 268 320 394
#
# _framework density 21.910881
#
# number of rings (size 3 to 8) (size 9 to 14) (size 15 to 20)
#    0.000    1.846    0.769    2.308    2.154    4.923 
#    4.154    0.000    0.000    0.000    0.000    0.000 
#    0.000    0.000    0.000    0.000    0.000    0.000 
#
# Total GULP energy -144917.130758 kJ/mol
# GULP energy per Si atom -5573.735798 kJ/mol
# Density = 2.186101 g / cm^3
# Si number density = 21.910881 Si / 1000 Ang^3
#
#
#
# Elastic Constant Matrix: (Units=GPa)
#
#
# Indices 1 2 3 4 5 6 
#
# 1 51.6558 24.9002 29.4698 -0.0001 10.8973 0.0000
# 2 24.9002 104.4680 42.5794 0.0000 14.1715 0.0000
# 3 29.4698 42.5794 117.1297 -0.0001 10.8548 0.0000
# 4 -0.0001 0.0000 -0.0001 35.8713 0.0001 -3.4311
# 5 10.8973 14.1715 10.8548 0.0001 25.7154 -0.0001
# 6 0.0000 0.0000 0.0000 -3.4311 -0.0001 21.4851
#
#
#
# Elastic Compliance Matrix: (Units=1/GPa)
#
#
# Indices 1 2 3 4 5 6 
#
# 1 0.024898 -0.003175 -0.004469 0.000000 -0.006915 0.000000
# 2 -0.003175 0.012203 -0.003267 0.000000 -0.004001 0.000000
# 3 -0.004469 -0.003267 0.010935 0.000000 -0.000922 0.000000
# 4 0.000000 0.000000 0.000000 0.028310 0.000000 0.004521
# 5 -0.006915 -0.004001 -0.000922 0.000000 0.044411 0.000000
# 6 0.000000 0.000000 0.000000 0.004521 0.000000 0.047266
#
#
# Mechanical properties :
#
#
# Convention : Reuss Voigt Hill
#
# Bulk Modulus (GPa) = 38.14699 51.90581 45.02640
# Shear Modulus (GPa) = 25.17843 28.36795 26.77319
#
# Velocity S-wave (km/s) = 3.39356 3.60209 3.49938
# Velocity P-wave (km/s) = 5.72738 6.40633 6.07634
#
# Compressibility (1/GPa) = 0.02621439
#
# Stress axis : x y z
#
# Youngs Moduli (GPa) = 40.16413 81.94600 91.45003
#
# Poissons Ratio (x) = 0.26016 0.40872
# Poissons Ratio (y) = 0.12751 0.29873
# Poissons Ratio (z) = 0.17951 0.26768
#
# Static dielectric constant tensor:
#      x y z
#    x 1.784910 0.000000 0.006150 
#    y 0.000000 1.857930 0.000000 
#    z 0.006150 0.000000 1.871130 
# 
# From -- ./inp_files/264181.got.cif
#   From: 2010.05.17/outbox.cif.g08.bks.cpg/sg15_133_cif.got.tgz:264181.got - 2010.06.03 18:47:42.
