data_PCOD9276963
_publ_section_title
;
Structure prediction by ZEFSAII (Michael W. Deem and Ramdas Pophale) SiO2 
 PCOD9276963
Probable space group: C 2/C
;
_chemical_formula_sum "Si O2"
_cell_formula_units_Z 52
_cell_length_a 17.560753
_cell_length_b 11.334044
_cell_length_c 15.226984
_cell_angle_alpha 90.000000
_cell_angle_beta 124.119251
_cell_angle_gamma 90.000000
_cell_volume 2509.025474
_symmetry_space_group_name_H-M "C 2/C"
_symmetry_group_IT_number 15
_symmetry_cell_setting 'monoclinic'
loop_
_space_group_symop_operation_xyz
x,y,z
-x,y,1/2-z
-x,-y,-z
x,-y,1/2+z
1/2+x,1/2+y,z
1/2-x,1/2+y,1/2-z
1/2-x,1/2-y,-z
1/2+x,1/2-y,1/2+z
loop_
_atom_site_type_symbol
_atom_site_label
_atom_site_fract_x
_atom_site_fract_y
_atom_site_fract_z
Si Si1 0.288846 0.061100 0.221232
Si Si2 0.286709 0.984263 0.920685
Si Si3 0.101408 0.052898 0.580879
Si Si4 0.341553 0.683717 0.703943
Si Si5 0.000000 0.043481 0.750000
Si Si6 0.601854 0.085932 0.842098
Si Si7 0.385761 0.357230 0.595434
O O1 0.310697 0.062427 0.339183
O O2 0.327143 0.179144 0.202448
O O3 0.178915 0.048901 0.138695
O O4 0.333284 0.952341 0.196781
O O5 0.198078 0.914431 0.903373
O O6 0.252585 0.117065 0.880185
O O7 0.362530 0.973184 0.044837
O O8 0.115890 0.127749 0.679104
O O9 0.131574 0.136471 0.519323
O O10 0.000000 0.000000 0.500000
O O11 0.415812 0.633355 0.684729
O O12 0.025798 0.943396 0.838383
O O13 0.500000 0.048213 0.750000
O O14 0.601766 0.225806 0.861501
#
# Coordination Sequence:
#
# PCOD9276963 Si02
#       7
#     8   8   8   8   4   8   8
#     4  11  26  44  66 104 140 178 228 282 353 407
#     4  10  24  44  69  94 133 180 225 282 342 403
#     4  11  22  44  73 104 129 181 237 284 339 411
#     4  10  23  42  67  97 141 176 225 285 343 413
#     4  10  20  40  66  96 128 178 228 276 328 406
#     4  12  26  43  69  98 137 181 225 285 348 404
#     4  11  21  43  70  96 129 173 238 284 327 407
#
# _framework density 20.725178
#
# number of rings (size 3 to 8) (size 9 to 14) (size 15 to 20)
#    0.000    1.231    3.846    1.385    5.385    1.231 
#    2.769    0.000    0.000    0.000    0.000    0.000 
#    0.000    0.000    0.000    0.000    0.000    0.000 
#
# Total GULP energy -144927.233555 kJ/mol
# GULP energy per Si atom -5574.124367 kJ/mol
# Density = 2.067801 g / cm^3
# Si number density = 20.725178 Si / 1000 Ang^3
#
#
#
# Elastic Constant Matrix: (Units=GPa)
#
#
# Indices 1 2 3 4 5 6 
#
# 1 55.8904 18.9140 41.5309 0.0000 5.6130 0.0000
# 2 18.9140 71.8704 13.1265 0.0000 2.5965 0.0000
# 3 41.5309 13.1265 130.1607 0.0000 8.6818 0.0000
# 4 0.0000 0.0000 0.0000 12.2383 0.0000 -1.1072
# 5 5.6130 2.5965 8.6818 0.0000 35.6120 0.0000
# 6 0.0000 0.0000 0.0000 -1.1072 0.0000 22.1200
#
#
#
# Elastic Compliance Matrix: (Units=1/GPa)
#
#
# Indices 1 2 3 4 5 6 
#
# 1 0.025388 -0.005255 -0.007450 0.000000 -0.001802 0.000000
# 2 -0.005255 0.015280 0.000158 0.000000 -0.000324 0.000000
# 3 -0.007450 0.000158 0.010131 0.000000 -0.001307 0.000000
# 4 0.000000 0.000000 0.000000 0.082082 0.000000 0.004109
# 5 -0.001802 -0.000324 -0.001307 0.000000 0.028707 0.000000
# 6 0.000000 0.000000 0.000000 0.004109 0.000000 0.045414
#
#
# Mechanical properties :
#
#
# Convention : Reuss Voigt Hill
#
# Bulk Modulus (GPa) = 38.90668 45.00717 41.95692
# Shear Modulus (GPa) = 20.77568 26.28406 23.52987
#
# Velocity S-wave (km/s) = 3.16956 3.56507 3.37312
# Velocity P-wave (km/s) = 5.67523 6.22171 5.95474
#
# Compressibility (1/GPa) = 0.02570253
#
# Stress axis : x y z
#
# Youngs Moduli (GPa) = 39.38883 65.44532 98.70354
#
# Poissons Ratio (x) = 0.34394 0.73538
# Poissons Ratio (y) = 0.20701 -0.01555
# Poissons Ratio (z) = 0.29346 -0.01031
#
# Static dielectric constant tensor:
#      x y z
#    x 1.847280 0.000000 -0.018140 
#    y 0.000000 1.701980 0.000000 
#    z -0.018140 0.000000 1.810020 
# 
# From -- ./inp_files/161082.got.cif
#   From: 2010.05.17/outbox.cif.g08.bks.cpg/sg15_81_cif.got.tgz:161082.got - 2010.06.03 18:47:42.
