data_PCOD9276343
_publ_section_title
;
Structure prediction by ZEFSAII (Michael W. Deem and Ramdas Pophale) SiO2 
 PCOD9276343
Probable space group: C 2/C
;
_chemical_formula_sum "Si O2"
_cell_formula_units_Z 64
_cell_length_a 18.724872
_cell_length_b 7.716441
_cell_length_c 27.508247
_cell_angle_alpha 90.000000
_cell_angle_beta 135.650574
_cell_angle_gamma 90.000000
_cell_volume 2778.408686
_symmetry_space_group_name_H-M "C 2/C"
_symmetry_group_IT_number 15
_symmetry_cell_setting 'monoclinic'
loop_
_space_group_symop_operation_xyz
x,y,z
-x,y,1/2-z
-x,-y,-z
x,-y,1/2+z
1/2+x,1/2+y,z
1/2-x,1/2+y,1/2-z
1/2-x,1/2-y,-z
1/2+x,1/2-y,1/2+z
loop_
_atom_site_type_symbol
_atom_site_label
_atom_site_fract_x
_atom_site_fract_y
_atom_site_fract_z
Si Si1 0.274707 0.979517 0.752830
Si Si2 0.947306 0.271587 0.156479
Si Si3 0.532670 0.932040 0.099271
Si Si4 0.677864 0.323311 0.617302
Si Si5 0.349865 0.158772 0.993494
Si Si6 0.831449 0.011127 0.036507
Si Si7 0.761727 0.159663 0.906779
Si Si8 0.170702 0.823820 0.779741
O O1 0.371219 0.955268 0.835157
O O2 0.290735 0.159140 0.732898
O O3 0.255280 0.844964 0.699802
O O4 0.181445 0.974164 0.745454
O O5 0.858625 0.382610 0.140175
O O6 0.982085 0.371404 0.124978
O O7 0.053128 0.216629 0.233143
O O8 0.893805 0.098684 0.109846
O O9 0.578049 0.767754 0.091951
O O10 0.449379 0.045335 0.031243
O O11 0.705431 0.211081 0.583549
O O12 0.676121 0.516848 0.593770
O O13 0.274241 0.056286 0.992087
O O14 0.378490 0.340216 0.034060
O O15 0.812019 0.152957 0.984327
O O16 0.741885 0.324185 0.862242
#
# Coordination Sequence:
#
# PCOD9276343 Si02
#       8
#     8   8   8   8   8   8   8   8
#     4  10  20  40  60  91 124 171 204 272 328 391
#     4  11  21  40  66  93 125 173 218 267 327 403
#     4  11  22  40  68  92 126 176 220 272 339 403
#     4  10  21  42  63  94 131 166 216 275 328 400
#     4  10  22  41  67  95 130 173 220 276 340 394
#     4  10  22  41  65  94 133 171 218 279 332 394
#     4  10  21  39  66  92 127 174 212 269 333 392
#     4  10  22  39  64  87 131 164 220 264 330 395
#
# _framework density 23.034766000000001
#
# number of rings (size 3 to 8) (size 9 to 14) (size 15 to 20)
#    0.000    1.750    3.750    1.125    0.000    2.000 
#    2.250    1.250    0.000    0.000    0.000    0.000 
#    0.000    0.000    0.000    0.000    0.000    0.000 
#
# Total GULP energy -178371.343036 kJ/mol
# GULP energy per Si atom -5574.104470 kJ/mol
# Density = 2.298234 g / cm^3
# Si number density = 23.034766 Si / 1000 Ang^3
#
#
#
# Elastic Constant Matrix: (Units=GPa)
#
#
# Indices 1 2 3 4 5 6 
#
# 1 93.4823 10.7590 1.4004 0.0000 -6.1480 0.0000
# 2 10.7590 60.0893 10.1254 0.0000 -0.0458 0.0000
# 3 1.4004 10.1254 27.7204 0.0000 -11.3790 -0.0001
# 4 0.0000 0.0000 0.0000 29.1359 0.0000 5.1964
# 5 -6.1480 -0.0458 -11.3790 0.0000 35.1643 0.0000
# 6 0.0000 0.0000 -0.0001 5.1964 0.0000 28.0267
#
#
#
# Elastic Compliance Matrix: (Units=1/GPa)
#
#
# Indices 1 2 3 4 5 6 
#
# 1 0.011083 -0.002183 0.001190 0.000000 0.002320 0.000000
# 2 -0.002183 0.018339 -0.007767 0.000000 -0.002871 0.000000
# 3 0.001190 -0.007767 0.044897 0.000000 0.014726 0.000000
# 4 0.000000 0.000000 0.000000 0.035496 0.000000 -0.006581
# 5 0.002320 -0.002871 0.014726 0.000000 0.033605 0.000000
# 6 0.000000 0.000000 0.000000 -0.006581 0.000000 0.036900
#
#
# Mechanical properties :
#
#
# Convention : Reuss Voigt Hill
#
# Bulk Modulus (GPa) = 17.60618 25.09573 21.35096
# Shear Modulus (GPa) = 23.06548 29.06586 26.06567
#
# Velocity S-wave (km/s) = 3.16782 3.55607 3.36755
# Velocity P-wave (km/s) = 4.58694 5.27060 4.94061
#
# Compressibility (1/GPa) = 0.05679823
#
# Stress axis : x y z
#
# Youngs Moduli (GPa) = 90.22639 54.52739 22.27344
#
# Poissons Ratio (x) = 0.11904 -0.02650
# Poissons Ratio (y) = 0.19698 0.17300
# Poissons Ratio (z) = -0.10736 0.42352
#
# Static dielectric constant tensor:
#      x y z
#    x 1.903510 0.000000 0.000640 
#    y 0.000000 1.913810 0.000000 
#    z 0.000640 0.000000 1.892320 
# 
# From -- ./inp_files/315765.got.cif
#   From: 2010.05.17/outbox.cif.g08.bks.cpg/sg15_158_cif.got.tgz:315765.got - 2010.06.03 18:47:42.
