data_PCOD9276379
_publ_section_title
;
Structure prediction by ZEFSAII (Michael W. Deem and Ramdas Pophale) SiO2 
 PCOD9276379
Probable space group: C 2/C
;
_chemical_formula_sum "Si O2"
_cell_formula_units_Z 64
_cell_length_a 22.820628
_cell_length_b 18.174226
_cell_length_c 14.024507
_cell_angle_alpha 90.000000
_cell_angle_beta 28.893577
_cell_angle_gamma 90.000000
_cell_volume 2810.501869
_symmetry_space_group_name_H-M "C 2/C"
_symmetry_group_IT_number 15
_symmetry_cell_setting 'monoclinic'
loop_
_space_group_symop_operation_xyz
x,y,z
-x,y,1/2-z
-x,-y,-z
x,-y,1/2+z
1/2+x,1/2+y,z
1/2-x,1/2+y,1/2-z
1/2-x,1/2-y,-z
1/2+x,1/2-y,1/2+z
loop_
_atom_site_type_symbol
_atom_site_label
_atom_site_fract_x
_atom_site_fract_y
_atom_site_fract_z
Si Si1 0.066430 0.181842 0.382511
Si Si2 0.661028 0.414071 0.307572
Si Si3 0.282114 0.204230 0.769275
Si Si4 0.130338 0.512173 0.067851
Si Si5 0.046122 0.699118 0.582219
Si Si6 0.603991 0.945586 0.896764
Si Si7 0.743489 0.602783 0.000692
Si Si8 0.127772 0.014008 0.533896
O O1 0.101707 0.243640 0.408925
O O2 0.953205 0.131147 0.566393
O O3 0.032117 0.230708 0.339084
O O4 0.177920 0.132475 0.188204
O O5 0.749479 0.360478 0.243133
O O6 0.616567 0.477704 0.443893
O O7 0.746480 0.442371 0.102002
O O8 0.284044 0.166268 0.870683
O O9 0.174639 0.262742 0.916207
O O10 0.146337 0.449256 0.123863
O O11 0.000000 0.551247 0.250000
O O12 0.133295 0.476544 0.959522
O O13 0.058171 0.637042 0.483469
O O14 0.000000 0.670894 0.750000
O O15 0.738651 0.946634 0.655886
O O16 0.500000 0.000000 0.000000
O O17 0.648127 0.554721 0.076500
O O18 0.000000 0.049634 0.750000
#
# Coordination Sequence:
#
# PCOD9276379 Si02
#       8
#     8   8   8   8   8   8   8   8
#     4  11  21  35  62  90 130 160 206 260 320 393
#     4   9  22  40  58  90 125 172 206 253 329 383
#     4  10  22  37  60  93 129 165 202 265 324 392
#     4  11  24  40  62  91 129 168 214 267 313 390
#     4  11  23  38  61  94 130 168 209 260 329 391
#     4  11  25  39  60  91 128 169 219 265 319 390
#     4  11  21  37  64  97 125 166 204 257 343 380
#     4  10  20  40  61  84 130 171 204 262 321 386
#
# _framework density 22.771735
#
# number of rings (size 3 to 8) (size 9 to 14) (size 15 to 20)
#    0.000    1.500    2.500    2.250    8.750    0.500 
#    2.250    0.000    0.000    3.750    0.000    0.000 
#    0.000    0.000    0.000    0.000    0.000    0.000 
#
# Total GULP energy -178616.679337 kJ/mol
# GULP energy per Si atom -5581.771229 kJ/mol
# Density = 2.271991 g / cm^3
# Si number density = 22.771735 Si / 1000 Ang^3
#
#
#
# Elastic Constant Matrix: (Units=GPa)
#
#
# Indices 1 2 3 4 5 6 
#
# 1 55.7750 21.0181 19.6228 -0.0001 -7.3953 0.0000
# 2 21.0181 81.6259 50.5401 -0.0001 -5.8174 0.0001
# 3 19.6228 50.5401 131.4350 -0.0003 -18.5842 0.0002
# 4 -0.0001 -0.0001 -0.0003 31.1981 0.0001 -14.0022
# 5 -7.3953 -5.8174 -18.5842 0.0001 27.3118 -0.0001
# 6 0.0000 0.0001 0.0002 -14.0022 -0.0001 35.3294
#
#
#
# Elastic Compliance Matrix: (Units=1/GPa)
#
#
# Indices 1 2 3 4 5 6 
#
# 1 0.020429 -0.004512 -0.000740 0.000000 0.004067 0.000000
# 2 -0.004512 0.017094 -0.006149 0.000000 -0.001765 0.000000
# 3 -0.000740 -0.006149 0.010920 0.000000 0.005921 0.000000
# 4 0.000000 0.000000 0.000000 0.038988 0.000000 0.015452
# 5 0.004067 -0.001765 0.005921 0.000000 0.041368 0.000000
# 6 0.000000 0.000000 0.000000 0.015452 0.000000 0.034429
#
#
# Mechanical properties :
#
#
# Convention : Reuss Voigt Hill
#
# Bulk Modulus (GPa) = 38.99948 50.13312 44.56630
# Shear Modulus (GPa) = 25.69636 30.61151 28.15394
#
# Velocity S-wave (km/s) = 3.36286 3.67042 3.52000
# Velocity P-wave (km/s) = 5.67819 6.32660 6.01115
#
# Compressibility (1/GPa) = 0.02564137
#
# Stress axis : x y z
#
# Youngs Moduli (GPa) = 48.94954 58.49835 91.57163
#
# Poissons Ratio (x) = 0.26397 0.06774
# Poissons Ratio (y) = 0.22088 0.56308
# Poissons Ratio (z) = 0.03621 0.35971
#
# Static dielectric constant tensor:
#      x y z
#    x 1.872810 0.000000 -0.049730 
#    y 0.000000 1.877880 0.000000 
#    z -0.049730 0.000000 1.913770 
# 
# From -- ./inp_files/174207.got.cif
#   From: 2010.05.17/outbox.cif.g08.bks.cpg/sg15_88_cif.got.tgz:174207.got - 2010.06.03 18:47:42.
