data_PCOD9276842
_publ_section_title
;
Structure prediction by ZEFSAII (Michael W. Deem and Ramdas Pophale) SiO2 
 PCOD9276842
Probable space group: C 2/C
;
_chemical_formula_sum "Si O2"
_cell_formula_units_Z 64
_cell_length_a 25.147497
_cell_length_b 14.403193
_cell_length_c 12.227036
_cell_angle_alpha 90.000000
_cell_angle_beta 136.931476
_cell_angle_gamma 90.000000
_cell_volume 3024.227030
_symmetry_space_group_name_H-M "C 2/C"
_symmetry_group_IT_number 15
_symmetry_cell_setting 'monoclinic'
loop_
_space_group_symop_operation_xyz
x,y,z
-x,y,1/2-z
-x,-y,-z
x,-y,1/2+z
1/2+x,1/2+y,z
1/2-x,1/2+y,1/2-z
1/2-x,1/2-y,-z
1/2+x,1/2-y,1/2+z
loop_
_atom_site_type_symbol
_atom_site_label
_atom_site_fract_x
_atom_site_fract_y
_atom_site_fract_z
Si Si1 0.992494 0.686382 0.362643
Si Si2 0.323230 0.630986 0.128631
Si Si3 0.147543 0.622967 0.191199
Si Si4 0.651256 0.822850 0.446980
Si Si5 0.079457 0.438008 0.140622
Si Si6 0.452229 0.393265 0.309967
Si Si7 0.695740 0.552654 0.039656
Si Si8 0.900826 0.008041 0.413546
O O1 0.913028 0.659456 0.308718
O O2 0.993068 0.796013 0.361906
O O3 0.000000 0.649362 0.250000
O O4 0.064334 0.648626 0.540356
O O5 0.357029 0.716527 0.108310
O O6 0.388184 0.591016 0.307610
O O7 0.244227 0.661322 0.071544
O O8 0.296498 0.539368 0.022106
O O9 0.141269 0.510404 0.187192
O O10 0.237593 0.630308 0.359014
O O11 0.130469 0.659954 0.043343
O O12 0.603948 0.895052 0.295444
O O13 0.000000 0.500000 0.000000
O O14 0.410790 0.412697 0.363742
O O15 0.518586 0.471768 0.403857
O O16 0.383548 0.400165 0.120726
O O17 0.675246 0.513310 0.127779
#
# Coordination Sequence:
#
# PCOD9276842 Si02
#       8
#     8   8   8   8   8   8   8   8
#     4  11  25  44  64  98 131 174 228 272 338 401
#     4  10  22  37  65  98 129 172 216 279 328 394
#     4  11  25  41  69  94 135 177 221 285 332 403
#     4  11  22  42  64  97 133 168 228 271 333 398
#     4  10  24  42  67  91 128 175 216 274 335 389
#     4  10  23  40  64  93 133 175 215 271 332 396
#     4  11  21  40  65 101 132 175 219 272 342 399
#     4  10  20  40  65  93 133 174 219 269 339 397
#
# _framework density 21.162431999999999
#
# number of rings (size 3 to 8) (size 9 to 14) (size 15 to 20)
#    0.000    1.500    2.500    1.875    5.250    2.000 
#    0.000    0.000    0.000    0.000    0.000    0.000 
#    0.000    0.000    0.000    0.000    0.000    0.000 
#
# Total GULP energy -178257.986064 kJ/mol
# GULP energy per Si atom -5570.562065 kJ/mol
# Density = 2.111427 g / cm^3
# Si number density = 21.162432 Si / 1000 Ang^3
#
#
#
# Elastic Constant Matrix: (Units=GPa)
#
#
# Indices 1 2 3 4 5 6 
#
# 1 104.3216 3.2417 29.7269 0.0000 -25.0580 0.0000
# 2 3.2417 49.6195 10.4205 0.0000 -12.4033 0.0000
# 3 29.7269 10.4205 106.7098 0.0000 -11.7633 0.0000
# 4 0.0000 0.0000 0.0000 19.7288 0.0000 4.1080
# 5 -25.0580 -12.4033 -11.7633 0.0000 29.6636 0.0000
# 6 0.0000 0.0000 0.0000 4.1080 0.0000 24.1765
#
#
#
# Elastic Compliance Matrix: (Units=1/GPa)
#
#
# Indices 1 2 3 4 5 6 
#
# 1 0.012861 0.002419 -0.002625 0.000000 0.010835 0.000000
# 2 0.002419 0.023112 -0.001715 0.000000 0.011027 0.000000
# 3 -0.002625 -0.001715 0.010401 0.000000 0.001190 0.000000
# 4 0.000000 0.000000 0.000000 0.052547 0.000000 -0.008929
# 5 0.010835 0.011027 0.001190 0.000000 0.047947 0.000000
# 6 0.000000 0.000000 0.000000 -0.008929 0.000000 0.042880
#
#
# Mechanical properties :
#
#
# Convention : Reuss Voigt Hill
#
# Bulk Modulus (GPa) = 23.51114 38.60324 31.05719
# Shear Modulus (GPa) = 24.06550 29.19788 26.63169
#
# Velocity S-wave (km/s) = 3.37587 3.71847 3.55130
# Velocity P-wave (km/s) = 5.13121 6.05945 5.61455
#
# Compressibility (1/GPa) = 0.04253304
#
# Stress axis : x y z
#
# Youngs Moduli (GPa) = 77.75427 43.26745 96.14378
#
# Poissons Ratio (x) = -0.10468 0.25234
# Poissons Ratio (y) = -0.18812 0.16492
# Poissons Ratio (z) = 0.20408 0.07422
#
# Static dielectric constant tensor:
#      x y z
#    x 1.863340 0.000000 0.017910 
#    y 0.000000 1.794520 0.000000 
#    z 0.017910 0.000000 1.894700 
# 
# From -- ./inp_files/123532.got.cif
#   From: 2010.05.17/outbox.cif.g08.bks.cpg/sg15_62_cif.got.tgz:123532.got - 2010.06.03 18:47:42.
