data_PCOD9276811
_publ_section_title
;
Structure prediction by ZEFSAII (Michael W. Deem and Ramdas Pophale) SiO2 
 PCOD9276811
Probable space group: C 2/C
;
_chemical_formula_sum "Si O2"
_cell_formula_units_Z 44
_cell_length_a 14.133253
_cell_length_b 9.362841
_cell_length_c 15.920081
_cell_angle_alpha 90.000000
_cell_angle_beta 64.442976
_cell_angle_gamma 90.000000
_cell_volume 1900.539385
_symmetry_space_group_name_H-M "C 2/C"
_symmetry_group_IT_number 15
_symmetry_cell_setting 'monoclinic'
loop_
_space_group_symop_operation_xyz
x,y,z
-x,y,1/2-z
-x,-y,-z
x,-y,1/2+z
1/2+x,1/2+y,z
1/2-x,1/2+y,1/2-z
1/2-x,1/2-y,-z
1/2+x,1/2-y,1/2+z
loop_
_atom_site_type_symbol
_atom_site_label
_atom_site_fract_x
_atom_site_fract_y
_atom_site_fract_z
Si Si1 0.844988 0.498273 0.267978
Si Si2 0.545745 0.066131 0.593622
Si Si3 0.670660 0.340097 0.249718
Si Si4 0.000000 0.030988 0.250000
Si Si5 0.234822 0.598453 0.965416
Si Si6 0.857897 0.837951 0.943766
O O1 0.895673 0.457748 0.338006
O O2 0.741365 0.402946 0.296677
O O3 0.831232 0.669057 0.260194
O O4 0.927413 0.458879 0.163776
O O5 0.615462 0.956952 0.513553
O O6 0.560929 0.224326 0.549499
O O7 0.559224 0.422336 0.290902
O O8 0.725615 0.395882 0.144179
O O9 0.916246 0.129356 0.331662
O O10 0.315794 0.493448 0.983335
O O11 0.250000 0.750000 0.000000
O O12 0.750000 0.750000 0.000000
#
# Coordination Sequence:
#
# PCOD9276811 Si02
#       6
#     8   8   8   4   8   8
#     4  11  24  39  64  97 125 167 217 273 314 392
#     4  10  21  41  67  87 130 169 213 258 333 379
#     4  11  25  39  65  94 128 166 221 266 325 385
#     4  10  20  40  68  86 128 180 212 260 326 398
#     4  10  20  40  65  90 127 172 213 260 323 395
#     4   9  20  35  65  96 119 165 217 264 313 382
#
# _framework density 23.151322
#
# number of rings (size 3 to 8) (size 9 to 14) (size 15 to 20)
#    0.000    1.818    1.818    2.182   10.182    0.727 
#    0.000    0.000    0.000   12.000    0.000    0.000 
#    0.000    0.000    0.000    0.000    0.000    0.000 
#
# Total GULP energy -122562.706903 kJ/mol
# GULP energy per Si atom -5571.032132 kJ/mol
# Density = 2.309863 g / cm^3
# Si number density = 23.151322 Si / 1000 Ang^3
#
#
#
# Elastic Constant Matrix: (Units=GPa)
#
#
# Indices 1 2 3 4 5 6 
#
# 1 85.9583 30.6064 5.8112 0.0000 -2.3843 0.0000
# 2 30.6064 159.8672 1.3351 0.0000 -13.1456 0.0000
# 3 5.8112 1.3351 77.1475 0.0000 -20.1496 0.0000
# 4 0.0000 0.0000 0.0000 17.9551 0.0000 -11.6900
# 5 -2.3843 -13.1456 -20.1496 0.0000 40.6825 0.0000
# 6 0.0000 0.0000 0.0000 -11.6900 0.0000 21.9657
#
#
#
# Elastic Compliance Matrix: (Units=1/GPa)
#
#
# Indices 1 2 3 4 5 6 
#
# 1 0.012559 -0.002443 -0.001054 0.000000 -0.000575 0.000000
# 2 -0.002443 0.006918 0.000701 0.000000 0.002440 0.000000
# 3 -0.001054 0.000701 0.015015 0.000000 0.007602 0.000000
# 4 0.000000 0.000000 0.000000 0.085224 0.000000 0.045356
# 5 -0.000575 0.002440 0.007602 0.000000 0.029100 0.000000
# 6 0.000000 0.000000 0.000000 0.045356 0.000000 0.069664
#
#
# Mechanical properties :
#
#
# Convention : Reuss Voigt Hill
#
# Bulk Modulus (GPa) = 34.60165 44.27537 39.43851
# Shear Modulus (GPa) = 21.39466 35.13534 28.26500
#
# Velocity S-wave (km/s) = 3.04324 3.89991 3.49790
# Velocity P-wave (km/s) = 5.22749 6.28052 5.77805
#
# Compressibility (1/GPa) = 0.02890036
#
# Stress axis : x y z
#
# Youngs Moduli (GPa) = 79.62639 144.55857 66.60073
#
# Poissons Ratio (x) = 0.35313 0.07020
# Poissons Ratio (y) = 0.19451 -0.04672
# Poissons Ratio (z) = 0.08393 -0.10140
#
# Static dielectric constant tensor:
#      x y z
#    x 2.100890 0.000000 0.109300 
#    y 0.000000 1.944550 0.000000 
#    z 0.109300 0.000000 1.949090 
# 
# From -- ./inp_files/202555.got.cif
#   From: 2010.05.17/outbox.cif.g08.bks.cpg/sg15_102_cif.got.tgz:202555.got - 2010.06.03 18:47:42.
