data_PCOD9276726
_publ_section_title
;
Structure prediction by ZEFSAII (Michael W. Deem and Ramdas Pophale) SiO2 
 PCOD9276726
Probable space group: C 2/C
;
_chemical_formula_sum "Si O2"
_cell_formula_units_Z 64
_cell_length_a 14.109989
_cell_length_b 7.375407
_cell_length_c 26.123029
_cell_angle_alpha 90.000000
_cell_angle_beta 103.421568
_cell_angle_gamma 90.000000
_cell_volume 2644.295660
_symmetry_space_group_name_H-M "C 2/C"
_symmetry_group_IT_number 15
_symmetry_cell_setting 'monoclinic'
loop_
_space_group_symop_operation_xyz
x,y,z
-x,y,1/2-z
-x,-y,-z
x,-y,1/2+z
1/2+x,1/2+y,z
1/2-x,1/2+y,1/2-z
1/2-x,1/2-y,-z
1/2+x,1/2-y,1/2+z
loop_
_atom_site_type_symbol
_atom_site_label
_atom_site_fract_x
_atom_site_fract_y
_atom_site_fract_z
Si Si1 0.325797 0.547347 0.692355
Si Si2 0.101957 0.253738 0.235141
Si Si3 0.123497 0.938730 0.586044
Si Si4 0.239672 0.030841 0.001717
Si Si5 0.624742 0.077596 0.628917
Si Si6 0.300041 0.019614 0.176588
Si Si7 0.091810 0.984305 0.403406
Si Si8 0.415044 0.947033 0.588327
O O1 0.360292 0.447403 0.747496
O O2 0.220960 0.476052 0.659445
O O3 0.315058 0.766298 0.693205
O O4 0.400048 0.490110 0.656403
O O5 0.095259 0.307491 0.175644
O O6 0.173814 0.392743 0.273081
O O7 0.000000 0.280021 0.250000
O O8 0.161548 0.012142 0.537050
O O9 0.151841 0.725343 0.589901
O O10 0.193459 0.014205 0.639437
O O11 0.009636 0.952746 0.584502
O O12 0.346328 0.973103 0.035153
O O13 0.250000 0.250000 0.000000
O O14 0.189389 0.950683 0.944868
O O15 0.529300 0.978686 0.598335
O O16 0.372813 0.985092 0.137596
O O17 0.095841 0.768454 0.411293
#
# Coordination Sequence:
#
# PCOD9276726 Si02
#       8
#     8   8   8   8   8   8   8   8
#     4  10  25  42  60  93 130 164 212 265 321 377
#     4  12  24  41  64  89 124 165 218 266 316 383
#     4  10  21  38  64  90 129 162 210 264 314 380
#     4   9  18  38  67  91 126 170 211 254 331 394
#     4  11  23  40  59  90 126 166 209 264 323 378
#     4   9  21  42  60  87 127 167 205 262 320 377
#     4  10  20  40  64  93 124 171 210 263 323 383
#     4   9  19  38  62  88 125 168 203 263 318 385
#
# _framework density 24.203043000000001
#
# number of rings (size 3 to 8) (size 9 to 14) (size 15 to 20)
#    0.000    2.000    1.250    3.375    5.250    0.500 
#    2.250    6.250    0.000    0.000    0.000    0.000 
#    0.000    0.000    0.000    0.000    0.000    0.000 
#
# Total GULP energy -178894.496374 kJ/mol
# GULP energy per Si atom -5590.453012 kJ/mol
# Density = 2.414796 g / cm^3
# Si number density = 24.203043 Si / 1000 Ang^3
#
#
#
# Elastic Constant Matrix: (Units=GPa)
#
#
# Indices 1 2 3 4 5 6 
#
# 1 102.4519 -15.3037 4.3019 0.0000 8.5382 0.0000
# 2 -15.3037 47.7643 15.0255 0.0000 1.5823 0.0000
# 3 4.3019 15.0255 81.9929 0.0000 3.0335 0.0000
# 4 0.0000 0.0000 0.0000 19.6574 0.0000 4.1125
# 5 8.5382 1.5823 3.0335 0.0000 31.9703 0.0000
# 6 0.0000 0.0000 0.0000 4.1125 0.0000 35.3429
#
#
#
# Elastic Compliance Matrix: (Units=1/GPa)
#
#
# Indices 1 2 3 4 5 6 
#
# 1 0.010630 0.003867 -0.001158 0.000000 -0.002920 0.000000
# 2 0.003867 0.023640 -0.004469 0.000000 -0.001779 0.000000
# 3 -0.001158 -0.004469 0.013102 0.000000 -0.000713 0.000000
# 4 0.000000 0.000000 0.000000 0.052141 0.000000 -0.006067
# 5 -0.002920 -0.001779 -0.000713 0.000000 0.032215 0.000000
# 6 0.000000 0.000000 0.000000 -0.006067 0.000000 0.029000
#
#
# Mechanical properties :
#
#
# Convention : Reuss Voigt Hill
#
# Bulk Modulus (GPa) = 22.80409 26.69516 24.74963
# Shear Modulus (GPa) = 27.95385 32.60649 30.28017
#
# Velocity S-wave (km/s) = 3.40218 3.67441 3.54091
# Velocity P-wave (km/s) = 4.98754 5.39030 5.19283
#
# Compressibility (1/GPa) = 0.04385178
#
# Stress axis : x y z
#
# Youngs Moduli (GPa) = 94.07021 42.30120 76.32241
#
# Poissons Ratio (x) = -0.16358 0.08841
# Poissons Ratio (y) = -0.36378 0.34110
# Poissons Ratio (z) = 0.10897 0.18905
#
# Static dielectric constant tensor:
#      x y z
#    x 1.959240 0.000000 -0.004050 
#    y 0.000000 1.950810 0.000000 
#    z -0.004050 0.000000 1.930730 
# 
# From -- ./inp_files/295198.got.cif
#   From: 2010.05.17/outbox.cif.g08.bks.cpg/sg15_148_cif.got.tgz:295198.got - 2010.06.03 18:47:42.
