data_PCOD9276884
_publ_section_title
;
Structure prediction by ZEFSAII (Michael W. Deem and Ramdas Pophale) SiO2 
 PCOD9276884
Probable space group: C 2/C
;
_chemical_formula_sum "Si O2"
_cell_formula_units_Z 64
_cell_length_a 22.622204
_cell_length_b 25.246293
_cell_length_c 12.536887
_cell_angle_alpha 90.000000
_cell_angle_beta 26.357431
_cell_angle_gamma 90.000000
_cell_volume 3178.889622
_symmetry_space_group_name_H-M "C 2/C"
_symmetry_group_IT_number 15
_symmetry_cell_setting 'monoclinic'
loop_
_space_group_symop_operation_xyz
x,y,z
-x,y,1/2-z
-x,-y,-z
x,-y,1/2+z
1/2+x,1/2+y,z
1/2-x,1/2+y,1/2-z
1/2-x,1/2-y,-z
1/2+x,1/2-y,1/2+z
loop_
_atom_site_type_symbol
_atom_site_label
_atom_site_fract_x
_atom_site_fract_y
_atom_site_fract_z
Si Si1 0.989566 0.577890 0.931816
Si Si2 0.767537 0.346647 0.829230
Si Si3 0.304341 0.829694 0.415121
Si Si4 0.679263 0.398200 0.185485
Si Si5 0.968152 0.249311 0.490053
Si Si6 0.930663 0.837329 0.532533
Si Si7 0.367078 0.348064 0.016412
Si Si8 0.428849 0.038915 0.260903
O O1 0.094722 0.622049 0.729996
O O2 0.029080 0.522229 0.817496
O O3 0.844586 0.603876 0.148856
O O4 0.987785 0.567368 0.061605
O O5 0.633523 0.337920 0.979805
O O6 0.861802 0.295897 0.670796
O O7 0.744542 0.360391 0.989930
O O8 0.393986 0.776829 0.268644
O O9 0.191334 0.833138 0.686838
O O10 0.236898 0.837578 0.408857
O O11 0.523353 0.388481 0.408381
O O12 0.689428 0.380461 0.291816
O O13 0.769505 0.450773 0.025071
O O14 0.987376 0.215578 0.567565
O O15 0.918238 0.206700 0.485388
O O16 0.500000 0.373882 0.750000
O O17 0.500000 0.061540 0.250000
#
# Coordination Sequence:
#
# PCOD9276884 Si02
#       8
#     8   8   8   8   8   8   8   8
#     4   9  22  38  62  93 111 153 199 248 295 359
#     4  10  22  39  60  86 125 157 205 240 297 353
#     4  11  21  36  58  88 122 154 204 241 296 343
#     4  10  22  41  59  86 117 162 195 248 304 357
#     4  10  22  35  58  91 116 168 204 244 284 349
#     4  11  22  34  59  87 125 162 193 242 297 351
#     4  11  21  36  57  81 122 159 198 241 293 351
#     4  10  20  40  66  86 116 146 198 253 304 352
#
# _framework density 20.132815999999998
#
# number of rings (size 3 to 8) (size 9 to 14) (size 15 to 20)
#    0.000    1.750    2.500    2.250    3.500    3.000 
#    0.000    3.125    0.000    0.000    0.000    0.000 
#    0.000    0.000    0.000    0.000    0.000    0.000 
#
# Total GULP energy -178517.956612 kJ/mol
# GULP energy per Si atom -5578.686144 kJ/mol
# Density = 2.008699 g / cm^3
# Si number density = 20.132816 Si / 1000 Ang^3
#
#
#
# Elastic Constant Matrix: (Units=GPa)
#
#
# Indices 1 2 3 4 5 6 
#
# 1 76.5135 -3.4629 22.1564 0.0021 9.6086 0.0000
# 2 -3.4629 53.4383 35.2600 0.0013 5.6269 -0.0011
# 3 22.1564 35.2600 111.3189 0.0017 1.4037 -0.0034
# 4 0.0021 0.0013 0.0017 24.5531 -0.0003 -1.2792
# 5 9.6086 5.6269 1.4037 -0.0003 32.2943 0.0005
# 6 0.0000 -0.0011 -0.0034 -1.2792 0.0005 -6.9465
#
#
#
# Elastic Compliance Matrix: (Units=1/GPa)
#
#
# Indices 1 2 3 4 5 6 
#
# 1 0.015164 0.004384 -0.004343 -0.000001 -0.005087 0.000001
# 2 0.004384 0.025400 -0.008850 -0.000001 -0.005345 0.000000
# 3 -0.004343 -0.008850 0.012622 0.000000 0.002286 -0.000005
# 4 -0.000001 -0.000001 0.000000 0.040341 0.000001 -0.007429
# 5 -0.005087 -0.005345 0.002286 0.000001 0.033311 0.000002
# 6 0.000001 0.000000 -0.000005 -0.007429 0.000002 -0.142589
#
#
# Mechanical properties :
#
#
# Convention : Reuss Voigt Hill
#
# Bulk Modulus (GPa) = 28.11556 38.79753 33.45655
# Shear Modulus (GPa) = 364.33105 22.46798 193.39952
#
# Velocity S-wave (km/s) = 13.46687 3.34426 9.81175
# Velocity P-wave (km/s) = 15.99388 5.85019 12.04220
#
# Compressibility (1/GPa) = 0.03556749
#
# Stress axis : x y z
#
# Youngs Moduli (GPa) = 65.94426 39.37031 79.22631
#
# Poissons Ratio (x) = -0.17259 0.34405
# Poissons Ratio (y) = -0.28908 0.70119
# Poissons Ratio (z) = 0.28637 0.34844
#
# Static dielectric constant tensor:
#      x y z
#    x 1.721610 0.000000 -0.004370 
#    y 0.000000 1.704530 0.000000 
#    z -0.004370 0.000000 1.753400 
# 
# From -- ./inp_files/115004.got.cif
#   From: 2010.05.17/outbox.cif.g08.bks.cpg/sg15_58_cif.got.tgz:115004.got - 2010.06.03 18:47:42.
