data_PCOD9276355
_publ_section_title
;
Structure prediction by ZEFSAII (Michael W. Deem and Ramdas Pophale) SiO2 
 PCOD9276355
Probable space group: C 2/C
;
_chemical_formula_sum "Si O2"
_cell_formula_units_Z 52
_cell_length_a 8.509285
_cell_length_b 14.766007
_cell_length_c 23.499423
_cell_angle_alpha 90.000000
_cell_angle_beta 121.936299
_cell_angle_gamma 90.000000
_cell_volume 2505.735143
_symmetry_space_group_name_H-M "C 2/C"
_symmetry_group_IT_number 15
_symmetry_cell_setting 'monoclinic'
loop_
_space_group_symop_operation_xyz
x,y,z
-x,y,1/2-z
-x,-y,-z
x,-y,1/2+z
1/2+x,1/2+y,z
1/2-x,1/2+y,1/2-z
1/2-x,1/2-y,-z
1/2+x,1/2-y,1/2+z
loop_
_atom_site_type_symbol
_atom_site_label
_atom_site_fract_x
_atom_site_fract_y
_atom_site_fract_z
Si Si1 0.594777 0.456127 0.329562
Si Si2 0.996889 0.523172 0.631381
Si Si3 0.592562 0.376924 0.646237
Si Si4 0.500000 0.913498 0.750000
Si Si5 0.215619 0.878626 0.544864
Si Si6 0.597119 0.210105 0.829917
Si Si7 0.033218 0.799075 0.399707
O O1 0.500000 0.457593 0.250000
O O2 0.808732 0.484152 0.363875
O O3 0.478598 0.525702 0.345998
O O4 0.584220 0.356604 0.354077
O O5 0.014049 0.473314 0.695756
O O6 0.831241 0.471707 0.567426
O O7 0.952050 0.626268 0.638525
O O8 0.591827 0.375136 0.577903
O O9 0.471284 0.301200 0.653201
O O10 0.806309 0.361807 0.706297
O O11 0.363391 0.796736 0.578765
O O12 0.101643 0.858336 0.466542
O O13 0.500000 0.198572 0.750000
O O14 0.815130 0.213618 0.861322
#
# Coordination Sequence:
#
# PCOD9276355 Si02
#       7
#     8   8   8   4   8   8   8
#     4  12  23  41  67 100 132 172 212 280 324 394
#     4  11  22  42  65  94 136 166 221 263 329 384
#     4  11  24  40  67  97 133 173 217 267 334 378
#     4  10  20  40  60  94 130 170 206 274 312 394
#     4  10  25  46  67  94 129 183 213 277 320 390
#     4  12  25  40  65 102 131 175 213 277 323 395
#     4  11  25  46  68  95 135 169 229 262 329 387
#
# _framework density 20.752393000000001
#
# number of rings (size 3 to 8) (size 9 to 14) (size 15 to 20)
#    0.000    0.923    2.308    5.077    4.308    3.692 
#    2.769    0.000    0.000    0.000    0.000    0.000 
#    0.000    0.000    0.000    0.000    0.000    0.000 
#
# Total GULP energy -145552.382606 kJ/mol
# GULP energy per Si atom -5598.168562 kJ/mol
# Density = 2.070516 g / cm^3
# Si number density = 20.752393 Si / 1000 Ang^3
#
#
#
# Elastic Constant Matrix: (Units=GPa)
#
#
# Indices 1 2 3 4 5 6 
#
# 1 114.9799 4.9853 25.2152 0.0000 12.8312 0.0000
# 2 4.9853 53.5260 8.8645 0.0000 10.8009 0.0000
# 3 25.2152 8.8645 28.9089 0.0000 6.7231 0.0000
# 4 0.0000 0.0000 0.0000 15.3196 0.0000 -10.5459
# 5 12.8312 10.8009 6.7231 0.0000 23.4201 0.0000
# 6 0.0000 0.0000 0.0000 -10.5459 0.0000 32.1853
#
#
#
# Elastic Compliance Matrix: (Units=1/GPa)
#
#
# Indices 1 2 3 4 5 6 
#
# 1 0.011096 0.001298 -0.009133 0.000000 -0.004056 0.000000
# 2 0.001298 0.021287 -0.005583 0.000000 -0.008925 0.000000
# 3 -0.009133 -0.005583 0.045548 0.000000 -0.005496 0.000000
# 4 0.000000 0.000000 0.000000 0.084288 0.000000 0.027618
# 5 -0.004056 -0.008925 -0.005496 0.000000 0.050615 0.000000
# 6 0.000000 0.000000 0.000000 0.027618 0.000000 0.040119
#
#
# Mechanical properties :
#
#
# Convention : Reuss Voigt Hill
#
# Bulk Modulus (GPa) = 19.57198 30.61608 25.09403
# Shear Modulus (GPa) = 16.84503 24.74165 20.79334
#
# Velocity S-wave (km/s) = 2.85215 3.45662 3.16883
# Velocity P-wave (km/s) = 4.50533 5.54220 5.05045
#
# Compressibility (1/GPa) = 0.05109345
#
# Stress axis : x y z
#
# Youngs Moduli (GPa) = 90.11873 46.97619 21.95485
#
# Poissons Ratio (x) = -0.06095 0.20052
# Poissons Ratio (y) = -0.11693 0.12258
# Poissons Ratio (z) = 0.82308 0.26229
#
# Static dielectric constant tensor:
#      x y z
#    x 1.708420 0.000000 0.006360 
#    y 0.000000 1.726620 0.000000 
#    z 0.006360 0.000000 1.722780 
# 
# From -- ./inp_files/264465.got.cif
#   From: 2010.05.17/outbox.cif.g08.bks.cpg/sg15_133_cif.got.tgz:264465.got - 2010.06.03 18:47:42.
