data_PCOD9276797
_publ_section_title
;
Structure prediction by ZEFSAII (Michael W. Deem and Ramdas Pophale) SiO2 
 PCOD9276797
Probable space group: C 2/C
;
_chemical_formula_sum "Si O2"
_cell_formula_units_Z 48
_cell_length_a 14.745648
_cell_length_b 17.271063
_cell_length_c 17.998426
_cell_angle_alpha 90.000000
_cell_angle_beta 154.166244
_cell_angle_gamma 90.000000
_cell_volume 1997.405607
_symmetry_space_group_name_H-M "C 2/C"
_symmetry_group_IT_number 15
_symmetry_cell_setting 'monoclinic'
loop_
_space_group_symop_operation_xyz
x,y,z
-x,y,1/2-z
-x,-y,-z
x,-y,1/2+z
1/2+x,1/2+y,z
1/2-x,1/2+y,1/2-z
1/2-x,1/2-y,-z
1/2+x,1/2-y,1/2+z
loop_
_atom_site_type_symbol
_atom_site_label
_atom_site_fract_x
_atom_site_fract_y
_atom_site_fract_z
Si Si1 0.300463 0.496800 0.907948
Si Si2 0.424656 0.582109 0.771370
Si Si3 0.299524 0.136069 0.258551
Si Si4 0.285372 0.419764 0.637910
Si Si5 0.576753 0.711592 0.610337
Si Si6 0.570975 0.157213 0.724766
O O1 0.147742 0.437356 0.753724
O O2 0.204504 0.580880 0.844639
O O3 0.500000 0.500000 0.000000
O O4 0.385123 0.462877 0.047098
O O5 0.500000 0.616950 0.750000
O O6 0.264220 0.513084 0.634477
O O7 0.364068 0.648244 0.784071
O O8 0.223692 0.110053 0.283950
O O9 0.468611 0.203421 0.392165
O O10 0.112183 0.177501 0.075872
O O11 0.500000 0.409250 0.750000
O O12 0.109043 0.375814 0.460975
O O13 0.779034 0.715205 0.707533
O O14 0.500000 0.192836 0.750000
#
# Coordination Sequence:
#
# PCOD9276797 Si02
#       6
#     8   8   8   8   8   8
#     4  11  20  43  65  88 127 165 209 260 306 363
#     4  10  20  40  65  88 124 165 207 262 313 361
#     4  11  22  40  62  87 128 167 210 254 317 364
#     4  11  22  37  62  93 123 159 216 261 310 378
#     4  11  23  40  59  89 126 167 204 258 317 379
#     4  12  23  38  65  95 125 166 208 258 318 374
#
# _framework density 24.031172999999999
#
# number of rings (size 3 to 8) (size 9 to 14) (size 15 to 20)
#    0.000    1.000    5.000    4.000    0.000    4.667 
#    0.000    7.500    0.000    0.000    0.000    0.000 
#    0.000    0.000    0.000    0.000    0.000    0.000 
#
# Total GULP energy -134374.749867 kJ/mol
# GULP energy per Si atom -5598.947911 kJ/mol
# Density = 2.397648 g / cm^3
# Si number density = 24.031173 Si / 1000 Ang^3
#
#
#
# Elastic Constant Matrix: (Units=GPa)
#
#
# Indices 1 2 3 4 5 6 
#
# 1 78.8299 -6.1813 12.7212 0.0014 -30.8568 0.0025
# 2 -6.1813 68.6847 -14.0170 -0.0038 -7.2361 0.0179
# 3 12.7212 -14.0170 90.2231 0.0151 -23.9193 0.0123
# 4 0.0014 -0.0038 0.0151 36.9498 0.0083 -9.3133
# 5 -30.8568 -7.2361 -23.9193 0.0083 33.6720 0.0066
# 6 0.0025 0.0179 0.0123 -9.3133 0.0066 0.8045
#
#
#
# Elastic Compliance Matrix: (Units=1/GPa)
#
#
# Indices 1 2 3 4 5 6 
#
# 1 0.021897 0.005364 0.004154 0.000063 0.024169 0.000278
# 2 0.005364 0.017413 0.005229 0.000079 0.012372 0.000325
# 3 0.004154 0.005229 0.015545 0.000070 0.015972 0.000317
# 4 0.000063 0.000079 0.000070 -0.014110 0.000160 -0.163355
# 5 0.024169 0.012372 0.015972 0.000160 0.065852 0.000716
# 6 0.000278 0.000325 0.000317 -0.163355 0.000716 -0.648098
#
#
# Mechanical properties :
#
#
# Convention : Reuss Voigt Hill
#
# Bulk Modulus (GPa) = 11.85571 24.75373 18.30472
# Shear Modulus (GPa) = -9.21013 30.63291 10.71139
#
# Velocity S-wave (km/s) = -1.95982 3.57419 2.11352
# Velocity P-wave (km/s) = 0.42073 5.23031 3.68640
#
# Compressibility (1/GPa) = 0.08434752
#
# Stress axis : x y z
#
# Youngs Moduli (GPa) = 45.66923 57.42999 64.33041
#
# Poissons Ratio (x) = -0.30808 -0.26720
# Poissons Ratio (y) = -0.24499 -0.33637
# Poissons Ratio (z) = -0.18969 -0.30029
#
# Static dielectric constant tensor:
#      x y z
#    x 1.893500 0.000000 0.016070 
#    y 0.000000 1.912140 0.000000 
#    z 0.016070 0.000000 1.950150 
# 
# From -- ./inp_files/206514.got.cif
#   From: 2010.05.17/outbox.cif.g08.bks.cpg/sg15_104_cif.got.tgz:206514.got - 2010.06.03 18:47:42.
