data_PCOD9276369
_publ_section_title
;
Structure prediction by ZEFSAII (Michael W. Deem and Ramdas Pophale) SiO2 
 PCOD9276369
Probable space group: C 2/C
;
_chemical_formula_sum "Si O2"
_cell_formula_units_Z 40
_cell_length_a 5.434674
_cell_length_b 24.188713
_cell_length_c 14.091707
_cell_angle_alpha 90.000000
_cell_angle_beta 111.486199
_cell_angle_gamma 90.000000
_cell_volume 1723.728882
_symmetry_space_group_name_H-M "C 2/C"
_symmetry_group_IT_number 15
_symmetry_cell_setting 'monoclinic'
loop_
_space_group_symop_operation_xyz
x,y,z
-x,y,1/2-z
-x,-y,-z
x,-y,1/2+z
1/2+x,1/2+y,z
1/2-x,1/2+y,1/2-z
1/2-x,1/2-y,-z
1/2+x,1/2-y,1/2+z
loop_
_atom_site_type_symbol
_atom_site_label
_atom_site_fract_x
_atom_site_fract_y
_atom_site_fract_z
Si Si1 0.453255 0.328935 0.349888
Si Si2 0.500000 0.080671 0.750000
Si Si3 0.448493 0.369099 0.944547
Si Si4 0.212771 0.469512 0.466072
Si Si5 0.788414 0.780233 0.648311
Si Si6 0.500000 0.863572 0.750000
O O1 0.500000 0.306343 0.250000
O O2 0.635523 0.358564 0.456915
O O3 0.376142 0.273917 0.397715
O O4 0.246226 0.377040 0.291988
O O5 0.443632 0.041800 0.653158
O O6 0.698634 0.409565 0.983194
O O7 0.549502 0.313481 0.907312
O O8 0.227076 0.393788 0.842317
O O9 0.500000 0.500000 0.500000
O O10 0.000000 0.500000 0.500000
O O11 0.627204 0.824857 0.686703
O O12 0.000000 0.754902 0.750000
#
# Coordination Sequence:
#
# PCOD9276369 Si02
#       6
#     8   4   8   8   8   4
#     4  11  22  40  72 101 143 191 239 289 366 442
#     4  10  26  47  74 102 146 180 245 310 358 452
#     4  10  25  42  70 102 144 189 240 308 361 439
#     4  11  28  51  77 109 140 193 252 310 379 424
#     4  10  20  40  61 104 144 188 234 285 366 438
#     4  10  22  41  64  98 148 182 233 284 360 432
#
# _framework density 23.205506
#
# number of rings (size 3 to 8) (size 9 to 14) (size 15 to 20)
#    0.000    1.600    2.000    0.600    8.400    3.200 
#    7.200    0.000    0.000    0.000    0.000    0.000 
#    0.000    0.000    0.000    0.000    0.000    0.000 
#
# Total GULP energy -111352.924097 kJ/mol
# GULP energy per Si atom -5567.646205 kJ/mol
# Density = 2.315269 g / cm^3
# Si number density = 23.205506 Si / 1000 Ang^3
#
#
#
# Elastic Constant Matrix: (Units=GPa)
#
#
# Indices 1 2 3 4 5 6 
#
# 1 68.7389 10.3154 55.5075 0.0000 7.5234 0.0000
# 2 10.3154 60.4329 48.2012 0.0000 7.2009 0.0000
# 3 55.5075 48.2012 200.1336 0.0000 32.0184 0.0000
# 4 0.0000 0.0000 0.0000 31.5146 0.0000 5.3590
# 5 7.5234 7.2009 32.0184 0.0000 29.2793 0.0000
# 6 0.0000 0.0000 0.0000 5.3590 0.0000 16.3845
#
#
#
# Elastic Compliance Matrix: (Units=1/GPa)
#
#
# Indices 1 2 3 4 5 6 
#
# 1 0.018842 0.001190 -0.005686 0.000000 0.001084 0.000000
# 2 0.001190 0.020561 -0.005362 0.000000 0.000501 0.000000
# 3 -0.005686 -0.005362 0.008994 0.000000 -0.007055 0.000000
# 4 0.000000 0.000000 0.000000 0.033600 0.000000 -0.010990
# 5 0.001084 0.000501 -0.007055 0.000000 0.041468 0.000000
# 6 0.000000 0.000000 0.000000 -0.010990 0.000000 0.064628
#
#
# Mechanical properties :
#
#
# Convention : Reuss Voigt Hill
#
# Bulk Modulus (GPa) = 34.86688 61.92819 48.39753
# Shear Modulus (GPa) = 23.00228 29.78776 26.39502
#
# Velocity S-wave (km/s) = 3.15182 3.58669 3.37626
# Velocity P-wave (km/s) = 5.32007 6.62550 6.00835
#
# Compressibility (1/GPa) = 0.02868051
#
# Stress axis : x y z
#
# Youngs Moduli (GPa) = 53.07296 48.63472 111.18685
#
# Poissons Ratio (x) = -0.05786 0.63218
# Poissons Ratio (y) = -0.06314 0.59622
# Poissons Ratio (z) = 0.30176 0.26079
#
# Static dielectric constant tensor:
#      x y z
#    x 2.016100 0.000000 -0.065040 
#    y 0.000000 1.894840 0.000000 
#    z -0.065040 0.000000 1.945200 
# 
# From -- ./inp_files/73375.got.cif
#   From: 2010.05.17/outbox.cif.g08.bks.cpg/sg15_37_cif.got.tgz:73375.got - 2010.06.03 18:47:42.
