data_PCOD9276018
_publ_section_title
;
Structure prediction by ZEFSAII (Michael W. Deem and Ramdas Pophale) SiO2 
 PCOD9276018
Probable space group: C 2/C
;
_chemical_formula_sum "Si O2"
_cell_formula_units_Z 56
_cell_length_a 8.881864
_cell_length_b 11.861656
_cell_length_c 23.209385
_cell_angle_alpha 90.000000
_cell_angle_beta 80.615692
_cell_angle_gamma 90.000000
_cell_volume 2412.468256
_symmetry_space_group_name_H-M "C 2/C"
_symmetry_group_IT_number 15
_symmetry_cell_setting 'monoclinic'
loop_
_space_group_symop_operation_xyz
x,y,z
-x,y,1/2-z
-x,-y,-z
x,-y,1/2+z
1/2+x,1/2+y,z
1/2-x,1/2+y,1/2-z
1/2-x,1/2-y,-z
1/2+x,1/2-y,1/2+z
loop_
_atom_site_type_symbol
_atom_site_label
_atom_site_fract_x
_atom_site_fract_y
_atom_site_fract_z
Si Si1 0.381324 0.336505 0.350777
Si Si2 0.113270 0.838820 0.442192
Si Si3 0.147138 0.472883 0.568967
Si Si4 0.877779 0.599747 0.303824
Si Si5 0.845220 0.586179 0.549729
Si Si6 0.862346 0.857411 0.931363
Si Si7 0.029693 0.068943 0.309787
O O1 0.498594 0.322742 0.397032
O O2 0.375817 0.235403 0.306174
O O3 0.221210 0.340580 0.394722
O O4 0.433100 0.452748 0.317897
O O5 0.055389 0.840698 0.512004
O O6 0.240800 0.742169 0.431546
O O7 0.198202 0.958853 0.429888
O O8 0.082801 0.430345 0.632960
O O9 0.165575 0.381536 0.516899
O O10 0.020155 0.558043 0.551950
O O11 0.710479 0.552071 0.302165
O O12 0.000000 0.559545 0.250000
O O13 0.738266 0.472804 0.559063
O O14 0.971302 0.865025 0.869672
O O15 0.000000 0.126282 0.250000
#
# Coordination Sequence:
#
# PCOD9276018 Si02
#       7
#     8   8   8   8   8   8   8
#     4  11  24  43  71  96 130 166 226 273 337 394
#     4  10  20  39  67 101 130 169 213 279 333 405
#     4  10  21  41  63  98 136 169 219 265 343 389
#     4  12  28  45  66  96 132 179 223 276 325 396
#     4   9  21  38  67  98 131 171 210 279 330 404
#     4   9  21  39  67  93 138 170 214 270 345 388
#     4  11  26  47  67  92 131 179 220 274 327 399
#
# _framework density 23.21274
#
# number of rings (size 3 to 8) (size 9 to 14) (size 15 to 20)
#    0.000    1.714    1.429    1.286   10.000    3.429 
#    0.000    0.714    0.000    0.000    0.000    0.000 
#    0.000    0.000    0.000    0.000    0.000    0.000 
#
# Total GULP energy -156607.525342 kJ/mol
# GULP energy per Si atom -5593.125905 kJ/mol
# Density = 2.315991 g / cm^3
# Si number density = 23.212740 Si / 1000 Ang^3
#
#
#
# Elastic Constant Matrix: (Units=GPa)
#
#
# Indices 1 2 3 4 5 6 
#
# 1 63.9113 -14.9125 27.9406 0.0000 -8.9672 0.0000
# 2 -14.9125 36.6196 12.2506 0.0000 -4.0213 0.0000
# 3 27.9406 12.2506 180.4560 0.0000 -32.3559 0.0000
# 4 0.0000 0.0000 0.0000 7.2889 0.0000 -6.3815
# 5 -8.9672 -4.0213 -32.3559 0.0000 34.1011 0.0000
# 6 0.0000 0.0000 0.0000 -6.3815 0.0000 19.7729
#
#
#
# Elastic Compliance Matrix: (Units=1/GPa)
#
#
# Indices 1 2 3 4 5 6 
#
# 1 0.019659 0.009405 -0.003081 0.000000 0.003355 0.000000
# 2 0.009405 0.032534 -0.003053 0.000000 0.003413 0.000000
# 3 -0.003081 -0.003053 0.007249 0.000000 0.005708 0.000000
# 4 0.000000 0.000000 0.000000 0.191231 0.000000 0.061718
# 5 0.003355 0.003413 0.005708 0.000000 0.036025 0.000000
# 6 0.000000 0.000000 0.000000 0.061718 0.000000 0.070493
#
#
# Mechanical properties :
#
#
# Convention : Reuss Voigt Hill
#
# Bulk Modulus (GPa) = 15.15525 36.83825 25.99675
# Shear Modulus (GPa) = 13.41763 29.27979 21.34871
#
# Velocity S-wave (km/s) = 2.40683 3.55543 3.03594
# Velocity P-wave (km/s) = 3.77714 5.72355 4.84901
#
# Compressibility (1/GPa) = 0.06598375
#
# Stress axis : x y z
#
# Youngs Moduli (GPa) = 50.86826 30.73741 137.94590
#
# Poissons Ratio (x) = -0.28907 0.42496
# Poissons Ratio (y) = -0.47839 0.42112
# Poissons Ratio (z) = 0.15671 0.09384
#
# Static dielectric constant tensor:
#      x y z
#    x 1.848370 0.000000 -0.003790 
#    y 0.000000 1.937800 0.000000 
#    z -0.003790 0.000000 1.879600 
# 
# From -- ./inp_files/264238.got.cif
#   From: 2010.05.17/outbox.cif.g08.bks.cpg/sg15_133_cif.got.tgz:264238.got - 2010.06.03 18:47:42.
