data_PCOD9276432
_publ_section_title
;
Structure prediction by ZEFSAII (Michael W. Deem and Ramdas Pophale) SiO2 
 PCOD9276432
Probable space group: C 2/C
;
_chemical_formula_sum "Si O2"
_cell_formula_units_Z 40
_cell_length_a 8.690574
_cell_length_b 17.565553
_cell_length_c 12.729100
_cell_angle_alpha 90.000000
_cell_angle_beta 107.637431
_cell_angle_gamma 90.000000
_cell_volume 1851.815287
_symmetry_space_group_name_H-M "C 2/C"
_symmetry_group_IT_number 15
_symmetry_cell_setting 'monoclinic'
loop_
_space_group_symop_operation_xyz
x,y,z
-x,y,1/2-z
-x,-y,-z
x,-y,1/2+z
1/2+x,1/2+y,z
1/2-x,1/2+y,1/2-z
1/2-x,1/2-y,-z
1/2+x,1/2-y,1/2+z
loop_
_atom_site_type_symbol
_atom_site_label
_atom_site_fract_x
_atom_site_fract_y
_atom_site_fract_z
Si Si1 0.181919 0.405924 0.326158
Si Si2 0.398801 0.861800 0.957240
Si Si3 0.305912 0.073455 0.226539
Si Si4 0.262617 0.341443 0.989892
Si Si5 0.564269 0.707302 0.654837
O O1 0.175113 0.383097 0.446850
O O2 0.250733 0.489394 0.316692
O O3 0.278156 0.340409 0.287138
O O4 0.000000 0.407045 0.250000
O O5 0.297725 0.905603 0.846763
O O6 0.594162 0.878583 0.996109
O O7 0.396942 0.773438 0.920455
O O8 0.500000 0.075919 0.250000
O O9 0.227767 0.132617 0.129027
O O10 0.250000 0.250000 0.000000
O O11 0.431577 0.352721 0.084113
O O12 0.500000 0.743067 0.750000
#
# Coordination Sequence:
#
# PCOD9276432 Si02
#       5
#     8   8   8   8   8
#     4  11  24  38  58  87 117 151 193 238 284 341
#     4  10  20  40  62  84 114 150 194 238 284 339
#     4   9  20  37  58  85 116 153 190 234 290 342
#     4   9  18  35  60  84 110 150 191 230 281 340
#     4  11  22  38  60  87 117 151 192 238 288 340
#
# _framework density 21.600427
#
# number of rings (size 3 to 8) (size 9 to 14) (size 15 to 20)
#    0.000    2.000    0.000    4.800    0.000   11.200 
#    0.000    1.000    0.000    0.000    0.000    0.000 
#    0.000    0.000    0.000    0.000    0.000    0.000 
#
# Total GULP energy -111589.847153 kJ/mol
# GULP energy per Si atom -5579.492358 kJ/mol
# Density = 2.155126 g / cm^3
# Si number density = 21.600427 Si / 1000 Ang^3
#
#
#
# Elastic Constant Matrix: (Units=GPa)
#
#
# Indices 1 2 3 4 5 6 
#
# 1 20.9777 25.7560 3.9526 0.0000 2.6285 0.0000
# 2 25.7560 110.7555 50.6716 0.0000 -4.0079 0.0000
# 3 3.9526 50.6716 98.0932 0.0000 -13.7100 0.0000
# 4 0.0000 0.0000 0.0000 -19.4984 0.0000 -7.2252
# 5 2.6285 -4.0079 -13.7100 0.0000 32.4004 0.0000
# 6 0.0000 0.0000 0.0000 -7.2252 0.0000 13.5073
#
#
#
# Elastic Compliance Matrix: (Units=1/GPa)
#
#
# Indices 1 2 3 4 5 6 
#
# 1 0.071467 -0.019839 0.006606 0.000000 -0.005457 0.000000
# 2 -0.019839 0.017374 -0.008131 0.000000 0.000318 0.000000
# 3 0.006606 -0.008131 0.014787 0.000000 0.004715 0.000000
# 4 0.000000 0.000000 0.000000 -0.042802 0.000000 -0.022896
# 5 -0.005457 0.000318 0.004715 0.000000 0.033341 0.000000
# 6 0.000000 0.000000 0.000000 -0.022896 0.000000 0.061787
#
#
# Mechanical properties :
#
#
# Convention : Reuss Voigt Hill
#
# Bulk Modulus (GPa) = 16.42039 43.39853 29.90946
# Shear Modulus (GPa) = 22.83282 15.24492 19.03887
#
# Velocity S-wave (km/s) = 3.25476 2.65951 2.97208
# Velocity P-wave (km/s) = 4.66294 5.43745 5.06502
#
# Compressibility (1/GPa) = 0.06089988
#
# Stress axis : x y z
#
# Youngs Moduli (GPa) = 13.99247 57.55735 67.62497
#
# Poissons Ratio (x) = 1.14190 -0.44673
# Poissons Ratio (y) = 0.27760 0.54986
# Poissons Ratio (z) = -0.09243 0.46800
#
# Static dielectric constant tensor:
#      x y z
#    x 1.836140 0.000000 0.028240 
#    y 0.000000 1.794020 0.000000 
#    z 0.028240 0.000000 1.822830 
# 
# From -- ./inp_files/76643.got.cif
#   From: 2010.05.17/outbox.cif.g08.bks.cpg/sg15_39_cif.got.tgz:76643.got - 2010.06.03 18:47:42.
