data_PCOD9276684
_publ_section_title
;
Structure prediction by ZEFSAII (Michael W. Deem and Ramdas Pophale) SiO2 
 PCOD9276684
Probable space group: C 2/C
;
_chemical_formula_sum "Si O2"
_cell_formula_units_Z 52
_cell_length_a 25.519625
_cell_length_b 16.533622
_cell_length_c 10.151400
_cell_angle_alpha 90.000000
_cell_angle_beta 152.209951
_cell_angle_gamma 90.000000
_cell_volume 1996.968638
_symmetry_space_group_name_H-M "C 2/C"
_symmetry_group_IT_number 15
_symmetry_cell_setting 'monoclinic'
loop_
_space_group_symop_operation_xyz
x,y,z
-x,y,1/2-z
-x,-y,-z
x,-y,1/2+z
1/2+x,1/2+y,z
1/2-x,1/2+y,1/2-z
1/2-x,1/2-y,-z
1/2+x,1/2-y,1/2+z
loop_
_atom_site_type_symbol
_atom_site_label
_atom_site_fract_x
_atom_site_fract_y
_atom_site_fract_z
Si Si1 0.326528 0.495660 0.553037
Si Si2 0.299542 0.101177 0.539125
Si Si3 0.689775 0.191201 0.472956
Si Si4 0.250000 0.750000 0.000000
Si Si5 0.397433 0.966720 0.621179
Si Si6 0.401535 0.335661 0.627171
Si Si7 0.385690 0.341061 0.064703
O O1 0.289240 0.466813 0.613996
O O2 0.416285 0.429703 0.702750
O O3 0.358342 0.588190 0.606693
O O4 0.213002 0.483857 0.214968
O O5 0.319314 0.165867 0.695902
O O6 0.401773 0.053526 0.705973
O O7 0.221911 0.162769 0.276818
O O8 0.750000 0.250000 0.500000
O O9 0.626339 0.105134 0.326971
O O10 0.606094 0.254055 0.354975
O O11 0.794075 0.169126 0.795703
O O12 0.365570 0.714702 0.175546
O O13 0.500000 0.953523 0.750000
O O14 0.500000 0.306107 0.750000
O O15 0.500000 0.364612 0.250000
#
# Coordination Sequence:
#
# PCOD9276684 Si02
#       7
#     8   8   8   4   8   8   8
#     4   9  21  39  61  88 123 158 211 266 311 386
#     4  10  21  40  62  88 124 161 213 268 308 382
#     4  11  23  41  57  90 131 162 213 265 318 396
#     4  10  20  40  64  90 126 156 216 270 304 378
#     4  10  22  41  61  89 129 170 209 264 333 389
#     4  10  21  40  63  89 122 166 211 267 323 369
#     4  11  22  38  62  89 121 164 207 258 324 377
#
# _framework density 26.039466999999998
#
# number of rings (size 3 to 8) (size 9 to 14) (size 15 to 20)
#    0.000    1.846    1.538    1.846    0.000    4.308 
#    8.308    0.000    0.000    0.000    0.000    0.000 
#    0.000    0.000    0.000    0.000    0.000    0.000 
#
# Total GULP energy -144830.492604 kJ/mol
# GULP energy per Si atom -5570.403562 kJ/mol
# Density = 2.598020 g / cm^3
# Si number density = 26.039467 Si / 1000 Ang^3
#
#
#
# Elastic Constant Matrix: (Units=GPa)
#
#
# Indices 1 2 3 4 5 6 
#
# 1 116.9308 47.8596 12.2618 0.0000 35.2186 0.0000
# 2 47.8596 162.9933 23.0405 0.0000 30.5488 0.0000
# 3 12.2618 23.0405 83.6032 0.0000 11.6787 0.0000
# 4 0.0000 0.0000 0.0000 7.6609 0.0000 8.8243
# 5 35.2186 30.5488 11.6787 0.0000 31.4026 0.0000
# 6 0.0000 0.0000 0.0000 8.8243 0.0000 52.4088
#
#
#
# Elastic Compliance Matrix: (Units=1/GPa)
#
#
# Indices 1 2 3 4 5 6 
#
# 1 0.013159 -0.001373 0.000341 0.000000 -0.013550 0.000000
# 2 -0.001373 0.007745 -0.001156 0.000000 -0.005565 0.000000
# 3 0.000341 -0.001156 0.012791 0.000000 -0.004015 0.000000
# 4 0.000000 0.000000 0.000000 0.161941 0.000000 -0.027267
# 5 -0.013550 -0.005565 -0.004015 0.000000 0.053948 0.000000
# 6 0.000000 0.000000 0.000000 -0.027267 0.000000 0.023672
#
#
# Mechanical properties :
#
#
# Convention : Reuss Voigt Hill
#
# Bulk Modulus (GPa) = 34.10641 58.87234 46.48938
# Shear Modulus (GPa) = 17.39720 36.98549 27.19134
#
# Velocity S-wave (km/s) = 2.58758 3.77286 3.23497
# Velocity P-wave (km/s) = 4.69615 6.45269 5.64319
#
# Compressibility (1/GPa) = 0.02932000
#
# Stress axis : x y z
#
# Youngs Moduli (GPa) = 75.99255 129.12215 78.18231
#
# Poissons Ratio (x) = 0.17723 -0.02666
# Poissons Ratio (y) = 0.10431 0.09035
# Poissons Ratio (z) = -0.02592 0.14922
#
# Static dielectric constant tensor:
#      x y z
#    x 1.969560 0.000000 0.107980 
#    y 0.000000 1.891890 0.000000 
#    z 0.107980 0.000000 1.956550 
# 
# From -- ./inp_files/123929.got.cif
#   From: 2010.05.17/outbox.cif.g08.bks.cpg/sg15_62_cif.got.tgz:123929.got - 2010.06.03 18:47:42.
