data_PCOD9276851
_publ_section_title
;
Structure prediction by ZEFSAII (Michael W. Deem and Ramdas Pophale) SiO2 
 PCOD9276851
Probable space group: C 2/C
;
_chemical_formula_sum "Si O2"
_cell_formula_units_Z 60
_cell_length_a 27.641195
_cell_length_b 11.096006
_cell_length_c 30.075481
_cell_angle_alpha 90.000000
_cell_angle_beta 17.399608
_cell_angle_gamma 90.000000
_cell_volume 2758.398656
_symmetry_space_group_name_H-M "C 2/C"
_symmetry_group_IT_number 15
_symmetry_cell_setting 'monoclinic'
loop_
_space_group_symop_operation_xyz
x,y,z
-x,y,1/2-z
-x,-y,-z
x,-y,1/2+z
1/2+x,1/2+y,z
1/2-x,1/2+y,1/2-z
1/2-x,1/2-y,-z
1/2+x,1/2-y,1/2+z
loop_
_atom_site_type_symbol
_atom_site_label
_atom_site_fract_x
_atom_site_fract_y
_atom_site_fract_z
Si Si1 0.462533 0.234890 0.604108
Si Si2 0.232883 0.411061 0.152212
Si Si3 0.156635 0.596825 0.359727
Si Si4 0.206755 0.691886 0.961272
Si Si5 0.835391 0.110318 0.753996
Si Si6 0.855223 0.028437 0.967385
Si Si7 0.897761 0.626924 0.189857
Si Si8 0.500000 0.550742 0.750000
O O1 0.611480 0.325306 0.482317
O O2 0.407137 0.157433 0.696427
O O3 0.307228 0.310348 0.724882
O O4 0.531340 0.156021 0.503553
O O5 0.245193 0.542977 0.165158
O O6 0.223608 0.447826 0.108285
O O7 0.234829 0.477101 0.311676
O O8 0.082238 0.573690 0.376724
O O9 0.248582 0.671156 0.872785
O O10 0.352757 0.629349 0.859128
O O11 0.193782 0.829304 0.989334
O O12 0.030531 0.627917 0.113693
O O13 0.891055 0.232524 0.682516
O O14 0.982643 0.033452 0.644845
O O15 0.915205 0.986480 0.866340
#
# Coordination Sequence:
#
# PCOD9276851 Si02
#       8
#     8   8   8   8   8   8   8   4
#     4  10  25  41  63  93 134 187 240 270 322 384
#     4  11  22  45  64  96 132 186 222 282 330 397
#     4  11  24  40  62  95 138 187 233 279 317 392
#     4  10  21  40  62  99 136 171 210 274 346 412
#     4  10  21  38  61  97 133 174 221 278 325 393
#     4  10  20  40  65  95 130 170 213 275 344 405
#     4  11  25  37  67  96 140 178 229 270 337 394
#     4  10  22  40  70  98 138 162 214 278 354 424
#
# _framework density 21.751750000000001
#
# number of rings (size 3 to 8) (size 9 to 14) (size 15 to 20)
#    0.000    1.600    2.667    1.200    5.600    1.600 
#    0.000    0.000    0.000    0.800    0.000    0.000 
#    0.000    0.000    0.000    0.000    0.000    0.000 
#
# Total GULP energy -167123.838566 kJ/mol
# GULP energy per Si atom -5570.794619 kJ/mol
# Density = 2.170224 g / cm^3
# Si number density = 21.751750 Si / 1000 Ang^3
#
#
#
# Elastic Constant Matrix: (Units=GPa)
#
#
# Indices 1 2 3 4 5 6 
#
# 1 107.0339 37.9420 45.8623 0.0144 12.6884 -0.0004
# 2 37.9420 73.4090 37.8811 0.1114 -0.1701 -0.0362
# 3 45.8623 37.8811 108.6018 -0.0007 17.0123 -0.0213
# 4 0.0144 0.1114 -0.0007 26.5739 -0.0073 10.3637
# 5 12.6884 -0.1701 17.0123 -0.0073 39.8394 -0.0045
# 6 -0.0004 -0.0362 -0.0213 10.3637 -0.0045 11.3192
#
#
#
# Elastic Compliance Matrix: (Units=1/GPa)
#
#
# Indices 1 2 3 4 5 6 
#
# 1 0.012815 -0.004947 -0.003262 0.000034 -0.002710 -0.000054
# 2 -0.004947 0.018804 -0.005068 -0.000148 0.003820 0.000188
# 3 -0.003262 -0.005068 0.013068 0.000030 -0.004563 -0.000021
# 4 0.000034 -0.000148 0.000030 0.058532 -0.000020 -0.053592
# 5 -0.002710 0.003820 -0.004563 -0.000020 0.027929 0.000033
# 6 -0.000054 0.000188 -0.000021 -0.053592 0.000033 0.137413
#
#
# Mechanical properties :
#
#
# Convention : Reuss Voigt Hill
#
# Bulk Modulus (GPa) = 55.14754 59.15726 57.15240
# Shear Modulus (GPa) = 16.60250 26.70379 21.65314
#
# Velocity S-wave (km/s) = 2.76573 3.50760 3.15852
# Velocity P-wave (km/s) = 5.96718 6.60757 6.29552
#
# Compressibility (1/GPa) = 0.01813318
#
# Stress axis : x y z
#
# Youngs Moduli (GPa) = 78.03163 53.18133 76.52247
#
# Poissons Ratio (x) = 0.26308 0.24961
# Poissons Ratio (y) = 0.38601 0.38783
# Poissons Ratio (z) = 0.25453 0.26953
#
# Static dielectric constant tensor:
#      x y z
#    x 1.802490 0.000000 0.039490 
#    y 0.000000 1.832220 0.000040 
#    z 0.039490 0.000040 1.973460 
# 
# From -- ./inp_files/319567.got.cif
#   From: 2010.05.17/outbox.cif.g08.bks.cpg/sg15_160_cif.got.tgz:319567.got - 2010.06.03 18:47:42.
