data_PCOD9276443
_publ_section_title
;
Structure prediction by ZEFSAII (Michael W. Deem and Ramdas Pophale) SiO2 
 PCOD9276443
Probable space group: C 2/C
;
_chemical_formula_sum "Si O2"
_cell_formula_units_Z 64
_cell_length_a 22.258813
_cell_length_b 15.520857
_cell_length_c 13.937432
_cell_angle_alpha 90.000000
_cell_angle_beta 30.343262
_cell_angle_gamma 90.000000
_cell_volume 2432.462154
_symmetry_space_group_name_H-M "C 2/C"
_symmetry_group_IT_number 15
_symmetry_cell_setting 'monoclinic'
loop_
_space_group_symop_operation_xyz
x,y,z
-x,y,1/2-z
-x,-y,-z
x,-y,1/2+z
1/2+x,1/2+y,z
1/2-x,1/2+y,1/2-z
1/2-x,1/2-y,-z
1/2+x,1/2-y,1/2+z
loop_
_atom_site_type_symbol
_atom_site_label
_atom_site_fract_x
_atom_site_fract_y
_atom_site_fract_z
Si Si1 0.228265 0.557324 0.503540
Si Si2 0.750352 0.948276 0.209416
Si Si3 0.937422 0.800742 0.249624
Si Si4 0.082869 0.704817 0.754337
Si Si5 0.186257 0.370477 0.561184
Si Si6 0.347988 0.132075 0.163045
Si Si7 0.011515 0.900708 0.841949
Si Si8 0.836049 0.731695 0.660913
O O1 0.239223 0.553821 0.606789
O O2 0.147144 0.640350 0.592425
O O3 0.169166 0.468103 0.552576
O O4 0.365199 0.567311 0.282127
O O5 0.673349 0.868339 0.355296
O O6 0.705828 0.042219 0.298722
O O7 0.884588 0.927866 0.058443
O O8 0.883310 0.714774 0.375544
O O9 0.826144 0.849611 0.359775
O O10 0.000000 0.851745 0.250000
O O11 0.037286 0.774643 0.036472
O O12 0.026377 0.797315 0.810655
O O13 0.178487 0.727671 0.704632
O O14 0.980206 0.647819 0.944563
O O15 0.156021 0.369850 0.716407
O O16 0.265401 0.210784 0.244938
O O17 0.000000 0.936099 0.750000
#
# Coordination Sequence:
#
# PCOD9276443 Si02
#       8
#     8   8   8   8   8   8   8   8
#     4   9  21  36  61  85 111 152 203 244 283 348
#     4   9  21  36  61  89 113 153 204 240 287 351
#     4  11  22  36  58  84 121 156 189 236 296 351
#     4  11  22  39  63  86 119 156 195 245 300 346
#     4  10  22  38  58  89 113 153 201 239 287 349
#     4  11  21  38  63  88 118 156 202 244 290 352
#     4  10  20  40  62  85 116 152 196 247 290 351
#     4  11  22  38  61  89 119 155 198 243 297 352
#
# _framework density 26.310790000000001
#
# number of rings (size 3 to 8) (size 9 to 14) (size 15 to 20)
#    0.000    1.750    3.750    0.375    3.500    2.000 
#    0.000    2.500    0.000    0.000    0.000    0.000 
#    0.000    0.000    0.000    0.000    0.000    0.000 
#
# Total GULP energy -179219.594474 kJ/mol
# GULP energy per Si atom -5600.612327 kJ/mol
# Density = 2.625091 g / cm^3
# Si number density = 26.310790 Si / 1000 Ang^3
#
#
#
# Elastic Constant Matrix: (Units=GPa)
#
#
# Indices 1 2 3 4 5 6 
#
# 1 56.9916 15.0877 0.5561 0.0000 2.6101 0.0000
# 2 15.0877 168.8206 34.5934 0.0000 -6.7870 0.0000
# 3 0.5561 34.5934 99.5991 0.0000 -18.0609 0.0000
# 4 0.0000 0.0000 0.0000 28.4066 0.0000 0.3831
# 5 2.6101 -6.7870 -18.0609 0.0000 24.1425 0.0000
# 6 0.0000 0.0000 0.0000 0.3831 0.0000 29.5403
#
#
#
# Elastic Compliance Matrix: (Units=1/GPa)
#
#
# Indices 1 2 3 4 5 6 
#
# 1 0.018113 -0.001728 0.000065 0.000000 -0.002396 0.000000
# 2 -0.001728 0.006543 -0.002193 0.000000 0.000386 0.000000
# 3 0.000065 -0.002193 0.012366 0.000000 0.008627 0.000000
# 4 0.000000 0.000000 0.000000 0.035209 0.000000 -0.000457
# 5 -0.002396 0.000386 0.008627 0.000000 0.048242 0.000000
# 6 0.000000 0.000000 0.000000 -0.000457 0.000000 0.033858
#
#
# Mechanical properties :
#
#
# Convention : Reuss Voigt Hill
#
# Bulk Modulus (GPa) = 34.11938 47.32062 40.72000
# Shear Modulus (GPa) = 29.10122 34.76281 31.93202
#
# Velocity S-wave (km/s) = 3.32935 3.63883 3.48752
# Velocity P-wave (km/s) = 5.27024 5.97319 5.63269
#
# Compressibility (1/GPa) = 0.02930886
#
# Stress axis : x y z
#
# Youngs Moduli (GPa) = 55.20866 152.84046 80.86687
#
# Poissons Ratio (x) = 0.26416 -0.00524
# Poissons Ratio (y) = 0.09542 0.17733
# Poissons Ratio (z) = -0.00357 0.33516
#
# Static dielectric constant tensor:
#      x y z
#    x 2.148310 0.000000 0.033080 
#    y 0.000000 2.024380 0.000000 
#    z 0.033080 0.000000 2.025820 
# 
# From -- ./inp_files/259427.got.cif
#   From: 2010.05.17/outbox.cif.g08.bks.cpg/sg15_130_cif.got.tgz:259427.got - 2010.06.03 18:47:42.
