data_PCOD9276949
_publ_section_title
;
Structure prediction by ZEFSAII (Michael W. Deem and Ramdas Pophale) SiO2 
 PCOD9276949
Probable space group: C 2/C
;
_chemical_formula_sum "Si O2"
_cell_formula_units_Z 52
_cell_length_a 11.148872
_cell_length_b 21.340427
_cell_length_c 11.871952
_cell_angle_alpha 90.000000
_cell_angle_beta 114.572263
_cell_angle_gamma 90.000000
_cell_volume 2568.792569
_symmetry_space_group_name_H-M "C 2/C"
_symmetry_group_IT_number 15
_symmetry_cell_setting 'monoclinic'
loop_
_space_group_symop_operation_xyz
x,y,z
-x,y,1/2-z
-x,-y,-z
x,-y,1/2+z
1/2+x,1/2+y,z
1/2-x,1/2+y,1/2-z
1/2-x,1/2-y,-z
1/2+x,1/2-y,1/2+z
loop_
_atom_site_type_symbol
_atom_site_label
_atom_site_fract_x
_atom_site_fract_y
_atom_site_fract_z
Si Si1 0.221239 0.755648 0.357118
Si Si2 0.686578 0.883929 0.808026
Si Si3 0.389506 0.149442 0.801828
Si Si4 0.000000 0.142563 0.750000
Si Si5 0.639175 0.565630 0.629254
Si Si6 0.953759 0.069095 0.355909
Si Si7 0.517037 0.068468 0.449456
O O1 0.250000 0.750000 0.500000
O O2 0.156376 0.690075 0.297243
O O3 0.337700 0.782419 0.323105
O O4 0.122710 0.813207 0.310736
O O5 0.844703 0.884518 0.862839
O O6 0.614934 0.913513 0.671175
O O7 0.629520 0.920324 0.896037
O O8 0.500000 0.155221 0.750000
O O9 0.272597 0.104036 0.706199
O O10 0.447040 0.115073 0.934913
O O11 0.023554 0.100256 0.651827
O O12 0.585860 0.562873 0.481676
O O13 0.630748 0.495505 0.673289
O O14 0.000000 0.085034 0.250000
O O15 0.500000 0.000000 0.500000
#
# Coordination Sequence:
#
# PCOD9276949 Si02
#       7
#     8   8   8   4   8   8   8
#     4  11  22  43  69  95 132 178 233 278 331 414
#     4  11  25  44  68 104 133 187 233 280 347 416
#     4  11  26  43  69 102 137 180 226 291 356 406
#     4  10  20  40  66  94 122 168 224 268 324 390
#     4  10  23  40  64  95 131 174 222 271 341 407
#     4  11  24  40  65  94 138 173 221 278 338 411
#     4  11  25  42  69 103 145 182 230 292 354 426
#
# _framework density 20.242972000000002
#
# number of rings (size 3 to 8) (size 9 to 14) (size 15 to 20)
#    0.000    1.231    2.308    2.769    8.615    1.846 
#    0.000    0.769    0.000    0.000    0.000    0.000 
#    0.000    0.000    0.000    0.000    0.000    0.000 
#
# Total GULP energy -145041.360558 kJ/mol
# GULP energy per Si atom -5578.513868 kJ/mol
# Density = 2.019690 g / cm^3
# Si number density = 20.242972 Si / 1000 Ang^3
#
#
#
# Elastic Constant Matrix: (Units=GPa)
#
#
# Indices 1 2 3 4 5 6 
#
# 1 106.0077 11.2821 46.6528 0.0000 -14.7682 0.0000
# 2 11.2821 89.7826 27.1727 0.0000 -9.6449 0.0000
# 3 46.6528 27.1727 116.5803 0.0000 -9.5962 0.0000
# 4 0.0000 0.0000 0.0000 33.7209 0.0000 -1.7007
# 5 -14.7682 -9.6449 -9.5962 0.0000 26.1421 0.0000
# 6 0.0000 0.0000 0.0000 -1.7007 0.0000 19.3800
#
#
#
# Elastic Compliance Matrix: (Units=1/GPa)
#
#
# Indices 1 2 3 4 5 6 
#
# 1 0.012116 0.000415 -0.004506 0.000000 0.005344 0.000000
# 2 0.000415 0.012317 -0.002726 0.000000 0.003778 0.000000
# 3 -0.004506 -0.002726 0.011058 0.000000 0.000508 0.000000
# 4 0.000000 0.000000 0.000000 0.029787 0.000000 0.002614
# 5 0.005344 0.003778 0.000508 0.000000 0.042852 0.000000
# 6 0.000000 0.000000 0.000000 0.002614 0.000000 0.051829
#
#
# Mechanical properties :
#
#
# Convention : Reuss Voigt Hill
#
# Bulk Modulus (GPa) = 45.74905 53.62064 49.68484
# Shear Modulus (GPa) = 27.64294 30.99946 29.32120
#
# Velocity S-wave (km/s) = 3.69935 3.91752 3.81000
# Velocity P-wave (km/s) = 6.39500 6.85628 6.62965
#
# Compressibility (1/GPa) = 0.02185838
#
# Stress axis : x y z
#
# Youngs Moduli (GPa) = 82.53236 81.19057 90.43215
#
# Poissons Ratio (x) = -0.03371 0.40745
# Poissons Ratio (y) = -0.03426 0.24651
# Poissons Ratio (z) = 0.37186 0.22132
#
# Static dielectric constant tensor:
#      x y z
#    x 1.843330 0.000000 0.021940 
#    y 0.000000 1.732510 0.000000 
#    z 0.021940 0.000000 1.723720 
# 
# From -- ./inp_files/89702.got.cif
#   From: 2010.05.17/outbox.cif.g08.bks.cpg/sg15_45_cif.got.tgz:89702.got - 2010.06.03 18:47:42.
