data_PCOD9276706
_publ_section_title
;
Structure prediction by ZEFSAII (Michael W. Deem and Ramdas Pophale) SiO2 
 PCOD9276706
Probable space group: C 2/C
;
_chemical_formula_sum "Si O2"
_cell_formula_units_Z 56
_cell_length_a 18.619852
_cell_length_b 11.398990
_cell_length_c 13.857285
_cell_angle_alpha 90.000000
_cell_angle_beta 63.411458
_cell_angle_gamma 90.000000
_cell_volume 2630.126673
_symmetry_space_group_name_H-M "C 2/C"
_symmetry_group_IT_number 15
_symmetry_cell_setting 'monoclinic'
loop_
_space_group_symop_operation_xyz
x,y,z
-x,y,1/2-z
-x,-y,-z
x,-y,1/2+z
1/2+x,1/2+y,z
1/2-x,1/2+y,1/2-z
1/2-x,1/2-y,-z
1/2+x,1/2-y,1/2+z
loop_
_atom_site_type_symbol
_atom_site_label
_atom_site_fract_x
_atom_site_fract_y
_atom_site_fract_z
Si Si1 0.715849 0.615692 0.521438
Si Si2 0.885144 0.684221 0.151936
Si Si3 0.342612 0.984076 0.309763
Si Si4 0.583672 0.948948 0.049112
Si Si5 0.451014 0.180492 0.525741
Si Si6 0.711173 0.589591 0.748209
Si Si7 0.413646 0.568753 0.055869
O O1 0.750000 0.750000 0.500000
O O2 0.774482 0.539349 0.419712
O O3 0.714664 0.572059 0.631947
O O4 0.629178 0.593652 0.522584
O O5 0.889977 0.590763 0.233751
O O6 0.820833 0.779857 0.216047
O O7 0.865513 0.620444 0.062276
O O8 0.973891 0.733220 0.080388
O O9 0.395480 0.916162 0.355168
O O10 0.296645 0.922192 0.249949
O O11 0.493759 0.905200 0.077415
O O12 0.591793 0.087596 0.019389
O O13 0.414999 0.296424 0.593300
O O14 0.647455 0.505364 0.840652
O O15 0.500000 0.500000 0.000000
#
# Coordination Sequence:
#
# PCOD9276706 Si02
#       7
#     8   8   8   8   8   8   8
#     4  11  23  41  67  93 127 174 221 268 316 390
#     4  10  20  40  64  92 123 168 215 267 321 389
#     4  11  22  38  65  91 129 166 214 266 325 382
#     4   9  20  40  62  94 129 167 214 274 321 381
#     4   9  20  40  64  91 132 161 215 266 324 393
#     4  11  24  41  65  98 126 171 223 262 332 401
#     4  11  22  42  68  96 134 169 214 279 335 396
#
# _framework density 21.29175
#
# number of rings (size 3 to 8) (size 9 to 14) (size 15 to 20)
#    0.857    0.857    2.857    1.714    0.000    1.714 
#    0.000    1.429    6.286    0.000    0.000    0.000 
#    0.000    0.000    0.000    0.000    0.000    0.000 
#
# Total GULP energy -156078.656491 kJ/mol
# GULP energy per Si atom -5574.237732 kJ/mol
# Density = 2.124329 g / cm^3
# Si number density = 21.291750 Si / 1000 Ang^3
#
#
#
# Elastic Constant Matrix: (Units=GPa)
#
#
# Indices 1 2 3 4 5 6 
#
# 1 100.8756 13.2269 34.9320 0.0000 24.0565 0.0000
# 2 13.2269 60.0379 26.2059 0.0000 1.7817 0.0000
# 3 34.9320 26.2059 114.9668 0.0000 33.5411 0.0000
# 4 0.0000 0.0000 0.0000 32.0400 0.0000 -8.1828
# 5 24.0565 1.7817 33.5411 0.0000 30.2560 0.0000
# 6 0.0000 0.0000 0.0000 -8.1828 0.0000 22.9803
#
#
#
# Elastic Compliance Matrix: (Units=1/GPa)
#
#
# Indices 1 2 3 4 5 6 
#
# 1 0.012620 -0.002225 -0.000648 0.000000 -0.009185 0.000000
# 2 -0.002225 0.019482 -0.005832 0.000000 0.007088 0.000000
# 3 -0.000648 -0.005832 0.014742 0.000000 -0.015484 0.000000
# 4 0.000000 0.000000 0.000000 0.034333 0.000000 0.012225
# 5 -0.009185 0.007088 -0.015484 0.000000 0.057102 0.000000
# 6 0.000000 0.000000 0.000000 0.012225 0.000000 0.047869
#
#
# Mechanical properties :
#
#
# Convention : Reuss Voigt Hill
#
# Bulk Modulus (GPa) = 33.97526 47.17889 40.57708
# Shear Modulus (GPa) = 23.43359 30.48961 26.96160
#
# Velocity S-wave (km/s) = 3.32112 3.78827 3.56236
# Velocity P-wave (km/s) = 5.54059 6.42970 6.00163
#
# Compressibility (1/GPa) = 0.02943318
#
# Stress axis : x y z
#
# Youngs Moduli (GPa) = 79.24194 51.32991 67.83409
#
# Poissons Ratio (x) = 0.11421 0.04392
# Poissons Ratio (y) = 0.17631 0.39564
# Poissons Ratio (z) = 0.05131 0.29938
#
# Static dielectric constant tensor:
#      x y z
#    x 1.875430 0.000000 -0.008730 
#    y 0.000000 1.802690 0.000000 
#    z -0.008730 0.000000 1.783870 
# 
# From -- ./inp_files/111565.got.cif
#   From: 2010.05.17/outbox.cif.g08.bks.cpg/sg15_56_cif.got.tgz:111565.got - 2010.06.03 18:47:42.
