data_PCOD9276466
_publ_section_title
;
Structure prediction by ZEFSAII (Michael W. Deem and Ramdas Pophale) SiO2 
 PCOD9276466
Probable space group: C 2/C
;
_chemical_formula_sum "Si O2"
_cell_formula_units_Z 48
_cell_length_a 17.198641
_cell_length_b 8.753785
_cell_length_c 20.147917
_cell_angle_alpha 90.000000
_cell_angle_beta 52.329472
_cell_angle_gamma 90.000000
_cell_volume 2400.998687
_symmetry_space_group_name_H-M "C 2/C"
_symmetry_group_IT_number 15
_symmetry_cell_setting 'monoclinic'
loop_
_space_group_symop_operation_xyz
x,y,z
-x,y,1/2-z
-x,-y,-z
x,-y,1/2+z
1/2+x,1/2+y,z
1/2-x,1/2+y,1/2-z
1/2-x,1/2-y,-z
1/2+x,1/2-y,1/2+z
loop_
_atom_site_type_symbol
_atom_site_label
_atom_site_fract_x
_atom_site_fract_y
_atom_site_fract_z
Si Si1 0.665936 0.683765 0.340008
Si Si2 0.923846 0.885569 0.074340
Si Si3 0.621736 0.137380 0.304804
Si Si4 0.277666 0.789069 0.559960
Si Si5 0.615205 0.042902 0.938931
Si Si6 0.595153 0.829442 0.243909
O O1 0.655019 0.504087 0.354673
O O2 0.780513 0.719209 0.271500
O O3 0.603764 0.738930 0.308939
O O4 0.626780 0.777514 0.423641
O O5 0.946171 0.765465 0.122987
O O6 0.873143 0.793508 0.041016
O O7 0.000000 0.000000 0.000000
O O8 0.653681 0.032454 0.350474
O O9 0.589458 0.010321 0.267723
O O10 0.250000 0.750000 0.500000
O O11 0.314182 0.965254 0.544346
O O12 0.188944 0.729481 0.652822
O O13 0.500000 0.000000 0.000000
O O14 0.500000 0.793387 0.250000
#
# Coordination Sequence:
#
# PCOD9276466 Si02
#       6
#     8   8   8   8   8   8
#     4  11  19  40  67  90 120 168 223 265 309 387
#     4  11  22  39  66  95 124 166 218 269 320 384
#     4  10  20  40  62  88 122 167 216 261 308 384
#     4  11  24  42  59  95 133 163 209 266 328 384
#     4  10  21  37  63  92 123 168 209 255 323 390
#     4  11  24  40  64  93 125 170 214 264 325 379
#
# _framework density 19.991681
#
# number of rings (size 3 to 8) (size 9 to 14) (size 15 to 20)
#    0.000    1.333    5.000    3.000    7.000    0.000 
#    0.000    3.333    0.000    0.000    0.000    0.000 
#    0.000    0.000    0.000    0.000    0.000    0.000 
#
# Total GULP energy -133612.857111 kJ/mol
# GULP energy per Si atom -5567.202380 kJ/mol
# Density = 1.994618 g / cm^3
# Si number density = 19.991681 Si / 1000 Ang^3
#
#
#
# Elastic Constant Matrix: (Units=GPa)
#
#
# Indices 1 2 3 4 5 6 
#
# 1 85.0016 13.4120 14.3768 0.0000 12.2082 0.0000
# 2 13.4120 97.6531 17.6297 0.0000 10.7642 0.0001
# 3 14.3768 17.6297 71.8668 0.0000 -3.1174 0.0000
# 4 0.0000 0.0000 0.0000 40.7099 0.0000 -1.7586
# 5 12.2082 10.7642 -3.1174 0.0000 31.2493 0.0000
# 6 0.0000 0.0001 0.0000 -1.7586 0.0000 28.9931
#
#
#
# Elastic Compliance Matrix: (Units=1/GPa)
#
#
# Indices 1 2 3 4 5 6 
#
# 1 0.013065 -0.000753 -0.002651 0.000000 -0.005109 0.000000
# 2 -0.000753 0.011272 -0.002782 0.000000 -0.003866 0.000000
# 3 -0.002651 -0.002782 0.015280 0.000000 0.003518 0.000000
# 4 0.000000 0.000000 0.000000 0.024629 0.000000 0.001494
# 5 -0.005109 -0.003866 0.003518 0.000000 0.035680 0.000000
# 6 0.000000 0.000000 0.000000 0.001494 0.000000 0.034582
#
#
# Mechanical properties :
#
#
# Convention : Reuss Voigt Hill
#
# Bulk Modulus (GPa) = 36.70234 38.37316 37.53775
# Shear Modulus (GPa) = 32.05932 34.13067 33.09499
#
# Velocity S-wave (km/s) = 4.00888 4.13636 4.07312
# Velocity P-wave (km/s) = 6.31085 6.48451 6.39827
#
# Compressibility (1/GPa) = 0.02724622
#
# Stress axis : x y z
#
# Youngs Moduli (GPa) = 76.53799 88.71384 65.44479
#
# Poissons Ratio (x) = 0.06677 0.17347
# Poissons Ratio (y) = 0.05761 0.18209
# Poissons Ratio (z) = 0.20288 0.24683
#
# Static dielectric constant tensor:
#      x y z
#    x 1.718040 0.000000 -0.072100 
#    y 0.000000 1.826820 0.000000 
#    z -0.072100 0.000000 1.801780 
# 
# From -- ./inp_files/247266.got.cif
#   From: 2010.05.17/outbox.cif.g08.bks.cpg/sg15_124_cif.got.tgz:247266.got - 2010.06.03 18:47:42.
