data_PCOD9276094
_publ_section_title
;
Structure prediction by ZEFSAII (Michael W. Deem and Ramdas Pophale) SiO2 
 PCOD9276094
Probable space group: C 2/C
;
_chemical_formula_sum "Si O2"
_cell_formula_units_Z 52
_cell_length_a 17.881990
_cell_length_b 8.213180
_cell_length_c 23.459708
_cell_angle_alpha 90.000000
_cell_angle_beta 135.437537
_cell_angle_gamma 90.000000
_cell_volume 2417.646855
_symmetry_space_group_name_H-M "C 2/C"
_symmetry_group_IT_number 15
_symmetry_cell_setting 'monoclinic'
loop_
_space_group_symop_operation_xyz
x,y,z
-x,y,1/2-z
-x,-y,-z
x,-y,1/2+z
1/2+x,1/2+y,z
1/2-x,1/2+y,1/2-z
1/2-x,1/2-y,-z
1/2+x,1/2-y,1/2+z
loop_
_atom_site_type_symbol
_atom_site_label
_atom_site_fract_x
_atom_site_fract_y
_atom_site_fract_z
Si Si1 0.375133 0.276014 0.582114
Si Si2 0.164880 0.020861 0.753375
Si Si3 0.491333 0.971958 0.075140
Si Si4 0.605200 0.537665 0.520304
Si Si5 0.500000 0.581992 0.250000
Si Si6 0.352451 0.813320 0.423555
Si Si7 0.670773 0.753033 0.654255
O O1 0.250000 0.250000 0.500000
O O2 0.446944 0.117604 0.606139
O O3 0.407977 0.410848 0.552208
O O4 0.408539 0.324201 0.664195
O O5 0.249683 0.127616 0.834458
O O6 0.155439 0.100073 0.686802
O O7 0.216883 0.842246 0.776005
O O8 0.059762 0.016719 0.733512
O O9 0.548919 0.834176 0.067519
O O10 0.580192 0.115094 0.123109
O O11 0.389144 0.054767 0.990143
O O12 0.500000 0.500000 0.500000
O O13 0.663313 0.363560 0.558306
O O14 0.660933 0.684860 0.585080
#
# Coordination Sequence:
#
# PCOD9276094 Si02
#       7
#     8   8   8   8   4   8   8
#     4  12  26  47  68  98 142 192 229 280 366 426
#     4  11  25  44  66 101 142 178 231 289 349 413
#     4  10  20  39  68  97 132 171 229 286 338 411
#     4  12  20  39  73 101 128 177 232 287 346 410
#     4  12  28  46  68  98 150 184 226 294 358 420
#     4  10  20  39  68 103 129 170 229 292 340 404
#     4  11  23  40  71 101 133 176 235 289 344 413
#
# _framework density 21.508519
#
# number of rings (size 3 to 8) (size 9 to 14) (size 15 to 20)
#    0.000    0.923    3.077    5.538    4.308    0.000 
#    5.538    1.538    0.000    0.000    0.000    0.000 
#    0.000    0.000    0.000    0.000    0.000    0.000 
#
# Total GULP energy -145179.529109 kJ/mol
# GULP energy per Si atom -5583.828043 kJ/mol
# Density = 2.145956 g / cm^3
# Si number density = 21.508519 Si / 1000 Ang^3
#
#
#
# Elastic Constant Matrix: (Units=GPa)
#
#
# Indices 1 2 3 4 5 6 
#
# 1 60.5077 22.3659 27.3219 0.0000 -8.1099 0.0000
# 2 22.3659 84.6018 18.8413 0.0000 -1.5214 0.0000
# 3 27.3219 18.8413 91.1609 0.0000 -4.5746 0.0000
# 4 0.0000 0.0000 0.0000 38.4664 0.0000 -4.1819
# 5 -8.1099 -1.5214 -4.5746 0.0000 27.7668 0.0000
# 6 0.0000 0.0000 0.0000 -4.1819 0.0000 22.3094
#
#
#
# Elastic Compliance Matrix: (Units=1/GPa)
#
#
# Indices 1 2 3 4 5 6 
#
# 1 0.021158 -0.004347 -0.005188 0.000000 0.005087 0.000000
# 2 -0.004347 0.013285 -0.001483 0.000000 -0.000786 0.000000
# 3 -0.005188 -0.001483 0.012857 0.000000 0.000522 0.000000
# 4 0.000000 0.000000 0.000000 0.026538 0.000000 0.004975
# 5 0.005087 -0.000786 0.000522 0.000000 0.037543 0.000000
# 6 0.000000 0.000000 0.000000 0.004975 0.000000 0.045757
#
#
# Mechanical properties :
#
#
# Convention : Reuss Voigt Hill
#
# Bulk Modulus (GPa) = 39.57809 41.48094 40.52952
# Shear Modulus (GPa) = 26.65352 28.89127 27.77240
#
# Velocity S-wave (km/s) = 3.52406 3.66901 3.59726
# Velocity P-wave (km/s) = 5.91606 6.10545 6.01150
#
# Compressibility (1/GPa) = 0.02526651
#
# Stress axis : x y z
#
# Youngs Moduli (GPa) = 47.26419 75.27162 77.77884
#
# Poissons Ratio (x) = 0.32718 0.40348
# Poissons Ratio (y) = 0.20544 0.11531
# Poissons Ratio (z) = 0.24518 0.11159
#
# Static dielectric constant tensor:
#      x y z
#    x 1.782350 0.000000 0.035990 
#    y 0.000000 1.830650 0.000000 
#    z 0.035990 0.000000 1.817190 
# 
# From -- ./inp_files/247885.got.cif
#   From: 2010.05.17/outbox.cif.g08.bks.cpg/sg15_124_cif.got.tgz:247885.got - 2010.06.03 18:47:42.
