data_PCOD9276438
_publ_section_title
;
Structure prediction by ZEFSAII (Michael W. Deem and Ramdas Pophale) SiO2 
 PCOD9276438
Probable space group: C 2/C
;
_chemical_formula_sum "Si O2"
_cell_formula_units_Z 40
_cell_length_a 7.846059
_cell_length_b 18.183102
_cell_length_c 11.151720
_cell_angle_alpha 90.000000
_cell_angle_beta 77.307149
_cell_angle_gamma 90.000000
_cell_volume 1552.087717
_symmetry_space_group_name_H-M "C 2/C"
_symmetry_group_IT_number 15
_symmetry_cell_setting 'monoclinic'
loop_
_space_group_symop_operation_xyz
x,y,z
-x,y,1/2-z
-x,-y,-z
x,-y,1/2+z
1/2+x,1/2+y,z
1/2-x,1/2+y,1/2-z
1/2-x,1/2-y,-z
1/2+x,1/2-y,1/2+z
loop_
_atom_site_type_symbol
_atom_site_label
_atom_site_fract_x
_atom_site_fract_y
_atom_site_fract_z
Si Si1 0.094920 0.163400 0.116396
Si Si2 0.371864 0.124162 0.416713
Si Si3 0.729730 0.954499 0.790707
Si Si4 0.684744 0.123738 0.790544
Si Si5 0.572186 0.262865 0.383151
O O1 0.139920 0.077847 0.129978
O O2 0.283265 0.204107 0.092953
O O3 0.000000 0.191146 0.250000
O O4 0.011547 0.189111 0.006226
O O5 0.242848 0.091640 0.336323
O O6 0.537694 0.068694 0.369971
O O7 0.334384 0.128120 0.562939
O O8 0.419248 0.207125 0.370160
O O9 0.741365 0.039551 0.760920
O O10 0.500000 0.135042 0.750000
O O11 0.826941 0.180245 0.717581
#
# Coordination Sequence:
#
# PCOD9276438 Si02
#       5
#     8   8   8   8   8
#     4  10  20  40  62  84 124 170 203 262 311 370
#     4  10  21  40  60  95 128 159 207 266 308 365
#     4  10  22  37  63  92 128 162 211 258 312 371
#     4  12  21  35  66  95 125 166 210 260 308 372
#     4  10  21  36  63  93 120 159 220 250 310 378
#
# _framework density 25.771740000000001
#
# number of rings (size 3 to 8) (size 9 to 14) (size 15 to 20)
#    0.000    1.600    2.000    6.000    2.800    0.000 
#    0.000   21.000    8.800    0.000    0.000    0.000 
#    0.000    0.000    0.000    0.000    0.000    0.000 
#
# Total GULP energy -111987.555016 kJ/mol
# GULP energy per Si atom -5599.377751 kJ/mol
# Density = 2.571308 g / cm^3
# Si number density = 25.771740 Si / 1000 Ang^3
#
#
#
# Elastic Constant Matrix: (Units=GPa)
#
#
# Indices 1 2 3 4 5 6 
#
# 1 95.4711 42.5134 15.2388 0.0000 16.5052 0.0000
# 2 42.5134 220.2861 53.9652 0.0000 11.3242 0.0000
# 3 15.2388 53.9652 193.6195 0.0000 14.5943 0.0000
# 4 0.0000 0.0000 0.0000 24.1633 0.0000 -2.4582
# 5 16.5052 11.3242 14.5943 0.0000 32.6883 0.0000
# 6 0.0000 0.0000 0.0000 -2.4582 0.0000 27.2946
#
#
#
# Elastic Compliance Matrix: (Units=1/GPa)
#
#
# Indices 1 2 3 4 5 6 
#
# 1 0.012364 -0.002110 0.000031 0.000000 -0.005526 0.000000
# 2 -0.002110 0.005272 -0.001289 0.000000 -0.000185 0.000000
# 3 0.000031 -0.001289 0.005680 0.000000 -0.002105 0.000000
# 4 0.000000 0.000000 0.000000 0.041768 0.000000 0.003762
# 5 -0.005526 -0.000185 -0.002105 0.000000 0.034386 0.000000
# 6 0.000000 0.000000 0.000000 0.003762 0.000000 0.036976
#
#
# Mechanical properties :
#
#
# Convention : Reuss Voigt Hill
#
# Bulk Modulus (GPa) = 60.30924 81.42349 70.86637
# Shear Modulus (GPa) = 33.62258 43.33988 38.48123
#
# Velocity S-wave (km/s) = 3.61588 4.10528 3.86833
# Velocity P-wave (km/s) = 6.39413 7.35757 6.89270
#
# Compressibility (1/GPa) = 0.01658121
#
# Stress axis : x y z
#
# Youngs Moduli (GPa) = 80.87839 189.67637 176.04508
#
# Poissons Ratio (x) = 0.40018 -0.00554
# Poissons Ratio (y) = 0.17064 0.22699
# Poissons Ratio (z) = -0.00254 0.24457
#
# Static dielectric constant tensor:
#      x y z
#    x 2.164390 0.000000 -0.001570 
#    y 0.000000 1.970700 0.000000 
#    z -0.001570 0.000000 2.078010 
# 
# From -- ./inp_files/87069.got.cif
#   From: 2010.05.17/outbox.cif.g08.bks.cpg/sg15_44_cif.got.tgz:87069.got - 2010.06.03 18:47:42.
