data_PCOD9276019
_publ_section_title
;
Structure prediction by ZEFSAII (Michael W. Deem and Ramdas Pophale) SiO2 
 PCOD9276019
Probable space group: C 2/C
;
_chemical_formula_sum "Si O2"
_cell_formula_units_Z 48
_cell_length_a 11.284217
_cell_length_b 22.583918
_cell_length_c 11.528836
_cell_angle_alpha 90.000000
_cell_angle_beta 127.035424
_cell_angle_gamma 90.000000
_cell_volume 2345.321198
_symmetry_space_group_name_H-M "C 2/C"
_symmetry_group_IT_number 15
_symmetry_cell_setting 'monoclinic'
loop_
_space_group_symop_operation_xyz
x,y,z
-x,y,1/2-z
-x,-y,-z
x,-y,1/2+z
1/2+x,1/2+y,z
1/2-x,1/2+y,1/2-z
1/2-x,1/2-y,-z
1/2+x,1/2-y,1/2+z
loop_
_atom_site_type_symbol
_atom_site_label
_atom_site_fract_x
_atom_site_fract_y
_atom_site_fract_z
Si Si1 0.613607 0.924273 0.996049
Si Si2 0.125218 0.660962 0.722763
Si Si3 0.324506 0.297765 0.754688
Si Si4 0.840956 0.025373 0.188688
Si Si5 0.851554 0.855103 0.545392
Si Si6 0.797150 0.594962 0.201896
O O1 0.706269 0.903859 0.937914
O O2 0.450071 0.931155 0.844690
O O3 0.599574 0.879694 0.095994
O O4 0.702785 0.982183 0.088428
O O5 0.148125 0.729646 0.703556
O O6 0.000000 0.655924 0.750000
O O7 0.274757 0.642227 0.877108
O O8 0.278861 0.308383 0.593452
O O9 0.481225 0.331643 0.863875
O O10 0.212555 0.336951 0.762623
O O11 0.833854 0.082045 0.098547
O O12 0.826685 0.054024 0.308670
O O13 0.000000 0.997069 0.250000
#
# Coordination Sequence:
#
# PCOD9276019 Si02
#       6
#     8   8   8   8   8   8
#     4  11  27  41  65 100 136 184 212 277 343 401
#     4  12  24  38  68 103 133 169 237 275 321 400
#     4  10  20  40  70  94 129 175 218 276 333 382
#     4  11  22  44  72  94 132 175 230 277 328 399
#     4  10  20  39  67 103 122 170 218 283 324 373
#     4  10  23  47  65  92 141 176 220 270 350 399
#
# _framework density 20.466279
#
# number of rings (size 3 to 8) (size 9 to 14) (size 15 to 20)
#    0.000    1.333    5.000    3.000    4.667    2.667 
#    0.000    0.000    3.667    0.000    0.000    0.000 
#    0.000    0.000    0.000    0.000    0.000    0.000 
#
# Total GULP energy -133865.856394 kJ/mol
# GULP energy per Si atom -5577.744016 kJ/mol
# Density = 2.041970 g / cm^3
# Si number density = 20.466279 Si / 1000 Ang^3
#
#
#
# Elastic Constant Matrix: (Units=GPa)
#
#
# Indices 1 2 3 4 5 6 
#
# 1 92.3616 42.8473 29.2148 0.0000 -18.6614 0.0000
# 2 42.8473 115.1441 28.3179 0.0000 -7.2165 0.0000
# 3 29.2148 28.3179 83.7175 0.0000 -21.1301 0.0000
# 4 0.0000 0.0000 0.0000 41.0933 0.0000 -15.1060
# 5 -18.6614 -7.2165 -21.1301 0.0000 29.2177 0.0000
# 6 0.0000 0.0000 0.0000 -15.1060 0.0000 37.8576
#
#
#
# Elastic Compliance Matrix: (Units=1/GPa)
#
#
# Indices 1 2 3 4 5 6 
#
# 1 0.015024 -0.004687 -0.001869 0.000000 0.007087 0.000000
# 2 -0.004687 0.010935 -0.002614 0.000000 -0.002183 0.000000
# 3 -0.001869 -0.002614 0.015924 0.000000 0.009677 0.000000
# 4 0.000000 0.000000 0.000000 0.028518 0.000000 0.011379
# 5 0.007087 -0.002183 0.009677 0.000000 0.045211 0.000000
# 6 0.000000 0.000000 0.000000 0.011379 0.000000 0.030955
#
#
# Mechanical properties :
#
#
# Convention : Reuss Voigt Hill
#
# Bulk Modulus (GPa) = 42.47602 54.66480 48.57041
# Shear Modulus (GPa) = 28.94260 34.35659 31.64960
#
# Velocity S-wave (km/s) = 3.76461 4.10163 3.93673
# Velocity P-wave (km/s) = 6.30045 7.01419 6.66688
#
# Compressibility (1/GPa) = 0.02354269
#
# Stress axis : x y z
#
# Youngs Moduli (GPa) = 66.55822 91.44924 62.79919
#
# Poissons Ratio (x) = 0.42863 0.11737
# Poissons Ratio (y) = 0.31196 0.16417
# Poissons Ratio (z) = 0.12439 0.23907
#
# Static dielectric constant tensor:
#      x y z
#    x 1.803620 0.000000 0.027830 
#    y 0.000000 1.726290 0.000000 
#    z 0.027830 0.000000 1.744810 
# 
# From -- ./inp_files/89779.got.cif
#   From: 2010.05.17/outbox.cif.g08.bks.cpg/sg15_45_cif.got.tgz:89779.got - 2010.06.03 18:47:42.
