data_PCOD9276452
_publ_section_title
;
Structure prediction by ZEFSAII (Michael W. Deem and Ramdas Pophale) SiO2 
 PCOD9276452
Probable space group: C 2/C
;
_chemical_formula_sum "Si O2"
_cell_formula_units_Z 48
_cell_length_a 16.326136
_cell_length_b 9.942339
_cell_length_c 14.810554
_cell_angle_alpha 90.000000
_cell_angle_beta 93.379623
_cell_angle_gamma 90.000000
_cell_volume 2399.867824
_symmetry_space_group_name_H-M "C 2/C"
_symmetry_group_IT_number 15
_symmetry_cell_setting 'monoclinic'
loop_
_space_group_symop_operation_xyz
x,y,z
-x,y,1/2-z
-x,-y,-z
x,-y,1/2+z
1/2+x,1/2+y,z
1/2-x,1/2+y,1/2-z
1/2-x,1/2-y,-z
1/2+x,1/2-y,1/2+z
loop_
_atom_site_type_symbol
_atom_site_label
_atom_site_fract_x
_atom_site_fract_y
_atom_site_fract_z
Si Si1 0.713896 0.063398 0.152252
Si Si2 0.010881 0.151425 0.966033
Si Si3 0.787557 0.580859 0.134313
Si Si4 0.837079 0.851571 0.377683
Si Si5 0.415460 0.921883 0.483446
Si Si6 0.651556 0.635365 0.833919
O O1 0.699185 0.047467 0.259094
O O2 0.718540 0.218993 0.125180
O O3 0.800665 0.997539 0.135403
O O4 0.641036 0.985200 0.097522
O O5 0.058387 0.264901 0.027421
O O6 0.066612 0.149998 0.879888
O O7 0.917520 0.188730 0.937986
O O8 0.000000 0.000000 0.000000
O O9 0.711028 0.488013 0.099175
O O10 0.862881 0.556796 0.071719
O O11 0.785485 0.743405 0.135866
O O12 0.861800 0.866530 0.274019
O O13 0.500000 0.000000 0.500000
#
# Coordination Sequence:
#
# PCOD9276452 Si02
#       6
#     8   8   8   8   8   8
#     4  10  21  39  63  87 120 155 201 249 293 358
#     4  11  24  37  59  89 120 156 199 248 300 353
#     4   9  22  38  63  89 116 160 199 243 300 356
#     4  10  20  40  62  86 118 156 200 242 297 359
#     4  11  23  40  60  89 120 159 202 243 300 355
#     4   9  21  40  62  85 116 160 199 242 297 353
#
# _framework density 20.001100999999998
#
# number of rings (size 3 to 8) (size 9 to 14) (size 15 to 20)
#    0.000    2.000    1.667    0.500    4.667    4.000 
#    0.000    0.000    3.667    0.000    0.000    0.000 
#    0.000    0.000    0.000    0.000    0.000    0.000 
#
# Total GULP energy -133803.086505 kJ/mol
# GULP energy per Si atom -5575.128604 kJ/mol
# Density = 1.995558 g / cm^3
# Si number density = 20.001101 Si / 1000 Ang^3
#
#
#
# Elastic Constant Matrix: (Units=GPa)
#
#
# Indices 1 2 3 4 5 6 
#
# 1 54.1366 7.0065 0.0422 0.0000 -5.8581 0.0000
# 2 7.0065 72.7430 7.8546 0.0000 -10.3621 0.0000
# 3 0.0422 7.8546 26.1151 0.0000 -7.1442 0.0000
# 4 0.0000 0.0000 0.0000 22.5619 0.0000 -0.3162
# 5 -5.8581 -10.3621 -7.1442 0.0000 24.9195 0.0000
# 6 0.0000 0.0000 0.0000 -0.3162 0.0000 43.0930
#
#
#
# Elastic Compliance Matrix: (Units=1/GPa)
#
#
# Indices 1 2 3 4 5 6 
#
# 1 0.019124 -0.001390 0.001583 0.000000 0.004371 0.000000
# 2 -0.001390 0.014928 -0.003124 0.000000 0.004985 0.000000
# 3 0.001583 -0.003124 0.042292 0.000000 0.011198 0.000000
# 4 0.000000 0.000000 0.000000 0.044327 0.000000 0.000325
# 5 0.004371 0.004985 0.011198 0.000000 0.046440 0.000000
# 6 0.000000 0.000000 0.000000 0.000325 0.000000 0.023208
#
#
# Mechanical properties :
#
#
# Convention : Reuss Voigt Hill
#
# Bulk Modulus (GPa) = 14.18802 20.31127 17.24965
# Shear Modulus (GPa) = 22.76082 27.32097 25.04089
#
# Velocity S-wave (km/s) = 3.37705 3.69992 3.54217
# Velocity P-wave (km/s) = 4.72388 5.33194 5.03709
#
# Compressibility (1/GPa) = 0.07048199
#
# Stress axis : x y z
#
# Youngs Moduli (GPa) = 52.29168 66.98652 23.64489
#
# Poissons Ratio (x) = 0.09312 -0.03743
# Poissons Ratio (y) = 0.07270 0.07387
# Poissons Ratio (z) = -0.08278 0.20927
#
# Static dielectric constant tensor:
#      x y z
#    x 1.690680 0.000000 0.009820 
#    y 0.000000 1.758870 0.000000 
#    z 0.009820 0.000000 1.720380 
# 
# From -- ./inp_files/202983.got.cif
#   From: 2010.05.17/outbox.cif.g08.bks.cpg/sg15_102_cif.got.tgz:202983.got - 2010.06.03 18:47:42.
