data_PCOD9276505
_publ_section_title
;
Structure prediction by ZEFSAII (Michael W. Deem and Ramdas Pophale) SiO2 
 PCOD9276505
Probable space group: C 2/C
;
_chemical_formula_sum "Si O2"
_cell_formula_units_Z 60
_cell_length_a 26.836450
_cell_length_b 6.983337
_cell_length_c 12.657008
_cell_angle_alpha 90.000000
_cell_angle_beta 96.612038
_cell_angle_gamma 90.000000
_cell_volume 2356.246935
_symmetry_space_group_name_H-M "C 2/C"
_symmetry_group_IT_number 15
_symmetry_cell_setting 'monoclinic'
loop_
_space_group_symop_operation_xyz
x,y,z
-x,y,1/2-z
-x,-y,-z
x,-y,1/2+z
1/2+x,1/2+y,z
1/2-x,1/2+y,1/2-z
1/2-x,1/2-y,-z
1/2+x,1/2-y,1/2+z
loop_
_atom_site_type_symbol
_atom_site_label
_atom_site_fract_x
_atom_site_fract_y
_atom_site_fract_z
Si Si1 0.705738 0.880093 0.941891
Si Si2 0.108468 0.258163 0.051699
Si Si3 0.897401 0.994990 0.263003
Si Si4 0.289983 0.567135 0.717482
Si Si5 0.401718 0.134299 0.365882
Si Si6 0.499471 0.268843 0.989999
Si Si7 0.000000 0.201568 0.250000
Si Si8 0.709706 0.793727 0.587193
O O1 0.703142 0.782819 0.826470
O O2 0.750000 0.750000 0.000000
O O3 0.655711 0.808168 0.991971
O O4 0.714773 0.107699 0.970300
O O5 0.105988 0.409287 0.148468
O O6 0.055619 0.283056 0.979621
O O7 0.106948 0.059864 0.114487
O O8 0.842546 0.038581 0.203597
O O9 0.903455 0.766691 0.264506
O O10 0.948110 0.082681 0.232195
O O11 0.283689 0.599158 0.841225
O O12 0.244607 0.451171 0.655707
O O13 0.452556 0.182689 0.440845
O O14 0.350503 0.186227 0.414162
O O15 0.499528 0.206236 0.866367
O O16 0.500000 0.500000 0.000000
#
# Coordination Sequence:
#
# PCOD9276505 Si02
#       8
#     8   8   8   8   8   8   4   8
#     4   9  20  38  61  91 127 173 222 262 336 400
#     4  10  21  38  66  89 128 173 213 269 327 381
#     4  10  22  38  64  96 126 171 217 270 331 389
#     4  10  21  37  67  90 129 178 218 279 331 389
#     4  10  20  40  62  92 126 168 214 263 329 386
#     4  11  21  40  67  92 131 173 212 267 327 395
#     4  10  22  40  64  98 126 164 228 262 322 404
#     4   9  21  39  61  93 128 166 222 274 323 393
#
# _framework density 25.464226
#
# number of rings (size 3 to 8) (size 9 to 14) (size 15 to 20)
#    0.000    2.133    2.667    0.400    7.467    0.000 
#    0.000   19.333    8.800    0.000    0.000    0.000 
#    0.000    0.000    0.000    0.000    0.000    0.000 
#
# Total GULP energy -167089.400916 kJ/mol
# GULP energy per Si atom -5569.646697 kJ/mol
# Density = 2.540627 g / cm^3
# Si number density = 25.464226 Si / 1000 Ang^3
#
#
#
# Elastic Constant Matrix: (Units=GPa)
#
#
# Indices 1 2 3 4 5 6 
#
# 1 33.6626 -39.8787 109.2844 0.0000 41.8305 0.0000
# 2 -39.8787 59.1047 20.8735 0.0000 17.1780 0.0000
# 3 109.2844 20.8735 48.1745 0.0000 -12.3870 0.0000
# 4 0.0000 0.0000 0.0000 33.9622 0.0000 19.6385
# 5 41.8305 17.1780 -12.3870 0.0000 37.7020 0.0000
# 6 0.0000 0.0000 0.0000 19.6385 0.0000 -6.2403
#
#
#
# Elastic Compliance Matrix: (Units=1/GPa)
#
#
# Indices 1 2 3 4 5 6 
#
# 1 -0.001168 -0.004395 0.005902 0.000000 0.005238 0.000000
# 2 -0.004395 0.011770 0.005183 0.000000 0.001216 0.000000
# 3 0.005902 0.005183 0.003095 0.000000 -0.007893 0.000000
# 4 0.000000 0.000000 0.000000 0.010442 0.000000 0.032862
# 5 0.005238 0.001216 -0.007893 0.000000 0.017565 0.000000
# 6 0.000000 0.000000 0.000000 0.032862 0.000000 -0.056830
#
#
# Mechanical properties :
#
#
# Convention : Reuss Voigt Hill
#
# Bulk Modulus (GPa) = 36.93373 35.72223 36.32798
# Shear Modulus (GPa) = -256.64903 16.46229 -120.09337
#
# Velocity S-wave (km/s) = -10.05022 2.54537 -6.87488
# Velocity P-wave (km/s) = 10.96085 4.76418 6.98007
#
# Compressibility (1/GPa) = 0.02707552
#
# Stress axis : x y z
#
# Youngs Moduli (GPa) = -855.83331 84.96319 323.15008
#
# Poissons Ratio (x) = 0.37341 -1.90714
# Poissons Ratio (y) = -3.76134 -1.67490
# Poissons Ratio (z) = 5.05089 -0.44037
#
# Static dielectric constant tensor:
#      x y z
#    x 2.036140 0.000000 -0.006290 
#    y 0.000000 2.071370 0.000000 
#    z -0.006290 0.000000 2.061480 
# 
# From -- ./inp_files/171930.got.cif
#   From: 2010.05.17/outbox.cif.g08.bks.cpg/sg15_86_cif.got.tgz:171930.got - 2010.06.03 18:47:42.
