data_PCOD9276295
_publ_section_title
;
Structure prediction by ZEFSAII (Michael W. Deem and Ramdas Pophale) SiO2 
 PCOD9276295
Probable space group: C 2/C
;
_chemical_formula_sum "Si O2"
_cell_formula_units_Z 44
_cell_length_a 25.382941
_cell_length_b 11.498820
_cell_length_c 12.846503
_cell_angle_alpha 90.000000
_cell_angle_beta 35.937944
_cell_angle_gamma 90.000000
_cell_volume 2200.648441
_symmetry_space_group_name_H-M "C 2/C"
_symmetry_group_IT_number 15
_symmetry_cell_setting 'monoclinic'
loop_
_space_group_symop_operation_xyz
x,y,z
-x,y,1/2-z
-x,-y,-z
x,-y,1/2+z
1/2+x,1/2+y,z
1/2-x,1/2+y,1/2-z
1/2-x,1/2-y,-z
1/2+x,1/2-y,1/2+z
loop_
_atom_site_type_symbol
_atom_site_label
_atom_site_fract_x
_atom_site_fract_y
_atom_site_fract_z
Si Si1 0.676829 0.354273 0.507680
Si Si2 0.468014 0.876658 0.504815
Si Si3 0.553479 0.239076 0.059068
Si Si4 0.802279 0.873404 0.794531
Si Si5 0.183326 0.514876 0.848528
Si Si6 0.000000 0.252514 0.250000
O O1 0.735968 0.236964 0.410528
O O2 0.655020 0.388597 0.660669
O O3 0.742048 0.447181 0.352834
O O4 0.586055 0.326842 0.591843
O O5 0.485989 0.788997 0.570790
O O6 0.370697 0.905963 0.613404
O O7 0.520739 0.831341 0.318195
O O8 0.500000 0.000000 0.500000
O O9 0.500000 0.263981 0.250000
O O10 0.622181 0.337994 0.910045
O O11 0.614036 0.121256 0.977344
O O12 0.738199 0.977643 0.862132
#
# Coordination Sequence:
#
# PCOD9276295 Si02
#       6
#     8   8   8   8   8   4
#     4  10  22  37  62  89 121 160 205 247 304 362
#     4  10  22  34  61  95 114 158 201 255 294 349
#     4  10  22  38  59  92 124 153 200 250 309 352
#     4  10  20  40  59  88 123 158 197 257 302 356
#     4  10  22  36  61  89 120 157 203 248 302 357
#     4  12  20  42  64  88 124 162 206 248 298 368
#
# _framework density 19.994108000000001
#
# number of rings (size 3 to 8) (size 9 to 14) (size 15 to 20)
#    0.000    1.818    3.636    0.000   10.182    0.000 
#    1.636    3.636    0.000    0.000    0.000    0.000 
#    0.000    0.000    0.000    0.000    0.000    0.000 
#
# Total GULP energy -122677.995276 kJ/mol
# GULP energy per Si atom -5576.272513 kJ/mol
# Density = 1.994860 g / cm^3
# Si number density = 19.994108 Si / 1000 Ang^3
#
#
#
# Elastic Constant Matrix: (Units=GPa)
#
#
# Indices 1 2 3 4 5 6 
#
# 1 59.2111 2.4689 19.0809 0.0000 10.6309 0.0000
# 2 2.4689 15.9994 9.4267 0.0000 -0.9637 0.0000
# 3 19.0809 9.4267 117.1642 0.0000 9.9058 0.0000
# 4 0.0000 0.0000 0.0000 13.1407 0.0000 -4.8383
# 5 10.6309 -0.9637 9.9058 0.0000 37.6500 0.0000
# 6 0.0000 0.0000 0.0000 -4.8383 0.0000 20.8019
#
#
#
# Elastic Compliance Matrix: (Units=1/GPa)
#
#
# Indices 1 2 3 4 5 6 
#
# 1 0.018597 -0.001675 -0.002502 0.000000 -0.004636 0.000000
# 2 -0.001675 0.066128 -0.005350 0.000000 0.003573 0.000000
# 3 -0.002502 -0.005350 0.009537 0.000000 -0.001940 0.000000
# 4 0.000000 0.000000 0.000000 0.083227 0.000000 0.019358
# 5 -0.004636 0.003573 -0.001940 0.000000 0.028471 0.000000
# 6 0.000000 0.000000 0.000000 0.019358 0.000000 0.052575
#
#
# Mechanical properties :
#
#
# Convention : Reuss Voigt Hill
#
# Bulk Modulus (GPa) = 13.29632 28.25865 20.77748
# Shear Modulus (GPa) = 16.52032 25.07841 20.79937
#
# Velocity S-wave (km/s) = 2.87759 3.54544 3.22883
# Velocity P-wave (km/s) = 4.20776 5.56097 4.93100
#
# Compressibility (1/GPa) = 0.07520880
#
# Stress axis : x y z
#
# Youngs Moduli (GPa) = 53.77177 15.12220 104.85566
#
# Poissons Ratio (x) = 0.02533 0.26235
# Poissons Ratio (y) = 0.09006 0.56096
# Poissons Ratio (z) = 0.13454 0.08090
#
# Static dielectric constant tensor:
#      x y z
#    x 1.740060 0.000000 0.000470 
#    y 0.000000 1.719390 0.000000 
#    z 0.000470 0.000000 1.687310 
# 
# From -- ./inp_files/95083.got.cif
#   From: 2010.05.17/outbox.cif.g08.bks.cpg/sg15_48_cif.got.tgz:95083.got - 2010.06.03 18:47:42.
