data_PCOD9276040
_publ_section_title
;
Structure prediction by ZEFSAII (Michael W. Deem and Ramdas Pophale) SiO2 
 PCOD9276040
Probable space group: C 2/C
;
_chemical_formula_sum "Si O2"
_cell_formula_units_Z 48
_cell_length_a 21.892959
_cell_length_b 10.677133
_cell_length_c 25.921844
_cell_angle_alpha 90.000000
_cell_angle_beta 22.147203
_cell_angle_gamma 90.000000
_cell_volume 2284.293512
_symmetry_space_group_name_H-M "C 2/C"
_symmetry_group_IT_number 15
_symmetry_cell_setting 'monoclinic'
loop_
_space_group_symop_operation_xyz
x,y,z
-x,y,1/2-z
-x,-y,-z
x,-y,1/2+z
1/2+x,1/2+y,z
1/2-x,1/2+y,1/2-z
1/2-x,1/2-y,-z
1/2+x,1/2-y,1/2+z
loop_
_atom_site_type_symbol
_atom_site_label
_atom_site_fract_x
_atom_site_fract_y
_atom_site_fract_z
Si Si1 0.995628 0.439090 0.095304
Si Si2 0.315687 0.407477 0.790662
Si Si3 0.965057 0.275288 0.925801
Si Si4 0.435877 0.201972 0.857798
Si Si5 0.871561 0.952139 0.142782
Si Si6 0.891657 0.173126 0.785504
O O1 0.805883 0.408435 0.237949
O O2 0.001902 0.586759 0.079306
O O3 0.053435 0.408667 0.108298
O O4 0.129448 0.376249 0.952639
O O5 0.443287 0.306690 0.712390
O O6 0.342118 0.441752 0.709965
O O7 0.354556 0.538025 0.789542
O O8 0.048384 0.168504 0.893723
O O9 0.026438 0.260634 0.820305
O O10 0.774690 0.259496 0.072016
O O11 0.500000 0.171870 0.750000
O O12 0.250000 0.250000 0.000000
O O13 0.000000 0.000000 0.000000
O O14 0.000000 0.153449 0.750000
#
# Coordination Sequence:
#
# PCOD9276040 Si02
#       6
#     8   8   8   8   8   8
#     4  11  25  45  70  98 139 188 225 293 361 424
#     4  10  24  45  68  96 134 184 229 288 360 421
#     4  10  23  42  63 101 131 171 228 276 343 415
#     4  12  26  47  73 104 139 183 243 299 363 440
#     4  11  25  44  72 102 139 181 241 293 350 426
#     4  10  20  39  67  92 130 171 214 274 341 413
#
# _framework density 21.013062999999999
#
# number of rings (size 3 to 8) (size 9 to 14) (size 15 to 20)
#    0.000    1.333    1.667    2.500    7.000    0.667 
#    0.000    0.000    0.000    0.000    0.000    0.000 
#    0.000    0.000    0.000    0.000    0.000    0.000 
#
# Total GULP energy -134109.739001 kJ/mol
# GULP energy per Si atom -5587.905792 kJ/mol
# Density = 2.096524 g / cm^3
# Si number density = 21.013063 Si / 1000 Ang^3
#
#
#
# Elastic Constant Matrix: (Units=GPa)
#
#
# Indices 1 2 3 4 5 6 
#
# 1 125.3989 11.4672 75.6423 0.0001 2.5543 0.0002
# 2 11.4672 44.6600 21.8853 0.0010 -0.8416 0.0000
# 3 75.6423 21.8853 205.0892 0.0000 0.5447 0.0004
# 4 0.0001 0.0010 0.0000 26.0125 -0.0004 -3.4134
# 5 2.5543 -0.8416 0.5447 -0.0004 46.6023 0.0001
# 6 0.0002 0.0000 0.0004 -3.4134 0.0001 25.4797
#
#
#
# Elastic Compliance Matrix: (Units=1/GPa)
#
#
# Indices 1 2 3 4 5 6 
#
# 1 0.010299 -0.000838 -0.003708 0.000000 -0.000536 0.000000
# 2 -0.000838 0.023705 -0.002222 -0.000001 0.000500 0.000000
# 3 -0.003708 -0.002222 0.006480 0.000000 0.000087 0.000000
# 4 0.000000 -0.000001 0.000000 0.039131 0.000000 0.005242
# 5 -0.000536 0.000500 0.000087 0.000000 0.021496 0.000000
# 6 0.000000 0.000000 0.000000 0.005242 0.000000 0.039949
#
#
# Mechanical properties :
#
#
# Convention : Reuss Voigt Hill
#
# Bulk Modulus (GPa) = 37.10665 65.90417 51.50541
# Shear Modulus (GPa) = 30.56672 37.36244 33.96458
#
# Velocity S-wave (km/s) = 3.81813 4.22128 4.02475
# Velocity P-wave (km/s) = 6.09382 7.42903 6.79430
#
# Compressibility (1/GPa) = 0.02694934
#
# Stress axis : x y z
#
# Youngs Moduli (GPa) = 97.10138 42.18563 154.31499
#
# Poissons Ratio (x) = 0.03533 0.57213
# Poissons Ratio (y) = 0.08133 0.34288
# Poissons Ratio (z) = 0.36001 0.09374
#
# Static dielectric constant tensor:
#      x y z
#    x 1.743220 0.000000 -0.022610 
#    y 0.000000 1.657410 -0.000010 
#    z -0.022610 -0.000010 1.841970 
# 
# From -- ./inp_files/302201.got.cif
#   From: 2010.05.17/outbox.cif.g08.bks.cpg/sg15_152_cif.got.tgz:302201.got - 2010.06.03 18:47:42.
