data_PCOD9276098
_publ_section_title
;
Structure prediction by ZEFSAII (Michael W. Deem and Ramdas Pophale) SiO2 
 PCOD9276098
Probable space group: C 2/C
;
_chemical_formula_sum "Si O2"
_cell_formula_units_Z 44
_cell_length_a 12.010870
_cell_length_b 23.687683
_cell_length_c 11.373086
_cell_angle_alpha 90.000000
_cell_angle_beta 138.047402
_cell_angle_gamma 90.000000
_cell_volume 2163.151270
_symmetry_space_group_name_H-M "C 2/C"
_symmetry_group_IT_number 15
_symmetry_cell_setting 'monoclinic'
loop_
_space_group_symop_operation_xyz
x,y,z
-x,y,1/2-z
-x,-y,-z
x,-y,1/2+z
1/2+x,1/2+y,z
1/2-x,1/2+y,1/2-z
1/2-x,1/2-y,-z
1/2+x,1/2-y,1/2+z
loop_
_atom_site_type_symbol
_atom_site_label
_atom_site_fract_x
_atom_site_fract_y
_atom_site_fract_z
Si Si1 0.852339 0.700254 0.939203
Si Si2 0.672497 0.594988 0.451744
Si Si3 0.184986 0.294563 0.353790
Si Si4 0.353159 0.006401 0.730917
Si Si5 0.000000 0.783997 0.250000
Si Si6 0.438960 0.090156 0.453696
O O1 0.828507 0.726588 0.790267
O O2 0.667754 0.684354 0.841044
O O3 0.937156 0.744230 0.094128
O O4 0.973200 0.646603 0.021229
O O5 0.500000 0.596100 0.250000
O O6 0.700523 0.649867 0.554348
O O7 0.702326 0.537683 0.547861
O O8 0.815347 0.600275 0.464768
O O9 0.250000 0.250000 0.500000
O O10 0.000000 0.310778 0.250000
O O11 0.500000 0.002783 0.750000
O O12 0.338435 0.945066 0.776646
O O13 0.416864 0.049004 0.882532
#
# Coordination Sequence:
#
# PCOD9276098 Si02
#       6
#     8   8   8   8   4   8
#     4  11  22  45  64  95 132 173 219 270 327 410
#     4  11  22  39  59  98 137 165 218 280 333 389
#     4  12  22  39  65  97 127 171 217 269 337 393
#     4   9  19  39  63  90 119 172 220 270 326 391
#     4  10  26  42  66  92 138 170 216 278 328 396
#     4  10  20  39  68  84 125 174 216 273 330 389
#
# _framework density 20.340693999999999
#
# number of rings (size 3 to 8) (size 9 to 14) (size 15 to 20)
#    0.000    1.455    3.636    2.182    1.273    0.727 
#    3.273    0.000   18.000    0.000    0.000    0.000 
#    0.000    0.000    0.000    0.000    0.000    0.000 
#
# Total GULP energy -122865.470949 kJ/mol
# GULP energy per Si atom -5584.794134 kJ/mol
# Density = 2.029440 g / cm^3
# Si number density = 20.340694 Si / 1000 Ang^3
#
#
#
# Elastic Constant Matrix: (Units=GPa)
#
#
# Indices 1 2 3 4 5 6 
#
# 1 67.8272 25.3417 30.6814 0.0000 -9.4467 0.0000
# 2 25.3417 74.1834 40.0100 0.0000 -12.1348 0.0000
# 3 30.6814 40.0100 133.9371 0.0000 -10.0148 0.0000
# 4 0.0000 0.0000 0.0000 25.6933 0.0000 -9.7589
# 5 -9.4467 -12.1348 -10.0148 0.0000 41.9331 0.0000
# 6 0.0000 0.0000 0.0000 -9.7589 0.0000 22.3872
#
#
#
# Elastic Compliance Matrix: (Units=1/GPa)
#
#
# Indices 1 2 3 4 5 6 
#
# 1 0.017850 -0.004326 -0.002637 0.000000 0.002140 0.000000
# 2 -0.004326 0.017659 -0.004047 0.000000 0.003169 0.000000
# 3 -0.002637 -0.004047 0.009314 0.000000 0.000459 0.000000
# 4 0.000000 0.000000 0.000000 0.046643 0.000000 0.020333
# 5 0.002140 0.003169 0.000459 0.000000 0.025356 0.000000
# 6 0.000000 0.000000 0.000000 0.020333 0.000000 0.053532
#
#
# Mechanical properties :
#
#
# Convention : Reuss Voigt Hill
#
# Bulk Modulus (GPa) = 43.85324 52.00154 47.92739
# Shear Modulus (GPa) = 25.00312 29.99701 27.50007
#
# Velocity S-wave (km/s) = 3.50982 3.84439 3.68091
# Velocity P-wave (km/s) = 6.16695 6.73250 6.45592
#
# Compressibility (1/GPa) = 0.02280333
#
# Stress axis : x y z
#
# Youngs Moduli (GPa) = 56.02149 56.62818 107.37013
#
# Poissons Ratio (x) = 0.24495 0.28312
# Poissons Ratio (y) = 0.24233 0.43456
# Poissons Ratio (z) = 0.14772 0.22919
#
# Static dielectric constant tensor:
#      x y z
#    x 1.737300 0.000000 -0.018710 
#    y 0.000000 1.728950 0.000000 
#    z -0.018710 0.000000 1.731420 
# 
# From -- ./inp_files/32217.got.cif
#   From: 2010.05.17/outbox.cif.g08.bks.cpg/sg15_17_cif.got.tgz:32217.got - 2010.06.03 18:47:42.
