data_PCOD9276087
_publ_section_title
;
Structure prediction by ZEFSAII (Michael W. Deem and Ramdas Pophale) SiO2 
 PCOD9276087
Probable space group: C 2/C
;
_chemical_formula_sum "Si O2"
_cell_formula_units_Z 60
_cell_length_a 17.237905
_cell_length_b 11.413807
_cell_length_c 25.893707
_cell_angle_alpha 90.000000
_cell_angle_beta 147.367148
_cell_angle_gamma 90.000000
_cell_volume 2747.276690
_symmetry_space_group_name_H-M "C 2/C"
_symmetry_group_IT_number 15
_symmetry_cell_setting 'monoclinic'
loop_
_space_group_symop_operation_xyz
x,y,z
-x,y,1/2-z
-x,-y,-z
x,-y,1/2+z
1/2+x,1/2+y,z
1/2-x,1/2+y,1/2-z
1/2-x,1/2-y,-z
1/2+x,1/2-y,1/2+z
loop_
_atom_site_type_symbol
_atom_site_label
_atom_site_fract_x
_atom_site_fract_y
_atom_site_fract_z
Si Si1 0.797504 0.335267 0.871804
Si Si2 0.059960 0.657710 0.946394
Si Si3 0.077526 0.669568 0.349363
Si Si4 0.121110 0.146378 0.418762
Si Si5 0.500000 0.327845 0.750000
Si Si6 0.114470 0.110640 0.941005
Si Si7 0.603105 0.580104 0.593670
Si Si8 0.850988 0.462331 0.794231
O O1 0.647890 0.382710 0.812072
O O2 0.807058 0.192473 0.877766
O O3 0.816683 0.389224 0.826467
O O4 0.915663 0.371332 0.980286
O O5 0.056315 0.796308 0.933825
O O6 0.926935 0.584551 0.852177
O O7 0.208267 0.636374 0.996983
O O8 0.112653 0.795927 0.393949
O O9 0.231881 0.604964 0.442894
O O10 0.000000 0.673745 0.250000
O O11 0.965831 0.607348 0.324704
O O12 0.057481 0.224415 0.335958
O O13 0.074002 0.012934 0.393074
O O14 0.998255 0.138391 0.919562
O O15 0.500000 0.500000 0.500000
O O16 0.714008 0.493288 0.683378
#
# Coordination Sequence:
#
# PCOD9276087 Si02
#       8
#     8   8   8   8   4   8   8   8
#     4  11  24  45  68 104 143 181 236 288 360 419
#     4  10  22  41  68 102 138 180 229 287 349 414
#     4  11  25  46  72 100 137 190 235 287 352 424
#     4  10  20  39  67  99 138 177 231 285 341 411
#     4  10  22  40  68 102 134 186 224 288 352 420
#     4  11  23  46  69  98 143 177 235 289 342 423
#     4  12  26  43  69 104 141 184 230 297 352 416
#     4  12  24  48  70 102 142 185 240 286 358 423
#
# _framework density 21.83981
#
# number of rings (size 3 to 8) (size 9 to 14) (size 15 to 20)
#    0.000    1.067    2.667    3.600    0.933    1.067 
#    9.600    0.000    0.000    0.000    0.000    0.000 
#    0.000    0.000    0.000    0.000    0.000    0.000 
#
# Total GULP energy -167217.172654 kJ/mol
# GULP energy per Si atom -5573.905755 kJ/mol
# Density = 2.179010 g / cm^3
# Si number density = 21.839810 Si / 1000 Ang^3
#
#
#
# Elastic Constant Matrix: (Units=GPa)
#
#
# Indices 1 2 3 4 5 6 
#
# 1 68.0023 9.1647 26.1316 0.0000 0.7453 0.0000
# 2 9.1647 87.4525 28.7462 0.0000 -3.0633 0.0000
# 3 26.1316 28.7462 155.9359 0.0002 -12.1177 0.0001
# 4 0.0000 0.0000 0.0002 23.9219 0.0001 -1.8304
# 5 0.7453 -3.0633 -12.1177 0.0001 28.3759 0.0000
# 6 0.0000 0.0000 0.0001 -1.8304 0.0000 19.9044
#
#
#
# Elastic Compliance Matrix: (Units=1/GPa)
#
#
# Indices 1 2 3 4 5 6 
#
# 1 0.015847 -0.000855 -0.002625 0.000000 -0.001629 0.000000
# 2 -0.000855 0.012222 -0.002074 0.000000 0.000456 0.000000
# 3 -0.002625 -0.002074 0.007471 0.000000 0.003035 0.000000
# 4 0.000000 0.000000 0.000000 0.042099 0.000000 0.003871
# 5 -0.001629 0.000456 0.003035 0.000000 0.036629 0.000000
# 6 0.000000 0.000000 0.000000 0.003871 0.000000 0.050596
#
#
# Mechanical properties :
#
#
# Convention : Reuss Voigt Hill
#
# Bulk Modulus (GPa) = 40.92966 48.83063 44.88014
# Shear Modulus (GPa) = 27.15664 30.93032 29.04348
#
# Velocity S-wave (km/s) = 3.53008 3.76737 3.65065
# Velocity P-wave (km/s) = 5.94952 6.42894 6.19387
#
# Compressibility (1/GPa) = 0.02443216
#
# Stress axis : x y z
#
# Youngs Moduli (GPa) = 63.10314 81.81813 133.85066
#
# Poissons Ratio (x) = 0.06996 0.35131
# Poissons Ratio (y) = 0.05396 0.27766
# Poissons Ratio (z) = 0.16562 0.16972
#
# Static dielectric constant tensor:
#      x y z
#    x 1.805160 0.000000 -0.026220 
#    y 0.000000 1.843890 0.000000 
#    z -0.026220 0.000000 1.870360 
# 
# From -- ./inp_files/298971.got.cif
#   From: 2010.05.17/outbox.cif.g08.bks.cpg/sg15_150_cif.got.tgz:298971.got - 2010.06.03 18:47:42.
