data_PCOD9276763
_publ_section_title
;
Structure prediction by ZEFSAII (Michael W. Deem and Ramdas Pophale) SiO2 
 PCOD9276763
Probable space group: C 2/C
;
_chemical_formula_sum "Si O2"
_cell_formula_units_Z 56
_cell_length_a 21.215730
_cell_length_b 27.765812
_cell_length_c 9.135405
_cell_angle_alpha 90.000000
_cell_angle_beta 30.961938
_cell_angle_gamma 90.000000
_cell_volume 2768.566668
_symmetry_space_group_name_H-M "C 2/C"
_symmetry_group_IT_number 15
_symmetry_cell_setting 'monoclinic'
loop_
_space_group_symop_operation_xyz
x,y,z
-x,y,1/2-z
-x,-y,-z
x,-y,1/2+z
1/2+x,1/2+y,z
1/2-x,1/2+y,1/2-z
1/2-x,1/2-y,-z
1/2+x,1/2-y,1/2+z
loop_
_atom_site_type_symbol
_atom_site_label
_atom_site_fract_x
_atom_site_fract_y
_atom_site_fract_z
Si Si1 0.819770 0.199735 0.870132
Si Si2 0.208286 0.523418 0.985026
Si Si3 0.500000 0.672524 0.250000
Si Si4 0.000000 0.161482 0.750000
Si Si5 0.872467 0.613284 0.203049
Si Si6 0.610140 0.396405 0.759703
Si Si7 0.607930 0.504804 0.136560
Si Si8 0.635026 0.916356 0.113568
O O1 0.914362 0.197571 0.543552
O O2 0.898486 0.192406 0.863371
O O3 0.750000 0.250000 0.000000
O O4 0.716736 0.157172 0.076772
O O5 0.287552 0.523243 0.681664
O O6 0.311293 0.523270 0.907409
O O7 0.136704 0.571854 0.156997
O O8 0.125733 0.474720 0.148527
O O9 0.411932 0.638627 0.330774
O O10 0.053035 0.127515 0.517096
O O11 0.833183 0.594325 0.119420
O O12 0.018960 0.616328 0.886898
O O13 0.556238 0.448455 0.824361
O O14 0.751201 0.403633 0.513208
O O15 0.500000 0.483446 0.250000
#
# Coordination Sequence:
#
# PCOD9276763 Si02
#       8
#     8   8   4   4   8   8   8   8
#     4  11  25  48  73 104 129 177 223 279 348 397
#     4  11  22  40  56  92 134 179 227 274 328 395
#     4  10  22  44  70  97 140 160 213 282 328 392
#     4  10  22  44  72  93 136 168 219 280 340 404
#     4  11  22  42  67  92 133 180 225 276 334 402
#     4  10  20  40  64  97 126 178 215 272 335 388
#     4  11  22  35  55  89 133 175 226 265 319 394
#     4  10  22  39  63  97 134 177 226 269 326 409
#
# _framework density 20.227074000000002
#
# number of rings (size 3 to 8) (size 9 to 14) (size 15 to 20)
#    0.000    1.429    3.571    1.714    2.000    1.143 
#    9.000    4.286    0.000    0.000    0.000    0.000 
#    0.000    0.000    0.000    0.000    0.000    0.000 
#
# Total GULP energy -156208.996778 kJ/mol
# GULP energy per Si atom -5578.892742 kJ/mol
# Density = 2.018104 g / cm^3
# Si number density = 20.227074 Si / 1000 Ang^3
#
#
#
# Elastic Constant Matrix: (Units=GPa)
#
#
# Indices 1 2 3 4 5 6 
#
# 1 91.7148 18.5994 20.5749 -0.0014 1.7970 0.0010
# 2 18.5994 91.6072 35.2792 -0.0003 -10.8815 0.0002
# 3 20.5749 35.2792 90.3541 -0.0027 9.2559 0.0020
# 4 -0.0014 -0.0003 -0.0027 1691.2940 0.0024-1195.1099
# 5 1.7970 -10.8815 9.2559 0.0024 30.6098 -0.0017
# 6 0.0010 0.0002 0.0020-1195.1099 -0.0017 866.4027
#
#
#
# Elastic Compliance Matrix: (Units=1/GPa)
#
#
# Indices 1 2 3 4 5 6 
#
# 1 0.011697 -0.001722 -0.001918 0.000000 -0.000719 0.000000
# 2 -0.001722 0.014388 -0.005944 0.000000 0.007013 0.000000
# 3 -0.001918 -0.005944 0.014479 0.000000 -0.006379 0.000000
# 4 0.000000 0.000000 0.000000 0.023382 0.000000 0.032253
# 5 -0.000719 0.007013 -0.006379 0.000000 0.037133 0.000000
# 6 0.000000 0.000000 0.000000 0.032253 0.000000 0.045644
#
#
# Mechanical properties :
#
#
# Convention : Reuss Voigt Hill
#
# Bulk Modulus (GPa) = 46.73723 46.95369 46.84546
# Shear Modulus (GPa) = 28.89803 530.94281 279.92042
#
# Velocity S-wave (km/s) = 3.78389 16.21916 11.77665
# Velocity P-wave (km/s) = 6.49976 19.33938 14.42669
#
# Compressibility (1/GPa) = 0.02139622
#
# Stress axis : x y z
#
# Youngs Moduli (GPa) = 85.49341 69.50214 69.06723
#
# Poissons Ratio (x) = 0.11966 0.13245
# Poissons Ratio (y) = 0.14720 0.41055
# Poissons Ratio (z) = 0.16394 0.41314
#
# Static dielectric constant tensor:
#      x y z
#    x 1.720030 0.000000 0.003550 
#    y 0.000000 1.715640 0.000000 
#    z 0.003550 0.000000 1.777780 
# 
# From -- ./inp_files/59368.got.cif
#   From: 2010.05.17/outbox.cif.g08.bks.cpg/sg15_30_cif.got.tgz:59368.got - 2010.06.03 18:47:42.
