data_PCOD9276478
_publ_section_title
;
Structure prediction by ZEFSAII (Michael W. Deem and Ramdas Pophale) SiO2 
 PCOD9276478
Probable space group: C 2/C
;
_chemical_formula_sum "Si O2"
_cell_formula_units_Z 48
_cell_length_a 28.072130
_cell_length_b 9.321870
_cell_length_c 8.418045
_cell_angle_alpha 90.000000
_cell_angle_beta 94.118702
_cell_angle_gamma 90.000000
_cell_volume 2197.184812
_symmetry_space_group_name_H-M "C 2/C"
_symmetry_group_IT_number 15
_symmetry_cell_setting 'monoclinic'
loop_
_space_group_symop_operation_xyz
x,y,z
-x,y,1/2-z
-x,-y,-z
x,-y,1/2+z
1/2+x,1/2+y,z
1/2-x,1/2+y,1/2-z
1/2-x,1/2-y,-z
1/2+x,1/2-y,1/2+z
loop_
_atom_site_type_symbol
_atom_site_label
_atom_site_fract_x
_atom_site_fract_y
_atom_site_fract_z
Si Si1 0.131596 0.603426 0.396535
Si Si2 0.694045 0.653131 0.939682
Si Si3 0.550811 0.612101 0.332341
Si Si4 0.120907 0.701011 0.029963
Si Si5 0.912217 0.144022 0.496819
Si Si6 0.216562 0.136950 0.584033
O O1 0.180363 0.680328 0.474697
O O2 0.130305 0.436101 0.422633
O O3 0.088468 0.685409 0.477040
O O4 0.124611 0.644651 0.211140
O O5 0.638328 0.602806 0.933279
O O6 0.718110 0.654311 0.773799
O O7 0.720882 0.532556 0.047737
O O8 0.500000 0.656163 0.250000
O O9 0.572644 0.718559 0.468490
O O10 0.549068 0.453416 0.406972
O O11 0.585833 0.612406 0.188417
O O12 0.163705 0.812729 0.021919
O O13 0.250000 0.250000 0.500000
#
# Coordination Sequence:
#
# PCOD9276478 Si02
#       6
#     8   8   8   8   8   8
#     4   9  21  36  66  83 119 169 196 248 310 368
#     4   9  21  41  62  90 122 163 201 245 314 358
#     4  12  23  37  64  95 123 162 210 256 302 366
#     4  11  21  41  59  91 124 160 205 251 316 356
#     4  10  20  40  62  89 123 166 203 249 309 364
#     4  11  23  39  66  91 122 159 206 256 301 370
#
# _framework density 21.846136999999999
#
# number of rings (size 3 to 8) (size 9 to 14) (size 15 to 20)
#    1.000    0.667    1.667    3.500    0.000    2.667 
#    0.000    5.833    0.000    0.000    0.000    0.000 
#    0.000    0.000    0.000    0.000    0.000    0.000 
#
# Total GULP energy -133686.643556 kJ/mol
# GULP energy per Si atom -5570.276815 kJ/mol
# Density = 2.179641 g / cm^3
# Si number density = 21.846137 Si / 1000 Ang^3
#
#
#
# Elastic Constant Matrix: (Units=GPa)
#
#
# Indices 1 2 3 4 5 6 
#
# 1 41.4240 18.0507 -0.7343 0.0000 8.8029 0.0000
# 2 18.0507 85.3318 2.3060 0.0000 14.7898 0.0000
# 3 -0.7343 2.3060 53.6526 0.0000 -11.6524 0.0000
# 4 0.0000 0.0000 0.0000 39.0798 0.0000 5.7301
# 5 8.8029 14.7898 -11.6524 0.0000 27.5870 0.0000
# 6 0.0000 0.0000 0.0000 5.7301 0.0000 19.0768
#
#
#
# Elastic Compliance Matrix: (Units=1/GPa)
#
#
# Indices 1 2 3 4 5 6 
#
# 1 0.027570 -0.004652 -0.000872 0.000000 -0.006672 0.000000
# 2 -0.004652 0.013960 -0.002165 0.000000 -0.006914 0.000000
# 3 -0.000872 -0.002165 0.020954 0.000000 0.010290 0.000000
# 4 0.000000 0.000000 0.000000 0.026768 0.000000 -0.008040
# 5 -0.006672 -0.006914 0.010290 0.000000 0.046431 0.000000
# 6 0.000000 0.000000 0.000000 -0.008040 0.000000 0.054835
#
#
# Mechanical properties :
#
#
# Convention : Reuss Voigt Hill
#
# Bulk Modulus (GPa) = 21.22869 24.40591 22.81730
# Shear Modulus (GPa) = 22.56339 27.86781 25.21560
#
# Velocity S-wave (km/s) = 3.21726 3.57549 3.40109
# Velocity P-wave (km/s) = 4.85175 5.31427 5.08827
#
# Compressibility (1/GPa) = 0.04710607
#
# Stress axis : x y z
#
# Youngs Moduli (GPa) = 36.27112 71.63348 47.72282
#
# Poissons Ratio (x) = 0.33325 0.04160
# Poissons Ratio (y) = 0.16874 0.10334
# Poissons Ratio (z) = 0.03162 0.15511
#
# Static dielectric constant tensor:
#      x y z
#    x 1.839010 0.000000 -0.000770 
#    y 0.000000 1.831000 0.000000 
#    z -0.000770 0.000000 1.815770 
# 
# From -- ./inp_files/68599.got.cif
#   From: 2010.05.17/outbox.cif.g08.bks.cpg/sg15_35_cif.got.tgz:68599.got - 2010.06.03 18:47:42.
