data_PCOD9276105
_publ_section_title
;
Structure prediction by ZEFSAII (Michael W. Deem and Ramdas Pophale) SiO2 
 PCOD9276105
Probable space group: C 2/C
;
_chemical_formula_sum "Si O2"
_cell_formula_units_Z 64
_cell_length_a 9.504228
_cell_length_b 10.062992
_cell_length_c 30.187462
_cell_angle_alpha 90.000000
_cell_angle_beta 84.466536
_cell_angle_gamma 90.000000
_cell_volume 2873.704143
_symmetry_space_group_name_H-M "C 2/C"
_symmetry_group_IT_number 15
_symmetry_cell_setting 'monoclinic'
loop_
_space_group_symop_operation_xyz
x,y,z
-x,y,1/2-z
-x,-y,-z
x,-y,1/2+z
1/2+x,1/2+y,z
1/2-x,1/2+y,1/2-z
1/2-x,1/2-y,-z
1/2+x,1/2-y,1/2+z
loop_
_atom_site_type_symbol
_atom_site_label
_atom_site_fract_x
_atom_site_fract_y
_atom_site_fract_z
Si Si1 0.302402 0.870895 0.054793
Si Si2 0.751333 0.444363 0.471239
Si Si3 0.827932 0.806454 0.699630
Si Si4 0.834180 0.528191 0.744494
Si Si5 0.479397 0.935030 0.913496
Si Si6 0.573652 0.481204 0.700616
Si Si7 0.027910 0.246621 0.996480
Si Si8 0.888472 0.213765 0.864347
O O1 0.165581 0.834124 0.086335
O O2 0.407691 0.947936 0.085115
O O3 0.386281 0.747776 0.030016
O O4 0.269029 0.966987 0.014676
O O5 0.819535 0.513020 0.426328
O O6 0.856690 0.318317 0.475500
O O7 0.594869 0.386793 0.475692
O O8 0.815698 0.687333 0.736378
O O9 0.745440 0.941266 0.715783
O O10 0.750644 0.756613 0.658382
O O11 0.991396 0.847724 0.689800
O O12 0.741716 0.472616 0.705065
O O13 0.000000 0.506239 0.750000
O O14 0.508524 0.847446 0.956497
O O15 0.485268 0.841336 0.870873
O O16 0.500000 0.519850 0.750000
O O17 0.545566 0.595420 0.665847
#
# Coordination Sequence:
#
# PCOD9276105 Si02
#       8
#     8   8   8   8   8   8   8   8
#     4   9  19  35  52  79 115 148 191 244 290 341
#     4   8  15  31  55  78 106 152 195 235 287 343
#     4  10  23  41  61  89 122 154 194 246 301 364
#     4  10  20  39  68  92 111 146 196 244 296 358
#     4   9  19  35  52  79 114 146 191 241 287 346
#     4   9  21  43  61  82 119 153 191 247 298 355
#     4   8  15  31  55  77 108 151 195 238 284 339
#     4  11  23  36  56  86 119 153 194 243 300 358
#
# _framework density 22.270907999999999
#
# number of rings (size 3 to 8) (size 9 to 14) (size 15 to 20)
#    0.000    2.750    0.000    2.625    0.000   10.000 
#    0.000    7.500    0.000    0.000    0.000    0.000 
#    0.000    0.000    0.000    0.000    0.000    0.000 
#
# Total GULP energy -178250.670342 kJ/mol
# GULP energy per Si atom -5570.333448 kJ/mol
# Density = 2.222022 g / cm^3
# Si number density = 22.270908 Si / 1000 Ang^3
#
#
#
# Elastic Constant Matrix: (Units=GPa)
#
#
# Indices 1 2 3 4 5 6 
#
# 1 93.3155 35.8082 7.5731 0.0000 7.0544 0.0000
# 2 35.8082 65.6686 6.4948 0.0000 0.1482 0.0000
# 3 7.5731 6.4948 24.2694 0.0000 -1.6144 0.0000
# 4 0.0000 0.0000 0.0000 32.2354 0.0000 -1.4541
# 5 7.0544 0.1482 -1.6144 0.0000 20.7414 0.0000
# 6 0.0000 0.0000 0.0000 -1.4541 0.0000 47.1487
#
#
#
# Elastic Compliance Matrix: (Units=1/GPa)
#
#
# Indices 1 2 3 4 5 6 
#
# 1 0.014174 -0.007444 -0.002762 0.000000 -0.004982 0.000000
# 2 -0.007444 0.019556 -0.002766 0.000000 0.002177 0.000000
# 3 -0.002762 -0.002766 0.043093 0.000000 0.004313 0.000000
# 4 0.000000 0.000000 0.000000 0.031065 0.000000 0.000958
# 5 -0.004982 0.002177 0.004313 0.000000 0.050227 0.000000
# 6 0.000000 0.000000 0.000000 0.000958 0.000000 0.021239
#
#
# Mechanical properties :
#
#
# Convention : Reuss Voigt Hill
#
# Bulk Modulus (GPa) = 19.65464 31.44510 25.54987
# Shear Modulus (GPa) = 22.49638 28.91694 25.70666
#
# Velocity S-wave (km/s) = 3.18169 3.60727 3.40114
# Velocity P-wave (km/s) = 4.72673 5.61247 5.18854
#
# Compressibility (1/GPa) = 0.05087857
#
# Stress axis : x y z
#
# Youngs Moduli (GPa) = 70.55274 51.13547 23.20560
#
# Poissons Ratio (x) = 0.38067 0.06410
# Poissons Ratio (y) = 0.52522 0.06418
# Poissons Ratio (z) = 0.19487 0.14142
#
# Static dielectric constant tensor:
#      x y z
#    x 1.915320 0.000000 0.013010 
#    y 0.000000 1.875580 0.000000 
#    z 0.013010 0.000000 1.817010 
# 
# From -- ./inp_files/307502.got.cif
#   From: 2010.05.17/outbox.cif.g08.bks.cpg/sg15_154_cif.got.tgz:307502.got - 2010.06.03 18:47:42.
