data_PCOD9276115
_publ_section_title
;
Structure prediction by ZEFSAII (Michael W. Deem and Ramdas Pophale) SiO2 
 PCOD9276115
Probable space group: C 2/C
;
_chemical_formula_sum "Si O2"
_cell_formula_units_Z 28
_cell_length_a 14.571873
_cell_length_b 17.598887
_cell_length_c 7.079856
_cell_angle_alpha 90.000000
_cell_angle_beta 144.464972
_cell_angle_gamma 90.000000
_cell_volume 1055.239474
_symmetry_space_group_name_H-M "C 2/C"
_symmetry_group_IT_number 15
_symmetry_cell_setting 'monoclinic'
loop_
_space_group_symop_operation_xyz
x,y,z
-x,y,1/2-z
-x,-y,-z
x,-y,1/2+z
1/2+x,1/2+y,z
1/2-x,1/2+y,1/2-z
1/2-x,1/2-y,-z
1/2+x,1/2-y,1/2+z
loop_
_atom_site_type_symbol
_atom_site_label
_atom_site_fract_x
_atom_site_fract_y
_atom_site_fract_z
Si Si1 0.874092 0.447572 0.676218
Si Si2 0.283544 0.602055 0.087211
Si Si3 0.622502 0.651291 0.677256
Si Si4 0.500000 0.792227 0.250000
O O1 0.760161 0.516956 0.426027
O O2 0.757899 0.380112 0.543661
O O3 0.000000 0.408535 0.750000
O O4 0.000000 0.500000 0.000000
O O5 0.451104 0.624353 0.454415
O O6 0.321142 0.611474 0.925978
O O7 0.135083 0.656273 0.882271
O O8 0.587305 0.736794 0.547751
#
# Coordination Sequence:
#
# PCOD9276115 Si02
#       4
#     8   8   8   4
#     4  12  23  40  65  93 134 178 222 273 326 384
#     4  10  20  39  68  94 130 172 213 275 338 389
#     4  10  21  38  63  97 127 170 220 267 326 397
#     4  10  20  40  72  98 134 172 210 278 346 388
#
# _framework density 26.53426
#
# number of rings (size 3 to 8) (size 9 to 14) (size 15 to 20)
#    0.000    1.714    4.286    4.286    0.000    0.000 
#    0.000    1.429    0.000    0.000    0.000    0.000 
#    0.000    0.000    0.000    0.000    0.000    0.000 
#
# Total GULP energy -78133.712485 kJ/mol
# GULP energy per Si atom -5580.979463 kJ/mol
# Density = 2.647387 g / cm^3
# Si number density = 26.534260 Si / 1000 Ang^3
#
#
#
# Elastic Constant Matrix: (Units=GPa)
#
#
# Indices 1 2 3 4 5 6 
#
# 1 122.3532 50.7342 69.1727 0.0000 49.2357 0.0000
# 2 50.7342 207.6407 109.3709 0.0000 27.6213 0.0000
# 3 69.1727 109.3709 162.6667 0.0000 45.3129 0.0000
# 4 0.0000 0.0000 0.0000 111.1067 0.0000 -2.2255
# 5 49.2357 27.6213 45.3129 0.0000 62.1435 0.0000
# 6 0.0000 0.0000 0.0000 -2.2255 0.0000 32.3524
#
#
#
# Elastic Compliance Matrix: (Units=1/GPa)
#
#
# Indices 1 2 3 4 5 6 
#
# 1 0.013416 -0.000596 -0.003033 0.000000 -0.008152 0.000000
# 2 -0.000596 0.007492 -0.005005 0.000000 0.000791 0.000000
# 3 -0.003033 -0.005005 0.011938 0.000000 -0.004077 0.000000
# 4 0.000000 0.000000 0.000000 0.009013 0.000000 0.000620
# 5 -0.008152 0.000791 -0.004077 0.000000 0.025172 0.000000
# 6 0.000000 0.000000 0.000000 0.000620 0.000000 0.030952
#
#
# Mechanical properties :
#
#
# Convention : Reuss Voigt Hill
#
# Bulk Modulus (GPa) = 64.19014 105.69069 84.94042
# Shear Modulus (GPa) = 41.51313 58.67937 50.09625
#
# Velocity S-wave (km/s) = 3.95968 4.70771 4.34981
# Velocity P-wave (km/s) = 6.71933 8.33477 7.57026
#
# Compressibility (1/GPa) = 0.01557872
#
# Stress axis : x y z
#
# Youngs Moduli (GPa) = 74.54021 133.46760 83.76510
#
# Poissons Ratio (x) = 0.07950 0.25409
# Poissons Ratio (y) = 0.04440 0.41922
# Poissons Ratio (z) = 0.22611 0.66796
#
# Static dielectric constant tensor:
#      x y z
#    x 2.311780 0.000000 -0.288310 
#    y 0.000000 2.025850 0.000000 
#    z -0.288310 0.000000 2.275590 
# 
# From -- ./inp_files/41360.got.cif
#   From: 2010.05.17/outbox.cif.g08.bks.cpg/sg15_21_cif.got.tgz:41360.got - 2010.06.03 18:47:42.
