data_PCOD9276918
_publ_section_title
;
Structure prediction by ZEFSAII (Michael W. Deem and Ramdas Pophale) SiO2 
 PCOD9276918
Probable space group: C 2/C
;
_chemical_formula_sum "Si O2"
_cell_formula_units_Z 28
_cell_length_a 22.771851
_cell_length_b 11.448733
_cell_length_c 7.821624
_cell_angle_alpha 90.000000
_cell_angle_beta 30.221843
_cell_angle_gamma 90.000000
_cell_volume 1026.413251
_symmetry_space_group_name_H-M "C 2/C"
_symmetry_group_IT_number 15
_symmetry_cell_setting 'monoclinic'
loop_
_space_group_symop_operation_xyz
x,y,z
-x,y,1/2-z
-x,-y,-z
x,-y,1/2+z
1/2+x,1/2+y,z
1/2-x,1/2+y,1/2-z
1/2-x,1/2-y,-z
1/2+x,1/2-y,1/2+z
loop_
_atom_site_type_symbol
_atom_site_label
_atom_site_fract_x
_atom_site_fract_y
_atom_site_fract_z
Si Si1 0.656080 0.423613 0.476660
Si Si2 0.104488 0.149962 0.751754
Si Si3 0.250000 0.250000 0.000000
Si Si4 0.481399 0.865593 0.091937
O O1 0.652641 0.565211 0.485173
O O2 0.679502 0.370381 0.232271
O O3 0.735048 0.369586 0.422683
O O4 0.523347 0.393550 0.867562
O O5 0.079066 0.280786 0.760292
O O6 0.359644 0.188714 0.835571
O O7 0.500000 0.851131 0.250000
O O8 0.500000 0.000000 0.000000
#
# Coordination Sequence:
#
# PCOD9276918 Si02
#       4
#     8   8   4   8
#     4   9  17  33  61  83 117 155 206 258 319 374
#     4   9  17  37  57  85 118 157 202 266 312 378
#     4  10  20  40  66  90 128 176 210 274 334 390
#     4  11  23  45  63  94 137 174 217 280 332 395
#
# _framework density 27.27946
#
# number of rings (size 3 to 8) (size 9 to 14) (size 15 to 20)
#    0.000    2.286    5.714    0.000    0.000    2.286 
#   15.429    1.429    0.000    0.000    0.000    0.000 
#    0.000    0.000    0.000    0.000    0.000    0.000 
#
# Total GULP energy -77943.556785 kJ/mol
# GULP energy per Si atom -5567.396913 kJ/mol
# Density = 2.721737 g / cm^3
# Si number density = 27.279460 Si / 1000 Ang^3
#
#
#
# Elastic Constant Matrix: (Units=GPa)
#
#
# Indices 1 2 3 4 5 6 
#
# 1 213.4129 51.1986 51.6052 0.0000 -34.9919 0.0000
# 2 51.1986 262.1114 45.2075 0.0000 -10.3689 0.0000
# 3 51.6052 45.2075 83.5932 0.0000 -8.1379 0.0000
# 4 0.0000 0.0000 0.0000 18.3814 0.0000 -7.4046
# 5 -34.9919 -10.3689 -8.1379 0.0000 39.4644 0.0000
# 6 0.0000 0.0000 0.0000 -7.4046 0.0000 32.4905
#
#
#
# Elastic Compliance Matrix: (Units=1/GPa)
#
#
# Indices 1 2 3 4 5 6 
#
# 1 0.006375 -0.000503 -0.003190 0.000000 0.004863 0.000000
# 2 -0.000503 0.004264 -0.001969 0.000000 0.000268 0.000000
# 3 -0.003190 -0.001969 0.014972 0.000000 -0.000259 0.000000
# 4 0.000000 0.000000 0.000000 0.059902 0.000000 0.013652
# 5 0.004863 0.000268 -0.000259 0.000000 0.029668 0.000000
# 6 0.000000 0.000000 0.000000 0.013652 0.000000 0.033889
#
#
# Mechanical properties :
#
#
# Convention : Reuss Voigt Hill
#
# Bulk Modulus (GPa) = 69.99827 95.01557 82.50692
# Shear Modulus (GPa) = 30.27417 45.47434 37.87425
#
# Velocity S-wave (km/s) = 3.33495 4.08730 3.73014
# Velocity P-wave (km/s) = 6.36746 7.56179 6.99018
#
# Compressibility (1/GPa) = 0.01428607
#
# Stress axis : x y z
#
# Youngs Moduli (GPa) = 156.86032 234.54157 66.79098
#
# Poissons Ratio (x) = 0.11789 0.21309
# Poissons Ratio (y) = 0.07884 0.13154
# Poissons Ratio (z) = 0.50044 0.46190
#
# Static dielectric constant tensor:
#      x y z
#    x 2.099630 0.000000 0.076450 
#    y 0.000000 5.182870 0.000000 
#    z 0.076450 0.000000 2.233090 
# 
# From -- ./inp_files/53814.got.cif
#   From: 2010.05.17/outbox.cif.g08.bks.cpg/sg15_27_cif.got.tgz:53814.got - 2010.06.03 18:47:42.
