data_PCOD9276195
_publ_section_title
;
Structure prediction by ZEFSAII (Michael W. Deem and Ramdas Pophale) SiO2 
 PCOD9276195
Probable space group: C 2/C
;
_chemical_formula_sum "Si O2"
_cell_formula_units_Z 44
_cell_length_a 13.974455
_cell_length_b 8.984489
_cell_length_c 24.867980
_cell_angle_alpha 90.000000
_cell_angle_beta 140.551952
_cell_angle_gamma 90.000000
_cell_volume 1983.814907
_symmetry_space_group_name_H-M "C 2/C"
_symmetry_group_IT_number 15
_symmetry_cell_setting 'monoclinic'
loop_
_space_group_symop_operation_xyz
x,y,z
-x,y,1/2-z
-x,-y,-z
x,-y,1/2+z
1/2+x,1/2+y,z
1/2-x,1/2+y,1/2-z
1/2-x,1/2-y,-z
1/2+x,1/2-y,1/2+z
loop_
_atom_site_type_symbol
_atom_site_label
_atom_site_fract_x
_atom_site_fract_y
_atom_site_fract_z
Si Si1 0.917027 0.349013 0.477874
Si Si2 0.962213 0.678360 0.641593
Si Si3 0.477960 0.566660 0.931340
Si Si4 0.500000 0.065139 0.250000
Si Si5 0.714150 0.684649 0.181850
Si Si6 0.773920 0.953745 0.541077
O O1 0.017186 0.242810 0.559023
O O2 0.869001 0.262890 0.404120
O O3 0.768194 0.402485 0.443436
O O4 0.000000 0.500000 0.500000
O O5 0.945886 0.552917 0.680367
O O6 0.862989 0.825509 0.611909
O O7 0.875034 0.614624 0.551189
O O8 0.129978 0.735366 0.696068
O O9 0.338420 0.488251 0.841996
O O10 0.619940 0.508575 0.960207
O O11 0.500000 0.500000 0.000000
O O12 0.385839 0.169401 0.235442
#
# Coordination Sequence:
#
# PCOD9276195 Si02
#       6
#     8   8   8   4   8   8
#     4  11  20  35  67 103 125 157 216 284 334 387
#     4  10  22  44  66  97 128 175 222 274 337 401
#     4   9  19  35  62  92 128 161 207 271 332 385
#     4  12  26  46  68  86 148 192 212 270 354 402
#     4  10  23  45  62  94 131 176 222 265 329 419
#     4  10  20  39  70  97 127 160 226 284 328 387
#
# _framework density 22.179486000000001
#
# number of rings (size 3 to 8) (size 9 to 14) (size 15 to 20)
#    0.000    1.818    1.818    2.727    5.091    0.000 
#   13.091    0.000    0.000    0.000    0.000    0.000 
#    0.000    0.000    0.000    0.000    0.000    0.000 
#
# Total GULP energy -122553.737663 kJ/mol
# GULP energy per Si atom -5570.624439 kJ/mol
# Density = 2.212900 g / cm^3
# Si number density = 22.179486 Si / 1000 Ang^3
#
#
#
# Elastic Constant Matrix: (Units=GPa)
#
#
# Indices 1 2 3 4 5 6 
#
# 1 89.6851 -10.5867 4.5817 0.0000 19.3548 0.0000
# 2 -10.5867 79.6323 8.4916 0.0000 8.8639 0.0000
# 3 4.5817 8.4916 30.7706 0.0000 8.3398 0.0000
# 4 0.0000 0.0000 0.0000 29.8741 0.0000 3.5660
# 5 19.3548 8.8639 8.3398 0.0000 21.7343 0.0000
# 6 0.0000 0.0000 0.0000 3.5660 0.0000 24.9496
#
#
#
# Elastic Compliance Matrix: (Units=1/GPa)
#
#
# Indices 1 2 3 4 5 6 
#
# 1 0.014736 0.003524 0.000870 0.000000 -0.014894 0.000000
# 2 0.003524 0.014162 -0.002251 0.000000 -0.008050 0.000000
# 3 0.000870 -0.002251 0.036776 0.000000 -0.013968 0.000000
# 4 0.000000 0.000000 0.000000 0.034055 0.000000 -0.004867
# 5 -0.014894 -0.008050 -0.013968 0.000000 0.067916 0.000000
# 6 0.000000 0.000000 0.000000 -0.004867 0.000000 0.040777
#
#
# Mechanical properties :
#
#
# Convention : Reuss Voigt Hill
#
# Bulk Modulus (GPa) = 14.29386 22.78459 18.53922
# Shear Modulus (GPa) = 21.98226 28.48501 25.23363
#
# Velocity S-wave (km/s) = 3.15160 3.58759 3.37664
# Velocity P-wave (km/s) = 4.43870 5.23987 4.85584
#
# Compressibility (1/GPa) = 0.06996010
#
# Stress axis : x y z
#
# Youngs Moduli (GPa) = 67.86182 70.60971 27.19158
#
# Poissons Ratio (x) = -0.24884 -0.02366
# Poissons Ratio (y) = -0.23915 0.06121
# Poissons Ratio (z) = -0.05904 0.15895
#
# Static dielectric constant tensor:
#      x y z
#    x 1.588240 0.000000 0.085440 
#    y 0.000000 1.855920 0.000000 
#    z 0.085440 0.000000 1.847710 
# 
# From -- ./inp_files/295315.got.cif
#   From: 2010.05.17/outbox.cif.g08.bks.cpg/sg15_148_cif.got.tgz:295315.got - 2010.06.03 18:47:42.
