data_PCOD9276486
_publ_section_title
;
Structure prediction by ZEFSAII (Michael W. Deem and Ramdas Pophale) SiO2 
 PCOD9276486
Probable space group: C 2/C
;
_chemical_formula_sum "Si O2"
_cell_formula_units_Z 40
_cell_length_a 13.007813
_cell_length_b 11.295549
_cell_length_c 21.756481
_cell_angle_alpha 90.000000
_cell_angle_beta 145.937173
_cell_angle_gamma 90.000000
_cell_volume 1790.470309
_symmetry_space_group_name_H-M "C 2/C"
_symmetry_group_IT_number 15
_symmetry_cell_setting 'monoclinic'
loop_
_space_group_symop_operation_xyz
x,y,z
-x,y,1/2-z
-x,-y,-z
x,-y,1/2+z
1/2+x,1/2+y,z
1/2-x,1/2+y,1/2-z
1/2-x,1/2-y,-z
1/2+x,1/2-y,1/2+z
loop_
_atom_site_type_symbol
_atom_site_label
_atom_site_fract_x
_atom_site_fract_y
_atom_site_fract_z
Si Si1 0.552735 0.357696 0.092573
Si Si2 0.191782 0.479427 0.855276
Si Si3 0.045698 0.360594 0.027369
Si Si4 0.146870 0.628122 0.950984
Si Si5 0.394212 0.571658 0.638629
O O1 0.713466 0.448694 0.153478
O O2 0.513791 0.363172 0.145943
O O3 0.362999 0.406734 0.967760
O O4 0.581952 0.229755 0.074726
O O5 0.124707 0.575049 0.872752
O O6 0.000000 0.410544 0.750000
O O7 0.242285 0.344047 0.093709
O O8 0.025539 0.344029 0.090306
O O9 0.000000 0.500000 0.000000
O O10 0.250000 0.750000 0.000000
O O11 0.281448 0.533135 0.050204
O O12 0.500000 0.522685 0.750000
#
# Coordination Sequence:
#
# PCOD9276486 Si02
#       5
#     8   8   8   8   8
#     4  10  21  42  64  93 136 167 214 276 326 386
#     4  10  22  38  67  96 125 171 221 266 328 393
#     4  10  21  40  62  89 127 168 210 266 329 385
#     4  10  20  40  62  90 128 168 212 272 326 378
#     4  10  23  39  61  93 131 170 216 265 330 396
#
# _framework density 22.340501
#
# number of rings (size 3 to 8) (size 9 to 14) (size 15 to 20)
#    0.000    2.000    2.000    0.600    2.800    1.600 
#    0.000    0.000    0.000    0.000    0.000    0.000 
#    0.000    0.000    0.000    0.000    0.000    0.000 
#
# Total GULP energy -111456.623427 kJ/mol
# GULP energy per Si atom -5572.831171 kJ/mol
# Density = 2.228965 g / cm^3
# Si number density = 22.340501 Si / 1000 Ang^3
#
#
#
# Elastic Constant Matrix: (Units=GPa)
#
#
# Indices 1 2 3 4 5 6 
#
# 1 186.8773 29.7891 20.4750 0.0000 -10.3734 0.0000
# 2 29.7891 65.9456 -6.6589 0.0000 7.3975 0.0000
# 3 20.4750 -6.6589 55.5055 0.0001 16.5320 0.0000
# 4 0.0000 0.0000 0.0001 14.9474 0.0000 1.0869
# 5 -10.3734 7.3975 16.5320 0.0000 34.9301 0.0000
# 6 0.0000 0.0000 0.0000 1.0869 0.0000 17.3318
#
#
#
# Elastic Compliance Matrix: (Units=1/GPa)
#
#
# Indices 1 2 3 4 5 6 
#
# 1 0.006766 -0.004067 -0.004468 0.000000 0.004985 0.000000
# 2 -0.004067 0.018518 0.006111 0.000000 -0.008022 0.000000
# 3 -0.004468 0.006111 0.024654 0.000000 -0.014289 0.000000
# 4 0.000000 0.000000 0.000000 0.067208 0.000000 -0.004215
# 5 0.004985 -0.008022 -0.014289 0.000000 0.038571 0.000000
# 6 0.000000 0.000000 0.000000 -0.004215 0.000000 0.057962
#
#
# Mechanical properties :
#
#
# Convention : Reuss Voigt Hill
#
# Bulk Modulus (GPa) = 22.17848 43.94877 33.06362
# Shear Modulus (GPa) = 21.40818 31.09008 26.24913
#
# Velocity S-wave (km/s) = 3.09895 3.73453 3.43148
# Velocity P-wave (km/s) = 4.77008 6.18955 5.52559
#
# Compressibility (1/GPa) = 0.04508876
#
# Stress axis : x y z
#
# Youngs Moduli (GPa) = 147.80538 54.00186 40.56188
#
# Poissons Ratio (x) = 0.21961 0.18125
# Poissons Ratio (y) = 0.60107 -0.24787
# Poissons Ratio (z) = 0.66046 -0.33000
#
# Static dielectric constant tensor:
#      x y z
#    x 1.865360 0.000000 0.023840 
#    y 0.000000 1.818870 0.000000 
#    z 0.023840 0.000000 1.920270 
# 
# From -- ./inp_files/142143.got.cif
#   From: 2010.05.17/outbox.cif.g08.bks.cpg/sg15_72_cif.got.tgz:142143.got - 2010.06.03 18:47:42.
