data_PCOD9276828
_publ_section_title
;
Structure prediction by ZEFSAII (Michael W. Deem and Ramdas Pophale) SiO2 
 PCOD9276828
Probable space group: C 2/C
;
_chemical_formula_sum "Si O2"
_cell_formula_units_Z 60
_cell_length_a 28.206654
_cell_length_b 7.943680
_cell_length_c 11.936813
_cell_angle_alpha 90.000000
_cell_angle_beta 89.724965
_cell_angle_gamma 90.000000
_cell_volume 2674.586812
_symmetry_space_group_name_H-M "C 2/C"
_symmetry_group_IT_number 15
_symmetry_cell_setting 'monoclinic'
loop_
_space_group_symop_operation_xyz
x,y,z
-x,y,1/2-z
-x,-y,-z
x,-y,1/2+z
1/2+x,1/2+y,z
1/2-x,1/2+y,1/2-z
1/2-x,1/2-y,-z
1/2+x,1/2-y,1/2+z
loop_
_atom_site_type_symbol
_atom_site_label
_atom_site_fract_x
_atom_site_fract_y
_atom_site_fract_z
Si Si1 0.951033 0.523092 0.934135
Si Si2 0.727610 0.880713 0.590805
Si Si3 0.289743 0.345374 0.192587
Si Si4 0.000000 0.263966 0.250000
Si Si5 0.146543 0.955171 0.657952
Si Si6 0.876004 0.239786 0.542650
Si Si7 0.919215 0.908163 0.647208
Si Si8 0.872349 0.704300 0.469337
O O1 0.920369 0.357119 0.908735
O O2 0.963489 0.621588 0.820578
O O3 0.913670 0.615856 0.017181
O O4 0.000000 0.500000 0.000000
O O5 0.750000 0.750000 0.500000
O O6 0.728037 0.779121 0.709657
O O7 0.673544 0.910543 0.549170
O O8 0.754096 0.059872 0.608080
O O9 0.313099 0.508206 0.253422
O O10 0.333941 0.250419 0.132967
O O11 0.972756 0.152069 0.158517
O O12 0.149748 0.802959 0.573755
O O13 0.098479 0.939220 0.727499
O O14 0.144915 0.122651 0.584922
O O15 0.907517 0.076401 0.578596
O O16 0.888238 0.757352 0.593477
#
# Coordination Sequence:
#
# PCOD9276828 Si02
#       8
#     8   8   8   4   8   8   8   8
#     4  12  26  43  63  97 138 166 215 278 342 393
#     4  11  23  44  68 101 138 175 225 283 333 398
#     4  10  22  40  66 100 130 178 227 269 335 400
#     4  12  24  40  66  92 122 174 230 270 330 392
#     4   9  18  39  64  89 124 174 221 263 317 392
#     4  10  22  41  67  92 132 172 221 273 326 402
#     4  10  20  40  65  92 123 177 227 264 320 393
#     4  10  23  42  65  96 136 173 211 278 340 385
#
# _framework density 22.433371999999999
#
# number of rings (size 3 to 8) (size 9 to 14) (size 15 to 20)
#    0.000    1.600    2.667    3.200    0.000    6.933 
#    2.400    2.000    0.000    0.000    0.000    0.000 
#    0.000    0.000    0.000    0.000    0.000    0.000 
#
# Total GULP energy -167358.268998 kJ/mol
# GULP energy per Si atom -5578.608967 kJ/mol
# Density = 2.238231 g / cm^3
# Si number density = 22.433372 Si / 1000 Ang^3
#
#
#
# Elastic Constant Matrix: (Units=GPa)
#
#
# Indices 1 2 3 4 5 6 
#
# 1 117.2499 22.7584 13.4141 0.0000 9.2918 0.0000
# 2 22.7584 47.5512 -2.9087 0.0000 -3.1456 0.0000
# 3 13.4141 -2.9087 50.7303 0.0000 -6.4701 0.0000
# 4 0.0000 0.0000 0.0000 22.1381 0.0000 -7.1595
# 5 9.2918 -3.1456 -6.4701 0.0000 33.4808 0.0000
# 6 0.0000 0.0000 0.0000 -7.1595 0.0000 43.1905
#
#
#
# Elastic Compliance Matrix: (Units=1/GPa)
#
#
# Indices 1 2 3 4 5 6 
#
# 1 0.010309 -0.005420 -0.003554 0.000000 -0.004057 0.000000
# 2 -0.005420 0.024123 0.003380 0.000000 0.004424 0.000000
# 3 -0.003554 0.003380 0.021543 0.000000 0.005467 0.000000
# 4 0.000000 0.000000 0.000000 0.047730 0.000000 0.007912
# 5 -0.004057 0.004424 0.005467 0.000000 0.032466 0.000000
# 6 0.000000 0.000000 0.000000 0.007912 0.000000 0.024465
#
#
# Mechanical properties :
#
#
# Convention : Reuss Voigt Hill
#
# Bulk Modulus (GPa) = 22.32717 31.33990 26.83354
# Shear Modulus (GPa) = 26.77355 31.91306 29.34331
#
# Velocity S-wave (km/s) = 3.45841 3.77579 3.62058
# Velocity P-wave (km/s) = 5.09134 5.74537 5.42822
#
# Compressibility (1/GPa) = 0.04478848
#
# Stress axis : x y z
#
# Youngs Moduli (GPa) = 97.00385 41.45374 46.41897
#
# Poissons Ratio (x) = 0.22467 0.16498
# Poissons Ratio (y) = 0.52573 -0.15692
# Poissons Ratio (z) = 0.34476 -0.14013
#
# Static dielectric constant tensor:
#      x y z
#    x 1.902050 0.000000 0.033500 
#    y 0.000000 1.920560 0.000000 
#    z 0.033500 0.000000 1.840290 
# 
# From -- ./inp_files/125590.got.cif
#   From: 2010.05.17/outbox.cif.g08.bks.cpg/sg15_63_cif.got.tgz:125590.got - 2010.06.03 18:47:42.
