data_PCOD9276624
_publ_section_title
;
Structure prediction by ZEFSAII (Michael W. Deem and Ramdas Pophale) SiO2 
 PCOD9276624
Probable space group: C 2/C
;
_chemical_formula_sum "Si O2"
_cell_formula_units_Z 28
_cell_length_a 7.380209
_cell_length_b 16.334288
_cell_length_c 12.678688
_cell_angle_alpha 90.000000
_cell_angle_beta 44.180204
_cell_angle_gamma 90.000000
_cell_volume 1065.183597
_symmetry_space_group_name_H-M "C 2/C"
_symmetry_group_IT_number 15
_symmetry_cell_setting 'monoclinic'
loop_
_space_group_symop_operation_xyz
x,y,z
-x,y,1/2-z
-x,-y,-z
x,-y,1/2+z
1/2+x,1/2+y,z
1/2-x,1/2+y,1/2-z
1/2-x,1/2-y,-z
1/2+x,1/2-y,1/2+z
loop_
_atom_site_type_symbol
_atom_site_label
_atom_site_fract_x
_atom_site_fract_y
_atom_site_fract_z
Si Si1 0.305162 0.712745 0.123222
Si Si2 0.598125 0.582480 0.901923
Si Si3 0.000000 0.883026 0.750000
Si Si4 0.022327 0.387115 0.069919
O O1 0.394307 0.670459 0.195992
O O2 0.455225 0.797893 0.054453
O O3 0.000000 0.726990 0.250000
O O4 0.370766 0.648979 0.001836
O O5 0.754776 0.574610 0.727677
O O6 0.802856 0.620590 0.898433
O O7 0.500000 0.500000 0.000000
O O8 0.263948 0.927188 0.597499
#
# Coordination Sequence:
#
# PCOD9276624 Si02
#       4
#     8   8   4   8
#     4  11  23  40  72 104 139 187 240 282 348 421
#     4  10  22  41  71 101 141 190 227 286 370 417
#     4  10  20  40  64 100 138 174 228 296 330 402
#     4  10  21  40  66  98 137 181 234 288 343 415
#
# _framework density 26.286549000000001
#
# number of rings (size 3 to 8) (size 9 to 14) (size 15 to 20)
#    0.000    1.714    0.000    6.857    4.000    4.571 
#    0.000    5.714   12.571    0.000    0.000    0.000 
#    0.000    0.000    0.000    0.000    0.000    0.000 
#
# Total GULP energy -78206.205466 kJ/mol
# GULP energy per Si atom -5586.157533 kJ/mol
# Density = 2.622672 g / cm^3
# Si number density = 26.286549 Si / 1000 Ang^3
#
#
#
# Elastic Constant Matrix: (Units=GPa)
#
#
# Indices 1 2 3 4 5 6 
#
# 1 95.7212 24.1689 12.4611 -0.0006 -3.9625 0.0005
# 2 24.1689 134.0392 94.8688 -0.0003 -4.9299 0.0004
# 3 12.4611 94.8688 298.3898 -0.0022 -13.6640 0.0020
# 4 -0.0006 -0.0003 -0.0022 19.4529 0.0010 44.1657
# 5 -3.9625 -4.9299 -13.6640 0.0010 45.5529 -0.0008
# 6 0.0005 0.0004 0.0020 44.1657 -0.0008 -20.9050
#
#
#
# Elastic Compliance Matrix: (Units=1/GPa)
#
#
# Indices 1 2 3 4 5 6 
#
# 1 0.010985 -0.002132 0.000256 0.000000 0.000802 0.000000
# 2 -0.002132 0.010041 -0.003105 0.000000 -0.000030 0.000000
# 3 0.000256 -0.003105 0.004373 0.000000 0.000998 0.000000
# 4 0.000000 0.000000 0.000000 0.008868 0.000000 0.018736
# 5 0.000802 -0.000030 0.000998 0.000000 0.022318 0.000000
# 6 0.000000 0.000000 0.000000 0.018736 0.000000 -0.008252
#
#
# Mechanical properties :
#
#
# Convention : Reuss Voigt Hill
#
# Bulk Modulus (GPa) = 64.77745 87.90529 76.34137
# Shear Modulus (GPa) = 78.81070 35.26357 57.03713
#
# Velocity S-wave (km/s) = 5.48147 3.66663 4.66319
# Velocity P-wave (km/s) = 8.04725 7.17212 7.62226
#
# Compressibility (1/GPa) = 0.01543747
#
# Stress axis : x y z
#
# Youngs Moduli (GPa) = 91.03082 99.58750 228.65070
#
# Poissons Ratio (x) = 0.21236 -0.05852
# Poissons Ratio (y) = 0.19412 0.70993
# Poissons Ratio (z) = -0.02330 0.30920
#
# Static dielectric constant tensor:
#      x y z
#    x 2.037850 0.000000 0.022460 
#    y 0.000000 2.000250 0.000000 
#    z 0.022460 0.000000 2.235700 
# 
# From -- ./inp_files/21549.got.cif
#   From: 2010.05.17/outbox.cif.g08.bks.cpg/sg15_11_cif.got.tgz:21549.got - 2010.06.03 18:47:42.
