data_PCOD9276996
_publ_section_title
;
Structure prediction by ZEFSAII (Michael W. Deem and Ramdas Pophale) SiO2 
 PCOD9276996
Probable space group: C 2/C
;
_chemical_formula_sum "Si O2"
_cell_formula_units_Z 56
_cell_length_a 15.389045
_cell_length_b 16.406701
_cell_length_c 11.529665
_cell_angle_alpha 90.000000
_cell_angle_beta 50.819142
_cell_angle_gamma 90.000000
_cell_volume 2256.516488
_symmetry_space_group_name_H-M "C 2/C"
_symmetry_group_IT_number 15
_symmetry_cell_setting 'monoclinic'
loop_
_space_group_symop_operation_xyz
x,y,z
-x,y,1/2-z
-x,-y,-z
x,-y,1/2+z
1/2+x,1/2+y,z
1/2-x,1/2+y,1/2-z
1/2-x,1/2-y,-z
1/2+x,1/2-y,1/2+z
loop_
_atom_site_type_symbol
_atom_site_label
_atom_site_fract_x
_atom_site_fract_y
_atom_site_fract_z
Si Si1 0.793635 0.564004 0.807500
Si Si2 0.612747 0.450917 0.037631
Si Si3 0.113241 0.119058 0.776684
Si Si4 0.730309 0.657924 0.279928
Si Si5 0.977888 0.736678 0.523626
Si Si6 0.152657 0.687488 0.550964
Si Si7 0.936981 0.407207 0.684746
O O1 0.720271 0.601455 0.765473
O O2 0.877825 0.491747 0.698120
O O3 0.695504 0.527223 0.976034
O O4 0.861084 0.627116 0.830419
O O5 0.479096 0.454548 0.143080
O O6 0.639076 0.385175 0.117804
O O7 0.649855 0.414483 0.883310
O O8 0.045288 0.197490 0.884973
O O9 0.648829 0.734432 0.352065
O O10 0.794491 0.643606 0.106589
O O11 0.830505 0.653914 0.288530
O O12 0.046551 0.733878 0.585931
O O13 0.984079 0.646041 0.465070
O O14 0.250000 0.750000 0.500000
O O15 0.000000 0.422911 0.750000
#
# Coordination Sequence:
#
# PCOD9276996 Si02
#       7
#     8   8   8   8   8   8   8
#     4  11  23  43  66  97 150 187 232 287 365 434
#     4   9  21  37  67 102 134 179 231 301 357 414
#     4  10  20  40  67 102 135 178 237 303 350 414
#     4   9  22  44  71  98 134 181 236 298 356 411
#     4  10  22  44  70 105 138 183 248 296 352 429
#     4  11  23  45  67 103 143 189 236 293 356 437
#     4  10  24  45  69 102 141 188 236 293 364 440
#
# _framework density 24.817011999999998
#
# number of rings (size 3 to 8) (size 9 to 14) (size 15 to 20)
#    0.000    2.000    1.429    0.429   10.000    1.143 
#   12.857    2.857    0.000    0.000    0.000    0.000 
#    0.000    0.000    0.000    0.000    0.000    0.000 
#
# Total GULP energy -156297.849335 kJ/mol
# GULP energy per Si atom -5582.066048 kJ/mol
# Density = 2.476053 g / cm^3
# Si number density = 24.817012 Si / 1000 Ang^3
#
#
#
# Elastic Constant Matrix: (Units=GPa)
#
#
# Indices 1 2 3 4 5 6 
#
# 1 140.4258 59.3538 26.0619 0.0000 0.3912 0.0000
# 2 59.3538 97.4703 25.8287 0.0000 5.6104 0.0000
# 3 26.0619 25.8287 72.7637 0.0000 5.8961 0.0000
# 4 0.0000 0.0000 0.0000 45.9060 0.0000 -1.4749
# 5 0.3912 5.6104 5.8961 0.0000 32.9691 0.0000
# 6 0.0000 0.0000 0.0000 -1.4749 0.0000 43.6066
#
#
#
# Elastic Compliance Matrix: (Units=1/GPa)
#
#
# Indices 1 2 3 4 5 6 
#
# 1 0.009781 -0.005595 -0.001609 0.000000 0.001124 0.000000
# 2 -0.005595 0.014574 -0.003018 0.000000 -0.001874 0.000000
# 3 -0.001609 -0.003018 0.015573 0.000000 -0.002252 0.000000
# 4 0.000000 0.000000 0.000000 0.021807 0.000000 0.000738
# 5 0.001124 -0.001874 -0.002252 0.000000 0.031040 0.000000
# 6 0.000000 0.000000 0.000000 0.000738 0.000000 0.022957
#
#
# Mechanical properties :
#
#
# Convention : Reuss Voigt Hill
#
# Bulk Modulus (GPa) = 51.31733 59.23872 55.27802
# Shear Modulus (GPa) = 35.04606 37.79071 36.41839
#
# Velocity S-wave (km/s) = 3.76197 3.90651 3.83492
# Velocity P-wave (km/s) = 6.29231 6.65355 6.47545
#
# Compressibility (1/GPa) = 0.01948660
#
# Stress axis : x y z
#
# Youngs Moduli (GPa) = 102.23592 68.61601 64.21426
#
# Poissons Ratio (x) = 0.38388 0.10329
# Poissons Ratio (y) = 0.57198 0.19377
# Poissons Ratio (z) = 0.16445 0.20705
#
# Static dielectric constant tensor:
#      x y z
#    x 1.996770 0.000000 -0.015830 
#    y 0.000000 2.048070 0.000000 
#    z -0.015830 0.000000 2.068800 
# 
# From -- ./inp_files/98676.got.cif
#   From: 2010.05.17/outbox.cif.g08.bks.cpg/sg15_50_cif.got.tgz:98676.got - 2010.06.03 18:47:42.
