data_PCOD9276724
_publ_section_title
;
Structure prediction by ZEFSAII (Michael W. Deem and Ramdas Pophale) SiO2 
 PCOD9276724
Probable space group: C 2/C
;
_chemical_formula_sum "Si O2"
_cell_formula_units_Z 64
_cell_length_a 21.936657
_cell_length_b 18.083677
_cell_length_c 18.147442
_cell_angle_alpha 90.000000
_cell_angle_beta 25.715404
_cell_angle_gamma 90.000000
_cell_volume 3123.658720
_symmetry_space_group_name_H-M "C 2/C"
_symmetry_group_IT_number 15
_symmetry_cell_setting 'monoclinic'
loop_
_space_group_symop_operation_xyz
x,y,z
-x,y,1/2-z
-x,-y,-z
x,-y,1/2+z
1/2+x,1/2+y,z
1/2-x,1/2+y,1/2-z
1/2-x,1/2-y,-z
1/2+x,1/2-y,1/2+z
loop_
_atom_site_type_symbol
_atom_site_label
_atom_site_fract_x
_atom_site_fract_y
_atom_site_fract_z
Si Si1 0.357261 0.247533 0.450488
Si Si2 0.836961 0.477842 0.441486
Si Si3 0.248424 0.605768 0.857704
Si Si4 0.748729 0.651520 0.801976
Si Si5 0.536143 0.607153 0.622794
Si Si6 0.623154 0.456672 0.557383
Si Si7 0.774160 0.307772 0.540440
Si Si8 0.002387 0.252225 0.407083
O O1 0.500000 0.242712 0.250000
O O2 0.250000 0.250000 0.500000
O O3 0.342895 0.175990 0.516976
O O4 0.356268 0.324566 0.497015
O O5 0.793476 0.531001 0.554987
O O6 0.745618 0.497410 0.469792
O O7 0.799132 0.391956 0.492128
O O8 0.000000 0.486125 0.250000
O O9 0.238224 0.598278 0.781608
O O10 0.401800 0.627236 0.721010
O O11 0.899681 0.687602 0.657902
O O12 0.685901 0.610537 0.942356
O O13 0.626472 0.710560 0.912323
O O14 0.500000 0.600956 0.750000
O O15 0.571051 0.523216 0.562372
O O16 0.500000 0.434854 0.750000
O O17 0.750000 0.250000 0.500000
O O18 0.627032 0.302628 0.745178
O O19 0.913032 0.285053 0.435624
#
# Coordination Sequence:
#
# PCOD9276724 Si02
#       8
#     8   8   8   8   8   8   8   8
#     4  11  20  38  66  93 123 165 219 274 330 394
#     4  12  23  40  68  99 133 169 221 282 327 394
#     4  12  25  42  63 100 132 170 226 271 341 403
#     4  11  26  42  67  95 139 177 222 278 340 405
#     4  10  20  40  64  93 123 165 225 271 329 395
#     4  11  21  44  67  93 130 173 220 275 335 400
#     4  11  21  40  70 100 129 170 227 275 324 387
#     4  10  23  43  60  96 132 174 218 267 334 397
#
# _framework density 20.488793999999999
#
# number of rings (size 3 to 8) (size 9 to 14) (size 15 to 20)
#    0.000    1.000    5.000    4.500    1.750    0.500 
#    0.000    2.500    0.000    0.000    0.000    0.000 
#    0.000    0.000    0.000    0.000    0.000    0.000 
#
# Total GULP energy -178479.308472 kJ/mol
# GULP energy per Si atom -5577.478390 kJ/mol
# Density = 2.044216 g / cm^3
# Si number density = 20.488794 Si / 1000 Ang^3
#
#
#
# Elastic Constant Matrix: (Units=GPa)
#
#
# Indices 1 2 3 4 5 6 
#
# 1 96.6795 30.2485 45.3526 0.0002 -13.5508 0.0013
# 2 30.2485 105.8373 18.8416 0.0021 3.2046 0.0024
# 3 45.3526 18.8416 80.9693 0.0027 -35.6089 0.0025
# 4 0.0002 0.0021 0.0027 12.8749 -0.0004 -12.2862
# 5 -13.5508 3.2046 -35.6089 -0.0004 33.4742 -0.0016
# 6 0.0013 0.0024 0.0025 -12.2862 -0.0016 24.8769
#
#
#
# Elastic Compliance Matrix: (Units=1/GPa)
#
#
# Indices 1 2 3 4 5 6 
#
# 1 0.015060 -0.002493 -0.009525 0.000004 -0.003797 0.000002
# 2 -0.002493 0.011047 -0.003914 -0.000004 -0.006230 -0.000003
# 3 -0.009525 -0.003914 0.032067 -0.000010 0.030631 -0.000006
# 4 0.000004 -0.000004 -0.000010 0.146908 -0.000004 0.072555
# 5 -0.003797 -0.006230 0.030631 -0.000004 0.061518 0.000000
# 6 0.000002 -0.000003 -0.000006 0.072555 0.000000 0.076031
#
#
# Mechanical properties :
#
#
# Convention : Reuss Voigt Hill
#
# Bulk Modulus (GPa) = 38.01021 52.48573 45.24797
# Shear Modulus (GPa) = 13.04581 26.84809 19.94695
#
# Velocity S-wave (km/s) = 2.52609 3.62384 3.12357
# Velocity P-wave (km/s) = 5.20578 6.57131 5.92799
#
# Compressibility (1/GPa) = 0.02630872
#
# Stress axis : x y z
#
# Youngs Moduli (GPa) = 66.40320 90.52627 31.18430
#
# Poissons Ratio (x) = 0.22572 0.29703
# Poissons Ratio (y) = 0.16557 0.12206
# Poissons Ratio (z) = 0.63249 0.35432
#
# Static dielectric constant tensor:
#      x y z
#    x 1.767490 0.000000 0.010360 
#    y 0.000000 1.821130 0.000000 
#    z 0.010360 0.000000 1.812730 
# 
# From -- ./inp_files/255990.got.cif
#   From: 2010.05.17/outbox.cif.g08.bks.cpg/sg15_128_cif.got.tgz:255990.got - 2010.06.03 18:47:42.
