data_PCOD9276722
_publ_section_title
;
Structure prediction by ZEFSAII (Michael W. Deem and Ramdas Pophale) SiO2 
 PCOD9276722
Probable space group: C 2/C
;
_chemical_formula_sum "Si O2"
_cell_formula_units_Z 60
_cell_length_a 11.713352
_cell_length_b 8.867755
_cell_length_c 21.803163
_cell_angle_alpha 90.000000
_cell_angle_beta 84.307569
_cell_angle_gamma 90.000000
_cell_volume 2253.551253
_symmetry_space_group_name_H-M "C 2/C"
_symmetry_group_IT_number 15
_symmetry_cell_setting 'monoclinic'
loop_
_space_group_symop_operation_xyz
x,y,z
-x,y,1/2-z
-x,-y,-z
x,-y,1/2+z
1/2+x,1/2+y,z
1/2-x,1/2+y,1/2-z
1/2-x,1/2-y,-z
1/2+x,1/2-y,1/2+z
loop_
_atom_site_type_symbol
_atom_site_label
_atom_site_fract_x
_atom_site_fract_y
_atom_site_fract_z
Si Si1 0.500000 0.399897 0.750000
Si Si2 0.387987 0.112012 0.289320
Si Si3 0.167070 0.135048 0.618304
Si Si4 0.235448 0.855692 0.685393
Si Si5 0.736634 0.916010 0.108177
Si Si6 0.601240 0.169167 0.942007
Si Si7 0.368961 0.850652 0.504433
Si Si8 0.462361 0.557633 0.119684
O O1 0.608051 0.317721 0.715619
O O2 0.546995 0.485195 0.807782
O O3 0.500000 0.051168 0.250000
O O4 0.403300 0.239141 0.340849
O O5 0.318227 0.178687 0.236247
O O6 0.310298 0.991818 0.327928
O O7 0.262130 0.207692 0.569107
O O8 0.231870 0.031332 0.665974
O O9 0.082126 0.013578 0.592434
O O10 0.260644 0.756043 0.625002
O O11 0.859297 0.987023 0.086961
O O12 0.643950 0.936861 0.060495
O O13 0.498194 0.219749 0.994159
O O14 0.554001 0.262645 0.885571
O O15 0.615686 0.988706 0.948884
O O16 0.250000 0.750000 0.500000
#
# Coordination Sequence:
#
# PCOD9276722 Si02
#       8
#     4   8   8   8   8   8   8   8
#     4  10  20  40  64  92 142 188 236 276 360 438
#     4  12  26  41  65 106 151 189 240 300 367 447
#     4  11  24  45  71  98 146 195 240 301 375 452
#     4  11  23  38  67  95 140 192 238 285 365 445
#     4  12  25  45  69 109 144 185 251 307 368 451
#     4  11  23  48  75 101 140 189 251 305 376 451
#     4  11  26  49  77 106 142 191 253 319 386 449
#     4  11  23  43  68 103 142 195 239 299 372 448
#
# _framework density 26.624644
#
# number of rings (size 3 to 8) (size 9 to 14) (size 15 to 20)
#    0.000    0.800    2.667    4.800    8.400    0.533 
#    4.800    1.333    0.000    0.000    0.000    0.000 
#    0.000    0.000    0.000    0.000    0.000    0.000 
#
# Total GULP energy -167334.498309 kJ/mol
# GULP energy per Si atom -5577.816610 kJ/mol
# Density = 2.656404 g / cm^3
# Si number density = 26.624644 Si / 1000 Ang^3
#
#
#
# Elastic Constant Matrix: (Units=GPa)
#
#
# Indices 1 2 3 4 5 6 
#
# 1 162.6274 35.9448 21.4701 0.0000 -15.3745 0.0000
# 2 35.9448 96.0094 16.8243 0.0000 -3.9339 0.0000
# 3 21.4701 16.8243 60.5241 0.0000 6.3335 0.0000
# 4 0.0000 0.0000 0.0000 31.7354 0.0000 1.0192
# 5 -15.3745 -3.9339 6.3335 0.0000 38.8641 0.0000
# 6 0.0000 0.0000 0.0000 1.0192 0.0000 49.1684
#
#
#
# Elastic Compliance Matrix: (Units=1/GPa)
#
#
# Indices 1 2 3 4 5 6 
#
# 1 0.007214 -0.002181 -0.002267 0.000000 0.003003 0.000000
# 2 -0.002181 0.011711 -0.002559 0.000000 0.000740 0.000000
# 3 -0.002267 -0.002559 0.018474 0.000000 -0.004167 0.000000
# 4 0.000000 0.000000 0.000000 0.031532 0.000000 -0.000654
# 5 0.003003 0.000740 -0.004167 0.000000 0.027672 0.000000
# 6 0.000000 0.000000 0.000000 -0.000654 0.000000 0.020352
#
#
# Mechanical properties :
#
#
# Convention : Reuss Voigt Hill
#
# Bulk Modulus (GPa) = 42.76241 51.95990 47.36116
# Shear Modulus (GPa) = 36.03247 40.28170 38.15709
#
# Velocity S-wave (km/s) = 3.68278 3.89388 3.78980
# Velocity P-wave (km/s) = 5.84636 6.30670 6.08089
#
# Compressibility (1/GPa) = 0.02338503
#
# Stress axis : x y z
#
# Youngs Moduli (GPa) = 138.61624 85.39121 54.13008
#
# Poissons Ratio (x) = 0.18620 0.12272
# Poissons Ratio (y) = 0.30226 0.13853
# Poissons Ratio (z) = 0.31427 0.21854
#
# Static dielectric constant tensor:
#      x y z
#    x 2.147020 0.000000 -0.052150 
#    y 0.000000 2.146320 0.000000 
#    z -0.052150 0.000000 2.160540 
# 
# From -- ./inp_files/291583.got.cif
#   From: 2010.05.17/outbox.cif.g08.bks.cpg/sg15_146_cif.got.tgz:291583.got - 2010.06.03 18:47:42.
