data_PCOD9276685
_publ_section_title
;
Structure prediction by ZEFSAII (Michael W. Deem and Ramdas Pophale) SiO2 
 PCOD9276685
Probable space group: C 2/C
;
_chemical_formula_sum "Si O2"
_cell_formula_units_Z 52
_cell_length_a 9.102855
_cell_length_b 26.710119
_cell_length_c 11.214337
_cell_angle_alpha 90.000000
_cell_angle_beta 76.534939
_cell_angle_gamma 90.000000
_cell_volume 2651.685793
_symmetry_space_group_name_H-M "C 2/C"
_symmetry_group_IT_number 15
_symmetry_cell_setting 'monoclinic'
loop_
_space_group_symop_operation_xyz
x,y,z
-x,y,1/2-z
-x,-y,-z
x,-y,1/2+z
1/2+x,1/2+y,z
1/2-x,1/2+y,1/2-z
1/2-x,1/2-y,-z
1/2+x,1/2-y,1/2+z
loop_
_atom_site_type_symbol
_atom_site_label
_atom_site_fract_x
_atom_site_fract_y
_atom_site_fract_z
Si Si1 0.256737 0.693441 0.040774
Si Si2 0.221609 0.042538 0.354584
Si Si3 0.874099 0.593873 0.551019
Si Si4 0.000000 0.332973 0.750000
Si Si5 0.646337 0.562866 0.798727
Si Si6 0.327810 0.095495 0.104233
Si Si7 0.530032 0.623121 0.034254
O O1 0.420162 0.671024 0.046434
O O2 0.142864 0.695102 0.173006
O O3 0.250000 0.750000 0.000000
O O4 0.186230 0.650654 0.965636
O O5 0.326497 0.061959 0.442246
O O6 0.285185 0.052843 0.208925
O O7 0.075088 0.077650 0.398841
O O8 0.187620 0.984344 0.372665
O O9 0.780633 0.575953 0.683071
O O10 0.054650 0.585062 0.525420
O O11 0.070306 0.367258 0.838187
O O12 0.500000 0.547092 0.750000
O O13 0.590799 0.608224 0.892015
O O14 0.176834 0.122803 0.089274
#
# Coordination Sequence:
#
# PCOD9276685 Si02
#       7
#     8   8   8   4   8   8   8
#     4  10  21  40  67  94 117 165 214 268 337 379
#     4  11  21  37  62  88 120 175 217 260 319 384
#     4  10  23  42  58  89 133 165 220 269 324 389
#     4  10  20  40  64  90 126 166 204 278 312 380
#     4  12  23  38  59  88 135 174 213 270 326 388
#     4  11  20  41  62  88 128 165 217 267 309 378
#     4  11  23  38  63  93 124 164 220 270 313 390
#
# _framework density 19.610168000000002
#
# number of rings (size 3 to 8) (size 9 to 14) (size 15 to 20)
#    0.000    1.231    7.692    1.846    2.154    2.462 
#    2.769    3.077    0.000    3.692    0.000    0.000 
#    0.000    0.000    0.000    0.000    0.000    0.000 
#
# Total GULP energy -144979.581624 kJ/mol
# GULP energy per Si atom -5576.137755 kJ/mol
# Density = 1.956553 g / cm^3
# Si number density = 19.610168 Si / 1000 Ang^3
#
#
#
# Elastic Constant Matrix: (Units=GPa)
#
#
# Indices 1 2 3 4 5 6 
#
# 1 132.2864 33.9627 30.4126 0.0000 -17.0480 0.0000
# 2 33.9627 90.3307 30.7248 0.0000 -3.9301 0.0000
# 3 30.4126 30.7248 85.8708 0.0000 -35.5278 0.0000
# 4 0.0000 0.0000 0.0000 12.4601 0.0000 8.9494
# 5 -17.0480 -3.9301 -35.5278 0.0000 38.2384 0.0000
# 6 0.0000 0.0000 0.0000 8.9494 0.0000 -0.3364
#
#
#
# Elastic Compliance Matrix: (Units=1/GPa)
#
#
# Indices 1 2 3 4 5 6 
#
# 1 0.008880 -0.002889 -0.000968 0.000000 0.002762 0.000000
# 2 -0.002889 0.014087 -0.006418 0.000000 -0.005804 0.000000
# 3 -0.000968 -0.006418 0.022472 0.000000 0.019787 0.000000
# 4 0.000000 0.000000 0.000000 0.003992 0.000000 0.106181
# 5 0.002762 -0.005804 0.019787 0.000000 0.045171 0.000000
# 6 0.000000 0.000000 0.000000 0.106181 0.000000 -0.147835
#
#
# Mechanical properties :
#
#
# Convention : Reuss Voigt Hill
#
# Bulk Modulus (GPa) = 40.18175 55.40978 47.79577
# Shear Modulus (GPa) = -205.03721 24.29828 -90.36946
#
# Velocity S-wave (km/s) = -10.23638 3.52385 -6.79581
# Velocity P-wave (km/s) = 10.91681 6.69878 6.09520
#
# Compressibility (1/GPa) = 0.02488692
#
# Stress axis : x y z
#
# Youngs Moduli (GPa) = 112.61675 70.98586 44.50063
#
# Poissons Ratio (x) = 0.20508 0.04309
# Poissons Ratio (y) = 0.32536 0.28562
# Poissons Ratio (z) = 0.10905 0.45562
#
# Static dielectric constant tensor:
#      x y z
#    x 1.759080 0.000000 -0.095820 
#    y 0.000000 1.686090 0.000000 
#    z -0.095820 0.000000 1.928630 
# 
# From -- ./inp_files/80616.got.cif
#   From: 2010.05.17/outbox.cif.g08.bks.cpg/sg15_41_cif.got.tgz:80616.got - 2010.06.03 18:47:42.
