data_PCOD9276821
_publ_section_title
;
Structure prediction by ZEFSAII (Michael W. Deem and Ramdas Pophale) SiO2 
 PCOD9276821
Probable space group: C 2/C
;
_chemical_formula_sum "Si O2"
_cell_formula_units_Z 64
_cell_length_a 13.474424
_cell_length_b 28.916848
_cell_length_c 11.362219
_cell_angle_alpha 90.000000
_cell_angle_beta 134.992745
_cell_angle_gamma 90.000000
_cell_volume 3130.864731
_symmetry_space_group_name_H-M "C 2/C"
_symmetry_group_IT_number 15
_symmetry_cell_setting 'monoclinic'
loop_
_space_group_symop_operation_xyz
x,y,z
-x,y,1/2-z
-x,-y,-z
x,-y,1/2+z
1/2+x,1/2+y,z
1/2-x,1/2+y,1/2-z
1/2-x,1/2-y,-z
1/2+x,1/2-y,1/2+z
loop_
_atom_site_type_symbol
_atom_site_label
_atom_site_fract_x
_atom_site_fract_y
_atom_site_fract_z
Si Si1 0.788179 0.223440 0.411752
Si Si2 0.153116 0.625110 0.344078
Si Si3 0.718983 0.605720 0.358405
Si Si4 0.086111 0.767993 0.054145
Si Si5 0.805885 0.616381 0.855227
Si Si6 0.023813 0.327065 0.404771
Si Si7 0.560537 0.948621 0.564349
Si Si8 0.421357 0.371570 0.516297
O O1 0.750000 0.250000 0.500000
O O2 0.737424 0.169979 0.371164
O O3 0.712002 0.249861 0.240696
O O4 0.953620 0.225080 0.528925
O O5 0.214768 0.611936 0.522957
O O6 0.117956 0.580400 0.230190
O O7 0.000000 0.644368 0.250000
O O8 0.837592 0.645003 0.439732
O O9 0.805724 0.559195 0.407089
O O10 0.659681 0.608182 0.439689
O O11 0.583618 0.614415 0.163325
O O12 0.053608 0.726893 0.937406
O O13 0.100441 0.816294 0.999247
O O14 0.658928 0.612637 0.667141
O O15 0.892292 0.661372 0.880174
O O16 0.921456 0.579446 0.912398
O O17 0.000000 0.341398 0.250000
O O18 0.500000 0.000000 0.500000
#
# Coordination Sequence:
#
# PCOD9276821 Si02
#       8
#     8   8   8   8   8   8   8   8
#     4  12  23  38  59  90 133 184 227 271 320 388
#     4  10  20  40  65  91 134 166 218 284 337 384
#     4  10  23  40  62  87 132 172 209 270 341 395
#     4  12  24  34  55  89 127 174 233 265 314 392
#     4  10  21  41  63  95 122 169 214 275 336 402
#     4  11  21  37  58  87 126 178 234 279 312 379
#     4  10  22  44  71 100 120 160 219 276 339 410
#     4  11  22  39  58  93 134 178 209 262 345 402
#
# _framework density 20.441637
#
# number of rings (size 3 to 8) (size 9 to 14) (size 15 to 20)
#    0.000    1.250    1.250    7.125    1.750    0.500 
#    6.750    2.500    0.000    0.000    0.000    0.000 
#    0.000    0.000    0.000    0.000    0.000    0.000 
#
# Total GULP energy -178478.330493 kJ/mol
# GULP energy per Si atom -5577.447828 kJ/mol
# Density = 2.039511 g / cm^3
# Si number density = 20.441637 Si / 1000 Ang^3
#
#
#
# Elastic Constant Matrix: (Units=GPa)
#
#
# Indices 1 2 3 4 5 6 
#
# 1 74.1602 34.7435 25.3339 0.0000 2.5519 0.0000
# 2 34.7435 120.6668 51.6992 0.0000 8.4342 0.0000
# 3 25.3339 51.6992 138.6128 0.0000 0.3754 0.0000
# 4 0.0000 0.0000 0.0000 16.0964 0.0000 8.6226
# 5 2.5519 8.4342 0.3754 0.0000 29.6479 0.0000
# 6 0.0000 0.0000 0.0000 8.6226 0.0000 22.3861
#
#
#
# Elastic Compliance Matrix: (Units=1/GPa)
#
#
# Indices 1 2 3 4 5 6 
#
# 1 0.015819 -0.003928 -0.001425 0.000000 -0.000226 0.000000
# 2 -0.003928 0.011070 -0.003403 0.000000 -0.002768 0.000000
# 3 -0.001425 -0.003403 0.008742 0.000000 0.000980 0.000000
# 4 0.000000 0.000000 0.000000 0.078277 0.000000 -0.030150
# 5 -0.000226 -0.002768 0.000980 0.000000 0.034524 0.000000
# 6 0.000000 0.000000 0.000000 -0.030150 0.000000 0.056284
#
#
# Mechanical properties :
#
#
# Convention : Reuss Voigt Hill
#
# Bulk Modulus (GPa) = 55.19783 61.88809 58.54296
# Shear Modulus (GPa) = 21.90406 28.40363 25.15385
#
# Velocity S-wave (km/s) = 3.27699 3.73164 3.51168
# Velocity P-wave (km/s) = 6.43269 6.99343 6.71891
#
# Compressibility (1/GPa) = 0.01811665
#
# Stress axis : x y z
#
# Youngs Moduli (GPa) = 63.21326 90.33424 114.39561
#
# Poissons Ratio (x) = 0.35486 0.16307
# Poissons Ratio (y) = 0.24832 0.38933
# Poissons Ratio (z) = 0.09011 0.30744
#
# Static dielectric constant tensor:
#      x y z
#    x 1.802960 0.000000 -0.047950 
#    y 0.000000 1.789520 0.000000 
#    z -0.047950 0.000000 1.803160 
# 
# From -- ./inp_files/101659.got.cif
#   From: 2010.05.17/outbox.cif.g08.bks.cpg/sg15_51_cif.got.tgz:101659.got - 2010.06.03 18:47:42.
