data_PCOD9276522
_publ_section_title
;
Structure prediction by ZEFSAII (Michael W. Deem and Ramdas Pophale) SiO2 
 PCOD9276522
Probable space group: C 2/C
;
_chemical_formula_sum "Si O2"
_cell_formula_units_Z 60
_cell_length_a 25.680732
_cell_length_b 8.102772
_cell_length_c 12.993943
_cell_angle_alpha 90.000000
_cell_angle_beta 94.013199
_cell_angle_gamma 90.000000
_cell_volume 2697.216185
_symmetry_space_group_name_H-M "C 2/C"
_symmetry_group_IT_number 15
_symmetry_cell_setting 'monoclinic'
loop_
_space_group_symop_operation_xyz
x,y,z
-x,y,1/2-z
-x,-y,-z
x,-y,1/2+z
1/2+x,1/2+y,z
1/2-x,1/2+y,1/2-z
1/2-x,1/2-y,-z
1/2+x,1/2-y,1/2+z
loop_
_atom_site_type_symbol
_atom_site_label
_atom_site_fract_x
_atom_site_fract_y
_atom_site_fract_z
Si Si1 0.395922 0.966886 0.969378
Si Si2 0.188959 0.426036 0.186864
Si Si3 0.559760 0.701474 0.004180
Si Si4 0.792786 0.792104 0.270353
Si Si5 0.138293 0.737017 0.864244
Si Si6 0.104930 0.914796 0.317960
Si Si7 0.447464 0.641804 0.886635
Si Si8 0.250000 0.250000 0.500000
O O1 0.411140 0.795370 0.916235
O O2 0.339465 0.029145 0.922341
O O3 0.434864 0.116014 0.948956
O O4 0.391739 0.913743 0.086795
O O5 0.195436 0.599927 0.245593
O O6 0.245851 0.348952 0.190021
O O7 0.153850 0.308308 0.250935
O O8 0.568362 0.541806 0.076560
O O9 0.602798 0.694818 0.919454
O O10 0.503656 0.678106 0.943319
O O11 0.843072 0.893744 0.242524
O O12 0.774841 0.803958 0.387427
O O13 0.102870 0.898585 0.857636
O O14 0.191597 0.767892 0.936469
O O15 0.058212 0.868208 0.236269
#
# Coordination Sequence:
#
# PCOD9276522 Si02
#       8
#     8   8   8   8   8   8   8   4
#     4  12  23  46  70 102 139 185 228 295 352 418
#     4  11  23  41  64 100 133 185 228 281 343 420
#     4  11  26  44  73 105 132 183 238 287 365 424
#     4  11  22  40  64  95 138 178 233 280 341 414
#     4  11  23  40  69  98 140 181 236 278 347 421
#     4  12  23  44  69 100 137 187 226 293 350 413
#     4  11  24  48  71  99 143 177 233 301 354 422
#     4  10  20  40  62  94 136 188 222 284 340 408
#
# _framework density 22.245159000000001
#
# number of rings (size 3 to 8) (size 9 to 14) (size 15 to 20)
#    0.000    0.800    4.000    4.000    0.000    0.000 
#    2.400    1.333    0.000    0.000    0.000    0.000 
#    0.000    0.000    0.000    0.000    0.000    0.000 
#
# Total GULP energy -167060.776700 kJ/mol
# GULP energy per Si atom -5568.692557 kJ/mol
# Density = 2.219453 g / cm^3
# Si number density = 22.245159 Si / 1000 Ang^3
#
#
#
# Elastic Constant Matrix: (Units=GPa)
#
#
# Indices 1 2 3 4 5 6 
#
# 1 50.8090 6.3205 4.5000 0.0000 1.5989 0.0000
# 2 6.3205 100.3035 -6.2728 0.0000 6.2704 0.0000
# 3 4.5000 -6.2728 34.7231 0.0000 -4.0673 0.0000
# 4 0.0000 0.0000 0.0000 29.0593 0.0000 1.2879
# 5 1.5989 6.2704 -4.0673 0.0000 28.6234 0.0000
# 6 0.0000 0.0000 0.0000 1.2879 0.0000 30.3374
#
#
#
# Elastic Compliance Matrix: (Units=1/GPa)
#
#
# Indices 1 2 3 4 5 6 
#
# 1 0.020159 -0.001380 -0.003008 0.000000 -0.001251 0.000000
# 2 -0.001380 0.010290 0.001813 0.000000 -0.001919 0.000000
# 3 -0.003008 0.001813 0.029989 0.000000 0.004032 0.000000
# 4 0.000000 0.000000 0.000000 0.034477 0.000000 -0.001464
# 5 -0.001251 -0.001919 0.004032 0.000000 0.036000 0.000000
# 6 0.000000 0.000000 0.000000 -0.001464 0.000000 0.033025
#
#
# Mechanical properties :
#
#
# Convention : Reuss Voigt Hill
#
# Bulk Modulus (GPa) = 18.08755 21.65902 19.87329
# Shear Modulus (GPa) = 26.66377 29.68987 28.17682
#
# Velocity S-wave (km/s) = 3.46588 3.65727 3.56286
# Velocity P-wave (km/s) = 4.91580 5.25279 5.08709
#
# Compressibility (1/GPa) = 0.05528664
#
# Stress axis : x y z
#
# Youngs Moduli (GPa) = 49.60546 97.18088 33.34559
#
# Poissons Ratio (x) = 0.13413 0.10032
# Poissons Ratio (y) = 0.06847 -0.06045
# Poissons Ratio (z) = 0.14924 -0.17618
#
# Static dielectric constant tensor:
#      x y z
#    x 1.859770 0.000000 -0.020530 
#    y 0.000000 1.813390 0.000000 
#    z -0.020530 0.000000 1.804840 
# 
# From -- ./inp_files/121957.got.cif
#   From: 2010.05.17/outbox.cif.g08.bks.cpg/sg15_61_cif.got.tgz:121957.got - 2010.06.03 18:47:42.
