data_PCOD9276824
_publ_section_title
;
Structure prediction by ZEFSAII (Michael W. Deem and Ramdas Pophale) SiO2 
 PCOD9276824
Probable space group: C 2/C
;
_chemical_formula_sum "Si O2"
_cell_formula_units_Z 40
_cell_length_a 8.581799
_cell_length_b 24.645694
_cell_length_c 9.337249
_cell_angle_alpha 90.000000
_cell_angle_beta 84.080299
_cell_angle_gamma 90.000000
_cell_volume 1964.338013
_symmetry_space_group_name_H-M "C 2/C"
_symmetry_group_IT_number 15
_symmetry_cell_setting 'monoclinic'
loop_
_space_group_symop_operation_xyz
x,y,z
-x,y,1/2-z
-x,-y,-z
x,-y,1/2+z
1/2+x,1/2+y,z
1/2-x,1/2+y,1/2-z
1/2-x,1/2-y,-z
1/2+x,1/2-y,1/2+z
loop_
_atom_site_type_symbol
_atom_site_label
_atom_site_fract_x
_atom_site_fract_y
_atom_site_fract_z
Si Si1 0.670639 0.818553 0.446845
Si Si2 0.846858 0.854667 0.165959
Si Si3 0.145046 0.540284 0.625338
Si Si4 0.067569 0.574497 0.099081
Si Si5 0.017639 0.215260 0.418383
O O1 0.733038 0.819223 0.278125
O O2 0.635655 0.879879 0.491937
O O3 0.808045 0.801511 0.543468
O O4 0.521877 0.778630 0.465189
O O5 0.770866 0.913270 0.143438
O O6 0.000000 0.862242 0.250000
O O7 0.897923 0.821486 0.020291
O O8 0.181828 0.475919 0.625205
O O9 0.000000 0.546909 0.750000
O O10 0.079039 0.550252 0.473055
O O11 0.000000 0.599555 0.250000
O O12 0.000000 0.209198 0.250000
#
# Coordination Sequence:
#
# PCOD9276824 Si02
#       5
#     8   8   8   8   8
#     4  10  22  42  60  88 128 161 205 252 308 372
#     4  10  22  42  64  89 128 166 198 253 317 371
#     4  10  20  40  65  92 122 161 209 250 309 365
#     4  10  22  36  64  93 120 160 211 256 294 363
#     4  10  24  40  61  92 122 161 208 255 309 367
#
# _framework density 20.363094
#
# number of rings (size 3 to 8) (size 9 to 14) (size 15 to 20)
#    0.000    2.000    2.000    0.000    5.600    4.800 
#    0.000    5.000    0.000    0.000    0.000    0.000 
#    0.000    0.000    0.000    0.000    0.000    0.000 
#
# Total GULP energy -111523.942316 kJ/mol
# GULP energy per Si atom -5576.197116 kJ/mol
# Density = 2.031675 g / cm^3
# Si number density = 20.363094 Si / 1000 Ang^3
#
#
#
# Elastic Constant Matrix: (Units=GPa)
#
#
# Indices 1 2 3 4 5 6 
#
# 1 35.0131 47.5961 26.4297 0.0000 -3.7307 0.0000
# 2 47.5961 139.5808 48.1859 0.0000 -9.7057 0.0000
# 3 26.4297 48.1859 146.5274 0.0000 1.4581 0.0000
# 4 0.0000 0.0000 0.0000 32.8029 0.0000 15.1266
# 5 -3.7307 -9.7057 1.4581 0.0000 21.9929 0.0000
# 6 0.0000 0.0000 0.0000 15.1266 0.0000 48.6162
#
#
#
# Elastic Compliance Matrix: (Units=1/GPa)
#
#
# Indices 1 2 3 4 5 6 
#
# 1 0.055605 -0.017312 -0.004357 0.000000 0.002081 0.000000
# 2 -0.017312 0.013792 -0.001445 0.000000 0.003246 0.000000
# 3 -0.004357 -0.001445 0.008105 0.000000 -0.001914 0.000000
# 4 0.000000 0.000000 0.000000 0.035592 0.000000 -0.011074
# 5 0.002081 0.003246 -0.001914 0.000000 0.047382 0.000000
# 6 0.000000 0.000000 0.000000 -0.011074 0.000000 0.024015
#
#
# Mechanical properties :
#
#
# Convention : Reuss Voigt Hill
#
# Bulk Modulus (GPa) = 31.97633 62.83833 47.40733
# Shear Modulus (GPa) = 20.73445 33.94303 27.33874
#
# Velocity S-wave (km/s) = 3.19444 4.08719 3.66808
# Velocity P-wave (km/s) = 5.41693 7.29379 6.42427
#
# Compressibility (1/GPa) = 0.03127314
#
# Stress axis : x y z
#
# Youngs Moduli (GPa) = 17.98388 72.50458 123.38151
#
# Poissons Ratio (x) = 1.25521 0.53762
# Poissons Ratio (y) = 0.31134 0.17832
# Poissons Ratio (z) = 0.07836 0.10479
#
# Static dielectric constant tensor:
#      x y z
#    x 1.734480 0.000000 -0.005920 
#    y 0.000000 1.839270 0.000000 
#    z -0.005920 0.000000 1.740850 
# 
# From -- ./inp_files/23477.got.cif
#   From: 2010.05.17/outbox.cif.g08.bks.cpg/sg15_12_cif.got.tgz:23477.got - 2010.06.03 18:47:42.
