data_PCOD9276223
_publ_section_title
;
Structure prediction by ZEFSAII (Michael W. Deem and Ramdas Pophale) SiO2 
 PCOD9276223
Probable space group: C 2/C
;
_chemical_formula_sum "Si O2"
_cell_formula_units_Z 56
_cell_length_a 11.657656
_cell_length_b 30.152398
_cell_length_c 9.865948
_cell_angle_alpha 90.000000
_cell_angle_beta 121.514356
_cell_angle_gamma 90.000000
_cell_volume 2956.453141
_symmetry_space_group_name_H-M "C 2/C"
_symmetry_group_IT_number 15
_symmetry_cell_setting 'monoclinic'
loop_
_space_group_symop_operation_xyz
x,y,z
-x,y,1/2-z
-x,-y,-z
x,-y,1/2+z
1/2+x,1/2+y,z
1/2-x,1/2+y,1/2-z
1/2-x,1/2-y,-z
1/2+x,1/2-y,1/2+z
loop_
_atom_site_type_symbol
_atom_site_label
_atom_site_fract_x
_atom_site_fract_y
_atom_site_fract_z
Si Si1 0.500000 0.923879 0.750000
Si Si2 0.415038 0.134457 0.948232
Si Si3 0.500000 0.927634 0.250000
Si Si4 0.087270 0.706777 0.942489
Si Si5 0.372258 0.472623 0.256202
Si Si6 0.211147 0.494453 0.897050
Si Si7 0.893005 0.132632 0.799028
Si Si8 0.893341 0.809873 0.562588
O O1 0.440716 0.893472 0.597419
O O2 0.616245 0.957142 0.772403
O O3 0.461234 0.103524 0.851258
O O4 0.506706 0.177974 0.000600
O O5 0.258637 0.145638 0.834969
O O6 0.374333 0.960297 0.144520
O O7 0.095022 0.758832 0.980474
O O8 0.000000 0.703132 0.750000
O O9 0.237313 0.687427 0.013856
O O10 0.500000 0.489321 0.250000
O O11 0.333274 0.497631 0.369165
O O12 0.394276 0.421021 0.305942
O O13 0.253326 0.478017 0.072004
O O14 0.000000 0.145661 0.750000
O O15 0.921366 0.155755 0.959750
O O16 0.000000 0.815887 0.750000
#
# Coordination Sequence:
#
# PCOD9276223 Si02
#       8
#     4   8   4   8   8   8   8   8
#     4  11  24  36  60  94 132 156 212 270 306 373
#     4  12  21  41  63  93 125 171 208 259 326 381
#     4  11  20  34  68  88 118 160 214 264 312 373
#     4  10  20  39  73  94 125 159 212 263 317 383
#     4  11  23  40  61  83 126 172 205 255 315 380
#     4  11  21  40  59  91 120 162 214 263 308 366
#     4  11  23  42  62  88 132 172 202 260 331 376
#     4  10  22  42  67 100 123 160 213 268 311 381
#
# _framework density 18.941616
#
# number of rings (size 3 to 8) (size 9 to 14) (size 15 to 20)
#    0.000    1.143    5.000    1.286    0.000    3.429 
#    1.286    1.429    0.000    0.000    0.000    0.000 
#    0.000    0.000    0.000    0.000    0.000    0.000 
#
# Total GULP energy -156398.144276 kJ/mol
# GULP energy per Si atom -5585.648010 kJ/mol
# Density = 1.889850 g / cm^3
# Si number density = 18.941616 Si / 1000 Ang^3
#
#
#
# Elastic Constant Matrix: (Units=GPa)
#
#
# Indices 1 2 3 4 5 6 
#
# 1 132.5359 48.2880 42.3453 0.0000 -1.7021 0.0000
# 2 48.2880 72.1377 33.8325 0.0000 -10.6952 0.0000
# 3 42.3453 33.8325 95.7001 0.0000 -1.6805 0.0000
# 4 0.0000 0.0000 0.0000 13.8672 0.0000 -3.5734
# 5 -1.7021 -10.6952 -1.6805 0.0000 28.6794 0.0000
# 6 0.0000 0.0000 0.0000 -3.5734 0.0000 23.7990
#
#
#
# Elastic Compliance Matrix: (Units=1/GPa)
#
#
# Indices 1 2 3 4 5 6 
#
# 1 0.010576 -0.006161 -0.002534 0.000000 -0.001818 0.000000
# 2 -0.006161 0.021252 -0.004659 0.000000 0.007287 0.000000
# 3 -0.002534 -0.004659 0.013198 0.000000 -0.001115 0.000000
# 4 0.000000 0.000000 0.000000 0.075015 0.000000 0.011264
# 5 -0.001818 0.007287 -0.001115 0.000000 0.037412 0.000000
# 6 0.000000 0.000000 0.000000 0.011264 0.000000 0.043710
#
#
# Mechanical properties :
#
#
# Convention : Reuss Voigt Hill
#
# Bulk Modulus (GPa) = 54.58885 61.03390 57.81138
# Shear Modulus (GPa) = 21.36978 24.99632 23.18305
#
# Velocity S-wave (km/s) = 3.36250 3.63664 3.50225
# Velocity P-wave (km/s) = 6.63003 7.06581 6.85138
#
# Compressibility (1/GPa) = 0.01831876
#
# Stress axis : x y z
#
# Youngs Moduli (GPa) = 94.55555 47.05515 75.76957
#
# Poissons Ratio (x) = 0.28989 0.19197
# Poissons Ratio (y) = 0.58252 0.35302
# Poissons Ratio (z) = 0.23956 0.21924
#
# Static dielectric constant tensor:
#      x y z
#    x 1.678480 0.000000 0.040600 
#    y 0.000000 1.646120 0.000000 
#    z 0.040600 0.000000 1.659500 
# 
# From -- ./inp_files/35822.got.cif
#   From: 2010.05.17/outbox.cif.g08.bks.cpg/sg15_18_cif.got.tgz:35822.got - 2010.06.03 18:47:42.
