data_PCOD9276744
_publ_section_title
;
Structure prediction by ZEFSAII (Michael W. Deem and Ramdas Pophale) SiO2 
 PCOD9276744
Probable space group: C 2/C
;
_chemical_formula_sum "Si O2"
_cell_formula_units_Z 48
_cell_length_a 25.699589
_cell_length_b 18.728673
_cell_length_c 13.193392
_cell_angle_alpha 90.000000
_cell_angle_beta 159.730239
_cell_angle_gamma 90.000000
_cell_volume 2199.978570
_symmetry_space_group_name_H-M "C 2/C"
_symmetry_group_IT_number 15
_symmetry_cell_setting 'monoclinic'
loop_
_space_group_symop_operation_xyz
x,y,z
-x,y,1/2-z
-x,-y,-z
x,-y,1/2+z
1/2+x,1/2+y,z
1/2-x,1/2+y,1/2-z
1/2-x,1/2-y,-z
1/2+x,1/2-y,1/2+z
loop_
_atom_site_type_symbol
_atom_site_label
_atom_site_fract_x
_atom_site_fract_y
_atom_site_fract_z
Si Si1 0.000000 0.321637 0.250000
Si Si2 0.528097 0.247423 0.507129
Si Si3 0.000000 0.827287 0.250000
Si Si4 0.211901 0.419851 0.771460
Si Si5 0.884086 0.611178 0.190355
Si Si6 0.651281 0.306780 0.913615
Si Si7 0.218181 0.577976 0.713553
O O1 0.082878 0.372715 0.481424
O O2 0.113077 0.265309 0.405293
O O3 0.549237 0.279295 0.434625
O O4 0.392071 0.192162 0.248171
O O5 0.534287 0.306637 0.606458
O O6 0.676123 0.201696 0.806713
O O7 0.136824 0.874426 0.460104
O O8 0.166878 0.434085 0.805892
O O9 0.237982 0.493771 0.761112
O O10 0.051598 0.592733 0.456378
O O11 0.785203 0.602096 0.909495
O O12 0.662431 0.375451 0.005460
#
# Coordination Sequence:
#
# PCOD9276744 Si02
#       7
#     4   8   4   8   8   8   8
#     4  12  22  41  67 102 126 176 246 280 328 417
#     4  10  20  40  64  95 129 170 223 284 345 393
#     4  12  26  41  63  98 146 176 220 288 348 413
#     4  12  26  42  67 101 139 184 229 283 352 414
#     4  10  21  42  70  96 132 182 232 282 343 412
#     4  10  21  38  65  94 126 172 223 288 337 396
#     4  10  23  42  67  98 139 178 229 291 346 417
#
# _framework density 21.818394999999999
#
# number of rings (size 3 to 8) (size 9 to 14) (size 15 to 20)
#    0.000    1.333    3.333    3.500    0.000    4.000 
#    0.000    1.667    0.000    0.000    0.000    0.000 
#    0.000    0.000    0.000    0.000    0.000    0.000 
#
# Total GULP energy -134005.783103 kJ/mol
# GULP energy per Si atom -5583.574296 kJ/mol
# Density = 2.176874 g / cm^3
# Si number density = 21.818395 Si / 1000 Ang^3
#
#
#
# Elastic Constant Matrix: (Units=GPa)
#
#
# Indices 1 2 3 4 5 6 
#
# 1 82.0905 18.3102 50.3709 0.0000 -31.0281 0.0000
# 2 18.3102 85.1494 28.8628 0.0000 -13.2391 0.0000
# 3 50.3709 28.8628 63.0046 0.0000 -24.4115 0.0000
# 4 0.0000 0.0000 0.0000 12.0260 0.0000 -2.5665
# 5 -31.0281 -13.2391 -24.4115 0.0000 43.4727 0.0000
# 6 0.0000 0.0000 0.0000 -2.5665 0.0000 22.6268
#
#
#
# Elastic Compliance Matrix: (Units=1/GPa)
#
#
# Indices 1 2 3 4 5 6 
#
# 1 0.026660 0.002028 -0.018700 0.000000 0.009145 0.000000
# 2 0.002028 0.014081 -0.007476 0.000000 0.001537 0.000000
# 3 -0.018700 -0.007476 0.036033 0.000000 0.004610 0.000000
# 4 0.000000 0.000000 0.000000 0.085216 0.000000 0.009666
# 5 0.009145 0.001537 0.004610 0.000000 0.032587 0.000000
# 6 0.000000 0.000000 0.000000 0.009666 0.000000 0.045292
#
#
# Mechanical properties :
#
#
# Convention : Reuss Voigt Hill
#
# Bulk Modulus (GPa) = 35.11466 47.25914 41.18690
# Shear Modulus (GPa) = 16.79772 24.47180 20.63476
#
# Velocity S-wave (km/s) = 2.77770 3.35268 3.07864
# Velocity P-wave (km/s) = 5.13969 6.05760 5.61743
#
# Compressibility (1/GPa) = 0.02847814
#
# Stress axis : x y z
#
# Youngs Moduli (GPa) = 37.50880 71.01655 27.75217
#
# Poissons Ratio (x) = -0.14399 0.51896
# Poissons Ratio (y) = -0.07605 0.20748
# Poissons Ratio (z) = 0.70141 0.53092
#
# Static dielectric constant tensor:
#      x y z
#    x 1.842670 0.000000 -0.019760 
#    y 0.000000 1.811070 0.000000 
#    z -0.019760 0.000000 1.808420 
# 
# From -- ./inp_files/124351.got.cif
#   From: 2010.05.17/outbox.cif.g08.bks.cpg/sg15_63_cif.got.tgz:124351.got - 2010.06.03 18:47:42.
