data_PCOD9276460
_publ_section_title
;
Structure prediction by ZEFSAII (Michael W. Deem and Ramdas Pophale) SiO2 
 PCOD9276460
Probable space group: C 2/C
;
_chemical_formula_sum "Si O2"
_cell_formula_units_Z 44
_cell_length_a 11.600472
_cell_length_b 13.351792
_cell_length_c 13.829895
_cell_angle_alpha 90.000000
_cell_angle_beta 95.731559
_cell_angle_gamma 90.000000
_cell_volume 2131.363347
_symmetry_space_group_name_H-M "C 2/C"
_symmetry_group_IT_number 15
_symmetry_cell_setting 'monoclinic'
loop_
_space_group_symop_operation_xyz
x,y,z
-x,y,1/2-z
-x,-y,-z
x,-y,1/2+z
1/2+x,1/2+y,z
1/2-x,1/2+y,1/2-z
1/2-x,1/2-y,-z
1/2+x,1/2-y,1/2+z
loop_
_atom_site_type_symbol
_atom_site_label
_atom_site_fract_x
_atom_site_fract_y
_atom_site_fract_z
Si Si1 0.666133 0.670433 0.043179
Si Si2 0.573826 0.716900 0.563000
Si Si3 0.500000 0.811612 0.750000
Si Si4 0.630516 0.355071 0.755141
Si Si5 0.810907 0.465355 0.667825
Si Si6 0.833069 0.326937 0.096517
O O1 0.641572 0.701650 0.152622
O O2 0.735650 0.567457 0.067504
O O3 0.750000 0.750000 0.000000
O O4 0.543583 0.662319 0.979374
O O5 0.561975 0.746799 0.673376
O O6 0.696709 0.662751 0.560118
O O7 0.590389 0.812438 0.493024
O O8 0.409189 0.882476 0.688456
O O9 0.500000 0.394409 0.750000
O O10 0.723375 0.444254 0.750230
O O11 0.652958 0.275085 0.840624
O O12 0.861081 0.575074 0.660390
#
# Coordination Sequence:
#
# PCOD9276460 Si02
#       6
#     8   8   4   8   8   8
#     4  10  20  40  62  87 126 164 203 253 314 353
#     4  11  22  41  67  86 128 166 200 259 308 364
#     4  12  22  42  62  96 124 160 208 258 304 368
#     4  10  20  42  61  87 128 163 203 252 308 365
#     4  10  24  39  61  94 121 160 211 253 307 366
#     4  11  23  42  63  94 122 164 209 250 312 364
#
# _framework density 20.644062999999999
#
# number of rings (size 3 to 8) (size 9 to 14) (size 15 to 20)
#    1.091    0.364    5.455    0.000    1.273    1.455 
#    4.909    0.000    0.000    0.000    0.000    0.000 
#    0.000    0.000    0.000    0.000    0.000    0.000 
#
# Total GULP energy -122569.246622 kJ/mol
# GULP energy per Si atom -5571.329392 kJ/mol
# Density = 2.059708 g / cm^3
# Si number density = 20.644063 Si / 1000 Ang^3
#
#
#
# Elastic Constant Matrix: (Units=GPa)
#
#
# Indices 1 2 3 4 5 6 
#
# 1 67.1277 -12.5016 -5.1243 0.0000 -1.3465 0.0000
# 2 -12.5016 45.5495 12.7931 0.0000 -6.7948 0.0000
# 3 -5.1243 12.7931 75.2417 0.0000 -18.1423 0.0000
# 4 0.0000 0.0000 0.0000 12.2620 0.0000 -3.2447
# 5 -1.3465 -6.7948 -18.1423 0.0000 47.4276 0.0000
# 6 0.0000 0.0000 0.0000 -3.2447 0.0000 -1.6429
#
#
#
# Elastic Compliance Matrix: (Units=1/GPa)
#
#
# Indices 1 2 3 4 5 6 
#
# 1 0.015783 0.004345 0.000655 0.000000 0.001321 0.000000
# 2 0.004345 0.024422 -0.003286 0.000000 0.002365 0.000000
# 3 0.000655 -0.003286 0.015185 0.000000 0.005357 0.000000
# 4 0.000000 0.000000 0.000000 0.053561 0.000000 -0.105781
# 5 0.001321 0.002365 0.005357 0.000000 0.023510 0.000000
# 6 0.000000 0.000000 0.000000 -0.105781 0.000000 -0.399752
#
#
# Mechanical properties :
#
#
# Convention : Reuss Voigt Hill
#
# Bulk Modulus (GPa) = 17.00188 19.80594 18.40391
# Shear Modulus (GPa) = -19.91155 24.45944 2.27394
#
# Velocity S-wave (km/s) = -3.10904 3.44585 1.05066
# Velocity P-wave (km/s) = 2.15280 5.04447 3.22584
#
# Compressibility (1/GPa) = 0.05881702
#
# Stress axis : x y z
#
# Youngs Moduli (GPa) = 63.36085 40.94598 65.85262
#
# Poissons Ratio (x) = -0.17791 -0.04311
# Poissons Ratio (y) = -0.27530 0.21641
# Poissons Ratio (z) = -0.04148 0.13456
#
# Static dielectric constant tensor:
#      x y z
#    x 1.779480 0.000000 0.026620 
#    y 0.000000 1.728910 0.000000 
#    z 0.026620 0.000000 1.765940 
# 
# From -- ./inp_files/143046.got.cif
#   From: 2010.05.17/outbox.cif.g08.bks.cpg/sg15_72_cif.got.tgz:143046.got - 2010.06.03 18:47:42.
