data_PCOD9276567
_publ_section_title
;
Structure prediction by ZEFSAII (Michael W. Deem and Ramdas Pophale) SiO2 
 PCOD9276567
Probable space group: C 2/C
;
_chemical_formula_sum "Si O2"
_cell_formula_units_Z 32
_cell_length_a 12.553495
_cell_length_b 7.285880
_cell_length_c 14.300158
_cell_angle_alpha 90.000000
_cell_angle_beta 118.017215
_cell_angle_gamma 90.000000
_cell_volume 1154.657084
_symmetry_space_group_name_H-M "C 2/C"
_symmetry_group_IT_number 15
_symmetry_cell_setting 'monoclinic'
loop_
_space_group_symop_operation_xyz
x,y,z
-x,y,1/2-z
-x,-y,-z
x,-y,1/2+z
1/2+x,1/2+y,z
1/2-x,1/2+y,1/2-z
1/2-x,1/2-y,-z
1/2+x,1/2-y,1/2+z
loop_
_atom_site_type_symbol
_atom_site_label
_atom_site_fract_x
_atom_site_fract_y
_atom_site_fract_z
Si Si1 0.584296 0.732539 0.936741
Si Si2 0.123612 0.646718 0.929309
Si Si3 0.781150 0.392682 0.660047
Si Si4 0.430526 0.430722 0.818736
O O1 0.638655 0.731771 0.851887
O O2 0.458377 0.629993 0.876037
O O3 0.598753 0.947601 0.966475
O O4 0.671311 0.616682 0.039246
O O5 0.140246 0.572767 0.828623
O O6 0.010838 0.775209 0.904164
O O7 0.250000 0.750000 0.000000
O O8 0.711272 0.392508 0.727924
O O9 0.500000 0.422754 0.750000
#
# Coordination Sequence:
#
# PCOD9276567 Si02
#       4
#     8   8   8   8
#     4   9  20  41  60  86 118 150 200 251 291 342
#     4  10  20  40  63  89 112 153 207 242 295 352
#     4   9  20  41  61  87 117 148 208 246 285 361
#     4  12  24  38  59  89 125 159 194 245 304 356
#
# _framework density 27.713857999999998
#
# number of rings (size 3 to 8) (size 9 to 14) (size 15 to 20)
#    1.500    0.500    2.500    0.750    0.000    4.000 
#    4.500    0.000    0.000    0.000    0.000    0.000 
#    0.000    0.000    0.000    0.000    0.000    0.000 
#
# Total GULP energy -89201.027640 kJ/mol
# GULP energy per Si atom -5575.064227 kJ/mol
# Density = 2.765078 g / cm^3
# Si number density = 27.713858 Si / 1000 Ang^3
#
#
#
# Elastic Constant Matrix: (Units=GPa)
#
#
# Indices 1 2 3 4 5 6 
#
# 1 185.4459 50.5135 4.0981 0.0000 -3.0782 0.0000
# 2 50.5135 156.9628 20.0248 0.0000 13.4634 0.0000
# 3 4.0981 20.0248 46.8794 0.0000 3.2330 0.0000
# 4 0.0000 0.0000 0.0000 21.3737 0.0000 0.9618
# 5 -3.0782 13.4634 3.2330 0.0000 44.4455 0.0000
# 6 0.0000 0.0000 0.0000 0.9618 0.0000 51.4724
#
#
#
# Elastic Compliance Matrix: (Units=1/GPa)
#
#
# Indices 1 2 3 4 5 6 
#
# 1 0.005959 -0.002040 0.000281 0.000000 0.001010 0.000000
# 2 -0.002040 0.007590 -0.002910 0.000000 -0.002229 0.000000
# 3 0.000281 -0.002910 0.022601 0.000000 -0.000743 0.000000
# 4 0.000000 0.000000 0.000000 0.046826 0.000000 -0.000875
# 5 0.001010 -0.002229 -0.000743 0.000000 0.023299 0.000000
# 6 0.000000 0.000000 0.000000 -0.000875 0.000000 0.019444
#
#
# Mechanical properties :
#
#
# Convention : Reuss Voigt Hill
#
# Bulk Modulus (GPa) = 37.29797 59.84010 48.56903
# Shear Modulus (GPa) = 34.72372 44.43509 39.57941
#
# Velocity S-wave (km/s) = 3.54353 4.00853 3.78318
# Velocity P-wave (km/s) = 5.49814 6.56227 6.05363
#
# Compressibility (1/GPa) = 0.02681111
#
# Stress axis : x y z
#
# Youngs Moduli (GPa) = 167.82269 131.75410 44.24576
#
# Poissons Ratio (x) = 0.26879 -0.01243
# Poissons Ratio (y) = 0.34237 0.12876
# Poissons Ratio (z) = -0.04714 0.38341
#
# Static dielectric constant tensor:
#      x y z
#    x 2.284680 0.000000 -0.276350 
#    y 0.000000 2.129970 0.000000 
#    z -0.276350 0.000000 2.351430 
# 
# From -- ./inp_files/194714.got.cif
#   From: 2010.05.17/outbox.cif.g08.bks.cpg/sg15_98_cif.got.tgz:194714.got - 2010.06.03 18:47:42.
