data_PCOD9276900
_publ_section_title
;
Structure prediction by ZEFSAII (Michael W. Deem and Ramdas Pophale) SiO2 
 PCOD9276900
Probable space group: C 2/C
;
_chemical_formula_sum "Si O2"
_cell_formula_units_Z 28
_cell_length_a 32.435930
_cell_length_b 4.847974
_cell_length_c 21.507328
_cell_angle_alpha 90.000000
_cell_angle_beta 162.822199
_cell_angle_gamma 90.000000
_cell_volume 998.831641
_symmetry_space_group_name_H-M "C 2/C"
_symmetry_group_IT_number 15
_symmetry_cell_setting 'monoclinic'
loop_
_space_group_symop_operation_xyz
x,y,z
-x,y,1/2-z
-x,-y,-z
x,-y,1/2+z
1/2+x,1/2+y,z
1/2-x,1/2+y,1/2-z
1/2-x,1/2-y,-z
1/2+x,1/2-y,1/2+z
loop_
_atom_site_type_symbol
_atom_site_label
_atom_site_fract_x
_atom_site_fract_y
_atom_site_fract_z
Si Si1 0.500000 0.842357 0.750000
Si Si2 0.392427 0.512512 0.901863
Si Si3 0.402274 0.868514 0.734984
Si Si4 0.230714 0.515750 0.829976
O O1 0.454908 0.009148 0.747106
O O2 0.370383 0.638012 0.550367
O O3 0.336784 0.821604 0.820992
O O4 0.500000 0.500000 0.000000
O O5 0.483017 0.369868 0.085927
O O6 0.732010 0.685107 0.301669
O O7 0.250000 0.750000 0.500000
O O8 0.368129 0.022708 0.750669
#
# Coordination Sequence:
#
# PCOD9276900 Si02
#       4
#     4   8   8   8
#     4  10  22  40  60  92 126 162 202 252 308 364
#     4  10  20  40  66  89 118 161 205 252 304 360
#     4   9  19  38  61  88 122 158 200 249 302 359
#     4  10  22  41  64  89 121 161 206 253 303 359
#
# _framework density 28.032753
#
# number of rings (size 3 to 8) (size 9 to 14) (size 15 to 20)
#    0.000    2.286    0.000    3.429    0.000    3.429 
#    0.000   60.000    0.000    0.000    0.000    0.000 
#    0.000    0.000    0.000    0.000    0.000    0.000 
#
# Total GULP energy -78348.205418 kJ/mol
# GULP energy per Si atom -5596.300387 kJ/mol
# Density = 2.796895 g / cm^3
# Si number density = 28.032753 Si / 1000 Ang^3
#
#
#
# Elastic Constant Matrix: (Units=GPa)
#
#
# Indices 1 2 3 4 5 6 
#
# 1 262.7447 15.1115 9.4188 0.0009 19.8111 -0.0002
# 2 15.1115 98.6206 17.9941 0.0072 -4.6742 -0.0040
# 3 9.4188 17.9941 159.2085 0.0007 -2.5311 -0.0011
# 4 0.0009 0.0072 0.0007 26.7564 -0.0004 0.3865
# 5 19.8111 -4.6742 -2.5311 -0.0004 41.9597 0.0001
# 6 -0.0002 -0.0040 -0.0011 0.3865 0.0001 7.7843
#
#
#
# Elastic Compliance Matrix: (Units=1/GPa)
#
#
# Indices 1 2 3 4 5 6 
#
# 1 0.004000 -0.000672 -0.000192 0.000000 -0.001975 0.000000
# 2 -0.000672 0.010516 -0.001126 -0.000003 0.001421 0.000005
# 3 -0.000192 -0.001126 0.006425 0.000000 0.000353 0.000000
# 4 0.000000 -0.000003 0.000000 0.037401 0.000000 -0.001857
# 5 -0.001975 0.001421 0.000353 0.000000 0.024945 0.000000
# 6 0.000000 0.000005 0.000000 -0.001857 0.000000 0.128555
#
#
# Mechanical properties :
#
#
# Convention : Reuss Voigt Hill
#
# Bulk Modulus (GPa) = 58.95685 67.29140 63.12413
# Shear Modulus (GPa) = 22.57584 47.17004 34.87294
#
# Velocity S-wave (km/s) = 2.84093 4.10649 3.53087
# Velocity P-wave (km/s) = 5.64254 6.82210 6.26016
#
# Compressibility (1/GPa) = 0.01696156
#
# Stress axis : x y z
#
# Youngs Moduli (GPa) = 249.97402 95.09706 155.63390
#
# Poissons Ratio (x) = 0.06386 0.02991
# Poissons Ratio (y) = 0.16787 0.17527
# Poissons Ratio (z) = 0.04804 0.10710
#
# Static dielectric constant tensor:
#      x y z
#    x 2.262640 0.000000 -0.043360 
#    y 0.000000 2.117930 0.000000 
#    z -0.043360 0.000000 2.164820 
# 
# From -- ./inp_files/75880.got.cif
#   From: 2010.05.17/outbox.cif.g08.bks.cpg/sg15_38_cif.got.tgz:75880.got - 2010.06.03 18:47:42.
