data_PCOD9276462
_publ_section_title
;
Structure prediction by ZEFSAII (Michael W. Deem and Ramdas Pophale) SiO2 
 PCOD9276462
Probable space group: C 2/C
;
_chemical_formula_sum "Si O2"
_cell_formula_units_Z 64
_cell_length_a 15.179970
_cell_length_b 30.221489
_cell_length_c 8.937100
_cell_angle_alpha 90.000000
_cell_angle_beta 133.245477
_cell_angle_gamma 90.000000
_cell_volume 2986.539515
_symmetry_space_group_name_H-M "C 2/C"
_symmetry_group_IT_number 15
_symmetry_cell_setting 'monoclinic'
loop_
_space_group_symop_operation_xyz
x,y,z
-x,y,1/2-z
-x,-y,-z
x,-y,1/2+z
1/2+x,1/2+y,z
1/2-x,1/2+y,1/2-z
1/2-x,1/2-y,-z
1/2+x,1/2-y,1/2+z
loop_
_atom_site_type_symbol
_atom_site_label
_atom_site_fract_x
_atom_site_fract_y
_atom_site_fract_z
Si Si1 0.696328 0.641039 0.634907
Si Si2 0.111926 0.047216 0.492837
Si Si3 0.542285 0.204727 0.072286
Si Si4 0.255519 0.004888 0.402458
Si Si5 0.087504 0.461970 0.669832
Si Si6 0.635224 0.731915 0.454515
Si Si7 0.693437 0.208095 0.519574
Si Si8 0.032082 0.385320 0.126578
O O1 0.611118 0.598621 0.537895
O O2 0.648429 0.679335 0.470875
O O3 0.826587 0.622984 0.735037
O O4 0.720299 0.670349 0.811702
O O5 0.147893 0.021462 0.688960
O O6 0.000000 0.037286 0.250000
O O7 0.218047 0.034465 0.500287
O O8 0.612281 0.186241 0.296679
O O9 0.408146 0.220406 0.971160
O O10 0.626126 0.243257 0.102433
O O11 0.526933 0.163289 0.946195
O O12 0.355102 0.972764 0.600299
O O13 0.305801 0.035762 0.329408
O O14 0.000000 0.500000 0.500000
O O15 0.019966 0.415956 0.565217
O O16 0.500000 0.743697 0.250000
O O17 0.750000 0.750000 0.500000
O O18 0.750000 0.250000 0.500000
O O19 0.000000 0.406185 0.250000
#
# Coordination Sequence:
#
# PCOD9276462 Si02
#       8
#     8   8   8   8   8   8   8   8
#     4  11  23  38  62  93 125 168 220 269 334 403
#     4  11  23  43  67  90 126 170 225 278 334 401
#     4  10  22  37  61  90 124 172 218 270 336 399
#     4  10  23  40  64  95 124 170 214 267 339 406
#     4  11  21  37  62  95 132 162 202 262 333 408
#     4  12  24  41  65  94 131 174 230 280 344 408
#     4  10  20  40  62  87 126 172 215 274 338 401
#     4  11  21  37  59  91 130 165 208 266 333 409
#
# _framework density 21.429483999999999
#
# number of rings (size 3 to 8) (size 9 to 14) (size 15 to 20)
#    0.000    1.250    1.250    6.750    1.750    0.000 
#    2.250    0.000    0.000    4.500    0.000    0.000 
#    0.000    0.000    0.000    0.000    0.000    0.000 
#
# Total GULP energy -178203.721486 kJ/mol
# GULP energy per Si atom -5568.866296 kJ/mol
# Density = 2.138071 g / cm^3
# Si number density = 21.429484 Si / 1000 Ang^3
#
#
#
# Elastic Constant Matrix: (Units=GPa)
#
#
# Indices 1 2 3 4 5 6 
#
# 1 70.4652 28.0796 21.8437 0.0000 -10.2299 0.0000
# 2 28.0796 112.4269 29.5141 0.0000 -0.1427 0.0000
# 3 21.8437 29.5141 138.1502 0.0000 -7.9390 0.0000
# 4 0.0000 0.0000 0.0000 36.1153 0.0000 -1.4786
# 5 -10.2299 -0.1427 -7.9390 0.0000 29.9605 0.0000
# 6 0.0000 0.0000 0.0000 -1.4786 0.0000 22.5539
#
#
#
# Elastic Compliance Matrix: (Units=1/GPa)
#
#
# Indices 1 2 3 4 5 6 
#
# 1 0.016978 -0.003824 -0.001559 0.000000 0.005366 0.000000
# 2 -0.003824 0.010292 -0.001692 0.000000 -0.001705 0.000000
# 3 -0.001559 -0.001692 0.007936 0.000000 0.001563 0.000000
# 4 0.000000 0.000000 0.000000 0.027764 0.000000 0.001820
# 5 0.005366 -0.001705 0.001563 0.000000 0.035615 0.000000
# 6 0.000000 0.000000 0.000000 0.001820 0.000000 0.044458
#
#
# Mechanical properties :
#
#
# Convention : Reuss Voigt Hill
#
# Bulk Modulus (GPa) = 47.49457 53.32411 50.40934
# Shear Modulus (GPa) = 30.44859 33.83292 32.14076
#
# Velocity S-wave (km/s) = 3.77354 3.97773 3.87698
# Velocity P-wave (km/s) = 6.41852 6.78483 6.60422
#
# Compressibility (1/GPa) = 0.02105504
#
# Stress axis : x y z
#
# Youngs Moduli (GPa) = 58.90132 97.16457 126.00336
#
# Poissons Ratio (x) = 0.37158 0.19645
# Poissons Ratio (y) = 0.22525 0.21320
# Poissons Ratio (z) = 0.09183 0.16441
#
# Static dielectric constant tensor:
#      x y z
#    x 1.833380 0.000000 0.003440 
#    y 0.000000 1.765790 0.000000 
#    z 0.003440 0.000000 2.174680 
# 
# From -- ./inp_files/44888.got.cif
#   From: 2010.05.17/outbox.cif.g08.bks.cpg/sg15_23_cif.got.tgz:44888.got - 2010.06.03 18:47:42.
