data_PCOD9276789
_publ_section_title
;
Structure prediction by ZEFSAII (Michael W. Deem and Ramdas Pophale) SiO2 
 PCOD9276789
Probable space group: C 2/C
;
_chemical_formula_sum "Si O2"
_cell_formula_units_Z 64
_cell_length_a 15.175565
_cell_length_b 17.440739
_cell_length_c 18.288687
_cell_angle_alpha 90.000000
_cell_angle_beta 42.600528
_cell_angle_gamma 90.000000
_cell_volume 3276.466470
_symmetry_space_group_name_H-M "C 2/C"
_symmetry_group_IT_number 15
_symmetry_cell_setting 'monoclinic'
loop_
_space_group_symop_operation_xyz
x,y,z
-x,y,1/2-z
-x,-y,-z
x,-y,1/2+z
1/2+x,1/2+y,z
1/2-x,1/2+y,1/2-z
1/2-x,1/2-y,-z
1/2+x,1/2-y,1/2+z
loop_
_atom_site_type_symbol
_atom_site_label
_atom_site_fract_x
_atom_site_fract_y
_atom_site_fract_z
Si Si1 0.060690 0.443724 0.134264
Si Si2 0.402620 0.093124 0.241392
Si Si3 0.408005 0.323403 0.735416
Si Si4 0.528880 0.813254 0.400067
Si Si5 0.382853 0.783869 0.627129
Si Si6 0.191372 0.883398 0.306474
Si Si7 0.452024 0.497683 0.196616
Si Si8 0.811265 0.001253 0.556941
O O1 0.203375 0.473800 0.064022
O O2 0.000000 0.419008 0.250000
O O3 0.968527 0.515344 0.167249
O O4 0.071316 0.371930 0.075341
O O5 0.500000 0.110591 0.250000
O O6 0.387919 0.161870 0.194406
O O7 0.260393 0.068456 0.357603
O O8 0.500000 0.310614 0.750000
O O9 0.471898 0.271224 0.633468
O O10 0.256390 0.297137 0.829473
O O11 0.410543 0.413654 0.717760
O O12 0.498937 0.807651 0.502946
O O13 0.663263 0.852569 0.294073
O O14 0.392186 0.694299 0.640693
O O15 0.159275 0.939411 0.259319
O O16 0.174572 0.931485 0.391588
O O17 0.500000 0.483716 0.250000
O O18 0.560578 0.484871 0.067284
#
# Coordination Sequence:
#
# PCOD9276789 Si02
#       8
#     8   8   8   8   8   8   8   8
#     4   9  18  35  63  89 117 156 200 241 306 363
#     4   9  20  40  62  89 117 157 208 256 303 355
#     4  10  24  40  56  91 131 159 197 251 308 373
#     4  11  22  38  64  92 125 157 203 255 300 363
#     4  11  25  38  61  94 122 160 208 257 301 352
#     4  11  23  41  61  88 125 167 202 244 309 372
#     4  11  25  41  61  89 122 161 208 249 304 364
#     4  10  20  40  65  86 119 167 197 246 312 374
#
# _framework density 19.533238000000001
#
# number of rings (size 3 to 8) (size 9 to 14) (size 15 to 20)
#    0.000    2.000    2.500    2.250    5.250    5.500 
#    0.000    0.000    0.000    7.500    0.000    0.000 
#    0.000    0.000    0.000    0.000    0.000    0.000 
#
# Total GULP energy -178527.082896 kJ/mol
# GULP energy per Si atom -5578.971341 kJ/mol
# Density = 1.948878 g / cm^3
# Si number density = 19.533238 Si / 1000 Ang^3
#
#
#
# Elastic Constant Matrix: (Units=GPa)
#
#
# Indices 1 2 3 4 5 6 
#
# 1 53.9093 53.8406 12.6867 -0.0001 8.4940 0.0001
# 2 53.8406 101.3448 26.5275 -0.0001 25.7352 0.0001
# 3 12.6867 26.5275 57.0601 0.0000 17.2768 0.0000
# 4 -0.0001 -0.0001 0.0000 42.3619 0.0001 -18.6926
# 5 8.4940 25.7352 17.2768 0.0001 18.5001 -0.0001
# 6 0.0001 0.0001 0.0000 -18.6926 -0.0001 36.0791
#
#
#
# Elastic Compliance Matrix: (Units=1/GPa)
#
#
# Indices 1 2 3 4 5 6 
#
# 1 0.043819 -0.027966 -0.003386 0.000000 0.021947 0.000000
# 2 -0.027966 0.033141 0.001229 0.000000 -0.034409 0.000000
# 3 -0.003386 0.001229 0.024753 0.000000 -0.023272 0.000000
# 4 0.000000 0.000000 0.000000 0.030602 0.000000 0.015855
# 5 0.021947 -0.034409 -0.023272 0.000000 0.113576 0.000000
# 6 0.000000 0.000000 0.000000 0.015855 0.000000 0.035931
#
#
# Mechanical properties :
#
#
# Convention : Reuss Voigt Hill
#
# Bulk Modulus (GPa) = 24.11586 44.26930 34.19258
# Shear Modulus (GPa) = 14.04927 27.33886 20.69406
#
# Velocity S-wave (km/s) = 2.68479 3.74519 3.25842
# Velocity P-wave (km/s) = 4.68867 6.43543 5.63020
#
# Compressibility (1/GPa) = 0.04146649
#
# Stress axis : x y z
#
# Youngs Moduli (GPa) = 22.82116 30.17450 40.39915
#
# Poissons Ratio (x) = 0.84386 0.13680
# Poissons Ratio (y) = 0.63822 -0.04966
# Poissons Ratio (z) = 0.07728 -0.03709
#
# Static dielectric constant tensor:
#      x y z
#    x 1.705240 0.000000 -0.026220 
#    y 0.000000 1.688680 0.000000 
#    z -0.026220 0.000000 1.713360 
# 
# From -- ./inp_files/206460.got.cif
#   From: 2010.05.17/outbox.cif.g08.bks.cpg/sg15_104_cif.got.tgz:206460.got - 2010.06.03 18:47:42.
