data_PCOD9276242
_publ_section_title
;
Structure prediction by ZEFSAII (Michael W. Deem and Ramdas Pophale) SiO2 
 PCOD9276242
Probable space group: C 2/C
;
_chemical_formula_sum "Si O2"
_cell_formula_units_Z 60
_cell_length_a 29.650074
_cell_length_b 5.234490
_cell_length_c 17.710816
_cell_angle_alpha 90.000000
_cell_angle_beta 84.601202
_cell_angle_gamma 90.000000
_cell_volume 2736.578335
_symmetry_space_group_name_H-M "C 2/C"
_symmetry_group_IT_number 15
_symmetry_cell_setting 'monoclinic'
loop_
_space_group_symop_operation_xyz
x,y,z
-x,y,1/2-z
-x,-y,-z
x,-y,1/2+z
1/2+x,1/2+y,z
1/2-x,1/2+y,1/2-z
1/2-x,1/2-y,-z
1/2+x,1/2-y,1/2+z
loop_
_atom_site_type_symbol
_atom_site_label
_atom_site_fract_x
_atom_site_fract_y
_atom_site_fract_z
Si Si1 0.877081 0.312886 0.333432
Si Si2 0.599351 0.462730 0.521702
Si Si3 0.041559 0.335553 0.618359
Si Si4 0.500000 0.537038 0.250000
Si Si5 0.709695 0.017778 0.577979
Si Si6 0.915851 0.857010 0.678045
Si Si7 0.060173 0.617580 0.409939
Si Si8 0.804097 0.019808 0.022665
O O1 0.880796 0.102623 0.398892
O O2 0.920850 0.486750 0.347616
O O3 0.829843 0.461822 0.353929
O O4 0.880432 0.187272 0.250736
O O5 0.565580 0.690438 0.545069
O O6 0.571520 0.229860 0.490363
O O7 0.643567 0.501548 0.462584
O O8 0.993109 0.430019 0.594841
O O9 0.026932 0.133559 0.685524
O O10 0.536241 0.701597 0.288433
O O11 0.699587 0.779183 0.524891
O O12 0.763001 0.987394 0.589356
O O13 0.704951 0.275795 0.529494
O O14 0.912605 0.635091 0.616771
O O15 0.923608 0.143216 0.645965
#
# Coordination Sequence:
#
# PCOD9276242 Si02
#       8
#     8   8   8   4   8   8   8   8
#     4  11  21  36  65  86 113 148 207 242 286 342
#     4  11  23  38  58  87 114 154 194 240 287 348
#     4  11  21  37  57  85 115 152 196 239 283 342
#     4  10  20  40  56  82 112 156 202 244 290 332
#     4   9  18  32  56  87 111 140 181 247 288 335
#     4  11  23  41  56  82 114 159 193 240 286 344
#     4  11  27  38  56  80 126 156 190 234 295 343
#     4   9  18  34  54  83 118 140 180 236 303 333
#
# _framework density 21.925189
#
# number of rings (size 3 to 8) (size 9 to 14) (size 15 to 20)
#    0.000    1.600    2.667    2.800    3.733    1.067 
#    0.000    0.000    0.000    1.600    0.000    0.000 
#    0.000    0.000    0.000    0.000    0.000    0.000 
#
# Total GULP energy -167418.570586 kJ/mol
# GULP energy per Si atom -5580.619020 kJ/mol
# Density = 2.187529 g / cm^3
# Si number density = 21.925189 Si / 1000 Ang^3
#
#
#
# Elastic Constant Matrix: (Units=GPa)
#
#
# Indices 1 2 3 4 5 6 
#
# 1 132.3262 28.8473 31.7234 0.0000 -42.7395 0.0000
# 2 28.8473 102.5802 20.0243 0.0000 -12.1266 0.0000
# 3 31.7234 20.0243 86.9888 0.0000 -22.5760 0.0000
# 4 0.0000 0.0000 0.0000 36.4620 0.0000 -2.0499
# 5 -42.7395 -12.1266 -22.5760 0.0000 33.2786 0.0000
# 6 0.0000 0.0000 0.0000 -2.0499 0.0000 29.8239
#
#
#
# Elastic Compliance Matrix: (Units=1/GPa)
#
#
# Indices 1 2 3 4 5 6 
#
# 1 0.013223 -0.001762 -0.000213 0.000000 0.016196 0.000000
# 2 -0.001762 0.010628 -0.001682 0.000000 0.000468 0.000000
# 3 -0.000213 -0.001682 0.014237 0.000000 0.008771 0.000000
# 4 0.000000 0.000000 0.000000 0.027532 0.000000 0.001892
# 5 0.016196 0.000468 0.008771 0.000000 0.056971 0.000000
# 6 0.000000 0.000000 0.000000 0.001892 0.000000 0.033660
#
#
# Mechanical properties :
#
#
# Convention : Reuss Voigt Hill
#
# Bulk Modulus (GPa) = 32.49673 53.67612 43.08642
# Shear Modulus (GPa) = 28.76455 35.99958 32.38207
#
# Velocity S-wave (km/s) = 3.62600 4.05647 3.84726
# Velocity P-wave (km/s) = 5.69072 6.81722 6.27929
#
# Compressibility (1/GPa) = 0.03077233
#
# Stress axis : x y z
#
# Youngs Moduli (GPa) = 75.62315 94.09279 70.23844
#
# Poissons Ratio (x) = 0.16583 0.01499
# Poissons Ratio (y) = 0.13328 0.11816
# Poissons Ratio (z) = 0.01614 0.15829
#
# Static dielectric constant tensor:
#      x y z
#    x 1.861420 0.000000 -0.021050 
#    y 0.000000 1.823200 0.000000 
#    z -0.021050 0.000000 1.874140 
# 
# From -- ./inp_files/258297.got.cif
#   From: 2010.05.17/outbox.cif.g08.bks.cpg/sg15_130_cif.got.tgz:258297.got - 2010.06.03 18:47:42.
