data_PCOD9276317
_publ_section_title
;
Structure prediction by ZEFSAII (Michael W. Deem and Ramdas Pophale) SiO2 
 PCOD9276317
Probable space group: C 2/C
;
_chemical_formula_sum "Si O2"
_cell_formula_units_Z 28
_cell_length_a 8.698226
_cell_length_b 11.546061
_cell_length_c 12.815374
_cell_angle_alpha 90.000000
_cell_angle_beta 83.397461
_cell_angle_gamma 90.000000
_cell_volume 1278.515042
_symmetry_space_group_name_H-M "C 2/C"
_symmetry_group_IT_number 15
_symmetry_cell_setting 'monoclinic'
loop_
_space_group_symop_operation_xyz
x,y,z
-x,y,1/2-z
-x,-y,-z
x,-y,1/2+z
1/2+x,1/2+y,z
1/2-x,1/2+y,1/2-z
1/2-x,1/2-y,-z
1/2+x,1/2-y,1/2+z
loop_
_atom_site_type_symbol
_atom_site_label
_atom_site_fract_x
_atom_site_fract_y
_atom_site_fract_z
Si Si1 0.339383 0.695336 0.716086
Si Si2 0.837642 0.572576 0.940644
Si Si3 0.000000 0.420097 0.750000
Si Si4 0.833180 0.651261 0.562032
O O1 0.500000 0.644770 0.750000
O O2 0.291381 0.644690 0.609291
O O3 0.374025 0.832133 0.711327
O O4 0.211431 0.671185 0.814411
O O5 0.918369 0.494527 0.844167
O O6 0.981392 0.650786 0.967077
O O7 0.782711 0.477094 0.027884
O O8 0.750000 0.750000 0.500000
#
# Coordination Sequence:
#
# PCOD9276317 Si02
#       4
#     8   8   4   8
#     4  10  22  40  60  92 122 154 204 248 295 359
#     4  11  22  41  64  84 127 162 191 256 300 345
#     4  10  20  40  60  86 124 154 196 244 300 350
#     4  11  21  39  64  92 117 162 207 237 303 364
#
# _framework density 21.900407000000001
#
# number of rings (size 3 to 8) (size 9 to 14) (size 15 to 20)
#    0.857    0.571    5.714    0.000    0.000    1.143 
#    5.143   12.857    0.000    0.000    0.000    0.000 
#    0.000    0.000    0.000    0.000    0.000    0.000 
#
# Total GULP energy -78194.673172 kJ/mol
# GULP energy per Si atom -5585.333798 kJ/mol
# Density = 2.185056 g / cm^3
# Si number density = 21.900407 Si / 1000 Ang^3
#
#
#
# Elastic Constant Matrix: (Units=GPa)
#
#
# Indices 1 2 3 4 5 6 
#
# 1 83.6858 51.0993 13.9758 0.0000 33.4388 0.0000
# 2 51.0993 102.9179 33.9740 0.0000 14.2375 0.0000
# 3 13.9758 33.9740 58.3866 0.0000 6.7663 0.0000
# 4 0.0000 0.0000 0.0000 20.8869 0.0000 -1.5062
# 5 33.4388 14.2375 6.7663 0.0000 50.8011 0.0000
# 6 0.0000 0.0000 0.0000 -1.5062 0.0000 46.4686
#
#
#
# Elastic Compliance Matrix: (Units=1/GPa)
#
#
# Indices 1 2 3 4 5 6 
#
# 1 0.022866 -0.010276 0.001947 0.000000 -0.012430 0.000000
# 2 -0.010276 0.016959 -0.007761 0.000000 0.003045 0.000000
# 3 0.001947 -0.007761 0.021404 0.000000 -0.001957 0.000000
# 4 0.000000 0.000000 0.000000 0.047989 0.000000 0.001555
# 5 -0.012430 0.003045 -0.001957 0.000000 0.027274 0.000000
# 6 0.000000 0.000000 0.000000 0.001555 0.000000 0.021570
#
#
# Mechanical properties :
#
#
# Convention : Reuss Voigt Hill
#
# Bulk Modulus (GPa) = 34.42598 49.23205 41.82902
# Shear Modulus (GPa) = 25.00910 33.36075 29.18492
#
# Velocity S-wave (km/s) = 3.38294 3.90717 3.65447
# Velocity P-wave (km/s) = 5.56888 6.54855 6.07848
#
# Compressibility (1/GPa) = 0.02904783
#
# Stress axis : x y z
#
# Youngs Moduli (GPa) = 43.73344 58.96408 46.71958
#
# Poissons Ratio (x) = 0.60591 -0.09094
# Poissons Ratio (y) = 0.44940 0.36261
# Poissons Ratio (z) = -0.08513 0.45765
#
# Static dielectric constant tensor:
#      x y z
#    x 1.821170 0.000000 0.033600 
#    y 0.000000 1.814180 0.000000 
#    z 0.033600 0.000000 1.845030 
# 
# From -- ./inp_files/131488.got.cif
#   From: 2010.05.17/outbox.cif.g08.bks.cpg/sg15_66_cif.got.tgz:131488.got - 2010.06.03 18:47:42.
