data_PCOD9276399
_publ_section_title
;
Structure prediction by ZEFSAII (Michael W. Deem and Ramdas Pophale) SiO2 
 PCOD9276399
Probable space group: C 2/C
;
_chemical_formula_sum "Si O2"
_cell_formula_units_Z 44
_cell_length_a 23.650810
_cell_length_b 6.873339
_cell_length_c 15.001861
_cell_angle_alpha 90.000000
_cell_angle_beta 124.763559
_cell_angle_gamma 90.000000
_cell_volume 2003.423879
_symmetry_space_group_name_H-M "C 2/C"
_symmetry_group_IT_number 15
_symmetry_cell_setting 'monoclinic'
loop_
_space_group_symop_operation_xyz
x,y,z
-x,y,1/2-z
-x,-y,-z
x,-y,1/2+z
1/2+x,1/2+y,z
1/2-x,1/2+y,1/2-z
1/2-x,1/2-y,-z
1/2+x,1/2-y,1/2+z
loop_
_atom_site_type_symbol
_atom_site_label
_atom_site_fract_x
_atom_site_fract_y
_atom_site_fract_z
Si Si1 0.462640 0.850317 0.338987
Si Si2 0.100382 0.466315 0.031155
Si Si3 0.801766 0.228507 0.939357
Si Si4 0.142767 0.831918 0.427312
Si Si5 0.822017 0.477322 0.131961
Si Si6 0.000000 0.998753 0.250000
O O1 0.533630 0.967585 0.413966
O O2 0.401756 0.929840 0.221164
O O3 0.484161 0.641316 0.319340
O O4 0.427882 0.870261 0.404484
O O5 0.148892 0.658662 0.085910
O O6 0.139573 0.303858 0.010777
O O7 0.727445 0.141202 0.844500
O O8 0.799305 0.384157 0.017384
O O9 0.833676 0.040266 0.016410
O O10 0.183143 0.709639 0.387219
O O11 0.066221 0.868587 0.323963
#
# Coordination Sequence:
#
# PCOD9276399 Si02
#       6
#     8   8   8   8   8   4
#     4  11  21  42  60  89 125 168 206 266 306 376
#     4  10  23  40  62  86 131 162 203 258 331 362
#     4  10  20  40  61  89 123 160 202 266 310 377
#     4  11  20  37  62  92 116 162 205 262 310 380
#     4  10  21  38  64  88 121 159 213 255 314 366
#     4  12  20  36  68  92 124 164 228 256 306 368
#
# _framework density 21.962402000000001
#
# number of rings (size 3 to 8) (size 9 to 14) (size 15 to 20)
#    0.000    1.455    3.636    2.727    0.000    0.727 
#    6.545    0.000    0.000    0.000    0.000    0.000 
#    0.000    0.000    0.000    0.000    0.000    0.000 
#
# Total GULP energy -122603.627585 kJ/mol
# GULP energy per Si atom -5572.892163 kJ/mol
# Density = 2.191241 g / cm^3
# Si number density = 21.962402 Si / 1000 Ang^3
#
#
#
# Elastic Constant Matrix: (Units=GPa)
#
#
# Indices 1 2 3 4 5 6 
#
# 1 101.4185 47.1990 26.7575 0.0000 3.5588 0.0000
# 2 47.1990 127.6381 23.3001 0.0000 10.5616 0.0000
# 3 26.7575 23.3001 46.9502 0.0000 8.2966 0.0000
# 4 0.0000 0.0000 0.0000 13.0206 0.0000 18.9092
# 5 3.5588 10.5616 8.2966 0.0000 26.3781 0.0000
# 6 0.0000 0.0000 0.0000 18.9092 0.0000 27.6937
#
#
#
# Elastic Compliance Matrix: (Units=1/GPa)
#
#
# Indices 1 2 3 4 5 6 
#
# 1 0.013179 -0.003942 -0.005844 0.000000 0.001638 0.000000
# 2 -0.003942 0.009920 -0.002190 0.000000 -0.002751 0.000000
# 3 -0.005844 -0.002190 0.026918 0.000000 -0.006801 0.000000
# 4 0.000000 0.000000 0.000000 9.133858 0.000000 -6.236573
# 5 0.001638 -0.002751 -0.006801 0.000000 0.040930 0.000000
# 6 0.000000 0.000000 0.000000 -6.236573 0.000000 4.294424
#
#
# Mechanical properties :
#
#
# Convention : Reuss Voigt Hill
#
# Bulk Modulus (GPa) = 38.36602 52.28000 45.32301
# Shear Modulus (GPa) = 0.36895 25.33517 12.85206
#
# Velocity S-wave (km/s) = 0.41031 3.40011 2.42168
# Velocity P-wave (km/s) = 4.21086 6.26660 5.33862
#
# Compressibility (1/GPa) = 0.02606473
#
# Stress axis : x y z
#
# Youngs Moduli (GPa) = 75.87726 100.80760 37.14917
#
# Poissons Ratio (x) = 0.39741 0.21710
# Poissons Ratio (y) = 0.29913 0.08136
# Poissons Ratio (z) = 0.44343 0.22078
#
# Static dielectric constant tensor:
#      x y z
#    x 1.945060 0.000000 0.032660 
#    y 0.000000 1.802040 0.000000 
#    z 0.032660 0.000000 1.829810 
# 
# From -- ./inp_files/175770.got.cif
#   From: 2010.05.17/outbox.cif.g08.bks.cpg/sg15_88_cif.got.tgz:175770.got - 2010.06.03 18:47:42.
