data_PCOD9276249
_publ_section_title
;
Structure prediction by ZEFSAII (Michael W. Deem and Ramdas Pophale) SiO2 
 PCOD9276249
Probable space group: C 2/C
;
_chemical_formula_sum "Si O2"
_cell_formula_units_Z 36
_cell_length_a 19.032355
_cell_length_b 18.076049
_cell_length_c 8.307345
_cell_angle_alpha 90.000000
_cell_angle_beta 144.754578
_cell_angle_gamma 90.000000
_cell_volume 1649.279507
_symmetry_space_group_name_H-M "C 2/C"
_symmetry_group_IT_number 15
_symmetry_cell_setting 'monoclinic'
loop_
_space_group_symop_operation_xyz
x,y,z
-x,y,1/2-z
-x,-y,-z
x,-y,1/2+z
1/2+x,1/2+y,z
1/2-x,1/2+y,1/2-z
1/2-x,1/2-y,-z
1/2+x,1/2-y,1/2+z
loop_
_atom_site_type_symbol
_atom_site_label
_atom_site_fract_x
_atom_site_fract_y
_atom_site_fract_z
Si Si1 0.131810 0.908861 0.544812
Si Si2 0.876671 0.331209 0.620720
Si Si3 0.500000 0.319299 0.750000
Si Si4 0.693388 0.208170 0.155571
Si Si5 0.661829 0.567313 0.738401
O O1 0.234719 0.854925 0.806518
O O2 0.181382 0.930990 0.463577
O O3 0.000000 0.876135 0.250000
O O4 0.120560 0.985569 0.615941
O O5 0.802110 0.258255 0.429674
O O6 0.880319 0.322738 0.824143
O O7 0.788930 0.400373 0.409747
O O8 0.000000 0.334997 0.750000
O O9 0.393494 0.263472 0.603706
O O10 0.440885 0.373484 0.507819
#
# Coordination Sequence:
#
# PCOD9276249 Si02
#       5
#     8   8   4   8   8
#     4  11  21  39  61  88 114 157 192 247 282 351
#     4   9  18  39  57  80 114 161 185 242 289 350
#     4  10  20  40  56  86 118 150 184 254 276 348
#     4   9  20  36  59  83 117 147 202 232 293 341
#     4  10  22  38  61  84 121 150 198 234 298 340
#
# _framework density 21.827714
#
# number of rings (size 3 to 8) (size 9 to 14) (size 15 to 20)
#    0.000    2.222    1.111    2.667    0.000    0.000 
#    6.000    5.556    0.000    0.000    0.000    0.000 
#    0.000    0.000    0.000    0.000    0.000    0.000 
#
# Total GULP energy -100339.180345 kJ/mol
# GULP energy per Si atom -5574.398908 kJ/mol
# Density = 2.177803 g / cm^3
# Si number density = 21.827714 Si / 1000 Ang^3
#
#
#
# Elastic Constant Matrix: (Units=GPa)
#
#
# Indices 1 2 3 4 5 6 
#
# 1 81.8220 13.0807 19.1965 0.0000 32.4322 0.0000
# 2 13.0807 91.0109 20.8187 0.0000 14.7566 0.0000
# 3 19.1965 20.8187 42.8490 0.0000 16.7760 0.0000
# 4 0.0000 0.0000 0.0000 -31.8909 0.0000 50.9900
# 5 32.4322 14.7566 16.7760 0.0000 29.4742 0.0000
# 6 0.0000 0.0000 0.0000 50.9900 0.0000 -12.4314
#
#
#
# Elastic Compliance Matrix: (Units=1/GPa)
#
#
# Indices 1 2 3 4 5 6 
#
# 1 0.021754 0.000945 -0.000834 0.000000 -0.023935 0.000000
# 2 0.000945 0.012701 -0.004758 0.000000 -0.004691 0.000000
# 3 -0.000834 -0.004758 0.031822 0.000000 -0.014813 0.000000
# 4 0.000000 0.000000 0.000000 0.005642 0.000000 0.023140
# 5 -0.023935 -0.004691 -0.014813 0.000000 0.071045 0.000000
# 6 0.000000 0.000000 0.000000 0.023140 0.000000 0.014473
#
#
# Mechanical properties :
#
#
# Convention : Reuss Voigt Hill
#
# Bulk Modulus (GPa) = 17.54888 35.76374 26.65631
# Shear Modulus (GPa) = 26.92178 7.86946 17.39562
#
# Velocity S-wave (km/s) = 3.51576 1.90081 2.82609
# Velocity P-wave (km/s) = 4.95357 4.60842 4.78411
#
# Compressibility (1/GPa) = 0.05698369
#
# Stress axis : x y z
#
# Youngs Moduli (GPa) = 45.96959 78.73556 31.42440
#
# Poissons Ratio (x) = -0.07441 0.02620
# Poissons Ratio (y) = -0.04344 0.14951
# Poissons Ratio (z) = 0.03833 0.37460
#
# Static dielectric constant tensor:
#      x y z
#    x 1.831570 0.000000 0.021400 
#    y 0.000000 1.874390 0.000000 
#    z 0.021400 0.000000 1.797260 
# 
# From -- ./inp_files/28731.got.cif
#   From: 2010.05.17/outbox.cif.g08.bks.cpg/sg15_15_cif.got.tgz:28731.got - 2010.06.03 18:47:42.
