data_PCOD9276455
_publ_section_title
;
Structure prediction by ZEFSAII (Michael W. Deem and Ramdas Pophale) SiO2 
 PCOD9276455
Probable space group: C 2/C
;
_chemical_formula_sum "Si O2"
_cell_formula_units_Z 48
_cell_length_a 14.123460
_cell_length_b 16.522131
_cell_length_c 18.930354
_cell_angle_alpha 90.000000
_cell_angle_beta 148.931567
_cell_angle_gamma 90.000000
_cell_volume 2279.645699
_symmetry_space_group_name_H-M "C 2/C"
_symmetry_group_IT_number 15
_symmetry_cell_setting 'monoclinic'
loop_
_space_group_symop_operation_xyz
x,y,z
-x,y,1/2-z
-x,-y,-z
x,-y,1/2+z
1/2+x,1/2+y,z
1/2-x,1/2+y,1/2-z
1/2-x,1/2-y,-z
1/2+x,1/2-y,1/2+z
loop_
_atom_site_type_symbol
_atom_site_label
_atom_site_fract_x
_atom_site_fract_y
_atom_site_fract_z
Si Si1 0.065905 0.333884 0.364066
Si Si2 0.337286 0.114017 0.365349
Si Si3 0.892919 0.552392 0.848016
Si Si4 0.091902 0.158305 0.736897
Si Si5 0.040091 0.830973 0.923739
Si Si6 0.083240 0.773213 0.509488
O O1 0.062812 0.264829 0.421182
O O2 0.267310 0.367078 0.477228
O O3 0.000000 0.292643 0.250000
O O4 0.922150 0.402153 0.293551
O O5 0.421948 0.075087 0.490191
O O6 0.445777 0.196228 0.419490
O O7 0.124544 0.134219 0.227518
O O8 0.371412 0.043072 0.330442
O O9 0.727634 0.593857 0.786148
O O10 0.942735 0.185030 0.583002
O O11 0.000000 0.127166 0.750000
O O12 0.221540 0.234392 0.843507
O O13 0.484973 0.668133 0.470836
#
# Coordination Sequence:
#
# PCOD9276455 Si02
#       6
#     8   8   8   8   8   8
#     4  11  22  36  60  94 125 155 202 262 308 366
#     4  10  20  40  62  86 120 170 197 252 315 368
#     4  10  22  41  59  84 133 157 202 256 311 373
#     4  11  22  39  62  88 115 163 210 256 299 364
#     4  11  21  36  67  93 118 161 207 251 316 372
#     4  11  20  41  65  88 122 153 210 262 303 360
#
# _framework density 21.055903000000001
#
# number of rings (size 3 to 8) (size 9 to 14) (size 15 to 20)
#    0.000    1.333    5.000    2.500    2.333    0.000 
#    9.000    4.167    0.000    0.000    0.000    0.000 
#    0.000    0.000    0.000    0.000    0.000    0.000 
#
# Total GULP energy -133975.553028 kJ/mol
# GULP energy per Si atom -5582.314709 kJ/mol
# Density = 2.100798 g / cm^3
# Si number density = 21.055903 Si / 1000 Ang^3
#
#
#
# Elastic Constant Matrix: (Units=GPa)
#
#
# Indices 1 2 3 4 5 6 
#
# 1 82.0316 14.9856 9.0357 0.0021 0.1727 -0.0008
# 2 14.9856 36.9147 5.2543 0.0057 3.4959 0.0004
# 3 9.0357 5.2543 67.2178 0.0090 5.9529 -0.0010
# 4 0.0021 0.0057 0.0090 14.2859 -0.0001 -1.8367
# 5 0.1727 3.4959 5.9529 -0.0001 32.3803 -0.0003
# 6 -0.0008 0.0004 -0.0010 -1.8367 -0.0003 10.6986
#
#
#
# Elastic Compliance Matrix: (Units=1/GPa)
#
#
# Indices 1 2 3 4 5 6 
#
# 1 0.013311 -0.005270 -0.001445 0.000001 0.000764 0.000001
# 2 -0.005270 0.029699 -0.001354 -0.000011 -0.002929 -0.000003
# 3 -0.001445 -0.001354 0.015414 -0.000009 -0.002680 0.000000
# 4 0.000001 -0.000011 -0.000009 0.071579 0.000003 0.012289
# 5 0.000764 -0.002929 -0.002680 0.000003 0.031688 0.000001
# 6 0.000001 -0.000003 0.000000 0.012289 0.000001 0.095580
#
#
# Mechanical properties :
#
#
# Convention : Reuss Voigt Hill
#
# Bulk Modulus (GPa) = 23.64813 27.19059 25.41936
# Shear Modulus (GPa) = 17.39109 21.93221 19.66165
#
# Velocity S-wave (km/s) = 2.87705 3.23091 3.05910
# Velocity P-wave (km/s) = 4.72145 5.18266 4.95742
#
# Compressibility (1/GPa) = 0.04228663
#
# Stress axis : x y z
#
# Youngs Moduli (GPa) = 75.12738 33.67111 64.87443
#
# Poissons Ratio (x) = 0.17745 0.09374
# Poissons Ratio (y) = 0.39593 0.08782
# Poissons Ratio (z) = 0.10855 0.04558
#
# Static dielectric constant tensor:
#      x y z
#    x 1.798680 0.000000 -0.018230 
#    y 0.000000 1.761860 0.000000 
#    z -0.018230 0.000000 1.787880 
# 
# From -- ./inp_files/244938.got.cif
#   From: 2010.05.17/outbox.cif.g08.bks.cpg/sg15_123_cif.got.tgz:244938.got - 2010.06.03 18:47:42.
