data_PCOD9276923
_publ_section_title
;
Structure prediction by ZEFSAII (Michael W. Deem and Ramdas Pophale) SiO2 
 PCOD9276923
Probable space group: C 2/C
;
_chemical_formula_sum "Si O2"
_cell_formula_units_Z 44
_cell_length_a 10.802630
_cell_length_b 10.002626
_cell_length_c 19.314142
_cell_angle_alpha 90.000000
_cell_angle_beta 127.465053
_cell_angle_gamma 90.000000
_cell_volume 1656.489695
_symmetry_space_group_name_H-M "C 2/C"
_symmetry_group_IT_number 15
_symmetry_cell_setting 'monoclinic'
loop_
_space_group_symop_operation_xyz
x,y,z
-x,y,1/2-z
-x,-y,-z
x,-y,1/2+z
1/2+x,1/2+y,z
1/2-x,1/2+y,1/2-z
1/2-x,1/2-y,-z
1/2+x,1/2-y,1/2+z
loop_
_atom_site_type_symbol
_atom_site_label
_atom_site_fract_x
_atom_site_fract_y
_atom_site_fract_z
Si Si1 0.213723 0.468495 0.572809
Si Si2 0.258535 0.570659 0.447345
Si Si3 0.500000 0.528735 0.750000
Si Si4 0.203732 0.781095 0.222650
Si Si5 0.587608 0.995330 0.681511
Si Si6 0.563022 0.299219 0.022273
O O1 0.232147 0.582097 0.521137
O O2 0.386557 0.444276 0.662377
O O3 0.111684 0.503761 0.606069
O O4 0.137943 0.333951 0.516813
O O5 0.349668 0.430414 0.473909
O O6 0.378514 0.673919 0.454075
O O7 0.085362 0.554020 0.358938
O O8 0.391341 0.628155 0.756384
O O9 0.204851 0.625342 0.242872
O O10 0.108071 0.788143 0.118696
O O11 0.364561 0.862170 0.271379
#
# Coordination Sequence:
#
# PCOD9276923 Si02
#       6
#     8   8   4   8   8   8
#     4  10  21  41  66  95 134 181 221 279 344 409
#     4  11  22  42  64  99 135 174 227 285 338 399
#     4  10  20  40  66  90 134 176 220 280 344 400
#     4  10  22  43  63  98 131 177 226 274 341 413
#     4  10  24  42  69  99 131 179 222 281 338 402
#     4  10  23  40  64  96 135 178 226 279 339 412
#
# _framework density 26.562194000000002
#
# number of rings (size 3 to 8) (size 9 to 14) (size 15 to 20)
#    0.000    1.818    1.818    1.091    0.000    9.455 
#   13.091    0.000    0.000    0.000    0.000    0.000 
#    0.000    0.000    0.000    0.000    0.000    0.000 
#
# Total GULP energy -123200.482323 kJ/mol
# GULP energy per Si atom -5600.021924 kJ/mol
# Density = 2.650174 g / cm^3
# Si number density = 26.562194 Si / 1000 Ang^3
#
#
#
# Elastic Constant Matrix: (Units=GPa)
#
#
# Indices 1 2 3 4 5 6 
#
# 1 86.0779 34.3761 11.6722 0.0000 4.3379 0.0000
# 2 34.3761 141.3292 27.0752 0.0000 25.7128 0.0000
# 3 11.6722 27.0752 78.9136 0.0000 25.3995 0.0000
# 4 0.0000 0.0000 0.0000 30.6910 0.0000 5.9129
# 5 4.3379 25.7128 25.3995 0.0000 38.8422 0.0000
# 6 0.0000 0.0000 0.0000 5.9129 0.0000 37.5808
#
#
#
# Elastic Compliance Matrix: (Units=1/GPa)
#
#
# Indices 1 2 3 4 5 6 
#
# 1 0.012991 -0.003184 -0.001318 0.000000 0.001519 0.000000
# 2 -0.003184 0.008936 -0.001020 0.000000 -0.004893 0.000000
# 3 -0.001318 -0.001020 0.016405 0.000000 -0.009905 0.000000
# 4 0.000000 0.000000 0.000000 0.033601 0.000000 -0.005287
# 5 0.001519 -0.004893 -0.009905 0.000000 0.035292 0.000000
# 6 0.000000 0.000000 0.000000 -0.005287 0.000000 0.027441
#
#
# Mechanical properties :
#
#
# Convention : Reuss Voigt Hill
#
# Bulk Modulus (GPa) = 36.64583 50.28529 43.46556
# Shear Modulus (GPa) = 32.29859 36.96926 34.63392
#
# Velocity S-wave (km/s) = 3.49085 3.73473 3.61485
# Velocity P-wave (km/s) = 5.48399 6.12943 5.81567
#
# Compressibility (1/GPa) = 0.02728823
#
# Stress axis : x y z
#
# Youngs Moduli (GPa) = 76.97641 111.91165 60.95648
#
# Poissons Ratio (x) = 0.35629 0.08034
# Poissons Ratio (y) = 0.24506 0.06219
# Poissons Ratio (z) = 0.10145 0.11417
#
# Static dielectric constant tensor:
#      x y z
#    x 2.105780 0.000000 0.008890 
#    y 0.000000 2.072200 0.000000 
#    z 0.008890 0.000000 2.134890 
# 
# From -- ./inp_files/268569.got.cif
#   From: 2010.05.17/outbox.cif.g08.bks.cpg/sg15_135_cif.got.tgz:268569.got - 2010.06.03 18:47:42.
