data_PCOD9276596
_publ_section_title
;
Structure prediction by ZEFSAII (Michael W. Deem and Ramdas Pophale) SiO2 
 PCOD9276596
Probable space group: C 2/C
;
_chemical_formula_sum "Si O2"
_cell_formula_units_Z 48
_cell_length_a 11.601903
_cell_length_b 23.122845
_cell_length_c 11.327720
_cell_angle_alpha 90.000000
_cell_angle_beta 131.487755
_cell_angle_gamma 90.000000
_cell_volume 2276.413983
_symmetry_space_group_name_H-M "C 2/C"
_symmetry_group_IT_number 15
_symmetry_cell_setting 'monoclinic'
loop_
_space_group_symop_operation_xyz
x,y,z
-x,y,1/2-z
-x,-y,-z
x,-y,1/2+z
1/2+x,1/2+y,z
1/2-x,1/2+y,1/2-z
1/2-x,1/2-y,-z
1/2+x,1/2-y,1/2+z
loop_
_atom_site_type_symbol
_atom_site_label
_atom_site_fract_x
_atom_site_fract_y
_atom_site_fract_z
Si Si1 0.278375 0.089510 0.072659
Si Si2 0.676263 0.782227 0.837959
Si Si3 0.500000 0.543364 0.750000
Si Si4 0.741340 0.999399 0.732801
Si Si5 0.990122 0.414739 0.492984
Si Si6 0.339382 0.795192 0.930326
Si Si7 0.500000 0.721729 0.250000
O O1 0.269678 0.151159 0.130043
O O2 0.263391 0.035551 0.149756
O O3 0.422395 0.085529 0.080802
O O4 0.128818 0.083908 0.891461
O O5 0.500000 0.784472 0.750000
O O6 0.680275 0.759467 0.706126
O O7 0.750000 0.750000 0.000000
O O8 0.406829 0.506754 0.784930
O O9 0.629919 0.960078 0.574903
O O10 0.651532 0.060580 0.679896
O O11 0.056233 0.351813 0.514818
O O12 0.159759 0.811775 0.831791
O O13 0.431720 0.759978 0.094257
#
# Coordination Sequence:
#
# PCOD9276596 Si02
#       7
#     8   8   4   8   8   8   4
#     4  11  21  43  63  95 137 176 223 291 337 411
#     4  12  24  40  71 100 134 177 232 286 345 403
#     4  10  24  37  62  96 140 175 224 270 352 408
#     4  10  20  40  63  92 130 178 217 278 338 408
#     4  10  21  39  68  91 127 175 227 272 345 407
#     4  11  22  48  67 102 134 184 228 285 346 415
#     4  10  26  45  72  94 146 175 228 290 342 420
#
# _framework density 21.085795000000001
#
# number of rings (size 3 to 8) (size 9 to 14) (size 15 to 20)
#    0.000    1.333    3.333    2.000    1.167    0.667 
#    9.000    1.667    0.000    0.000    0.000    0.000 
#    0.000    0.000    0.000    0.000    0.000    0.000 
#
# Total GULP energy -133742.343286 kJ/mol
# GULP energy per Si atom -5572.597637 kJ/mol
# Density = 2.103780 g / cm^3
# Si number density = 21.085795 Si / 1000 Ang^3
#
#
#
# Elastic Constant Matrix: (Units=GPa)
#
#
# Indices 1 2 3 4 5 6 
#
# 1 121.5226 32.4264 36.7138 0.0000 19.9146 0.0000
# 2 32.4264 58.9916 43.3149 0.0000 -3.5093 0.0000
# 3 36.7138 43.3149 119.3623 0.0000 -5.2595 0.0000
# 4 0.0000 0.0000 0.0000 19.0754 0.0000 -3.5235
# 5 19.9146 -3.5093 -5.2595 0.0000 35.2567 0.0000
# 6 0.0000 0.0000 0.0000 -3.5235 0.0000 27.6037
#
#
#
# Elastic Compliance Matrix: (Units=1/GPa)
#
#
# Indices 1 2 3 4 5 6 
#
# 1 0.011409 -0.005305 -0.001904 0.000000 -0.007256 0.000000
# 2 -0.005305 0.025615 -0.007468 0.000000 0.004432 0.000000
# 3 -0.001904 -0.007468 0.011766 0.000000 0.002087 0.000000
# 4 0.000000 0.000000 0.000000 0.053690 0.000000 0.006853
# 5 -0.007256 0.004432 0.002087 0.000000 0.033215 0.000000
# 6 0.000000 0.000000 0.000000 0.006853 0.000000 0.037102
#
#
# Mechanical properties :
#
#
# Convention : Reuss Voigt Hill
#
# Bulk Modulus (GPa) = 51.45322 58.30964 54.88143
# Shear Modulus (GPa) = 23.96618 28.88192 26.42405
#
# Velocity S-wave (km/s) = 3.37501 3.70501 3.54385
# Velocity P-wave (km/s) = 6.29622 6.78353 6.54442
#
# Compressibility (1/GPa) = 0.01943513
#
# Stress axis : x y z
#
# Youngs Moduli (GPa) = 87.65214 39.03985 84.99403
#
# Poissons Ratio (x) = 0.20710 0.16181
# Poissons Ratio (y) = 0.46499 0.63476
# Poissons Ratio (z) = 0.16687 0.29156
#
# Static dielectric constant tensor:
#      x y z
#    x 1.782590 0.000000 0.001620 
#    y 0.000000 1.792520 0.000000 
#    z 0.001620 0.000000 1.806180 
# 
# From -- ./inp_files/91012.got.cif
#   From: 2010.05.17/outbox.cif.g08.bks.cpg/sg15_46_cif.got.tgz:91012.got - 2010.06.03 18:47:42.
