data_PCOD9276395
_publ_section_title
;
Structure prediction by ZEFSAII (Michael W. Deem and Ramdas Pophale) SiO2 
 PCOD9276395
Probable space group: C 2/C
;
_chemical_formula_sum "Si O2"
_cell_formula_units_Z 48
_cell_length_a 15.005386
_cell_length_b 12.793281
_cell_length_c 13.313485
_cell_angle_alpha 90.000000
_cell_angle_beta 71.679958
_cell_angle_gamma 90.000000
_cell_volume 2426.227244
_symmetry_space_group_name_H-M "C 2/C"
_symmetry_group_IT_number 15
_symmetry_cell_setting 'monoclinic'
loop_
_space_group_symop_operation_xyz
x,y,z
-x,y,1/2-z
-x,-y,-z
x,-y,1/2+z
1/2+x,1/2+y,z
1/2-x,1/2+y,1/2-z
1/2-x,1/2-y,-z
1/2+x,1/2-y,1/2+z
loop_
_atom_site_type_symbol
_atom_site_label
_atom_site_fract_x
_atom_site_fract_y
_atom_site_fract_z
Si Si1 0.984769 0.117625 0.136453
Si Si2 0.650196 0.489661 0.452023
Si Si3 0.453962 0.990451 0.407229
Si Si4 0.899350 0.667569 0.674187
Si Si5 0.203606 0.638238 0.994695
Si Si6 0.298478 0.172500 0.904976
O O1 0.970620 0.240397 0.116708
O O2 0.000000 0.102442 0.250000
O O3 0.895246 0.058531 0.119858
O O4 0.071250 0.068157 0.045284
O O5 0.714469 0.558743 0.503048
O O6 0.718869 0.401416 0.386166
O O7 0.545065 0.939457 0.319274
O O8 0.373811 0.901746 0.432900
O O9 0.500000 0.000000 0.500000
O O10 0.391890 0.096629 0.413373
O O11 0.828353 0.642048 0.609864
O O12 0.851527 0.717178 0.789557
O O13 0.250000 0.750000 0.000000
O O14 0.250000 0.250000 0.000000
#
# Coordination Sequence:
#
# PCOD9276395 Si02
#       6
#     8   8   8   8   8   8
#     4  11  22  38  63  86 123 160 205 246 315 365
#     4  10  23  39  59  90 122 162 199 259 304 367
#     4   9  20  37  60  87 118 161 197 252 308 368
#     4  11  21  38  65  89 122 163 205 254 312 373
#     4  10  20  40  61  88 124 158 203 253 311 367
#     4  11  22  39  61  91 124 156 213 256 303 365
#
# _framework density 19.783802000000001
#
# number of rings (size 3 to 8) (size 9 to 14) (size 15 to 20)
#    0.000    1.667    1.667    3.500    2.333    0.000 
#    3.000    1.667    0.000    4.000    0.000    0.000 
#    0.000    0.000    0.000    0.000    0.000    0.000 
#
# Total GULP energy -133607.862361 kJ/mol
# GULP energy per Si atom -5566.994265 kJ/mol
# Density = 1.973877 g / cm^3
# Si number density = 19.783802 Si / 1000 Ang^3
#
#
#
# Elastic Constant Matrix: (Units=GPa)
#
#
# Indices 1 2 3 4 5 6 
#
# 1 140.4880 41.9161 35.0063 0.0000 20.9804 0.0000
# 2 41.9161 84.8859 20.5764 0.0000 -6.0668 0.0000
# 3 35.0063 20.5764 69.2677 0.0000 13.1743 0.0000
# 4 0.0000 0.0000 0.0000 23.5218 0.0000 -4.9181
# 5 20.9804 -6.0668 13.1743 0.0000 39.2080 0.0000
# 6 0.0000 0.0000 0.0000 -4.9181 0.0000 44.9810
#
#
#
# Elastic Compliance Matrix: (Units=1/GPa)
#
#
# Indices 1 2 3 4 5 6 
#
# 1 0.009928 -0.004623 -0.002669 0.000000 -0.005131 0.000000
# 2 -0.004623 0.015300 -0.003343 0.000000 0.005964 0.000000
# 3 -0.002669 -0.003343 0.017739 0.000000 -0.005050 0.000000
# 4 0.000000 0.000000 0.000000 0.043508 0.000000 0.004757
# 5 -0.005131 0.005964 -0.005050 0.000000 0.030871 0.000000
# 6 0.000000 0.000000 0.000000 0.004757 0.000000 0.022752
#
#
# Mechanical properties :
#
#
# Convention : Reuss Voigt Hill
#
# Bulk Modulus (GPa) = 46.08555 54.40435 50.24495
# Shear Modulus (GPa) = 29.65617 34.68501 32.17059
#
# Velocity S-wave (km/s) = 3.87591 4.19167 4.03688
# Velocity P-wave (km/s) = 6.58600 7.14044 6.86882
#
# Compressibility (1/GPa) = 0.02169878
#
# Stress axis : x y z
#
# Youngs Moduli (GPa) = 100.72043 65.36065 56.37324
#
# Poissons Ratio (x) = 0.30213 0.15043
# Poissons Ratio (y) = 0.46558 0.18846
# Poissons Ratio (z) = 0.26877 0.21851
#
# Static dielectric constant tensor:
#      x y z
#    x 1.722850 0.000000 -0.041750 
#    y 0.000000 1.744110 0.000000 
#    z -0.041750 0.000000 1.751960 
# 
# From -- ./inp_files/151838.got.cif
#   From: 2010.05.17/outbox.cif.g08.bks.cpg/sg15_76_cif.got.tgz:151838.got - 2010.06.03 18:47:42.
