data_PCOD9276857
_publ_section_title
;
Structure prediction by ZEFSAII (Michael W. Deem and Ramdas Pophale) SiO2 
 PCOD9276857
Probable space group: C 2/C
;
_chemical_formula_sum "Si O2"
_cell_formula_units_Z 52
_cell_length_a 17.903098
_cell_length_b 10.558883
_cell_length_c 12.776587
_cell_angle_alpha 90.000000
_cell_angle_beta 114.926900
_cell_angle_gamma 90.000000
_cell_volume 2190.254998
_symmetry_space_group_name_H-M "C 2/C"
_symmetry_group_IT_number 15
_symmetry_cell_setting 'monoclinic'
loop_
_space_group_symop_operation_xyz
x,y,z
-x,y,1/2-z
-x,-y,-z
x,-y,1/2+z
1/2+x,1/2+y,z
1/2-x,1/2+y,1/2-z
1/2-x,1/2-y,-z
1/2+x,1/2-y,1/2+z
loop_
_atom_site_type_symbol
_atom_site_label
_atom_site_fract_x
_atom_site_fract_y
_atom_site_fract_z
Si Si1 0.000000 0.568546 0.750000
Si Si2 0.066586 0.933039 0.698228
Si Si3 0.165988 0.033408 0.438930
Si Si4 0.460021 0.339832 0.472234
Si Si5 0.644845 0.024978 0.968322
Si Si6 0.340824 0.756773 0.598555
Si Si7 0.389392 0.893272 0.830084
O O1 0.924278 0.614539 0.628607
O O2 0.942477 0.492756 0.797026
O O3 0.150308 0.916673 0.811161
O O4 0.000000 0.910571 0.750000
O O5 0.044450 0.844917 0.587780
O O6 0.049041 0.067194 0.632631
O O7 0.112197 0.108747 0.492534
O O8 0.262693 0.039607 0.523667
O O9 0.131627 0.887861 0.406167
O O10 0.449097 0.202602 0.422978
O O11 0.655773 0.044618 0.098490
O O12 0.618222 0.878691 0.932567
O O13 0.250000 0.750000 0.500000
O O14 0.340781 0.804044 0.719054
#
# Coordination Sequence:
#
# PCOD9276857 Si02
#       7
#     4   8   8   8   8   8   8
#     4  10  24  44  62  88 124 176 232 258 310 386
#     4   9  19  34  56  91 126 158 204 251 318 385
#     4  10  20  40  65  96 133 161 213 270 327 391
#     4  10  21  35  64  97 126 164 206 259 332 393
#     4  10  23  41  67  92 126 173 220 270 319 385
#     4   9  20  41  64  92 126 166 216 259 315 386
#     4  11  22  41  67  90 129 171 216 270 326 385
#
# _framework density 23.741529
#
# number of rings (size 3 to 8) (size 9 to 14) (size 15 to 20)
#    0.000    2.154    1.538    0.462    1.077    8.000 
#    4.154    1.538    6.769    0.000    0.000    0.000 
#    0.000    0.000    0.000    0.000    0.000    0.000 
#
# Total GULP energy -144820.517364 kJ/mol
# GULP energy per Si atom -5570.019899 kJ/mol
# Density = 2.368749 g / cm^3
# Si number density = 23.741529 Si / 1000 Ang^3
#
#
#
# Elastic Constant Matrix: (Units=GPa)
#
#
# Indices 1 2 3 4 5 6 
#
# 1 77.6820 -1.9603 40.2119 0.0000 15.4957 0.0000
# 2 -1.9603 34.3514 8.3166 0.0000 -7.6987 0.0000
# 3 40.2119 8.3166 141.2383 0.0000 11.1432 0.0000
# 4 0.0000 0.0000 0.0000 33.3120 0.0000 -1.1579
# 5 15.4957 -7.6987 11.1432 0.0000 40.8466 0.0000
# 6 0.0000 0.0000 0.0000 -1.1579 0.0000 19.6509
#
#
#
# Elastic Compliance Matrix: (Units=1/GPa)
#
#
# Indices 1 2 3 4 5 6 
#
# 1 0.016042 0.000875 -0.004243 0.000000 -0.004763 0.000000
# 2 0.000875 0.031186 -0.002579 0.000000 0.006249 0.000000
# 3 -0.004243 -0.002579 0.008535 0.000000 -0.001205 0.000000
# 4 0.000000 0.000000 0.000000 0.030081 0.000000 0.001772
# 5 -0.004763 0.006249 -0.001205 0.000000 0.027795 0.000000
# 6 0.000000 0.000000 0.000000 0.001772 0.000000 0.050993
#
#
# Mechanical properties :
#
#
# Convention : Reuss Voigt Hill
#
# Bulk Modulus (GPa) = 22.79476 38.48980 30.64228
# Shear Modulus (GPa) = 26.15792 32.54216 29.35004
#
# Velocity S-wave (km/s) = 3.32291 3.70629 3.51982
# Velocity P-wave (km/s) = 4.93400 5.87900 5.42711
#
# Compressibility (1/GPa) = 0.04386973
#
# Stress axis : x y z
#
# Youngs Moduli (GPa) = 62.33816 32.06607 117.16288
#
# Poissons Ratio (x) = -0.02806 0.49711
# Poissons Ratio (y) = -0.05456 0.30211
# Poissons Ratio (z) = 0.26450 0.08268
#
# Static dielectric constant tensor:
#      x y z
#    x 1.908390 0.000000 0.000870 
#    y 0.000000 2.043140 0.000000 
#    z 0.000870 0.000000 1.987010 
# 
# From -- ./inp_files/111758.got.cif
#   From: 2010.05.17/outbox.cif.g08.bks.cpg/sg15_56_cif.got.tgz:111758.got - 2010.06.03 18:47:42.
