data_PCOD9276102
_publ_section_title
;
Structure prediction by ZEFSAII (Michael W. Deem and Ramdas Pophale) SiO2 
 PCOD9276102
Probable space group: C 2/C
;
_chemical_formula_sum "Si O2"
_cell_formula_units_Z 48
_cell_length_a 18.678850
_cell_length_b 7.039962
_cell_length_c 23.197424
_cell_angle_alpha 90.000000
_cell_angle_beta 140.272275
_cell_angle_gamma 90.000000
_cell_volume 1949.648150
_symmetry_space_group_name_H-M "C 2/C"
_symmetry_group_IT_number 15
_symmetry_cell_setting 'monoclinic'
loop_
_space_group_symop_operation_xyz
x,y,z
-x,y,1/2-z
-x,-y,-z
x,-y,1/2+z
1/2+x,1/2+y,z
1/2-x,1/2+y,1/2-z
1/2-x,1/2-y,-z
1/2+x,1/2-y,1/2+z
loop_
_atom_site_type_symbol
_atom_site_label
_atom_site_fract_x
_atom_site_fract_y
_atom_site_fract_z
Si Si1 0.288311 0.182828 0.461557
Si Si2 0.399898 0.656068 0.815404
Si Si3 0.699914 0.389093 0.653424
Si Si4 0.027578 0.620242 0.603977
Si Si5 0.592136 0.301803 0.758996
Si Si6 0.114008 0.279846 0.988344
O O1 0.250000 0.250000 0.500000
O O2 0.414216 0.239182 0.522877
O O3 0.202423 0.258378 0.361362
O O4 0.300319 0.950133 0.473517
O O5 0.353849 0.570150 0.847629
O O6 0.326093 0.837633 0.750786
O O7 0.372205 0.488279 0.753575
O O8 0.536131 0.669928 0.894675
O O9 0.631820 0.209641 0.637695
O O10 0.671645 0.358570 0.569020
O O11 0.993592 0.413160 0.559241
O O12 0.043778 0.654421 0.682489
O O13 0.500000 0.342683 0.750000
#
# Coordination Sequence:
#
# PCOD9276102 Si02
#       6
#     8   8   8   8   8   8
#     4  10  20  39  68  91 128 170 230 276 330 403
#     4  11  23  38  64  96 134 177 225 272 345 401
#     4  11  21  38  62  94 134 179 220 280 334 405
#     4   9  21  34  64  92 121 171 222 268 329 401
#     4  11  20  40  64  91 128 177 224 281 331 397
#     4  10  21  40  61  94 134 170 220 280 334 398
#
# _framework density 24.619827000000001
#
# number of rings (size 3 to 8) (size 9 to 14) (size 15 to 20)
#    1.000    0.667    3.333    2.000    0.000    2.667 
#    0.000    6.667    0.000    0.000    0.000    0.000 
#    0.000    0.000    0.000    0.000    0.000    0.000 
#
# Total GULP energy -133866.362790 kJ/mol
# GULP energy per Si atom -5577.765116 kJ/mol
# Density = 2.456379 g / cm^3
# Si number density = 24.619827 Si / 1000 Ang^3
#
#
#
# Elastic Constant Matrix: (Units=GPa)
#
#
# Indices 1 2 3 4 5 6 
#
# 1 68.6595 8.2991 20.7182 0.0000 6.8944 0.0001
# 2 8.2991 74.5032 9.9750 -0.0001 -0.3354 0.0005
# 3 20.7182 9.9750 172.3144 0.0000 12.4776 0.0000
# 4 0.0000 -0.0001 0.0000 29.7792 0.0000 12.4261
# 5 6.8944 -0.3354 12.4776 0.0000 30.0368 0.0000
# 6 0.0001 0.0005 0.0000 12.4261 0.0000 18.7741
#
#
#
# Elastic Compliance Matrix: (Units=1/GPa)
#
#
# Indices 1 2 3 4 5 6 
#
# 1 0.015516 -0.001532 -0.001565 0.000000 -0.002928 0.000000
# 2 -0.001532 0.013685 -0.000665 0.000000 0.000781 -0.000001
# 3 -0.001565 -0.000665 0.006191 0.000000 -0.002220 0.000000
# 4 0.000000 0.000000 0.000000 0.046394 0.000000 -0.030707
# 5 -0.002928 0.000781 -0.002220 0.000000 0.034896 0.000000
# 6 0.000000 -0.000001 0.000000 -0.030707 0.000000 0.073589
#
#
# Mechanical properties :
#
#
# Convention : Reuss Voigt Hill
#
# Bulk Modulus (GPa) = 35.88174 43.71797 39.79986
# Shear Modulus (GPa) = 24.14491 34.15034 29.14762
#
# Velocity S-wave (km/s) = 3.13503 3.72843 3.44453
# Velocity P-wave (km/s) = 5.26408 6.02749 5.65867
#
# Compressibility (1/GPa) = 0.02786933
#
# Stress axis : x y z
#
# Youngs Moduli (GPa) = 64.44931 73.07061 161.53231
#
# Poissons Ratio (x) = 0.11195 0.25277
# Poissons Ratio (y) = 0.09874 0.10734
# Poissons Ratio (z) = 0.10085 0.04856
#
# Static dielectric constant tensor:
#      x y z
#    x 1.976670 0.000000 0.042930 
#    y 0.000000 2.157670 0.000000 
#    z 0.042930 0.000000 2.171460 
# 
# From -- ./inp_files/247640.got.cif
#   From: 2010.05.17/outbox.cif.g08.bks.cpg/sg15_124_cif.got.tgz:247640.got - 2010.06.03 18:47:42.
