data_PCOD9276306
_publ_section_title
;
Structure prediction by ZEFSAII (Michael W. Deem and Ramdas Pophale) SiO2 
 PCOD9276306
Probable space group: C 2/C
;
_chemical_formula_sum "Si O2"
_cell_formula_units_Z 64
_cell_length_a 14.556408
_cell_length_b 16.684076
_cell_length_c 14.387157
_cell_angle_alpha 90.000000
_cell_angle_beta 74.666195
_cell_angle_gamma 90.000000
_cell_volume 3369.684715
_symmetry_space_group_name_H-M "C 2/C"
_symmetry_group_IT_number 15
_symmetry_cell_setting 'monoclinic'
loop_
_space_group_symop_operation_xyz
x,y,z
-x,y,1/2-z
-x,-y,-z
x,-y,1/2+z
1/2+x,1/2+y,z
1/2-x,1/2+y,1/2-z
1/2-x,1/2-y,-z
1/2+x,1/2-y,1/2+z
loop_
_atom_site_type_symbol
_atom_site_label
_atom_site_fract_x
_atom_site_fract_y
_atom_site_fract_z
Si Si1 0.406668 0.240456 0.843544
Si Si2 0.786459 0.491746 0.136018
Si Si3 0.303589 0.268234 0.703493
Si Si4 0.101705 0.684303 0.183009
Si Si5 0.393111 0.407739 0.790441
Si Si6 0.108579 0.506660 0.703897
Si Si7 0.614472 0.849546 0.467388
Si Si8 0.092417 0.401459 0.022464
O O1 0.500000 0.228113 0.750000
O O2 0.318926 0.223311 0.797568
O O3 0.401114 0.335369 0.863549
O O4 0.399203 0.187271 0.936392
O O5 0.679992 0.523266 0.167425
O O6 0.825902 0.468883 0.227443
O O7 0.802138 0.414680 0.067168
O O8 0.849066 0.567257 0.081279
O O9 0.194997 0.275449 0.701736
O O10 0.349614 0.355660 0.715237
O O11 0.365096 0.220415 0.611574
O O12 0.109477 0.589222 0.201154
O O13 0.000000 0.712175 0.250000
O O14 0.105145 0.688574 0.070804
O O15 0.500000 0.437072 0.750000
O O16 0.127700 0.542768 0.597752
O O17 0.000000 0.534051 0.750000
O O18 0.519795 0.902347 0.471450
#
# Coordination Sequence:
#
# PCOD9276306 Si02
#       8
#     8   8   8   8   8   8   8   8
#     4   9  17  35  58  84 111 150 194 247 296 341
#     4  12  23  34  58  90 124 155 192 246 312 362
#     4  10  20  40  60  83 114 163 204 238 303 358
#     4  11  23  38  57  86 125 160 195 243 302 365
#     4   9  20  40  59  82 108 158 205 245 291 346
#     4  11  19  33  53  84 127 150 179 240 305 358
#     4  12  22  36  59  92 122 160 195 244 307 366
#     4  12  20  34  58  94 121 145 197 257 302 354
#
# _framework density 18.992874
#
# number of rings (size 3 to 8) (size 9 to 14) (size 15 to 20)
#    0.750    0.500    5.000    3.375    0.000    0.500 
#    0.000    1.875    0.000    3.000    0.000    0.000 
#    0.000    0.000    0.000    0.000    0.000    0.000 
#
# Total GULP energy -178308.851542 kJ/mol
# GULP energy per Si atom -5572.151611 kJ/mol
# Density = 1.894964 g / cm^3
# Si number density = 18.992874 Si / 1000 Ang^3
#
#
#
# Elastic Constant Matrix: (Units=GPa)
#
#
# Indices 1 2 3 4 5 6 
#
# 1 118.1118 29.0440 46.2218 0.0000 -15.6316 0.0000
# 2 29.0440 37.4917 20.1035 0.0000 -6.5935 0.0000
# 3 46.2218 20.1035 59.0637 0.0000 -3.2918 0.0000
# 4 0.0000 0.0000 0.0000 6.7135 0.0000 -5.9164
# 5 -15.6316 -6.5935 -3.2918 0.0000 23.3431 0.0000
# 6 0.0000 0.0000 0.0000 -5.9164 0.0000 15.7014
#
#
#
# Elastic Compliance Matrix: (Units=1/GPa)
#
#
# Indices 1 2 3 4 5 6 
#
# 1 0.014081 -0.004905 -0.008972 0.000000 0.006778 0.000000
# 2 -0.004905 0.035774 -0.008021 0.000000 0.005689 0.000000
# 3 -0.008972 -0.008021 0.026429 0.000000 -0.004547 0.000000
# 4 0.000000 0.000000 0.000000 0.223007 0.000000 0.084030
# 5 0.006778 0.005689 -0.004547 0.000000 0.048344 0.000000
# 6 0.000000 0.000000 0.000000 0.084030 0.000000 0.095352
#
#
# Mechanical properties :
#
#
# Convention : Reuss Voigt Hill
#
# Bulk Modulus (GPa) = 30.78080 45.04508 37.91294
# Shear Modulus (GPa) = 10.04801 17.10479 13.57640
#
# Velocity S-wave (km/s) = 2.30259 3.00424 2.67650
# Velocity P-wave (km/s) = 4.82813 5.98350 5.43660
#
# Compressibility (1/GPa) = 0.03248779
#
# Stress axis : x y z
#
# Youngs Moduli (GPa) = 71.01781 27.95352 37.83764
#
# Poissons Ratio (x) = 0.13712 0.33948
# Poissons Ratio (y) = 0.34836 0.30348
# Poissons Ratio (z) = 0.63717 0.22420
#
# Static dielectric constant tensor:
#      x y z
#    x 1.685300 0.000000 0.002260 
#    y 0.000000 1.683980 0.000000 
#    z 0.002260 0.000000 1.702460 
# 
# From -- ./inp_files/155187.got.cif
#   From: 2010.05.17/outbox.cif.g08.bks.cpg/sg15_78_cif.got.tgz:155187.got - 2010.06.03 18:47:42.
