data_PCOD9276226
_publ_section_title
;
Structure prediction by ZEFSAII (Michael W. Deem and Ramdas Pophale) SiO2 
 PCOD9276226
Probable space group: C 2/C
;
_chemical_formula_sum "Si O2"
_cell_formula_units_Z 56
_cell_length_a 12.586566
_cell_length_b 28.060470
_cell_length_c 15.781741
_cell_angle_alpha 90.000000
_cell_angle_beta 26.591545
_cell_angle_gamma 90.000000
_cell_volume 2495.017036
_symmetry_space_group_name_H-M "C 2/C"
_symmetry_group_IT_number 15
_symmetry_cell_setting 'monoclinic'
loop_
_space_group_symop_operation_xyz
x,y,z
-x,y,1/2-z
-x,-y,-z
x,-y,1/2+z
1/2+x,1/2+y,z
1/2-x,1/2+y,1/2-z
1/2-x,1/2-y,-z
1/2+x,1/2-y,1/2+z
loop_
_atom_site_type_symbol
_atom_site_label
_atom_site_fract_x
_atom_site_fract_y
_atom_site_fract_z
Si Si1 0.581666 0.312462 0.376940
Si Si2 0.293193 0.091756 0.957868
Si Si3 0.218460 0.213599 0.257050
Si Si4 0.500000 0.654035 0.750000
Si Si5 0.500000 0.331079 0.750000
Si Si6 0.999597 0.915010 0.506549
Si Si7 0.413265 0.043032 0.619624
Si Si8 0.001960 0.379749 0.582095
O O1 0.761386 0.270064 0.267949
O O2 0.362178 0.293555 0.588702
O O3 0.540747 0.316562 0.306492
O O4 0.614530 0.365091 0.391757
O O5 0.500000 0.110332 0.750000
O O6 0.410614 0.048868 0.926092
O O7 0.213067 0.133081 0.077261
O O8 0.077821 0.078411 0.048761
O O9 0.427342 0.173844 0.106748
O O10 0.048761 0.197075 0.301557
O O11 0.739187 0.624090 0.560115
O O12 0.716724 0.904376 0.710203
O O13 0.142319 0.954205 0.349113
O O14 0.453013 0.088369 0.531724
O O15 0.500000 0.000000 0.500000
#
# Coordination Sequence:
#
# PCOD9276226 Si02
#       8
#     8   8   8   4   4   8   8   8
#     4  11  24  43  66 107 144 199 259 312 374 451
#     4  10  20  39  74 102 142 196 231 289 388 450
#     4  11  25  41  71 105 150 194 254 315 376 467
#     4  12  26  46  75  94 150 208 257 318 386 434
#     4  12  20  44  69 110 146 200 237 310 388 452
#     4  10  22  45  73 108 147 188 246 311 374 457
#     4  11  23  43  75 107 147 188 242 304 380 461
#     4  11  23  44  70 101 144 193 251 312 373 447
#
# _framework density 22.444735999999999
#
# number of rings (size 3 to 8) (size 9 to 14) (size 15 to 20)
#    0.000    1.143    5.714    0.857    0.000    5.714 
#    3.857    2.143   18.857    0.000    0.000    0.000 
#    0.000    0.000    0.000    0.000    0.000    0.000 
#
# Total GULP energy -156073.011012 kJ/mol
# GULP energy per Si atom -5574.036108 kJ/mol
# Density = 2.239365 g / cm^3
# Si number density = 22.444736 Si / 1000 Ang^3
#
#
#
# Elastic Constant Matrix: (Units=GPa)
#
#
# Indices 1 2 3 4 5 6 
#
# 1 88.0919 23.2628 48.6800 -0.0186 1.2208 0.0080
# 2 23.2628 43.5937 51.7959 -0.0083 1.2558 0.0045
# 3 48.6800 51.7959 149.6217 0.0089 0.2635 -0.0101
# 4 -0.0186 -0.0083 0.0089 19.4373 0.0028 1.2610
# 5 1.2208 1.2558 0.2635 0.0028 38.6116 0.0010
# 6 0.0080 0.0045 -0.0101 1.2610 0.0010 38.5244
#
#
#
# Elastic Compliance Matrix: (Units=1/GPa)
#
#
# Indices 1 2 3 4 5 6 
#
# 1 0.014158 -0.003523 -0.003386 0.000014 -0.000310 -0.000004
# 2 -0.003523 0.039896 -0.012663 0.000020 -0.001100 -0.000008
# 3 -0.003386 -0.012663 0.012168 -0.000015 0.000436 0.000006
# 4 0.000014 0.000020 -0.000015 0.051557 -0.000005 -0.001688
# 5 -0.000310 -0.001100 0.000436 -0.000005 0.025942 0.000000
# 6 -0.000004 -0.000008 0.000006 -0.001688 0.000000 0.026013
#
#
# Mechanical properties :
#
#
# Convention : Reuss Voigt Hill
#
# Bulk Modulus (GPa) = 36.93032 58.75386 47.84209
# Shear Modulus (GPa) = 22.94592 29.81924 26.38258
#
# Velocity S-wave (km/s) = 3.20086 3.64890 3.43220
# Velocity P-wave (km/s) = 5.49093 6.63224 6.08838
#
# Compressibility (1/GPa) = 0.02707802
#
# Stress axis : x y z
#
# Youngs Moduli (GPa) = 70.63365 25.06493 82.18108
#
# Poissons Ratio (x) = 0.08829 0.27828
# Poissons Ratio (y) = 0.24881 1.04068
# Poissons Ratio (z) = 0.23918 0.31740
#
# Static dielectric constant tensor:
#      x y z
#    x 1.821020 0.000000 -0.032030 
#    y 0.000000 1.921240 0.000010 
#    z -0.032030 0.000010 1.959750 
# 
# From -- ./inp_files/149284.got.cif
#   From: 2010.05.17/outbox.cif.g08.bks.cpg/sg15_75_cif.got.tgz:149284.got - 2010.06.03 18:47:42.
