data_PCOD9276419
_publ_section_title
;
Structure prediction by ZEFSAII (Michael W. Deem and Ramdas Pophale) SiO2 
 PCOD9276419
Probable space group: C 2/C
;
_chemical_formula_sum "Si O2"
_cell_formula_units_Z 40
_cell_length_a 13.954495
_cell_length_b 23.588756
_cell_length_c 5.217558
_cell_angle_alpha 90.000000
_cell_angle_beta 110.267399
_cell_angle_gamma 90.000000
_cell_volume 1611.124824
_symmetry_space_group_name_H-M "C 2/C"
_symmetry_group_IT_number 15
_symmetry_cell_setting 'monoclinic'
loop_
_space_group_symop_operation_xyz
x,y,z
-x,y,1/2-z
-x,-y,-z
x,-y,1/2+z
1/2+x,1/2+y,z
1/2-x,1/2+y,1/2-z
1/2-x,1/2-y,-z
1/2+x,1/2-y,1/2+z
loop_
_atom_site_type_symbol
_atom_site_label
_atom_site_fract_x
_atom_site_fract_y
_atom_site_fract_z
Si Si1 0.000000 0.871039 0.750000
Si Si2 0.897712 0.782454 0.036453
Si Si3 0.305982 0.376263 0.296826
Si Si4 0.105839 0.669132 0.711785
Si Si5 0.000000 0.422973 0.750000
Si Si6 0.714842 0.033132 0.330469
O O1 0.935169 0.830119 0.874627
O O2 0.910258 0.901979 0.511202
O O3 0.851011 0.727788 0.862089
O O4 0.841685 0.816709 0.205800
O O5 0.000000 0.756277 0.250000
O O6 0.211074 0.361681 0.401218
O O7 0.265845 0.413357 0.019655
O O8 0.000000 0.687166 0.750000
O O9 0.058712 0.619376 0.493799
O O10 0.908205 0.458566 0.786772
O O11 0.741493 0.015700 0.065744
#
# Coordination Sequence:
#
# PCOD9276419 Si02
#       6
#     4   8   8   8   4   8
#     4  10  22  42  66  89 137 184 236 284 346 406
#     4  10  20  40  61  96 138 186 229 281 351 424
#     4  10  25  41  69  95 138 186 236 298 348 419
#     4  11  22  38  65 105 144 182 229 275 357 441
#     4  10  24  40  68  99 151 178 226 288 358 442
#     4  11  26  46  72 104 137 187 244 301 365 421
#
# _framework density 24.827376999999998
#
# number of rings (size 3 to 8) (size 9 to 14) (size 15 to 20)
#    0.000    1.600    2.000    1.200    8.400    2.400 
#    0.000    1.000    0.000    0.000    0.000    0.000 
#    0.000    0.000    0.000    0.000    0.000    0.000 
#
# Total GULP energy -111504.133212 kJ/mol
# GULP energy per Si atom -5575.206661 kJ/mol
# Density = 2.477087 g / cm^3
# Si number density = 24.827377 Si / 1000 Ang^3
#
#
#
# Elastic Constant Matrix: (Units=GPa)
#
#
# Indices 1 2 3 4 5 6 
#
# 1 119.5418 21.5588 40.6479 0.0000 34.7317 0.0000
# 2 21.5588 68.7956 15.9748 0.0000 21.0859 0.0000
# 3 40.6479 15.9748 60.8039 0.0000 22.3870 0.0000
# 4 0.0000 0.0000 0.0000 28.0621 0.0000 -5.1638
# 5 34.7317 21.0859 22.3870 0.0000 40.6980 0.0000
# 6 0.0000 0.0000 0.0000 -5.1638 0.0000 33.0716
#
#
#
# Elastic Compliance Matrix: (Units=1/GPa)
#
#
# Indices 1 2 3 4 5 6 
#
# 1 0.012456 -0.000351 -0.005502 0.000000 -0.007421 0.000000
# 2 -0.000351 0.017408 -0.001415 0.000000 -0.007941 0.000000
# 3 -0.005502 -0.001415 0.023195 0.000000 -0.007331 0.000000
# 4 0.000000 0.000000 0.000000 0.036689 0.000000 0.005729
# 5 -0.007421 -0.007941 -0.007331 0.000000 0.039051 0.000000
# 6 0.000000 0.000000 0.000000 0.005729 0.000000 0.031132
#
#
# Mechanical properties :
#
#
# Convention : Reuss Voigt Hill
#
# Bulk Modulus (GPa) = 25.95858 45.05606 35.50732
# Shear Modulus (GPa) = 26.69381 31.76367 29.22874
#
# Velocity S-wave (km/s) = 3.28255 3.58072 3.43487
# Velocity P-wave (km/s) = 4.98449 5.93991 5.48305
#
# Compressibility (1/GPa) = 0.03852291
#
# Stress axis : x y z
#
# Youngs Moduli (GPa) = 80.28511 57.44323 43.11226
#
# Poissons Ratio (x) = 0.02017 0.23721
# Poissons Ratio (y) = 0.02818 0.06101
# Poissons Ratio (z) = 0.44174 0.08129
#
# Static dielectric constant tensor:
#      x y z
#    x 1.856740 0.000000 -0.104320 
#    y 0.000000 1.928740 0.000000 
#    z -0.104320 0.000000 2.033650 
# 
# From -- ./inp_files/8159.got.cif
#   From: 2010.05.17/outbox.cif.g08.bks.cpg/sg15_5_cif.got.tgz:8159.got - 2010.06.03 18:47:42.
