data_PCOD9276954
_publ_section_title
;
Structure prediction by ZEFSAII (Michael W. Deem and Ramdas Pophale) SiO2 
 PCOD9276954
Probable space group: C 2/C
;
_chemical_formula_sum "Si O2"
_cell_formula_units_Z 48
_cell_length_a 21.424425
_cell_length_b 11.563526
_cell_length_c 14.551183
_cell_angle_alpha 90.000000
_cell_angle_beta 141.954974
_cell_angle_gamma 90.000000
_cell_volume 2221.652945
_symmetry_space_group_name_H-M "C 2/C"
_symmetry_group_IT_number 15
_symmetry_cell_setting 'monoclinic'
loop_
_space_group_symop_operation_xyz
x,y,z
-x,y,1/2-z
-x,-y,-z
x,-y,1/2+z
1/2+x,1/2+y,z
1/2-x,1/2+y,1/2-z
1/2-x,1/2-y,-z
1/2+x,1/2-y,1/2+z
loop_
_atom_site_type_symbol
_atom_site_label
_atom_site_fract_x
_atom_site_fract_y
_atom_site_fract_z
Si Si1 0.818016 0.401884 0.483169
Si Si2 0.000641 0.898183 0.575269
Si Si3 0.000000 0.056117 0.750000
Si Si4 0.796151 0.138376 0.465171
Si Si5 0.215127 0.072943 0.683557
Si Si6 0.500000 0.952926 0.250000
Si Si7 0.159150 0.709263 0.822670
O O1 0.796141 0.268676 0.430655
O O2 0.784631 0.400908 0.551651
O O3 0.750512 0.461494 0.326723
O O4 0.928027 0.460963 0.607315
O O5 0.886988 0.849027 0.431582
O O6 0.091978 0.809785 0.696222
O O7 0.998753 0.970009 0.665373
O O8 0.000000 0.000000 0.500000
O O9 0.901574 0.132823 0.642041
O O10 0.800830 0.047483 0.388984
O O11 0.291942 0.139425 0.705271
O O12 0.421777 0.870267 0.214992
O O13 0.250000 0.750000 0.000000
#
# Coordination Sequence:
#
# PCOD9276954 Si02
#       7
#     8   8   4   8   8   4   8
#     4  11  25  45  70 102 148 189 240 315 375 452
#     4  11  25  43  73 108 142 195 246 301 379 453
#     4  10  20  40  66  94 134 184 240 282 360 450
#     4  10  22  45  68 101 142 190 235 302 378 445
#     4  11  25  44  73 107 140 193 251 305 376 458
#     4  12  26  48  74 108 144 198 256 312 388 444
#     4  12  26  46  74 107 151 193 246 322 379 454
#
# _framework density 21.605533999999999
#
# number of rings (size 3 to 8) (size 9 to 14) (size 15 to 20)
#    0.000    1.000    1.667    5.000    7.000    2.000 
#    6.000    0.000    0.000    0.000    0.000    0.000 
#    0.000    0.000    0.000    0.000    0.000    0.000 
#
# Total GULP energy -133740.884486 kJ/mol
# GULP energy per Si atom -5572.536854 kJ/mol
# Density = 2.155636 g / cm^3
# Si number density = 21.605534 Si / 1000 Ang^3
#
#
#
# Elastic Constant Matrix: (Units=GPa)
#
#
# Indices 1 2 3 4 5 6 
#
# 1 131.6274 54.1710 4.6360 0.0000 -17.3034 0.0000
# 2 54.1710 97.4831 49.3934 0.0000 1.0411 0.0000
# 3 4.6360 49.3934 148.6046 0.0000 21.8155 0.0000
# 4 0.0000 0.0000 0.0000 50.2481 0.0000 11.7908
# 5 -17.3034 1.0411 21.8155 0.0000 59.9975 0.0000
# 6 0.0000 0.0000 0.0000 11.7908 0.0000 32.2529
#
#
#
# Elastic Compliance Matrix: (Units=1/GPa)
#
#
# Indices 1 2 3 4 5 6 
#
# 1 0.010654 -0.006715 0.001512 0.000000 0.002639 0.000000
# 2 -0.006715 0.016672 -0.005287 0.000000 -0.000303 0.000000
# 3 0.001512 -0.005287 0.008834 0.000000 -0.002684 0.000000
# 4 0.000000 0.000000 0.000000 0.021769 0.000000 -0.007958
# 5 0.002639 -0.000303 -0.002684 0.000000 0.018410 0.000000
# 6 0.000000 0.000000 0.000000 -0.007958 0.000000 0.033914
#
#
# Mechanical properties :
#
#
# Convention : Reuss Voigt Hill
#
# Bulk Modulus (GPa) = 65.87908 66.01287 65.94598
# Shear Modulus (GPa) = 36.68564 46.46735 41.57649
#
# Velocity S-wave (km/s) = 4.12512 4.64261 4.39149
# Velocity P-wave (km/s) = 7.29704 7.70444 7.50351
#
# Compressibility (1/GPa) = 0.01517933
#
# Stress axis : x y z
#
# Youngs Moduli (GPa) = 93.85742 59.98085 113.20444
#
# Poissons Ratio (x) = 0.40277 -0.17117
# Poissons Ratio (y) = 0.63025 0.59856
# Poissons Ratio (z) = -0.14192 0.31714
#
# Static dielectric constant tensor:
#      x y z
#    x 1.856680 0.000000 0.030550 
#    y 0.000000 1.653040 0.000000 
#    z 0.030550 0.000000 1.894240 
# 
# From -- ./inp_files/111822.got.cif
#   From: 2010.05.17/outbox.cif.g08.bks.cpg/sg15_56_cif.got.tgz:111822.got - 2010.06.03 18:47:42.
