data_PCOD9276068
_publ_section_title
;
Structure prediction by ZEFSAII (Michael W. Deem and Ramdas Pophale) SiO2 
 PCOD9276068
Probable space group: C 2/C
;
_chemical_formula_sum "Si O2"
_cell_formula_units_Z 52
_cell_length_a 24.187559
_cell_length_b 16.340912
_cell_length_c 8.665805
_cell_angle_alpha 90.000000
_cell_angle_beta 39.666896
_cell_angle_gamma 90.000000
_cell_volume 2186.340780
_symmetry_space_group_name_H-M "C 2/C"
_symmetry_group_IT_number 15
_symmetry_cell_setting 'monoclinic'
loop_
_space_group_symop_operation_xyz
x,y,z
-x,y,1/2-z
-x,-y,-z
x,-y,1/2+z
1/2+x,1/2+y,z
1/2-x,1/2+y,1/2-z
1/2-x,1/2-y,-z
1/2+x,1/2-y,1/2+z
loop_
_atom_site_type_symbol
_atom_site_label
_atom_site_fract_x
_atom_site_fract_y
_atom_site_fract_z
Si Si1 0.673690 0.707030 0.336051
Si Si2 0.563833 0.422745 0.968049
Si Si3 0.123822 0.454822 0.735227
Si Si4 0.703696 0.122620 0.654403
Si Si5 0.000000 0.488997 0.250000
Si Si6 0.708783 0.339395 0.090978
Si Si7 0.131383 0.932916 0.508668
O O1 0.600957 0.669159 0.382950
O O2 0.671730 0.804712 0.336030
O O3 0.664808 0.661029 0.517958
O O4 0.761295 0.673566 0.068444
O O5 0.500000 0.419232 0.250000
O O6 0.555296 0.441374 0.802028
O O7 0.630161 0.490811 0.894250
O O8 0.144090 0.550798 0.720949
O O9 0.068471 0.455601 0.697660
O O10 0.211868 0.403326 0.558754
O O11 0.056549 0.433695 0.014277
O O12 0.781952 0.076423 0.575421
O O13 0.750000 0.250000 0.000000
O O14 0.639476 0.356418 0.374712
#
# Coordination Sequence:
#
# PCOD9276068 Si02
#       7
#     8   8   8   8   4   8   8
#     4  10  21  38  62  99 131 170 223 284 345 396
#     4  11  23  41  65  97 139 181 219 270 349 430
#     4  11  22  41  65  94 131 179 225 281 341 408
#     4  10  20  39  67  96 128 171 230 290 340 392
#     4  10  24  40  62  92 130 180 222 258 344 432
#     4  12  23  40  69 100 133 169 237 301 342 391
#     4  11  22  39  66  99 130 178 231 283 343 408
#
# _framework density 23.784033000000001
#
# number of rings (size 3 to 8) (size 9 to 14) (size 15 to 20)
#    0.000    1.231    1.538    6.000    0.000    0.000 
#    1.385    0.000    1.692    0.000    0.000    0.000 
#    0.000    0.000    0.000    0.000    0.000    0.000 
#
# Total GULP energy -145025.712846 kJ/mol
# GULP energy per Si atom -5577.912033 kJ/mol
# Density = 2.372990 g / cm^3
# Si number density = 23.784033 Si / 1000 Ang^3
#
#
#
# Elastic Constant Matrix: (Units=GPa)
#
#
# Indices 1 2 3 4 5 6 
#
# 1 88.3328 36.9985 26.2323 0.0000 19.4834 0.0000
# 2 36.9985 121.7119 46.6504 0.0000 -0.2821 0.0000
# 3 26.2323 46.6504 147.4398 0.0000 38.7219 0.0000
# 4 0.0000 0.0000 0.0000 29.1394 0.0000 14.3891
# 5 19.4834 -0.2821 38.7219 0.0000 40.8086 0.0000
# 6 0.0000 0.0000 0.0000 14.3891 0.0000 24.5855
#
#
#
# Elastic Compliance Matrix: (Units=1/GPa)
#
#
# Indices 1 2 3 4 5 6 
#
# 1 0.014873 -0.004944 0.001055 0.000000 -0.008136 0.000000
# 2 -0.004944 0.011465 -0.004513 0.000000 0.006722 0.000000
# 3 0.001055 -0.004513 0.010873 0.000000 -0.010852 0.000000
# 4 0.000000 0.000000 0.000000 0.048267 0.000000 -0.028249
# 5 -0.008136 0.006722 -0.010852 0.000000 0.038732 0.000000
# 6 0.000000 0.000000 0.000000 -0.028249 0.000000 0.057208
#
#
# Mechanical properties :
#
#
# Convention : Reuss Voigt Hill
#
# Bulk Modulus (GPa) = 49.00732 64.13855 56.57293
# Shear Modulus (GPa) = 24.38737 35.41360 29.90048
#
# Velocity S-wave (km/s) = 3.20561 3.86290 3.54950
# Velocity P-wave (km/s) = 5.86098 6.84993 6.37466
#
# Compressibility (1/GPa) = 0.02040511
#
# Stress axis : x y z
#
# Youngs Moduli (GPa) = 67.23571 87.22536 91.97387
#
# Poissons Ratio (x) = 0.43128 -0.09703
# Poissons Ratio (y) = 0.33244 0.41510
# Poissons Ratio (z) = -0.07093 0.39366
#
# Static dielectric constant tensor:
#      x y z
#    x 2.017510 0.000000 0.030740 
#    y 0.000000 1.906940 0.000000 
#    z 0.030740 0.000000 2.084940 
# 
# From -- ./inp_files/70095.got.cif
#   From: 2010.05.17/outbox.cif.g08.bks.cpg/sg15_36_cif.got.tgz:70095.got - 2010.06.03 18:47:42.
