data_PCOD9276751
_publ_section_title
;
Structure prediction by ZEFSAII (Michael W. Deem and Ramdas Pophale) SiO2 
 PCOD9276751
Probable space group: C 2/C
;
_chemical_formula_sum "Si O2"
_cell_formula_units_Z 56
_cell_length_a 14.298661
_cell_length_b 22.206926
_cell_length_c 14.417198
_cell_angle_alpha 90.000000
_cell_angle_beta 33.923465
_cell_angle_gamma 90.000000
_cell_volume 2554.847709
_symmetry_space_group_name_H-M "C 2/C"
_symmetry_group_IT_number 15
_symmetry_cell_setting 'monoclinic'
loop_
_space_group_symop_operation_xyz
x,y,z
-x,y,1/2-z
-x,-y,-z
x,-y,1/2+z
1/2+x,1/2+y,z
1/2-x,1/2+y,1/2-z
1/2-x,1/2-y,-z
1/2+x,1/2-y,1/2+z
loop_
_atom_site_type_symbol
_atom_site_label
_atom_site_fract_x
_atom_site_fract_y
_atom_site_fract_z
Si Si1 0.682931 0.604046 0.438537
Si Si2 0.365370 0.837465 0.526889
Si Si3 0.644402 0.435394 0.766813
Si Si4 0.000000 0.664547 0.250000
Si Si5 0.724994 0.226903 0.733697
Si Si6 0.000000 0.967470 0.250000
Si Si7 0.994273 0.781422 0.356118
Si Si8 0.886451 0.168674 0.422919
O O1 0.642315 0.565238 0.380304
O O2 0.874012 0.621940 0.299380
O O3 0.614462 0.570187 0.585355
O O4 0.601656 0.670993 0.501864
O O5 0.323516 0.904384 0.595537
O O6 0.548792 0.808173 0.382705
O O7 0.239308 0.796836 0.693546
O O8 0.290281 0.837453 0.485107
O O9 0.612990 0.492997 0.728479
O O10 0.491677 0.391221 0.859196
O O11 0.070264 0.713841 0.116735
O O12 0.824606 0.222902 0.747156
O O13 0.838014 0.199098 0.558336
O O14 0.000000 0.809980 0.250000
O O15 0.500000 0.298243 0.750000
#
# Coordination Sequence:
#
# PCOD9276751 Si02
#       8
#     8   8   8   4   8   4   8   8
#     4  12  24  47  74 104 136 188 235 292 362 422
#     4  11  23  38  64 102 146 178 236 278 354 428
#     4  11  23  46  71 100 134 188 237 302 350 411
#     4  10  25  44  70 108 150 171 224 298 346 432
#     4  12  23  38  67 103 144 195 221 280 357 437
#     4  12  25  50  78  94 134 189 252 298 356 414
#     4  10  24  41  69 103 145 178 225 270 357 437
#     4  10  20  40  64  95 144 179 233 284 349 419
#
# _framework density 21.919114
#
# number of rings (size 3 to 8) (size 9 to 14) (size 15 to 20)
#    0.429    0.571    4.286    4.286    2.000    2.286 
#    0.000    2.143    0.000    0.000    0.000    0.000 
#    0.000    0.000    0.000    0.000    0.000    0.000 
#
# Total GULP energy -156046.418880 kJ/mol
# GULP energy per Si atom -5573.086389 kJ/mol
# Density = 2.186923 g / cm^3
# Si number density = 21.919114 Si / 1000 Ang^3
#
#
#
# Elastic Constant Matrix: (Units=GPa)
#
#
# Indices 1 2 3 4 5 6 
#
# 1 170.5531 31.2444 37.0665 -0.0049 17.2281 0.0018
# 2 31.2444 71.2114 30.8573 -0.0011 10.5322 0.0050
# 3 37.0665 30.8573 79.1071 0.0039 21.3434 0.0050
# 4 -0.0049 -0.0011 0.0039 12.7560 0.0005 16.4885
# 5 17.2281 10.5322 21.3434 0.0005 46.3873 -0.0036
# 6 0.0018 0.0050 0.0050 16.4885 -0.0036 12.4603
#
#
#
# Elastic Compliance Matrix: (Units=1/GPa)
#
#
# Indices 1 2 3 4 5 6 
#
# 1 0.006787 -0.001884 -0.002147 -0.000004 -0.001105 0.000005
# 2 -0.001884 0.017456 -0.005761 -0.000012 -0.000613 0.000011
# 3 -0.002147 -0.005761 0.017499 -0.000002 -0.005946 -0.000003
# 4 -0.000004 -0.000012 -0.000002 -0.110338 0.000018 0.146009
# 5 -0.001105 -0.000613 -0.005946 0.000018 0.024843 -0.000013
# 6 0.000005 0.000011 -0.000003 0.146009 -0.000013 -0.112957
#
#
# Mechanical properties :
#
#
# Convention : Reuss Voigt Hill
#
# Bulk Modulus (GPa) = 45.13132 57.68977 51.41054
# Shear Modulus (GPa) = -38.53830 29.10095 -4.71867
#
# Velocity S-wave (km/s) = -4.19764 3.64765 -1.46882
# Velocity P-wave (km/s) = 1.69086 6.64206 4.54192
#
# Compressibility (1/GPa) = 0.02215756
#
# Stress axis : x y z
#
# Youngs Moduli (GPa) = 147.34885 57.28578 57.14769
#
# Poissons Ratio (x) = 0.10792 0.12269
# Poissons Ratio (y) = 0.27759 0.32923
# Poissons Ratio (z) = 0.31635 0.33003
#
# Static dielectric constant tensor:
#      x y z
#    x 1.869960 -0.000010 -0.012800 
#    y -0.000010 1.846600 0.000010 
#    z -0.012800 0.000010 1.868770 
# 
# From -- ./inp_files/156926.got.cif
#   From: 2010.05.17/outbox.cif.g08.bks.cpg/sg15_79_cif.got.tgz:156926.got - 2010.06.03 18:47:42.
