data_PCOD9276055
_publ_section_title
;
Structure prediction by ZEFSAII (Michael W. Deem and Ramdas Pophale) SiO2 
 PCOD9276055
Probable space group: C 2/C
;
_chemical_formula_sum "Si O2"
_cell_formula_units_Z 56
_cell_length_a 8.495205
_cell_length_b 15.403304
_cell_length_c 20.192021
_cell_angle_alpha 90.000000
_cell_angle_beta 113.781202
_cell_angle_gamma 90.000000
_cell_volume 2417.866432
_symmetry_space_group_name_H-M "C 2/C"
_symmetry_group_IT_number 15
_symmetry_cell_setting 'monoclinic'
loop_
_space_group_symop_operation_xyz
x,y,z
-x,y,1/2-z
-x,-y,-z
x,-y,1/2+z
1/2+x,1/2+y,z
1/2-x,1/2+y,1/2-z
1/2-x,1/2-y,-z
1/2+x,1/2-y,1/2+z
loop_
_atom_site_type_symbol
_atom_site_label
_atom_site_fract_x
_atom_site_fract_y
_atom_site_fract_z
Si Si1 0.144836 0.266254 0.319082
Si Si2 0.148395 0.557545 0.889405
Si Si3 0.298395 0.291333 0.211584
Si Si4 0.528940 0.799902 0.573296
Si Si5 0.715113 0.880677 0.861819
Si Si6 0.047406 0.897138 0.472308
Si Si7 0.351183 0.089664 0.929762
O O1 0.090540 0.347154 0.355090
O O2 0.245201 0.314391 0.276857
O O3 0.266880 0.203913 0.381379
O O4 0.000000 0.221664 0.250000
O O5 0.159535 0.479484 0.837973
O O6 0.350481 0.569925 0.943634
O O7 0.002791 0.532904 0.919956
O O8 0.500000 0.292286 0.250000
O O9 0.243798 0.191942 0.185016
O O10 0.236043 0.355073 0.143646
O O11 0.441706 0.840452 0.622725
O O12 0.467922 0.700658 0.557656
O O13 0.459426 0.848656 0.497408
O O14 0.869388 0.887839 0.941091
O O15 0.188842 0.942861 0.447462
#
# Coordination Sequence:
#
# PCOD9276055 Si02
#       7
#     8   8   8   8   8   8   8
#     4  11  23  40  59  96 128 161 215 263 308 390
#     4  11  25  39  64  97 133 163 210 270 330 374
#     4  12  21  40  68  89 118 178 213 255 319 378
#     4  10  20  39  67  94 123 170 225 257 303 396
#     4  11  21  40  66  95 127 167 211 271 322 371
#     4  10  20  40  65  97 129 167 216 262 312 394
#     4  11  21  41  70  91 124 175 213 262 320 378
#
# _framework density 23.160914999999999
#
# number of rings (size 3 to 8) (size 9 to 14) (size 15 to 20)
#    0.000    1.143    5.714    2.143    0.000    6.286 
#    0.000    1.429    0.000    1.714    0.000    0.000 
#    0.000    0.000    0.000    0.000    0.000    0.000 
#
# Total GULP energy -156163.515506 kJ/mol
# GULP energy per Si atom -5577.268411 kJ/mol
# Density = 2.310820 g / cm^3
# Si number density = 23.160915 Si / 1000 Ang^3
#
#
#
# Elastic Constant Matrix: (Units=GPa)
#
#
# Indices 1 2 3 4 5 6 
#
# 1 102.6295 10.7659 36.6954 0.0000 -0.5793 0.0000
# 2 10.7659 64.3471 3.4764 0.0000 4.0315 0.0000
# 3 36.6954 3.4764 100.3724 0.0000 19.5102 0.0000
# 4 0.0000 0.0000 0.0000 8.1203 0.0000 -6.7465
# 5 -0.5793 4.0315 19.5102 0.0000 40.1029 0.0000
# 6 0.0000 0.0000 0.0000 -6.7465 0.0000 23.1352
#
#
#
# Elastic Compliance Matrix: (Units=1/GPa)
#
#
# Indices 1 2 3 4 5 6 
#
# 1 0.011635 -0.001858 -0.004703 0.000000 0.002643 0.000000
# 2 -0.001858 0.015942 0.000490 0.000000 -0.001868 0.000000
# 3 -0.004703 0.000490 0.012909 0.000000 -0.006397 0.000000
# 4 0.000000 0.000000 0.000000 0.162524 0.000000 0.047394
# 5 0.002643 -0.001868 -0.006397 0.000000 0.028274 0.000000
# 6 0.000000 0.000000 0.000000 0.047394 0.000000 0.057045
#
#
# Mechanical properties :
#
#
# Convention : Reuss Voigt Hill
#
# Bulk Modulus (GPa) = 35.28059 41.02493 38.15276
# Shear Modulus (GPa) = 16.13320 28.69910 22.41615
#
# Velocity S-wave (km/s) = 2.64213 3.52393 3.11439
# Velocity P-wave (km/s) = 4.95718 5.85738 5.42598
#
# Compressibility (1/GPa) = 0.02834420
#
# Stress axis : x y z
#
# Youngs Moduli (GPa) = 85.94571 62.72674 77.46613
#
# Poissons Ratio (x) = 0.11656 0.36433
# Poissons Ratio (y) = 0.15970 -0.03798
# Poissons Ratio (z) = 0.40421 -0.03075
#
# Static dielectric constant tensor:
#      x y z
#    x 2.010020 0.000000 0.033340 
#    y 0.000000 1.935520 0.000000 
#    z 0.033340 0.000000 1.851110 
# 
# From -- ./inp_files/265322.got.cif
#   From: 2010.05.17/outbox.cif.g08.bks.cpg/sg15_133_cif.got.tgz:265322.got - 2010.06.03 18:47:42.
