data_PCOD9276048
_publ_section_title
;
Structure prediction by ZEFSAII (Michael W. Deem and Ramdas Pophale) SiO2 
 PCOD9276048
Probable space group: C 2/C
;
_chemical_formula_sum "Si O2"
_cell_formula_units_Z 36
_cell_length_a 17.506877
_cell_length_b 5.481823
_cell_length_c 34.033479
_cell_angle_alpha 90.000000
_cell_angle_beta 154.090496
_cell_angle_gamma 90.000000
_cell_volume 1427.160347
_symmetry_space_group_name_H-M "C 2/C"
_symmetry_group_IT_number 15
_symmetry_cell_setting 'monoclinic'
loop_
_space_group_symop_operation_xyz
x,y,z
-x,y,1/2-z
-x,-y,-z
x,-y,1/2+z
1/2+x,1/2+y,z
1/2-x,1/2+y,1/2-z
1/2-x,1/2-y,-z
1/2+x,1/2-y,1/2+z
loop_
_atom_site_type_symbol
_atom_site_label
_atom_site_fract_x
_atom_site_fract_y
_atom_site_fract_z
Si Si1 0.520498 0.941591 0.135253
Si Si2 0.064119 0.056441 0.695998
Si Si3 0.500000 0.681159 0.250000
Si Si4 0.830903 0.976455 0.394629
Si Si5 0.557248 0.017704 0.572349
O O1 0.730809 0.944191 0.222675
O O2 0.488630 0.181547 0.146991
O O3 0.485585 0.682197 0.138409
O O4 0.430458 0.942041 0.050357
O O5 0.028611 0.987033 0.725189
O O6 0.658229 0.865705 0.333554
O O7 0.873486 0.753480 0.385457
O O8 0.820366 0.242220 0.371681
O O9 0.000000 0.000000 0.500000
O O10 0.500000 0.000000 0.500000
#
# Coordination Sequence:
#
# PCOD9276048 Si02
#       5
#     8   8   4   8   8
#     4  10  20  40  58  97 129 176 220 283 336 406
#     4  10  23  34  63  94 133 167 229 281 334 402
#     4  12  24  42  70 106 132 186 234 290 344 422
#     4  10  23  39  64  99 134 174 228 284 337 413
#     4  10  20  39  67  93 129 184 224 271 345 419
#
# _framework density 25.224916
#
# number of rings (size 3 to 8) (size 9 to 14) (size 15 to 20)
#    0.000    1.778    2.222    1.333    6.222    3.556 
#    0.000    0.000    0.000   32.000    0.000    0.000 
#    0.000    0.222    0.000    0.000    0.000    0.000 
#
# Total GULP energy -100265.150375 kJ/mol
# GULP energy per Si atom -5570.286132 kJ/mol
# Density = 2.516750 g / cm^3
# Si number density = 25.224916 Si / 1000 Ang^3
#
#
#
# Elastic Constant Matrix: (Units=GPa)
#
#
# Indices 1 2 3 4 5 6 
#
# 1 117.1100 52.2942 44.8186 -0.0224 -29.6928 -0.0081
# 2 52.2942 208.0403 40.1246 -0.0790 -9.1578 -0.0083
# 3 44.8186 40.1246 79.9540 -0.0387 -1.5586 -0.0060
# 4 -0.0224 -0.0790 -0.0387 29.9722 0.0037 -5.5361
# 5 -29.6928 -9.1578 -1.5586 0.0037 42.6828 -0.0014
# 6 -0.0081 -0.0083 -0.0060 -5.5361 -0.0014 49.8897
#
#
#
# Elastic Compliance Matrix: (Units=1/GPa)
#
#
# Indices 1 2 3 4 5 6 
#
# 1 0.014412 -0.001868 -0.006959 -0.000004 0.009371 0.000001
# 2 -0.001868 0.005611 -0.001772 0.000011 -0.000160 0.000002
# 3 -0.006959 -0.001772 0.017208 0.000013 -0.004593 0.000002
# 4 -0.000004 0.000011 0.000013 0.034063 -0.000003 0.003780
# 5 0.009371 -0.000160 -0.004593 -0.000003 0.029746 0.000001
# 6 0.000001 0.000002 0.000002 0.003780 0.000001 0.020464
#
#
# Mechanical properties :
#
#
# Convention : Reuss Voigt Hill
#
# Bulk Modulus (GPa) = 62.36886 75.50879 68.93882
# Shear Modulus (GPa) = 33.77358 42.36673 38.07016
#
# Velocity S-wave (km/s) = 3.66306 4.10269 3.88909
# Velocity P-wave (km/s) = 6.53219 7.24168 6.89607
#
# Compressibility (1/GPa) = 0.01603364
#
# Stress axis : x y z
#
# Youngs Moduli (GPa) = 69.38487 178.22097 58.11390
#
# Poissons Ratio (x) = 0.33294 0.40440
# Poissons Ratio (y) = 0.12962 0.10297
# Poissons Ratio (z) = 0.48283 0.31577
#
# Static dielectric constant tensor:
#      x y z
#    x 1.987180 0.000250 0.034720 
#    y 0.000250 1.735200 -0.000250 
#    z 0.034720 -0.000250 2.195740 
# 
# From -- ./inp_files/312470.got.cif
#   From: 2010.05.17/outbox.cif.g08.bks.cpg/sg15_157_cif.got.tgz:312470.got - 2010.06.03 18:47:42.
