data_PCOD9276931
_publ_section_title
;
Structure prediction by ZEFSAII (Michael W. Deem and Ramdas Pophale) SiO2 
 PCOD9276931
Probable space group: C 2/C
;
_chemical_formula_sum "Si O2"
_cell_formula_units_Z 64
_cell_length_a 25.086684
_cell_length_b 15.676729
_cell_length_c 10.419666
_cell_angle_alpha 90.000000
_cell_angle_beta 133.551761
_cell_angle_gamma 90.000000
_cell_volume 2969.901597
_symmetry_space_group_name_H-M "C 2/C"
_symmetry_group_IT_number 15
_symmetry_cell_setting 'monoclinic'
loop_
_space_group_symop_operation_xyz
x,y,z
-x,y,1/2-z
-x,-y,-z
x,-y,1/2+z
1/2+x,1/2+y,z
1/2-x,1/2+y,1/2-z
1/2-x,1/2-y,-z
1/2+x,1/2-y,1/2+z
loop_
_atom_site_type_symbol
_atom_site_label
_atom_site_fract_x
_atom_site_fract_y
_atom_site_fract_z
Si Si1 0.331705 0.841700 0.209679
Si Si2 0.169948 0.848497 0.874922
Si Si3 0.916732 0.380336 0.610334
Si Si4 0.084840 0.003053 0.357942
Si Si5 0.838047 0.313035 0.739379
Si Si6 0.287328 0.514594 0.239829
Si Si7 0.683273 0.366790 0.394033
Si Si8 0.634465 0.063190 0.996214
O O1 0.348844 0.748523 0.180085
O O2 0.374521 0.850045 0.413047
O O3 0.243406 0.849690 0.084995
O O4 0.352932 0.905861 0.129240
O O5 0.198692 0.891384 0.791781
O O6 0.106166 0.913151 0.811328
O O7 0.874050 0.351053 0.668386
O O8 0.918845 0.483175 0.600511
O O9 0.000000 0.346951 0.750000
O O10 0.139599 0.012721 0.567937
O O11 0.114906 0.914850 0.346485
O O12 0.000000 0.999473 0.250000
O O13 0.749387 0.329681 0.591030
O O14 0.843981 0.210660 0.739528
O O15 0.876731 0.358120 0.925264
O O16 0.277989 0.445291 0.113866
O O17 0.209539 0.520883 0.179102
#
# Coordination Sequence:
#
# PCOD9276931 Si02
#       8
#     8   8   8   8   8   8   8   8
#     4  10  23  43  72  98 134 174 231 288 329 399
#     4   9  22  39  66 101 125 179 231 273 330 405
#     4  12  27  45  67  98 138 179 219 282 355 402
#     4  11  23  40  64  96 141 181 218 278 349 422
#     4  11  24  41  69 103 126 174 234 284 325 404
#     4  10  20  40  66  91 133 173 221 274 338 407
#     4  10  23  39  65  98 132 175 225 280 335 406
#     4  11  22  42  72  97 127 174 231 284 335 399
#
# _framework density 21.549536
#
# number of rings (size 3 to 8) (size 9 to 14) (size 15 to 20)
#    0.000    1.500    2.500    1.500    5.250    6.500 
#    2.250    0.625    0.000    0.000    0.000    0.000 
#    0.000    0.000    0.000    0.000    0.000    0.000 
#
# Total GULP energy -178545.621597 kJ/mol
# GULP energy per Si atom -5579.550675 kJ/mol
# Density = 2.150049 g / cm^3
# Si number density = 21.549536 Si / 1000 Ang^3
#
#
#
# Elastic Constant Matrix: (Units=GPa)
#
#
# Indices 1 2 3 4 5 6 
#
# 1 93.5147 26.0390 53.2784 0.0000 19.3874 0.0000
# 2 26.0390 102.9655 17.9015 0.0000 10.1273 0.0000
# 3 53.2784 17.9015 62.7791 0.0000 7.2735 0.0000
# 4 0.0000 0.0000 0.0000 23.1423 0.0000 -1.4441
# 5 19.3874 10.1273 7.2735 0.0000 37.9272 0.0000
# 6 0.0000 0.0000 0.0000 -1.4441 0.0000 5.8889
#
#
#
# Elastic Compliance Matrix: (Units=1/GPa)
#
#
# Indices 1 2 3 4 5 6 
#
# 1 0.023295 -0.001933 -0.018305 0.000000 -0.007881 0.000000
# 2 -0.001933 0.010565 -0.001186 0.000000 -0.001605 0.000000
# 3 -0.018305 -0.001186 0.031378 0.000000 0.003656 0.000000
# 4 0.000000 0.000000 0.000000 0.043882 0.000000 0.010761
# 5 -0.007881 -0.001605 0.003656 0.000000 0.030122 0.000000
# 6 0.000000 0.000000 0.000000 0.010761 0.000000 0.172449
#
#
# Mechanical properties :
#
#
# Convention : Reuss Voigt Hill
#
# Bulk Modulus (GPa) = 44.66382 50.41079 47.53730
# Shear Modulus (GPa) = 13.81201 24.19436 19.00319
#
# Velocity S-wave (km/s) = 2.53443 3.35435 2.97280
# Velocity P-wave (km/s) = 5.41623 6.20049 5.82158
#
# Compressibility (1/GPa) = 0.02238949
#
# Stress axis : x y z
#
# Youngs Moduli (GPa) = 42.92812 94.65222 31.86916
#
# Poissons Ratio (x) = 0.18300 0.58337
# Poissons Ratio (y) = 0.08300 0.03779
# Poissons Ratio (z) = 0.78580 0.11224
#
# Static dielectric constant tensor:
#      x y z
#    x 1.818280 0.000000 -0.045280 
#    y 0.000000 1.779660 0.000000 
#    z -0.045280 0.000000 1.812420 
# 
# From -- ./inp_files/123554.got.cif
#   From: 2010.05.17/outbox.cif.g08.bks.cpg/sg15_62_cif.got.tgz:123554.got - 2010.06.03 18:47:42.
