data_PCOD9276866
_publ_section_title
;
Structure prediction by ZEFSAII (Michael W. Deem and Ramdas Pophale) SiO2 
 PCOD9276866
Probable space group: C 2/C
;
_chemical_formula_sum "Si O2"
_cell_formula_units_Z 56
_cell_length_a 13.690578
_cell_length_b 12.204976
_cell_length_c 14.995721
_cell_angle_alpha 90.000000
_cell_angle_beta 88.396079
_cell_angle_gamma 90.000000
_cell_volume 2504.700925
_symmetry_space_group_name_H-M "C 2/C"
_symmetry_group_IT_number 15
_symmetry_cell_setting 'monoclinic'
loop_
_space_group_symop_operation_xyz
x,y,z
-x,y,1/2-z
-x,-y,-z
x,-y,1/2+z
1/2+x,1/2+y,z
1/2-x,1/2+y,1/2-z
1/2-x,1/2-y,-z
1/2+x,1/2-y,1/2+z
loop_
_atom_site_type_symbol
_atom_site_label
_atom_site_fract_x
_atom_site_fract_y
_atom_site_fract_z
Si Si1 0.758997 0.734655 0.720618
Si Si2 0.741758 0.464481 0.877836
Si Si3 0.513697 0.795201 0.972192
Si Si4 0.976283 0.524916 0.346474
Si Si5 0.942024 0.721459 0.833836
Si Si6 0.581601 0.360992 0.315237
Si Si7 0.296817 0.858431 0.039422
O O1 0.780352 0.850091 0.672180
O O2 0.832736 0.717164 0.799854
O O3 0.649125 0.723683 0.757706
O O4 0.778759 0.642580 0.644788
O O5 0.858295 0.478035 0.858229
O O6 0.661491 0.551243 0.848088
O O7 0.743593 0.453401 0.985366
O O8 0.538927 0.909648 0.919263
O O9 0.527643 0.702594 0.896983
O O10 0.560983 0.748133 0.061754
O O11 0.406430 0.832873 0.005682
O O12 0.996838 0.395961 0.341258
O O13 0.000000 0.574466 0.250000
O O14 0.000000 0.779517 0.750000
O O15 0.500000 0.407106 0.250000
O O16 0.250000 0.750000 0.000000
#
# Coordination Sequence:
#
# PCOD9276866 Si02
#       7
#     8   8   8   8   8   8   8
#     4  11  22  44  67  95 138 180 220 275 339 402
#     4  10  22  41  66  96 133 178 226 274 332 405
#     4  11  22  40  66  97 134 172 222 284 337 390
#     4  10  20  40  66 100 126 173 227 273 334 403
#     4  11  22  39  66  98 132 168 228 280 332 394
#     4  12  25  45  66 103 138 178 224 281 348 395
#     4   9  19  40  66  89 123 181 225 260 322 408
#
# _framework density 22.357959000000001
#
# number of rings (size 3 to 8) (size 9 to 14) (size 15 to 20)
#    0.000    1.429    2.857    4.286    0.000    1.143 
#    2.571    3.571    0.000    0.000    0.000    0.000 
#    0.000    0.000    0.000    0.000    0.000    0.000 
#
# Total GULP energy -155895.544357 kJ/mol
# GULP energy per Si atom -5567.698013 kJ/mol
# Density = 2.230707 g / cm^3
# Si number density = 22.357959 Si / 1000 Ang^3
#
#
#
# Elastic Constant Matrix: (Units=GPa)
#
#
# Indices 1 2 3 4 5 6 
#
# 1 88.3043 11.5024 52.3780 0.0000 25.4529 0.0000
# 2 11.5024 56.3144 31.0405 0.0000 13.3692 0.0000
# 3 52.3780 31.0405 167.9370 0.0000 14.9697 0.0000
# 4 0.0000 0.0000 0.0000 20.1092 0.0000 4.0529
# 5 25.4529 13.3692 14.9697 0.0000 29.8648 0.0000
# 6 0.0000 0.0000 0.0000 4.0529 0.0000 21.0795
#
#
#
# Elastic Compliance Matrix: (Units=1/GPa)
#
#
# Indices 1 2 3 4 5 6 
#
# 1 0.017832 0.002257 -0.004746 0.000000 -0.013829 0.000000
# 2 0.002257 0.021728 -0.003854 0.000000 -0.009718 0.000000
# 3 -0.004746 -0.003854 0.007990 0.000000 0.001765 0.000000
# 4 0.000000 0.000000 0.000000 0.051733 0.000000 -0.009947
# 5 -0.013829 -0.009718 0.001765 0.000000 0.048736 0.000000
# 6 0.000000 0.000000 0.000000 -0.009947 0.000000 0.049352
#
#
# Mechanical properties :
#
#
# Convention : Reuss Voigt Hill
#
# Bulk Modulus (GPa) = 28.68321 55.82196 42.25258
# Shear Modulus (GPa) = 22.55536 28.71969 25.63752
#
# Velocity S-wave (km/s) = 3.17965 3.58794 3.38995
# Velocity P-wave (km/s) = 5.13198 6.49507 5.85334
#
# Compressibility (1/GPa) = 0.03486361
#
# Stress axis : x y z
#
# Youngs Moduli (GPa) = 56.08027 46.02395 125.15979
#
# Poissons Ratio (x) = -0.10387 0.59401
# Poissons Ratio (y) = -0.12656 0.48232
# Poissons Ratio (z) = 0.26616 0.17736
#
# Static dielectric constant tensor:
#      x y z
#    x 1.418240 0.000000 -0.010950 
#    y 0.000000 1.828350 0.000000 
#    z -0.010950 0.000000 1.952690 
# 
# From -- ./inp_files/153466.got.cif
#   From: 2010.05.17/outbox.cif.g08.bks.cpg/sg15_77_cif.got.tgz:153466.got - 2010.06.03 18:47:42.
