data_PCOD9276232
_publ_section_title
;
Structure prediction by ZEFSAII (Michael W. Deem and Ramdas Pophale) SiO2 
 PCOD9276232
Probable space group: C 2/C
;
_chemical_formula_sum "Si O2"
_cell_formula_units_Z 56
_cell_length_a 23.549129
_cell_length_b 23.737247
_cell_length_c 8.977436
_cell_angle_alpha 90.000000
_cell_angle_beta 144.679278
_cell_angle_gamma 90.000000
_cell_volume 2901.349958
_symmetry_space_group_name_H-M "C 2/C"
_symmetry_group_IT_number 15
_symmetry_cell_setting 'monoclinic'
loop_
_space_group_symop_operation_xyz
x,y,z
-x,y,1/2-z
-x,-y,-z
x,-y,1/2+z
1/2+x,1/2+y,z
1/2-x,1/2+y,1/2-z
1/2-x,1/2-y,-z
1/2+x,1/2-y,1/2+z
loop_
_atom_site_type_symbol
_atom_site_label
_atom_site_fract_x
_atom_site_fract_y
_atom_site_fract_z
Si Si1 0.895455 0.065813 0.883091
Si Si2 0.342040 0.676311 0.635764
Si Si3 0.000000 0.716773 0.750000
Si Si4 0.368265 0.261841 0.732545
Si Si5 0.392990 0.623112 0.444048
Si Si6 0.500000 0.809007 0.750000
Si Si7 0.873436 0.308560 0.720279
Si Si8 0.623397 0.534166 0.338062
O O1 0.902582 0.131550 0.861400
O O2 0.849101 0.029488 0.648197
O O3 0.841255 0.054272 0.923686
O O4 0.006451 0.042545 0.114893
O O5 0.332186 0.649250 0.451212
O O6 0.238568 0.679292 0.495255
O O7 0.380914 0.740177 0.708827
O O8 0.918498 0.748908 0.679031
O O9 0.935357 0.680852 0.499398
O O10 0.250000 0.250000 0.500000
O O11 0.393193 0.325836 0.827287
O O12 0.428960 0.225633 0.985163
O O13 0.356801 0.570637 0.268930
O O14 0.500000 0.612071 0.750000
O O15 0.423938 0.840113 0.692807
#
# Coordination Sequence:
#
# PCOD9276232 Si02
#       8
#     8   8   4   8   8   4   8   8
#     4  10  21  35  51  76 110 144 192 228 271 332
#     4  11  21  34  53  77 110 152 193 231 279 337
#     4  10  22  34  50  76 109 143 194 238 270 346
#     4  11  22  35  53  76 110 149 191 236 287 342
#     4  12  20  34  51  75 110 151 188 229 279 333
#     4  10  20  40  50  76 111 147 194 238 286 342
#     4  10  22  35  54  77 111 152 193 235 286 335
#     4  10  22  33  52  77 106 150 187 228 274 337
#
# _framework density 19.301359000000001
#
# number of rings (size 3 to 8) (size 9 to 14) (size 15 to 20)
#    0.000    1.429    3.571    2.571    6.000    0.000 
#    0.000    0.000    0.000    0.000    0.000    0.000 
#    0.000   38.857    0.000    0.000    0.000    0.000 
#
# Total GULP energy -155914.203541 kJ/mol
# GULP energy per Si atom -5568.364412 kJ/mol
# Density = 1.925743 g / cm^3
# Si number density = 19.301359 Si / 1000 Ang^3
#
#
#
# Elastic Constant Matrix: (Units=GPa)
#
#
# Indices 1 2 3 4 5 6 
#
# 1 123.7513 10.0312 38.1671 0.0000 -6.0125 0.0000
# 2 10.0312 45.1516 3.2499 0.0000 -5.6229 0.0000
# 3 38.1671 3.2499 47.8400 0.0000 0.6616 0.0000
# 4 0.0000 0.0000 0.0000 5.1857 0.0000 0.0288
# 5 -6.0125 -5.6229 0.6616 0.0000 33.6396 0.0000
# 6 0.0000 0.0000 0.0000 0.0288 0.0000 13.7530
#
#
#
# Elastic Compliance Matrix: (Units=1/GPa)
#
#
# Indices 1 2 3 4 5 6 
#
# 1 0.010975 -0.001581 -0.008674 0.000000 0.001868 0.000000
# 2 -0.001581 0.022968 -0.000348 0.000000 0.003563 0.000000
# 3 -0.008674 -0.000348 0.027877 0.000000 -0.002157 0.000000
# 4 0.000000 0.000000 0.000000 0.192841 0.000000 -0.000404
# 5 0.001868 0.003563 -0.002157 0.000000 0.030699 0.000000
# 6 0.000000 0.000000 0.000000 -0.000404 0.000000 0.072712
#
#
# Mechanical properties :
#
#
# Convention : Reuss Voigt Hill
#
# Bulk Modulus (GPa) = 24.62301 35.51548 30.06925
# Shear Modulus (GPa) = 12.72860 21.53530 17.13195
#
# Velocity S-wave (km/s) = 2.57079 3.34389 2.98250
# Velocity P-wave (km/s) = 4.64724 5.77488 5.24147
#
# Compressibility (1/GPa) = 0.04061242
#
# Stress axis : x y z
#
# Youngs Moduli (GPa) = 91.11633 43.53935 35.87191
#
# Poissons Ratio (x) = 0.06885 0.31117
# Poissons Ratio (y) = 0.14408 0.01248
# Poissons Ratio (z) = 0.79037 0.01515
#
# Static dielectric constant tensor:
#      x y z
#    x 1.781890 0.000000 -0.087630 
#    y 0.000000 1.703570 0.000000 
#    z -0.087630 0.000000 1.838520 
# 
# From -- ./inp_files/63880.got.cif
#   From: 2010.05.17/outbox.cif.g08.bks.cpg/sg15_32_cif.got.tgz:63880.got - 2010.06.03 18:47:42.
