data_PCOD9276705
_publ_section_title
;
Structure prediction by ZEFSAII (Michael W. Deem and Ramdas Pophale) SiO2 
 PCOD9276705
Probable space group: C 2/C
;
_chemical_formula_sum "Si O2"
_cell_formula_units_Z 60
_cell_length_a 23.099570
_cell_length_b 25.300748
_cell_length_c 13.040350
_cell_angle_alpha 90.000000
_cell_angle_beta 158.286201
_cell_angle_gamma 90.000000
_cell_volume 2819.639727
_symmetry_space_group_name_H-M "C 2/C"
_symmetry_group_IT_number 15
_symmetry_cell_setting 'monoclinic'
loop_
_space_group_symop_operation_xyz
x,y,z
-x,y,1/2-z
-x,-y,-z
x,-y,1/2+z
1/2+x,1/2+y,z
1/2-x,1/2+y,1/2-z
1/2-x,1/2-y,-z
1/2+x,1/2-y,1/2+z
loop_
_atom_site_type_symbol
_atom_site_label
_atom_site_fract_x
_atom_site_fract_y
_atom_site_fract_z
Si Si1 0.664683 0.488232 0.070102
Si Si2 0.500000 0.177484 0.750000
Si Si3 0.539766 0.136322 0.161543
Si Si4 0.404100 0.216824 0.811926
Si Si5 0.269038 0.914754 0.876810
Si Si6 0.406427 0.950174 0.307512
Si Si7 0.098030 0.166016 0.233993
Si Si8 0.272988 0.383556 0.216577
O O1 0.728408 0.542697 0.223583
O O2 0.751232 0.457876 0.119205
O O3 0.672265 0.443406 0.170611
O O4 0.500000 0.500772 0.750000
O O5 0.458542 0.210219 0.783132
O O6 0.362370 0.136816 0.493960
O O7 0.699928 0.123404 0.482941
O O8 0.526668 0.194227 0.093990
O O9 0.506740 0.099078 0.010420
O O10 0.384957 0.127529 0.977357
O O11 0.243992 0.180397 0.551419
O O12 0.391857 0.278994 0.811722
O O13 0.137060 0.885635 0.729589
O O14 0.370774 0.945800 0.129863
O O15 0.500000 0.000000 0.500000
O O16 0.922526 0.154128 0.984748
#
# Coordination Sequence:
#
# PCOD9276705 Si02
#       8
#     8   4   8   8   8   8   8   8
#     4  11  25  39  60  94 128 165 211 258 326 387
#     4  10  20  40  64  92 122 160 212 268 306 382
#     4  10  21  40  61  93 127 160 217 259 312 386
#     4  10  22  40  65  95 122 168 220 261 322 373
#     4  11  22  41  60  94 127 164 214 265 315 386
#     4  11  21  37  64  86 121 171 205 259 313 381
#     4  10  22  40  64  90 126 168 210 270 316 381
#     4  10  23  39  63  93 125 167 209 265 315 382
#
# _framework density 21.279313999999999
#
# number of rings (size 3 to 8) (size 9 to 14) (size 15 to 20)
#    0.000    1.600    2.667    2.400    1.867    9.067 
#    0.000    0.000    2.933    0.000    0.000    0.000 
#    0.000    0.000    0.000    0.000    0.000    0.000 
#
# Total GULP energy -167141.872950 kJ/mol
# GULP energy per Si atom -5571.395765 kJ/mol
# Density = 2.123088 g / cm^3
# Si number density = 21.279314 Si / 1000 Ang^3
#
#
#
# Elastic Constant Matrix: (Units=GPa)
#
#
# Indices 1 2 3 4 5 6 
#
# 1 53.3277 5.5149 27.0852 0.0000 -3.8308 0.0000
# 2 5.5149 92.6146 21.3012 0.0000 -9.1763 0.0000
# 3 27.0852 21.3012 99.7359 0.0000 -11.7123 0.0000
# 4 0.0000 0.0000 0.0000 31.3219 0.0000 -0.0341
# 5 -3.8308 -9.1763 -11.7123 0.0000 30.8585 0.0000
# 6 0.0000 0.0000 0.0000 -0.0341 0.0000 19.9682
#
#
#
# Elastic Compliance Matrix: (Units=1/GPa)
#
#
# Indices 1 2 3 4 5 6 
#
# 1 0.021760 0.000105 -0.005873 0.000000 0.000504 0.000000
# 2 0.000105 0.011554 -0.002189 0.000000 0.002618 0.000000
# 3 -0.005873 -0.002189 0.012483 0.000000 0.003358 0.000000
# 4 0.000000 0.000000 0.000000 0.031927 0.000000 0.000055
# 5 0.000504 0.002618 0.003358 0.000000 0.034522 0.000000
# 6 0.000000 0.000000 0.000000 0.000055 0.000000 0.050080
#
#
# Mechanical properties :
#
#
# Convention : Reuss Voigt Hill
#
# Bulk Modulus (GPa) = 33.46247 39.27564 36.36906
# Shear Modulus (GPa) = 26.56757 29.21484 27.89121
#
# Velocity S-wave (km/s) = 3.53727 3.70932 3.62431
# Velocity P-wave (km/s) = 5.69583 6.06981 5.88579
#
# Compressibility (1/GPa) = 0.02988422
#
# Stress axis : x y z
#
# Youngs Moduli (GPa) = 45.95578 86.55019 80.10822
#
# Poissons Ratio (x) = -0.00907 0.47045
# Poissons Ratio (y) = -0.00482 0.17533
# Poissons Ratio (z) = 0.26988 0.18943
#
# Static dielectric constant tensor:
#      x y z
#    x 1.738870 0.000000 0.026840 
#    y 0.000000 2.119880 0.000000 
#    z 0.026840 0.000000 1.668940 
# 
# From -- ./inp_files/179285.got.cif
#   From: 2010.05.17/outbox.cif.g08.bks.cpg/sg15_90_cif.got.tgz:179285.got - 2010.06.03 18:47:42.
