data_PCOD9276725
_publ_section_title
;
Structure prediction by ZEFSAII (Michael W. Deem and Ramdas Pophale) SiO2 
 PCOD9276725
Probable space group: C 2/C
;
_chemical_formula_sum "Si O2"
_cell_formula_units_Z 64
_cell_length_a 26.609299
_cell_length_b 21.517508
_cell_length_c 18.144755
_cell_angle_alpha 90.000000
_cell_angle_beta 162.592179
_cell_angle_gamma 90.000000
_cell_volume 3108.107807
_symmetry_space_group_name_H-M "C 2/C"
_symmetry_group_IT_number 15
_symmetry_cell_setting 'monoclinic'
loop_
_space_group_symop_operation_xyz
x,y,z
-x,y,1/2-z
-x,-y,-z
x,-y,1/2+z
1/2+x,1/2+y,z
1/2-x,1/2+y,1/2-z
1/2-x,1/2-y,-z
1/2+x,1/2-y,1/2+z
loop_
_atom_site_type_symbol
_atom_site_label
_atom_site_fract_x
_atom_site_fract_y
_atom_site_fract_z
Si Si1 0.915846 0.250882 0.280406
Si Si2 0.990071 0.798299 0.037771
Si Si3 0.092485 0.067638 0.125981
Si Si4 0.662182 0.895950 0.136745
Si Si5 0.446754 0.980168 0.090604
Si Si6 0.526893 0.622559 0.186625
Si Si7 0.630610 0.882997 0.256036
Si Si8 0.853404 0.273393 0.484802
O O1 0.023639 0.194785 0.397798
O O2 0.964680 0.322540 0.345253
O O3 0.885040 0.230197 0.321759
O O4 0.750000 0.250000 0.000000
O O5 0.174976 0.769415 0.278390
O O6 0.999479 0.873558 0.041662
O O7 0.906128 0.777962 0.997115
O O8 0.269814 0.055212 0.336654
O O9 0.126467 0.095005 0.255346
O O10 0.000000 0.000000 0.000000
O O11 0.578992 0.884141 0.098923
O O12 0.657520 0.836613 0.077783
O O13 0.851948 0.912892 0.428809
O O14 0.580762 0.951472 0.978511
O O15 0.500000 0.981180 0.250000
O O16 0.577617 0.944312 0.223431
O O17 0.665835 0.622890 0.445912
O O18 0.000000 0.276116 0.750000
#
# Coordination Sequence:
#
# PCOD9276725 Si02
#       8
#     8   8   8   8   8   8   8   8
#     4   9  19  37  64 101 129 162 206 259 340 399
#     4  11  24  44  69  99 133 172 220 277 333 390
#     4  11  21  41  68  89 123 171 219 260 324 397
#     4  12  23  41  65  91 131 174 222 268 329 395
#     4  12  25  40  62  92 130 172 220 272 326 391
#     4  10  20  40  64  93 124 166 206 262 331 395
#     4  11  23  40  62 100 131 164 214 276 335 400
#     4  12  25  45  69  96 131 178 228 276 325 389
#
# _framework density 20.591307
#
# number of rings (size 3 to 8) (size 9 to 14) (size 15 to 20)
#    0.000    1.000    6.250    1.500    1.750    0.000 
#    0.000    0.625    2.750    0.000    0.000    0.000 
#    0.000    0.000    0.000    0.000    0.000    0.000 
#
# Total GULP energy -178353.298905 kJ/mol
# GULP energy per Si atom -5573.540591 kJ/mol
# Density = 2.054444 g / cm^3
# Si number density = 20.591307 Si / 1000 Ang^3
#
#
#
# Elastic Constant Matrix: (Units=GPa)
#
#
# Indices 1 2 3 4 5 6 
#
# 1 50.7519 12.4681 33.7961 0.0000 -11.9069 0.0000
# 2 12.4681 99.3755 26.4141 0.0000 5.2542 0.0000
# 3 33.7961 26.4141 89.4360 0.0000 -5.7399 0.0000
# 4 0.0000 0.0000 0.0000 28.0283 0.0000 -4.8408
# 5 -11.9069 5.2542 -5.7399 0.0000 32.9168 0.0000
# 6 0.0000 0.0000 0.0000 -4.8408 0.0000 24.6973
#
#
#
# Elastic Compliance Matrix: (Units=1/GPa)
#
#
# Indices 1 2 3 4 5 6 
#
# 1 0.028706 -0.001455 -0.009847 0.000000 0.008899 0.000000
# 2 -0.001455 0.011174 -0.002931 0.000000 -0.002821 0.000000
# 3 -0.009847 -0.002931 0.015745 0.000000 -0.000348 0.000000
# 4 0.000000 0.000000 0.000000 0.036928 0.000000 0.007238
# 5 0.008899 -0.002821 -0.000348 0.000000 0.033988 0.000000
# 6 0.000000 0.000000 0.000000 0.007238 0.000000 0.041909
#
#
# Mechanical properties :
#
#
# Convention : Reuss Voigt Hill
#
# Bulk Modulus (GPa) = 36.81968 42.76889 39.79428
# Shear Modulus (GPa) = 24.27551 28.25416 26.26484
#
# Velocity S-wave (km/s) = 3.43727 3.70826 3.57533
# Velocity P-wave (km/s) = 5.80285 6.25703 6.03421
#
# Compressibility (1/GPa) = 0.02715939
#
# Stress axis : x y z
#
# Youngs Moduli (GPa) = 34.83620 89.49614 63.51061
#
# Poissons Ratio (x) = 0.13020 0.62536
# Poissons Ratio (y) = 0.05068 0.18617
# Poissons Ratio (z) = 0.34302 0.26234
#
# Static dielectric constant tensor:
#      x y z
#    x 1.783500 0.000000 0.036860 
#    y 0.000000 1.765740 0.000000 
#    z 0.036860 0.000000 1.749590 
# 
# From -- ./inp_files/223158.got.cif
#   From: 2010.05.17/outbox.cif.g08.bks.cpg/sg15_112_cif.got.tgz:223158.got - 2010.06.03 18:47:42.
