data_PCOD9276716
_publ_section_title
;
Structure prediction by ZEFSAII (Michael W. Deem and Ramdas Pophale) SiO2 
 PCOD9276716
Probable space group: C 2/C
;
_chemical_formula_sum "Si O2"
_cell_formula_units_Z 64
_cell_length_a 7.844228
_cell_length_b 13.928422
_cell_length_c 29.078311
_cell_angle_alpha 90.000000
_cell_angle_beta 55.754643
_cell_angle_gamma 90.000000
_cell_volume 2626.245234
_symmetry_space_group_name_H-M "C 2/C"
_symmetry_group_IT_number 15
_symmetry_cell_setting 'monoclinic'
loop_
_space_group_symop_operation_xyz
x,y,z
-x,y,1/2-z
-x,-y,-z
x,-y,1/2+z
1/2+x,1/2+y,z
1/2-x,1/2+y,1/2-z
1/2-x,1/2-y,-z
1/2+x,1/2-y,1/2+z
loop_
_atom_site_type_symbol
_atom_site_label
_atom_site_fract_x
_atom_site_fract_y
_atom_site_fract_z
Si Si1 0.071045 0.144511 0.901237
Si Si2 0.492958 0.368328 0.983391
Si Si3 0.091027 0.650150 0.961194
Si Si4 0.944995 0.452738 0.938073
Si Si5 0.994010 0.356555 0.304311
Si Si6 0.514911 0.071292 0.329926
Si Si7 0.627230 0.335304 0.778064
Si Si8 0.447381 0.428922 0.619670
O O1 0.274394 0.192597 0.849984
O O2 0.836812 0.174722 0.927563
O O3 0.073375 0.042270 0.875369
O O4 0.105400 0.134049 0.950916
O O5 0.503805 0.256161 0.967562
O O6 0.702700 0.431264 0.962005
O O7 0.414713 0.412143 0.946828
O O8 0.021280 0.562044 0.938177
O O9 0.027660 0.610263 0.020753
O O10 0.060183 0.410033 0.876406
O O11 0.000000 0.382767 0.250000
O O12 0.015961 0.455314 0.327685
O O13 0.161723 0.274822 0.287702
O O14 0.666878 0.110955 0.268659
O O15 0.284011 0.108846 0.355607
O O16 0.500000 0.332333 0.750000
O O17 0.509309 0.387349 0.837311
#
# Coordination Sequence:
#
# PCOD9276716 Si02
#       8
#     8   8   8   8   8   8   8   8
#     4  10  20  40  64  92 131 178 211 270 340 404
#     4  10  21  39  65  97 136 179 222 268 338 410
#     4  10  21  37  64 100 136 174 225 266 340 398
#     4   9  20  37  62  98 134 172 217 280 328 409
#     4  10  23  42  64  88 128 170 222 275 337 396
#     4  10  21  43  69  85 129 175 215 278 339 397
#     4  11  25  41  63  97 125 166 228 280 336 403
#     4  10  22  41  65  92 131 171 219 266 343 401
#
# _framework density 24.369392000000001
#
# number of rings (size 3 to 8) (size 9 to 14) (size 15 to 20)
#    0.000    2.000    0.000    3.750    3.500    7.000 
#    4.500    1.875    0.000    0.000    0.000    0.000 
#    0.000    0.000    0.000    0.000    0.000    0.000 
#
# Total GULP energy -178589.997778 kJ/mol
# GULP energy per Si atom -5580.937431 kJ/mol
# Density = 2.431393 g / cm^3
# Si number density = 24.369392 Si / 1000 Ang^3
#
#
#
# Elastic Constant Matrix: (Units=GPa)
#
#
# Indices 1 2 3 4 5 6 
#
# 1 82.1699 8.8574 44.8183 0.0000 -7.4242 -0.0001
# 2 8.8574 93.7185 8.8320 0.0000 -5.3623 -0.0001
# 3 44.8183 8.8320 138.2865 0.0000 15.4905 -0.0002
# 4 0.0000 0.0000 0.0000 -13.0935 -0.0001 -2.1076
# 5 -7.4242 -5.3623 15.4905 -0.0001 32.5619 0.0001
# 6 -0.0001 -0.0001 -0.0002 -2.1076 0.0001 15.7087
#
#
#
# Elastic Compliance Matrix: (Units=1/GPa)
#
#
# Indices 1 2 3 4 5 6 
#
# 1 0.016002 -0.000598 -0.005858 0.000000 0.006337 0.000000
# 2 -0.000598 0.010910 -0.000728 0.000000 0.002007 0.000000
# 3 -0.005858 -0.000728 0.009865 0.000000 -0.006149 0.000000
# 4 0.000000 0.000000 0.000000 -0.074759 0.000000 -0.010030
# 5 0.006337 0.002007 -0.006149 0.000000 0.035411 0.000000
# 6 0.000000 0.000000 0.000000 -0.010030 0.000000 0.062313
#
#
# Mechanical properties :
#
#
# Convention : Reuss Voigt Hill
#
# Bulk Modulus (GPa) = 44.62228 48.79891 46.71059
# Shear Modulus (GPa) = 61.29016 23.81323 42.55170
#
# Velocity S-wave (km/s) = 5.02046 3.12938 4.18318
# Velocity P-wave (km/s) = 7.20814 5.75547 6.52238
#
# Compressibility (1/GPa) = 0.02241033
#
# Stress axis : x y z
#
# Youngs Moduli (GPa) = 62.49238 91.65772 101.36737
#
# Poissons Ratio (x) = 0.05479 0.59379
# Poissons Ratio (y) = 0.03735 0.07378
# Poissons Ratio (z) = 0.36607 0.06671
#
# Static dielectric constant tensor:
#      x y z
#    x 2.041230 0.000000 -0.070130 
#    y 0.000000 1.968130 0.000000 
#    z -0.070130 0.000000 1.929090 
# 
# From -- ./inp_files/308240.got.cif
#   From: 2010.05.17/outbox.cif.g08.bks.cpg/sg15_155_cif.got.tgz:308240.got - 2010.06.03 18:47:42.
