data_PCOD9276602
_publ_section_title
;
Structure prediction by ZEFSAII (Michael W. Deem and Ramdas Pophale) SiO2 
 PCOD9276602
Probable space group: C 2/C
;
_chemical_formula_sum "Si O2"
_cell_formula_units_Z 40
_cell_length_a 11.045178
_cell_length_b 22.352232
_cell_length_c 22.564047
_cell_angle_alpha 90.000000
_cell_angle_beta 161.125517
_cell_angle_gamma 90.000000
_cell_volume 1802.102886
_symmetry_space_group_name_H-M "C 2/C"
_symmetry_group_IT_number 15
_symmetry_cell_setting 'monoclinic'
loop_
_space_group_symop_operation_xyz
x,y,z
-x,y,1/2-z
-x,-y,-z
x,-y,1/2+z
1/2+x,1/2+y,z
1/2-x,1/2+y,1/2-z
1/2-x,1/2-y,-z
1/2+x,1/2-y,1/2+z
loop_
_atom_site_type_symbol
_atom_site_label
_atom_site_fract_x
_atom_site_fract_y
_atom_site_fract_z
Si Si1 0.804822 0.531427 0.525597
Si Si2 0.350302 0.567807 0.869776
Si Si3 0.873615 0.801885 0.383765
Si Si4 0.865800 0.814597 0.121859
Si Si5 0.202922 0.421766 0.664579
O O1 0.635116 0.486256 0.496079
O O2 0.467906 0.570967 0.344985
O O3 0.145837 0.568398 0.710537
O O4 0.971265 0.483972 0.555639
O O5 0.524897 0.631326 0.967160
O O6 0.000000 0.559521 0.750000
O O7 0.500000 0.795645 0.250000
O O8 0.842829 0.802504 0.297285
O O9 0.143875 0.747831 0.524847
O O10 0.000000 0.831386 0.250000
O O11 0.577678 0.866186 0.967081
O O12 0.500000 0.415905 0.750000
#
# Coordination Sequence:
#
# PCOD9276602 Si02
#       5
#     8   8   8   8   8
#     4  10  22  39  62  95 129 170 208 267 313 395
#     4  10  20  40  63  93 128 169 213 262 317 387
#     4  10  23  47  66  96 130 167 221 265 326 387
#     4  11  25  45  69  97 130 169 219 274 322 386
#     4  11  23  39  63  94 129 169 212 262 327 383
#
# _framework density 22.196292
#
# number of rings (size 3 to 8) (size 9 to 14) (size 15 to 20)
#    0.000    1.600    2.000    1.800    2.800    1.600 
#   14.400    1.000    0.000    0.000    0.000    0.000 
#    0.000    0.000    0.000    0.000    0.000    0.000 
#
# Total GULP energy -111566.544577 kJ/mol
# GULP energy per Si atom -5578.327229 kJ/mol
# Density = 2.214577 g / cm^3
# Si number density = 22.196292 Si / 1000 Ang^3
#
#
#
# Elastic Constant Matrix: (Units=GPa)
#
#
# Indices 1 2 3 4 5 6 
#
# 1 137.3922 15.2947 14.5111 -0.0992 39.0334 0.0633
# 2 15.2947 132.8698 56.0146 -0.3343 -2.3772 0.2575
# 3 14.5111 56.0146 75.3650 -1.8814 -1.9200 1.1164
# 4 -0.0992 -0.3343 -1.8814 -6.6320 -0.1514 45.1345
# 5 39.0334 -2.3772 -1.9200 -0.1514 37.5407 0.1506
# 6 0.0633 0.2575 1.1164 45.1345 0.1506 -22.0246
#
#
#
# Elastic Compliance Matrix: (Units=1/GPa)
#
#
# Indices 1 2 3 4 5 6 
#
# 1 0.010769 -0.000651 -0.001876 0.000027 -0.011334 -0.000093
# 2 -0.000651 0.011001 -0.008022 0.000012 0.000964 -0.000249
# 3 -0.001876 -0.008022 0.019642 -0.000079 0.002444 0.000752
# 4 0.000027 0.000012 -0.000079 0.011647 -0.000080 0.023864
# 5 -0.011334 0.000964 0.002444 -0.000080 0.038607 0.000202
# 6 -0.000093 -0.000249 0.000752 0.023864 0.000202 0.003537
#
#
# Mechanical properties :
#
#
# Convention : Reuss Voigt Hill
#
# Bulk Modulus (GPa) = 49.23151 57.47421 53.35286
# Shear Modulus (GPa) = 40.62608 19.09726 29.86167
#
# Velocity S-wave (km/s) = 4.28285 2.93641 3.67187
# Velocity P-wave (km/s) = 6.83267 6.11935 6.48582
#
# Compressibility (1/GPa) = 0.02031219
#
# Stress axis : x y z
#
# Youngs Moduli (GPa) = 92.85751 90.90121 50.91178
#
# Poissons Ratio (x) = 0.05920 0.09552
# Poissons Ratio (y) = 0.06047 0.40844
# Poissons Ratio (z) = 0.17422 0.72925
#
# Static dielectric constant tensor:
#      x y z
#    x 1.917540 -0.000050 -0.016490 
#    y -0.000050 1.794670 -0.000130 
#    z -0.016490 -0.000130 1.781550 
# 
# From -- ./inp_files/148183.got.cif
#   From: 2010.05.17/outbox.cif.g08.bks.cpg/sg15_75_cif.got.tgz:148183.got - 2010.06.03 18:47:42.
