data_PCOD9276863
_publ_section_title
;
Structure prediction by ZEFSAII (Michael W. Deem and Ramdas Pophale) SiO2 
 PCOD9276863
Probable space group: C 2/C
;
_chemical_formula_sum "Si O2"
_cell_formula_units_Z 56
_cell_length_a 9.154366
_cell_length_b 17.651979
_cell_length_c 17.659362
_cell_angle_alpha 90.000000
_cell_angle_beta 108.572891
_cell_angle_gamma 90.000000
_cell_volume 2705.004618
_symmetry_space_group_name_H-M "C 2/C"
_symmetry_group_IT_number 15
_symmetry_cell_setting 'monoclinic'
loop_
_space_group_symop_operation_xyz
x,y,z
-x,y,1/2-z
-x,-y,-z
x,-y,1/2+z
1/2+x,1/2+y,z
1/2-x,1/2+y,1/2-z
1/2-x,1/2-y,-z
1/2+x,1/2-y,1/2+z
loop_
_atom_site_type_symbol
_atom_site_label
_atom_site_fract_x
_atom_site_fract_y
_atom_site_fract_z
Si Si1 0.222409 0.570364 0.627153
Si Si2 0.855950 0.216764 0.901890
Si Si3 0.785466 0.358275 0.979857
Si Si4 0.500000 0.000000 0.500000
Si Si5 0.686241 0.663839 0.995305
Si Si6 0.145265 0.704211 0.726463
Si Si7 0.565270 0.636140 0.137686
Si Si8 0.000000 0.983139 0.750000
O O1 0.224170 0.601884 0.540161
O O2 0.189731 0.643726 0.671279
O O3 0.377888 0.532857 0.683159
O O4 0.085585 0.510776 0.598876
O O5 0.877621 0.300272 0.940873
O O6 0.784427 0.217980 0.807566
O O7 0.736345 0.179413 0.941423
O O8 0.014412 0.170995 0.932359
O O9 0.613632 0.366711 0.917688
O O10 0.872742 0.435826 0.000428
O O11 0.667042 0.635821 0.078215
O O12 0.750000 0.750000 0.000000
O O13 0.095900 0.783281 0.681364
O O14 0.000000 0.675215 0.750000
O O15 0.585865 0.570669 0.203082
#
# Coordination Sequence:
#
# PCOD9276863 Si02
#       8
#     8   8   8   4   8   8   8   4
#     4  12  27  44  68 100 141 180 228 293 354 415
#     4  10  21  37  71  97 126 170 238 273 336 406
#     4  10  20  40  65  99 126 179 221 279 331 421
#     4  12  24  42  64  92 138 176 224 278 350 410
#     4  11  23  44  67  98 134 182 230 283 340 421
#     4  12  22  42  72 101 131 178 235 292 339 416
#     4  11  22  43  73  96 137 184 233 277 347 424
#     4  12  24  48  68 106 142 178 224 302 364 404
#
# _framework density 20.702366999999999
#
# number of rings (size 3 to 8) (size 9 to 14) (size 15 to 20)
#    0.000    0.857    5.000    2.571    2.000    0.571 
#    5.143    0.000    0.000    0.000    0.000    0.000 
#    0.000    0.000    0.000    0.000    0.000    0.000 
#
# Total GULP energy -156047.286391 kJ/mol
# GULP energy per Si atom -5573.117371 kJ/mol
# Density = 2.065525 g / cm^3
# Si number density = 20.702367 Si / 1000 Ang^3
#
#
#
# Elastic Constant Matrix: (Units=GPa)
#
#
# Indices 1 2 3 4 5 6 
#
# 1 20.6332 18.6411 26.5741 0.0000 -7.2512 0.0000
# 2 18.6411 83.9324 25.9233 0.0000 -7.2404 0.0000
# 3 26.5741 25.9233 111.5548 0.0000 1.7220 0.0000
# 4 0.0000 0.0000 0.0000 18.2857 0.0000 -15.2838
# 5 -7.2512 -7.2404 1.7220 0.0000 40.0362 0.0000
# 6 0.0000 0.0000 0.0000 -15.2838 0.0000 12.1499
#
#
#
# Elastic Compliance Matrix: (Units=1/GPa)
#
#
# Indices 1 2 3 4 5 6 
#
# 1 0.088871 -0.012790 -0.018423 0.000000 0.014575 0.000000
# 2 -0.012790 0.014921 -0.000427 0.000000 0.000400 0.000000
# 3 -0.018423 -0.000427 0.013514 0.000000 -0.003995 0.000000
# 4 0.000000 0.000000 0.000000 -1.063411 0.000000 -1.337706
# 5 0.014575 0.000400 -0.003995 0.000000 0.027861 0.000000
# 6 0.000000 0.000000 0.000000 -1.337706 0.000000 -1.600446
#
#
# Mechanical properties :
#
#
# Convention : Reuss Voigt Hill
#
# Bulk Modulus (GPa) = 18.50977 39.82193 29.16585
# Shear Modulus (GPa) = -2.05137 23.75981 10.85422
#
# Velocity S-wave (km/s) = -0.99651 3.39143 2.29224
# Velocity P-wave (km/s) = 2.76338 5.88327 4.59615
#
# Compressibility (1/GPa) = 0.05402554
#
# Stress axis : x y z
#
# Youngs Moduli (GPa) = 11.25221 67.01787 73.99863
#
# Poissons Ratio (x) = 0.85719 1.36330
# Poissons Ratio (y) = 0.14392 0.03158
# Poissons Ratio (z) = 0.20730 0.02860
#
# Static dielectric constant tensor:
#      x y z
#    x 1.787780 0.000000 0.103180 
#    y 0.000000 1.961820 0.000000 
#    z 0.103180 0.000000 1.742380 
# 
# From -- ./inp_files/191099.got.cif
#   From: 2010.05.17/outbox.cif.g08.bks.cpg/sg15_96_cif.got.tgz:191099.got - 2010.06.03 18:47:42.
