data_PCOD9276148
_publ_section_title
;
Structure prediction by ZEFSAII (Michael W. Deem and Ramdas Pophale) SiO2 
 PCOD9276148
Probable space group: C 2/C
;
_chemical_formula_sum "Si O2"
_cell_formula_units_Z 60
_cell_length_a 16.211666
_cell_length_b 18.098527
_cell_length_c 16.717455
_cell_angle_alpha 90.000000
_cell_angle_beta 32.870248
_cell_angle_gamma 90.000000
_cell_volume 2662.144224
_symmetry_space_group_name_H-M "C 2/C"
_symmetry_group_IT_number 15
_symmetry_cell_setting 'monoclinic'
loop_
_space_group_symop_operation_xyz
x,y,z
-x,y,1/2-z
-x,-y,-z
x,-y,1/2+z
1/2+x,1/2+y,z
1/2-x,1/2+y,1/2-z
1/2-x,1/2-y,-z
1/2+x,1/2-y,1/2+z
loop_
_atom_site_type_symbol
_atom_site_label
_atom_site_fract_x
_atom_site_fract_y
_atom_site_fract_z
Si Si1 0.697220 0.025742 0.002693
Si Si2 0.425483 0.907424 0.619464
Si Si3 0.633400 0.524431 0.285829
Si Si4 0.543829 0.384977 0.450525
Si Si5 0.795414 0.776308 0.653382
Si Si6 0.500000 0.084250 0.750000
Si Si7 0.320926 0.684261 0.892031
Si Si8 0.609402 0.842454 0.319090
O O1 0.545311 0.051148 0.078032
O O2 0.641251 0.970647 0.116530
O O3 0.767513 0.104843 0.966853
O O4 0.814881 0.985104 0.847266
O O5 0.292406 0.963788 0.703459
O O6 0.340160 0.835787 0.726972
O O7 0.511573 0.878704 0.470355
O O8 0.544764 0.451944 0.386887
O O9 0.533491 0.590497 0.402888
O O10 0.440657 0.319327 0.499844
O O11 0.718359 0.370198 0.324078
O O12 0.741177 0.705876 0.645759
O O13 0.862370 0.743056 0.681125
O O14 0.470977 0.134804 0.696924
O O15 0.500000 0.687880 0.750000
O O16 0.250000 0.750000 0.000000
#
# Coordination Sequence:
#
# PCOD9276148 Si02
#       8
#     8   8   8   8   8   4   8   8
#     4  12  24  44  70  99 147 185 232 297 360 438
#     4  11  21  41  76 100 133 187 242 286 363 428
#     4  10  20  39  69 105 134 174 236 296 352 420
#     4  10  22  39  72 106 132 182 241 296 350 431
#     4  11  25  45  73 102 144 192 239 291 365 438
#     4  12  30  44  70 112 144 194 246 306 360 412
#     4  12  29  44  66 106 149 182 229 298 374 442
#     4  12  23  46  71 100 141 190 246 296 349 433
#
# _framework density 22.538224
#
# number of rings (size 3 to 8) (size 9 to 14) (size 15 to 20)
#    0.000    0.800    4.000    2.800    6.533    1.067 
#    0.000    2.667    0.000    0.000    0.000    0.000 
#    0.000    0.000    0.000    0.000    0.000    0.000 
#
# Total GULP energy -167815.925561 kJ/mol
# GULP energy per Si atom -5593.864185 kJ/mol
# Density = 2.248693 g / cm^3
# Si number density = 22.538224 Si / 1000 Ang^3
#
#
#
# Elastic Constant Matrix: (Units=GPa)
#
#
# Indices 1 2 3 4 5 6 
#
# 1 66.7068 21.5128 20.3649 0.0036 -5.3054 -0.0019
# 2 21.5128 83.7893 23.8928 0.0053 -3.1636 -0.0025
# 3 20.3649 23.8928 115.3965 0.0062 -5.9376 -0.0037
# 4 0.0036 0.0053 0.0062 34.2924 -0.0040 -10.1288
# 5 -5.3054 -3.1636 -5.9376 -0.0040 34.3471 0.0021
# 6 -0.0019 -0.0025 -0.0037 -10.1288 0.0021 32.6888
#
#
#
# Elastic Compliance Matrix: (Units=1/GPa)
#
#
# Indices 1 2 3 4 5 6 
#
# 1 0.016982 -0.003678 -0.002137 -0.000001 0.001915 0.000000
# 2 -0.003678 0.013498 -0.002130 -0.000001 0.000307 0.000000
# 3 -0.002137 -0.002130 0.009542 -0.000001 0.001123 0.000000
# 4 -0.000001 -0.000001 -0.000001 0.032099 0.000003 0.009946
# 5 0.001915 0.000307 0.001123 0.000003 0.029633 -0.000001
# 6 0.000000 0.000000 0.000000 0.009946 -0.000001 0.033673
#
#
# Mechanical properties :
#
#
# Convention : Reuss Voigt Hill
#
# Bulk Modulus (GPa) = 41.43964 44.15930 42.79947
# Shear Modulus (GPa) = 31.37544 33.60714 32.49129
#
# Velocity S-wave (km/s) = 3.73513 3.86569 3.80097
# Velocity P-wave (km/s) = 6.08506 6.28970 6.18822
#
# Compressibility (1/GPa) = 0.02413149
#
# Stress axis : x y z
#
# Youngs Moduli (GPa) = 58.88619 74.08477 104.80384
#
# Poissons Ratio (x) = 0.27252 0.22394
# Poissons Ratio (y) = 0.21661 0.22321
# Poissons Ratio (z) = 0.12583 0.15779
#
# Static dielectric constant tensor:
#      x y z
#    x 1.897390 0.000000 0.047760 
#    y 0.000000 1.881380 0.000000 
#    z 0.047760 0.000000 1.856040 
# 
# From -- ./inp_files/156349.got.cif
#   From: 2010.05.17/outbox.cif.g08.bks.cpg/sg15_79_cif.got.tgz:156349.got - 2010.06.03 18:47:42.
