data_PCOD9276953
_publ_section_title
;
Structure prediction by ZEFSAII (Michael W. Deem and Ramdas Pophale) SiO2 
 PCOD9276953
Probable space group: C 2/C
;
_chemical_formula_sum "Si O2"
_cell_formula_units_Z 44
_cell_length_a 5.182732
_cell_length_b 30.428595
_cell_length_c 11.935782
_cell_angle_alpha 90.000000
_cell_angle_beta 101.121193
_cell_angle_gamma 90.000000
_cell_volume 1846.964444
_symmetry_space_group_name_H-M "C 2/C"
_symmetry_group_IT_number 15
_symmetry_cell_setting 'monoclinic'
loop_
_space_group_symop_operation_xyz
x,y,z
-x,y,1/2-z
-x,-y,-z
x,-y,1/2+z
1/2+x,1/2+y,z
1/2-x,1/2+y,1/2-z
1/2-x,1/2-y,-z
1/2+x,1/2-y,1/2+z
loop_
_atom_site_type_symbol
_atom_site_label
_atom_site_fract_x
_atom_site_fract_y
_atom_site_fract_z
Si Si1 0.164627 0.324294 0.465650
Si Si2 0.889460 0.870017 0.867183
Si Si3 0.999415 0.948101 0.015532
Si Si4 0.000000 0.268335 0.250000
Si Si5 0.622328 0.220134 0.388496
Si Si6 0.560219 0.089803 0.623217
O O1 0.409982 0.352838 0.520856
O O2 0.162276 0.298160 0.350621
O O3 0.937116 0.360533 0.425952
O O4 0.146193 0.290225 0.566899
O O5 0.000000 0.869565 0.750000
O O6 0.678225 0.831383 0.861766
O O7 0.853185 0.920328 0.903655
O O8 0.827459 0.934065 0.109571
O O9 0.305606 0.934492 0.050050
O O10 0.000000 0.000000 0.000000
O O11 0.232029 0.242597 0.204536
O O12 0.750000 0.250000 0.500000
O O13 0.500000 0.092421 0.750000
#
# Coordination Sequence:
#
# PCOD9276953 Si02
#       6
#     8   8   8   4   8   8
#     4  10  22  41  64  95 132 176 229 283 341 414
#     4  11  24  44  63  93 138 180 225 284 353 419
#     4  11  25  46  71 105 140 178 235 290 354 431
#     4  10  20  40  66  94 130 174 232 284 340 406
#     4  10  21  40  60  93 130 172 231 276 342 407
#     4  11  22  43  74 102 138 177 227 291 354 413
#
# _framework density 23.822872
#
# number of rings (size 3 to 8) (size 9 to 14) (size 15 to 20)
#    0.000    1.455    3.636    1.091    0.000    5.091 
#    3.273    2.727    0.000    0.000    0.000    0.000 
#    0.000    0.000    0.000    0.000    0.000    0.000 
#
# Total GULP energy -122535.381449 kJ/mol
# GULP energy per Si atom -5569.790066 kJ/mol
# Density = 2.376865 g / cm^3
# Si number density = 23.822872 Si / 1000 Ang^3
#
#
#
# Elastic Constant Matrix: (Units=GPa)
#
#
# Indices 1 2 3 4 5 6 
#
# 1 56.7568 17.4033 10.2762 0.0000 -20.4210 0.0000
# 2 17.4033 165.0414 66.2529 0.0000 -12.7514 0.0000
# 3 10.2762 66.2529 173.7359 0.0000 -28.8877 0.0000
# 4 0.0000 0.0000 0.0000 33.0485 0.0000 -12.4881
# 5 -20.4210 -12.7514 -28.8877 0.0000 38.2620 0.0000
# 6 0.0000 0.0000 0.0000 -12.4881 0.0000 26.8867
#
#
#
# Elastic Compliance Matrix: (Units=1/GPa)
#
#
# Indices 1 2 3 4 5 6 
#
# 1 0.022440 -0.002010 0.001509 0.000000 0.012446 0.000000
# 2 -0.002010 0.007339 -0.002803 0.000000 -0.000744 0.000000
# 3 0.001509 -0.002803 0.007678 0.000000 0.005668 0.000000
# 4 0.000000 0.000000 0.000000 0.036700 0.000000 0.017046
# 5 0.012446 -0.000744 0.005668 0.000000 0.036809 0.000000
# 6 0.000000 0.000000 0.000000 0.017046 0.000000 0.045111
#
#
# Mechanical properties :
#
#
# Convention : Reuss Voigt Hill
#
# Bulk Modulus (GPa) = 32.41775 64.82209 48.61992
# Shear Modulus (GPa) = 28.90678 39.74622 34.32650
#
# Velocity S-wave (km/s) = 3.48717 4.08904 3.80004
# Velocity P-wave (km/s) = 5.46363 7.04009 6.30135
#
# Compressibility (1/GPa) = 0.03084730
#
# Stress axis : x y z
#
# Youngs Moduli (GPa) = 44.56276 136.25841 130.24031
#
# Poissons Ratio (x) = 0.27393 -0.19650
# Poissons Ratio (y) = 0.08959 0.36512
# Poissons Ratio (z) = -0.06723 0.38199
#
# Static dielectric constant tensor:
#      x y z
#    x 1.610990 0.000000 -0.086570 
#    y 0.000000 1.875480 0.000000 
#    z -0.086570 0.000000 2.118330 
# 
# From -- ./inp_files/73826.got.cif
#   From: 2010.05.17/outbox.cif.g08.bks.cpg/sg15_37_cif.got.tgz:73826.got - 2010.06.03 18:47:42.
