data_PCOD9276171
_publ_section_title
;
Structure prediction by ZEFSAII (Michael W. Deem and Ramdas Pophale) SiO2 
 PCOD9276171
Probable space group: C 2/C
;
_chemical_formula_sum "Si O2"
_cell_formula_units_Z 56
_cell_length_a 16.790296
_cell_length_b 17.716664
_cell_length_c 8.185636
_cell_angle_alpha 90.000000
_cell_angle_beta 99.218801
_cell_angle_gamma 90.000000
_cell_volume 2403.514417
_symmetry_space_group_name_H-M "C 2/C"
_symmetry_group_IT_number 15
_symmetry_cell_setting 'monoclinic'
loop_
_space_group_symop_operation_xyz
x,y,z
-x,y,1/2-z
-x,-y,-z
x,-y,1/2+z
1/2+x,1/2+y,z
1/2-x,1/2+y,1/2-z
1/2-x,1/2-y,-z
1/2+x,1/2-y,1/2+z
loop_
_atom_site_type_symbol
_atom_site_label
_atom_site_fract_x
_atom_site_fract_y
_atom_site_fract_z
Si Si1 0.022673 0.167098 0.445605
Si Si2 0.639706 0.611389 0.015883
Si Si3 0.174058 0.536904 0.936990
Si Si4 0.453742 0.179938 0.399674
Si Si5 0.912934 0.038808 0.813051
Si Si6 0.217957 0.608616 0.245194
Si Si7 0.061891 0.561300 0.639098
O O1 0.062675 0.246766 0.497133
O O2 0.072161 0.097358 0.535084
O O3 0.000000 0.159525 0.250000
O O4 0.937310 0.165443 0.513395
O O5 0.614506 0.540738 0.123768
O O6 0.714129 0.651396 0.130712
O O7 0.647883 0.575951 0.838327
O O8 0.208995 0.466336 0.852334
O O9 0.130414 0.589449 0.788498
O O10 0.237643 0.580710 0.068794
O O11 0.108295 0.497701 0.038503
O O12 0.500000 0.199906 0.250000
O O13 0.368734 0.145880 0.311783
O O14 0.512174 0.122956 0.521344
O O15 0.000000 0.030636 0.750000
O O16 0.000000 0.523711 0.750000
#
# Coordination Sequence:
#
# PCOD9276171 Si02
#       7
#     8   8   8   8   8   8   8
#     4  11  24  43  67  91 120 162 212 255 303 374
#     4  11  21  40  67  97 127 156 200 260 315 358
#     4  10  22  34  56  89 124 162 207 258 304 353
#     4  12  24  40  61  88 123 168 214 248 301 372
#     4  10  20  39  69  99 121 157 205 254 307 367
#     4  11  23  37  61  95 130 161 202 256 314 359
#     4  11  20  33  57  84 116 163 217 256 290 354
#
# _framework density 23.299215
#
# number of rings (size 3 to 8) (size 9 to 14) (size 15 to 20)
#    0.000    1.143    2.857    6.000    2.000    0.000 
#    0.000    3.571    0.000    0.000    0.000    0.000 
#    0.000    0.000    0.000    0.000    0.000    0.000 
#
# Total GULP energy -156428.290129 kJ/mol
# GULP energy per Si atom -5586.724647 kJ/mol
# Density = 2.324618 g / cm^3
# Si number density = 23.299215 Si / 1000 Ang^3
#
#
#
# Elastic Constant Matrix: (Units=GPa)
#
#
# Indices 1 2 3 4 5 6 
#
# 1 56.1618 15.6320 23.8713 0.0000 19.9961 0.0000
# 2 15.6320 53.7210 22.5996 0.0000 6.1301 0.0000
# 3 23.8713 22.5996 165.5019 0.0000 24.7951 0.0000
# 4 0.0000 0.0000 0.0000 32.9582 0.0000 -0.4626
# 5 19.9961 6.1301 24.7951 0.0000 42.8304 0.0000
# 6 0.0000 0.0000 0.0000 -0.4626 0.0000 9.7012
#
#
#
# Elastic Compliance Matrix: (Units=1/GPa)
#
#
# Indices 1 2 3 4 5 6 
#
# 1 0.023079 -0.005134 -0.001230 0.000000 -0.009328 0.000000
# 2 -0.005134 0.020966 -0.002225 0.000000 0.000684 0.000000
# 3 -0.001230 -0.002225 0.006997 0.000000 -0.003158 0.000000
# 4 0.000000 0.000000 0.000000 0.030362 0.000000 0.001448
# 5 -0.009328 0.000684 -0.003158 0.000000 0.029433 0.000000
# 6 0.000000 0.000000 0.000000 0.001448 0.000000 0.103149
#
#
# Mechanical properties :
#
#
# Convention : Reuss Voigt Hill
#
# Bulk Modulus (GPa) = 29.53007 44.39896 36.96451
# Shear Modulus (GPa) = 20.62273 31.31674 25.96973
#
# Velocity S-wave (km/s) = 2.97833 3.67019 3.34221
# Velocity P-wave (km/s) = 4.95268 6.08751 5.54918
#
# Compressibility (1/GPa) = 0.03386379
#
# Stress axis : x y z
#
# Youngs Moduli (GPa) = 43.33026 47.69524 142.92714
#
# Poissons Ratio (x) = 0.24485 0.17585
# Poissons Ratio (y) = 0.22244 0.31802
# Poissons Ratio (z) = 0.05331 0.10612
#
# Static dielectric constant tensor:
#      x y z
#    x 1.987160 0.000000 0.026290 
#    y 0.000000 1.876250 0.000000 
#    z 0.026290 0.000000 1.939790 
# 
# From -- ./inp_files/49176.got.cif
#   From: 2010.05.17/outbox.cif.g08.bks.cpg/sg15_25_cif.got.tgz:49176.got - 2010.06.03 18:47:42.
