data_PCOD9276599
_publ_section_title
;
Structure prediction by ZEFSAII (Michael W. Deem and Ramdas Pophale) SiO2 
 PCOD9276599
Probable space group: C 2/C
;
_chemical_formula_sum "Si O2"
_cell_formula_units_Z 56
_cell_length_a 8.525399
_cell_length_b 14.596839
_cell_length_c 20.047258
_cell_angle_alpha 90.000000
_cell_angle_beta 87.313502
_cell_angle_gamma 90.000000
_cell_volume 2492.016632
_symmetry_space_group_name_H-M "C 2/C"
_symmetry_group_IT_number 15
_symmetry_cell_setting 'monoclinic'
loop_
_space_group_symop_operation_xyz
x,y,z
-x,y,1/2-z
-x,-y,-z
x,-y,1/2+z
1/2+x,1/2+y,z
1/2-x,1/2+y,1/2-z
1/2-x,1/2-y,-z
1/2+x,1/2-y,1/2+z
loop_
_atom_site_type_symbol
_atom_site_label
_atom_site_fract_x
_atom_site_fract_y
_atom_site_fract_z
Si Si1 0.612772 0.553979 0.184738
Si Si2 0.684800 0.745451 0.219874
Si Si3 0.924784 0.758891 0.464457
Si Si4 0.713125 0.348105 0.159225
Si Si5 0.538279 0.907629 0.170196
Si Si6 0.947755 0.081557 0.048214
Si Si7 0.573580 0.942383 0.559474
O O1 0.500000 0.548503 0.250000
O O2 0.719729 0.644479 0.192562
O O3 0.687728 0.453984 0.178041
O O4 0.512579 0.570579 0.120593
O O5 0.500000 0.740043 0.250000
O O6 0.791871 0.778123 0.278983
O O7 0.679533 0.833546 0.170922
O O8 0.750000 0.750000 0.500000
O O9 0.896816 0.815726 0.397401
O O10 0.009933 0.823762 0.515468
O O11 0.994056 0.660294 0.445243
O O12 0.897502 0.351360 0.137249
O O13 0.500000 0.926858 0.250000
O O14 0.555378 0.999394 0.127612
O O15 0.759801 0.074116 0.050674
O O16 0.000000 0.000000 0.000000
O O17 0.500000 0.000000 0.500000
#
# Coordination Sequence:
#
# PCOD9276599 Si02
#       7
#     8   8   8   8   8   8   8
#     4  11  24  38  66  94 127 168 215 267 321 379
#     4   8  20  35  61  90 120 165 210 255 305 388
#     4  10  22  38  65  87 122 168 219 257 305 396
#     4  10  20  40  63  93 125 161 216 257 318 369
#     4   9  20  38  62  91 125 162 212 264 310 379
#     4  11  24  44  67  95 127 170 220 270 320 377
#     4  11  25  40  68  93 127 171 218 261 324 381
#
# _framework density 22.471761000000001
#
# number of rings (size 3 to 8) (size 9 to 14) (size 15 to 20)
#    0.000    2.286    1.429    1.714   18.000    0.000 
#    0.000    4.286    0.000    0.000    0.000    0.000 
#    0.000    0.000    0.000    0.000    0.000    0.000 
#
# Total GULP energy -156209.978666 kJ/mol
# GULP energy per Si atom -5578.927809 kJ/mol
# Density = 2.242061 g / cm^3
# Si number density = 22.471761 Si / 1000 Ang^3
#
#
#
# Elastic Constant Matrix: (Units=GPa)
#
#
# Indices 1 2 3 4 5 6 
#
# 1 13.7952 6.4624 16.6120 0.0000 10.6911 0.0000
# 2 6.4624 187.8587 75.5683 0.0000 -1.8197 0.0000
# 3 16.6120 75.5683 131.4689 0.0000 18.5897 0.0000
# 4 0.0000 0.0000 0.0000 21.6452 0.0000 9.2563
# 5 10.6911 -1.8197 18.5897 0.0000 21.5421 0.0000
# 6 0.0000 0.0000 0.0000 9.2563 0.0000 21.6286
#
#
#
# Elastic Compliance Matrix: (Units=1/GPa)
#
#
# Indices 1 2 3 4 5 6 
#
# 1 0.125418 -0.002238 -0.006530 0.000000 -0.056797 0.000000
# 2 -0.002238 0.007385 -0.004792 0.000000 0.005869 0.000000
# 3 -0.006530 -0.004792 0.012284 0.000000 -0.007764 0.000000
# 4 0.000000 0.000000 0.000000 0.056549 0.000000 -0.024201
# 5 -0.056797 0.005869 -0.007764 0.000000 0.081804 0.000000
# 6 0.000000 0.000000 0.000000 -0.024201 0.000000 0.056592
#
#
# Mechanical properties :
#
#
# Convention : Reuss Voigt Hill
#
# Bulk Modulus (GPa) = 8.47697 58.93425 33.70561
# Shear Modulus (GPa) = 12.30095 28.59518 20.44807
#
# Velocity S-wave (km/s) = 2.34219 3.57107 3.01980
# Velocity P-wave (km/s) = 3.33090 6.57923 5.21446
#
# Compressibility (1/GPa) = 0.11796662
#
# Stress axis : x y z
#
# Youngs Moduli (GPa) = 7.97336 135.41791 81.40896
#
# Poissons Ratio (x) = 0.30304 0.53160
# Poissons Ratio (y) = 0.01784 0.39010
# Poissons Ratio (z) = 0.05207 0.64890
#
# Static dielectric constant tensor:
#      x y z
#    x 1.887750 0.000000 -0.029350 
#    y 0.000000 1.898970 0.000000 
#    z -0.029350 0.000000 1.837510 
# 
# From -- ./inp_files/237138.got.cif
#   From: 2010.05.17/outbox.cif.g08.bks.cpg/sg15_119_cif.got.tgz:237138.got - 2010.06.03 18:47:42.
