data_PCOD9276400
_publ_section_title
;
Structure prediction by ZEFSAII (Michael W. Deem and Ramdas Pophale) SiO2 
 PCOD9276400
Probable space group: C 2/C
;
_chemical_formula_sum "Si O2"
_cell_formula_units_Z 48
_cell_length_a 17.917907
_cell_length_b 7.993688
_cell_length_c 17.753552
_cell_angle_alpha 90.000000
_cell_angle_beta 125.716165
_cell_angle_gamma 90.000000
_cell_volume 2064.583048
_symmetry_space_group_name_H-M "C 2/C"
_symmetry_group_IT_number 15
_symmetry_cell_setting 'monoclinic'
loop_
_space_group_symop_operation_xyz
x,y,z
-x,y,1/2-z
-x,-y,-z
x,-y,1/2+z
1/2+x,1/2+y,z
1/2-x,1/2+y,1/2-z
1/2-x,1/2-y,-z
1/2+x,1/2-y,1/2+z
loop_
_atom_site_type_symbol
_atom_site_label
_atom_site_fract_x
_atom_site_fract_y
_atom_site_fract_z
Si Si1 0.961923 0.327867 0.147769
Si Si2 0.274076 0.988848 0.008197
Si Si3 0.786050 0.092003 0.193831
Si Si4 0.368169 0.876281 0.336578
Si Si5 0.631221 0.689721 0.006385
Si Si6 0.523939 0.559033 0.680921
O O1 0.000000 0.390414 0.250000
O O2 0.026572 0.411054 0.122604
O O3 0.855467 0.364308 0.076789
O O4 0.984140 0.130672 0.157321
O O5 0.198645 0.034568 0.026471
O O6 0.227779 0.931325 0.903095
O O7 0.328646 0.159206 0.019944
O O8 0.821454 0.272315 0.241025
O O9 0.692310 0.036114 0.178529
O O10 0.867298 0.961954 0.263654
O O11 0.365509 0.750903 0.406320
O O12 0.529730 0.650776 0.916723
O O13 0.500000 0.629520 0.750000
#
# Coordination Sequence:
#
# PCOD9276400 Si02
#       6
#     8   8   8   8   8   8
#     4  10  24  41  61  92 127 164 214 253 317 378
#     4  10  22  41  62  93 124 165 210 258 313 380
#     4  10  22  40  63  89 128 162 207 261 316 371
#     4  10  24  40  60  96 126 165 213 261 314 374
#     4  10  22  39  64  92 124 161 215 256 315 375
#     4  10  20  40  61  89 123 163 204 255 310 376
#
# _framework density 23.249247
#
# number of rings (size 3 to 8) (size 9 to 14) (size 15 to 20)
#    0.000    2.000    1.667    0.000    2.333   10.667 
#    0.000    0.000    0.000    0.000    0.000    0.000 
#    0.000    0.000    0.000    0.000    0.000    0.000 
#
# Total GULP energy -134289.979216 kJ/mol
# GULP energy per Si atom -5595.415801 kJ/mol
# Density = 2.319633 g / cm^3
# Si number density = 23.249247 Si / 1000 Ang^3
#
#
#
# Elastic Constant Matrix: (Units=GPa)
#
#
# Indices 1 2 3 4 5 6 
#
# 1 87.4251 7.4114 18.2201 0.0000 14.6567 0.0000
# 2 7.4114 39.8350 15.4780 0.0000 8.1394 0.0000
# 3 18.2201 15.4780 112.4884 0.0000 24.8328 0.0000
# 4 0.0000 0.0000 0.0000 36.1273 0.0000 2.3363
# 5 14.6567 8.1394 24.8328 0.0000 25.1194 0.0000
# 6 0.0000 0.0000 0.0000 2.3363 0.0000 31.7014
#
#
#
# Elastic Compliance Matrix: (Units=1/GPa)
#
#
# Indices 1 2 3 4 5 6 
#
# 1 0.012728 -0.000817 -0.000471 0.000000 -0.006697 0.000000
# 2 -0.000817 0.027398 -0.002281 0.000000 -0.006146 0.000000
# 3 -0.000471 -0.002281 0.011584 0.000000 -0.010438 0.000000
# 4 0.000000 0.000000 0.000000 0.027812 0.000000 -0.002050
# 5 -0.006697 -0.006146 -0.010438 0.000000 0.056028 0.000000
# 6 0.000000 0.000000 0.000000 -0.002050 0.000000 0.031695
#
#
# Mechanical properties :
#
#
# Convention : Reuss Voigt Hill
#
# Bulk Modulus (GPa) = 22.43497 35.77416 29.10456
# Shear Modulus (GPa) = 26.42139 31.83221 29.12680
#
# Velocity S-wave (km/s) = 3.37477 3.70425 3.54334
# Velocity P-wave (km/s) = 4.98559 5.80654 5.41166
#
# Compressibility (1/GPa) = 0.04457327
#
# Stress axis : x y z
#
# Youngs Moduli (GPa) = 78.56431 36.49960 86.32426
#
# Poissons Ratio (x) = 0.02982 0.04065
# Poissons Ratio (y) = 0.06418 0.19687
# Poissons Ratio (z) = 0.03700 0.08324
#
# Static dielectric constant tensor:
#      x y z
#    x 1.889510 0.000000 -0.004070 
#    y 0.000000 1.910670 0.000000 
#    z -0.004070 0.000000 1.837620 
# 
# From -- ./inp_files/247631.got.cif
#   From: 2010.05.17/outbox.cif.g08.bks.cpg/sg15_124_cif.got.tgz:247631.got - 2010.06.03 18:47:42.
