data_PCOD9276749
_publ_section_title
;
Structure prediction by ZEFSAII (Michael W. Deem and Ramdas Pophale) SiO2 
 PCOD9276749
Probable space group: C 2/C
;
_chemical_formula_sum "Si O2"
_cell_formula_units_Z 64
_cell_length_a 21.433386
_cell_length_b 10.938952
_cell_length_c 11.316913
_cell_angle_alpha 90.000000
_cell_angle_beta 99.244624
_cell_angle_gamma 90.000000
_cell_volume 2618.886444
_symmetry_space_group_name_H-M "C 2/C"
_symmetry_group_IT_number 15
_symmetry_cell_setting 'monoclinic'
loop_
_space_group_symop_operation_xyz
x,y,z
-x,y,1/2-z
-x,-y,-z
x,-y,1/2+z
1/2+x,1/2+y,z
1/2-x,1/2+y,1/2-z
1/2-x,1/2-y,-z
1/2+x,1/2-y,1/2+z
loop_
_atom_site_type_symbol
_atom_site_label
_atom_site_fract_x
_atom_site_fract_y
_atom_site_fract_z
Si Si1 0.539655 0.830651 0.435227
Si Si2 0.159718 0.209620 0.417322
Si Si3 0.285095 0.444034 0.119827
Si Si4 0.832511 0.382918 0.269997
Si Si5 0.485986 0.625822 0.562487
Si Si6 0.144769 0.146402 0.058702
Si Si7 0.951116 0.454858 0.819318
Si Si8 0.875023 0.883070 0.337953
O O1 0.588193 0.756976 0.367752
O O2 0.492190 0.730274 0.466893
O O3 0.500066 0.938629 0.368763
O O4 0.567743 0.888863 0.564575
O O5 0.195138 0.319122 0.358575
O O6 0.150070 0.188828 0.554186
O O7 0.185194 0.079700 0.382681
O O8 0.218457 0.451377 0.164559
O O9 0.290593 0.381834 0.992829
O O10 0.326989 0.359960 0.219047
O O11 0.852820 0.268361 0.361631
O O12 0.887751 0.479753 0.254048
O O13 0.500000 0.500000 0.500000
O O14 0.411055 0.634751 0.558465
O O15 0.549830 0.639114 0.660586
O O16 0.131721 0.027262 0.134298
O O17 0.000000 0.378810 0.750000
#
# Coordination Sequence:
#
# PCOD9276749 Si02
#       8
#     8   8   8   8   8   8   8   8
#     4  10  21  43  67 100 134 166 229 292 345 413
#     4  10  22  45  68  92 137 184 227 292 344 410
#     4  11  24  42  63  99 140 187 236 282 345 426
#     4  12  23  43  69  97 134 193 231 282 361 423
#     4   9  18  37  67  97 131 173 217 288 352 400
#     4  10  20  40  64  95 136 177 234 286 343 418
#     4  11  23  43  69  98 132 174 231 286 348 420
#     4   9  20  40  61 100 134 170 237 286 348 409
#
# _framework density 24.437867000000001
#
# number of rings (size 3 to 8) (size 9 to 14) (size 15 to 20)
#    0.000    1.750    3.750    1.125    0.000    1.000 
#   13.500    0.000    0.000    0.000    0.000    0.000 
#    0.000    0.000    0.000    0.000    0.000    0.000 
#
# Total GULP energy -178186.242385 kJ/mol
# GULP energy per Si atom -5568.320075 kJ/mol
# Density = 2.438225 g / cm^3
# Si number density = 24.437867 Si / 1000 Ang^3
#
#
#
# Elastic Constant Matrix: (Units=GPa)
#
#
# Indices 1 2 3 4 5 6 
#
# 1 100.6197 23.7399 12.6197 0.0000 -33.7809 0.0000
# 2 23.7399 95.6123 28.0112 0.0000 -14.2421 0.0000
# 3 12.6197 28.0112 56.1567 0.0000 -11.6997 0.0000
# 4 0.0000 0.0000 0.0000 13.7816 0.0000 -14.5529
# 5 -33.7809 -14.2421 -11.6997 0.0000 34.4170 0.0000
# 6 0.0000 0.0000 0.0000 -14.5529 0.0000 39.8385
#
#
#
# Elastic Compliance Matrix: (Units=1/GPa)
#
#
# Indices 1 2 3 4 5 6 
#
# 1 0.015069 -0.001756 0.000452 0.000000 0.014218 0.000000
# 2 -0.001756 0.012794 -0.005643 0.000000 0.001653 0.000000
# 3 0.000452 -0.005643 0.021660 0.000000 0.005471 0.000000
# 4 0.000000 0.000000 0.000000 0.118127 0.000000 0.043151
# 5 0.014218 0.001653 0.005471 0.000000 0.045554 0.000000
# 6 0.000000 0.000000 0.000000 0.043151 0.000000 0.040865
#
#
# Mechanical properties :
#
#
# Convention : Reuss Voigt Hill
#
# Bulk Modulus (GPa) = 28.06678 42.34780 35.20729
# Shear Modulus (GPa) = 17.86732 30.14195 24.00463
#
# Velocity S-wave (km/s) = 2.70688 3.51581 3.13752
# Velocity P-wave (km/s) = 4.61297 5.81787 5.25010
#
# Compressibility (1/GPa) = 0.03562930
#
# Stress axis : x y z
#
# Youngs Moduli (GPa) = 66.35970 78.15995 46.16715
#
# Poissons Ratio (x) = 0.13726 -0.02085
# Poissons Ratio (y) = 0.11654 0.26052
# Poissons Ratio (z) = -0.02997 0.44105
#
# Static dielectric constant tensor:
#      x y z
#    x 2.065640 0.000000 -0.021640 
#    y 0.000000 1.892930 0.000000 
#    z -0.021640 0.000000 2.046410 
# 
# From -- ./inp_files/117578.got.cif
#   From: 2010.05.17/outbox.cif.g08.bks.cpg/sg15_59_cif.got.tgz:117578.got - 2010.06.03 18:47:42.
