data_PCOD9276979
_publ_section_title
;
Structure prediction by ZEFSAII (Michael W. Deem and Ramdas Pophale) SiO2 
 PCOD9276979
Probable space group: C 2/C
;
_chemical_formula_sum "Si O2"
_cell_formula_units_Z 44
_cell_length_a 8.238980
_cell_length_b 16.221995
_cell_length_c 16.252081
_cell_angle_alpha 90.000000
_cell_angle_beta 63.426554
_cell_angle_gamma 90.000000
_cell_volume 1942.673705
_symmetry_space_group_name_H-M "C 2/C"
_symmetry_group_IT_number 15
_symmetry_cell_setting 'monoclinic'
loop_
_space_group_symop_operation_xyz
x,y,z
-x,y,1/2-z
-x,-y,-z
x,-y,1/2+z
1/2+x,1/2+y,z
1/2-x,1/2+y,1/2-z
1/2-x,1/2-y,-z
1/2+x,1/2-y,1/2+z
loop_
_atom_site_type_symbol
_atom_site_label
_atom_site_fract_x
_atom_site_fract_y
_atom_site_fract_z
Si Si1 0.247019 0.952604 0.109852
Si Si2 0.611080 0.273496 0.105090
Si Si3 0.875069 0.515038 0.904155
Si Si4 0.713074 0.631467 0.345020
Si Si5 0.647809 0.319239 0.469875
Si Si6 0.500000 0.580597 0.250000
O O1 0.167089 0.861204 0.130228
O O2 0.411554 0.967175 0.135881
O O3 0.096389 0.020528 0.163131
O O4 0.321182 0.967908 0.001086
O O5 0.647402 0.201910 0.161097
O O6 0.421468 0.282400 0.100916
O O7 0.750000 0.250000 0.000000
O O8 0.802728 0.455434 0.849522
O O9 0.774096 0.602237 0.926258
O O10 0.530206 0.648677 0.440309
O O11 0.648188 0.631958 0.265926
O O12 0.750000 0.250000 0.500000
#
# Coordination Sequence:
#
# PCOD9276979 Si02
#       6
#     8   8   8   8   8   4
#     4  11  23  41  68  98 130 175 215 275 325 400
#     4  10  20  40  66  98 125 166 227 279 313 376
#     4  11  21  40  70  97 124 170 238 265 314 385
#     4  11  23  41  67  96 134 172 216 277 328 396
#     4  11  21  36  66 102 123 166 223 285 312 372
#     4  12  26  44  62  96 144 176 208 262 358 396
#
# _framework density 22.649198999999999
#
# number of rings (size 3 to 8) (size 9 to 14) (size 15 to 20)
#    0.000    1.091    5.455    3.818    2.545    0.727 
#    0.000    7.273    0.000    0.000    0.000    0.000 
#    0.000    0.000    0.000    0.000    0.000    0.000 
#
# Total GULP energy -123147.139396 kJ/mol
# GULP energy per Si atom -5597.597245 kJ/mol
# Density = 2.259765 g / cm^3
# Si number density = 22.649199 Si / 1000 Ang^3
#
#
#
# Elastic Constant Matrix: (Units=GPa)
#
#
# Indices 1 2 3 4 5 6 
#
# 1 153.9813 89.7892 28.1481 0.0000 39.9206 0.0000
# 2 89.7892 174.9246 26.5973 0.0000 40.4471 0.0000
# 3 28.1481 26.5973 54.2482 0.0000 17.4181 0.0000
# 4 0.0000 0.0000 0.0000 16.1223 0.0000 19.5449
# 5 39.9206 40.4471 17.4181 0.0000 47.4824 0.0000
# 6 0.0000 0.0000 0.0000 19.5449 0.0000 45.0046
#
#
#
# Elastic Compliance Matrix: (Units=1/GPa)
#
#
# Indices 1 2 3 4 5 6 
#
# 1 0.010352 -0.003948 -0.001951 0.000000 -0.004625 0.000000
# 2 -0.003948 0.008774 -0.001042 0.000000 -0.003773 0.000000
# 3 -0.001951 -0.001042 0.021701 0.000000 -0.005433 0.000000
# 4 0.000000 0.000000 0.000000 0.130989 0.000000 -0.056887
# 5 -0.004625 -0.003773 -0.005433 0.000000 0.030155 0.000000
# 6 0.000000 0.000000 0.000000 -0.056887 0.000000 0.046925
#
#
# Mechanical properties :
#
#
# Convention : Reuss Voigt Hill
#
# Bulk Modulus (GPa) = 37.11133 74.69150 55.90141
# Shear Modulus (GPa) = 18.39859 37.62980 28.01420
#
# Velocity S-wave (km/s) = 2.85323 4.08047 3.52074
# Velocity P-wave (km/s) = 5.22259 7.43300 6.42358
#
# Compressibility (1/GPa) = 0.02694595
#
# Stress axis : x y z
#
# Youngs Moduli (GPa) = 96.60072 113.97501 46.08002
#
# Poissons Ratio (x) = 0.44993 0.08990
# Poissons Ratio (y) = 0.38134 0.04802
# Poissons Ratio (z) = 0.18846 0.11877
#
# Static dielectric constant tensor:
#      x y z
#    x 1.832860 0.000000 0.008570 
#    y 0.000000 1.791490 0.000000 
#    z 0.008570 0.000000 1.879030 
# 
# From -- ./inp_files/188808.got.cif
#   From: 2010.05.17/outbox.cif.g08.bks.cpg/sg15_95_cif.got.tgz:188808.got - 2010.06.03 18:47:42.
