data_PCOD9276118
_publ_section_title
;
Structure prediction by ZEFSAII (Michael W. Deem and Ramdas Pophale) SiO2 
 PCOD9276118
Probable space group: C 2/C
;
_chemical_formula_sum "Si O2"
_cell_formula_units_Z 44
_cell_length_a 11.838060
_cell_length_b 17.570986
_cell_length_c 8.623872
_cell_angle_alpha 90.000000
_cell_angle_beta 97.392869
_cell_angle_gamma 90.000000
_cell_volume 1778.908754
_symmetry_space_group_name_H-M "C 2/C"
_symmetry_group_IT_number 15
_symmetry_cell_setting 'monoclinic'
loop_
_space_group_symop_operation_xyz
x,y,z
-x,y,1/2-z
-x,-y,-z
x,-y,1/2+z
1/2+x,1/2+y,z
1/2-x,1/2+y,1/2-z
1/2-x,1/2-y,-z
1/2+x,1/2-y,1/2+z
loop_
_atom_site_type_symbol
_atom_site_label
_atom_site_fract_x
_atom_site_fract_y
_atom_site_fract_z
Si Si1 0.038681 0.752799 0.056508
Si Si2 0.500000 0.355482 0.750000
Si Si3 0.337667 0.610716 0.781804
Si Si4 0.425847 0.917110 0.892056
Si Si5 0.413624 0.853717 0.369502
Si Si6 0.173725 0.967036 0.885692
O O1 0.093245 0.811558 0.186551
O O2 0.109576 0.673591 0.087362
O O3 0.034166 0.805238 0.903177
O O4 0.916898 0.708836 0.009360
O O5 0.607412 0.411892 0.755277
O O6 0.207839 0.632591 0.722198
O O7 0.371409 0.552334 0.651650
O O8 0.342870 0.563092 0.942878
O O9 0.500000 0.923197 0.750000
O O10 0.308079 0.961628 0.874045
O O11 0.517932 0.925136 0.046913
O O12 0.500000 0.829107 0.250000
#
# Coordination Sequence:
#
# PCOD9276118 Si02
#       6
#     8   4   8   8   8   8
#     4   9  21  39  67  93 129 169 227 267 324 393
#     4  10  22  44  70  94 126 186 222 274 326 390
#     4  11  24  43  65 101 128 184 217 270 337 390
#     4  10  23  41  64 104 132 171 218 280 333 383
#     4  10  20  39  68  95 126 172 223 278 322 383
#     4  11  26  42  68  96 139 174 222 270 331 409
#
# _framework density 24.734264
#
# number of rings (size 3 to 8) (size 9 to 14) (size 15 to 20)
#    1.091    0.727    2.727    0.000    5.091    6.545 
#    4.909    1.818    0.000    0.000    0.000    0.000 
#    0.000    0.000    0.000    0.000    0.000    0.000 
#
# Total GULP energy -122545.677292 kJ/mol
# GULP energy per Si atom -5570.258059 kJ/mol
# Density = 2.467797 g / cm^3
# Si number density = 24.734264 Si / 1000 Ang^3
#
#
#
# Elastic Constant Matrix: (Units=GPa)
#
#
# Indices 1 2 3 4 5 6 
#
# 1 92.4024 28.6543 44.7280 0.0000 18.7399 0.0000
# 2 28.6543 114.9867 36.9972 0.0000 26.5122 0.0000
# 3 44.7280 36.9972 105.1422 0.0000 26.3265 0.0000
# 4 0.0000 0.0000 0.0000 -13.0049 0.0000 -68.7359
# 5 18.7399 26.5122 26.3265 0.0000 24.6704 0.0000
# 6 0.0000 0.0000 0.0000 -68.7359 0.0000 -76.8168
#
#
#
# Elastic Compliance Matrix: (Units=1/GPa)
#
#
# Indices 1 2 3 4 5 6 
#
# 1 0.014317 -0.000958 -0.004487 0.000000 -0.005058 0.000000
# 2 -0.000958 0.011758 -0.001021 0.000000 -0.010819 0.000000
# 3 -0.004487 -0.001021 0.014534 0.000000 -0.011004 0.000000
# 4 0.000000 0.000000 0.000000 0.020619 0.000000 -0.018449
# 5 -0.005058 -0.010819 -0.011004 0.000000 0.067746 0.000000
# 6 0.000000 0.000000 0.000000 -0.018449 0.000000 0.003491
#
#
# Mechanical properties :
#
#
# Convention : Reuss Voigt Hill
#
# Bulk Modulus (GPa) = 36.13005 59.25449 47.69227
# Shear Modulus (GPa) = 32.33668 0.44651 16.39159
#
# Velocity S-wave (km/s) = 3.61967 0.42534 2.57710
# Velocity P-wave (km/s) = 5.66642 4.92440 5.30839
#
# Compressibility (1/GPa) = 0.02767779
#
# Stress axis : x y z
#
# Youngs Moduli (GPa) = 69.84705 85.04541 68.80227
#
# Poissons Ratio (x) = 0.08146 0.30872
# Poissons Ratio (y) = 0.06691 0.07025
# Poissons Ratio (z) = 0.31341 0.08684
#
# Static dielectric constant tensor:
#      x y z
#    x 1.909960 0.000000 -0.035930 
#    y 0.000000 2.129410 0.000000 
#    z -0.035930 0.000000 2.074650 
# 
# From -- ./inp_files/39339.got.cif
#   From: 2010.05.17/outbox.cif.g08.bks.cpg/sg15_20_cif.got.tgz:39339.got - 2010.06.03 18:47:42.
