data_PCOD9276765
_publ_section_title
;
Structure prediction by ZEFSAII (Michael W. Deem and Ramdas Pophale) SiO2 
 PCOD9276765
Probable space group: C 2/C
;
_chemical_formula_sum "Si O2"
_cell_formula_units_Z 48
_cell_length_a 12.592499
_cell_length_b 7.089061
_cell_length_c 28.605272
_cell_angle_alpha 90.000000
_cell_angle_beta 129.274897
_cell_angle_gamma 90.000000
_cell_volume 1976.758811
_symmetry_space_group_name_H-M "C 2/C"
_symmetry_group_IT_number 15
_symmetry_cell_setting 'monoclinic'
loop_
_space_group_symop_operation_xyz
x,y,z
-x,y,1/2-z
-x,-y,-z
x,-y,1/2+z
1/2+x,1/2+y,z
1/2-x,1/2+y,1/2-z
1/2-x,1/2-y,-z
1/2+x,1/2-y,1/2+z
loop_
_atom_site_type_symbol
_atom_site_label
_atom_site_fract_x
_atom_site_fract_y
_atom_site_fract_z
Si Si1 0.891165 0.444732 0.759808
Si Si2 0.838210 0.787427 0.428505
Si Si3 0.091589 0.763952 0.564208
Si Si4 0.953875 0.359791 0.120720
Si Si5 0.834656 0.221092 0.571292
Si Si6 0.627120 0.658135 0.661148
O O1 0.746118 0.504505 0.698226
O O2 0.870624 0.275733 0.790468
O O3 0.000000 0.395246 0.750000
O O4 0.955878 0.620301 0.807178
O O5 0.691991 0.758937 0.411817
O O6 0.837665 0.718871 0.375009
O O7 0.964056 0.718204 0.494552
O O8 0.870857 0.013511 0.431449
O O9 0.228261 0.667810 0.582048
O O10 0.041733 0.706152 0.601274
O O11 0.902019 0.574545 0.098398
O O12 0.750000 0.250000 0.500000
O O13 0.970142 0.092643 0.608662
#
# Coordination Sequence:
#
# PCOD9276765 Si02
#       6
#     8   8   8   8   8   8
#     4  11  25  46  66  90 136 178 220 277 328 393
#     4  10  20  40  64  97 134 167 217 275 330 400
#     4  10  21  38  67  97 134 174 212 272 347 391
#     4  10  22  39  65  94 126 177 220 268 333 394
#     4  10  21  41  62  94 136 170 214 279 331 390
#     4  11  24  44  70  96 130 179 225 268 335 397
#
# _framework density 24.282173
#
# number of rings (size 3 to 8) (size 9 to 14) (size 15 to 20)
#    0.000    1.667    3.333    0.500    2.333    0.667 
#    0.000    5.833    0.000    0.000    0.000    0.000 
#    0.000    0.000    0.000    0.000    0.000    0.000 
#
# Total GULP energy -134297.344270 kJ/mol
# GULP energy per Si atom -5595.722678 kJ/mol
# Density = 2.422691 g / cm^3
# Si number density = 24.282173 Si / 1000 Ang^3
#
#
#
# Elastic Constant Matrix: (Units=GPa)
#
#
# Indices 1 2 3 4 5 6 
#
# 1 242.4474 42.4112 63.4219 0.0000 0.7872 0.0000
# 2 42.4112 62.8006 14.5045 0.0000 5.9923 0.0000
# 3 63.4219 14.5045 139.0416 0.0000 13.8761 0.0000
# 4 0.0000 0.0000 0.0000 26.7876 0.0000 -4.9665
# 5 0.7872 5.9923 13.8761 0.0000 58.2309 0.0000
# 6 0.0000 0.0000 0.0000 -4.9665 0.0000 35.7908
#
#
#
# Elastic Compliance Matrix: (Units=1/GPa)
#
#
# Indices 1 2 3 4 5 6 
#
# 1 0.005224 -0.003107 -0.002134 0.000000 0.000758 0.000000
# 2 -0.003107 0.018262 -0.000312 0.000000 -0.001763 0.000000
# 3 -0.002134 -0.000312 0.008392 0.000000 -0.001939 0.000000
# 4 0.000000 0.000000 0.000000 0.038316 0.000000 0.005317
# 5 0.000758 -0.001763 -0.001939 0.000000 0.017806 0.000000
# 6 0.000000 0.000000 0.000000 0.005317 0.000000 0.028678
#
#
# Mechanical properties :
#
#
# Convention : Reuss Voigt Hill
#
# Bulk Modulus (GPa) = 48.14416 76.10722 62.12569
# Shear Modulus (GPa) = 37.11708 45.75865 41.43786
#
# Velocity S-wave (km/s) = 3.91394 4.34574 4.13548
# Velocity P-wave (km/s) = 6.34785 7.52273 6.96013
#
# Compressibility (1/GPa) = 0.02077095
#
# Stress axis : x y z
#
# Youngs Moduli (GPa) = 191.42320 54.75822 119.16612
#
# Poissons Ratio (x) = 0.17015 0.25434
# Poissons Ratio (y) = 0.59481 0.03715
# Poissons Ratio (z) = 0.40856 0.01707
#
# Static dielectric constant tensor:
#      x y z
#    x 1.937250 0.000000 0.014780 
#    y 0.000000 2.065400 0.000000 
#    z 0.014780 0.000000 1.968490 
# 
# From -- ./inp_files/291285.got.cif
#   From: 2010.05.17/outbox.cif.g08.bks.cpg/sg15_146_cif.got.tgz:291285.got - 2010.06.03 18:47:42.
