data_PCOD9276813
_publ_section_title
;
Structure prediction by ZEFSAII (Michael W. Deem and Ramdas Pophale) SiO2 
 PCOD9276813
Probable space group: C 2/C
;
_chemical_formula_sum "Si O2"
_cell_formula_units_Z 48
_cell_length_a 13.346633
_cell_length_b 12.620015
_cell_length_c 24.980266
_cell_angle_alpha 90.000000
_cell_angle_beta 147.976394
_cell_angle_gamma 90.000000
_cell_volume 2231.128446
_symmetry_space_group_name_H-M "C 2/C"
_symmetry_group_IT_number 15
_symmetry_cell_setting 'monoclinic'
loop_
_space_group_symop_operation_xyz
x,y,z
-x,y,1/2-z
-x,-y,-z
x,-y,1/2+z
1/2+x,1/2+y,z
1/2-x,1/2+y,1/2-z
1/2-x,1/2-y,-z
1/2+x,1/2-y,1/2+z
loop_
_atom_site_type_symbol
_atom_site_label
_atom_site_fract_x
_atom_site_fract_y
_atom_site_fract_z
Si Si1 0.027925 0.753673 0.906961
Si Si2 0.500000 0.574175 0.750000
Si Si3 0.455183 0.949093 0.539520
Si Si4 0.555816 0.516163 0.386814
Si Si5 0.000000 0.584349 0.250000
Si Si6 0.171921 0.548394 0.729684
Si Si7 0.192570 0.738039 0.589677
O O1 0.975987 0.870224 0.864717
O O2 0.923706 0.660739 0.827654
O O3 0.978181 0.752954 0.947054
O O4 0.250000 0.750000 0.000000
O O5 0.452352 0.502557 0.679494
O O6 0.326829 0.652963 0.680609
O O7 0.627884 0.974569 0.657273
O O8 0.387430 0.828146 0.497132
O O9 0.500000 0.000000 0.500000
O O10 0.279746 0.999054 0.494853
O O11 0.398535 0.437846 0.339982
O O12 0.085110 0.511274 0.241601
O O13 0.169276 0.659873 0.350814
#
# Coordination Sequence:
#
# PCOD9276813 Si02
#       7
#     8   4   8   8   4   8   8
#     4  12  22  40  66  95 132 170 216 278 336 380
#     4   9  18  35  64  94 118 167 232 261 312 386
#     4  11  21  40  69 100 126 170 234 278 320 391
#     4  11  21  37  66  95 131 171 218 282 323 386
#     4  11  26  43  62  94 142 177 212 269 340 414
#     4  12  24  42  66 100 136 177 221 273 339 401
#     4  10  20  40  65  90 128 176 218 270 325 385
#
# _framework density 21.513777000000001
#
# number of rings (size 3 to 8) (size 9 to 14) (size 15 to 20)
#    0.000    1.000    6.667    1.000    0.000    1.333 
#    0.000    3.333    0.000    0.000    0.000    0.000 
#    0.000    0.000    0.000    0.000    0.000    0.000 
#
# Total GULP energy -133720.356091 kJ/mol
# GULP energy per Si atom -5571.681504 kJ/mol
# Density = 2.146481 g / cm^3
# Si number density = 21.513777 Si / 1000 Ang^3
#
#
#
# Elastic Constant Matrix: (Units=GPa)
#
#
# Indices 1 2 3 4 5 6 
#
# 1 95.7625 20.0466 12.5784 0.0001 22.8114 0.0000
# 2 20.0466 86.2123 3.1847 0.0000 8.3552 0.0000
# 3 12.5784 3.1847 57.8656 -0.0002 36.3150 0.0001
# 4 0.0001 0.0000 -0.0002 13.2681 0.0001 14.4342
# 5 22.8114 8.3552 36.3150 0.0001 40.7185 0.0000
# 6 0.0000 0.0000 0.0001 14.4342 0.0000 22.4291
#
#
#
# Elastic Compliance Matrix: (Units=1/GPa)
#
#
# Indices 1 2 3 4 5 6 
#
# 1 0.012779 -0.002145 0.003536 0.000000 -0.009872 0.000000
# 2 -0.002145 0.012296 0.001405 0.000000 -0.002575 0.000000
# 3 0.003536 0.001405 0.040563 0.000003 -0.038445 -0.000002
# 4 0.000000 0.000000 0.000003 0.251313 -0.000004 -0.161731
# 5 -0.009872 -0.002575 -0.038445 -0.000004 0.064905 0.000002
# 6 0.000000 0.000000 -0.000002 -0.161731 0.000002 0.148666
#
#
# Mechanical properties :
#
#
# Convention : Reuss Voigt Hill
#
# Bulk Modulus (GPa) = 14.03919 34.60664 24.32292
# Shear Modulus (GPa) = 9.11289 28.88521 18.99905
#
# Velocity S-wave (km/s) = 2.06035 3.66818 2.97494
# Velocity P-wave (km/s) = 3.49283 5.83622 4.80943
#
# Compressibility (1/GPa) = 0.07122917
#
# Stress axis : x y z
#
# Youngs Moduli (GPa) = 78.25456 81.32928 24.65316
#
# Poissons Ratio (x) = 0.17447 -0.08717
# Poissons Ratio (y) = 0.16788 -0.03465
# Poissons Ratio (z) = -0.27670 -0.11429
#
# Static dielectric constant tensor:
#      x y z
#    x 1.706110 0.000000 -0.040590 
#    y 0.000000 1.865350 0.000000 
#    z -0.040590 0.000000 1.707520 
# 
# From -- ./inp_files/313660.got.cif
#   From: 2010.05.17/outbox.cif.g08.bks.cpg/sg15_157_cif.got.tgz:313660.got - 2010.06.03 18:47:42.
