data_PCOD9276955
_publ_section_title
;
Structure prediction by ZEFSAII (Michael W. Deem and Ramdas Pophale) SiO2 
 PCOD9276955
Probable space group: C 2/C
;
_chemical_formula_sum "Si O2"
_cell_formula_units_Z 64
_cell_length_a 15.765920
_cell_length_b 26.788670
_cell_length_c 11.944461
_cell_angle_alpha 90.000000
_cell_angle_beta 36.316592
_cell_angle_gamma 90.000000
_cell_volume 2987.717693
_symmetry_space_group_name_H-M "C 2/C"
_symmetry_group_IT_number 15
_symmetry_cell_setting 'monoclinic'
loop_
_space_group_symop_operation_xyz
x,y,z
-x,y,1/2-z
-x,-y,-z
x,-y,1/2+z
1/2+x,1/2+y,z
1/2-x,1/2+y,1/2-z
1/2-x,1/2-y,-z
1/2+x,1/2-y,1/2+z
loop_
_atom_site_type_symbol
_atom_site_label
_atom_site_fract_x
_atom_site_fract_y
_atom_site_fract_z
Si Si1 0.051319 0.035395 0.040949
Si Si2 0.162752 0.299267 0.625589
Si Si3 0.785665 0.129982 0.661605
Si Si4 0.765056 0.991559 0.966136
Si Si5 0.719152 0.806682 0.828311
Si Si6 0.843301 0.609518 0.943562
Si Si7 0.973964 0.780667 0.906576
Si Si8 0.154715 0.399616 0.523875
O O1 0.194320 0.011881 0.945849
O O2 0.909352 0.033949 0.266326
O O3 0.089367 0.089499 0.955056
O O4 0.000000 0.000000 0.000000
O O5 0.250000 0.250000 0.500000
O O6 0.174751 0.305660 0.746160
O O7 0.223695 0.350748 0.508208
O O8 0.000000 0.294770 0.750000
O O9 0.741274 0.121925 0.580228
O O10 0.857181 0.184042 0.591918
O O11 0.664255 0.115512 0.881839
O O12 0.651545 0.950363 0.049435
O O13 0.732584 0.047339 0.961214
O O14 0.875799 0.783651 0.687843
O O15 0.717780 0.861321 0.885432
O O16 0.599619 0.773177 0.017039
O O17 0.000000 0.628301 0.750000
O O18 0.000000 0.797101 0.750000
O O19 0.000000 0.404674 0.750000
#
# Coordination Sequence:
#
# PCOD9276955 Si02
#       8
#     8   8   8   8   8   8   8   8
#     4  10  20  40  66  94 135 178 228 290 366 413
#     4  11  26  49  71 100 143 189 240 294 350 429
#     4  11  24  44  67 102 144 187 231 309 359 428
#     4  10  22  42  64 102 136 176 236 295 349 443
#     4  12  26  45  73 107 145 191 239 298 365 437
#     4  11  25  41  68 101 142 185 239 293 369 425
#     4  12  25  44  71 109 145 182 237 298 367 437
#     4  11  25  45  69  97 140 189 237 286 359 420
#
# _framework density 21.421033000000001
#
# number of rings (size 3 to 8) (size 9 to 14) (size 15 to 20)
#    0.000    1.000    2.500    3.375    7.000    2.000 
#    2.250    1.875    0.000    0.000    0.000    0.000 
#    0.000    0.000    0.000    0.000    0.000    0.000 
#
# Total GULP energy -178482.570388 kJ/mol
# GULP energy per Si atom -5577.580325 kJ/mol
# Density = 2.137228 g / cm^3
# Si number density = 21.421033 Si / 1000 Ang^3
#
#
#
# Elastic Constant Matrix: (Units=GPa)
#
#
# Indices 1 2 3 4 5 6 
#
# 1 99.1065 35.0123 26.9482 -0.0001 9.9116 -0.0001
# 2 35.0123 146.5554 33.5253 0.0000 -1.9951 0.0000
# 3 26.9482 33.5253 84.7398 -0.0005 11.2316 -0.0003
# 4 -0.0001 0.0000 -0.0005 10.3091 0.0002 -12.4177
# 5 9.9116 -1.9951 11.2316 0.0002 29.8576 0.0001
# 6 -0.0001 0.0000 -0.0003 -12.4177 0.0001 9.4305
#
#
#
# Elastic Compliance Matrix: (Units=1/GPa)
#
#
# Indices 1 2 3 4 5 6 
#
# 1 0.011894 -0.002327 -0.002440 0.000000 -0.003186 0.000000
# 2 -0.002327 0.008041 -0.002752 0.000001 0.002345 0.000001
# 3 -0.002440 -0.002752 0.014295 -0.000002 -0.004751 -0.000002
# 4 0.000000 0.000001 -0.000002 -0.165509 0.000003 -0.217935
# 5 -0.003186 0.002345 -0.004751 0.000003 0.036494 0.000004
# 6 0.000000 0.000001 -0.000002 -0.217935 0.000004 -0.180929
#
#
# Mechanical properties :
#
#
# Convention : Reuss Voigt Hill
#
# Bulk Modulus (GPa) = 52.10171 57.93037 55.01604
# Shear Modulus (GPa) = -19.66345 25.58049 2.95852
#
# Velocity S-wave (km/s) = -3.03306 3.45943 1.17649
# Velocity P-wave (km/s) = 3.47988 6.56196 5.25209
#
# Compressibility (1/GPa) = 0.01919323
#
# Stress axis : x y z
#
# Youngs Moduli (GPa) = 84.07466 124.36751 69.95366
#
# Poissons Ratio (x) = 0.28938 0.17066
# Poissons Ratio (y) = 0.19563 0.19251
# Poissons Ratio (z) = 0.20511 0.34225
#
# Static dielectric constant tensor:
#      x y z
#    x 1.894690 0.000000 0.105250 
#    y 0.000000 1.874690 0.000000 
#    z 0.105250 0.000000 1.931000 
# 
# From -- ./inp_files/101320.got.cif
#   From: 2010.05.17/outbox.cif.g08.bks.cpg/sg15_51_cif.got.tgz:101320.got - 2010.06.03 18:47:42.
