data_PCOD9276375
_publ_section_title
;
Structure prediction by ZEFSAII (Michael W. Deem and Ramdas Pophale) SiO2 
 PCOD9276375
Probable space group: C 2/C
;
_chemical_formula_sum "Si O2"
_cell_formula_units_Z 32
_cell_length_a 10.967387
_cell_length_b 9.678858
_cell_length_c 13.524058
_cell_angle_alpha 90.000000
_cell_angle_beta 116.941350
_cell_angle_gamma 90.000000
_cell_volume 1279.797988
_symmetry_space_group_name_H-M "C 2/C"
_symmetry_group_IT_number 15
_symmetry_cell_setting 'monoclinic'
loop_
_space_group_symop_operation_xyz
x,y,z
-x,y,1/2-z
-x,-y,-z
x,-y,1/2+z
1/2+x,1/2+y,z
1/2-x,1/2+y,1/2-z
1/2-x,1/2-y,-z
1/2+x,1/2-y,1/2+z
loop_
_atom_site_type_symbol
_atom_site_label
_atom_site_fract_x
_atom_site_fract_y
_atom_site_fract_z
Si Si1 0.868381 0.139878 0.564342
Si Si2 0.349974 0.709080 0.779178
Si Si3 0.311819 0.096467 0.515890
Si Si4 0.886515 0.485223 0.320024
O O1 0.750000 0.250000 0.500000
O O2 0.871960 0.130383 0.684042
O O3 0.023153 0.185692 0.599600
O O4 0.813107 0.001412 0.496733
O O5 0.206157 0.640873 0.754368
O O6 0.354306 0.870667 0.753489
O O7 0.250000 0.250000 0.500000
O O8 0.347840 0.039460 0.417668
O O9 0.456566 0.064875 0.621734
#
# Coordination Sequence:
#
# PCOD9276375 Si02
#       4
#     8   8   8   8
#     4  10  20  40  61  83 120 160 203 253 313 372
#     4  10  22  38  60  87 123 159 201 261 314 370
#     4  10  22  40  63  87 122 164 209 261 312 375
#     4  10  22  41  59  91 125 159 210 263 311 379
#
# _framework density 25.003945000000002
#
# number of rings (size 3 to 8) (size 9 to 14) (size 15 to 20)
#    0.000    2.000    2.500    0.000    3.500    2.000 
#    0.000    2.500    0.000    0.000    0.000    0.000 
#    0.000    0.000    0.000    0.000    0.000    0.000 
#
# Total GULP energy -89261.946245 kJ/mol
# GULP energy per Si atom -5578.871640 kJ/mol
# Density = 2.494704 g / cm^3
# Si number density = 25.003945 Si / 1000 Ang^3
#
#
#
# Elastic Constant Matrix: (Units=GPa)
#
#
# Indices 1 2 3 4 5 6 
#
# 1 91.7887 42.0300 52.6151 0.0000 28.9748 0.0000
# 2 42.0300 226.5523 90.6362 0.0000 69.8756 0.0000
# 3 52.6151 90.6362 168.1477 0.0000 63.6530 0.0000
# 4 0.0000 0.0000 0.0000 39.1982 0.0000 7.4194
# 5 28.9748 69.8756 63.6530 0.0000 53.6251 0.0000
# 6 0.0000 0.0000 0.0000 7.4194 0.0000 33.5910
#
#
#
# Elastic Compliance Matrix: (Units=1/GPa)
#
#
# Indices 1 2 3 4 5 6 
#
# 1 0.013795 -0.000282 -0.002691 0.000000 -0.003891 0.000000
# 2 -0.000282 0.007421 -0.000561 0.000000 -0.008851 0.000000
# 3 -0.002691 -0.000561 0.011376 0.000000 -0.011318 0.000000
# 4 0.000000 0.000000 0.000000 0.026625 0.000000 -0.005881
# 5 -0.003891 -0.008851 -0.011318 0.000000 0.045719 0.000000
# 6 0.000000 0.000000 0.000000 -0.005881 0.000000 0.031069
#
#
# Mechanical properties :
#
#
# Convention : Reuss Voigt Hill
#
# Bulk Modulus (GPa) = 39.18120 95.22793 67.20456
# Shear Modulus (GPa) = 32.98563 45.36334 39.17449
#
# Velocity S-wave (km/s) = 3.63604 4.26402 3.96249
# Velocity P-wave (km/s) = 5.77337 7.90002 6.91889
#
# Compressibility (1/GPa) = 0.02552245
#
# Stress axis : x y z
#
# Youngs Moduli (GPa) = 72.49040 134.75737 87.90129
#
# Poissons Ratio (x) = 0.03805 0.23658
# Poissons Ratio (y) = 0.02047 0.04932
# Poissons Ratio (z) = 0.19510 0.07561
#
# Static dielectric constant tensor:
#      x y z
#    x 2.214470 0.000000 -0.059360 
#    y 0.000000 2.008680 0.000000 
#    z -0.059360 0.000000 2.041330 
# 
# From -- ./inp_files/93436.got.cif
#   From: 2010.05.17/outbox.cif.g08.bks.cpg/sg15_47_cif.got.tgz:93436.got - 2010.06.03 18:47:42.
