data_PCOD9276272
_publ_section_title
;
Structure prediction by ZEFSAII (Michael W. Deem and Ramdas Pophale) SiO2 
 PCOD9276272
Probable space group: C 2/C
;
_chemical_formula_sum "Si O2"
_cell_formula_units_Z 60
_cell_length_a 16.326531
_cell_length_b 25.740426
_cell_length_c 9.470835
_cell_angle_alpha 90.000000
_cell_angle_beta 129.897884
_cell_angle_gamma 90.000000
_cell_volume 3053.515965
_symmetry_space_group_name_H-M "C 2/C"
_symmetry_group_IT_number 15
_symmetry_cell_setting 'monoclinic'
loop_
_space_group_symop_operation_xyz
x,y,z
-x,y,1/2-z
-x,-y,-z
x,-y,1/2+z
1/2+x,1/2+y,z
1/2-x,1/2+y,1/2-z
1/2-x,1/2-y,-z
1/2+x,1/2-y,1/2+z
loop_
_atom_site_type_symbol
_atom_site_label
_atom_site_fract_x
_atom_site_fract_y
_atom_site_fract_z
Si Si1 0.690017 0.027147 0.007843
Si Si2 0.628379 0.891123 0.652089
Si Si3 0.340459 0.514127 0.919253
Si Si4 0.964567 0.879364 0.551051
Si Si5 0.668334 0.321714 0.304403
Si Si6 0.886763 0.296842 0.695334
Si Si7 0.500000 0.947959 0.750000
Si Si8 0.372331 0.597496 0.505832
O O1 0.636160 0.079342 0.011816
O O2 0.783659 0.005663 0.213728
O O3 0.745757 0.032671 0.918729
O O4 0.598657 0.984092 0.901505
O O5 0.619416 0.829524 0.665735
O O6 0.540304 0.915764 0.658926
O O7 0.745134 0.903854 0.842929
O O8 0.398738 0.463278 0.046785
O O9 0.418387 0.562347 0.988428
O O10 0.872169 0.840576 0.392745
O O11 0.000000 0.869280 0.750000
O O12 0.066885 0.877946 0.560336
O O13 0.793115 0.317689 0.486677
O O14 0.627337 0.264109 0.293045
O O15 0.615739 0.365671 0.346519
O O16 0.000000 0.305881 0.750000
#
# Coordination Sequence:
#
# PCOD9276272 Si02
#       8
#     8   8   8   8   8   8   4   8
#     4  11  22  38  56  86 124 162 200 254 304 372
#     4  10  21  34  60  87 120 150 201 256 306 358
#     4  11  23  37  59  87 126 160 210 244 302 378
#     4  12  24  37  60  89 129 168 196 247 320 371
#     4  10  23  40  67  93 118 159 212 262 301 361
#     4  10  20  40  68  94 115 152 216 267 301 345
#     4  12  20  38  58  86 120 164 194 248 316 362
#     4  10  20  40  58  88 121 161 211 254 298 356
#
# _framework density 19.649477999999998
#
# number of rings (size 3 to 8) (size 9 to 14) (size 15 to 20)
#    0.000    1.333    3.333    4.400    1.867    1.067 
#    0.000    0.000    1.467   16.800    0.000    0.000 
#    0.000    0.000    0.000    0.000    0.000    0.000 
#
# Total GULP energy -167376.715802 kJ/mol
# GULP energy per Si atom -5579.223860 kJ/mol
# Density = 1.960476 g / cm^3
# Si number density = 19.649478 Si / 1000 Ang^3
#
#
#
# Elastic Constant Matrix: (Units=GPa)
#
#
# Indices 1 2 3 4 5 6 
#
# 1 79.7052 4.3858 15.1255 0.0000 4.3037 0.0000
# 2 4.3858 92.3923 42.1503 0.0000 7.0056 0.0000
# 3 15.1255 42.1503 63.4944 0.0000 5.3622 0.0000
# 4 0.0000 0.0000 0.0000 13.9795 0.0000 -3.2655
# 5 4.3037 7.0056 5.3622 0.0000 23.9115 0.0000
# 6 0.0000 0.0000 0.0000 -3.2655 0.0000 15.7335
#
#
#
# Elastic Compliance Matrix: (Units=1/GPa)
#
#
# Indices 1 2 3 4 5 6 
#
# 1 0.013310 0.001270 -0.003853 0.000000 -0.001904 0.000000
# 2 0.001270 0.015770 -0.010562 0.000000 -0.002480 0.000000
# 3 -0.003853 -0.010562 0.023810 0.000000 -0.001551 0.000000
# 4 0.000000 0.000000 0.000000 0.075178 0.000000 0.015603
# 5 -0.001904 -0.002480 -0.001551 0.000000 0.043238 0.000000
# 6 0.000000 0.000000 0.000000 0.015603 0.000000 0.066797
#
#
# Mechanical properties :
#
#
# Convention : Reuss Voigt Hill
#
# Bulk Modulus (GPa) = 37.59343 39.87946 38.73645
# Shear Modulus (GPa) = 18.29767 22.32025 20.30896
#
# Velocity S-wave (km/s) = 3.05487 3.37400 3.21839
# Velocity P-wave (km/s) = 5.62286 5.95970 5.79373
#
# Compressibility (1/GPa) = 0.02660039
#
# Stress axis : x y z
#
# Youngs Moduli (GPa) = 75.12943 63.41347 41.99976
#
# Poissons Ratio (x) = -0.08057 0.16184
# Poissons Ratio (y) = -0.09545 0.44359
# Poissons Ratio (z) = 0.28950 0.66975
#
# Static dielectric constant tensor:
#      x y z
#    x 1.694300 0.000000 0.002720 
#    y 0.000000 1.707210 0.000000 
#    z 0.002720 0.000000 1.732200 
# 
# From -- ./inp_files/52196.got.cif
#   From: 2010.05.17/outbox.cif.g08.bks.cpg/sg15_27_cif.got.tgz:52196.got - 2010.06.03 18:47:42.
