data_PCOD9276041
_publ_section_title
;
Structure prediction by ZEFSAII (Michael W. Deem and Ramdas Pophale) SiO2 
 PCOD9276041
Probable space group: C 2/C
;
_chemical_formula_sum "Si O2"
_cell_formula_units_Z 56
_cell_length_a 14.073891
_cell_length_b 18.220922
_cell_length_c 20.992377
_cell_angle_alpha 90.000000
_cell_angle_beta 150.838187
_cell_angle_gamma 90.000000
_cell_volume 2623.147656
_symmetry_space_group_name_H-M "C 2/C"
_symmetry_group_IT_number 15
_symmetry_cell_setting 'monoclinic'
loop_
_space_group_symop_operation_xyz
x,y,z
-x,y,1/2-z
-x,-y,-z
x,-y,1/2+z
1/2+x,1/2+y,z
1/2-x,1/2+y,1/2-z
1/2-x,1/2-y,-z
1/2+x,1/2-y,1/2+z
loop_
_atom_site_type_symbol
_atom_site_label
_atom_site_fract_x
_atom_site_fract_y
_atom_site_fract_z
Si Si1 0.000000 0.705020 0.750000
Si Si2 0.311324 0.401859 0.615313
Si Si3 0.740970 0.574142 0.212807
Si Si4 0.791735 0.528105 0.855534
Si Si5 0.500000 0.043242 0.250000
Si Si6 0.306736 0.419549 0.464164
Si Si7 0.239839 0.726081 0.207256
Si Si8 0.076679 0.314309 0.070872
O O1 0.180454 0.652426 0.875916
O O2 0.093793 0.742427 0.742203
O O3 0.500000 0.358891 0.750000
O O4 0.321291 0.474282 0.664373
O O5 0.332794 0.421225 0.554850
O O6 0.115191 0.353403 0.509153
O O7 0.763425 0.497730 0.265625
O O8 0.753944 0.639696 0.271844
O O9 0.910718 0.583480 0.259654
O O10 0.520197 0.579134 0.057642
O O11 0.790103 0.614634 0.867421
O O12 0.000000 0.500000 0.000000
O O13 0.678691 0.989725 0.371758
O O14 0.295464 0.765997 0.306056
O O15 0.028767 0.731428 0.047817
#
# Coordination Sequence:
#
# PCOD9276041 Si02
#       8
#     4   8   8   8   4   8   8   8
#     4  11  26  40  66 110 147 180 210 290 367 430
#     4  11  19  38  67 102 131 164 221 292 345 413
#     4  12  24  43  68 101 134 189 232 289 347 415
#     4  10  20  39  67  92 133 176 231 281 341 407
#     4  11  26  44  66  92 143 178 234 294 337 410
#     4  11  23  42  69 105 138 172 227 288 364 412
#     4  12  25  41  67  98 145 180 227 279 361 419
#     4  11  24  41  63  98 141 182 223 281 346 423
#
# _framework density 21.348398
#
# number of rings (size 3 to 8) (size 9 to 14) (size 15 to 20)
#    0.000    0.857    5.714    3.000    5.000    1.143 
#    2.571    0.000    1.571    3.429    0.000    0.000 
#    0.000    0.000    0.000    0.000    0.000    0.000 
#
# Total GULP energy -156015.529939 kJ/mol
# GULP energy per Si atom -5571.983212 kJ/mol
# Density = 2.129981 g / cm^3
# Si number density = 21.348398 Si / 1000 Ang^3
#
#
#
# Elastic Constant Matrix: (Units=GPa)
#
#
# Indices 1 2 3 4 5 6 
#
# 1 91.9990 18.6272 30.3431 0.0013 7.1375 0.0003
# 2 18.6272 67.3120 41.1674 0.0032 -13.8526 0.0014
# 3 30.3431 41.1674 110.3241 0.0043 -14.8998 0.0017
# 4 0.0013 0.0032 0.0043 38.5678 0.0024 1.7538
# 5 7.1375 -13.8526 -14.8998 0.0024 30.8773 0.0010
# 6 0.0003 0.0014 0.0017 1.7538 0.0010 16.6604
#
#
#
# Elastic Compliance Matrix: (Units=1/GPa)
#
#
# Indices 1 2 3 4 5 6 
#
# 1 0.012980 -0.002758 -0.003330 0.000001 -0.005845 0.000001
# 2 -0.002758 0.020760 -0.006038 -0.000001 0.007038 -0.000001
# 3 -0.003330 -0.006038 0.012806 -0.000001 0.004240 -0.000001
# 4 0.000001 -0.000001 -0.000001 0.026053 -0.000003 -0.002743
# 5 -0.005845 0.007038 0.004240 -0.000003 0.038941 -0.000003
# 6 0.000001 -0.000001 -0.000001 -0.002743 -0.000003 0.060311
#
#
# Mechanical properties :
#
#
# Convention : Reuss Voigt Hill
#
# Bulk Modulus (GPa) = 44.85444 49.99005 47.42225
# Shear Modulus (GPa) = 24.56586 29.18760 26.87673
#
# Velocity S-wave (km/s) = 3.39590 3.70158 3.55203
# Velocity P-wave (km/s) = 6.03593 6.46035 6.25174
#
# Compressibility (1/GPa) = 0.02229434
#
# Stress axis : x y z
#
# Youngs Moduli (GPa) = 77.04219 48.16869 78.08996
#
# Poissons Ratio (x) = 0.13285 0.26005
# Poissons Ratio (y) = 0.21249 0.47148
# Poissons Ratio (z) = 0.25656 0.29083
#
# Static dielectric constant tensor:
#      x y z
#    x 1.826110 0.000000 0.026960 
#    y 0.000000 1.829460 0.000000 
#    z 0.026960 0.000000 1.831270 
# 
# From -- ./inp_files/245218.got.cif
#   From: 2010.05.17/outbox.cif.g08.bks.cpg/sg15_123_cif.got.tgz:245218.got - 2010.06.03 18:47:42.
