data_PCOD9276501
_publ_section_title
;
Structure prediction by ZEFSAII (Michael W. Deem and Ramdas Pophale) SiO2 
 PCOD9276501
Probable space group: C 2/C
;
_chemical_formula_sum "Si O2"
_cell_formula_units_Z 44
_cell_length_a 13.489817
_cell_length_b 6.946098
_cell_length_c 18.506308
_cell_angle_alpha 90.000000
_cell_angle_beta 102.604792
_cell_angle_gamma 90.000000
_cell_volume 1692.276825
_symmetry_space_group_name_H-M "C 2/C"
_symmetry_group_IT_number 15
_symmetry_cell_setting 'monoclinic'
loop_
_space_group_symop_operation_xyz
x,y,z
-x,y,1/2-z
-x,-y,-z
x,-y,1/2+z
1/2+x,1/2+y,z
1/2-x,1/2+y,1/2-z
1/2-x,1/2-y,-z
1/2+x,1/2-y,1/2+z
loop_
_atom_site_type_symbol
_atom_site_label
_atom_site_fract_x
_atom_site_fract_y
_atom_site_fract_z
Si Si1 0.682118 0.923412 0.373389
Si Si2 0.000000 0.500524 0.250000
Si Si3 0.616744 0.950771 0.009248
Si Si4 0.865036 0.180128 0.808851
Si Si5 0.448572 0.557605 0.567057
Si Si6 0.217683 0.888129 0.355814
O O1 0.575180 0.889812 0.315509
O O2 0.667973 0.912589 0.457554
O O3 0.706116 0.153208 0.361075
O O4 0.774354 0.808105 0.352298
O O5 0.925661 0.635727 0.286515
O O6 0.611452 0.745975 0.969977
O O7 0.672645 0.931390 0.093827
O O8 0.500000 0.000000 0.000000
O O9 0.687014 0.576523 0.768141
O O10 0.955978 0.074046 0.864381
O O11 0.500000 0.500000 0.500000
O O12 0.359608 0.488334 0.606341
#
# Coordination Sequence:
#
# PCOD9276501 Si02
#       6
#     8   4   8   8   8   8
#     4  10  21  38  65  85 125 164 206 254 320 368
#     4  10  20  40  62  92 122 168 208 262 314 380
#     4  11  23  39  59  91 129 162 205 261 317 374
#     4  11  19  37  66  89 116 164 213 254 310 379
#     4  11  20  39  64  87 122 163 211 254 308 380
#     4  10  21  38  58  90 121 162 206 253 316 370
#
# _framework density 26.000471999999998
#
# number of rings (size 3 to 8) (size 9 to 14) (size 15 to 20)
#    0.000    1.455    5.455    4.364    2.545    0.000 
#    0.000    7.273    0.000    0.000    0.000    0.000 
#    0.000    0.000    0.000    0.000    0.000    0.000 
#
# Total GULP energy -122922.644129 kJ/mol
# GULP energy per Si atom -5587.392915 kJ/mol
# Density = 2.594129 g / cm^3
# Si number density = 26.000472 Si / 1000 Ang^3
#
#
#
# Elastic Constant Matrix: (Units=GPa)
#
#
# Indices 1 2 3 4 5 6 
#
# 1 179.7913 20.7315 74.0736 0.0000 3.6071 0.0000
# 2 20.7315 60.9075 23.7528 0.0000 -2.4789 0.0000
# 3 74.0736 23.7528 172.6101 0.0000 24.7798 0.0000
# 4 0.0000 0.0000 0.0000 30.8269 0.0000 -4.1590
# 5 3.6071 -2.4789 24.7798 0.0000 82.9421 0.0000
# 6 0.0000 0.0000 0.0000 -4.1590 0.0000 21.0130
#
#
#
# Elastic Compliance Matrix: (Units=1/GPa)
#
#
# Indices 1 2 3 4 5 6 
#
# 1 0.006867 -0.001202 -0.002856 0.000000 0.000519 0.000000
# 2 -0.001202 0.017692 -0.002092 0.000000 0.001206 0.000000
# 3 -0.002856 -0.002092 0.007625 0.000000 -0.002216 0.000000
# 4 0.000000 0.000000 0.000000 0.033329 0.000000 0.006597
# 5 0.000519 0.001206 -0.002216 0.000000 0.012732 0.000000
# 6 0.000000 0.000000 0.000000 0.006597 0.000000 0.048895
#
#
# Mechanical properties :
#
#
# Convention : Reuss Voigt Hill
#
# Bulk Modulus (GPa) = 50.29128 72.26943 61.28035
# Shear Modulus (GPa) = 34.23035 46.60645 40.41840
#
# Velocity S-wave (km/s) = 3.63234 4.23841 3.94702
# Velocity P-wave (km/s) = 6.08081 7.19778 6.66274
#
# Compressibility (1/GPa) = 0.01988416
#
# Stress axis : x y z
#
# Youngs Moduli (GPa) = 145.62733 56.52125 131.14820
#
# Poissons Ratio (x) = 0.06797 0.37453
# Poissons Ratio (y) = 0.17512 0.27433
# Poissons Ratio (z) = 0.41588 0.11823
#
# Static dielectric constant tensor:
#      x y z
#    x 2.011360 0.000000 -0.060990 
#    y 0.000000 2.154900 0.000000 
#    z -0.060990 0.000000 1.994130 
# 
# From -- ./inp_files/236121.got.cif
#   From: 2010.05.17/outbox.cif.g08.bks.cpg/sg15_119_cif.got.tgz:236121.got - 2010.06.03 18:47:42.
