data_PCOD9276422
_publ_section_title
;
Structure prediction by ZEFSAII (Michael W. Deem and Ramdas Pophale) SiO2 
 PCOD9276422
Probable space group: C 2/C
;
_chemical_formula_sum "Si O2"
_cell_formula_units_Z 44
_cell_length_a 12.255587
_cell_length_b 18.836306
_cell_length_c 12.427055
_cell_angle_alpha 90.000000
_cell_angle_beta 47.996676
_cell_angle_gamma 90.000000
_cell_volume 2131.811720
_symmetry_space_group_name_H-M "C 2/C"
_symmetry_group_IT_number 15
_symmetry_cell_setting 'monoclinic'
loop_
_space_group_symop_operation_xyz
x,y,z
-x,y,1/2-z
-x,-y,-z
x,-y,1/2+z
1/2+x,1/2+y,z
1/2-x,1/2+y,1/2-z
1/2-x,1/2-y,-z
1/2+x,1/2-y,1/2+z
loop_
_atom_site_type_symbol
_atom_site_label
_atom_site_fract_x
_atom_site_fract_y
_atom_site_fract_z
Si Si1 0.332906 0.597450 0.392318
Si Si2 0.675623 0.566830 0.641932
Si Si3 0.000000 0.700404 0.750000
Si Si4 0.125911 0.312086 0.572812
Si Si5 0.105982 0.714842 0.459182
Si Si6 0.266992 0.637419 0.672901
O O1 0.500000 0.610010 0.250000
O O2 0.293655 0.515967 0.393588
O O3 0.220397 0.650747 0.405505
O O4 0.331907 0.605751 0.521500
O O5 0.500000 0.579519 0.750000
O O6 0.776210 0.616053 0.498399
O O7 0.711025 0.590661 0.738981
O O8 0.900349 0.648469 0.747187
O O9 0.075160 0.741809 0.602710
O O10 0.250000 0.250000 0.500000
O O11 0.000000 0.310382 0.750000
O O12 0.033789 0.305110 0.521817
O O13 0.175485 0.781979 0.352040
#
# Coordination Sequence:
#
# PCOD9276422 Si02
#       6
#     8   8   4   8   8   8
#     4  10  25  42  69 102 137 184 237 292 360 418
#     4  11  25  48  68 100 144 192 234 288 360 428
#     4  10  20  40  62 100 128 168 224 284 346 382
#     4  12  26  45  70 105 143 191 236 287 353 428
#     4  11  24  40  71 102 130 182 230 297 348 409
#     4  11  23  41  68  97 136 173 232 298 342 422
#
# _framework density 20.639720000000001
#
# number of rings (size 3 to 8) (size 9 to 14) (size 15 to 20)
#    0.000    1.091    1.818    4.909    5.091    6.545 
#    6.545    0.000    0.000    0.000    0.000    0.000 
#    0.000    0.000    0.000    0.000    0.000    0.000 
#
# Total GULP energy -122769.346054 kJ/mol
# GULP energy per Si atom -5580.424821 kJ/mol
# Density = 2.059274 g / cm^3
# Si number density = 20.639720 Si / 1000 Ang^3
#
#
#
# Elastic Constant Matrix: (Units=GPa)
#
#
# Indices 1 2 3 4 5 6 
#
# 1 101.6584 40.6442 36.4497 0.0000 -7.3773 0.0000
# 2 40.6442 155.7816 62.1053 0.0000 -14.4620 0.0000
# 3 36.4497 62.1053 126.1818 0.0000 5.5566 0.0000
# 4 0.0000 0.0000 0.0000 10.7426 0.0000 12.9171
# 5 -7.3773 -14.4620 5.5566 0.0000 33.7444 0.0000
# 6 0.0000 0.0000 0.0000 12.9171 0.0000 -12.8215
#
#
#
# Elastic Compliance Matrix: (Units=1/GPa)
#
#
# Indices 1 2 3 4 5 6 
#
# 1 0.011640 -0.001810 -0.002568 0.000000 0.002192 0.000000
# 2 -0.001810 0.008873 -0.004024 0.000000 0.004070 0.000000
# 3 -0.002568 -0.004024 0.010827 0.000000 -0.004069 0.000000
# 4 0.000000 0.000000 0.000000 0.042095 0.000000 0.042409
# 5 0.002192 0.004070 -0.004069 0.000000 0.032528 0.000000
# 6 0.000000 0.000000 0.000000 0.042409 0.000000 -0.035269
#
#
# Mechanical properties :
#
#
# Convention : Reuss Voigt Hill
#
# Bulk Modulus (GPa) = 68.79131 73.55782 71.17457
# Shear Modulus (GPa) = 54.14588 22.62794 38.38691
#
# Velocity S-wave (km/s) = 5.12745 3.31468 4.31728
# Velocity P-wave (km/s) = 8.27383 7.09689 7.70786
#
# Compressibility (1/GPa) = 0.01453672
#
# Stress axis : x y z
#
# Youngs Moduli (GPa) = 85.90815 112.69636 92.36435
#
# Poissons Ratio (x) = 0.20393 0.23723
# Poissons Ratio (y) = 0.15546 0.37166
# Poissons Ratio (z) = 0.22065 0.45348
#
# Static dielectric constant tensor:
#      x y z
#    x 1.757290 0.000000 -0.060780 
#    y 0.000000 1.743320 0.000000 
#    z -0.060780 0.000000 1.986210 
# 
# From -- ./inp_files/88711.got.cif
#   From: 2010.05.17/outbox.cif.g08.bks.cpg/sg15_45_cif.got.tgz:88711.got - 2010.06.03 18:47:42.
