data_PCOD9276260
_publ_section_title
;
Structure prediction by ZEFSAII (Michael W. Deem and Ramdas Pophale) SiO2 
 PCOD9276260
Probable space group: C 2/C
;
_chemical_formula_sum "Si O2"
_cell_formula_units_Z 40
_cell_length_a 12.285680
_cell_length_b 28.905842
_cell_length_c 5.360699
_cell_angle_alpha 90.000000
_cell_angle_beta 107.880958
_cell_angle_gamma 90.000000
_cell_volume 1811.776901
_symmetry_space_group_name_H-M "C 2/C"
_symmetry_group_IT_number 15
_symmetry_cell_setting 'monoclinic'
loop_
_space_group_symop_operation_xyz
x,y,z
-x,y,1/2-z
-x,-y,-z
x,-y,1/2+z
1/2+x,1/2+y,z
1/2-x,1/2+y,1/2-z
1/2-x,1/2-y,-z
1/2+x,1/2-y,1/2+z
loop_
_atom_site_type_symbol
_atom_site_label
_atom_site_fract_x
_atom_site_fract_y
_atom_site_fract_z
Si Si1 0.754388 0.606118 0.144127
Si Si2 0.688288 0.338927 0.093928
Si Si3 0.500000 0.133933 0.250000
Si Si4 0.099457 0.717420 0.635668
Si Si5 0.049156 0.947959 0.534316
Si Si6 0.500000 0.708230 0.750000
O O1 0.706596 0.637805 0.337161
O O2 0.684759 0.558312 0.121469
O O3 0.891055 0.604991 0.263848
O O4 0.724514 0.627756 0.852226
O O5 0.779498 0.296580 0.166816
O O6 0.563048 0.321606 0.083828
O O7 0.548680 0.169627 0.488177
O O8 0.000000 0.733196 0.750000
O O9 0.097630 0.757678 0.429151
O O10 0.000000 0.926021 0.750000
O O11 0.000000 0.000000 0.500000
O O12 0.000000 0.925700 0.250000
#
# Coordination Sequence:
#
# PCOD9276260 Si02
#       6
#     8   8   4   8   8   4
#     4  11  23  40  66  90 127 161 210 267 307 377
#     4  11  25  39  59  92 122 166 218 264 317 365
#     4   9  20  40  60  90 116 168 222 260 308 364
#     4  10  20  40  58  78 125 170 216 268 321 364
#     4  10  22  41  66  96 132 164 194 238 325 389
#     4  11  26  36  56  86 124 172 218 270 318 382
#
# _framework density 22.077776
#
# number of rings (size 3 to 8) (size 9 to 14) (size 15 to 20)
#    0.000    1.600    2.000    1.800    7.000    0.800 
#    0.000    0.000    0.000    4.800    0.000    0.000 
#    0.000    0.000    0.000    0.000    0.000    0.000 
#
# Total GULP energy -111640.404422 kJ/mol
# GULP energy per Si atom -5582.020221 kJ/mol
# Density = 2.202753 g / cm^3
# Si number density = 22.077776 Si / 1000 Ang^3
#
#
#
# Elastic Constant Matrix: (Units=GPa)
#
#
# Indices 1 2 3 4 5 6 
#
# 1 154.1618 47.5727 7.5441 0.0000 4.2004 0.0000
# 2 47.5727 70.3253 5.5976 0.0000 10.4587 0.0000
# 3 7.5441 5.5976 71.8435 0.0000 -22.7014 0.0000
# 4 0.0000 0.0000 0.0000 -12.7528 0.0000 10.8814
# 5 4.2004 10.4587 -22.7014 0.0000 36.7855 0.0000
# 6 0.0000 0.0000 0.0000 10.8814 0.0000 91.5367
#
#
#
# Elastic Compliance Matrix: (Units=1/GPa)
#
#
# Indices 1 2 3 4 5 6 
#
# 1 0.008218 -0.005610 -0.000271 0.000000 0.000489 0.000000
# 2 -0.005610 0.019253 -0.003029 0.000000 -0.006702 0.000000
# 3 -0.000271 -0.003029 0.017970 0.000000 0.011982 0.000000
# 4 0.000000 0.000000 0.000000 -0.071193 0.000000 0.008463
# 5 0.000489 -0.006702 0.011982 0.000000 0.036428 0.000000
# 6 0.000000 0.000000 0.000000 0.008463 0.000000 0.009919
#
#
# Mechanical properties :
#
#
# Convention : Reuss Voigt Hill
#
# Bulk Modulus (GPa) = 36.20612 46.41773 41.31193
# Shear Modulus (GPa) = 104.99538 38.82164 71.90851
#
# Velocity S-wave (km/s) = 6.90364 4.19788 5.71325
# Velocity P-wave (km/s) = 8.94327 6.67582 7.89141
#
# Compressibility (1/GPa) = 0.02761964
#
# Stress axis : x y z
#
# Youngs Moduli (GPa) = 121.68528 51.94083 55.64953
#
# Poissons Ratio (x) = 0.29141 0.01509
# Poissons Ratio (y) = 0.68270 0.16855
# Poissons Ratio (z) = 0.03300 0.15732
#
# Static dielectric constant tensor:
#      x y z
#    x 1.854690 0.000000 -0.071680 
#    y 0.000000 1.351760 0.000000 
#    z -0.071680 0.000000 1.992830 
# 
# From -- ./inp_files/5942.got.cif
#   From: 2010.05.17/outbox.cif.g08.bks.cpg/sg15_3_cif.got.tgz:5942.got - 2010.06.03 18:47:42.
