data_PCOD9276005
_publ_section_title
;
Structure prediction by ZEFSAII (Michael W. Deem and Ramdas Pophale) SiO2 
 PCOD9276005
Probable space group: C 2/C
;
_chemical_formula_sum "Si O2"
_cell_formula_units_Z 56
_cell_length_a 10.441229
_cell_length_b 34.926323
_cell_length_c 8.427456
_cell_angle_alpha 90.000000
_cell_angle_beta 50.901596
_cell_angle_gamma 90.000000
_cell_volume 2385.055582
_symmetry_space_group_name_H-M "C 2/C"
_symmetry_group_IT_number 15
_symmetry_cell_setting 'monoclinic'
loop_
_space_group_symop_operation_xyz
x,y,z
-x,y,1/2-z
-x,-y,-z
x,-y,1/2+z
1/2+x,1/2+y,z
1/2-x,1/2+y,1/2-z
1/2-x,1/2-y,-z
1/2+x,1/2-y,1/2+z
loop_
_atom_site_type_symbol
_atom_site_label
_atom_site_fract_x
_atom_site_fract_y
_atom_site_fract_z
Si Si1 0.332473 0.025281 0.131329
Si Si2 0.785794 0.906039 0.995553
Si Si3 0.764881 0.855668 0.722924
Si Si4 0.307834 0.206558 0.449435
Si Si5 0.083358 0.660032 0.839328
Si Si6 0.322183 0.917163 0.919212
Si Si7 0.119707 0.953187 0.306098
O O1 0.320727 0.046295 0.308012
O O2 0.174422 0.997125 0.261081
O O3 0.317212 0.059127 0.011868
O O4 0.500000 0.000000 0.000000
O O5 0.683580 0.875476 0.183889
O O6 0.911204 0.931685 0.005062
O O7 0.845364 0.877408 0.808546
O O8 0.791304 0.815402 0.614349
O O9 0.794990 0.884732 0.554318
O O10 0.576642 0.853408 0.936493
O O11 0.500000 0.206076 0.250000
O O12 0.250000 0.250000 0.500000
O O13 0.307681 0.184694 0.621164
O O14 0.000000 0.680798 0.750000
O O15 0.500000 0.900304 0.750000
O O16 0.286136 0.931555 0.119593
O O17 0.000000 0.947223 0.250000
#
# Coordination Sequence:
#
# PCOD9276005 Si02
#       7
#     8   8   8   8   8   8   8
#     4  11  24  37  59  93 122 158 223 283 327 365
#     4  10  22  38  62  88 125 166 220 270 317 385
#     4   9  19  35  61  91 118 164 208 258 318 382
#     4  10  20  39  66  98 132 163 205 256 323 390
#     4   9  18  35  64  95 125 164 210 261 321 382
#     4  11  20  37  61  86 116 157 214 269 315 382
#     4  12  26  40  57  85 127 172 214 271 342 385
#
# _framework density 23.479534999999998
#
# number of rings (size 3 to 8) (size 9 to 14) (size 15 to 20)
#    0.000    1.714    1.429    3.857    6.000    2.286 
#    0.000   11.429    0.000    1.714    0.000    0.000 
#    0.000    0.000    0.000    0.000    0.000    0.000 
#
# Total GULP energy -155990.229325 kJ/mol
# GULP energy per Si atom -5571.079619 kJ/mol
# Density = 2.342609 g / cm^3
# Si number density = 23.479535 Si / 1000 Ang^3
#
#
#
# Elastic Constant Matrix: (Units=GPa)
#
#
# Indices 1 2 3 4 5 6 
#
# 1 109.3098 75.8744 22.8113 0.0000 32.4378 0.0000
# 2 75.8744 177.2620 68.6085 0.0000 34.1428 0.0000
# 3 22.8113 68.6085 68.9122 0.0000 28.2413 0.0000
# 4 0.0000 0.0000 0.0000 35.3612 0.0000 7.1957
# 5 32.4378 34.1428 28.2413 0.0000 36.3834 0.0000
# 6 0.0000 0.0000 0.0000 7.1957 0.0000 35.3138
#
#
#
# Elastic Compliance Matrix: (Units=1/GPa)
#
#
# Indices 1 2 3 4 5 6 
#
# 1 0.016883 -0.007469 0.007543 0.000000 -0.013898 0.000000
# 2 -0.007469 0.012607 -0.011673 0.000000 0.003889 0.000000
# 3 0.007543 -0.011673 0.032121 0.000000 -0.020703 0.000000
# 4 0.000000 0.000000 0.000000 0.029503 0.000000 -0.006012
# 5 -0.013898 0.003889 -0.020703 0.000000 0.052297 0.000000
# 6 0.000000 0.000000 0.000000 -0.006012 0.000000 0.029542
#
#
# Mechanical properties :
#
#
# Convention : Reuss Voigt Hill
#
# Bulk Modulus (GPa) = 26.03300 76.67470 51.35385
# Shear Modulus (GPa) = 23.92857 33.95767 28.94312
#
# Velocity S-wave (km/s) = 3.19584 3.80711 3.51479
# Velocity P-wave (km/s) = 4.97287 7.21473 6.19604
#
# Compressibility (1/GPa) = 0.03841279
#
# Stress axis : x y z
#
# Youngs Moduli (GPa) = 59.23149 79.31844 31.13271
#
# Poissons Ratio (x) = 0.59244 -0.23484
# Poissons Ratio (y) = 0.44241 0.36342
# Poissons Ratio (z) = -0.44680 0.92590
#
# Static dielectric constant tensor:
#      x y z
#    x 2.184240 0.000000 -0.087320 
#    y 0.000000 1.864730 0.000000 
#    z -0.087320 0.000000 1.989440 
# 
# From -- ./inp_files/35567.got.cif
#   From: 2010.05.17/outbox.cif.g08.bks.cpg/sg15_18_cif.got.tgz:35567.got - 2010.06.03 18:47:42.
