data_PCOD9276217
_publ_section_title
;
Structure prediction by ZEFSAII (Michael W. Deem and Ramdas Pophale) SiO2 
 PCOD9276217
Probable space group: C 2/C
;
_chemical_formula_sum "Si O2"
_cell_formula_units_Z 40
_cell_length_a 8.257332
_cell_length_b 12.798143
_cell_length_c 18.498643
_cell_angle_alpha 90.000000
_cell_angle_beta 58.589684
_cell_angle_gamma 90.000000
_cell_volume 1668.430840
_symmetry_space_group_name_H-M "C 2/C"
_symmetry_group_IT_number 15
_symmetry_cell_setting 'monoclinic'
loop_
_space_group_symop_operation_xyz
x,y,z
-x,y,1/2-z
-x,-y,-z
x,-y,1/2+z
1/2+x,1/2+y,z
1/2-x,1/2+y,1/2-z
1/2-x,1/2-y,-z
1/2+x,1/2-y,1/2+z
loop_
_atom_site_type_symbol
_atom_site_label
_atom_site_fract_x
_atom_site_fract_y
_atom_site_fract_z
Si Si1 0.674207 0.427871 0.624840
Si Si2 0.793402 0.052592 0.547148
Si Si3 0.035895 0.290223 0.160514
Si Si4 0.235842 0.156389 0.607314
Si Si5 0.557378 0.137817 0.098854
O O1 0.756342 0.427671 0.524636
O O2 0.523799 0.335362 0.660176
O O3 0.622836 0.548576 0.646737
O O4 0.839633 0.391137 0.639430
O O5 0.746411 0.163745 0.593616
O O6 0.658187 0.963185 0.609860
O O7 0.000000 0.000000 0.500000
O O8 0.000000 0.324525 0.250000
O O9 0.889564 0.332175 0.135130
O O10 0.345589 0.149474 0.504017
O O11 0.103469 0.257403 0.631267
#
# Coordination Sequence:
#
# PCOD9276217 Si02
#       5
#     8   8   8   8   8
#     4  11  22  42  68  96 130 173 230 278 326 406
#     4  11  22  41  72 104 130 181 234 283 337 406
#     4  12  26  45  63  97 147 179 219 284 352 414
#     4  10  21  42  64  98 135 167 218 285 333 396
#     4  10  20  39  73 100 124 166 234 285 326 384
#
# _framework density 23.974623000000001
#
# number of rings (size 3 to 8) (size 9 to 14) (size 15 to 20)
#    0.000    1.200    4.000    3.000    8.400    0.000 
#    7.200    1.000    0.000    0.000    0.000    0.000 
#    0.000    0.000    0.000    0.000    0.000    0.000 
#
# Total GULP energy -111799.007916 kJ/mol
# GULP energy per Si atom -5589.950396 kJ/mol
# Density = 2.392006 g / cm^3
# Si number density = 23.974623 Si / 1000 Ang^3
#
#
#
# Elastic Constant Matrix: (Units=GPa)
#
#
# Indices 1 2 3 4 5 6 
#
# 1 59.2930 38.4865 9.5100 0.0000 15.7395 0.0000
# 2 38.4865 147.5274 45.8801 0.0000 12.0489 0.0000
# 3 9.5100 45.8801 53.0012 0.0000 7.0368 0.0000
# 4 0.0000 0.0000 0.0000 -3.7170 0.0000 11.7309
# 5 15.7395 12.0489 7.0368 0.0000 17.4413 0.0000
# 6 0.0000 0.0000 0.0000 11.7309 0.0000 44.6126
#
#
#
# Elastic Compliance Matrix: (Units=1/GPa)
#
#
# Indices 1 2 3 4 5 6 
#
# 1 0.025667 -0.006080 0.003355 0.000000 -0.020316 0.000000
# 2 -0.006080 0.010904 -0.008534 0.000000 0.001397 0.000000
# 3 0.003355 -0.008534 0.026702 0.000000 -0.007905 0.000000
# 4 0.000000 0.000000 0.000000 -0.147023 0.000000 0.038660
# 5 -0.020316 0.001397 -0.007905 0.000000 0.077893 0.000000
# 6 0.000000 0.000000 0.000000 0.038660 0.000000 0.012250
#
#
# Mechanical properties :
#
#
# Convention : Reuss Voigt Hill
#
# Bulk Modulus (GPa) = 24.53646 49.73055 37.13350
# Shear Modulus (GPa) = 117.65890 22.73038 70.19464
#
# Velocity S-wave (km/s) = 7.01306 3.08247 5.41685
# Velocity P-wave (km/s) = 8.70826 5.78419 7.39225
#
# Compressibility (1/GPa) = 0.04075568
#
# Stress axis : x y z
#
# Youngs Moduli (GPa) = 38.96117 91.70586 37.44989
#
# Poissons Ratio (x) = 0.55757 -0.12564
# Poissons Ratio (y) = 0.23688 0.31959
# Poissons Ratio (z) = -0.13071 0.78260
#
# Static dielectric constant tensor:
#      x y z
#    x 1.906360 0.000000 -0.022850 
#    y 0.000000 1.933890 0.000000 
#    z -0.022850 0.000000 1.902800 
# 
# From -- ./inp_files/187834.got.cif
#   From: 2010.05.17/outbox.cif.g08.bks.cpg/sg15_94_cif.got.tgz:187834.got - 2010.06.03 18:47:42.
