data_PCOD9276682
_publ_section_title
;
Structure prediction by ZEFSAII (Michael W. Deem and Ramdas Pophale) SiO2 
 PCOD9276682
Probable space group: C 2/C
;
_chemical_formula_sum "Si O2"
_cell_formula_units_Z 48
_cell_length_a 8.765526
_cell_length_b 25.483141
_cell_length_c 18.959329
_cell_angle_alpha 90.000000
_cell_angle_beta 149.923548
_cell_angle_gamma 90.000000
_cell_volume 2122.394343
_symmetry_space_group_name_H-M "C 2/C"
_symmetry_group_IT_number 15
_symmetry_cell_setting 'monoclinic'
loop_
_space_group_symop_operation_xyz
x,y,z
-x,y,1/2-z
-x,-y,-z
x,-y,1/2+z
1/2+x,1/2+y,z
1/2-x,1/2+y,1/2-z
1/2-x,1/2-y,-z
1/2+x,1/2-y,1/2+z
loop_
_atom_site_type_symbol
_atom_site_label
_atom_site_fract_x
_atom_site_fract_y
_atom_site_fract_z
Si Si1 0.717419 0.208496 0.399092
Si Si2 0.574726 0.403780 0.468964
Si Si3 0.285339 0.542806 0.733216
Si Si4 0.742795 0.900655 0.693270
Si Si5 0.660498 0.783819 0.616523
Si Si6 0.929744 0.053074 0.062359
O O1 0.500000 0.192111 0.250000
O O2 0.888832 0.156788 0.494953
O O3 0.491849 0.228857 0.369711
O O4 0.950057 0.255251 0.475705
O O5 0.349347 0.409962 0.313367
O O6 0.488074 0.437832 0.502915
O O7 0.908965 0.422327 0.575387
O O8 0.500000 0.546239 0.750000
O O9 0.385008 0.493712 0.823939
O O10 0.930015 0.544590 0.570192
O O11 0.677072 0.846927 0.624751
O O12 0.000000 0.929971 0.750000
O O13 0.920756 0.896260 0.838582
O O14 0.000000 0.763548 0.750000
#
# Coordination Sequence:
#
# PCOD9276682 Si02
#       6
#     8   8   8   8   8   8
#     4  10  21  40  63  92 128 167 210 260 313 370
#     4  11  23  41  64  94 130 167 212 263 316 376
#     4  12  26  44  66  95 129 166 211 261 316 380
#     4  10  20  40  64  90 125 167 212 261 315 371
#     4   9  20  38  61  89 124 164 209 258 309 370
#     4  12  24  41  66  94 126 167 212 261 318 374
#
# _framework density 22.615964999999999
#
# number of rings (size 3 to 8) (size 9 to 14) (size 15 to 20)
#    0.000    1.333    0.000    6.500    0.000    3.333 
#    0.000   17.500    0.000    0.000    0.000    0.000 
#    0.000    0.000    0.000    0.000    0.000    0.000 
#
# Total GULP energy -133900.922745 kJ/mol
# GULP energy per Si atom -5579.205114 kJ/mol
# Density = 2.256449 g / cm^3
# Si number density = 22.615965 Si / 1000 Ang^3
#
#
#
# Elastic Constant Matrix: (Units=GPa)
#
#
# Indices 1 2 3 4 5 6 
#
# 1 72.1406 7.8899 -16.8726 0.0171 10.0138 0.2410
# 2 7.8899 97.3688 48.0980 -0.0037 -4.9381 -0.0114
# 3 -16.8726 48.0980 92.9348 0.0327 4.1923 0.3401
# 4 0.0171 -0.0037 0.0327 26.7177 0.0088 -21.4966
# 5 10.0138 -4.9381 4.1923 0.0088 46.1892 0.1298
# 6 0.2410 -0.0114 0.3401 -21.4966 0.1298 -60.2333
#
#
#
# Elastic Compliance Matrix: (Units=1/GPa)
#
#
# Indices 1 2 3 4 5 6 
#
# 1 0.016163 -0.004141 0.005277 0.000041 -0.004426 0.000071
# 2 -0.004141 0.015071 -0.008700 -0.000027 0.003299 -0.000052
# 3 0.005277 -0.008700 0.016381 0.000049 -0.003561 0.000090
# 4 0.000041 -0.000027 0.000049 0.029079 0.000007 -0.010377
# 5 -0.004426 0.003299 -0.003561 0.000007 0.023285 0.000009
# 6 0.000071 -0.000052 0.000090 -0.010377 0.000009 -0.012898
#
#
# Mechanical properties :
#
#
# Convention : Reuss Voigt Hill
#
# Bulk Modulus (GPa) = 30.78169 37.85275 34.31722
# Shear Modulus (GPa) = 44.23256 17.42331 30.82793
#
# Velocity S-wave (km/s) = 4.42725 2.77862 3.69603
# Velocity P-wave (km/s) = 6.30668 5.20267 5.78109
#
# Compressibility (1/GPa) = 0.03248684
#
# Stress axis : x y z
#
# Youngs Moduli (GPa) = 61.86962 66.35366 61.04517
#
# Poissons Ratio (x) = 0.27476 -0.32213
# Poissons Ratio (y) = 0.25619 0.53110
# Poissons Ratio (z) = -0.32648 0.57729
#
# Static dielectric constant tensor:
#      x y z
#    x 1.897680 0.000000 -0.031320 
#    y 0.000000 1.958010 0.000000 
#    z -0.031320 0.000000 1.864780 
# 
# From -- ./inp_files/194328.got.cif
#   From: 2010.05.17/outbox.cif.g08.bks.cpg/sg15_98_cif.got.tgz:194328.got - 2010.06.03 18:47:42.
