data_PCOD9276981
_publ_section_title
;
Structure prediction by ZEFSAII (Michael W. Deem and Ramdas Pophale) SiO2 
 PCOD9276981
Probable space group: C 2/C
;
_chemical_formula_sum "Si O2"
_cell_formula_units_Z 48
_cell_length_a 13.804505
_cell_length_b 24.124624
_cell_length_c 9.184937
_cell_angle_alpha 90.000000
_cell_angle_beta 135.182260
_cell_angle_gamma 90.000000
_cell_volume 2156.039260
_symmetry_space_group_name_H-M "C 2/C"
_symmetry_group_IT_number 15
_symmetry_cell_setting 'monoclinic'
loop_
_space_group_symop_operation_xyz
x,y,z
-x,y,1/2-z
-x,-y,-z
x,-y,1/2+z
1/2+x,1/2+y,z
1/2-x,1/2+y,1/2-z
1/2-x,1/2-y,-z
1/2+x,1/2-y,1/2+z
loop_
_atom_site_type_symbol
_atom_site_label
_atom_site_fract_x
_atom_site_fract_y
_atom_site_fract_z
Si Si1 0.941486 0.315817 0.441395
Si Si2 0.000000 0.239450 0.750000
Si Si3 0.000000 0.241249 0.250000
Si Si4 0.398488 0.025157 0.511634
Si Si5 0.540651 0.662450 0.544205
Si Si6 0.269818 0.868724 0.727644
Si Si7 0.737449 0.090935 0.613762
O O1 0.911242 0.277362 0.548400
O O2 0.913710 0.281979 0.264251
O O3 0.105648 0.325958 0.617436
O O4 0.870444 0.374208 0.401549
O O5 0.080130 0.199950 0.725131
O O6 0.924028 0.198753 0.059187
O O7 0.312865 0.076884 0.363486
O O8 0.500000 0.000000 0.500000
O O9 0.300752 0.973114 0.442468
O O10 0.500000 0.041666 0.750000
O O11 0.377393 0.653460 0.378573
O O12 0.619722 0.605260 0.654222
O O13 0.265643 0.885603 0.553481
#
# Coordination Sequence:
#
# PCOD9276981 Si02
#       7
#     8   4   4   8   8   8   8
#     4  11  23  39  73  96 136 181 234 279 328 404
#     4  10  20  40  66  98 126 186 220 274 322 400
#     4  10  28  46  60 110 142 182 230 280 348 396
#     4  12  25  44  74 105 134 172 230 293 338 401
#     4  11  26  44  70  98 147 177 223 285 344 414
#     4  12  24  45  72 105 134 180 236 281 343 404
#     4  12  23  46  72 104 132 184 233 279 342 415
#
# _framework density 22.263045000000002
#
# number of rings (size 3 to 8) (size 9 to 14) (size 15 to 20)
#    0.000    0.667    6.667    0.000    1.167   11.333 
#    0.000    0.000    0.000    0.000    0.000    0.000 
#    0.000    0.000    0.000    0.000    0.000    0.000 
#
# Total GULP energy -134152.399780 kJ/mol
# GULP energy per Si atom -5589.683324 kJ/mol
# Density = 2.221237 g / cm^3
# Si number density = 22.263045 Si / 1000 Ang^3
#
#
#
# Elastic Constant Matrix: (Units=GPa)
#
#
# Indices 1 2 3 4 5 6 
#
# 1 80.6465 27.9718 68.9920 0.0000 0.3671 0.0000
# 2 27.9718 124.0316 58.9862 0.0000 -1.1610 0.0000
# 3 68.9920 58.9862 112.0448 0.0000 -7.0341 0.0000
# 4 0.0000 0.0000 0.0000 31.2171 0.0000 -11.7709
# 5 0.3671 -1.1610 -7.0341 0.0000 57.7684 0.0000
# 6 0.0000 0.0000 0.0000 -11.7709 0.0000 18.6083
#
#
#
# Elastic Compliance Matrix: (Units=1/GPa)
#
#
# Indices 1 2 3 4 5 6 
#
# 1 0.027034 0.002491 -0.018104 0.000000 -0.002326 0.000000
# 2 0.002491 0.010998 -0.007367 0.000000 -0.000692 0.000000
# 3 -0.018104 -0.007367 0.024133 0.000000 0.002906 0.000000
# 4 0.000000 0.000000 0.000000 0.042067 0.000000 0.026610
# 5 -0.002326 -0.000692 0.002906 0.000000 0.017665 0.000000
# 6 0.000000 0.000000 0.000000 0.026610 0.000000 0.070572
#
#
# Mechanical properties :
#
#
# Convention : Reuss Voigt Hill
#
# Bulk Modulus (GPa) = 61.70752 69.84701 65.77726
# Shear Modulus (GPa) = 20.50602 32.23695 26.37149
#
# Velocity S-wave (km/s) = 3.03822 3.80939 3.44545
# Velocity P-wave (km/s) = 6.33130 7.12673 6.74076
#
# Compressibility (1/GPa) = 0.01620548
#
# Stress axis : x y z
#
# Youngs Moduli (GPa) = 36.99071 90.92702 41.43646
#
# Poissons Ratio (x) = -0.22651 0.75015
# Poissons Ratio (y) = -0.09215 0.30527
# Poissons Ratio (z) = 0.66967 0.66988
#
# Static dielectric constant tensor:
#      x y z
#    x 1.842600 0.000000 0.006340 
#    y 0.000000 1.836420 0.000000 
#    z 0.006340 0.000000 1.772070 
# 
# From -- ./inp_files/43982.got.cif
#   From: 2010.05.17/outbox.cif.g08.bks.cpg/sg15_22_cif.got.tgz:43982.got - 2010.06.03 18:47:42.
