data_PCOD9276447
_publ_section_title
;
Structure prediction by ZEFSAII (Michael W. Deem and Ramdas Pophale) SiO2 
 PCOD9276447
Probable space group: C 2/C
;
_chemical_formula_sum "Si O2"
_cell_formula_units_Z 40
_cell_length_a 7.106703
_cell_length_b 12.376078
_cell_length_c 17.988054
_cell_angle_alpha 90.000000
_cell_angle_beta 100.516069
_cell_angle_gamma 90.000000
_cell_volume 1555.531883
_symmetry_space_group_name_H-M "C 2/C"
_symmetry_group_IT_number 15
_symmetry_cell_setting 'monoclinic'
loop_
_space_group_symop_operation_xyz
x,y,z
-x,y,1/2-z
-x,-y,-z
x,-y,1/2+z
1/2+x,1/2+y,z
1/2-x,1/2+y,1/2-z
1/2-x,1/2-y,-z
1/2+x,1/2-y,1/2+z
loop_
_atom_site_type_symbol
_atom_site_label
_atom_site_fract_x
_atom_site_fract_y
_atom_site_fract_z
Si Si1 0.488615 0.732876 0.954716
Si Si2 0.360836 0.951963 0.873468
Si Si3 0.879697 0.688776 0.897334
Si Si4 0.446900 0.484410 0.409456
Si Si5 0.302007 0.637556 0.281420
O O1 0.444481 0.854976 0.928329
O O2 0.696377 0.693940 0.939138
O O3 0.371887 0.639496 0.904138
O O4 0.477246 0.735840 0.043818
O O5 0.145246 0.986144 0.882156
O O6 0.347528 0.901632 0.790520
O O7 0.455995 0.068867 0.890470
O O8 0.804393 0.742823 0.816375
O O9 0.500000 0.500000 0.500000
O O10 0.302143 0.561254 0.354437
O O11 0.500000 0.630585 0.250000
#
# Coordination Sequence:
#
# PCOD9276447 Si02
#       5
#     8   8   8   8   8
#     4  10  21  39  65  87 117 163 207 259 312 375
#     4  10  23  38  61  90 122 161 206 256 317 378
#     4  10  21  41  60  88 126 153 206 263 310 374
#     4  10  20  40  62  85 119 165 204 253 309 376
#     4  10  22  41  57  85 125 156 200 260 313 371
#
# _framework density 25.714675
#
# number of rings (size 3 to 8) (size 9 to 14) (size 15 to 20)
#    0.000    2.000    2.000    0.600    2.800    1.600 
#    3.600    0.000    0.000    0.000    0.000    0.000 
#    0.000    0.000    0.000    0.000    0.000    0.000 
#
# Total GULP energy -111618.692965 kJ/mol
# GULP energy per Si atom -5580.934648 kJ/mol
# Density = 2.565615 g / cm^3
# Si number density = 25.714675 Si / 1000 Ang^3
#
#
#
# Elastic Constant Matrix: (Units=GPa)
#
#
# Indices 1 2 3 4 5 6 
#
# 1 73.4940 1.8903 -7.5990 0.0000 -18.0156 0.0000
# 2 1.8903 199.4912 43.9255 0.0000 -1.4165 0.0000
# 3 -7.5990 43.9255 144.5382 0.0000 -12.9495 0.0000
# 4 0.0000 0.0000 0.0000 37.9539 0.0000 5.0662
# 5 -18.0156 -1.4165 -12.9495 0.0000 32.5811 0.0000
# 6 0.0000 0.0000 0.0000 5.0662 0.0000 26.6281
#
#
#
# Elastic Compliance Matrix: (Units=1/GPa)
#
#
# Indices 1 2 3 4 5 6 
#
# 1 0.016183 -0.000496 0.001868 0.000000 0.009669 0.000000
# 2 -0.000496 0.005393 -0.001730 0.000000 -0.000727 0.000000
# 3 0.001868 -0.001730 0.007910 0.000000 0.004101 0.000000
# 4 0.000000 0.000000 0.000000 0.027034 0.000000 -0.005143
# 5 0.009669 -0.000727 0.004101 0.000000 0.037638 0.000000
# 6 0.000000 0.000000 0.000000 -0.005143 0.000000 0.038533
#
#
# Mechanical properties :
#
#
# Convention : Reuss Voigt Hill
#
# Bulk Modulus (GPa) = 34.75961 54.88411 44.82186
# Shear Modulus (GPa) = 34.96571 44.71973 39.84272
#
# Velocity S-wave (km/s) = 3.69149 4.17474 3.94053
# Velocity P-wave (km/s) = 5.63172 6.68041 6.17835
#
# Compressibility (1/GPa) = 0.02876902
#
# Stress axis : x y z
#
# Youngs Moduli (GPa) = 61.79489 185.41614 126.42100
#
# Poissons Ratio (x) = 0.09196 -0.23613
# Poissons Ratio (y) = 0.03065 0.21874
# Poissons Ratio (z) = -0.11542 0.32082
#
# Static dielectric constant tensor:
#      x y z
#    x 2.226640 0.000000 0.100320 
#    y 0.000000 2.099870 0.000000 
#    z 0.100320 0.000000 2.032160 
# 
# From -- ./inp_files/141762.got.cif
#   From: 2010.05.17/outbox.cif.g08.bks.cpg/sg15_71_cif.got.tgz:141762.got - 2010.06.03 18:47:42.
