data_PCOD9276418
_publ_section_title
;
Structure prediction by ZEFSAII (Michael W. Deem and Ramdas Pophale) SiO2 
 PCOD9276418
Probable space group: C 2/C
;
_chemical_formula_sum "Si O2"
_cell_formula_units_Z 44
_cell_length_a 11.967594
_cell_length_b 28.565993
_cell_length_c 5.481756
_cell_angle_alpha 90.000000
_cell_angle_beta 108.321246
_cell_angle_gamma 90.000000
_cell_volume 1779.030782
_symmetry_space_group_name_H-M "C 2/C"
_symmetry_group_IT_number 15
_symmetry_cell_setting 'monoclinic'
loop_
_space_group_symop_operation_xyz
x,y,z
-x,y,1/2-z
-x,-y,-z
x,-y,1/2+z
1/2+x,1/2+y,z
1/2-x,1/2+y,1/2-z
1/2-x,1/2-y,-z
1/2+x,1/2-y,1/2+z
loop_
_atom_site_type_symbol
_atom_site_label
_atom_site_fract_x
_atom_site_fract_y
_atom_site_fract_z
Si Si1 0.000000 0.470331 0.750000
Si Si2 0.690736 0.823259 0.406973
Si Si3 0.629318 0.351715 0.350652
Si Si4 0.376825 0.528769 0.095973
Si Si5 0.692534 0.906350 0.687059
Si Si6 0.883347 0.768531 0.828949
O O1 0.887742 0.436559 0.691144
O O2 0.000000 0.500000 0.500000
O O3 0.795653 0.849794 0.340713
O O4 0.624088 0.864418 0.502233
O O5 0.760961 0.789057 0.637736
O O6 0.623812 0.787745 0.180892
O O7 0.500000 0.372583 0.250000
O O8 0.705759 0.380072 0.595031
O O9 0.613364 0.297460 0.420876
O O10 0.500000 0.554547 0.250000
O O11 0.377000 0.490516 0.319133
O O12 0.259297 0.558273 0.053801
O O13 0.000000 0.781117 0.750000
#
# Coordination Sequence:
#
# PCOD9276418 Si02
#       6
#     4   8   8   8   8   8
#     4  12  30  56  84 106 154 206 252 316 390 468
#     4  10  23  39  64  97 139 183 245 301 360 441
#     4  11  23  39  69 103 146 191 241 311 382 445
#     4  10  23  41  67 100 137 175 222 288 369 446
#     4  11  27  43  72 106 138 187 249 303 379 446
#     4  10  20  40  61  94 138 193 240 293 366 441
#
# _framework density 24.732568000000001
#
# number of rings (size 3 to 8) (size 9 to 14) (size 15 to 20)
#    0.000    1.455    1.818    1.636    7.636    2.182 
#    0.000    0.000    0.000    0.000    0.000    0.000 
#    0.000    0.000    0.000    0.000    0.000    0.000 
#
# Total GULP energy -122930.424531 kJ/mol
# GULP energy per Si atom -5587.746570 kJ/mol
# Density = 2.467628 g / cm^3
# Si number density = 24.732568 Si / 1000 Ang^3
#
#
#
# Elastic Constant Matrix: (Units=GPa)
#
#
# Indices 1 2 3 4 5 6 
#
# 1 78.0682 44.1469 13.6308 0.0000 -12.5728 0.0000
# 2 44.1469 104.7025 42.8237 0.0000 -9.1675 0.0000
# 3 13.6308 42.8237 88.1917 0.0000 -7.0413 0.0000
# 4 0.0000 0.0000 0.0000 26.6763 0.0000 4.6668
# 5 -12.5728 -9.1675 -7.0413 0.0000 35.3571 0.0000
# 6 0.0000 0.0000 0.0000 4.6668 0.0000 2.2344
#
#
#
# Elastic Compliance Matrix: (Units=1/GPa)
#
#
# Indices 1 2 3 4 5 6 
#
# 1 0.017585 -0.007553 0.001313 0.000000 0.004556 0.000000
# 2 -0.007553 0.015298 -0.006258 0.000000 0.000034 0.000000
# 3 0.001313 -0.006258 0.014310 0.000000 0.001694 0.000000
# 4 0.000000 0.000000 0.000000 0.059068 0.000000 -0.123368
# 5 0.004556 0.000034 0.001694 0.000000 0.030249 0.000000
# 6 0.000000 0.000000 0.000000 -0.123368 0.000000 0.705199
#
#
# Mechanical properties :
#
#
# Convention : Reuss Voigt Hill
#
# Bulk Modulus (GPa) = 45.04986 52.46278 48.75632
# Shear Modulus (GPa) = 5.72014 24.21098 14.96556
#
# Velocity S-wave (km/s) = 1.52244 3.13215 2.46254
# Velocity P-wave (km/s) = 4.62004 5.85991 5.27652
#
# Compressibility (1/GPa) = 0.02219762
#
# Stress axis : x y z
#
# Youngs Moduli (GPa) = 56.86742 65.36781 69.88084
#
# Poissons Ratio (x) = 0.49370 -0.09177
# Poissons Ratio (y) = 0.42950 0.43733
# Poissons Ratio (z) = -0.07468 0.40909
#
# Static dielectric constant tensor:
#      x y z
#    x 2.125250 0.000000 0.155060 
#    y 0.000000 2.027460 0.000000 
#    z 0.155060 0.000000 2.163320 
# 
# From -- ./inp_files/5809.got.cif
#   From: 2010.05.17/outbox.cif.g08.bks.cpg/sg15_3_cif.got.tgz:5809.got - 2010.06.03 18:47:42.
