data_PCOD9276188
_publ_section_title
;
Structure prediction by ZEFSAII (Michael W. Deem and Ramdas Pophale) SiO2 
 PCOD9276188
Probable space group: C 2/C
;
_chemical_formula_sum "Si O2"
_cell_formula_units_Z 60
_cell_length_a 30.190348
_cell_length_b 14.700995
_cell_length_c 20.385706
_cell_angle_alpha 90.000000
_cell_angle_beta 18.251499
_cell_angle_gamma 90.000000
_cell_volume 2833.652722
_symmetry_space_group_name_H-M "C 2/C"
_symmetry_group_IT_number 15
_symmetry_cell_setting 'monoclinic'
loop_
_space_group_symop_operation_xyz
x,y,z
-x,y,1/2-z
-x,-y,-z
x,-y,1/2+z
1/2+x,1/2+y,z
1/2-x,1/2+y,1/2-z
1/2-x,1/2-y,-z
1/2+x,1/2-y,1/2+z
loop_
_atom_site_type_symbol
_atom_site_label
_atom_site_fract_x
_atom_site_fract_y
_atom_site_fract_z
Si Si1 0.989292 0.809469 0.686374
Si Si2 0.224821 0.040240 0.019817
Si Si3 0.188438 0.515030 0.458389
Si Si4 0.483822 0.104401 0.902909
Si Si5 0.500000 0.569815 0.750000
Si Si6 0.307558 0.347618 0.206275
Si Si7 0.551260 0.397544 0.945082
Si Si8 0.810147 0.151536 0.121916
O O1 0.992309 0.708203 0.652893
O O2 0.121206 0.861986 0.465223
O O3 0.000000 0.807483 0.750000
O O4 0.847938 0.862261 0.864764
O O5 0.270139 0.992229 0.024835
O O6 0.098670 0.989951 0.159302
O O7 0.370736 0.060402 0.775706
O O8 0.048131 0.549357 0.619552
O O9 0.232206 0.431443 0.348514
O O10 0.289449 0.603052 0.304770
O O11 0.342423 0.105096 0.146944
O O12 0.618416 0.628795 0.546776
O O13 0.212783 0.258734 0.337062
O O14 0.444172 0.330519 0.060892
O O15 0.573347 0.382734 0.989984
O O16 0.500000 0.500000 0.000000
#
# Coordination Sequence:
#
# PCOD9276188 Si02
#       8
#     8   8   8   8   4   8   8   8
#     4  11  22  38  64 100 131 162 208 275 344 390
#     4  12  23  40  66  98 129 169 222 270 338 405
#     4  10  20  39  70  90 129 172 228 263 320 406
#     4  10  24  42  65  96 132 168 216 286 331 397
#     4  12  26  44  64  92 134 182 216 270 336 406
#     4  10  21  41  66  96 126 178 223 268 324 392
#     4   9  17  36  69  90 117 173 226 260 316 393
#     4  10  24  45  64  96 135 170 225 276 332 394
#
# _framework density 21.174085000000002
#
# number of rings (size 3 to 8) (size 9 to 14) (size 15 to 20)
#    0.000    1.600    2.000    3.200    3.733    0.533 
#   12.000    1.333    0.000    0.000    0.000    0.000 
#    0.000    0.000    0.000    0.000    0.000    0.000 
#
# Total GULP energy -167058.607119 kJ/mol
# GULP energy per Si atom -5568.620237 kJ/mol
# Density = 2.112589 g / cm^3
# Si number density = 21.174085 Si / 1000 Ang^3
#
#
#
# Elastic Constant Matrix: (Units=GPa)
#
#
# Indices 1 2 3 4 5 6 
#
# 1 67.3034 30.7313 42.6233 0.0000 7.8874 0.0000
# 2 30.7313 62.9803 35.5392 0.0002 -0.9983 0.0000
# 3 42.6233 35.5392 109.8287 -0.0001 3.4860 0.0000
# 4 0.0000 0.0002 -0.0001 -11.1126 0.0000 -16.0527
# 5 7.8874 -0.9983 3.4860 0.0000 38.7169 0.0000
# 6 0.0000 0.0000 0.0000 -16.0527 0.0000 15.2417
#
#
#
# Elastic Compliance Matrix: (Units=1/GPa)
#
#
# Indices 1 2 3 4 5 6 
#
# 1 0.022816 -0.007684 -0.006232 0.000000 -0.004285 0.000000
# 2 -0.007684 0.022057 -0.004235 0.000000 0.002515 0.000000
# 3 -0.006232 -0.004235 0.012894 0.000000 -0.000001 0.000000
# 4 0.000000 0.000000 0.000000 -0.035689 0.000000 -0.037588
# 5 -0.004285 0.002515 -0.000001 0.000000 0.026766 0.000000
# 6 0.000000 0.000000 0.000000 -0.037588 0.000000 0.026021
#
#
# Mechanical properties :
#
#
# Convention : Reuss Voigt Hill
#
# Bulk Modulus (GPa) = 46.58890 50.87779 48.73334
# Shear Modulus (GPa) = 42.25749 17.31710 29.78730
#
# Velocity S-wave (km/s) = 4.47219 2.86290 3.75478
# Velocity P-wave (km/s) = 6.97982 5.91682 6.47019
#
# Compressibility (1/GPa) = 0.02146434
#
# Stress axis : x y z
#
# Youngs Moduli (GPa) = 43.82958 45.33662 77.55478
#
# Poissons Ratio (x) = 0.34838 0.48332
# Poissons Ratio (y) = 0.33680 0.32846
# Poissons Ratio (z) = 0.27314 0.19201
#
# Static dielectric constant tensor:
#      x y z
#    x 1.820230 0.000000 0.010780 
#    y 0.000000 1.775910 0.000000 
#    z 0.010780 0.000000 1.931190 
# 
# From -- ./inp_files/259376.got.cif
#   From: 2010.05.17/outbox.cif.g08.bks.cpg/sg15_130_cif.got.tgz:259376.got - 2010.06.03 18:47:42.
