data_PCOD9276425
_publ_section_title
;
Structure prediction by ZEFSAII (Michael W. Deem and Ramdas Pophale) SiO2 
 PCOD9276425
Probable space group: C 2/C
;
_chemical_formula_sum "Si O2"
_cell_formula_units_Z 44
_cell_length_a 10.546885
_cell_length_b 21.638243
_cell_length_c 8.644896
_cell_angle_alpha 90.000000
_cell_angle_beta 109.565165
_cell_angle_gamma 90.000000
_cell_volume 1858.991049
_symmetry_space_group_name_H-M "C 2/C"
_symmetry_group_IT_number 15
_symmetry_cell_setting 'monoclinic'
loop_
_space_group_symop_operation_xyz
x,y,z
-x,y,1/2-z
-x,-y,-z
x,-y,1/2+z
1/2+x,1/2+y,z
1/2-x,1/2+y,1/2-z
1/2-x,1/2-y,-z
1/2+x,1/2-y,1/2+z
loop_
_atom_site_type_symbol
_atom_site_label
_atom_site_fract_x
_atom_site_fract_y
_atom_site_fract_z
Si Si1 0.445039 0.361044 0.566273
Si Si2 0.000000 0.662104 0.750000
Si Si3 0.827927 0.668143 0.416301
Si Si4 0.777124 0.818443 0.953498
Si Si5 0.743377 0.412543 0.266139
Si Si6 0.601101 0.965218 0.651253
O O1 0.500000 0.391472 0.750000
O O2 0.317611 0.319838 0.568151
O O3 0.572941 0.325781 0.551735
O O4 0.382598 0.400324 0.398929
O O5 0.125666 0.620997 0.750754
O O6 0.945220 0.694316 0.572711
O O7 0.823781 0.680679 0.233695
O O8 0.844012 0.593934 0.414414
O O9 0.750000 0.750000 0.000000
O O10 0.766913 0.875311 0.073481
O O11 0.779972 0.485132 0.275484
O O12 0.500000 0.947871 0.750000
O O13 0.500000 0.000000 0.500000
#
# Coordination Sequence:
#
# PCOD9276425 Si02
#       6
#     8   4   8   8   8   8
#     4   9  21  46  65  88 135 184 231 287 355 418
#     4  10  20  40  62 102 142 170 224 292 362 420
#     4  10  22  42  70 101 143 181 231 295 369 429
#     4  11  25  46  69  98 135 192 248 300 351 434
#     4  11  21  42  66 102 145 179 235 297 360 427
#     4  12  21  37  65 108 145 180 232 293 359 439
#
# _framework density 23.668754
#
# number of rings (size 3 to 8) (size 9 to 14) (size 15 to 20)
#    0.000    1.455    2.727    2.727    0.000    0.000 
#   11.455   14.545    0.000    0.000    0.000    0.000 
#    0.000    0.000    0.000    0.000    0.000    0.000 
#
# Total GULP energy -122744.729730 kJ/mol
# GULP energy per Si atom -5579.305897 kJ/mol
# Density = 2.361488 g / cm^3
# Si number density = 23.668754 Si / 1000 Ang^3
#
#
#
# Elastic Constant Matrix: (Units=GPa)
#
#
# Indices 1 2 3 4 5 6 
#
# 1 116.9522 46.4712 49.6779 0.0000 -9.2995 0.0000
# 2 46.4712 112.6915 49.8158 0.0000 -1.5157 0.0000
# 3 49.6779 49.8158 223.1509 0.0000 18.3957 0.0000
# 4 0.0000 0.0000 0.0000 -6.6744 0.0000 -1.1328
# 5 -9.2995 -1.5157 18.3957 0.0000 48.1878 0.0000
# 6 0.0000 0.0000 0.0000 -1.1328 0.0000 29.8600
#
#
#
# Elastic Compliance Matrix: (Units=1/GPa)
#
#
# Indices 1 2 3 4 5 6 
#
# 1 0.011020 -0.003688 -0.001854 0.000000 0.002718 0.000000
# 2 -0.003688 0.011146 -0.001691 0.000000 0.000284 0.000000
# 3 -0.001854 -0.001691 0.005478 0.000000 -0.002502 0.000000
# 4 0.000000 0.000000 0.000000 -0.148869 0.000000 -0.005648
# 5 0.002718 0.000284 -0.002502 0.000000 0.022241 0.000000
# 6 0.000000 0.000000 0.000000 -0.005648 0.000000 0.033275
#
#
# Mechanical properties :
#
#
# Convention : Reuss Voigt Hill
#
# Bulk Modulus (GPa) = 75.88487 82.74716 79.31601
# Shear Modulus (GPa) = -106.72042 34.73001 -35.99520
#
# Velocity S-wave (km/s) = -6.72213 3.83474 -3.90396
# Velocity P-wave (km/s) = 5.30270 7.39211 3.64176
#
# Compressibility (1/GPa) = 0.01317786
#
# Stress axis : x y z
#
# Youngs Moduli (GPa) = 90.74699 89.71985 182.55985
#
# Poissons Ratio (x) = 0.33090 0.33846
# Poissons Ratio (y) = 0.33469 0.30863
# Poissons Ratio (z) = 0.16824 0.15168
#
# Static dielectric constant tensor:
#      x y z
#    x 1.784830 0.000000 -0.035420 
#    y 0.000000 1.713580 0.000000 
#    z -0.035420 0.000000 2.060490 
# 
# From -- ./inp_files/32746.got.cif
#   From: 2010.05.17/outbox.cif.g08.bks.cpg/sg15_17_cif.got.tgz:32746.got - 2010.06.03 18:47:42.
