data_PCOD9276304
_publ_section_title
;
Structure prediction by ZEFSAII (Michael W. Deem and Ramdas Pophale) SiO2 
 PCOD9276304
Probable space group: C 2/C
;
_chemical_formula_sum "Si O2"
_cell_formula_units_Z 44
_cell_length_a 8.825655
_cell_length_b 10.406343
_cell_length_c 25.174852
_cell_angle_alpha 90.000000
_cell_angle_beta 59.293005
_cell_angle_gamma 90.000000
_cell_volume 1987.945006
_symmetry_space_group_name_H-M "C 2/C"
_symmetry_group_IT_number 15
_symmetry_cell_setting 'monoclinic'
loop_
_space_group_symop_operation_xyz
x,y,z
-x,y,1/2-z
-x,-y,-z
x,-y,1/2+z
1/2+x,1/2+y,z
1/2-x,1/2+y,1/2-z
1/2-x,1/2-y,-z
1/2+x,1/2-y,1/2+z
loop_
_atom_site_type_symbol
_atom_site_label
_atom_site_fract_x
_atom_site_fract_y
_atom_site_fract_z
Si Si1 0.066237 0.264614 0.667696
Si Si2 0.098194 0.184358 0.095131
Si Si3 0.009992 0.719989 0.495915
Si Si4 0.287777 0.650256 0.216921
Si Si5 0.650883 0.604752 0.553372
Si Si6 0.000000 0.956893 0.250000
O O1 0.862360 0.290353 0.718179
O O2 0.112833 0.134546 0.691579
O O3 0.183969 0.368592 0.678814
O O4 0.101132 0.223340 0.601832
O O5 0.048150 0.263608 0.051430
O O6 0.966333 0.221606 0.165994
O O7 0.081090 0.031571 0.085791
O O8 0.305309 0.202045 0.066922
O O9 0.862675 0.611501 0.513087
O O10 0.927494 0.852202 0.488552
O O11 0.368838 0.534686 0.236099
#
# Coordination Sequence:
#
# PCOD9276304 Si02
#       6
#     8   8   8   8   8   4
#     4  10  23  40  59  87 121 152 191 246 297 347
#     4  11  21  41  61  86 120 154 199 245 283 349
#     4  10  24  38  62  89 117 158 199 239 290 348
#     4  10  21  38  61  84 117 153 194 241 293 346
#     4  11  21  41  62  86 121 157 192 241 300 347
#     4  10  20  40  60  82 112 160 192 238 298 340
#
# _framework density 22.133410000000001
#
# number of rings (size 3 to 8) (size 9 to 14) (size 15 to 20)
#    0.000    1.818    3.636    1.091    2.545    0.000 
#    0.000   14.545    0.000    0.000    0.000    0.000 
#    0.000    0.000    0.000    0.000    0.000    0.000 
#
# Total GULP energy -122580.581519 kJ/mol
# GULP energy per Si atom -5571.844614 kJ/mol
# Density = 2.208303 g / cm^3
# Si number density = 22.133410 Si / 1000 Ang^3
#
#
#
# Elastic Constant Matrix: (Units=GPa)
#
#
# Indices 1 2 3 4 5 6 
#
# 1 76.3651 18.6858 35.5887 0.0000 -22.2948 0.0000
# 2 18.6858 36.9845 1.1934 0.0000 -8.9588 0.0000
# 3 35.5887 1.1934 97.9949 0.0000 -39.7735 0.0000
# 4 0.0000 0.0000 0.0000 27.7852 0.0000 0.1593
# 5 -22.2948 -8.9588 -39.7735 0.0000 41.8940 0.0000
# 6 0.0000 0.0000 0.0000 0.1593 0.0000 26.2443
#
#
#
# Elastic Compliance Matrix: (Units=1/GPa)
#
#
# Indices 1 2 3 4 5 6 
#
# 1 0.018565 -0.008510 -0.005478 0.000000 0.002859 0.000000
# 2 -0.008510 0.033157 0.006063 0.000000 0.008317 0.000000
# 3 -0.005478 0.006063 0.018649 0.000000 0.016087 0.000000
# 4 0.000000 0.000000 0.000000 0.035992 0.000000 -0.000218
# 5 0.002859 0.008317 0.016087 0.000000 0.042442 0.000000
# 6 0.000000 0.000000 0.000000 -0.000218 0.000000 0.038105
#
#
# Mechanical properties :
#
#
# Convention : Reuss Voigt Hill
#
# Bulk Modulus (GPa) = 18.34199 35.80893 27.07546
# Shear Modulus (GPa) = 22.63102 29.57646 26.10374
#
# Velocity S-wave (km/s) = 3.20110 3.65948 3.43794
# Velocity P-wave (km/s) = 4.68697 5.83691 5.29326
#
# Compressibility (1/GPa) = 0.05451971
#
# Stress axis : x y z
#
# Youngs Moduli (GPa) = 53.86440 30.15938 53.62098
#
# Poissons Ratio (x) = 0.25667 0.29375
# Poissons Ratio (y) = 0.45841 -0.32509
# Poissons Ratio (z) = 0.29508 -0.18285
#
# Static dielectric constant tensor:
#      x y z
#    x 1.846020 0.000000 -0.001140 
#    y 0.000000 1.842630 0.000000 
#    z -0.001140 0.000000 1.857580 
# 
# From -- ./inp_files/262814.got.cif
#   From: 2010.05.17/outbox.cif.g08.bks.cpg/sg15_132_cif.got.tgz:262814.got - 2010.06.03 18:47:42.
