data_PCOD9276165
_publ_section_title
;
Structure prediction by ZEFSAII (Michael W. Deem and Ramdas Pophale) SiO2 
 PCOD9276165
Probable space group: C 2/C
;
_chemical_formula_sum "Si O2"
_cell_formula_units_Z 44
_cell_length_a 16.064677
_cell_length_b 10.170729
_cell_length_c 13.126195
_cell_angle_alpha 90.000000
_cell_angle_beta 51.498218
_cell_angle_gamma 90.000000
_cell_volume 1678.404201
_symmetry_space_group_name_H-M "C 2/C"
_symmetry_group_IT_number 15
_symmetry_cell_setting 'monoclinic'
loop_
_space_group_symop_operation_xyz
x,y,z
-x,y,1/2-z
-x,-y,-z
x,-y,1/2+z
1/2+x,1/2+y,z
1/2-x,1/2+y,1/2-z
1/2-x,1/2-y,-z
1/2+x,1/2-y,1/2+z
loop_
_atom_site_type_symbol
_atom_site_label
_atom_site_fract_x
_atom_site_fract_y
_atom_site_fract_z
Si Si1 0.844489 0.129822 0.032693
Si Si2 0.874709 0.221455 0.792847
Si Si3 0.844587 0.056651 0.247794
Si Si4 0.000000 0.452868 0.750000
Si Si5 0.148888 0.835397 0.543184
Si Si6 0.406515 0.919534 0.511639
O O1 0.747109 0.231451 0.111514
O O2 0.884661 0.127930 0.116748
O O3 0.904707 0.176911 0.885570
O O4 0.820595 0.975733 0.029554
O O5 0.933158 0.357004 0.727586
O O6 0.881274 0.094050 0.719332
O O7 0.890675 0.123549 0.313904
O O8 0.714230 0.054677 0.355492
O O9 0.078581 0.530139 0.616720
O O10 0.250000 0.750000 0.500000
O O11 0.088393 0.738121 0.511351
O O12 0.500000 0.000000 0.500000
#
# Coordination Sequence:
#
# PCOD9276165 Si02
#       6
#     8   8   8   4   8   8
#     4  10  20  39  69  96 129 176 233 281 332 432
#     4  10  22  41  65  98 129 179 232 274 352 412
#     4  10  22  40  71  98 129 186 227 282 350 417
#     4  12  24  44  62  94 142 166 222 292 330 426
#     4   9  20  38  60  98 133 171 228 278 347 414
#     4  11  24  41  66 102 134 178 224 292 356 400
#
# _framework density 26.215378999999999
#
# number of rings (size 3 to 8) (size 9 to 14) (size 15 to 20)
#    0.000    1.818    0.000    5.455    7.636    0.000 
#    3.273    4.545    0.000    0.000    0.000    0.000 
#    0.000    0.000    0.000    0.000    0.000    0.000 
#
# Total GULP energy -122871.888783 kJ/mol
# GULP energy per Si atom -5585.085854 kJ/mol
# Density = 2.615571 g / cm^3
# Si number density = 26.215379 Si / 1000 Ang^3
#
#
#
# Elastic Constant Matrix: (Units=GPa)
#
#
# Indices 1 2 3 4 5 6 
#
# 1 127.2498 39.7675 44.9927 0.0000 -6.6568 0.0000
# 2 39.7675 129.6804 36.5691 0.0000 6.1074 0.0000
# 3 44.9927 36.5691 108.8977 0.0000 16.2180 0.0000
# 4 0.0000 0.0000 0.0000 23.6492 0.0000 2.5204
# 5 -6.6568 6.1074 16.2180 0.0000 32.1603 0.0000
# 6 0.0000 0.0000 0.0000 2.5204 0.0000 49.8201
#
#
#
# Elastic Compliance Matrix: (Units=1/GPa)
#
#
# Indices 1 2 3 4 5 6 
#
# 1 0.010272 -0.002184 -0.004205 0.000000 0.004661 0.000000
# 2 -0.002184 0.008983 -0.001939 0.000000 -0.001180 0.000000
# 3 -0.004205 -0.001939 0.012592 0.000000 -0.006852 0.000000
# 4 0.000000 0.000000 0.000000 0.042514 0.000000 -0.002151
# 5 0.004661 -0.001180 -0.006852 0.000000 0.035739 0.000000
# 6 0.000000 0.000000 0.000000 -0.002151 0.000000 0.020181
#
#
# Mechanical properties :
#
#
# Convention : Reuss Voigt Hill
#
# Bulk Modulus (GPa) = 65.82290 67.60962 66.71626
# Shear Modulus (GPa) = 32.89516 37.42582 35.16049
#
# Velocity S-wave (km/s) = 3.54616 3.78250 3.66623
# Velocity P-wave (km/s) = 6.47534 6.70242 6.58986
#
# Compressibility (1/GPa) = 0.01519228
#
# Stress axis : x y z
#
# Youngs Moduli (GPa) = 97.35658 111.31912 79.41772
#
# Poissons Ratio (x) = 0.24308 0.33393
# Poissons Ratio (y) = 0.21259 0.15396
# Poissons Ratio (z) = 0.40936 0.21581
#
# Static dielectric constant tensor:
#      x y z
#    x 2.202060 0.000000 -0.086800 
#    y 0.000000 1.969720 0.000000 
#    z -0.086800 0.000000 2.236110 
# 
# From -- ./inp_files/166075.got.cif
#   From: 2010.05.17/outbox.cif.g08.bks.cpg/sg15_84_cif.got.tgz:166075.got - 2010.06.03 18:47:42.
