data_PCOD9276591
_publ_section_title
;
Structure prediction by ZEFSAII (Michael W. Deem and Ramdas Pophale) SiO2 
 PCOD9276591
Probable space group: C 2/C
;
_chemical_formula_sum "Si O2"
_cell_formula_units_Z 48
_cell_length_a 27.578932
_cell_length_b 9.590980
_cell_length_c 15.071900
_cell_angle_alpha 90.000000
_cell_angle_beta 145.330174
_cell_angle_gamma 90.000000
_cell_volume 2267.793488
_symmetry_space_group_name_H-M "C 2/C"
_symmetry_group_IT_number 15
_symmetry_cell_setting 'monoclinic'
loop_
_space_group_symop_operation_xyz
x,y,z
-x,y,1/2-z
-x,-y,-z
x,-y,1/2+z
1/2+x,1/2+y,z
1/2-x,1/2+y,1/2-z
1/2-x,1/2-y,-z
1/2+x,1/2-y,1/2+z
loop_
_atom_site_type_symbol
_atom_site_label
_atom_site_fract_x
_atom_site_fract_y
_atom_site_fract_z
Si Si1 0.006863 0.166644 0.012209
Si Si2 0.268845 0.206743 0.389190
Si Si3 0.699691 0.683562 0.006825
Si Si4 0.633205 0.876413 0.626623
Si Si5 0.657040 0.589223 0.354608
Si Si6 0.885812 0.681155 0.959247
O O1 0.079171 0.178066 0.197448
O O2 0.041772 0.217950 0.970121
O O3 0.926747 0.260826 0.918536
O O4 0.000000 0.000000 0.000000
O O5 0.345086 0.167402 0.440672
O O6 0.298916 0.317013 0.505598
O O7 0.223369 0.078787 0.371893
O O8 0.198667 0.275924 0.221404
O O9 0.776506 0.620229 0.184106
O O10 0.641713 0.786366 0.980602
O O11 0.750000 0.750000 0.000000
O O12 0.643064 0.559679 0.878760
O O13 0.593258 0.028523 0.548956
#
# Coordination Sequence:
#
# PCOD9276591 Si02
#       6
#     8   8   8   8   8   8
#     4  11  25  41  63  91 133 172 208 262 332 381
#     4   9  20  37  66  92 116 166 211 261 310 383
#     4  11  22  38  69  95 125 162 219 268 315 383
#     4  11  22  40  65  93 129 165 217 262 326 378
#     4  10  20  40  63  92 125 160 217 259 313 386
#     4  10  22  42  64  92 126 169 212 263 321 383
#
# _framework density 21.165948
#
# number of rings (size 3 to 8) (size 9 to 14) (size 15 to 20)
#    0.000    1.667    1.667    2.500    2.333    3.333 
#    0.000    2.500    7.333    0.000    0.000    0.000 
#    0.000    0.000    0.000    0.000    0.000    0.000 
#
# Total GULP energy -133771.886400 kJ/mol
# GULP energy per Si atom -5573.828600 kJ/mol
# Density = 2.111777 g / cm^3
# Si number density = 21.165948 Si / 1000 Ang^3
#
#
#
# Elastic Constant Matrix: (Units=GPa)
#
#
# Indices 1 2 3 4 5 6 
#
# 1 105.1184 44.9944 24.7520 0.0000 -7.7080 0.0000
# 2 44.9944 109.2179 -2.6751 0.0000 5.3833 0.0000
# 3 24.7520 -2.6751 27.2222 0.0000 -2.7284 0.0000
# 4 0.0000 0.0000 0.0000 29.9442 0.0000 -0.0803
# 5 -7.7080 5.3833 -2.7284 0.0000 31.2700 0.0000
# 6 0.0000 0.0000 0.0000 -0.0803 0.0000 33.2537
#
#
#
# Elastic Compliance Matrix: (Units=1/GPa)
#
#
# Indices 1 2 3 4 5 6 
#
# 1 0.016622 -0.007424 -0.015439 0.000000 0.004028 0.000000
# 2 -0.007424 0.012566 0.007652 0.000000 -0.003326 0.000000
# 3 -0.015439 0.007652 0.051462 0.000000 -0.000633 0.000000
# 4 0.000000 0.000000 0.000000 0.033396 0.000000 0.000081
# 5 0.004028 -0.003326 -0.000633 0.000000 0.033490 0.000000
# 6 0.000000 0.000000 0.000000 0.000081 0.000000 0.030072
#
#
# Mechanical properties :
#
#
# Convention : Reuss Voigt Hill
#
# Bulk Modulus (GPa) = 19.90987 41.74458 30.82722
# Shear Modulus (GPa) = 22.24473 30.52606 26.38540
#
# Velocity S-wave (km/s) = 3.24538 3.80178 3.53455
# Velocity P-wave (km/s) = 4.84462 6.24794 5.59049
#
# Compressibility (1/GPa) = 0.05022635
#
# Stress axis : x y z
#
# Youngs Moduli (GPa) = 60.16178 79.58001 19.43192
#
# Poissons Ratio (x) = 0.59083 0.30002
# Poissons Ratio (y) = 0.44666 -0.14870
# Poissons Ratio (z) = 0.92886 -0.60896
#
# Static dielectric constant tensor:
#      x y z
#    x 1.790760 0.000000 0.038680 
#    y 0.000000 2.501600 0.000000 
#    z 0.038680 0.000000 1.893770 
# 
# From -- ./inp_files/177021.got.cif
#   From: 2010.05.17/outbox.cif.g08.bks.cpg/sg15_89_cif.got.tgz:177021.got - 2010.06.03 18:47:42.
