data_PCOD9276428
_publ_section_title
;
Structure prediction by ZEFSAII (Michael W. Deem and Ramdas Pophale) SiO2 
 PCOD9276428
Probable space group: C 2/C
;
_chemical_formula_sum "Si O2"
_cell_formula_units_Z 60
_cell_length_a 13.436665
_cell_length_b 18.889834
_cell_length_c 15.146609
_cell_angle_alpha 90.000000
_cell_angle_beta 126.387129
_cell_angle_gamma 90.000000
_cell_volume 3094.892276
_symmetry_space_group_name_H-M "C 2/C"
_symmetry_group_IT_number 15
_symmetry_cell_setting 'monoclinic'
loop_
_space_group_symop_operation_xyz
x,y,z
-x,y,1/2-z
-x,-y,-z
x,-y,1/2+z
1/2+x,1/2+y,z
1/2-x,1/2+y,1/2-z
1/2-x,1/2-y,-z
1/2+x,1/2-y,1/2+z
loop_
_atom_site_type_symbol
_atom_site_label
_atom_site_fract_x
_atom_site_fract_y
_atom_site_fract_z
Si Si1 0.499167 0.264247 0.421182
Si Si2 0.092317 0.672328 0.627236
Si Si3 0.744181 0.702766 0.280437
Si Si4 0.295170 0.559310 0.731196
Si Si5 0.578178 0.582186 0.204102
Si Si6 0.805646 0.673070 0.509401
Si Si7 0.500000 0.658480 0.750000
Si Si8 0.619762 0.600966 0.537483
O O1 0.579753 0.214653 0.527470
O O2 0.381873 0.219647 0.322135
O O3 0.554186 0.297975 0.361720
O O4 0.440750 0.326673 0.452632
O O5 0.172447 0.722710 0.734325
O O6 0.162586 0.597721 0.652828
O O7 0.953253 0.667658 0.590909
O O8 0.653747 0.644137 0.194177
O O9 0.766041 0.667609 0.387220
O O10 0.329289 0.480427 0.719132
O O11 0.391417 0.610668 0.732549
O O12 0.330726 0.559162 0.852909
O O13 0.500000 0.606254 0.250000
O O14 0.476096 0.561520 0.077099
O O15 0.750000 0.750000 0.500000
O O16 0.735071 0.621461 0.537057
#
# Coordination Sequence:
#
# PCOD9276428 Si02
#       8
#     8   8   8   8   8   8   4   8
#     4  10  21  37  60  92 120 153 209 258 297 346
#     4  11  21  37  62  94 123 160 196 253 309 356
#     4  11  20  34  57  90 120 147 199 251 302 350
#     4  11  24  41  56  89 124 162 206 244 298 361
#     4  12  23  37  63  86 122 163 198 246 309 362
#     4  11  19  32  57  95 125 146 190 246 309 361
#     4  10  20  40  62  80 124 160 214 254 280 358
#     4  11  20  36  59  90 119 155 199 255 294 361
#
# _framework density 19.386782
#
# number of rings (size 3 to 8) (size 9 to 14) (size 15 to 20)
#    0.000    1.067    8.667    0.400    0.000    2.133 
#    0.000    2.667    0.000    0.000    0.000    0.000 
#    0.000    0.000    0.000    0.000    0.000    0.000 
#
# Total GULP energy -167150.489153 kJ/mol
# GULP energy per Si atom -5571.682972 kJ/mol
# Density = 1.934266 g / cm^3
# Si number density = 19.386782 Si / 1000 Ang^3
#
#
#
# Elastic Constant Matrix: (Units=GPa)
#
#
# Indices 1 2 3 4 5 6 
#
# 1 85.1082 24.7056 26.8510 0.0000 6.5080 0.0000
# 2 24.7056 64.5383 2.7141 0.0000 13.5296 0.0000
# 3 26.8510 2.7141 68.4464 0.0000 8.8153 0.0000
# 4 0.0000 0.0000 0.0000 24.6728 0.0000 7.1830
# 5 6.5080 13.5296 8.8153 0.0000 33.8508 0.0000
# 6 0.0000 0.0000 0.0000 7.1830 0.0000 26.9965
#
#
#
# Elastic Compliance Matrix: (Units=1/GPa)
#
#
# Indices 1 2 3 4 5 6 
#
# 1 0.015199 -0.005762 -0.005850 0.000000 0.000904 0.000000
# 2 -0.005762 0.019099 0.002425 0.000000 -0.007157 0.000000
# 3 -0.005850 0.002425 0.017371 0.000000 -0.004368 0.000000
# 4 0.000000 0.000000 0.000000 0.043934 0.000000 -0.011690
# 5 0.000904 -0.007157 -0.004368 0.000000 0.033366 0.000000
# 6 0.000000 0.000000 0.000000 -0.011690 0.000000 0.040152
#
#
# Mechanical properties :
#
#
# Convention : Reuss Voigt Hill
#
# Bulk Modulus (GPa) = 30.03522 36.29269 33.16396
# Shear Modulus (GPa) = 25.17707 28.02550 26.60128
#
# Velocity S-wave (km/s) = 3.60762 3.80623 3.70825
# Velocity P-wave (km/s) = 5.73406 6.17069 5.95638
#
# Compressibility (1/GPa) = 0.03329424
#
# Stress axis : x y z
#
# Youngs Moduli (GPa) = 65.79422 52.35956 57.56568
#
# Poissons Ratio (x) = 0.30168 0.33678
# Poissons Ratio (y) = 0.37909 -0.13958
# Poissons Ratio (z) = 0.38492 -0.12696
#
# Static dielectric constant tensor:
#      x y z
#    x 1.694730 0.000000 -0.003970 
#    y 0.000000 1.733860 0.000000 
#    z -0.003970 0.000000 1.785760 
# 
# From -- ./inp_files/147189.got.cif
#   From: 2010.05.17/outbox.cif.g08.bks.cpg/sg15_74_cif.got.tgz:147189.got - 2010.06.03 18:47:42.
