data_PCOD9276839
_publ_section_title
;
Structure prediction by ZEFSAII (Michael W. Deem and Ramdas Pophale) SiO2 
 PCOD9276839
Probable space group: C 2/C
;
_chemical_formula_sum "Si O2"
_cell_formula_units_Z 48
_cell_length_a 24.302022
_cell_length_b 11.998213
_cell_length_c 14.993997
_cell_angle_alpha 90.000000
_cell_angle_beta 152.041958
_cell_angle_gamma 90.000000
_cell_volume 2049.684515
_symmetry_space_group_name_H-M "C 2/C"
_symmetry_group_IT_number 15
_symmetry_cell_setting 'monoclinic'
loop_
_space_group_symop_operation_xyz
x,y,z
-x,y,1/2-z
-x,-y,-z
x,-y,1/2+z
1/2+x,1/2+y,z
1/2-x,1/2+y,1/2-z
1/2-x,1/2-y,-z
1/2+x,1/2-y,1/2+z
loop_
_atom_site_type_symbol
_atom_site_label
_atom_site_fract_x
_atom_site_fract_y
_atom_site_fract_z
Si Si1 0.261447 0.445562 0.794272
Si Si2 0.449992 0.958172 0.589709
Si Si3 0.483964 0.387822 0.332384
Si Si4 0.090455 0.316899 0.277076
Si Si5 0.334988 0.406116 0.565930
Si Si6 0.437704 0.200529 0.395208
O O1 0.187391 0.516271 0.616610
O O2 0.175631 0.354259 0.718653
O O3 0.384098 0.393637 0.939667
O O4 0.298446 0.532543 0.923618
O O5 0.500000 0.901426 0.750000
O O6 0.498696 0.894223 0.573521
O O7 0.504957 0.080831 0.669473
O O8 0.500000 0.357103 0.250000
O O9 0.420207 0.507645 0.237963
O O10 0.412920 0.300360 0.290750
O O11 0.215886 0.376257 0.446286
O O12 0.109905 0.214973 0.371172
O O13 0.033912 0.264352 0.106638
#
# Coordination Sequence:
#
# PCOD9276839 Si02
#       6
#     8   8   8   8   8   8
#     4  10  21  44  65  93 133 175 213 270 327 378
#     4  11  22  40  66  96 125 170 225 261 320 391
#     4  10  24  40  63 100 132 171 214 267 329 384
#     4  10  21  40  70  91 125 175 212 270 322 381
#     4  10  20  40  65  93 126 163 215 262 323 382
#     4  11  21  44  66  93 135 169 217 267 327 384
#
# _framework density 23.418237999999999
#
# number of rings (size 3 to 8) (size 9 to 14) (size 15 to 20)
#    0.000    1.667    3.333    1.500    0.000    8.000 
#    9.000    0.000    0.000    0.000    0.000    0.000 
#    0.000    0.000    0.000    0.000    0.000    0.000 
#
# Total GULP energy -134058.263946 kJ/mol
# GULP energy per Si atom -5585.760998 kJ/mol
# Density = 2.336494 g / cm^3
# Si number density = 23.418238 Si / 1000 Ang^3
#
#
#
# Elastic Constant Matrix: (Units=GPa)
#
#
# Indices 1 2 3 4 5 6 
#
# 1 32.1919 17.8326 43.9449 0.0000 -22.6243 0.0000
# 2 17.8326 73.3952 -23.6481 0.0000 68.9069 0.0000
# 3 43.9449 -23.6481 68.8756 0.0000 102.5130 0.0000
# 4 0.0000 0.0000 0.0000 46.9792 0.0000 -11.7160
# 5 -22.6243 68.9069 102.5130 0.0000 -117.4910 0.0000
# 6 0.0000 0.0000 0.0000 -11.7160 0.0000 4.6332
#
#
#
# Elastic Compliance Matrix: (Units=1/GPa)
#
#
# Indices 1 2 3 4 5 6 
#
# 1 0.030452 0.000293 -0.004723 0.000000 -0.009813 0.000000
# 2 0.000293 0.009490 -0.002231 0.000000 0.003563 0.000000
# 3 -0.004723 -0.002231 0.007552 0.000000 0.006191 0.000000
# 4 0.000000 0.000000 0.000000 0.057627 0.000000 0.145720
# 5 -0.009813 0.003563 0.006191 0.000000 0.000869 0.000000
# 6 0.000000 0.000000 0.000000 0.145720 0.000000 0.584314
#
#
# Mechanical properties :
#
#
# Convention : Reuss Voigt Hill
#
# Bulk Modulus (GPa) = 29.26412 27.85794 28.56103
# Shear Modulus (GPa) = 6.99283 -4.08683 1.45300
#
# Velocity S-wave (km/s) = 1.72990 -1.32247 0.78854
# Velocity P-wave (km/s) = 4.06368 3.09673 3.61270
#
# Compressibility (1/GPa) = 0.03417154
#
# Stress axis : x y z
#
# Youngs Moduli (GPa) = 32.83820 105.37382 132.40787
#
# Poissons Ratio (x) = -0.03083 0.62538
# Poissons Ratio (y) = -0.00961 0.29541
# Poissons Ratio (z) = 0.15510 0.23510
#
# Static dielectric constant tensor:
#      x y z
#    x 1.953510 0.000000 -0.042160 
#    y 0.000000 1.860460 0.000000 
#    z -0.042160 0.000000 1.977940 
# 
# From -- ./inp_files/177880.got.cif
#   From: 2010.05.17/outbox.cif.g08.bks.cpg/sg15_89_cif.got.tgz:177880.got - 2010.06.03 18:47:42.
