data_PCOD9276838
_publ_section_title
;
Structure prediction by ZEFSAII (Michael W. Deem and Ramdas Pophale) SiO2 
 PCOD9276838
Probable space group: C 2/C
;
_chemical_formula_sum "Si O2"
_cell_formula_units_Z 56
_cell_length_a 29.975121
_cell_length_b 8.418592
_cell_length_c 12.087310
_cell_angle_alpha 90.000000
_cell_angle_beta 116.908213
_cell_angle_gamma 90.000000
_cell_volume 2719.973946
_symmetry_space_group_name_H-M "C 2/C"
_symmetry_group_IT_number 15
_symmetry_cell_setting 'monoclinic'
loop_
_space_group_symop_operation_xyz
x,y,z
-x,y,1/2-z
-x,-y,-z
x,-y,1/2+z
1/2+x,1/2+y,z
1/2-x,1/2+y,1/2-z
1/2-x,1/2-y,-z
1/2+x,1/2-y,1/2+z
loop_
_atom_site_type_symbol
_atom_site_label
_atom_site_fract_x
_atom_site_fract_y
_atom_site_fract_z
Si Si1 0.636440 0.505778 0.293903
Si Si2 0.559630 0.722139 0.621248
Si Si3 0.466266 0.623676 0.609033
Si Si4 0.307762 0.205758 0.048465
Si Si5 0.136006 0.752663 0.605232
Si Si6 0.108752 0.477712 0.272748
Si Si7 0.414287 0.702562 0.090013
O O1 0.581954 0.438722 0.199298
O O2 0.666482 0.350431 0.356949
O O3 0.652861 0.605956 0.206383
O O4 0.630814 0.612789 0.396940
O O5 0.501025 0.683612 0.546796
O O6 0.589729 0.751794 0.541567
O O7 0.572873 0.873853 0.709402
O O8 0.500000 0.680413 0.750000
O O9 0.411778 0.695391 0.522837
O O10 0.455565 0.437539 0.620785
O O11 0.337687 0.048690 0.124980
O O12 0.250000 0.250000 0.000000
O O13 0.321506 0.210598 0.934236
O O14 0.118991 0.616560 0.670771
O O15 0.081770 0.358114 0.328962
#
# Coordination Sequence:
#
# PCOD9276838 Si02
#       7
#     8   8   8   8   8   8   8
#     4  10  20  40  65  93 125 173 212 270 326 396
#     4  11  21  38  63  93 130 175 221 263 324 376
#     4  12  22  38  68  95 130 179 230 264 309 396
#     4  11  23  44  69  95 129 168 221 275 342 404
#     4  11  23  43  64  93 135 173 218 275 337 384
#     4  10  25  43  64  98 138 174 211 285 338 388
#     4  11  21  39  65  92 132 171 223 262 325 386
#
# _framework density 20.588432000000001
#
# number of rings (size 3 to 8) (size 9 to 14) (size 15 to 20)
#    0.000    1.143    4.286    2.143    0.000    1.714 
#    0.000    6.429    0.000    0.000    0.000    0.000 
#    0.000    0.000    0.000    0.000    0.000    0.000 
#
# Total GULP energy -155987.195515 kJ/mol
# GULP energy per Si atom -5570.971268 kJ/mol
# Density = 2.054157 g / cm^3
# Si number density = 20.588432 Si / 1000 Ang^3
#
#
#
# Elastic Constant Matrix: (Units=GPa)
#
#
# Indices 1 2 3 4 5 6 
#
# 1 103.3778 31.8692 45.8538 0.0000 -12.2334 0.0000
# 2 31.8692 110.3187 42.8632 0.0000 -14.5658 0.0000
# 3 45.8538 42.8632 87.3261 0.0000 -28.1683 0.0000
# 4 0.0000 0.0000 0.0000 39.3442 0.0000 -10.6421
# 5 -12.2334 -14.5658 -28.1683 0.0000 28.4205 0.0000
# 6 0.0000 0.0000 0.0000 -10.6421 0.0000 0.2077
#
#
#
# Elastic Compliance Matrix: (Units=1/GPa)
#
#
# Indices 1 2 3 4 5 6 
#
# 1 0.012827 -0.001360 -0.006632 0.000000 -0.001749 0.000000
# 2 -0.001360 0.011348 -0.004658 0.000000 0.000614 0.000000
# 3 -0.006632 -0.004658 0.022827 0.000000 0.017382 0.000000
# 4 0.000000 0.000000 0.000000 -0.001977 0.000000 -0.101274
# 5 -0.001749 0.000614 0.017382 0.000000 0.051976 0.000000
# 6 0.000000 0.000000 0.000000 -0.101274 0.000000 -0.374412
#
#
# Mechanical properties :
#
#
# Convention : Reuss Voigt Hill
#
# Bulk Modulus (GPa) = 46.07708 60.24388 53.16048
# Shear Modulus (GPa) = -20.41854 25.62359 2.60253
#
# Velocity S-wave (km/s) = -3.15262 3.53166 1.12553
# Velocity P-wave (km/s) = 3.02930 6.77899 5.25030
#
# Compressibility (1/GPa) = 0.02170276
#
# Stress axis : x y z
#
# Youngs Moduli (GPa) = 77.95964 88.11798 43.80740
#
# Poissons Ratio (x) = 0.11980 0.29053
# Poissons Ratio (y) = 0.10599 0.20407
# Poissons Ratio (z) = 0.51703 0.41048
#
# Static dielectric constant tensor:
#      x y z
#    x 1.773240 0.000000 -0.045750 
#    y 0.000000 1.779890 0.000000 
#    z -0.045750 0.000000 1.815360 
# 
# From -- ./inp_files/125614.got.cif
#   From: 2010.05.17/outbox.cif.g08.bks.cpg/sg15_63_cif.got.tgz:125614.got - 2010.06.03 18:47:42.
