data_PCOD9276082
_publ_section_title
;
Structure prediction by ZEFSAII (Michael W. Deem and Ramdas Pophale) SiO2 
 PCOD9276082
Probable space group: C 2/C
;
_chemical_formula_sum "Si O2"
_cell_formula_units_Z 52
_cell_length_a 14.425849
_cell_length_b 15.274937
_cell_length_c 16.706451
_cell_angle_alpha 90.000000
_cell_angle_beta 39.845984
_cell_angle_gamma 90.000000
_cell_volume 2358.725617
_symmetry_space_group_name_H-M "C 2/C"
_symmetry_group_IT_number 15
_symmetry_cell_setting 'monoclinic'
loop_
_space_group_symop_operation_xyz
x,y,z
-x,y,1/2-z
-x,-y,-z
x,-y,1/2+z
1/2+x,1/2+y,z
1/2-x,1/2+y,1/2-z
1/2-x,1/2-y,-z
1/2+x,1/2-y,1/2+z
loop_
_atom_site_type_symbol
_atom_site_label
_atom_site_fract_x
_atom_site_fract_y
_atom_site_fract_z
Si Si1 0.645107 0.555995 0.405959
Si Si2 0.942639 0.249867 0.062834
Si Si3 0.054486 0.571680 0.299918
Si Si4 0.266779 0.009845 0.498776
Si Si5 0.386295 0.815374 0.399560
Si Si6 0.114543 0.770009 0.285642
Si Si7 0.500000 0.416802 0.250000
O O1 0.500000 0.500000 0.500000
O O2 0.598925 0.647660 0.397759
O O3 0.799016 0.528211 0.264079
O O4 0.704485 0.555673 0.458544
O O5 0.782788 0.290344 0.159229
O O6 0.018018 0.297687 0.085742
O O7 0.054684 0.245012 0.914767
O O8 0.087424 0.674024 0.266483
O O9 0.000000 0.535427 0.250000
O O10 0.906470 0.557471 0.444684
O O11 0.313649 0.911229 0.448242
O O12 0.135871 0.021311 0.646110
O O13 0.500000 0.804599 0.250000
O O14 0.250000 0.750000 0.500000
O O15 0.026510 0.848829 0.304770
#
# Coordination Sequence:
#
# PCOD9276082 Si02
#       7
#     8   8   8   8   8   8   4
#     4  10  20  39  67  98 134 179 242 303 365 433
#     4  11  24  42  66 104 140 186 246 306 372 441
#     4   9  19  36  65  96 136 181 229 292 371 447
#     4  11  24  44  68 106 143 198 249 305 378 451
#     4  12  27  49  76 100 146 203 255 309 381 460
#     4  11  22  41  69 107 145 188 239 307 379 448
#     4  12  24  42  74 106 152 192 250 308 382 466
#
# _framework density 22.045804
#
# number of rings (size 3 to 8) (size 9 to 14) (size 15 to 20)
#    0.000    1.231    2.308    4.154    1.077    2.462 
#    5.538    1.538    0.000    0.000    0.000    0.000 
#    0.000    0.000    0.000    0.000    0.000    0.000 
#
# Total GULP energy -144875.363908 kJ/mol
# GULP energy per Si atom -5572.129381 kJ/mol
# Density = 2.199563 g / cm^3
# Si number density = 22.045804 Si / 1000 Ang^3
#
#
#
# Elastic Constant Matrix: (Units=GPa)
#
#
# Indices 1 2 3 4 5 6 
#
# 1 39.9087 12.3322 41.0651 0.0000 -15.0269 0.0001
# 2 12.3322 83.8721 52.8363 0.0000 -13.5430 0.0000
# 3 41.0651 52.8363 164.4340 0.0000 -29.1270 0.0001
# 4 0.0000 0.0000 0.0000 36.3103 0.0000 -15.7988
# 5 -15.0269 -13.5430 -29.1270 0.0000 56.7054 -0.0001
# 6 0.0001 0.0000 0.0001 -15.7988 -0.0001 21.3814
#
#
#
# Elastic Compliance Matrix: (Units=1/GPa)
#
#
# Indices 1 2 3 4 5 6 
#
# 1 0.035145 0.000788 -0.008082 0.000000 0.005350 0.000000
# 2 0.000788 0.015043 -0.004793 0.000000 0.001340 0.000000
# 3 -0.008082 -0.004793 0.009965 0.000000 0.001832 0.000000
# 4 0.000000 0.000000 0.000000 0.040590 0.000000 0.029992
# 5 0.005350 0.001340 0.001832 0.000000 0.020314 0.000000
# 6 0.000000 0.000000 0.000000 0.029992 0.000000 0.068931
#
#
# Mechanical properties :
#
#
# Convention : Reuss Voigt Hill
#
# Bulk Modulus (GPa) = 27.79559 55.63135 41.71347
# Shear Modulus (GPa) = 22.10883 35.01149 28.56016
#
# Velocity S-wave (km/s) = 3.17023 3.98945 3.60320
# Velocity P-wave (km/s) = 5.10254 6.81984 6.02271
#
# Compressibility (1/GPa) = 0.03597693
#
# Stress axis : x y z
#
# Youngs Moduli (GPa) = 28.45378 66.47681 100.35585
#
# Poissons Ratio (x) = -0.05238 0.81112
# Poissons Ratio (y) = -0.02242 0.48102
# Poissons Ratio (z) = 0.22998 0.31863
#
# Static dielectric constant tensor:
#      x y z
#    x 1.703060 0.000000 -0.112480 
#    y 0.000000 1.811420 0.000000 
#    z -0.112480 0.000000 1.981640 
# 
# From -- ./inp_files/205648.got.cif
#   From: 2010.05.17/outbox.cif.g08.bks.cpg/sg15_103_cif.got.tgz:205648.got - 2010.06.03 18:47:42.
