data_PCOD9276993
_publ_section_title
;
Structure prediction by ZEFSAII (Michael W. Deem and Ramdas Pophale) SiO2 
 PCOD9276993
Probable space group: C 2/C
;
_chemical_formula_sum "Si O2"
_cell_formula_units_Z 40
_cell_length_a 23.038405
_cell_length_b 9.931492
_cell_length_c 11.366972
_cell_angle_alpha 90.000000
_cell_angle_beta 39.308012
_cell_angle_gamma 90.000000
_cell_volume 1647.596371
_symmetry_space_group_name_H-M "C 2/C"
_symmetry_group_IT_number 15
_symmetry_cell_setting 'monoclinic'
loop_
_space_group_symop_operation_xyz
x,y,z
-x,y,1/2-z
-x,-y,-z
x,-y,1/2+z
1/2+x,1/2+y,z
1/2-x,1/2+y,1/2-z
1/2-x,1/2-y,-z
1/2+x,1/2-y,1/2+z
loop_
_atom_site_type_symbol
_atom_site_label
_atom_site_fract_x
_atom_site_fract_y
_atom_site_fract_z
Si Si1 0.464562 0.145768 0.159350
Si Si2 0.762523 0.409463 0.995865
Si Si3 0.223765 0.054562 0.293156
Si Si4 0.428330 0.103691 0.955887
Si Si5 0.480804 0.431663 0.403402
O O1 0.371578 0.064231 0.329916
O O2 0.457884 0.298745 0.208435
O O3 0.551041 0.058264 0.065043
O O4 0.466288 0.158592 0.017772
O O5 0.729180 0.479224 0.925488
O O6 0.750000 0.250000 0.000000
O O7 0.723417 0.448886 0.184665
O O8 0.124462 0.119119 0.431388
O O9 0.320234 0.131051 0.118419
O O10 0.500000 0.156146 0.750000
O O11 0.500000 0.510980 0.250000
O O12 0.500000 0.500000 0.500000
#
# Coordination Sequence:
#
# PCOD9276993 Si02
#       5
#     8   8   8   8   8
#     4  10  22  40  68  94 136 181 224 281 342 404
#     4  11  23  44  69 103 139 183 230 286 349 414
#     4  11  24  41  70 103 135 181 234 283 340 419
#     4  10  20  40  67 100 132 173 233 284 335 403
#     4  12  26  46  67  98 138 186 226 279 347 414
#
# _framework density 24.27779
#
# number of rings (size 3 to 8) (size 9 to 14) (size 15 to 20)
#    0.000    1.200    2.000    4.200    2.800    0.800 
#    0.000    6.000    0.000    0.000    0.000    0.000 
#    0.000    0.000    0.000    0.000    0.000    0.000 
#
# Total GULP energy -111484.914546 kJ/mol
# GULP energy per Si atom -5574.245727 kJ/mol
# Density = 2.422253 g / cm^3
# Si number density = 24.277790 Si / 1000 Ang^3
#
#
#
# Elastic Constant Matrix: (Units=GPa)
#
#
# Indices 1 2 3 4 5 6 
#
# 1 168.9540 11.8313 60.3915 0.0000 25.4202 0.0000
# 2 11.8313 51.6559 16.7763 0.0000 26.0560 0.0000
# 3 60.3915 16.7763 128.7781 0.0000 10.1377 0.0000
# 4 0.0000 0.0000 0.0000 10.1153 0.0000 -13.4563
# 5 25.4202 26.0560 10.1377 0.0000 79.3064 0.0000
# 6 0.0000 0.0000 0.0000 -13.4563 0.0000 -6.5868
#
#
#
# Elastic Compliance Matrix: (Units=1/GPa)
#
#
# Indices 1 2 3 4 5 6 
#
# 1 0.007405 0.000453 -0.003367 0.000000 -0.002092 0.000000
# 2 0.000453 0.024022 -0.002736 0.000000 -0.007688 0.000000
# 3 -0.003367 -0.002736 0.009642 0.000000 0.000746 0.000000
# 4 0.000000 0.000000 0.000000 0.026592 0.000000 -0.054325
# 5 -0.002092 -0.007688 0.000746 0.000000 0.015710 0.000000
# 6 0.000000 0.000000 0.000000 -0.054325 0.000000 -0.040837
#
#
# Mechanical properties :
#
#
# Convention : Reuss Voigt Hill
#
# Bulk Modulus (GPa) = 33.59392 58.59845 46.09618
# Shear Modulus (GPa) = 78.42110 33.92626 56.17368
#
# Velocity S-wave (km/s) = 5.68961 3.74226 4.81540
# Velocity P-wave (km/s) = 7.55180 6.54689 7.06723
#
# Compressibility (1/GPa) = 0.02976729
#
# Stress axis : x y z
#
# Youngs Moduli (GPa) = 135.03733 41.62910 103.71200
#
# Poissons Ratio (x) = -0.01884 0.34921
# Poissons Ratio (y) = -0.06112 0.28380
# Poissons Ratio (z) = 0.45468 0.11392
#
# Static dielectric constant tensor:
#      x y z
#    x 2.110180 0.000000 0.028410 
#    y 0.000000 1.922250 0.000000 
#    z 0.028410 0.000000 2.001030 
# 
# From -- ./inp_files/117387.got.cif
#   From: 2010.05.17/outbox.cif.g08.bks.cpg/sg15_59_cif.got.tgz:117387.got - 2010.06.03 18:47:42.
