data_PCOD9276120
_publ_section_title
;
Structure prediction by ZEFSAII (Michael W. Deem and Ramdas Pophale) SiO2 
 PCOD9276120
Probable space group: C 2/C
;
_chemical_formula_sum "Si O2"
_cell_formula_units_Z 40
_cell_length_a 11.362546
_cell_length_b 24.673919
_cell_length_c 14.051940
_cell_angle_alpha 90.000000
_cell_angle_beta 151.948078
_cell_angle_gamma 90.000000
_cell_volume 1852.672866
_symmetry_space_group_name_H-M "C 2/C"
_symmetry_group_IT_number 15
_symmetry_cell_setting 'monoclinic'
loop_
_space_group_symop_operation_xyz
x,y,z
-x,y,1/2-z
-x,-y,-z
x,-y,1/2+z
1/2+x,1/2+y,z
1/2-x,1/2+y,1/2-z
1/2-x,1/2-y,-z
1/2+x,1/2-y,1/2+z
loop_
_atom_site_type_symbol
_atom_site_label
_atom_site_fract_x
_atom_site_fract_y
_atom_site_fract_z
Si Si1 0.603230 0.029663 0.167435
Si Si2 0.265312 0.379984 0.144559
Si Si3 0.871977 0.701566 0.454973
Si Si4 0.651490 0.429798 0.092915
Si Si5 0.666558 0.682530 0.512040
O O1 0.883147 0.053561 0.358873
O O2 0.657503 0.979852 0.277263
O O3 0.410622 0.079207 0.043025
O O4 0.500000 0.000000 0.000000
O O5 0.500000 0.361263 0.250000
O O6 0.366908 0.413890 0.308249
O O7 0.094985 0.331424 0.065199
O O8 0.846854 0.695365 0.551498
O O9 0.859561 0.766647 0.434398
O O10 0.614298 0.678104 0.230064
O O11 0.732948 0.374901 0.102034
#
# Coordination Sequence:
#
# PCOD9276120 Si02
#       5
#     8   8   8   8   8
#     4   9  20  41  64  93 127 170 228 268 328 389
#     4  11  23  41  63  93 141 176 217 269 328 414
#     4  10  21  39  64  99 132 169 215 276 341 392
#     4  10  20  40  68  92 123 173 223 279 332 376
#     4  10  20  39  68  95 131 163 219 288 331 390
#
# _framework density 21.590427999999999
#
# number of rings (size 3 to 8) (size 9 to 14) (size 15 to 20)
#    0.000    2.000    2.000    1.200    0.000    3.200 
#    0.000   30.000    0.000    0.000    0.000    0.000 
#    0.000    0.000    0.000    0.000    0.000    0.000 
#
# Total GULP energy -111605.747162 kJ/mol
# GULP energy per Si atom -5580.287358 kJ/mol
# Density = 2.154129 g / cm^3
# Si number density = 21.590428 Si / 1000 Ang^3
#
#
#
# Elastic Constant Matrix: (Units=GPa)
#
#
# Indices 1 2 3 4 5 6 
#
# 1 111.2980 64.6529 45.8399 0.0005 37.9811 -0.0008
# 2 64.6529 187.5730 57.2197 0.0000 21.3224 0.0000
# 3 45.8399 57.2197 133.6306 0.0018 21.9794 -0.0006
# 4 0.0005 0.0000 0.0018 44.1398 0.0011 -1.2005
# 5 37.9811 21.3224 21.9794 0.0011 26.9278 -0.0009
# 6 -0.0008 0.0000 -0.0006 -1.2005 -0.0009 -3.8892
#
#
#
# Elastic Compliance Matrix: (Units=1/GPa)
#
#
# Indices 1 2 3 4 5 6 
#
# 1 0.019884 -0.003733 -0.001266 0.000001 -0.024057 0.000001
# 2 -0.003733 0.007071 -0.001955 0.000000 0.001262 0.000001
# 3 -0.001266 -0.001955 0.009479 0.000000 -0.004404 0.000000
# 4 0.000001 0.000000 0.000000 0.022467 -0.000002 -0.006935
# 5 -0.024057 0.001262 -0.004404 -0.000002 0.073664 -0.000011
# 6 0.000001 0.000001 0.000000 -0.006935 -0.000011 -0.254983
#
#
# Mechanical properties :
#
#
# Convention : Reuss Voigt Hill
#
# Bulk Modulus (GPa) = 44.39037 85.32520 64.85779
# Shear Modulus (GPa) = -49.50396 31.08829 -9.20783
#
# Velocity S-wave (km/s) = -4.79358 3.79873 -2.06737
# Velocity P-wave (km/s) = 3.16750 7.67113 4.94030
#
# Compressibility (1/GPa) = 0.02252741
#
# Stress axis : x y z
#
# Youngs Moduli (GPa) = 50.29071 141.42720 105.49847
#
# Poissons Ratio (x) = 0.52794 0.13353
# Poissons Ratio (y) = 0.18773 0.20621
# Poissons Ratio (z) = 0.06365 0.27644
#
# Static dielectric constant tensor:
#      x y z
#    x 1.754180 0.000000 -0.038970 
#    y 0.000000 1.789620 0.000000 
#    z -0.038970 0.000000 1.867210 
# 
# From -- ./inp_files/148173.got.cif
#   From: 2010.05.17/outbox.cif.g08.bks.cpg/sg15_75_cif.got.tgz:148173.got - 2010.06.03 18:47:42.
