data_PCOD9276198
_publ_section_title
;
Structure prediction by ZEFSAII (Michael W. Deem and Ramdas Pophale) SiO2 
 PCOD9276198
Probable space group: C 2/C
;
_chemical_formula_sum "Si O2"
_cell_formula_units_Z 40
_cell_length_a 11.386661
_cell_length_b 25.098285
_cell_length_c 10.826710
_cell_angle_alpha 90.000000
_cell_angle_beta 30.167274
_cell_angle_gamma 90.000000
_cell_volume 1554.875644
_symmetry_space_group_name_H-M "C 2/C"
_symmetry_group_IT_number 15
_symmetry_cell_setting 'monoclinic'
loop_
_space_group_symop_operation_xyz
x,y,z
-x,y,1/2-z
-x,-y,-z
x,-y,1/2+z
1/2+x,1/2+y,z
1/2-x,1/2+y,1/2-z
1/2-x,1/2-y,-z
1/2+x,1/2-y,1/2+z
loop_
_atom_site_type_symbol
_atom_site_label
_atom_site_fract_x
_atom_site_fract_y
_atom_site_fract_z
Si Si1 0.524557 0.375017 0.434346
Si Si2 0.787803 0.769272 0.606879
Si Si3 0.848000 0.557293 0.508049
Si Si4 0.254333 0.335609 0.025574
Si Si5 0.275871 0.060176 0.122095
O O1 0.324885 0.332422 0.586378
O O2 0.666746 0.395661 0.190344
O O3 0.694458 0.347877 0.379136
O O4 0.422812 0.426067 0.598000
O O5 0.750000 0.750000 0.500000
O O6 0.050067 0.746049 0.396187
O O7 0.749039 0.497457 0.586562
O O8 0.992514 0.558778 0.504898
O O9 0.000000 0.566864 0.250000
O O10 0.000000 0.308787 0.250000
O O11 0.500000 0.312238 0.750000
O O12 0.227691 0.391128 0.971497
#
# Coordination Sequence:
#
# PCOD9276198 Si02
#       5
#     8   8   8   8   8
#     4  11  24  44  75 101 148 205 251 310 399 456
#     4  10  25  48  77 107 149 187 251 326 396 456
#     4  11  24  39  67 107 154 198 259 303 370 459
#     4  10  20  39  70  98 139 198 247 298 364 434
#     4  10  23  42  65 104 154 197 252 311 362 458
#
# _framework density 25.725531
#
# number of rings (size 3 to 8) (size 9 to 14) (size 15 to 20)
#    0.000    1.600    2.000    1.200    5.600    4.000 
#    3.600    0.000    0.000   15.600    0.000    0.000 
#    0.000    0.000    0.000    0.000    0.000    0.000 
#
# Total GULP energy -111910.814283 kJ/mol
# GULP energy per Si atom -5595.540714 kJ/mol
# Density = 2.566698 g / cm^3
# Si number density = 25.725531 Si / 1000 Ang^3
#
#
#
# Elastic Constant Matrix: (Units=GPa)
#
#
# Indices 1 2 3 4 5 6 
#
# 1 114.7956 44.4498 27.1582 0.0000 -14.1740 0.0000
# 2 44.4498 106.8441 67.4646 0.0000 11.7792 0.0000
# 3 27.1582 67.4646 204.7360 0.0000 -13.7442 -0.0001
# 4 0.0000 0.0000 0.0000 23.2394 0.0000 -3.8319
# 5 -14.1740 11.7792 -13.7442 0.0000 51.3693 0.0000
# 6 0.0000 0.0000 -0.0001 -3.8319 0.0000 -13.6743
#
#
#
# Elastic Compliance Matrix: (Units=1/GPa)
#
#
# Indices 1 2 3 4 5 6 
#
# 1 0.011298 -0.005624 0.000662 0.000000 0.004584 0.000000
# 2 -0.005624 0.015403 -0.004756 0.000000 -0.006356 0.000000
# 3 0.000662 -0.004756 0.006567 0.000000 0.003030 0.000000
# 4 0.000000 0.000000 0.000000 0.041130 0.000000 -0.011526
# 5 0.004584 -0.006356 0.003030 0.000000 0.023000 0.000000
# 6 0.000000 0.000000 0.000000 -0.011526 0.000000 -0.069900
#
#
# Mechanical properties :
#
#
# Convention : Reuss Voigt Hill
#
# Bulk Modulus (GPa) = 72.29319 78.28011 75.28665
# Shear Modulus (GPa) = 97.00249 31.34043 64.17146
#
# Velocity S-wave (km/s) = 6.14724 3.49415 4.99988
# Velocity P-wave (km/s) = 8.86270 6.83913 7.91585
#
# Compressibility (1/GPa) = 0.01383256
#
# Stress axis : x y z
#
# Youngs Moduli (GPa) = 88.51084 64.92183 152.27058
#
# Poissons Ratio (x) = 0.36511 -0.10083
# Poissons Ratio (y) = 0.49777 0.72425
# Poissons Ratio (z) = -0.05861 0.30879
#
# Static dielectric constant tensor:
#      x y z
#    x 2.010870 0.000000 -0.068080 
#    y 0.000000 1.992280 0.000000 
#    z -0.068080 0.000000 2.060320 
# 
# From -- ./inp_files/92195.got.cif
#   From: 2010.05.17/outbox.cif.g08.bks.cpg/sg15_47_cif.got.tgz:92195.got - 2010.06.03 18:47:42.
