data_PCOD9276743
_publ_section_title
;
Structure prediction by ZEFSAII (Michael W. Deem and Ramdas Pophale) SiO2 
 PCOD9276743
Probable space group: C 2/C
;
_chemical_formula_sum "Si O2"
_cell_formula_units_Z 52
_cell_length_a 17.082143
_cell_length_b 8.693382
_cell_length_c 19.768394
_cell_angle_alpha 90.000000
_cell_angle_beta 53.103837
_cell_angle_gamma 90.000000
_cell_volume 2347.702729
_symmetry_space_group_name_H-M "C 2/C"
_symmetry_group_IT_number 15
_symmetry_cell_setting 'monoclinic'
loop_
_space_group_symop_operation_xyz
x,y,z
-x,y,1/2-z
-x,-y,-z
x,-y,1/2+z
1/2+x,1/2+y,z
1/2-x,1/2+y,1/2-z
1/2-x,1/2-y,-z
1/2+x,1/2-y,1/2+z
loop_
_atom_site_type_symbol
_atom_site_label
_atom_site_fract_x
_atom_site_fract_y
_atom_site_fract_z
Si Si1 0.205745 0.316628 0.679802
Si Si2 0.500000 0.888871 0.750000
Si Si3 0.375990 0.445229 0.528417
Si Si4 0.246295 0.997607 0.221345
Si Si5 0.711473 0.784194 0.921061
Si Si6 0.533511 0.579643 0.373505
Si Si7 0.401242 0.151539 0.889248
O O1 0.273519 0.355544 0.580231
O O2 0.255898 0.176784 0.693287
O O3 0.211438 0.463450 0.727011
O O4 0.092574 0.289921 0.725001
O O5 0.451755 0.003330 0.830684
O O6 0.347570 0.624597 0.554005
O O7 0.449418 0.449659 0.427331
O O8 0.431284 0.388892 0.567287
O O9 0.292590 0.112922 0.143144
O O10 0.130397 0.028471 0.285547
O O11 0.822510 0.734302 0.880902
O O12 0.663315 0.874245 0.009398
O O13 0.484925 0.726674 0.364841
#
# Coordination Sequence:
#
# PCOD9276743 Si02
#       7
#     8   4   8   8   8   8   8
#     4  11  25  40  66  89 131 162 213 258 325 357
#     4  12  24  42  60  94 128 164 204 276 304 382
#     4   9  18  38  59  90 124 163 201 257 302 372
#     4  11  23  42  64  94 122 170 211 261 306 386
#     4  10  20  40  64  95 128 163 210 259 312 376
#     4   9  19  33  64  89 120 160 211 242 308 368
#     4  10  21  36  67  95 125 168 207 255 319 371
#
# _framework density 22.14931
#
# number of rings (size 3 to 8) (size 9 to 14) (size 15 to 20)
#    0.000    1.846    1.538    2.769    4.308    1.231 
#    2.769    1.538    0.000    0.000    0.000    0.000 
#    0.000    0.000    0.000    0.000    0.000    0.000 
#
# Total GULP energy -145224.810003 kJ/mol
# GULP energy per Si atom -5585.569615 kJ/mol
# Density = 2.209890 g / cm^3
# Si number density = 22.149310 Si / 1000 Ang^3
#
#
#
# Elastic Constant Matrix: (Units=GPa)
#
#
# Indices 1 2 3 4 5 6 
#
# 1 72.9734 2.3629 -4.2950 0.0000 -19.1114 0.0000
# 2 2.3629 29.9566 -4.4231 0.0000 -2.9024 0.0001
# 3 -4.2950 -4.4231 71.4313 0.0000 -14.3007 0.0000
# 4 0.0000 0.0000 0.0000 18.5381 0.0000 -0.7623
# 5 -19.1114 -2.9024 -14.3007 0.0000 33.2600 0.0000
# 6 0.0000 0.0001 0.0000 -0.7623 0.0000 33.0586
#
#
#
# Elastic Compliance Matrix: (Units=1/GPa)
#
#
# Indices 1 2 3 4 5 6 
#
# 1 0.016782 0.000225 0.003236 0.000000 0.011054 0.000000
# 2 0.000225 0.034237 0.003017 0.000000 0.004414 0.000000
# 3 0.003236 0.003017 0.016200 0.000000 0.009088 0.000000
# 4 0.000000 0.000000 0.000000 0.053994 0.000000 0.001245
# 5 0.011054 0.004414 0.009088 0.000000 0.040711 0.000000
# 6 0.000000 0.000000 0.000000 0.001245 0.000000 0.030278
#
#
# Mechanical properties :
#
#
# Convention : Reuss Voigt Hill
#
# Bulk Modulus (GPa) = 12.47257 17.96122 15.21690
# Shear Modulus (GPa) = 24.27527 29.01908 26.64717
#
# Velocity S-wave (km/s) = 3.31415 3.62354 3.47229
# Velocity P-wave (km/s) = 4.50424 5.06295 4.79174
#
# Compressibility (1/GPa) = 0.08017594
#
# Stress axis : x y z
#
# Youngs Moduli (GPa) = 59.58842 29.20812 61.72693
#
# Poissons Ratio (x) = -0.00657 -0.19975
# Poissons Ratio (y) = -0.01341 -0.18625
# Poissons Ratio (z) = -0.19283 -0.08813
#
# Static dielectric constant tensor:
#      x y z
#    x 1.835310 0.000000 -0.016830 
#    y 0.000000 1.794990 0.000000 
#    z -0.016830 0.000000 1.852400 
# 
# From -- ./inp_files/209177.got.cif
#   From: 2010.05.17/outbox.cif.g08.bks.cpg/sg15_105_cif.got.tgz:209177.got - 2010.06.03 18:47:42.
