data_PCOD9276250
_publ_section_title
;
Structure prediction by ZEFSAII (Michael W. Deem and Ramdas Pophale) SiO2 
 PCOD9276250
Probable space group: C 2/C
;
_chemical_formula_sum "Si O2"
_cell_formula_units_Z 60
_cell_length_a 26.791058
_cell_length_b 24.559758
_cell_length_c 9.687833
_cell_angle_alpha 90.000000
_cell_angle_beta 149.198118
_cell_angle_gamma 90.000000
_cell_volume 3264.155499
_symmetry_space_group_name_H-M "C 2/C"
_symmetry_group_IT_number 15
_symmetry_cell_setting 'monoclinic'
loop_
_space_group_symop_operation_xyz
x,y,z
-x,y,1/2-z
-x,-y,-z
x,-y,1/2+z
1/2+x,1/2+y,z
1/2-x,1/2+y,1/2-z
1/2-x,1/2-y,-z
1/2+x,1/2-y,1/2+z
loop_
_atom_site_type_symbol
_atom_site_label
_atom_site_fract_x
_atom_site_fract_y
_atom_site_fract_z
Si Si1 0.169949 0.320420 0.945710
Si Si2 0.132053 0.121364 0.876627
Si Si3 0.617091 0.528742 0.039814
Si Si4 0.355821 0.740915 0.190221
Si Si5 0.705013 0.791014 0.719013
Si Si6 0.086215 0.119713 0.184281
Si Si7 0.500000 0.790813 0.750000
Si Si8 0.170070 0.091392 0.662295
O O1 0.155639 0.312597 0.744411
O O2 0.076414 0.319272 0.824565
O O3 0.238172 0.266846 0.131579
O O4 0.230323 0.375138 0.126038
O O5 0.136186 0.119544 0.722098
O O6 0.018635 0.132591 0.631899
O O7 0.149572 0.061835 0.981474
O O8 0.210388 0.164886 0.114887
O O9 0.630565 0.572553 0.194102
O O10 0.675025 0.473204 0.197494
O O11 0.500000 0.517481 0.750000
O O12 0.361880 0.677045 0.178961
O O13 0.433618 0.756358 0.489562
O O14 0.250000 0.750000 0.000000
O O15 0.366113 0.777915 0.077387
O O16 0.093055 0.097498 0.355600
#
# Coordination Sequence:
#
# PCOD9276250 Si02
#       8
#     8   8   8   8   8   8   4   8
#     4  10  22  38  59  83 119 159 204 250 300 363
#     4  10  21  34  57  81 120 158 194 246 300 362
#     4  10  21  33  53  83 121 159 201 247 299 367
#     4  12  23  37  59  88 122 162 198 247 304 368
#     4  10  20  40  56  86 121 156 203 245 299 372
#     4  11  21  33  53  84 119 158 198 240 299 360
#     4  12  24  40  62  88 122 162 200 252 310 366
#     4  11  20  37  53  81 116 158 202 243 291 360
#
# _framework density 18.381478000000001
#
# number of rings (size 3 to 8) (size 9 to 14) (size 15 to 20)
#    0.000    1.333    2.667    3.600    2.800    2.667 
#    2.400    0.000    0.000    0.000    0.000   23.333 
#    0.000    0.000    0.000    0.000    0.000    0.000 
#
# Total GULP energy -167173.155154 kJ/mol
# GULP energy per Si atom -5572.438505 kJ/mol
# Density = 1.833964 g / cm^3
# Si number density = 18.381478 Si / 1000 Ang^3
#
#
#
# Elastic Constant Matrix: (Units=GPa)
#
#
# Indices 1 2 3 4 5 6 
#
# 1 93.3016 34.8853 34.3280 0.0000 -2.9427 0.0000
# 2 34.8853 102.3000 34.6510 0.0000 8.5694 0.0000
# 3 34.3280 34.6510 82.6180 0.0000 -18.8553 0.0000
# 4 0.0000 0.0000 0.0000 30.0899 0.0000 1.0175
# 5 -2.9427 8.5694 -18.8553 0.0000 25.3752 0.0000
# 6 0.0000 0.0000 0.0000 1.0175 0.0000 28.3703
#
#
#
# Elastic Compliance Matrix: (Units=1/GPa)
#
#
# Indices 1 2 3 4 5 6 
#
# 1 0.013478 -0.002999 -0.004521 0.000000 -0.000784 0.000000
# 2 -0.002999 0.014022 -0.006978 0.000000 -0.010268 0.000000
# 3 -0.004521 -0.006978 0.020866 0.000000 0.017337 0.000000
# 4 0.000000 0.000000 0.000000 0.033274 0.000000 -0.001193
# 5 -0.000784 -0.010268 0.017337 0.000000 0.055668 0.000000
# 6 0.000000 0.000000 0.000000 -0.001193 0.000000 0.035291
#
#
# Mechanical properties :
#
#
# Convention : Reuss Voigt Hill
#
# Bulk Modulus (GPa) = 51.62968 53.99427 52.81198
# Shear Modulus (GPa) = 24.03253 28.39077 26.21165
#
# Velocity S-wave (km/s) = 3.61977 3.93432 3.78031
# Velocity P-wave (km/s) = 6.75419 7.07648 6.91721
#
# Compressibility (1/GPa) = 0.01936870
#
# Stress axis : x y z
#
# Youngs Moduli (GPa) = 74.19497 71.31817 47.92522
#
# Poissons Ratio (x) = 0.21389 0.21668
# Poissons Ratio (y) = 0.22252 0.33443
# Poissons Ratio (z) = 0.33545 0.49767
#
# Static dielectric constant tensor:
#      x y z
#    x 1.479770 0.000000 0.055350 
#    y 0.000000 1.569900 0.000000 
#    z 0.055350 0.000000 1.628340 
# 
# From -- ./inp_files/67734.got.cif
#   From: 2010.05.17/outbox.cif.g08.bks.cpg/sg15_34_cif.got.tgz:67734.got - 2010.06.03 18:47:42.
