data_PCOD9276348
_publ_section_title
;
Structure prediction by ZEFSAII (Michael W. Deem and Ramdas Pophale) SiO2 
 PCOD9276348
Probable space group: C 2/C
;
_chemical_formula_sum "Si O2"
_cell_formula_units_Z 52
_cell_length_a 11.611872
_cell_length_b 16.433775
_cell_length_c 14.618726
_cell_angle_alpha 90.000000
_cell_angle_beta 111.246695
_cell_angle_gamma 90.000000
_cell_volume 2600.030383
_symmetry_space_group_name_H-M "C 2/C"
_symmetry_group_IT_number 15
_symmetry_cell_setting 'monoclinic'
loop_
_space_group_symop_operation_xyz
x,y,z
-x,y,1/2-z
-x,-y,-z
x,-y,1/2+z
1/2+x,1/2+y,z
1/2-x,1/2+y,1/2-z
1/2-x,1/2-y,-z
1/2+x,1/2-y,1/2+z
loop_
_atom_site_type_symbol
_atom_site_label
_atom_site_fract_x
_atom_site_fract_y
_atom_site_fract_z
Si Si1 0.500000 0.124152 0.750000
Si Si2 0.130605 0.651102 0.414454
Si Si3 0.878748 0.897827 0.333411
Si Si4 0.297930 0.172572 0.567002
Si Si5 0.091760 0.572626 0.057208
Si Si6 0.150419 0.840498 0.380249
Si Si7 0.307971 0.978957 0.725396
O O1 0.430785 0.179277 0.655880
O O2 0.393967 0.060057 0.748712
O O3 0.139095 0.742364 0.378293
O O4 0.237889 0.637826 0.520198
O O5 0.144829 0.584624 0.337408
O O6 0.001981 0.640590 0.430953
O O7 0.806360 0.848165 0.389483
O O8 0.835164 0.869728 0.219707
O O9 0.023640 0.880864 0.378856
O O10 0.830464 0.989942 0.332258
O O11 0.250000 0.250000 0.500000
O O12 0.325837 0.100344 0.503692
O O13 0.176370 0.552942 0.168029
O O14 0.000000 0.500000 0.000000
#
# Coordination Sequence:
#
# PCOD9276348 Si02
#       7
#     4   8   8   8   8   8   8
#     4  10  20  40  60  92 126 168 212 272 320 390
#     4  11  23  39  68  99 123 170 233 270 322 397
#     4  10  23  42  61  91 132 173 213 269 335 389
#     4  11  24  38  61  97 135 169 209 274 340 392
#     4  12  21  38  67  99 128 165 220 274 327 385
#     4  10  24  43  65  90 130 180 216 272 328 399
#     4  11  21  39  67 100 125 165 226 280 315 388
#
# _framework density 19.999766999999999
#
# number of rings (size 3 to 8) (size 9 to 14) (size 15 to 20)
#    0.000    1.231    3.077    2.769    8.615    0.615 
#    0.000    1.538    0.000    0.000    0.000    0.000 
#    0.000    0.000    0.000    0.000    0.000    0.000 
#
# Total GULP energy -145187.706963 kJ/mol
# GULP energy per Si atom -5584.142576 kJ/mol
# Density = 1.995425 g / cm^3
# Si number density = 19.999767 Si / 1000 Ang^3
#
#
#
# Elastic Constant Matrix: (Units=GPa)
#
#
# Indices 1 2 3 4 5 6 
#
# 1 110.3524 31.9698 36.4636 0.0000 -12.4037 0.0000
# 2 31.9698 48.2776 18.7042 0.0000 6.4838 0.0000
# 3 36.4636 18.7042 87.0291 0.0000 -1.2297 0.0000
# 4 0.0000 0.0000 0.0000 35.6994 0.0000 5.1473
# 5 -12.4037 6.4838 -1.2297 0.0000 39.2910 0.0000
# 6 0.0000 0.0000 0.0000 5.1473 0.0000 24.9282
#
#
#
# Elastic Compliance Matrix: (Units=1/GPa)
#
#
# Indices 1 2 3 4 5 6 
#
# 1 0.013231 -0.008036 -0.003740 0.000000 0.005386 0.000000
# 2 -0.008036 0.028084 -0.002771 0.000000 -0.007258 0.000000
# 3 -0.003740 -0.002771 0.013649 0.000000 -0.000296 0.000000
# 4 0.000000 0.000000 0.000000 0.028871 0.000000 -0.005961
# 5 0.005386 -0.007258 -0.000296 0.000000 0.028340 0.000000
# 6 0.000000 0.000000 0.000000 -0.005961 0.000000 0.041346
#
#
# Mechanical properties :
#
#
# Convention : Reuss Voigt Hill
#
# Bulk Modulus (GPa) = 38.65743 46.65935 42.65839
# Shear Modulus (GPa) = 26.14522 30.55180 28.34851
#
# Velocity S-wave (km/s) = 3.61955 3.91270 3.76898
# Velocity P-wave (km/s) = 6.06952 6.61762 6.34949
#
# Compressibility (1/GPa) = 0.02586825
#
# Stress axis : x y z
#
# Youngs Moduli (GPa) = 75.57817 35.60806 73.26542
#
# Poissons Ratio (x) = 0.28615 0.27405
# Poissons Ratio (y) = 0.60735 0.20304
# Poissons Ratio (z) = 0.28270 0.09868
#
# Static dielectric constant tensor:
#      x y z
#    x 1.712630 0.000000 0.011240 
#    y 0.000000 1.734910 0.000000 
#    z 0.011240 0.000000 1.720910 
# 
# From -- ./inp_files/144323.got.cif
#   From: 2010.05.17/outbox.cif.g08.bks.cpg/sg15_73_cif.got.tgz:144323.got - 2010.06.03 18:47:42.
