data_PCOD9276308
_publ_section_title
;
Structure prediction by ZEFSAII (Michael W. Deem and Ramdas Pophale) SiO2 
 PCOD9276308
Probable space group: C 2/C
;
_chemical_formula_sum "Si O2"
_cell_formula_units_Z 40
_cell_length_a 10.705690
_cell_length_b 15.854958
_cell_length_c 15.252954
_cell_angle_alpha 90.000000
_cell_angle_beta 54.656433
_cell_angle_gamma 90.000000
_cell_volume 2111.850133
_symmetry_space_group_name_H-M "C 2/C"
_symmetry_group_IT_number 15
_symmetry_cell_setting 'monoclinic'
loop_
_space_group_symop_operation_xyz
x,y,z
-x,y,1/2-z
-x,-y,-z
x,-y,1/2+z
1/2+x,1/2+y,z
1/2-x,1/2+y,1/2-z
1/2-x,1/2-y,-z
1/2+x,1/2-y,1/2+z
loop_
_atom_site_type_symbol
_atom_site_label
_atom_site_fract_x
_atom_site_fract_y
_atom_site_fract_z
Si Si1 0.397160 0.833656 0.625520
Si Si2 0.356159 0.441406 0.874368
Si Si3 0.770007 0.216612 0.138048
Si Si4 0.246446 0.126685 0.532540
Si Si5 0.603245 0.705149 0.016777
O O1 0.283273 0.894143 0.618162
O O2 0.341070 0.824731 0.747093
O O3 0.568608 0.868096 0.547298
O O4 0.389472 0.739940 0.585365
O O5 0.500000 0.436389 0.750000
O O6 0.313503 0.536956 0.913297
O O7 0.612018 0.390066 0.548359
O O8 0.702761 0.299546 0.118806
O O9 0.934554 0.236739 0.115624
O O10 0.806115 0.153269 0.043256
O O11 0.750000 0.750000 0.000000
#
# Coordination Sequence:
#
# PCOD9276308 Si02
#       5
#     8   8   8   8   8
#     4  10  20  40  63  81 122 160 203 242 303 360
#     4  11  21  38  60  88 123 151 199 258 304 346
#     4  10  20  40  60  84 117 165 198 239 305 365
#     4  10  23  36  60  89 121 154 202 250 300 360
#     4   9  20  36  61  87 113 156 197 247 292 362
#
# _framework density 18.940738
#
# number of rings (size 3 to 8) (size 9 to 14) (size 15 to 20)
#    0.000    2.000    2.000    1.200    0.000    5.600 
#    3.600    0.000    8.800    0.000    0.000    0.000 
#    0.000    0.000    0.000    0.000    0.000    0.000 
#
# Total GULP energy -111485.147307 kJ/mol
# GULP energy per Si atom -5574.257365 kJ/mol
# Density = 1.889763 g / cm^3
# Si number density = 18.940738 Si / 1000 Ang^3
#
#
#
# Elastic Constant Matrix: (Units=GPa)
#
#
# Indices 1 2 3 4 5 6 
#
# 1 75.6804 15.7065 16.2482 0.0000 -9.0050 0.0000
# 2 15.7065 120.7900 36.5197 0.0000 14.1062 0.0000
# 3 16.2482 36.5197 33.4810 0.0000 2.5315 0.0000
# 4 0.0000 0.0000 0.0000 23.2063 0.0000 -5.5696
# 5 -9.0050 14.1062 2.5315 0.0000 26.2949 0.0000
# 6 0.0000 0.0000 0.0000 -5.5696 0.0000 22.6410
#
#
#
# Elastic Compliance Matrix: (Units=1/GPa)
#
#
# Indices 1 2 3 4 5 6 
#
# 1 0.015697 -0.000502 -0.007552 0.000000 0.006372 0.000000
# 2 -0.000502 0.013170 -0.013674 0.000000 -0.005921 0.000000
# 3 -0.007552 -0.013674 0.048441 0.000000 0.000085 0.000000
# 4 0.000000 0.000000 0.000000 0.045796 0.000000 0.011266
# 5 0.006372 -0.005921 0.000085 0.000000 0.043380 0.000000
# 6 0.000000 0.000000 0.000000 0.011266 0.000000 0.046939
#
#
# Mechanical properties :
#
#
# Convention : Reuss Voigt Hill
#
# Bulk Modulus (GPa) = 29.54006 40.76669 35.15337
# Shear Modulus (GPa) = 18.64548 25.19359 21.91953
#
# Velocity S-wave (km/s) = 3.14094 3.65105 3.40556
# Velocity P-wave (km/s) = 5.36506 6.27244 5.83641
#
# Compressibility (1/GPa) = 0.03385234
#
# Stress axis : x y z
#
# Youngs Moduli (GPa) = 63.70556 75.93244 20.64380
#
# Poissons Ratio (x) = 0.03812 0.15590
# Poissons Ratio (y) = 0.03198 0.28227
# Poissons Ratio (z) = 0.48110 1.03827
#
# Static dielectric constant tensor:
#      x y z
#    x 1.726080 0.000000 -0.000420 
#    y 0.000000 1.633790 0.000000 
#    z -0.000420 0.000000 1.646880 
# 
# From -- ./inp_files/143294.got.cif
#   From: 2010.05.17/outbox.cif.g08.bks.cpg/sg15_72_cif.got.tgz:143294.got - 2010.06.03 18:47:42.
