data_PCOD9276096
_publ_section_title
;
Structure prediction by ZEFSAII (Michael W. Deem and Ramdas Pophale) SiO2 
 PCOD9276096
Probable space group: C 2/C
;
_chemical_formula_sum "Si O2"
_cell_formula_units_Z 40
_cell_length_a 10.376211
_cell_length_b 10.742260
_cell_length_c 21.476421
_cell_angle_alpha 90.000000
_cell_angle_beta 41.720116
_cell_angle_gamma 90.000000
_cell_volume 1593.087010
_symmetry_space_group_name_H-M "C 2/C"
_symmetry_group_IT_number 15
_symmetry_cell_setting 'monoclinic'
loop_
_space_group_symop_operation_xyz
x,y,z
-x,y,1/2-z
-x,-y,-z
x,-y,1/2+z
1/2+x,1/2+y,z
1/2-x,1/2+y,1/2-z
1/2-x,1/2-y,-z
1/2+x,1/2-y,1/2+z
loop_
_atom_site_type_symbol
_atom_site_label
_atom_site_fract_x
_atom_site_fract_y
_atom_site_fract_z
Si Si1 0.548707 0.755998 0.419254
Si Si2 0.000000 0.476722 0.250000
Si Si3 0.760248 0.218602 0.714425
Si Si4 0.500000 0.432012 0.750000
Si Si5 0.855129 0.343282 0.905982
Si Si6 0.784830 0.953813 0.948606
O O1 0.676082 0.803348 0.314253
O O2 0.685398 0.712395 0.425278
O O3 0.398889 0.861909 0.495203
O O4 0.429802 0.636246 0.435736
O O5 0.184373 0.389794 0.196714
O O6 0.030184 0.562958 0.180544
O O7 0.655736 0.342291 0.726819
O O8 0.985858 0.242899 0.631919
O O9 0.386543 0.494797 0.847586
O O10 0.717654 0.070236 0.012568
#
# Coordination Sequence:
#
# PCOD9276096 Si02
#       6
#     8   4   8   4   8   8
#     4  10  20  39  68 106 134 180 238 285 350 427
#     4  11  22  40  70 103 144 187 220 294 350 411
#     4  10  21  40  65 104 142 176 232 288 349 423
#     4   9  22  44  64  89 148 185 224 300 344 395
#     4  12  22  41  74 103 136 187 236 277 357 430
#     4  10  22  41  71  99 143 186 230 294 348 404
#
# _framework density 25.108484000000001
#
# number of rings (size 3 to 8) (size 9 to 14) (size 15 to 20)
#    0.000    1.600    4.000    0.600    2.800    0.800 
#    0.000    5.000    0.000    0.000    0.000    0.000 
#    0.000    0.000    0.000    0.000    0.000    0.000 
#
# Total GULP energy -112271.223439 kJ/mol
# GULP energy per Si atom -5613.561172 kJ/mol
# Density = 2.505134 g / cm^3
# Si number density = 25.108484 Si / 1000 Ang^3
#
#
#
# Elastic Constant Matrix: (Units=GPa)
#
#
# Indices 1 2 3 4 5 6 
#
# 1 133.5520 48.6937 26.4127 0.0000 -27.1526 0.0000
# 2 48.6937 79.3766 37.9877 0.0000 -12.5249 0.0000
# 3 26.4127 37.9877 109.5574 0.0000 16.5083 0.0000
# 4 0.0000 0.0000 0.0000 36.5378 0.0000 13.3991
# 5 -27.1526 -12.5249 16.5083 0.0000 52.7398 0.0000
# 6 0.0000 0.0000 0.0000 13.3991 0.0000 -2.2201
#
#
#
# Elastic Compliance Matrix: (Units=1/GPa)
#
#
# Indices 1 2 3 4 5 6 
#
# 1 0.010580 -0.005013 -0.001526 0.000000 0.004734 0.000000
# 2 -0.005013 0.019160 -0.006015 0.000000 0.003852 0.000000
# 3 -0.001526 -0.006015 0.012505 0.000000 -0.006128 0.000000
# 4 0.000000 0.000000 0.000000 0.008517 0.000000 0.051406
# 5 0.004734 0.003852 -0.006128 0.000000 0.024231 0.000000
# 6 0.000000 0.000000 0.000000 0.051406 0.000000 -0.140178
#
#
# Mechanical properties :
#
#
# Convention : Reuss Voigt Hill
#
# Bulk Modulus (GPa) = 58.35622 60.96378 59.66000
# Shear Modulus (GPa) = -145.49690 31.37096 -57.06297
#
# Velocity S-wave (km/s) = -7.62057 3.53854 -4.77241
# Velocity P-wave (km/s) = 7.35790 6.40530 2.56035
#
# Compressibility (1/GPa) = 0.01713613
#
# Stress axis : x y z
#
# Youngs Moduli (GPa) = 94.52085 52.19190 79.97022
#
# Poissons Ratio (x) = 0.26164 0.12201
# Poissons Ratio (y) = 0.47383 0.48106
# Poissons Ratio (z) = 0.14421 0.31396
#
# Static dielectric constant tensor:
#      x y z
#    x 1.941020 0.000000 -0.007120 
#    y 0.000000 1.933030 0.000000 
#    z -0.007120 0.000000 1.975560 
# 
# From -- ./inp_files/291933.got.cif
#   From: 2010.05.17/outbox.cif.g08.bks.cpg/sg15_146_cif.got.tgz:291933.got - 2010.06.03 18:47:42.
