data_PCOD9276982
_publ_section_title
;
Structure prediction by ZEFSAII (Michael W. Deem and Ramdas Pophale) SiO2 
 PCOD9276982
Probable space group: C 2/C
;
_chemical_formula_sum "Si O2"
_cell_formula_units_Z 44
_cell_length_a 17.524980
_cell_length_b 7.891828
_cell_length_c 12.302888
_cell_angle_alpha 90.000000
_cell_angle_beta 75.989118
_cell_angle_gamma 90.000000
_cell_volume 1650.918968
_symmetry_space_group_name_H-M "C 2/C"
_symmetry_group_IT_number 15
_symmetry_cell_setting 'monoclinic'
loop_
_space_group_symop_operation_xyz
x,y,z
-x,y,1/2-z
-x,-y,-z
x,-y,1/2+z
1/2+x,1/2+y,z
1/2-x,1/2+y,1/2-z
1/2-x,1/2-y,-z
1/2+x,1/2-y,1/2+z
loop_
_atom_site_type_symbol
_atom_site_label
_atom_site_fract_x
_atom_site_fract_y
_atom_site_fract_z
Si Si1 0.940245 0.556975 0.864847
Si Si2 0.000000 0.943093 0.250000
Si Si3 0.851491 0.131949 0.410230
Si Si4 0.875551 0.761437 0.146098
Si Si5 0.252712 0.675968 0.877541
Si Si6 0.911832 0.373686 0.069991
O O1 0.865397 0.673086 0.867508
O O2 0.000000 0.513586 0.750000
O O3 0.002273 0.667478 0.916864
O O4 0.914718 0.392343 0.939213
O O5 0.952291 0.845419 0.172951
O O6 0.930125 0.044324 0.335121
O O7 0.850336 0.145404 0.542482
O O8 0.778872 0.021224 0.390602
O O9 0.811774 0.763095 0.264712
O O10 0.893744 0.566878 0.111377
O O11 0.164747 0.722078 0.867147
O O12 0.250000 0.750000 0.000000
#
# Coordination Sequence:
#
# PCOD9276982 Si02
#       6
#     8   4   8   8   8   8
#     4  10  22  40  70  94 127 169 217 278 325 394
#     4  10  20  40  66  98 130 160 224 264 332 392
#     4  10  22  43  66  97 127 172 218 268 331 394
#     4  10  24  40  67  93 130 176 211 278 328 397
#     4  11  27  43  65  96 135 177 220 269 333 400
#     4  10  25  42  63  99 128 171 223 268 339 394
#
# _framework density 26.651821000000002
#
# number of rings (size 3 to 8) (size 9 to 14) (size 15 to 20)
#    0.000    1.818    0.909    0.545    6.364   13.091 
#    0.000    0.000    0.000    0.000    0.000    0.000 
#    0.000    0.000    0.000    0.000    0.000    0.000 
#
# Total GULP energy -123020.378637 kJ/mol
# GULP energy per Si atom -5591.835393 kJ/mol
# Density = 2.659116 g / cm^3
# Si number density = 26.651821 Si / 1000 Ang^3
#
#
#
# Elastic Constant Matrix: (Units=GPa)
#
#
# Indices 1 2 3 4 5 6 
#
# 1 96.3062 0.8382 26.2793 0.0000 -25.2892 0.0000
# 2 0.8382 47.4915 19.4748 0.0000 -6.0578 0.0000
# 3 26.2793 19.4748 181.8152 0.0000 -13.2602 0.0000
# 4 0.0000 0.0000 0.0000 23.6684 0.0000 7.8117
# 5 -25.2892 -6.0578 -13.2602 0.0000 48.7076 0.0000
# 6 0.0000 0.0000 0.0000 7.8117 0.0000 37.2121
#
#
#
# Elastic Compliance Matrix: (Units=1/GPa)
#
#
# Indices 1 2 3 4 5 6 
#
# 1 0.012397 0.001171 -0.001466 0.000000 0.006183 0.000000
# 2 0.001171 0.022355 -0.002364 0.000000 0.002745 0.000000
# 3 -0.001466 -0.002364 0.006008 0.000000 0.000580 0.000000
# 4 0.000000 0.000000 0.000000 0.045396 0.000000 -0.009530
# 5 0.006183 0.002745 0.000580 0.000000 0.024240 0.000000
# 6 0.000000 0.000000 0.000000 -0.009530 0.000000 0.028873
#
#
# Mechanical properties :
#
#
# Convention : Reuss Voigt Hill
#
# Bulk Modulus (GPa) = 28.21498 46.53307 37.37402
# Shear Modulus (GPa) = 31.96918 40.51900 36.24409
#
# Velocity S-wave (km/s) = 3.46715 3.90334 3.69170
# Velocity P-wave (km/s) = 5.16117 6.14917 5.67671
#
# Compressibility (1/GPa) = 0.03544217
#
# Stress axis : x y z
#
# Youngs Moduli (GPa) = 80.66395 44.73248 166.45789
#
# Poissons Ratio (x) = -0.05239 0.24409
# Poissons Ratio (y) = -0.09447 0.39344
# Poissons Ratio (z) = 0.11828 0.10573
#
# Static dielectric constant tensor:
#      x y z
#    x 2.079680 0.000000 0.139710 
#    y 0.000000 2.109250 0.000000 
#    z 0.139710 0.000000 2.346520 
# 
# From -- ./inp_files/109955.got.cif
#   From: 2010.05.17/outbox.cif.g08.bks.cpg/sg15_55_cif.got.tgz:109955.got - 2010.06.03 18:47:42.
