data_PCOD9276367
_publ_section_title
;
Structure prediction by ZEFSAII (Michael W. Deem and Ramdas Pophale) SiO2 
 PCOD9276367
Probable space group: C 2/C
;
_chemical_formula_sum "Si O2"
_cell_formula_units_Z 44
_cell_length_a 10.134376
_cell_length_b 21.216305
_cell_length_c 9.555942
_cell_angle_alpha 90.000000
_cell_angle_beta 67.730649
_cell_angle_gamma 90.000000
_cell_volume 1901.409508
_symmetry_space_group_name_H-M "C 2/C"
_symmetry_group_IT_number 15
_symmetry_cell_setting 'monoclinic'
loop_
_space_group_symop_operation_xyz
x,y,z
-x,y,1/2-z
-x,-y,-z
x,-y,1/2+z
1/2+x,1/2+y,z
1/2-x,1/2+y,1/2-z
1/2-x,1/2-y,-z
1/2+x,1/2-y,1/2+z
loop_
_atom_site_type_symbol
_atom_site_label
_atom_site_fract_x
_atom_site_fract_y
_atom_site_fract_z
Si Si1 0.723589 0.517262 0.667154
Si Si2 0.047557 0.273271 0.988317
Si Si3 0.500000 0.311229 0.250000
Si Si4 0.000000 0.181359 0.250000
Si Si5 0.203658 0.357836 0.466534
Si Si6 0.000000 0.000000 0.500000
Si Si7 0.784995 0.619715 0.215690
O O1 0.824874 0.576917 0.600634
O O2 0.630666 0.506208 0.564378
O O3 0.803766 0.452750 0.672321
O O4 0.613944 0.527820 0.838325
O O5 0.068625 0.231778 0.841881
O O6 0.139287 0.335577 0.926958
O O7 0.071538 0.228170 0.109461
O O8 0.884872 0.298781 0.055616
O O9 0.372202 0.347906 0.375574
O O10 0.883865 0.136428 0.224544
O O11 0.169681 0.364547 0.644368
#
# Coordination Sequence:
#
# PCOD9276367 Si02
#       7
#     8   8   4   4   8   4   8
#     4  11  24  39  69 102 136 180 226 280 348 403
#     4  12  26  47  72 101 142 186 229 281 354 415
#     4  12  22  43  76  97 132 186 242 276 336 410
#     4  12  26  45  70 109 134 178 240 294 338 396
#     4  12  25  45  73 103 140 185 233 284 343 420
#     4  10  20  40  60  98 140 164 226 280 326 396
#     4  12  25  46  71 103 145 180 229 293 341 414
#
# _framework density 23.140726999999998
#
# number of rings (size 3 to 8) (size 9 to 14) (size 15 to 20)
#    0.000    0.364    5.455    4.364    0.000    3.636 
#    0.000    0.000    0.000    0.000    0.000    0.000 
#    0.000    0.000    0.000    0.000    0.000    0.000 
#
# Total GULP energy -122633.486303 kJ/mol
# GULP energy per Si atom -5574.249377 kJ/mol
# Density = 2.308806 g / cm^3
# Si number density = 23.140727 Si / 1000 Ang^3
#
#
#
# Elastic Constant Matrix: (Units=GPa)
#
#
# Indices 1 2 3 4 5 6 
#
# 1 32.1867 -3.4212 7.8524 0.0000 -8.8820 0.0000
# 2 -3.4212 92.7993 7.7617 0.0000 -0.1420 0.0000
# 3 7.8524 7.7617 96.9468 0.0000 10.7067 0.0000
# 4 0.0000 0.0000 0.0000 -2.1374 0.0000 10.8237
# 5 -8.8820 -0.1420 10.7067 0.0000 34.7254 0.0000
# 6 0.0000 0.0000 0.0000 10.8237 0.0000 11.9698
#
#
#
# Elastic Compliance Matrix: (Units=1/GPa)
#
#
# Indices 1 2 3 4 5 6 
#
# 1 0.035072 0.001652 -0.004104 0.000000 0.010243 0.000000
# 2 0.001652 0.010930 -0.001098 0.000000 0.000806 0.000000
# 3 -0.004104 -0.001098 0.011234 0.000000 -0.004518 0.000000
# 4 0.000000 0.000000 0.000000 -0.083860 0.000000 0.075830
# 5 0.010243 0.000806 -0.004518 0.000000 0.032814 0.000000
# 6 0.000000 0.000000 0.000000 0.075830 0.000000 0.014975
#
#
# Mechanical properties :
#
#
# Convention : Reuss Voigt Hill
#
# Bulk Modulus (GPa) = 19.94572 27.36874 23.65723
# Shear Modulus (GPa) = 111.16782 22.89421 67.03102
#
# Velocity S-wave (km/s) = 6.93860 3.14880 5.38791
# Velocity P-wave (km/s) = 8.53407 5.00726 6.99653
#
# Compressibility (1/GPa) = 0.05013607
#
# Stress axis : x y z
#
# Youngs Moduli (GPa) = 28.51263 91.49212 89.01367
#
# Poissons Ratio (x) = -0.15114 0.36533
# Poissons Ratio (y) = -0.04710 0.09772
# Poissons Ratio (z) = 0.11702 0.10045
#
# Static dielectric constant tensor:
#      x y z
#    x 1.974820 0.000000 -0.080190 
#    y 0.000000 1.889340 0.000000 
#    z -0.080190 0.000000 1.830680 
# 
# From -- ./inp_files/32475.got.cif
#   From: 2010.05.17/outbox.cif.g08.bks.cpg/sg15_17_cif.got.tgz:32475.got - 2010.06.03 18:47:42.
