data_PCOD9276211
_publ_section_title
;
Structure prediction by ZEFSAII (Michael W. Deem and Ramdas Pophale) SiO2 
 PCOD9276211
Probable space group: C 2/C
;
_chemical_formula_sum "Si O2"
_cell_formula_units_Z 56
_cell_length_a 14.327969
_cell_length_b 12.148487
_cell_length_c 24.361811
_cell_angle_alpha 90.000000
_cell_angle_beta 31.710439
_cell_angle_gamma 90.000000
_cell_volume 2228.916388
_symmetry_space_group_name_H-M "C 2/C"
_symmetry_group_IT_number 15
_symmetry_cell_setting 'monoclinic'
loop_
_space_group_symop_operation_xyz
x,y,z
-x,y,1/2-z
-x,-y,-z
x,-y,1/2+z
1/2+x,1/2+y,z
1/2-x,1/2+y,1/2-z
1/2-x,1/2-y,-z
1/2+x,1/2-y,1/2+z
loop_
_atom_site_type_symbol
_atom_site_label
_atom_site_fract_x
_atom_site_fract_y
_atom_site_fract_z
Si Si1 0.446519 0.251057 0.135353
Si Si2 0.872786 0.129131 0.202574
Si Si3 0.453207 0.032562 0.350830
Si Si4 0.267459 0.860791 0.524408
Si Si5 0.966323 0.633970 0.517849
Si Si6 0.381020 0.578440 0.754958
Si Si7 0.309030 0.459221 0.617597
O O1 0.235069 0.238289 0.229771
O O2 0.477908 0.360862 0.154957
O O3 0.490331 0.149811 0.153327
O O4 0.538985 0.211593 0.033198
O O5 0.064064 0.107981 0.133085
O O6 0.780291 0.026703 0.279339
O O7 0.874603 0.114824 0.136279
O O8 0.370481 0.952747 0.437944
O O9 0.301268 0.064434 0.382687
O O10 0.636732 0.981938 0.233983
O O11 0.250000 0.750000 0.500000
O O12 0.366877 0.831180 0.529794
O O13 0.780660 0.651805 0.641535
O O14 0.000000 0.500000 0.500000
O O15 0.500000 0.561328 0.750000
O O16 0.500000 0.500000 0.500000
#
# Coordination Sequence:
#
# PCOD9276211 Si02
#       7
#     8   8   8   8   8   8   8
#     4  11  26  47  74 107 147 195 250 309 374 450
#     4  11  24  44  70 104 148 187 252 306 366 448
#     4  10  22  42  69 104 146 187 251 317 372 437
#     4  12  25  44  73 107 144 195 249 306 378 457
#     4  12  23  50  79 100 152 202 241 309 384 444
#     4  12  28  47  75 112 145 193 258 308 372 454
#     4  10  20  39  71  96 140 197 237 302 388 423
#
# _framework density 25.124316
#
# number of rings (size 3 to 8) (size 9 to 14) (size 15 to 20)
#    0.000    0.857    4.286    2.571    4.000    1.714 
#    5.143    1.429    0.000    0.000    0.000    0.000 
#    0.000    0.000    0.000    0.000    0.000    0.000 
#
# Total GULP energy -156146.560033 kJ/mol
# GULP energy per Si atom -5576.662858 kJ/mol
# Density = 2.506713 g / cm^3
# Si number density = 25.124316 Si / 1000 Ang^3
#
#
#
# Elastic Constant Matrix: (Units=GPa)
#
#
# Indices 1 2 3 4 5 6 
#
# 1 158.0584 27.0553 25.0981 0.0000 -1.4850 0.0000
# 2 27.0553 80.4861 -17.5686 -0.0003 11.7900 0.0001
# 3 25.0981 -17.5686 90.0894 -0.0018 -7.5841 0.0003
# 4 0.0000 -0.0003 -0.0018 17.4234 0.0002 -2.0636
# 5 -1.4850 11.7900 -7.5841 0.0002 48.8527 0.0000
# 6 0.0000 0.0001 0.0003 -2.0636 0.0000 25.3791
#
#
#
# Elastic Compliance Matrix: (Units=1/GPa)
#
#
# Indices 1 2 3 4 5 6 
#
# 1 0.007271 -0.003090 -0.002581 0.000000 0.000566 0.000000
# 2 -0.003090 0.014673 0.003462 0.000001 -0.003098 0.000000
# 3 -0.002581 0.003462 0.012582 0.000001 0.001039 0.000000
# 4 0.000000 0.000001 0.000001 0.057952 0.000000 0.004712
# 5 0.000566 -0.003098 0.001039 0.000000 0.021396 0.000000
# 6 0.000000 0.000000 0.000000 0.004712 0.000000 0.039786
#
#
# Mechanical properties :
#
#
# Convention : Reuss Voigt Hill
#
# Bulk Modulus (GPa) = 33.21563 44.20039 38.70801
# Shear Modulus (GPa) = 29.74190 37.93431 33.83811
#
# Velocity S-wave (km/s) = 3.44436 3.88991 3.67390
# Velocity P-wave (km/s) = 5.39141 6.14867 5.78245
#
# Compressibility (1/GPa) = 0.03010631
#
# Stress axis : x y z
#
# Youngs Moduli (GPa) = 137.53560 68.15400 79.48140
#
# Poissons Ratio (x) = 0.21062 0.20511
# Poissons Ratio (y) = 0.42503 -0.27513
# Poissons Ratio (z) = 0.35492 -0.23592
#
# Static dielectric constant tensor:
#      x y z
#    x 1.846200 0.000000 0.448600 
#    y 0.000000 1.923890 0.000000 
#    z 0.448600 0.000000 0.465510 
# 
# From -- ./inp_files/274478.got.cif
#   From: 2010.05.17/outbox.cif.g08.bks.cpg/sg15_138_cif.got.tgz:274478.got - 2010.06.03 18:47:42.
