data_PCOD9276676
_publ_section_title
;
Structure prediction by ZEFSAII (Michael W. Deem and Ramdas Pophale) SiO2 
 PCOD9276676
Probable space group: C 2/C
;
_chemical_formula_sum "Si O2"
_cell_formula_units_Z 48
_cell_length_a 12.515796
_cell_length_b 22.150017
_cell_length_c 14.462855
_cell_angle_alpha 90.000000
_cell_angle_beta 144.973831
_cell_angle_gamma 90.000000
_cell_volume 2301.235259
_symmetry_space_group_name_H-M "C 2/C"
_symmetry_group_IT_number 15
_symmetry_cell_setting 'monoclinic'
loop_
_space_group_symop_operation_xyz
x,y,z
-x,y,1/2-z
-x,-y,-z
x,-y,1/2+z
1/2+x,1/2+y,z
1/2-x,1/2+y,1/2-z
1/2-x,1/2-y,-z
1/2+x,1/2-y,1/2+z
loop_
_atom_site_type_symbol
_atom_site_label
_atom_site_fract_x
_atom_site_fract_y
_atom_site_fract_z
Si Si1 0.190155 0.841125 0.076810
Si Si2 0.609140 0.877821 0.611652
Si Si3 0.566241 0.431898 0.526317
Si Si4 0.886863 0.227216 0.263647
Si Si5 0.137409 0.569481 0.935605
Si Si6 0.663563 0.932169 0.942447
O O1 0.351938 0.798686 0.229448
O O2 0.223536 0.880222 0.007315
O O3 0.113391 0.890268 0.091636
O O4 0.029930 0.792694 0.943135
O O5 0.777135 0.913149 0.785857
O O6 0.704292 0.813129 0.656388
O O7 0.566456 0.907352 0.482834
O O8 0.424748 0.887541 0.543889
O O9 0.500000 0.500000 0.500000
O O10 0.656042 0.418018 0.490577
O O11 0.000000 0.212122 0.250000
O O12 0.199342 0.501038 0.999787
O O13 0.000000 0.565958 0.750000
O O14 0.500000 0.935366 0.750000
#
# Coordination Sequence:
#
# PCOD9276676 Si02
#       6
#     8   8   8   8   8   8
#     4  11  23  37  62  91 127 160 213 266 319 378
#     4  10  22  37  59  90 126 162 207 258 320 382
#     4  10  20  40  64  89 123 166 213 264 323 377
#     4  11  22  38  57  90 123 162 204 261 317 374
#     4  11  21  35  60  92 124 161 204 261 317 376
#     4   9  19  38  60  86 120 159 205 255 319 375
#
# _framework density 20.858363000000001
#
# number of rings (size 3 to 8) (size 9 to 14) (size 15 to 20)
#    0.000    1.667    3.333    1.500    2.333    0.000 
#    0.000    0.833    0.000    0.000    0.000    0.000 
#    0.000    0.000    0.000    0.000    0.000    0.000 
#
# Total GULP energy -133655.896743 kJ/mol
# GULP energy per Si atom -5568.995698 kJ/mol
# Density = 2.081089 g / cm^3
# Si number density = 20.858363 Si / 1000 Ang^3
#
#
#
# Elastic Constant Matrix: (Units=GPa)
#
#
# Indices 1 2 3 4 5 6 
#
# 1 180.0799 69.5894 15.7557 0.0000 8.2973 0.0000
# 2 69.5894 124.3604 19.4987 0.0000 12.5199 0.0000
# 3 15.7557 19.4987 25.5299 0.0000 1.3862 0.0000
# 4 0.0000 0.0000 0.0000 7.7351 0.0000 15.4818
# 5 8.2973 12.5199 1.3862 0.0000 21.6284 0.0000
# 6 0.0000 0.0000 0.0000 15.4818 0.0000 11.7510
#
#
#
# Elastic Compliance Matrix: (Units=1/GPa)
#
#
# Indices 1 2 3 4 5 6 
#
# 1 0.007143 -0.003704 -0.001553 0.000000 -0.000497 0.000000
# 2 -0.003704 0.011594 -0.006304 0.000000 -0.004886 0.000000
# 3 -0.001553 -0.006304 0.044868 0.000000 0.001369 0.000000
# 4 0.000000 0.000000 0.000000 -0.078977 0.000000 0.104052
# 5 -0.000497 -0.004886 0.001369 0.000000 0.049167 0.000000
# 6 0.000000 0.000000 0.000000 0.104052 0.000000 -0.051987
#
#
# Mechanical properties :
#
#
# Convention : Reuss Voigt Hill
#
# Bulk Modulus (GPa) = 24.70059 59.96195 42.33127
# Shear Modulus (GPa) = 271.39510 23.23133 147.31321
#
# Velocity S-wave (km/s) = 11.41910 3.34093 8.41301
# Velocity P-wave (km/s) = 13.62824 6.61000 10.71030
#
# Compressibility (1/GPa) = 0.04048487
#
# Stress axis : x y z
#
# Youngs Moduli (GPa) = 139.99634 86.25170 22.28742
#
# Poissons Ratio (x) = 0.31944 0.03460
# Poissons Ratio (y) = 0.51849 0.14050
# Poissons Ratio (z) = 0.21737 0.54373
#
# Static dielectric constant tensor:
#      x y z
#    x 1.891870 0.000000 -0.154600 
#    y 0.000000 1.774760 0.000000 
#    z -0.154600 0.000000 2.264430 
# 
# From -- ./inp_files/63955.got.cif
#   From: 2010.05.17/outbox.cif.g08.bks.cpg/sg15_32_cif.got.tgz:63955.got - 2010.06.03 18:47:42.
