data_PCOD9276028
_publ_section_title
;
Structure prediction by ZEFSAII (Michael W. Deem and Ramdas Pophale) SiO2 
 PCOD9276028
Probable space group: C 2/C
;
_chemical_formula_sum "Si O2"
_cell_formula_units_Z 60
_cell_length_a 5.167708
_cell_length_b 24.719804
_cell_length_c 21.434651
_cell_angle_alpha 90.000000
_cell_angle_beta 110.612218
_cell_angle_gamma 90.000000
_cell_volume 2562.878726
_symmetry_space_group_name_H-M "C 2/C"
_symmetry_group_IT_number 15
_symmetry_cell_setting 'monoclinic'
loop_
_space_group_symop_operation_xyz
x,y,z
-x,y,1/2-z
-x,-y,-z
x,-y,1/2+z
1/2+x,1/2+y,z
1/2-x,1/2+y,1/2-z
1/2-x,1/2-y,-z
1/2+x,1/2-y,1/2+z
loop_
_atom_site_type_symbol
_atom_site_label
_atom_site_fract_x
_atom_site_fract_y
_atom_site_fract_z
Si Si1 0.001446 0.212200 0.373204
Si Si2 0.475187 0.446318 0.457033
Si Si3 0.181596 0.101643 0.204798
Si Si4 0.485443 0.280435 0.380821
Si Si5 0.774176 0.382066 0.378247
Si Si6 0.768588 0.511997 0.676871
Si Si7 0.185010 0.833718 0.014906
Si Si8 0.000000 0.086892 0.750000
O O1 0.195129 0.250159 0.347717
O O2 0.184965 0.193419 0.448063
O O3 0.923707 0.157146 0.332376
O O4 0.728566 0.242803 0.374803
O O5 0.500000 0.500000 0.500000
O O6 0.714307 0.426728 0.428315
O O7 0.212168 0.458909 0.388498
O O8 0.439153 0.394038 0.496993
O O9 0.500000 0.109555 0.250000
O O10 0.167075 0.049329 0.158650
O O11 0.000000 0.087510 0.250000
O O12 0.508265 0.340805 0.355172
O O13 0.495672 0.295805 0.455115
O O14 0.780672 0.388565 0.303002
O O15 0.023307 0.345445 0.426525
O O16 0.555181 0.548600 0.696118
O O17 0.000000 0.506895 0.750000
#
# Coordination Sequence:
#
# PCOD9276028 Si02
#       8
#     8   8   8   8   8   8   8   4
#     4  12  25  42  70  95 132 179 213 278 336 387
#     4  10  22  39  61 100 136 166 222 280 337 388
#     4  11  24  46  66  97 132 170 226 265 326 406
#     4  11  24  44  67  98 131 175 223 272 333 396
#     4  10  23  41  65  99 131 176 224 280 324 405
#     4  10  20  39  67  89 128 178 215 266 331 404
#     4  11  23  41  67  96 136 167 231 266 336 402
#     4  10  20  42  66  90 130 174 222 264 340 386
#
# _framework density 23.411175
#
# number of rings (size 3 to 8) (size 9 to 14) (size 15 to 20)
#    0.000    1.333    2.000    3.200    3.733    0.533 
#    8.400    0.000    0.000    0.000    0.000    0.000 
#    0.000    0.000    0.000    0.000    0.000    0.000 
#
# Total GULP energy -167115.073488 kJ/mol
# GULP energy per Si atom -5570.502450 kJ/mol
# Density = 2.335789 g / cm^3
# Si number density = 23.411175 Si / 1000 Ang^3
#
#
#
# Elastic Constant Matrix: (Units=GPa)
#
#
# Indices 1 2 3 4 5 6 
#
# 1 81.1291 8.0450 5.8789 0.0000 6.6422 0.0000
# 2 8.0450 92.1090 -8.3436 0.0000 -15.7863 0.0000
# 3 5.8789 -8.3436 55.0490 0.0000 4.8769 0.0000
# 4 0.0000 0.0000 0.0000 7.0974 0.0000 15.8446
# 5 6.6422 -15.7863 4.8769 0.0000 17.2273 0.0000
# 6 0.0000 0.0000 0.0000 15.8446 0.0000 18.1842
#
#
#
# Elastic Compliance Matrix: (Units=1/GPa)
#
#
# Indices 1 2 3 4 5 6 
#
# 1 0.013231 -0.002466 -0.001164 0.000000 -0.007032 0.000000
# 2 -0.002466 0.013386 0.001150 0.000000 0.012891 0.000000
# 3 -0.001164 0.001150 0.018803 0.000000 -0.003820 0.000000
# 4 0.000000 0.000000 0.000000 -0.149064 0.000000 0.129885
# 5 -0.007032 0.012891 -0.003820 0.000000 0.073653 0.000000
# 6 0.000000 0.000000 0.000000 0.129885 0.000000 -0.058181
#
#
# Mechanical properties :
#
#
# Convention : Reuss Voigt Hill
#
# Bulk Modulus (GPa) = 24.71616 26.60531 25.66073
# Shear Modulus (GPa) = -71.70897 23.34890 -24.18004
#
# Velocity S-wave (km/s) = -5.54046 3.16150 -3.21727
# Velocity P-wave (km/s) = 5.50896 4.97150 1.67822
#
# Compressibility (1/GPa) = 0.04045936
#
# Stress axis : x y z
#
# Youngs Moduli (GPa) = 75.58236 74.70674 53.18394
#
# Poissons Ratio (x) = 0.18424 0.06190
# Poissons Ratio (y) = 0.18640 -0.06117
# Poissons Ratio (z) = 0.08796 -0.08592
#
# Static dielectric constant tensor:
#      x y z
#    x 2.039290 0.000000 0.142490 
#    y 0.000000 2.013600 0.000000 
#    z 0.142490 0.000000 2.163170 
# 
# From -- ./inp_files/228633.got.cif
#   From: 2010.05.17/outbox.cif.g08.bks.cpg/sg15_115_cif.got.tgz:228633.got - 2010.06.03 18:47:42.
