data_PCOD9276702
_publ_section_title
;
Structure prediction by ZEFSAII (Michael W. Deem and Ramdas Pophale) SiO2 
 PCOD9276702
Probable space group: C 2/C
;
_chemical_formula_sum "Si O2"
_cell_formula_units_Z 60
_cell_length_a 23.541136
_cell_length_b 8.127566
_cell_length_c 19.278065
_cell_angle_alpha 90.000000
_cell_angle_beta 137.110189
_cell_angle_gamma 90.000000
_cell_volume 2510.367483
_symmetry_space_group_name_H-M "C 2/C"
_symmetry_group_IT_number 15
_symmetry_cell_setting 'monoclinic'
loop_
_space_group_symop_operation_xyz
x,y,z
-x,y,1/2-z
-x,-y,-z
x,-y,1/2+z
1/2+x,1/2+y,z
1/2-x,1/2+y,1/2-z
1/2-x,1/2-y,-z
1/2+x,1/2-y,1/2+z
loop_
_atom_site_type_symbol
_atom_site_label
_atom_site_fract_x
_atom_site_fract_y
_atom_site_fract_z
Si Si1 0.579960 0.342297 0.614059
Si Si2 0.219145 0.614052 0.395319
Si Si3 0.590414 0.277512 0.088320
Si Si4 0.340896 0.112255 0.534019
Si Si5 0.500000 0.129254 0.750000
Si Si6 0.556167 0.840609 0.699847
Si Si7 0.614461 0.783725 0.989486
Si Si8 0.236360 0.704655 0.832666
O O1 0.484036 0.280227 0.535253
O O2 0.580968 0.540451 0.613901
O O3 0.606570 0.278736 0.560991
O O4 0.650026 0.279791 0.729260
O O5 0.198686 0.505361 0.443417
O O6 0.140493 0.730281 0.308021
O O7 0.306120 0.703554 0.474821
O O8 0.224375 0.487857 0.335425
O O9 0.569905 0.146084 0.129604
O O10 0.684952 0.265369 0.147464
O O11 0.419272 0.206383 0.640061
O O12 0.375387 0.980800 0.507815
O O13 0.271144 0.219773 0.435214
O O14 0.539716 0.008014 0.727239
O O15 0.470095 0.741656 0.627429
#
# Coordination Sequence:
#
# PCOD9276702 Si02
#       8
#     8   8   8   8   4   8   8   8
#     4  10  23  40  62  93 130 164 210 265 321 372
#     4  11  22  41  62  91 131 163 207 270 306 377
#     4  10  22  41  62  92 130 167 209 269 312 377
#     4  10  23  39  65  92 128 169 217 254 317 377
#     4   8  18  42  62  92 126 166 208 272 300 374
#     4   9  20  37  67  87 120 163 208 253 319 356
#     4  10  20  40  64  92 119 164 212 260 310 369
#     4  12  25  39  65  95 129 172 207 256 331 383
#
# _framework density 23.900884000000001
#
# number of rings (size 3 to 8) (size 9 to 14) (size 15 to 20)
#    0.000    1.867    1.333    1.600    3.733    3.200 
#    0.000    4.667    0.000    0.800    0.000    0.000 
#    0.000    0.000    0.000    0.000    0.000    0.000 
#
# Total GULP energy -167613.622836 kJ/mol
# GULP energy per Si atom -5587.120761 kJ/mol
# Density = 2.384648 g / cm^3
# Si number density = 23.900884 Si / 1000 Ang^3
#
#
#
# Elastic Constant Matrix: (Units=GPa)
#
#
# Indices 1 2 3 4 5 6 
#
# 1 69.6171 11.7528 42.8587 0.0000 17.3921 0.0000
# 2 11.7528 48.8288 49.7639 0.0000 9.4306 0.0000
# 3 42.8587 49.7639 208.0846 0.0000 42.1010 0.0000
# 4 0.0000 0.0000 0.0000 23.6747 0.0000 -9.4982
# 5 17.3921 9.4306 42.1010 0.0000 43.4255 0.0000
# 6 0.0000 0.0000 0.0000 -9.4982 0.0000 19.5784
#
#
#
# Elastic Compliance Matrix: (Units=1/GPa)
#
#
# Indices 1 2 3 4 5 6 
#
# 1 0.017083 -0.000769 -0.002468 0.000000 -0.004282 0.000000
# 2 -0.000769 0.027123 -0.006467 0.000000 0.000688 0.000000
# 3 -0.002468 -0.006467 0.007933 0.000000 -0.005298 0.000000
# 4 0.000000 0.000000 0.000000 0.052447 0.000000 0.025444
# 5 -0.004282 0.000688 -0.005298 0.000000 0.029730 0.000000
# 6 0.000000 0.000000 0.000000 0.025444 0.000000 0.063421
#
#
# Mechanical properties :
#
#
# Convention : Reuss Voigt Hill
#
# Bulk Modulus (GPa) = 30.55349 59.47567 45.01458
# Shear Modulus (GPa) = 21.92439 32.14606 27.03523
#
# Velocity S-wave (km/s) = 3.03199 3.67137 3.36689
# Velocity P-wave (km/s) = 5.00684 6.55059 5.83004
#
# Compressibility (1/GPa) = 0.03272948
#
# Stress axis : x y z
#
# Youngs Moduli (GPa) = 58.53615 36.86883 126.06126
#
# Poissons Ratio (x) = 0.02836 0.31116
# Poissons Ratio (y) = 0.04503 0.81527
# Poissons Ratio (z) = 0.14449 0.23844
#
# Static dielectric constant tensor:
#      x y z
#    x 1.969230 0.000000 0.008530 
#    y 0.000000 1.914870 0.000000 
#    z 0.008530 0.000000 1.949950 
# 
# From -- ./inp_files/257201.got.cif
#   From: 2010.05.17/outbox.cif.g08.bks.cpg/sg15_129_cif.got.tgz:257201.got - 2010.06.03 18:47:42.
