data_PCOD9276320
_publ_section_title
;
Structure prediction by ZEFSAII (Michael W. Deem and Ramdas Pophale) SiO2 
 PCOD9276320
Probable space group: C 2/C
;
_chemical_formula_sum "Si O2"
_cell_formula_units_Z 56
_cell_length_a 13.658184
_cell_length_b 9.830428
_cell_length_c 20.503796
_cell_angle_alpha 90.000000
_cell_angle_beta 113.460908
_cell_angle_gamma 90.000000
_cell_volume 2525.376671
_symmetry_space_group_name_H-M "C 2/C"
_symmetry_group_IT_number 15
_symmetry_cell_setting 'monoclinic'
loop_
_space_group_symop_operation_xyz
x,y,z
-x,y,1/2-z
-x,-y,-z
x,-y,1/2+z
1/2+x,1/2+y,z
1/2-x,1/2+y,1/2-z
1/2-x,1/2-y,-z
1/2+x,1/2-y,1/2+z
loop_
_atom_site_type_symbol
_atom_site_label
_atom_site_fract_x
_atom_site_fract_y
_atom_site_fract_z
Si Si1 0.157128 0.860503 0.980530
Si Si2 0.116630 0.533918 0.134587
Si Si3 0.908213 0.227668 0.415987
Si Si4 0.879216 0.854536 0.058717
Si Si5 0.742675 0.529864 0.206936
Si Si6 0.572539 0.141093 0.326810
Si Si7 0.877407 0.829240 0.389280
O O1 0.035262 0.806184 0.939778
O O2 0.176211 0.000160 0.946409
O O3 0.250000 0.750000 0.000000
O O4 0.157831 0.907369 0.055963
O O5 0.110189 0.387413 0.101201
O O6 0.217408 0.548560 0.209380
O O7 0.120464 0.670579 0.092710
O O8 0.009368 0.560384 0.148810
O O9 0.874371 0.198690 0.482621
O O10 0.841601 0.137393 0.345867
O O11 0.861019 0.743907 0.110003
O O12 0.006052 0.877272 0.099300
O O13 0.846807 0.544873 0.189527
O O14 0.698450 0.377163 0.188075
O O15 0.500000 0.208534 0.250000
#
# Coordination Sequence:
#
# PCOD9276320 Si02
#       7
#     8   8   8   8   8   8   8
#     4  11  23  39  63  90 125 161 209 267 317 362
#     4  10  23  38  62  96 124 163 211 256 308 376
#     4  11  22  39  67  93 123 167 214 255 311 375
#     4  10  20  42  63  86 124 167 208 256 313 378
#     4  11  20  40  64  89 126 169 204 255 316 372
#     4   9  22  39  63  91 127 162 205 259 312 370
#     4  10  20  40  60  86 127 160 203 254 315 371
#
# _framework density 22.174910000000001
#
# number of rings (size 3 to 8) (size 9 to 14) (size 15 to 20)
#    0.000    1.714    2.857    1.714    2.000    6.857 
#    0.000    0.000    0.000    0.000    0.000    0.000 
#    0.000    0.000    0.000    0.000    0.000    0.000 
#
# Total GULP energy -156232.631021 kJ/mol
# GULP energy per Si atom -5579.736822 kJ/mol
# Density = 2.212444 g / cm^3
# Si number density = 22.174910 Si / 1000 Ang^3
#
#
#
# Elastic Constant Matrix: (Units=GPa)
#
#
# Indices 1 2 3 4 5 6 
#
# 1 49.3721 13.5175 26.2357 0.0000 15.4329 0.0000
# 2 13.5175 165.2283 49.9426 0.0000 9.9619 0.0000
# 3 26.2357 49.9426 85.8224 0.0000 19.8922 0.0000
# 4 0.0000 0.0000 0.0000 40.5309 0.0000 9.7320
# 5 15.4329 9.9619 19.8922 0.0000 31.7983 0.0000
# 6 0.0000 0.0000 0.0000 9.7320 0.0000 5.7555
#
#
#
# Elastic Compliance Matrix: (Units=1/GPa)
#
#
# Indices 1 2 3 4 5 6 
#
# 1 0.026230 0.000230 -0.006064 0.000000 -0.009009 0.000000
# 2 0.000230 0.007351 -0.004431 0.000000 0.000357 0.000000
# 3 -0.006064 -0.004431 0.017638 0.000000 -0.006702 0.000000
# 4 0.000000 0.000000 0.000000 0.041537 0.000000 -0.070237
# 5 -0.009009 0.000357 -0.006702 0.000000 0.039902 0.000000
# 6 0.000000 0.000000 0.000000 -0.070237 0.000000 0.292513
#
#
# Mechanical properties :
#
#
# Convention : Reuss Voigt Hill
#
# Bulk Modulus (GPa) = 32.58527 53.31272 42.94899
# Shear Modulus (GPa) = 10.96658 29.66539 20.31598
#
# Velocity S-wave (km/s) = 2.22626 3.66155 3.03011
# Velocity P-wave (km/s) = 4.61897 6.47843 5.62605
#
# Compressibility (1/GPa) = 0.03068872
#
# Stress axis : x y z
#
# Youngs Moduli (GPa) = 38.12453 136.03192 56.69605
#
# Poissons Ratio (x) = -0.03133 0.34382
# Poissons Ratio (y) = -0.00878 0.25122
# Poissons Ratio (z) = 0.23120 0.60277
#
# Static dielectric constant tensor:
#      x y z
#    x 1.838200 0.000000 0.029160 
#    y 0.000000 1.841500 0.000000 
#    z 0.029160 0.000000 1.829750 
# 
# From -- ./inp_files/273246.got.cif
#   From: 2010.05.17/outbox.cif.g08.bks.cpg/sg15_137_cif.got.tgz:273246.got - 2010.06.03 18:47:42.
