data_PCOD9276391
_publ_section_title
;
Structure prediction by ZEFSAII (Michael W. Deem and Ramdas Pophale) SiO2 
 PCOD9276391
Probable space group: C 2/C
;
_chemical_formula_sum "Si O2"
_cell_formula_units_Z 64
_cell_length_a 16.952531
_cell_length_b 29.846273
_cell_length_c 9.251096
_cell_angle_alpha 90.000000
_cell_angle_beta 41.638148
_cell_angle_gamma 90.000000
_cell_volume 3110.019588
_symmetry_space_group_name_H-M "C 2/C"
_symmetry_group_IT_number 15
_symmetry_cell_setting 'monoclinic'
loop_
_space_group_symop_operation_xyz
x,y,z
-x,y,1/2-z
-x,-y,-z
x,-y,1/2+z
1/2+x,1/2+y,z
1/2-x,1/2+y,1/2-z
1/2-x,1/2-y,-z
1/2+x,1/2-y,1/2+z
loop_
_atom_site_type_symbol
_atom_site_label
_atom_site_fract_x
_atom_site_fract_y
_atom_site_fract_z
Si Si1 0.377276 0.744266 0.501040
Si Si2 0.324860 0.400192 0.251506
Si Si3 0.759477 0.445793 0.843276
Si Si4 0.230235 0.547862 0.627376
Si Si5 0.558923 0.452465 0.883992
Si Si6 0.694162 0.318429 0.648591
Si Si7 0.124211 0.395363 0.046978
Si Si8 0.547755 0.688709 0.847784
O O1 0.500000 0.757013 0.250000
O O2 0.332765 0.700021 0.474924
O O3 0.276657 0.781283 0.614216
O O4 0.402685 0.731720 0.632140
O O5 0.278017 0.430659 0.447082
O O6 0.239310 0.413663 0.236254
O O7 0.353371 0.350477 0.271305
O O8 0.452734 0.417702 0.022893
O O9 0.794091 0.497895 0.783756
O O10 0.644288 0.440219 0.899789
O O11 0.856772 0.412872 0.640715
O O12 0.357133 0.544600 0.370424
O O13 0.135909 0.562038 0.636156
O O14 0.500000 0.500000 0.000000
O O15 0.768198 0.363510 0.555171
O O16 0.569769 0.323709 0.899596
O O17 0.000000 0.372470 0.250000
O O18 0.500000 0.695022 0.750000
#
# Coordination Sequence:
#
# PCOD9276391 Si02
#       8
#     8   8   8   8   8   8   8   8
#     4   9  20  38  65  87 113 146 185 237 285 343
#     4  12  21  33  55  84 124 150 185 235 288 345
#     4  11  22  37  53  81 115 153 194 237 285 336
#     4  11  22  36  55  83 112 153 200 235 281 340
#     4  11  19  31  52  83 115 150 182 229 279 339
#     4  10  20  40  61  88 112 143 195 237 285 345
#     4  11  24  41  60  78 107 150 198 246 289 335
#     4  11  22  36  56  90 124 153 178 226 297 350
#
# _framework density 20.578648999999999
#
# number of rings (size 3 to 8) (size 9 to 14) (size 15 to 20)
#    0.000    1.250    2.500    5.625    0.000    3.000 
#    0.000    0.625    0.000    0.000    0.000    0.000 
#    0.000    0.000    0.000    0.000    0.000    0.000 
#
# Total GULP energy -178705.516495 kJ/mol
# GULP energy per Si atom -5584.547390 kJ/mol
# Density = 2.053181 g / cm^3
# Si number density = 20.578649 Si / 1000 Ang^3
#
#
#
# Elastic Constant Matrix: (Units=GPa)
#
#
# Indices 1 2 3 4 5 6 
#
# 1 66.5607 18.9561 20.8206 0.0000 24.9430 0.0000
# 2 18.9561 58.0813 10.4698 0.0000 7.4528 0.0000
# 3 20.8206 10.4698 52.1082 0.0000 10.8177 0.0000
# 4 0.0000 0.0000 0.0000 12.5588 0.0000 -4.5307
# 5 24.9430 7.4528 10.8177 0.0000 38.8636 0.0000
# 6 0.0000 0.0000 0.0000 -4.5307 0.0000 18.7902
#
#
#
# Elastic Compliance Matrix: (Units=1/GPa)
#
#
# Indices 1 2 3 4 5 6 
#
# 1 0.022672 -0.004845 -0.005580 0.000000 -0.012069 0.000000
# 2 -0.004845 0.019146 -0.001904 0.000000 -0.000032 0.000000
# 3 -0.005580 -0.001904 0.022271 0.000000 -0.002253 0.000000
# 4 0.000000 0.000000 0.000000 0.087212 0.000000 0.021028
# 5 -0.012069 -0.000032 -0.002253 0.000000 0.034110 0.000000
# 6 0.000000 0.000000 0.000000 0.021028 0.000000 0.058290
#
#
# Mechanical properties :
#
#
# Convention : Reuss Voigt Hill
#
# Bulk Modulus (GPa) = 25.36152 30.80477 28.08314
# Shear Modulus (GPa) = 17.76192 22.47611 20.11901
#
# Velocity S-wave (km/s) = 2.94108 3.30844 3.13015
# Velocity P-wave (km/s) = 4.88715 5.44023 5.17109
#
# Compressibility (1/GPa) = 0.03942982
#
# Stress axis : x y z
#
# Youngs Moduli (GPa) = 44.10781 52.23051 44.90217
#
# Poissons Ratio (x) = 0.25306 0.25055
# Poissons Ratio (y) = 0.21370 0.08551
# Poissons Ratio (z) = 0.24612 0.09947
#
# Static dielectric constant tensor:
#      x y z
#    x 1.755660 0.000000 0.003640 
#    y 0.000000 1.769390 0.000000 
#    z 0.003640 0.000000 1.730230 
# 
# From -- ./inp_files/52832.got.cif
#   From: 2010.05.17/outbox.cif.g08.bks.cpg/sg15_27_cif.got.tgz:52832.got - 2010.06.03 18:47:42.
