data_PCOD9276190
_publ_section_title
;
Structure prediction by ZEFSAII (Michael W. Deem and Ramdas Pophale) SiO2 
 PCOD9276190
Probable space group: C 2/C
;
_chemical_formula_sum "Si O2"
_cell_formula_units_Z 48
_cell_length_a 7.259475
_cell_length_b 21.754703
_cell_length_c 13.181162
_cell_angle_alpha 90.000000
_cell_angle_beta 94.117127
_cell_angle_gamma 90.000000
_cell_volume 2076.298865
_symmetry_space_group_name_H-M "C 2/C"
_symmetry_group_IT_number 15
_symmetry_cell_setting 'monoclinic'
loop_
_space_group_symop_operation_xyz
x,y,z
-x,y,1/2-z
-x,-y,-z
x,-y,1/2+z
1/2+x,1/2+y,z
1/2-x,1/2+y,1/2-z
1/2-x,1/2-y,-z
1/2+x,1/2-y,1/2+z
loop_
_atom_site_type_symbol
_atom_site_label
_atom_site_fract_x
_atom_site_fract_y
_atom_site_fract_z
Si Si1 0.224060 0.370446 0.745076
Si Si2 0.801985 0.319887 0.972094
Si Si3 0.263612 0.183241 0.046054
Si Si4 0.850660 0.003690 0.343521
Si Si5 0.421751 0.900376 0.150232
Si Si6 0.201483 0.062206 0.939694
O O1 0.280895 0.346356 0.636016
O O2 0.281755 0.323959 0.837421
O O3 0.315273 0.435355 0.776827
O O4 0.000000 0.377840 0.750000
O O5 0.018658 0.327491 0.956607
O O6 0.750000 0.250000 0.000000
O O7 0.788991 0.362361 0.070635
O O8 0.250000 0.250000 0.000000
O O9 0.156282 0.131848 0.976228
O O10 0.798078 0.023365 0.456785
O O11 0.701372 0.953546 0.307807
O O12 0.949774 0.970738 0.137385
O O13 0.500000 0.862773 0.250000
O O14 0.593796 0.930165 0.097176
#
# Coordination Sequence:
#
# PCOD9276190 Si02
#       6
#     8   8   8   8   8   8
#     4   9  19  40  67  97 128 180 224 274 343 409
#     4  10  23  41  65  93 133 174 228 277 336 411
#     4   9  19  37  67  94 135 172 217 278 335 400
#     4  10  20  39  70  92 134 170 223 272 341 406
#     4  11  24  40  62  93 132 174 216 277 343 394
#     4   9  21  39  62 100 129 171 218 276 328 399
#
# _framework density 23.118058999999999
#
# number of rings (size 3 to 8) (size 9 to 14) (size 15 to 20)
#    0.000    2.333    0.000    2.000    2.333    4.667 
#    0.000    1.667    7.333    0.000    0.000    0.000 
#    0.000    0.000    0.000    0.000    0.000    0.000 
#
# Total GULP energy -134016.101557 kJ/mol
# GULP energy per Si atom -5584.004232 kJ/mol
# Density = 2.306544 g / cm^3
# Si number density = 23.118059 Si / 1000 Ang^3
#
#
#
# Elastic Constant Matrix: (Units=GPa)
#
#
# Indices 1 2 3 4 5 6 
#
# 1 114.6902 26.5315 47.9777 0.0000 3.2909 0.0000
# 2 26.5315 136.3108 102.0422 0.0000 23.8973 0.0000
# 3 47.9777 102.0422 163.9223 0.0000 10.9415 0.0000
# 4 0.0000 0.0000 0.0000 28.7327 0.0000 5.1071
# 5 3.2909 23.8973 10.9415 0.0000 29.7841 0.0000
# 6 0.0000 0.0000 0.0000 5.1071 0.0000 35.6073
#
#
#
# Elastic Compliance Matrix: (Units=1/GPa)
#
#
# Indices 1 2 3 4 5 6 
#
# 1 0.009954 0.000537 -0.003225 0.000000 -0.000346 0.000000
# 2 0.000537 0.015968 -0.009470 0.000000 -0.009392 0.000000
# 3 -0.003225 -0.009470 0.012720 0.000000 0.003282 0.000000
# 4 0.000000 0.000000 0.000000 0.035714 0.000000 -0.005122
# 5 -0.000346 -0.009392 0.003282 0.000000 0.039943 0.000000
# 6 0.000000 0.000000 0.000000 -0.005122 0.000000 0.028819
#
#
# Mechanical properties :
#
#
# Convention : Reuss Voigt Hill
#
# Bulk Modulus (GPa) = 69.80036 85.33625 77.56830
# Shear Modulus (GPa) = 29.03455 34.71628 31.87542
#
# Velocity S-wave (km/s) = 3.54775 3.87938 3.71726
# Velocity P-wave (km/s) = 6.85861 7.55377 7.21457
#
# Compressibility (1/GPa) = 0.01432657
#
# Stress axis : x y z
#
# Youngs Moduli (GPa) = 100.46467 62.62702 78.61343
#
# Poissons Ratio (x) = -0.03365 0.25350
# Poissons Ratio (y) = -0.05398 0.74449
# Poissons Ratio (z) = 0.32397 0.59309
#
# Static dielectric constant tensor:
#      x y z
#    x 1.911150 0.000000 0.046220 
#    y 0.000000 1.857930 0.000000 
#    z 0.046220 0.000000 1.917090 
# 
# From -- ./inp_files/88484.got.cif
#   From: 2010.05.17/outbox.cif.g08.bks.cpg/sg15_45_cif.got.tgz:88484.got - 2010.06.03 18:47:42.
