data_PCOD9276496
_publ_section_title
;
Structure prediction by ZEFSAII (Michael W. Deem and Ramdas Pophale) SiO2 
 PCOD9276496
Probable space group: C 2/C
;
_chemical_formula_sum "Si O2"
_cell_formula_units_Z 44
_cell_length_a 15.086201
_cell_length_b 10.295950
_cell_length_c 27.708585
_cell_angle_alpha 90.000000
_cell_angle_beta 151.343748
_cell_angle_gamma 90.000000
_cell_volume 2063.943633
_symmetry_space_group_name_H-M "C 2/C"
_symmetry_group_IT_number 15
_symmetry_cell_setting 'monoclinic'
loop_
_space_group_symop_operation_xyz
x,y,z
-x,y,1/2-z
-x,-y,-z
x,-y,1/2+z
1/2+x,1/2+y,z
1/2-x,1/2+y,1/2-z
1/2-x,1/2-y,-z
1/2+x,1/2-y,1/2+z
loop_
_atom_site_type_symbol
_atom_site_label
_atom_site_fract_x
_atom_site_fract_y
_atom_site_fract_z
Si Si1 0.056011 0.316236 0.917423
Si Si2 0.700103 0.804036 0.280905
Si Si3 0.007777 0.204740 0.413419
Si Si4 0.360686 0.099475 0.225467
Si Si5 0.753699 0.058845 0.047296
Si Si6 0.000000 0.094570 0.250000
O O1 0.916526 0.218501 0.876543
O O2 0.954488 0.356856 0.819980
O O3 0.250000 0.250000 0.000000
O O4 0.102525 0.448828 0.967334
O O5 0.591201 0.782781 0.178129
O O6 0.631178 0.688844 0.282047
O O7 0.656925 0.943885 0.281631
O O8 0.846717 0.156994 0.371887
O O9 0.119515 0.088716 0.439562
O O10 0.152971 0.302535 0.507170
O O11 0.500000 0.140236 0.250000
O O12 0.882160 0.020254 0.153605
#
# Coordination Sequence:
#
# PCOD9276496 Si02
#       6
#     8   8   8   8   8   4
#     4  11  24  41  64  93 130 172 212 265 325 384
#     4  10  20  40  62  91 129 166 211 260 326 380
#     4   9  20  37  65  90 126 176 202 257 335 375
#     4  11  22  40  67  98 130 161 220 274 310 384
#     4  10  20  41  64  92 128 169 215 256 323 389
#     4  10  22  38  64  94 124 172 214 264 312 392
#
# _framework density 21.318411999999999
#
# number of rings (size 3 to 8) (size 9 to 14) (size 15 to 20)
#    0.000    1.818    2.727    1.091    0.000    2.182 
#    1.636    2.727    0.000    0.000    0.000    0.000 
#    0.000    0.000    0.000    0.000    0.000    0.000 
#
# Total GULP energy -122939.108153 kJ/mol
# GULP energy per Si atom -5588.141280 kJ/mol
# Density = 2.126989 g / cm^3
# Si number density = 21.318412 Si / 1000 Ang^3
#
#
#
# Elastic Constant Matrix: (Units=GPa)
#
#
# Indices 1 2 3 4 5 6 
#
# 1 78.0248 2.0215 21.3695 0.0000 20.7712 0.0000
# 2 2.0215 31.8110 2.6486 0.0000 1.4526 0.0000
# 3 21.3695 2.6486 77.0612 0.0000 11.9457 -0.0001
# 4 0.0000 0.0000 0.0000 8.3960 0.0000 6.4512
# 5 20.7712 1.4526 11.9457 0.0000 39.3779 0.0000
# 6 0.0000 0.0000 -0.0001 6.4512 0.0000 13.0889
#
#
#
# Elastic Compliance Matrix: (Units=1/GPa)
#
#
# Indices 1 2 3 4 5 6 
#
# 1 0.015636 -0.000396 -0.003196 0.000000 -0.007263 0.000000
# 2 -0.000396 0.031565 -0.000868 0.000000 -0.000692 0.000000
# 3 -0.003196 -0.000868 0.014299 0.000000 -0.002620 0.000000
# 4 0.000000 0.000000 0.000000 0.191706 0.000000 -0.094487
# 5 -0.007263 -0.000692 -0.002620 0.000000 0.030047 0.000000
# 6 0.000000 0.000000 0.000000 -0.094487 0.000000 0.122971
#
#
# Mechanical properties :
#
#
# Convention : Reuss Voigt Hill
#
# Bulk Modulus (GPa) = 19.01884 26.55293 22.78589
# Shear Modulus (GPa) = 11.55617 22.89636 17.22626
#
# Velocity S-wave (km/s) = 2.33078 3.28078 2.84570
# Velocity P-wave (km/s) = 4.02294 5.18013 4.63777
#
# Compressibility (1/GPa) = 0.05257943
#
# Stress axis : x y z
#
# Youngs Moduli (GPa) = 63.95614 31.68101 69.93501
#
# Poissons Ratio (x) = 0.01254 0.22354
# Poissons Ratio (y) = 0.02531 0.06069
# Poissons Ratio (z) = 0.20443 0.02749
#
# Static dielectric constant tensor:
#      x y z
#    x 1.789200 0.000000 -0.010840 
#    y 0.000000 1.773630 0.000000 
#    z -0.010840 0.000000 1.740060 
# 
# From -- ./inp_files/151733.got.cif
#   From: 2010.05.17/outbox.cif.g08.bks.cpg/sg15_76_cif.got.tgz:151733.got - 2010.06.03 18:47:42.
