data_PCOD9276140
_publ_section_title
;
Structure prediction by ZEFSAII (Michael W. Deem and Ramdas Pophale) SiO2 
 PCOD9276140
Probable space group: C 2/C
;
_chemical_formula_sum "Si O2"
_cell_formula_units_Z 56
_cell_length_a 26.735852
_cell_length_b 12.029268
_cell_length_c 9.051404
_cell_angle_alpha 90.000000
_cell_angle_beta 116.960170
_cell_angle_gamma 90.000000
_cell_volume 2594.679733
_symmetry_space_group_name_H-M "C 2/C"
_symmetry_group_IT_number 15
_symmetry_cell_setting 'monoclinic'
loop_
_space_group_symop_operation_xyz
x,y,z
-x,y,1/2-z
-x,-y,-z
x,-y,1/2+z
1/2+x,1/2+y,z
1/2-x,1/2+y,1/2-z
1/2-x,1/2-y,-z
1/2+x,1/2-y,1/2+z
loop_
_atom_site_type_symbol
_atom_site_label
_atom_site_fract_x
_atom_site_fract_y
_atom_site_fract_z
Si Si1 0.305607 0.299343 0.644994
Si Si2 0.087437 0.353587 0.187352
Si Si3 0.132160 0.996859 0.347151
Si Si4 0.057423 0.046382 0.506558
Si Si5 0.481280 0.752592 0.886340
Si Si6 0.899368 0.424183 0.626502
Si Si7 0.691020 0.734216 0.000872
O O1 0.250000 0.250000 0.500000
O O2 0.362825 0.229296 0.703117
O O3 0.317767 0.415442 0.577781
O O4 0.298248 0.292869 0.812212
O O5 0.090570 0.449666 0.312706
O O6 0.096883 0.416647 0.044789
O O7 0.031799 0.285538 0.064645
O O8 0.075892 0.029486 0.363758
O O9 0.110635 0.012383 0.152068
O O10 0.154205 0.872383 0.400736
O O11 0.056452 0.171362 0.566340
O O12 0.000000 0.000000 0.500000
O O13 0.500000 0.700015 0.750000
O O14 0.447322 0.857569 0.780224
O O15 0.843965 0.347954 0.576893
O O16 0.750000 0.750000 0.000000
#
# Coordination Sequence:
#
# PCOD9276140 Si02
#       7
#     8   8   8   8   8   8   8
#     4  11  27  46  68 100 139 179 234 299 344 414
#     4  10  23  42  65  98 138 175 231 278 343 411
#     4  12  25  47  69 107 142 178 239 292 349 428
#     4  12  24  40  72 104 141 186 225 284 354 422
#     4  10  20  39  68  99 140 182 225 284 347 418
#     4  10  22  42  66  97 133 179 226 282 342 413
#     4  11  26  46  73  98 135 186 235 287 361 419
#
# _framework density 21.582625
#
# number of rings (size 3 to 8) (size 9 to 14) (size 15 to 20)
#    0.000    1.143    2.857    2.571    6.000    2.286 
#    0.000    1.429    0.000    0.000    0.000    0.000 
#    0.000    0.000    0.000    0.000    0.000    0.000 
#
# Total GULP energy -156062.261949 kJ/mol
# GULP energy per Si atom -5573.652212 kJ/mol
# Density = 2.153350 g / cm^3
# Si number density = 21.582625 Si / 1000 Ang^3
#
#
#
# Elastic Constant Matrix: (Units=GPa)
#
#
# Indices 1 2 3 4 5 6 
#
# 1 90.4441 20.5761 13.7195 0.0000 11.6394 0.0000
# 2 20.5761 61.1778 16.0256 0.0000 -3.2488 0.0000
# 3 13.7195 16.0256 83.4661 0.0000 31.5906 0.0000
# 4 0.0000 0.0000 0.0000 23.6190 0.0000 -1.6333
# 5 11.6394 -3.2488 31.5906 0.0000 29.1019 0.0000
# 6 0.0000 0.0000 0.0000 -1.6333 0.0000 29.4666
#
#
#
# Elastic Compliance Matrix: (Units=1/GPa)
#
#
# Indices 1 2 3 4 5 6 
#
# 1 0.012971 -0.005244 0.001799 0.000000 -0.007726 0.000000
# 2 -0.005244 0.020974 -0.008224 0.000000 0.013366 0.000000
# 3 0.001799 -0.008224 0.023566 0.000000 -0.027219 0.000000
# 4 0.000000 0.000000 0.000000 0.042502 0.000000 0.002356
# 5 -0.007726 0.013366 -0.027219 0.000000 0.068491 0.000000
# 6 0.000000 0.000000 0.000000 0.002356 0.000000 0.034067
#
#
# Mechanical properties :
#
#
# Convention : Reuss Voigt Hill
#
# Bulk Modulus (GPa) = 29.26279 37.30336 33.28308
# Shear Modulus (GPa) = 21.07046 28.75530 24.91288
#
# Velocity S-wave (km/s) = 3.12792 3.65408 3.40119
# Velocity P-wave (km/s) = 5.16073 5.92660 5.55687
#
# Compressibility (1/GPa) = 0.03417309
#
# Stress axis : x y z
#
# Youngs Moduli (GPa) = 77.09508 47.67907 42.43386
#
# Poissons Ratio (x) = 0.25004 -0.07634
# Poissons Ratio (y) = 0.40430 0.34896
# Poissons Ratio (z) = -0.13870 0.39210
#
# Static dielectric constant tensor:
#      x y z
#    x 1.792150 0.000000 -0.010300 
#    y 0.000000 1.897550 0.000000 
#    z -0.010300 0.000000 1.788440 
# 
# From -- ./inp_files/69450.got.cif
#   From: 2010.05.17/outbox.cif.g08.bks.cpg/sg15_35_cif.got.tgz:69450.got - 2010.06.03 18:47:42.
