data_PCOD9276433
_publ_section_title
;
Structure prediction by ZEFSAII (Michael W. Deem and Ramdas Pophale) SiO2 
 PCOD9276433
Probable space group: C 2/C
;
_chemical_formula_sum "Si O2"
_cell_formula_units_Z 52
_cell_length_a 6.643528
_cell_length_b 30.243941
_cell_length_c 14.350099
_cell_angle_alpha 90.000000
_cell_angle_beta 118.154661
_cell_angle_gamma 90.000000
_cell_volume 2542.152597
_symmetry_space_group_name_H-M "C 2/C"
_symmetry_group_IT_number 15
_symmetry_cell_setting 'monoclinic'
loop_
_space_group_symop_operation_xyz
x,y,z
-x,y,1/2-z
-x,-y,-z
x,-y,1/2+z
1/2+x,1/2+y,z
1/2-x,1/2+y,1/2-z
1/2-x,1/2-y,-z
1/2+x,1/2-y,1/2+z
loop_
_atom_site_type_symbol
_atom_site_label
_atom_site_fract_x
_atom_site_fract_y
_atom_site_fract_z
Si Si1 0.739744 0.228269 0.349626
Si Si2 0.900062 0.108752 0.935941
Si Si3 0.208211 0.180621 0.939929
Si Si4 0.159090 0.374750 0.570399
Si Si5 0.544863 0.033053 0.859776
Si Si6 0.170407 0.548817 0.504536
Si Si7 0.000000 0.817443 0.750000
O O1 0.500000 0.215562 0.250000
O O2 0.779529 0.203288 0.455501
O O3 0.723905 0.280205 0.369383
O O4 0.938117 0.213845 0.322877
O O5 0.686895 0.077222 0.866257
O O6 0.981786 0.149914 0.890506
O O7 0.841819 0.124173 0.027245
O O8 0.117757 0.077015 0.982604
O O9 0.435132 0.150831 0.984892
O O10 0.284416 0.348720 0.679868
O O11 0.060782 0.423584 0.570706
O O12 0.500000 0.011616 0.750000
O O13 0.675290 0.998126 0.954306
O O14 0.336730 0.044804 0.884135
#
# Coordination Sequence:
#
# PCOD9276433 Si02
#       7
#     8   8   8   8   8   8   4
#     4  11  23  40  61  89 119 158 211 257 311 375
#     4  10  20  40  62  84 120 166 200 249 317 369
#     4  10  22  41  62  83 123 164 200 258 313 367
#     4  10  21  37  61  90 120 157 205 256 318 371
#     4  10  21  39  62  91 124 162 206 255 303 377
#     4   9  21  40  61  90 125 161 204 253 312 372
#     4  12  22  36  62  92 122 158 214 266 310 382
#
# _framework density 20.455107999999999
#
# number of rings (size 3 to 8) (size 9 to 14) (size 15 to 20)
#    0.000    1.846    3.077    0.462    0.000    3.692 
#    8.308    0.000    0.000    0.000    0.000    0.000 
#    0.000    0.000    0.000    0.000    0.000    0.000 
#
# Total GULP energy -144955.238461 kJ/mol
# GULP energy per Si atom -5575.201479 kJ/mol
# Density = 2.040855 g / cm^3
# Si number density = 20.455108 Si / 1000 Ang^3
#
#
#
# Elastic Constant Matrix: (Units=GPa)
#
#
# Indices 1 2 3 4 5 6 
#
# 1 87.3057 34.0970 28.6048 0.0000 -17.7023 0.0000
# 2 34.0970 93.4737 18.0758 0.0000 -11.9208 0.0000
# 3 28.6048 18.0758 58.2532 0.0000 -15.1456 0.0000
# 4 0.0000 0.0000 0.0000 15.6938 0.0000 1.4084
# 5 -17.7023 -11.9208 -15.1456 0.0000 22.6101 0.0000
# 6 0.0000 0.0000 0.0000 1.4084 0.0000 26.6627
#
#
#
# Elastic Compliance Matrix: (Units=1/GPa)
#
#
# Indices 1 2 3 4 5 6 
#
# 1 0.016049 -0.004009 -0.004746 0.000000 0.007273 0.000000
# 2 -0.004009 0.012756 -0.001280 0.000000 0.002729 0.000000
# 3 -0.004746 -0.001280 0.022707 0.000000 0.010820 0.000000
# 4 0.000000 0.000000 0.000000 0.064023 0.000000 -0.003382
# 5 0.007273 0.002729 0.010820 0.000000 0.058609 0.000000
# 6 0.000000 0.000000 0.000000 -0.003382 0.000000 0.037684
#
#
# Mechanical properties :
#
#
# Convention : Reuss Voigt Hill
#
# Bulk Modulus (GPa) = 31.80405 44.50975 38.15690
# Shear Modulus (GPa) = 20.62877 23.54367 22.08622
#
# Velocity S-wave (km/s) = 3.17912 3.39631 3.28951
# Velocity P-wave (km/s) = 5.39052 6.09810 5.75519
#
# Compressibility (1/GPa) = 0.03144254
#
# Stress axis : x y z
#
# Youngs Moduli (GPa) = 62.30765 78.39318 44.03879
#
# Poissons Ratio (x) = 0.31429 0.20901
# Poissons Ratio (y) = 0.24980 0.05637
# Poissons Ratio (z) = 0.29571 0.10034
#
# Static dielectric constant tensor:
#      x y z
#    x 1.722420 0.000000 -0.006500 
#    y 0.000000 1.777260 0.000000 
#    z -0.006500 0.000000 1.739520 
# 
# From -- ./inp_files/130843.got.cif
#   From: 2010.05.17/outbox.cif.g08.bks.cpg/sg15_66_cif.got.tgz:130843.got - 2010.06.03 18:47:42.
