data_PCOD9276717
_publ_section_title
;
Structure prediction by ZEFSAII (Michael W. Deem and Ramdas Pophale) SiO2 
 PCOD9276717
Probable space group: C 2/C
;
_chemical_formula_sum "Si O2"
_cell_formula_units_Z 60
_cell_length_a 9.674946
_cell_length_b 22.537046
_cell_length_c 15.050993
_cell_angle_alpha 90.000000
_cell_angle_beta 96.689879
_cell_angle_gamma 90.000000
_cell_volume 3259.444394
_symmetry_space_group_name_H-M "C 2/C"
_symmetry_group_IT_number 15
_symmetry_cell_setting 'monoclinic'
loop_
_space_group_symop_operation_xyz
x,y,z
-x,y,1/2-z
-x,-y,-z
x,-y,1/2+z
1/2+x,1/2+y,z
1/2-x,1/2+y,1/2-z
1/2-x,1/2-y,-z
1/2+x,1/2-y,1/2+z
loop_
_atom_site_type_symbol
_atom_site_label
_atom_site_fract_x
_atom_site_fract_y
_atom_site_fract_z
Si Si1 0.000000 0.756557 0.250000
Si Si2 0.477026 0.145235 0.343093
Si Si3 0.500586 0.158175 0.654154
Si Si4 0.228102 0.085223 0.601767
Si Si5 0.186374 0.314496 0.001537
Si Si6 0.369595 0.036726 0.446604
Si Si7 0.776270 0.554052 0.794397
Si Si8 0.927050 0.864997 0.122271
O O1 0.912993 0.708580 0.303187
O O2 0.069279 0.802357 0.324137
O O3 0.500000 0.113085 0.250000
O O4 0.614969 0.165915 0.405055
O O5 0.409542 0.100398 0.407567
O O6 0.500000 0.191057 0.750000
O O7 0.346575 0.136235 0.618390
O O8 0.574166 0.186213 0.573870
O O9 0.597918 0.100749 0.681166
O O10 0.258377 0.049184 0.515188
O O11 0.258662 0.043371 0.688968
O O12 0.077380 0.115056 0.599692
O O13 0.250000 0.250000 0.000000
O O14 0.311306 0.358319 0.037565
O O15 0.500000 0.000000 0.500000
O O16 0.308404 0.999574 0.361019
O O17 0.637426 0.587313 0.815641
#
# Coordination Sequence:
#
# PCOD9276717 Si02
#       8
#     4   8   8   8   8   8   8   8
#     4  10  20  40  64  92 132 170 212 270 320 392
#     4  10  23  38  64  95 123 170 218 263 327 377
#     4   9  19  34  56  89 119 153 216 264 302 363
#     4  11  21  36  64  91 124 161 212 266 325 374
#     4  11  19  38  64  90 119 168 209 252 322 395
#     4  12  23  39  60  94 130 167 220 270 318 391
#     4  10  21  37  61  89 124 165 209 264 320 379
#     4  11  21  40  65  94 128 162 215 269 323 390
#
# _framework density 18.408045999999999
#
# number of rings (size 3 to 8) (size 9 to 14) (size 15 to 20)
#    0.400    1.067    5.333    0.800    1.867    0.533 
#    0.000    2.667    0.000    0.000    0.000    0.000 
#    0.000    0.000    0.000    0.000    0.000    0.000 
#
# Total GULP energy -167035.505998 kJ/mol
# GULP energy per Si atom -5567.850200 kJ/mol
# Density = 1.836615 g / cm^3
# Si number density = 18.408046 Si / 1000 Ang^3
#
#
#
# Elastic Constant Matrix: (Units=GPa)
#
#
# Indices 1 2 3 4 5 6 
#
# 1 113.2972 23.7631 44.8128 0.0000 -12.7591 0.0000
# 2 23.7631 74.8406 41.2999 0.0000 -4.6158 0.0000
# 3 44.8128 41.2999 149.0118 0.0000 -1.9525 0.0000
# 4 0.0000 0.0000 0.0000 38.2994 0.0000 -0.5588
# 5 -12.7591 -4.6158 -1.9525 0.0000 19.5461 0.0000
# 6 0.0000 0.0000 0.0000 -0.5588 0.0000 13.8810
#
#
#
# Elastic Compliance Matrix: (Units=1/GPa)
#
#
# Indices 1 2 3 4 5 6 
#
# 1 0.010990 -0.001547 -0.002791 0.000000 0.006530 0.000000
# 2 -0.001547 0.016207 -0.003995 0.000000 0.002418 0.000000
# 3 -0.002791 -0.003995 0.008632 0.000000 -0.001903 0.000000
# 4 0.000000 0.000000 0.000000 0.026125 0.000000 0.001052
# 5 0.006530 0.002418 -0.001903 0.000000 0.055805 0.000000
# 6 0.000000 0.000000 0.000000 0.001052 0.000000 0.072083
#
#
# Mechanical properties :
#
#
# Convention : Reuss Voigt Hill
#
# Bulk Modulus (GPa) = 52.18094 61.87792 57.02943
# Shear Modulus (GPa) = 23.48572 29.49688 26.49130
#
# Velocity S-wave (km/s) = 3.57576 4.00733 3.79768
# Velocity P-wave (km/s) = 6.74214 7.42288 7.09069
#
# Compressibility (1/GPa) = 0.01916409
#
# Stress axis : x y z
#
# Youngs Moduli (GPa) = 90.99203 61.70344 115.84175
#
# Poissons Ratio (x) = 0.09544 0.32329
# Poissons Ratio (y) = 0.14074 0.46278
# Poissons Ratio (z) = 0.25394 0.24650
#
# Static dielectric constant tensor:
#      x y z
#    x 1.643560 0.000000 -0.004480 
#    y 0.000000 1.655700 0.000000 
#    z -0.004480 0.000000 1.709630 
# 
# From -- ./inp_files/137394.got.cif
#   From: 2010.05.17/outbox.cif.g08.bks.cpg/sg15_69_cif.got.tgz:137394.got - 2010.06.03 18:47:42.
