data_PCOD9276527
_publ_section_title
;
Structure prediction by ZEFSAII (Michael W. Deem and Ramdas Pophale) SiO2 
 PCOD9276527
Probable space group: C 2/C
;
_chemical_formula_sum "Si O2"
_cell_formula_units_Z 44
_cell_length_a 14.091801
_cell_length_b 28.288801
_cell_length_c 5.432158
_cell_angle_alpha 90.000000
_cell_angle_beta 58.378955
_cell_angle_gamma 90.000000
_cell_volume 1843.977595
_symmetry_space_group_name_H-M "C 2/C"
_symmetry_group_IT_number 15
_symmetry_cell_setting 'monoclinic'
loop_
_space_group_symop_operation_xyz
x,y,z
-x,y,1/2-z
-x,-y,-z
x,-y,1/2+z
1/2+x,1/2+y,z
1/2-x,1/2+y,1/2-z
1/2-x,1/2-y,-z
1/2+x,1/2-y,1/2+z
loop_
_atom_site_type_symbol
_atom_site_label
_atom_site_fract_x
_atom_site_fract_y
_atom_site_fract_z
Si Si1 0.891681 0.469178 0.497321
Si Si2 0.389037 0.859555 0.973804
Si Si3 0.225352 0.811262 0.802614
Si Si4 0.209471 0.094467 0.066422
Si Si5 0.000000 0.969095 0.750000
Si Si6 0.591259 0.233391 0.804962
O O1 0.891327 0.493992 0.765296
O O2 0.781554 0.437601 0.652116
O O3 0.000000 0.440223 0.250000
O O4 0.500000 0.888488 0.750000
O O5 0.303756 0.831765 0.908597
O O6 0.302812 0.890943 0.242168
O O7 0.449158 0.816809 0.039515
O O8 0.171569 0.857087 0.747172
O O9 0.308871 0.786052 0.499869
O O10 0.133512 0.769949 0.956093
O O11 0.108646 0.064140 0.101416
O O12 0.000000 0.000000 0.500000
O O13 0.500000 0.256030 0.750000
#
# Coordination Sequence:
#
# PCOD9276527 Si02
#       6
#     8   8   8   8   4   8
#     4  10  23  41  67 100 136 174 220 285 363 439
#     4  11  23  40  70 105 145 189 237 304 378 440
#     4  10  23  39  64  97 143 183 245 299 358 441
#     4  11  27  43  72 104 138 185 246 300 374 439
#     4  12  30  56  82 104 150 204 250 312 378 456
#     4  10  20  40  62  95 141 194 239 289 363 439
#
# _framework density 23.861460000000001
#
# number of rings (size 3 to 8) (size 9 to 14) (size 15 to 20)
#    0.000    1.455    1.818    1.636    8.909    0.727 
#    0.000    0.000    0.000    0.000    0.000    0.000 
#    0.000    0.000    0.000    0.000    0.000    0.000 
#
# Total GULP energy -122738.414903 kJ/mol
# GULP energy per Si atom -5579.018859 kJ/mol
# Density = 2.380715 g / cm^3
# Si number density = 23.861460 Si / 1000 Ang^3
#
#
#
# Elastic Constant Matrix: (Units=GPa)
#
#
# Indices 1 2 3 4 5 6 
#
# 1 114.0337 67.2617 17.0517 0.0000 2.6593 0.0000
# 2 67.2617 106.7628 36.1961 0.0000 -0.8305 0.0000
# 3 17.0517 36.1961 67.5759 0.0000 9.8641 0.0000
# 4 0.0000 0.0000 0.0000 18.5392 0.0000 2.9543
# 5 2.6593 -0.8305 9.8641 0.0000 39.3644 0.0000
# 6 0.0000 0.0000 0.0000 2.9543 0.0000 43.1483
#
#
#
# Elastic Compliance Matrix: (Units=1/GPa)
#
#
# Indices 1 2 3 4 5 6 
#
# 1 0.014168 -0.009538 0.001767 0.000000 -0.001601 0.000000
# 2 -0.009538 0.017996 -0.007662 0.000000 0.002944 0.000000
# 3 0.001767 -0.007662 0.019200 0.000000 -0.005092 0.000000
# 4 0.000000 0.000000 0.000000 0.054535 0.000000 -0.003734
# 5 -0.001601 0.002944 -0.005092 0.000000 0.026850 0.000000
# 6 0.000000 0.000000 0.000000 -0.003734 0.000000 0.023432
#
#
# Mechanical properties :
#
#
# Convention : Reuss Voigt Hill
#
# Bulk Modulus (GPa) = 48.78407 58.82126 53.80266
# Shear Modulus (GPa) = 25.78930 31.40122 28.59526
#
# Velocity S-wave (km/s) = 3.29111 3.63158 3.46553
# Velocity P-wave (km/s) = 5.91024 6.50301 6.21370
#
# Compressibility (1/GPa) = 0.02049849
#
# Stress axis : x y z
#
# Youngs Moduli (GPa) = 70.58087 55.56742 52.08393
#
# Poissons Ratio (x) = 0.52999 -0.09205
# Poissons Ratio (y) = 0.67318 0.39909
# Poissons Ratio (z) = -0.12474 0.42578
#
# Static dielectric constant tensor:
#      x y z
#    x 2.040100 0.000000 -0.036730 
#    y 0.000000 1.950610 0.000000 
#    z -0.036730 0.000000 2.155360 
# 
# From -- ./inp_files/8187.got.cif
#   From: 2010.05.17/outbox.cif.g08.bks.cpg/sg15_5_cif.got.tgz:8187.got - 2010.06.03 18:47:42.
