data_PCOD9276508
_publ_section_title
;
Structure prediction by ZEFSAII (Michael W. Deem and Ramdas Pophale) SiO2 
 PCOD9276508
Probable space group: C 2/C
;
_chemical_formula_sum "Si O2"
_cell_formula_units_Z 52
_cell_length_a 10.873794
_cell_length_b 9.731268
_cell_length_c 24.785326
_cell_angle_alpha 90.000000
_cell_angle_beta 126.104174
_cell_angle_gamma 90.000000
_cell_volume 2118.985674
_symmetry_space_group_name_H-M "C 2/C"
_symmetry_group_IT_number 15
_symmetry_cell_setting 'monoclinic'
loop_
_space_group_symop_operation_xyz
x,y,z
-x,y,1/2-z
-x,-y,-z
x,-y,1/2+z
1/2+x,1/2+y,z
1/2-x,1/2+y,1/2-z
1/2-x,1/2-y,-z
1/2+x,1/2-y,1/2+z
loop_
_atom_site_type_symbol
_atom_site_label
_atom_site_fract_x
_atom_site_fract_y
_atom_site_fract_z
Si Si1 0.159756 0.583718 0.672946
Si Si2 0.877802 0.957801 0.912544
Si Si3 0.132443 0.422256 0.566134
Si Si4 0.660619 0.809259 0.392348
Si Si5 0.500000 0.693297 0.250000
Si Si6 0.413568 0.693306 0.526710
Si Si7 0.750443 0.362945 0.732323
O O1 0.212266 0.522398 0.629572
O O2 0.128771 0.459917 0.707175
O O3 0.264885 0.698634 0.728684
O O4 0.997602 0.656856 0.620254
O O5 0.788232 0.913977 0.836922
O O6 0.772061 0.061627 0.920015
O O7 0.914730 0.834005 0.962512
O O8 0.024862 0.048807 0.934787
O O9 0.253693 0.328324 0.565992
O O10 0.000000 0.500000 0.500000
O O11 0.037994 0.306565 0.574547
O O12 0.611664 0.779871 0.317346
O O13 0.394514 0.615209 0.265317
O O14 0.250000 0.750000 0.500000
#
# Coordination Sequence:
#
# PCOD9276508 Si02
#       7
#     8   8   8   8   4   8   8
#     4  11  24  42  69  98 132 184 228 289 360 414
#     4  10  21  40  62  94 129 180 225 279 351 426
#     4  11  23  40  65  97 136 176 235 283 347 427
#     4  10  21  40  67  90 134 180 226 280 360 409
#     4  10  20  40  62  92 130 178 216 298 350 400
#     4  10  22  39  63  92 136 174 224 284 346 412
#     4  11  23  41  66  95 135 172 234 287 350 428
#
# _framework density 24.540044000000002
#
# number of rings (size 3 to 8) (size 9 to 14) (size 15 to 20)
#    0.000    1.538    1.538    3.692    2.154    3.077 
#    2.769    0.000    0.000    0.000    0.000    0.000 
#    0.000    0.000    0.000    0.000    0.000    0.000 
#
# Total GULP energy -145290.006440 kJ/mol
# GULP energy per Si atom -5588.077171 kJ/mol
# Density = 2.448419 g / cm^3
# Si number density = 24.540044 Si / 1000 Ang^3
#
#
#
# Elastic Constant Matrix: (Units=GPa)
#
#
# Indices 1 2 3 4 5 6 
#
# 1 56.4451 26.4364 -18.6616 0.0000 8.3482 0.0000
# 2 26.4364 124.5883 33.4912 0.0000 -1.3660 0.0000
# 3 -18.6616 33.4912 87.4027 0.0000 -3.6043 0.0000
# 4 0.0000 0.0000 0.0000 47.6617 0.0000 8.9724
# 5 8.3482 -1.3660 -3.6043 0.0000 33.6101 0.0000
# 6 0.0000 0.0000 0.0000 8.9724 0.0000 40.9486
#
#
#
# Elastic Compliance Matrix: (Units=1/GPa)
#
#
# Indices 1 2 3 4 5 6 
#
# 1 0.024599 -0.007392 0.007855 0.000000 -0.005568 0.000000
# 2 -0.007392 0.011170 -0.005790 0.000000 0.001669 0.000000
# 3 0.007855 -0.005790 0.015315 0.000000 -0.000544 0.000000
# 4 0.000000 0.000000 0.000000 0.021884 0.000000 -0.004795
# 5 -0.005568 0.001669 -0.000544 0.000000 0.031145 0.000000
# 6 0.000000 0.000000 0.000000 -0.004795 0.000000 0.025472
#
#
# Mechanical properties :
#
#
# Convention : Reuss Voigt Hill
#
# Bulk Modulus (GPa) = 24.73412 38.99645 31.86528
# Shear Modulus (GPa) = 32.52793 39.58875 36.05834
#
# Velocity S-wave (km/s) = 3.64470 4.02086 3.83739
# Velocity P-wave (km/s) = 5.27378 6.12224 5.71378
#
# Compressibility (1/GPa) = 0.04042999
#
# Stress axis : x y z
#
# Youngs Moduli (GPa) = 40.65186 89.52851 65.29757
#
# Poissons Ratio (x) = 0.66182 -0.51293
# Poissons Ratio (y) = 0.30051 0.37804
# Poissons Ratio (z) = -0.31933 0.51833
#
# Static dielectric constant tensor:
#      x y z
#    x 1.955960 0.000000 0.041710 
#    y 0.000000 2.032630 0.000000 
#    z 0.041710 0.000000 1.957910 
# 
# From -- ./inp_files/291696.got.cif
#   From: 2010.05.17/outbox.cif.g08.bks.cpg/sg15_146_cif.got.tgz:291696.got - 2010.06.03 18:47:42.
