data_PCOD9276653
_publ_section_title
;
Structure prediction by ZEFSAII (Michael W. Deem and Ramdas Pophale) SiO2 
 PCOD9276653
Probable space group: C 2/C
;
_chemical_formula_sum "Si O2"
_cell_formula_units_Z 52
_cell_length_a 8.417247
_cell_length_b 11.971009
_cell_length_c 25.581438
_cell_angle_alpha 90.000000
_cell_angle_beta 60.951749
_cell_angle_gamma 90.000000
_cell_volume 2253.419815
_symmetry_space_group_name_H-M "C 2/C"
_symmetry_group_IT_number 15
_symmetry_cell_setting 'monoclinic'
loop_
_space_group_symop_operation_xyz
x,y,z
-x,y,1/2-z
-x,-y,-z
x,-y,1/2+z
1/2+x,1/2+y,z
1/2-x,1/2+y,1/2-z
1/2-x,1/2-y,-z
1/2+x,1/2-y,1/2+z
loop_
_atom_site_type_symbol
_atom_site_label
_atom_site_fract_x
_atom_site_fract_y
_atom_site_fract_z
Si Si1 0.551522 0.330815 0.159605
Si Si2 0.876639 0.856649 0.468760
Si Si3 0.233911 0.409226 0.285362
Si Si4 0.000000 0.310460 0.250000
Si Si5 0.849246 0.438496 0.487263
Si Si6 0.277963 0.235183 0.923796
Si Si7 0.779929 0.657916 0.177105
O O1 0.615863 0.382762 0.094767
O O2 0.384887 0.399860 0.214010
O O3 0.700522 0.324363 0.180641
O O4 0.478361 0.208970 0.154040
O O5 0.750000 0.750000 0.500000
O O6 0.079238 0.824053 0.453424
O O7 0.782051 0.962559 0.510279
O O8 0.240613 0.528487 0.312806
O O9 0.035693 0.393958 0.292188
O O10 0.840799 0.223570 0.261942
O O11 0.741616 0.346689 0.538542
O O12 0.907731 0.358021 0.429565
O O13 0.000000 0.500000 0.500000
O O14 0.300844 0.285894 0.862400
#
# Coordination Sequence:
#
# PCOD9276653 Si02
#       7
#     8   8   8   4   8   8   8
#     4   9  21  38  62  91 123 162 210 257 318 389
#     4  11  21  40  64  91 131 174 215 266 328 386
#     4  10  20  40  64  87 125 160 201 267 321 376
#     4  10  22  36  58  92 114 152 200 248 314 390
#     4  11  22  39  63  88 126 167 216 257 314 377
#     4  10  23  40  60  92 124 170 209 267 314 385
#     4  10  21  39  61  87 125 153 205 256 319 375
#
# _framework density 23.076038
#
# number of rings (size 3 to 8) (size 9 to 14) (size 15 to 20)
#    0.000    1.846    1.538    2.308    0.000    4.923 
#    0.000    0.000   13.538    0.000    0.000    0.000 
#    0.000    0.000    0.000    0.000    0.000    0.000 
#
# Total GULP energy -144838.370528 kJ/mol
# GULP energy per Si atom -5570.706559 kJ/mol
# Density = 2.302352 g / cm^3
# Si number density = 23.076038 Si / 1000 Ang^3
#
#
#
# Elastic Constant Matrix: (Units=GPa)
#
#
# Indices 1 2 3 4 5 6 
#
# 1 86.5131 25.1334 17.1419 0.0000 23.1344 0.0000
# 2 25.1334 103.8683 30.2040 0.0000 11.5487 0.0000
# 3 17.1419 30.2040 71.7739 0.0000 17.8845 0.0000
# 4 0.0000 0.0000 0.0000 28.4831 0.0000 7.6968
# 5 23.1344 11.5487 17.8845 0.0000 36.7323 0.0000
# 6 0.0000 0.0000 0.0000 7.6968 0.0000 34.1337
#
#
#
# Elastic Compliance Matrix: (Units=1/GPa)
#
#
# Indices 1 2 3 4 5 6 
#
# 1 0.014552 -0.002499 -0.000382 0.000000 -0.008193 0.000000
# 2 -0.002499 0.011460 -0.004234 0.000000 0.000032 0.000000
# 3 -0.000382 -0.004234 0.017542 0.000000 -0.006969 0.000000
# 4 0.000000 0.000000 0.000000 0.037387 0.000000 -0.008430
# 5 -0.008193 0.000032 -0.006969 0.000000 0.035767 0.000000
# 6 0.000000 0.000000 0.000000 -0.008430 0.000000 0.031198
#
#
# Mechanical properties :
#
#
# Convention : Reuss Voigt Hill
#
# Bulk Modulus (GPa) = 34.10227 45.23488 39.66857
# Shear Modulus (GPa) = 29.08511 32.51488 30.79999
#
# Velocity S-wave (km/s) = 3.55407 3.75778 3.65734
# Velocity P-wave (km/s) = 5.62602 6.20266 5.92136
#
# Compressibility (1/GPa) = 0.02932357
#
# Stress axis : x y z
#
# Youngs Moduli (GPa) = 68.72119 87.26147 57.00558
#
# Poissons Ratio (x) = 0.21807 0.02179
# Poissons Ratio (y) = 0.17173 0.24135
# Poissons Ratio (z) = 0.02627 0.36944
#
# Static dielectric constant tensor:
#      x y z
#    x 2.092910 0.000000 -0.081030 
#    y 0.000000 1.858500 0.000000 
#    z -0.081030 0.000000 2.245850 
# 
# From -- ./inp_files/287742.got.cif
#   From: 2010.05.17/outbox.cif.g08.bks.cpg/sg15_144_cif.got.tgz:287742.got - 2010.06.03 18:47:42.
