data_PCOD9276244
_publ_section_title
;
Structure prediction by ZEFSAII (Michael W. Deem and Ramdas Pophale) SiO2 
 PCOD9276244
Probable space group: C 2/C
;
_chemical_formula_sum "Si O2"
_cell_formula_units_Z 32
_cell_length_a 7.272102
_cell_length_b 11.858287
_cell_length_c 17.291135
_cell_angle_alpha 90.000000
_cell_angle_beta 68.250444
_cell_angle_gamma 90.000000
_cell_volume 1384.947902
_symmetry_space_group_name_H-M "C 2/C"
_symmetry_group_IT_number 15
_symmetry_cell_setting 'monoclinic'
loop_
_space_group_symop_operation_xyz
x,y,z
-x,y,1/2-z
-x,-y,-z
x,-y,1/2+z
1/2+x,1/2+y,z
1/2-x,1/2+y,1/2-z
1/2-x,1/2-y,-z
1/2+x,1/2-y,1/2+z
loop_
_atom_site_type_symbol
_atom_site_label
_atom_site_fract_x
_atom_site_fract_y
_atom_site_fract_z
Si Si1 0.292294 0.667098 0.378941
Si Si2 0.968759 0.684043 0.550834
Si Si3 0.074844 0.923213 0.156662
Si Si4 0.340206 0.092150 0.834616
O O1 0.078315 0.673758 0.452804
O O2 0.453687 0.700647 0.420803
O O3 0.328649 0.544649 0.340754
O O4 0.312156 0.773509 0.319413
O O5 0.072528 0.593560 0.593058
O O6 0.738128 0.655963 0.591225
O O7 0.118872 0.950454 0.363110
O O8 0.000000 0.874519 0.250000
O O9 0.500000 0.044258 0.750000
#
# Coordination Sequence:
#
# PCOD9276244 Si02
#       4
#     8   8   8   8
#     4   9  21  41  56  83 117 143 187 235 272 331
#     4   9  21  42  55  84 117 140 189 238 267 332
#     4  12  21  35  62  82 110 156 182 222 291 325
#     4  10  20  40  56  82 118 142 186 237 266 331
#
# _framework density 23.105563
#
# number of rings (size 3 to 8) (size 9 to 14) (size 15 to 20)
#    1.500    0.500    2.500    1.500    0.000    2.000 
#    4.500    1.250    0.000    0.000    0.000    0.000 
#    0.000    0.000    0.000    0.000    0.000    0.000 
#
# Total GULP energy -89171.227470 kJ/mol
# GULP energy per Si atom -5573.201717 kJ/mol
# Density = 2.305297 g / cm^3
# Si number density = 23.105563 Si / 1000 Ang^3
#
#
#
# Elastic Constant Matrix: (Units=GPa)
#
#
# Indices 1 2 3 4 5 6 
#
# 1 116.8481 8.3208 29.9951 0.0000 -31.6965 0.0000
# 2 8.3208 54.0410 0.9597 0.0000 -21.6726 0.0000
# 3 29.9951 0.9597 82.2760 0.0000 -40.6108 0.0000
# 4 0.0000 0.0000 0.0000 -3.5439 0.0000 -1.8443
# 5 -31.6965 -21.6726 -40.6108 0.0000 41.5501 0.0000
# 6 0.0000 0.0000 0.0000 -1.8443 0.0000 10.5233
#
#
#
# Elastic Compliance Matrix: (Units=1/GPa)
#
#
# Indices 1 2 3 4 5 6 
#
# 1 0.011065 0.002899 0.001633 0.000000 0.011549 0.000000
# 2 0.002899 0.030941 0.014761 0.000000 0.032778 0.000000
# 3 0.001633 0.014761 0.030531 0.000000 0.038786 0.000000
# 4 0.000000 0.000000 0.000000 -0.258590 0.000000 -0.045319
# 5 0.011549 0.032778 0.038786 0.000000 0.087884 0.000000
# 6 0.000000 0.000000 0.000000 -0.045319 0.000000 0.087085
#
#
# Mechanical properties :
#
#
# Convention : Reuss Voigt Hill
#
# Bulk Modulus (GPa) = 8.99900 36.85739 22.92819
# Shear Modulus (GPa) = -395.94295 23.96520 -185.98887
#
# Velocity S-wave (km/s) = -13.10476 3.22406 -8.98165
# Velocity P-wave (km/s) = 15.00254 5.46313 9.88004
#
# Compressibility (1/GPa) = 0.11112349
#
# Stress axis : x y z
#
# Youngs Moduli (GPa) = 90.37181 32.31924 32.75320
#
# Poissons Ratio (x) = -0.09369 -0.05347
# Poissons Ratio (y) = -0.26197 -0.48348
# Poissons Ratio (z) = -0.14754 -0.47707
#
# Static dielectric constant tensor:
#      x y z
#    x 1.937220 0.000000 0.001380 
#    y 0.000000 1.854240 0.000000 
#    z 0.001380 0.000000 1.827060 
# 
# From -- ./inp_files/183963.got.cif
#   From: 2010.05.17/outbox.cif.g08.bks.cpg/sg15_92_cif.got.tgz:183963.got - 2010.06.03 18:47:42.
