data_PCOD9276674
_publ_section_title
;
Structure prediction by ZEFSAII (Michael W. Deem and Ramdas Pophale) SiO2 
 PCOD9276674
Probable space group: C 2/C
;
_chemical_formula_sum "Si O2"
_cell_formula_units_Z 56
_cell_length_a 16.832398
_cell_length_b 16.590839
_cell_length_c 10.927529
_cell_angle_alpha 90.000000
_cell_angle_beta 66.647932
_cell_angle_gamma 90.000000
_cell_volume 2801.689043
_symmetry_space_group_name_H-M "C 2/C"
_symmetry_group_IT_number 15
_symmetry_cell_setting 'monoclinic'
loop_
_space_group_symop_operation_xyz
x,y,z
-x,y,1/2-z
-x,-y,-z
x,-y,1/2+z
1/2+x,1/2+y,z
1/2-x,1/2+y,1/2-z
1/2-x,1/2-y,-z
1/2+x,1/2-y,1/2+z
loop_
_atom_site_type_symbol
_atom_site_label
_atom_site_fract_x
_atom_site_fract_y
_atom_site_fract_z
Si Si1 0.274555 0.668368 0.240359
Si Si2 0.791388 0.575874 0.998366
Si Si3 0.220982 0.606094 0.013692
Si Si4 0.907566 0.865079 0.299207
Si Si5 0.094757 0.738279 0.987675
Si Si6 0.444428 0.796677 0.406028
Si Si7 0.826958 0.822700 0.093734
O O1 0.263603 0.598248 0.346420
O O2 0.224031 0.641180 0.148861
O O3 0.367346 0.696822 0.132771
O O4 0.231995 0.747891 0.325818
O O5 0.815960 0.483136 0.971756
O O6 0.876886 0.630457 0.950036
O O7 0.732878 0.606817 0.921325
O O8 0.320264 0.597422 0.908084
O O9 0.168106 0.670590 0.965518
O O10 0.918915 0.785200 0.376799
O O11 0.884736 0.847757 0.173107
O O12 0.000000 0.909174 0.250000
O O13 0.008575 0.701691 0.982929
O O14 0.500000 0.799115 0.250000
O O15 0.387931 0.715264 0.452240
#
# Coordination Sequence:
#
# PCOD9276674 Si02
#       7
#     8   8   8   8   8   8   8
#     4  10  20  40  64  89 121 173 220 251 306 373
#     4  11  26  40  62  98 133 172 201 262 339 377
#     4  11  24  40  66  95 132 169 206 266 323 383
#     4  11  21  40  67  95 116 162 222 270 301 368
#     4  11  20  39  67  93 124 166 224 258 303 378
#     4  11  23  38  64  96 129 168 215 264 308 380
#     4  11  20  41  66  87 126 166 217 263 303 376
#
# _framework density 19.987942
#
# number of rings (size 3 to 8) (size 9 to 14) (size 15 to 20)
#    0.000    1.143    4.286    4.286    2.000    0.571 
#    0.000    5.000    0.000    0.000    0.000    0.000 
#    0.000    0.000    0.000    0.000    0.000    0.000 
#
# Total GULP energy -156374.457161 kJ/mol
# GULP energy per Si atom -5584.802041 kJ/mol
# Density = 1.994245 g / cm^3
# Si number density = 19.987942 Si / 1000 Ang^3
#
#
#
# Elastic Constant Matrix: (Units=GPa)
#
#
# Indices 1 2 3 4 5 6 
#
# 1 102.3022 3.7783 20.6800 0.0000 10.2233 0.0000
# 2 3.7783 41.2241 21.2238 0.0000 10.0028 0.0000
# 3 20.6800 21.2238 89.4673 0.0000 -1.9154 0.0000
# 4 0.0000 0.0000 0.0000 8.9405 0.0000 2.4663
# 5 10.2233 10.0028 -1.9154 0.0000 29.4613 0.0000
# 6 0.0000 0.0000 0.0000 2.4663 0.0000 16.5080
#
#
#
# Elastic Compliance Matrix: (Units=1/GPa)
#
#
# Indices 1 2 3 4 5 6 
#
# 1 0.010763 0.001630 -0.002971 0.000000 -0.004482 0.000000
# 2 0.001630 0.031042 -0.007990 0.000000 -0.011625 0.000000
# 3 -0.002971 -0.007990 0.013859 0.000000 0.004644 0.000000
# 4 0.000000 0.000000 0.000000 0.116659 0.000000 -0.017429
# 5 -0.004482 -0.011625 0.004644 0.000000 0.039747 0.000000
# 6 0.000000 0.000000 0.000000 -0.017429 0.000000 0.063181
#
#
# Mechanical properties :
#
#
# Convention : Reuss Voigt Hill
#
# Bulk Modulus (GPa) = 27.02392 36.03974 31.53183
# Shear Modulus (GPa) = 16.32682 23.46940 19.89811
#
# Velocity S-wave (km/s) = 2.86113 3.43035 3.15859
# Velocity P-wave (km/s) = 4.94613 5.81030 5.39554
#
# Compressibility (1/GPa) = 0.03700425
#
# Stress axis : x y z
#
# Youngs Moduli (GPa) = 92.91027 32.21407 72.15702
#
# Poissons Ratio (x) = -0.05252 0.21434
# Poissons Ratio (y) = -0.15147 0.57651
# Poissons Ratio (z) = 0.27599 0.25738
#
# Static dielectric constant tensor:
#      x y z
#    x 1.717500 0.000000 -0.012680 
#    y 0.000000 1.666680 0.000000 
#    z -0.012680 0.000000 1.739820 
# 
# From -- ./inp_files/105640.got.cif
#   From: 2010.05.17/outbox.cif.g08.bks.cpg/sg15_53_cif.got.tgz:105640.got - 2010.06.03 18:47:42.
