data_PCOD9276614
_publ_section_title
;
Structure prediction by ZEFSAII (Michael W. Deem and Ramdas Pophale) SiO2 
 PCOD9276614
Probable space group: C 2/C
;
_chemical_formula_sum "Si O2"
_cell_formula_units_Z 48
_cell_length_a 18.508803
_cell_length_b 28.038114
_cell_length_c 8.612272
_cell_angle_alpha 90.000000
_cell_angle_beta 146.127075
_cell_angle_gamma 90.000000
_cell_volume 2491.007731
_symmetry_space_group_name_H-M "C 2/C"
_symmetry_group_IT_number 15
_symmetry_cell_setting 'monoclinic'
loop_
_space_group_symop_operation_xyz
x,y,z
-x,y,1/2-z
-x,-y,-z
x,-y,1/2+z
1/2+x,1/2+y,z
1/2-x,1/2+y,1/2-z
1/2-x,1/2-y,-z
1/2+x,1/2-y,1/2+z
loop_
_atom_site_type_symbol
_atom_site_label
_atom_site_fract_x
_atom_site_fract_y
_atom_site_fract_z
Si Si1 0.135026 0.464552 0.398290
Si Si2 0.382037 0.266809 0.318880
Si Si3 0.762991 0.869426 0.676654
Si Si4 0.500000 0.322158 0.250000
Si Si5 0.351693 0.642680 0.985146
Si Si6 0.500000 0.810955 0.250000
Si Si7 0.858974 0.565336 0.951641
O O1 0.237576 0.425797 0.641154
O O2 0.170247 0.519206 0.495180
O O3 0.125595 0.453508 0.198183
O O4 0.000000 0.456967 0.250000
O O5 0.472446 0.290228 0.350390
O O6 0.350136 0.307211 0.391018
O O7 0.458798 0.223713 0.536041
O O8 0.250000 0.250000 0.000000
O O9 0.811286 0.854353 0.592235
O O10 0.625146 0.843664 0.448437
O O11 0.871114 0.852676 0.990052
O O12 0.251649 0.604896 0.734259
O O13 0.500000 0.625190 0.250000
O O14 0.000000 0.585044 0.250000
#
# Coordination Sequence:
#
# PCOD9276614 Si02
#       7
#     8   8   8   4   8   4   8
#     4  10  20  40  63  96 126 161 209 264 317 374
#     4  12  26  41  66  94 126 172 217 264 319 380
#     4  11  24  42  66  94 128 172 209 265 325 374
#     4  12  24  42  62  95 127 162 220 264 318 380
#     4  11  24  46  62  90 136 171 205 265 323 380
#     4  12  24  44  66  91 131 174 212 270 316 382
#     4  10  22  39  67  93 123 166 212 261 316 377
#
# _framework density 19.269309
#
# number of rings (size 3 to 8) (size 9 to 14) (size 15 to 20)
#    0.000    1.000    5.000    2.000    2.333    6.667 
#    1.500    1.667    0.000    0.000    0.000    0.000 
#    0.000    0.000    0.000    0.000    0.000    0.000 
#
# Total GULP energy -134101.900313 kJ/mol
# GULP energy per Si atom -5587.579180 kJ/mol
# Density = 1.922545 g / cm^3
# Si number density = 19.269309 Si / 1000 Ang^3
#
#
#
# Elastic Constant Matrix: (Units=GPa)
#
#
# Indices 1 2 3 4 5 6 
#
# 1 51.2932 7.3702 9.5770 0.0000 17.4842 0.0000
# 2 7.3702 69.1620 49.6578 0.0000 16.7841 0.0000
# 3 9.5770 49.6578 150.1172 0.0000 23.4959 0.0000
# 4 0.0000 0.0000 0.0000 35.6701 0.0000 -14.1780
# 5 17.4842 16.7841 23.4959 0.0000 25.6560 0.0000
# 6 0.0000 0.0000 0.0000 -14.1780 0.0000 28.0984
#
#
#
# Elastic Compliance Matrix: (Units=1/GPa)
#
#
# Indices 1 2 3 4 5 6 
#
# 1 0.025678 0.001232 0.000957 0.000000 -0.019181 0.000000
# 2 0.001232 0.020450 -0.005391 0.000000 -0.009281 0.000000
# 3 0.000957 -0.005391 0.009261 0.000000 -0.005607 0.000000
# 4 0.000000 0.000000 0.000000 0.035068 0.000000 0.017695
# 5 -0.019181 -0.009281 -0.005607 0.000000 0.063255 0.000000
# 6 0.000000 0.000000 0.000000 0.017695 0.000000 0.044518
#
#
# Mechanical properties :
#
#
# Convention : Reuss Voigt Hill
#
# Bulk Modulus (GPa) = 20.41444 44.86472 32.63958
# Shear Modulus (GPa) = 22.62807 31.48273 27.05540
#
# Velocity S-wave (km/s) = 3.43053 4.04645 3.75115
# Velocity P-wave (km/s) = 5.12920 6.72051 5.97804
#
# Compressibility (1/GPa) = 0.04898494
#
# Stress axis : x y z
#
# Youngs Moduli (GPa) = 38.94314 48.89877 107.97710
#
# Poissons Ratio (x) = -0.06023 -0.10329
# Poissons Ratio (y) = -0.04796 0.58208
# Poissons Ratio (z) = -0.03725 0.26360
#
# Static dielectric constant tensor:
#      x y z
#    x 1.660010 0.000000 -0.024440 
#    y 0.000000 1.668940 0.000000 
#    z -0.024440 0.000000 1.685310 
# 
# From -- ./inp_files/32166.got.cif
#   From: 2010.05.17/outbox.cif.g08.bks.cpg/sg15_17_cif.got.tgz:32166.got - 2010.06.03 18:47:42.
