data_PCOD9276073
_publ_section_title
;
Structure prediction by ZEFSAII (Michael W. Deem and Ramdas Pophale) SiO2 
 PCOD9276073
Probable space group: C 2/C
;
_chemical_formula_sum "Si O2"
_cell_formula_units_Z 56
_cell_length_a 11.556506
_cell_length_b 22.168708
_cell_length_c 21.478077
_cell_angle_alpha 90.000000
_cell_angle_beta 154.254253
_cell_angle_gamma 90.000000
_cell_volume 2390.179663
_symmetry_space_group_name_H-M "C 2/C"
_symmetry_group_IT_number 15
_symmetry_cell_setting 'monoclinic'
loop_
_space_group_symop_operation_xyz
x,y,z
-x,y,1/2-z
-x,-y,-z
x,-y,1/2+z
1/2+x,1/2+y,z
1/2-x,1/2+y,1/2-z
1/2-x,1/2-y,-z
1/2+x,1/2-y,1/2+z
loop_
_atom_site_type_symbol
_atom_site_label
_atom_site_fract_x
_atom_site_fract_y
_atom_site_fract_z
Si Si1 0.653209 0.929658 0.197514
Si Si2 0.584508 0.477020 0.905706
Si Si3 0.000000 0.627106 0.750000
Si Si4 0.491079 0.695114 0.000172
Si Si5 0.150833 0.402921 0.766087
Si Si6 0.069430 0.665405 0.545398
Si Si7 0.777680 0.176175 0.515530
Si Si8 0.500000 0.388825 0.750000
O O1 0.622324 0.912510 0.254501
O O2 0.939010 0.959871 0.324716
O O3 0.617685 0.876007 0.129542
O O4 0.403260 0.976344 0.067554
O O5 0.399454 0.444644 0.867535
O O6 0.532018 0.432687 0.823269
O O7 0.209077 0.670648 0.885595
O O8 0.546984 0.763362 0.045564
O O9 0.717584 0.656313 0.141140
O O10 0.500011 0.676462 0.931090
O O11 0.000000 0.434655 0.750000
O O12 0.944466 0.372086 0.617498
O O13 0.772198 0.648426 0.376825
O O14 0.278497 0.660557 0.589327
O O15 0.750000 0.250000 0.500000
#
# Coordination Sequence:
#
# PCOD9276073 Si02
#       8
#     8   8   4   8   8   8   8   4
#     4  11  28  46  70 100 138 185 242 294 346 418
#     4  11  24  47  69  97 135 184 236 294 343 414
#     4  12  25  46  64 108 132 177 240 280 362 414
#     4  10  22  40  69 102 142 171 223 285 343 425
#     4  10  20  39  67  97 131 184 220 282 352 411
#     4  10  21  41  67 104 135 183 220 284 353 420
#     4   9  19  38  67 100 137 176 222 272 344 418
#     4  10  21  42  68  94 136 181 234 272 364 408
#
# _framework density 23.429202
#
# number of rings (size 3 to 8) (size 9 to 14) (size 15 to 20)
#    0.000    1.714    2.857    0.429    1.000    8.000 
#    2.571    1.429    0.000    0.000    0.000    0.000 
#    0.000    0.000    0.000    0.000    0.000    0.000 
#
# Total GULP energy -156122.358232 kJ/mol
# GULP energy per Si atom -5575.798508 kJ/mol
# Density = 2.337588 g / cm^3
# Si number density = 23.429202 Si / 1000 Ang^3
#
#
#
# Elastic Constant Matrix: (Units=GPa)
#
#
# Indices 1 2 3 4 5 6 
#
# 1 79.9915 30.3934 8.5755 0.0363 0.8517 0.0566
# 2 30.3934 91.6490 31.3630 -0.0463 7.3188 -0.0617
# 3 8.5755 31.3630 78.0429 0.2341 10.8262 0.1882
# 4 0.0363 -0.0463 0.2341 119.2766 -0.0162 170.9678
# 5 0.8517 7.3188 10.8262 -0.0162 32.5708 -0.0530
# 6 0.0566 -0.0617 0.1882 170.9678 -0.0530 271.2581
#
#
#
# Elastic Compliance Matrix: (Units=1/GPa)
#
#
# Indices 1 2 3 4 5 6 
#
# 1 0.014326 -0.004907 0.000311 -0.000008 0.000625 0.000001
# 2 -0.004907 0.014378 -0.005041 0.000062 -0.001427 -0.000032
# 3 0.000311 -0.005041 0.015357 -0.000151 -0.003980 0.000083
# 4 -0.000008 0.000062 -0.000151 0.086811 -0.000009 -0.054715
# 5 0.000625 -0.001427 -0.003980 -0.000009 0.032330 0.000015
# 6 0.000001 -0.000032 0.000083 -0.054715 0.000015 0.038172
#
#
# Mechanical properties :
#
#
# Convention : Reuss Voigt Hill
#
# Bulk Modulus (GPa) = 40.34343 43.37190 41.85767
# Shear Modulus (GPa) = 21.84272 96.57786 59.21029
#
# Velocity S-wave (km/s) = 3.05665 6.42734 5.03258
# Velocity P-wave (km/s) = 5.45107 8.58096 7.18843
#
# Compressibility (1/GPa) = 0.02478718
#
# Stress axis : x y z
#
# Youngs Moduli (GPa) = 69.80380 69.55292 65.11530
#
# Poissons Ratio (x) = 0.34131 -0.02027
# Poissons Ratio (y) = 0.34255 0.32824
# Poissons Ratio (z) = -0.02173 0.35060
#
# Static dielectric constant tensor:
#      x y z
#    x 1.887550 -0.000020 -0.042620 
#    y -0.000020 1.892630 0.000030 
#    z -0.042620 0.000030 2.005640 
# 
# From -- ./inp_files/240824.got.cif
#   From: 2010.05.17/outbox.cif.g08.bks.cpg/sg15_121_cif.got.tgz:240824.got - 2010.06.03 18:47:42.
