data_PCOD9276946
_publ_section_title
;
Structure prediction by ZEFSAII (Michael W. Deem and Ramdas Pophale) SiO2 
 PCOD9276946
Probable space group: C 2/C
;
_chemical_formula_sum "Si O2"
_cell_formula_units_Z 40
_cell_length_a 17.199193
_cell_length_b 8.021433
_cell_length_c 32.949282
_cell_angle_alpha 90.000000
_cell_angle_beta 154.608527
_cell_angle_gamma 90.000000
_cell_volume 1949.222705
_symmetry_space_group_name_H-M "C 2/C"
_symmetry_group_IT_number 15
_symmetry_cell_setting 'monoclinic'
loop_
_space_group_symop_operation_xyz
x,y,z
-x,y,1/2-z
-x,-y,-z
x,-y,1/2+z
1/2+x,1/2+y,z
1/2-x,1/2+y,1/2-z
1/2-x,1/2-y,-z
1/2+x,1/2-y,1/2+z
loop_
_atom_site_type_symbol
_atom_site_label
_atom_site_fract_x
_atom_site_fract_y
_atom_site_fract_z
Si Si1 0.501790 0.078566 0.545422
Si Si2 0.099213 0.130242 0.756577
Si Si3 0.315637 0.580719 0.551698
Si Si4 0.693322 0.993154 0.835767
Si Si5 0.939627 0.968862 0.525574
O O1 0.704197 0.052277 0.657639
O O2 0.464542 0.276253 0.524824
O O3 0.500000 0.000000 0.500000
O O4 0.350824 0.000809 0.502986
O O5 0.138486 0.323575 0.786580
O O6 0.000000 0.059597 0.750000
O O7 0.971613 0.112489 0.658024
O O8 0.250000 0.750000 0.500000
O O9 0.388567 0.474308 0.548305
O O10 0.500000 0.086234 0.750000
O O11 0.782164 0.959560 0.922000
O O12 0.868426 0.060141 0.893601
#
# Coordination Sequence:
#
# PCOD9276946 Si02
#       5
#     8   8   8   8   8
#     4  11  24  43  67  94 134 176 218 274 330 400
#     4  10  20  40  66  93 131 172 220 266 332 396
#     4  12  25  41  69  99 135 174 223 280 334 386
#     4   9  19  39  68  92 128 170 213 264 329 395
#     4  10  23  41  66  97 134 170 220 275 327 393
#
# _framework density 20.521001999999999
#
# number of rings (size 3 to 8) (size 9 to 14) (size 15 to 20)
#    0.000    1.600    2.000    3.000    5.600    4.800 
#    3.600    0.000    0.000    0.000    0.000    0.000 
#    0.000    0.000    0.000    0.000    0.000    0.000 
#
# Total GULP energy -111653.771635 kJ/mol
# GULP energy per Si atom -5582.688582 kJ/mol
# Density = 2.047429 g / cm^3
# Si number density = 20.521002 Si / 1000 Ang^3
#
#
#
# Elastic Constant Matrix: (Units=GPa)
#
#
# Indices 1 2 3 4 5 6 
#
# 1 179.0118 33.5644 92.4157 -0.0004 -5.0370 0.0004
# 2 33.5644 59.4381 26.9907 -0.0010 -4.5151 0.0010
# 3 92.4157 26.9907 210.2573 -0.0001 4.9148 0.0001
# 4 -0.0004 -0.0010 -0.0001 21.4548 0.0003 -3.1410
# 5 -5.0370 -4.5151 4.9148 0.0003 43.1131 -0.0004
# 6 0.0004 0.0010 0.0001 -3.1410 -0.0004 32.9700
#
#
#
# Elastic Compliance Matrix: (Units=1/GPa)
#
#
# Indices 1 2 3 4 5 6 
#
# 1 0.007731 -0.002911 -0.003047 0.000000 0.000946 0.000000
# 2 -0.002911 0.019160 -0.001223 0.000001 0.001806 0.000000
# 3 -0.003047 -0.001223 0.006280 0.000000 -0.001200 0.000000
# 4 0.000000 0.000001 0.000000 0.047269 0.000000 0.004503
# 5 0.000946 0.001806 -0.001200 0.000000 0.023631 0.000000
# 6 0.000000 0.000000 0.000000 0.004503 0.000000 0.030760
#
#
# Mechanical properties :
#
#
# Convention : Reuss Voigt Hill
#
# Bulk Modulus (GPa) = 53.15698 83.84988 68.50343
# Shear Modulus (GPa) = 32.16222 39.22333 35.69278
#
# Velocity S-wave (km/s) = 3.96319 4.37667 4.17505
# Velocity P-wave (km/s) = 6.84853 8.15411 7.52967
#
# Compressibility (1/GPa) = 0.01881221
#
# Stress axis : x y z
#
# Youngs Moduli (GPa) = 129.34184 52.19171 159.23040
#
# Poissons Ratio (x) = 0.15191 0.48513
# Poissons Ratio (y) = 0.37646 0.19466
# Poissons Ratio (z) = 0.39407 0.06380
#
# Static dielectric constant tensor:
#      x y z
#    x 1.759170 0.000000 0.061560 
#    y 0.000000 1.770740 0.000000 
#    z 0.061560 0.000000 1.747820 
# 
# From -- ./inp_files/181274.got.cif
#   From: 2010.05.17/outbox.cif.g08.bks.cpg/sg15_91_cif.got.tgz:181274.got - 2010.06.03 18:47:42.
