data_PCOD9276143
_publ_section_title
;
Structure prediction by ZEFSAII (Michael W. Deem and Ramdas Pophale) SiO2 
 PCOD9276143
Probable space group: C 2/C
;
_chemical_formula_sum "Si O2"
_cell_formula_units_Z 64
_cell_length_a 17.230564
_cell_length_b 14.264993
_cell_length_c 13.849513
_cell_angle_alpha 90.000000
_cell_angle_beta 127.032230
_cell_angle_gamma 90.000000
_cell_volume 2717.502639
_symmetry_space_group_name_H-M "C 2/C"
_symmetry_group_IT_number 15
_symmetry_cell_setting 'monoclinic'
loop_
_space_group_symop_operation_xyz
x,y,z
-x,y,1/2-z
-x,-y,-z
x,-y,1/2+z
1/2+x,1/2+y,z
1/2-x,1/2+y,1/2-z
1/2-x,1/2-y,-z
1/2+x,1/2-y,1/2+z
loop_
_atom_site_type_symbol
_atom_site_label
_atom_site_fract_x
_atom_site_fract_y
_atom_site_fract_z
Si Si1 0.353757 0.477156 0.419285
Si Si2 0.543283 0.877465 0.375933
Si Si3 0.200830 0.504001 0.531960
Si Si4 0.164519 0.676499 0.361574
Si Si5 0.913304 0.947372 0.758739
Si Si6 0.982748 0.196909 0.045533
Si Si7 0.632166 0.012932 0.199035
Si Si8 0.880463 0.176632 0.526127
O O1 0.405563 0.496638 0.354589
O O2 0.398710 0.380615 0.487545
O O3 0.238610 0.478842 0.315343
O O4 0.376274 0.564391 0.507093
O O5 0.500000 0.828514 0.250000
O O6 0.640930 0.930963 0.423467
O O7 0.559929 0.797148 0.464183
O O8 0.460400 0.950395 0.345185
O O9 0.184914 0.603797 0.466986
O O10 0.310042 0.469169 0.632114
O O11 0.147120 0.493681 0.595055
O O12 0.117884 0.613728 0.241994
O O13 0.113272 0.768716 0.367247
O O14 0.272470 0.705757 0.408025
O O15 0.000000 0.970931 0.750000
O O16 0.936290 0.843357 0.818243
O O17 0.034705 0.205486 0.981660
#
# Coordination Sequence:
#
# PCOD9276143 Si02
#       8
#     8   8   8   8   8   8   8   8
#     4   9  21  41  69  99 139 185 223 285 353 414
#     4  12  25  44  66  99 135 188 240 284 338 412
#     4  11  24  42  69 100 138 183 225 288 350 413
#     4  10  20  39  69 101 135 175 230 282 349 413
#     4  10  22  38  66 100 132 179 229 279 349 412
#     4  11  23  41  66  99 145 185 229 285 344 413
#     4  10  22  43  68  97 139 185 227 290 352 410
#     4   9  19  37  67 101 132 179 218 289 341 407
#
# _framework density 23.551034999999999
#
# number of rings (size 3 to 8) (size 9 to 14) (size 15 to 20)
#    0.000    1.750    1.250    3.750    5.250    1.000 
#    0.000   10.625    0.000    7.500    0.000    0.000 
#    0.000    0.000    0.000    0.000    0.000    0.000 
#
# Total GULP energy -178699.495848 kJ/mol
# GULP energy per Si atom -5584.359245 kJ/mol
# Density = 2.349743 g / cm^3
# Si number density = 23.551035 Si / 1000 Ang^3
#
#
#
# Elastic Constant Matrix: (Units=GPa)
#
#
# Indices 1 2 3 4 5 6 
#
# 1 87.9410 17.3341 42.9474 0.0000 -16.1935 0.0000
# 2 17.3341 82.2953 31.1720 0.0000 5.8845 0.0000
# 3 42.9474 31.1720 66.7657 0.0000 3.8007 0.0000
# 4 0.0000 0.0000 0.0000 18.3343 0.0000 -5.4084
# 5 -16.1935 5.8845 3.8007 0.0000 35.4129 0.0000
# 6 0.0000 0.0000 0.0000 -5.4084 0.0000 34.1307
#
#
#
# Elastic Compliance Matrix: (Units=1/GPa)
#
#
# Indices 1 2 3 4 5 6 
#
# 1 0.019825 0.000159 -0.013424 0.000000 0.010480 0.000000
# 2 0.000159 0.014869 -0.006951 0.000000 -0.001652 0.000000
# 3 -0.013424 -0.006951 0.027308 0.000000 -0.007914 0.000000
# 4 0.000000 0.000000 0.000000 0.057217 0.000000 0.009067
# 5 0.010480 -0.001652 -0.007914 0.000000 0.034154 0.000000
# 6 0.000000 0.000000 0.000000 0.009067 0.000000 0.030736
#
#
# Mechanical properties :
#
#
# Convention : Reuss Voigt Hill
#
# Bulk Modulus (GPa) = 46.35509 46.65655 46.50582
# Shear Modulus (GPa) = 21.57684 27.27881 24.42783
#
# Velocity S-wave (km/s) = 3.03012 3.40705 3.22410
# Velocity P-wave (km/s) = 5.65400 5.94400 5.80081
#
# Compressibility (1/GPa) = 0.02157260
#
# Stress axis : x y z
#
# Youngs Moduli (GPa) = 50.44061 67.25577 36.61892
#
# Poissons Ratio (x) = -0.01072 0.49156
# Poissons Ratio (y) = -0.00804 0.25452
# Poissons Ratio (z) = 0.67710 0.46746
#
# Static dielectric constant tensor:
#      x y z
#    x 1.886800 0.000000 -0.050620 
#    y 0.000000 1.855690 0.000000 
#    z -0.050620 0.000000 2.013600 
# 
# From -- ./inp_files/162583.got.cif
#   From: 2010.05.17/outbox.cif.g08.bks.cpg/sg15_82_cif.got.tgz:162583.got - 2010.06.03 18:47:42.
