data_PCOD9276129
_publ_section_title
;
Structure prediction by ZEFSAII (Michael W. Deem and Ramdas Pophale) SiO2 
 PCOD9276129
Probable space group: C 2/C
;
_chemical_formula_sum "Si O2"
_cell_formula_units_Z 56
_cell_length_a 16.474398
_cell_length_b 7.946845
_cell_length_c 20.153870
_cell_angle_alpha 90.000000
_cell_angle_beta 58.865491
_cell_angle_gamma 90.000000
_cell_volume 2258.468824
_symmetry_space_group_name_H-M "C 2/C"
_symmetry_group_IT_number 15
_symmetry_cell_setting 'monoclinic'
loop_
_space_group_symop_operation_xyz
x,y,z
-x,y,1/2-z
-x,-y,-z
x,-y,1/2+z
1/2+x,1/2+y,z
1/2-x,1/2+y,1/2-z
1/2-x,1/2-y,-z
1/2+x,1/2-y,1/2+z
loop_
_atom_site_type_symbol
_atom_site_label
_atom_site_fract_x
_atom_site_fract_y
_atom_site_fract_z
Si Si1 0.752239 0.090701 0.280639
Si Si2 0.567126 0.463462 0.909657
Si Si3 0.617775 0.286264 0.257789
Si Si4 0.428535 0.364770 0.375087
Si Si5 0.724076 0.999057 0.995975
Si Si6 0.754524 0.171909 0.608694
Si Si7 0.098257 0.590038 0.938884
O O1 0.699324 0.151632 0.237219
O O2 0.832783 0.955666 0.234716
O O3 0.795604 0.240519 0.307326
O O4 0.668935 0.015657 0.362053
O O5 0.494055 0.487113 0.878345
O O6 0.653564 0.585261 0.898069
O O7 0.591620 0.267822 0.905474
O O8 0.500000 0.500000 0.000000
O O9 0.520348 0.235229 0.336806
O O10 0.598878 0.337336 0.190385
O O11 0.326223 0.412566 0.448089
O O12 0.723536 0.825894 0.952397
O O13 0.648586 0.111925 0.989229
O O14 0.702392 0.958560 0.081713
O O15 0.000000 0.500000 0.000000
#
# Coordination Sequence:
#
# PCOD9276129 Si02
#       7
#     8   8   8   8   8   8   8
#     4  11  24  47  68 100 134 186 238 279 349 415
#     4  12  23  41  71 104 139 182 227 288 367 414
#     4  11  25  43  73  93 142 189 231 287 332 423
#     4  11  23  41  72  98 139 183 236 280 349 404
#     4  10  21  42  69 101 143 174 230 290 351 412
#     4  10  20  39  68  97 134 177 220 286 349 405
#     4  11  26  42  70 105 142 175 231 298 355 419
#
# _framework density 24.795559000000001
#
# number of rings (size 3 to 8) (size 9 to 14) (size 15 to 20)
#    0.000    1.143    5.714    1.714    4.000    0.571 
#    0.000    0.000    6.286    0.000    0.000    0.000 
#    0.000    0.000    0.000    0.000    0.000    0.000 
#
# Total GULP energy -155910.686314 kJ/mol
# GULP energy per Si atom -5568.238797 kJ/mol
# Density = 2.473912 g / cm^3
# Si number density = 24.795559 Si / 1000 Ang^3
#
#
#
# Elastic Constant Matrix: (Units=GPa)
#
#
# Indices 1 2 3 4 5 6 
#
# 1 190.2920 50.3507 48.6116 0.0000 13.1230 0.0001
# 2 50.3507 60.5504 12.4254 0.0001 11.6764 0.0004
# 3 48.6116 12.4254 69.3711 0.0000 7.7843 0.0000
# 4 0.0000 0.0001 0.0000 33.9898 0.0000 6.9881
# 5 13.1230 11.6764 7.7843 0.0000 61.8435 0.0000
# 6 0.0001 0.0004 0.0000 6.9881 0.0000 26.3367
#
#
#
# Elastic Compliance Matrix: (Units=1/GPa)
#
#
# Indices 1 2 3 4 5 6 
#
# 1 0.007906 -0.005637 -0.004525 0.000000 -0.000044 0.000000
# 2 -0.005637 0.021690 0.000396 0.000000 -0.002949 0.000000
# 3 -0.004525 0.000396 0.017666 0.000000 -0.001338 0.000000
# 4 0.000000 0.000000 0.000000 0.031118 0.000000 -0.008257
# 5 -0.000044 -0.002949 -0.001338 0.000000 0.016904 0.000000
# 6 0.000000 0.000000 0.000000 -0.008257 0.000000 0.040161
#
#
# Mechanical properties :
#
#
# Convention : Reuss Voigt Hill
#
# Bulk Modulus (GPa) = 36.06380 60.33210 48.19795
# Shear Modulus (GPa) = 30.44706 38.35572 34.40139
#
# Velocity S-wave (km/s) = 3.50798 3.93730 3.72882
# Velocity P-wave (km/s) = 5.56632 6.71226 6.16597
#
# Compressibility (1/GPa) = 0.02772864
#
# Stress axis : x y z
#
# Youngs Moduli (GPa) = 126.49232 46.10433 56.60740
#
# Poissons Ratio (x) = 0.25988 0.25617
# Poissons Ratio (y) = 0.71302 -0.02241
# Poissons Ratio (z) = 0.57241 -0.01825
#
# Static dielectric constant tensor:
#      x y z
#    x 1.920520 0.000000 0.125720 
#    y 0.000000 5.016930 -0.000010 
#    z 0.125720 -0.000010 3.462740 
# 
# From -- ./inp_files/272650.got.cif
#   From: 2010.05.17/outbox.cif.g08.bks.cpg/sg15_137_cif.got.tgz:272650.got - 2010.06.03 18:47:42.
