data_PCOD9276060
_publ_section_title
;
Structure prediction by ZEFSAII (Michael W. Deem and Ramdas Pophale) SiO2 
 PCOD9276060
Probable space group: C 2/C
;
_chemical_formula_sum "Si O2"
_cell_formula_units_Z 44
_cell_length_a 8.020107
_cell_length_b 28.046130
_cell_length_c 9.626835
_cell_angle_alpha 90.000000
_cell_angle_beta 65.486238
_cell_angle_gamma 90.000000
_cell_volume 1970.207592
_symmetry_space_group_name_H-M "C 2/C"
_symmetry_group_IT_number 15
_symmetry_cell_setting 'monoclinic'
loop_
_space_group_symop_operation_xyz
x,y,z
-x,y,1/2-z
-x,-y,-z
x,-y,1/2+z
1/2+x,1/2+y,z
1/2-x,1/2+y,1/2-z
1/2-x,1/2-y,-z
1/2+x,1/2-y,1/2+z
loop_
_atom_site_type_symbol
_atom_site_label
_atom_site_fract_x
_atom_site_fract_y
_atom_site_fract_z
Si Si1 0.109805 0.977287 0.842209
Si Si2 0.524727 0.789241 0.400840
Si Si3 0.523617 0.103979 0.993152
Si Si4 0.279853 0.380844 0.664529
Si Si5 0.000000 0.472547 0.250000
Si Si6 0.691993 0.779916 0.752276
O O1 0.070682 0.920863 0.868198
O O2 0.000000 0.996456 0.750000
O O3 0.320911 0.993994 0.789104
O O4 0.000000 0.000000 0.000000
O O5 0.500000 0.773420 0.250000
O O6 0.526935 0.846058 0.410169
O O7 0.373756 0.773060 0.565965
O O8 0.723428 0.765366 0.354705
O O9 0.500529 0.061335 0.889013
O O10 0.359139 0.106202 0.161369
O O11 0.695052 0.107605 0.041410
O O12 0.321581 0.325404 0.676017
O O13 0.500000 0.795433 0.750000
#
# Coordination Sequence:
#
# PCOD9276060 Si02
#       6
#     8   8   8   8   4   8
#     4  12  27  46  70 106 136 177 241 284 346 430
#     4  11  22  40  62  96 135 170 227 281 330 415
#     4  10  20  39  67  95 124 183 230 262 353 422
#     4  10  21  41  65  90 134 178 224 281 338 416
#     4  12  24  44  74  96 144 182 214 304 354 390
#     4  11  22  40  66  95 133 182 226 275 347 412
#
# _framework density 22.332673
#
# number of rings (size 3 to 8) (size 9 to 14) (size 15 to 20)
#    0.000    1.091    4.545    4.364    0.000    2.909 
#    3.273    0.909    0.000    0.000    0.000    0.000 
#    0.000    0.000    0.000    0.000    0.000    0.000 
#
# Total GULP energy -122586.169351 kJ/mol
# GULP energy per Si atom -5572.098607 kJ/mol
# Density = 2.228184 g / cm^3
# Si number density = 22.332673 Si / 1000 Ang^3
#
#
#
# Elastic Constant Matrix: (Units=GPa)
#
#
# Indices 1 2 3 4 5 6 
#
# 1 69.5542 0.7895 27.5108 0.0000 11.7615 0.0000
# 2 0.7895 92.1648 22.0640 0.0000 -20.7214 0.0000
# 3 27.5108 22.0640 100.8542 0.0000 31.0005 0.0000
# 4 0.0000 0.0000 0.0000 7.9113 0.0000 -5.3946
# 5 11.7615 -20.7214 31.0005 0.0000 35.0957 0.0000
# 6 0.0000 0.0000 0.0000 -5.3946 0.0000 31.7691
#
#
#
# Elastic Compliance Matrix: (Units=1/GPa)
#
#
# Indices 1 2 3 4 5 6 
#
# 1 0.016241 0.000471 -0.004043 0.000000 -0.001593 0.000000
# 2 0.000471 0.017329 -0.009631 0.000000 0.018581 0.000000
# 3 -0.004043 -0.009631 0.019845 0.000000 -0.021860 0.000000
# 4 0.000000 0.000000 0.000000 0.142955 0.000000 0.024275
# 5 -0.001593 0.018581 -0.021860 0.000000 0.059308 0.000000
# 6 0.000000 0.000000 0.000000 0.024275 0.000000 0.035599
#
#
# Mechanical properties :
#
#
# Convention : Reuss Voigt Hill
#
# Bulk Modulus (GPa) = 37.02711 40.36687 38.69699
# Shear Modulus (GPa) = 15.30521 29.10248 22.20384
#
# Velocity S-wave (km/s) = 2.62072 3.61381 3.15656
# Velocity P-wave (km/s) = 5.07674 5.96048 5.53627
#
# Compressibility (1/GPa) = 0.02700724
#
# Stress axis : x y z
#
# Youngs Moduli (GPa) = 61.57405 57.70566 50.39142
#
# Poissons Ratio (x) = -0.02716 0.20375
# Poissons Ratio (y) = -0.02898 0.48532
# Poissons Ratio (z) = 0.24896 0.55576
#
# Static dielectric constant tensor:
#      x y z
#    x 1.986160 0.000000 0.023590 
#    y 0.000000 1.845660 0.000000 
#    z 0.023590 0.000000 1.792550 
# 
# From -- ./inp_files/25987.got.cif
#   From: 2010.05.17/outbox.cif.g08.bks.cpg/sg15_13_cif.got.tgz:25987.got - 2010.06.03 18:47:42.
