data_PCOD9276618
_publ_section_title
;
Structure prediction by ZEFSAII (Michael W. Deem and Ramdas Pophale) SiO2 
 PCOD9276618
Probable space group: C 2/C
;
_chemical_formula_sum "Si O2"
_cell_formula_units_Z 60
_cell_length_a 11.711511
_cell_length_b 31.210688
_cell_length_c 8.979626
_cell_angle_alpha 90.000000
_cell_angle_beta 109.115190
_cell_angle_gamma 90.000000
_cell_volume 3101.294177
_symmetry_space_group_name_H-M "C 2/C"
_symmetry_group_IT_number 15
_symmetry_cell_setting 'monoclinic'
loop_
_space_group_symop_operation_xyz
x,y,z
-x,y,1/2-z
-x,-y,-z
x,-y,1/2+z
1/2+x,1/2+y,z
1/2-x,1/2+y,1/2-z
1/2-x,1/2-y,-z
1/2+x,1/2-y,1/2+z
loop_
_atom_site_type_symbol
_atom_site_label
_atom_site_fract_x
_atom_site_fract_y
_atom_site_fract_z
Si Si1 0.823774 0.282852 0.129988
Si Si2 0.258500 0.873402 0.698396
Si Si3 0.038128 0.837183 0.438412
Si Si4 0.693378 0.369999 0.010510
Si Si5 0.128565 0.537680 0.224982
Si Si6 0.000000 0.321550 0.750000
Si Si7 0.054914 0.738677 0.539479
Si Si8 0.869546 0.551539 0.627450
O O1 0.764444 0.329039 0.104495
O O2 0.832527 0.264957 0.301132
O O3 0.949246 0.282258 0.093958
O O4 0.750000 0.250000 0.000000
O O5 0.171874 0.853988 0.535263
O O6 0.283183 0.923902 0.690310
O O7 0.389900 0.850757 0.760818
O O8 0.197222 0.866537 0.833152
O O9 0.029296 0.787916 0.490113
O O10 0.000000 0.838655 0.250000
O O11 0.941860 0.865970 0.487176
O O12 0.768533 0.411812 0.089897
O O13 0.167574 0.490840 0.297273
O O14 0.000000 0.545157 0.250000
O O15 0.114113 0.539831 0.040194
O O16 0.940461 0.290410 0.602954
O O17 0.000000 0.565530 0.750000
#
# Coordination Sequence:
#
# PCOD9276618 Si02
#       8
#     8   8   8   8   8   4   8   8
#     4  11  22  39  63  88 123 176 213 261 313 376
#     4  11  25  42  68  92 129 167 215 263 320 385
#     4  12  27  43  62  92 128 174 216 265 315 380
#     4  11  24  43  63  94 128 168 219 254 326 379
#     4  10  20  40  63  97 128 162 204 258 324 371
#     4  12  24  42  64  96 128 164 216 278 318 366
#     4  11  25  38  61  91 128 166 219 265 318 371
#     4  10  22  37  66  97 130 163 205 262 316 383
#
# _framework density 19.346761999999998
#
# number of rings (size 3 to 8) (size 9 to 14) (size 15 to 20)
#    0.000    1.067    4.000    2.800    5.600    2.667 
#    0.000    0.667    0.000    0.000    0.000    0.000 
#    0.000    0.000    0.000    0.000    0.000    0.000 
#
# Total GULP energy -167601.450366 kJ/mol
# GULP energy per Si atom -5586.715012 kJ/mol
# Density = 1.930273 g / cm^3
# Si number density = 19.346762 Si / 1000 Ang^3
#
#
#
# Elastic Constant Matrix: (Units=GPa)
#
#
# Indices 1 2 3 4 5 6 
#
# 1 55.1192 31.9777 22.0421 0.0000 3.3227 0.0000
# 2 31.9777 97.0387 47.0098 0.0000 8.7207 0.0000
# 3 22.0421 47.0098 127.5503 0.0000 10.2817 0.0000
# 4 0.0000 0.0000 0.0000 19.8710 0.0000 -4.4091
# 5 3.3227 8.7207 10.2817 0.0000 25.2859 0.0000
# 6 0.0000 0.0000 0.0000 -4.4091 0.0000 11.4863
#
#
#
# Elastic Compliance Matrix: (Units=1/GPa)
#
#
# Indices 1 2 3 4 5 6 
#
# 1 0.022639 -0.006771 -0.001412 0.000000 -0.000066 0.000000
# 2 -0.006771 0.014728 -0.004053 0.000000 -0.002542 0.000000
# 3 -0.001412 -0.004053 0.009770 0.000000 -0.002389 0.000000
# 4 0.000000 0.000000 0.000000 0.055010 0.000000 0.021116
# 5 -0.000066 -0.002542 -0.002389 0.000000 0.041405 0.000000
# 6 0.000000 0.000000 0.000000 0.021116 0.000000 0.095166
#
#
# Mechanical properties :
#
#
# Convention : Reuss Voigt Hill
#
# Bulk Modulus (GPa) = 44.11751 53.52973 48.82362
# Shear Modulus (GPa) = 18.46757 23.24053 20.85405
#
# Velocity S-wave (km/s) = 3.09294 3.46968 3.28671
# Velocity P-wave (km/s) = 5.96725 6.61666 6.30033
#
# Compressibility (1/GPa) = 0.02266674
#
# Stress axis : x y z
#
# Youngs Moduli (GPa) = 44.17168 67.89625 102.34892
#
# Poissons Ratio (x) = 0.45970 0.14448
# Poissons Ratio (y) = 0.29907 0.41486
# Poissons Ratio (z) = 0.06235 0.27521
#
# Static dielectric constant tensor:
#      x y z
#    x 1.629860 0.000000 0.025700 
#    y 0.000000 1.658690 0.000000 
#    z 0.025700 0.000000 1.708680 
# 
# From -- ./inp_files/35730.got.cif
#   From: 2010.05.17/outbox.cif.g08.bks.cpg/sg15_18_cif.got.tgz:35730.got - 2010.06.03 18:47:42.
