data_PCOD9276477
_publ_section_title
;
Structure prediction by ZEFSAII (Michael W. Deem and Ramdas Pophale) SiO2 
 PCOD9276477
Probable space group: C 2/C
;
_chemical_formula_sum "Si O2"
_cell_formula_units_Z 36
_cell_length_a 13.899750
_cell_length_b 7.614905
_cell_length_c 17.800165
_cell_angle_alpha 90.000000
_cell_angle_beta 112.415755
_cell_angle_gamma 90.000000
_cell_volume 1741.705831
_symmetry_space_group_name_H-M "C 2/C"
_symmetry_group_IT_number 15
_symmetry_cell_setting 'monoclinic'
loop_
_space_group_symop_operation_xyz
x,y,z
-x,y,1/2-z
-x,-y,-z
x,-y,1/2+z
1/2+x,1/2+y,z
1/2-x,1/2+y,1/2-z
1/2-x,1/2-y,-z
1/2+x,1/2-y,1/2+z
loop_
_atom_site_type_symbol
_atom_site_label
_atom_site_fract_x
_atom_site_fract_y
_atom_site_fract_z
Si Si1 0.913928 0.490835 0.589044
Si Si2 0.366159 0.051531 0.417508
Si Si3 0.500000 0.780276 0.250000
Si Si4 0.815429 0.957641 0.743424
Si Si5 0.761203 0.284009 0.640715
O O1 0.869081 0.602111 0.505538
O O2 0.944517 0.602188 0.670923
O O3 0.829818 0.350348 0.592516
O O4 0.022896 0.417233 0.588186
O O5 0.272967 0.121976 0.338750
O O6 0.336645 0.841238 0.409298
O O7 0.583118 0.658106 0.233793
O O8 0.774436 0.941227 0.815770
O O9 0.828165 0.152033 0.713802
#
# Coordination Sequence:
#
# PCOD9276477 Si02
#       5
#     8   8   4   8   8
#     4  11  20  39  67  87 122 166 210 258 321 362
#     4   9  22  38  62  92 121 162 212 257 315 376
#     4  12  22  38  58  90 122 170 210 256 312 390
#     4  10  22  38  58  91 125 160 213 253 311 380
#     4  10  20  40  62  89 123 163 202 261 309 370
#
# _framework density 20.669391999999998
#
# number of rings (size 3 to 8) (size 9 to 14) (size 15 to 20)
#    1.333    0.444    2.222    3.333    0.000    3.556 
#    0.000    0.000    0.000    5.333    0.000    0.000 
#    0.000    0.000    0.000    0.000    0.000    0.000 
#
# Total GULP energy -100283.398361 kJ/mol
# GULP energy per Si atom -5571.299909 kJ/mol
# Density = 2.062235 g / cm^3
# Si number density = 20.669392 Si / 1000 Ang^3
#
#
#
# Elastic Constant Matrix: (Units=GPa)
#
#
# Indices 1 2 3 4 5 6 
#
# 1 115.4719 21.2208 35.2053 0.0000 -17.6824 0.0000
# 2 21.2208 30.9823 0.9261 0.0000 -17.3254 0.0000
# 3 35.2053 0.9261 64.5773 0.0000 -24.8091 0.0000
# 4 0.0000 0.0000 0.0000 -4.1016 0.0000 5.7833
# 5 -17.6824 -17.3254 -24.8091 0.0000 36.4857 0.0000
# 6 0.0000 0.0000 0.0000 5.7833 0.0000 26.0782
#
#
#
# Elastic Compliance Matrix: (Units=1/GPa)
#
#
# Indices 1 2 3 4 5 6 
#
# 1 0.012580 -0.011224 -0.008667 0.000000 -0.005126 0.000000
# 2 -0.011224 0.059310 0.018948 0.000000 0.035608 0.000000
# 3 -0.008667 0.018948 0.029483 0.000000 0.024845 0.000000
# 4 0.000000 0.000000 0.000000 -0.185729 0.000000 0.041189
# 5 -0.005126 0.035608 0.024845 0.000000 0.058726 0.000000
# 6 0.000000 0.000000 0.000000 0.041189 0.000000 0.029212
#
#
# Mechanical properties :
#
#
# Convention : Reuss Voigt Hill
#
# Bulk Modulus (GPa) = 10.05138 36.19287 23.12212
# Shear Modulus (GPa) = 129.43438 21.93774 75.68606
#
# Velocity S-wave (km/s) = 7.92195 3.26139 6.05780
# Velocity P-wave (km/s) = 9.41009 5.63299 7.75501
#
# Compressibility (1/GPa) = 0.09948886
#
# Stress axis : x y z
#
# Youngs Moduli (GPa) = 79.49064 16.86058 33.91763
#
# Poissons Ratio (x) = 0.18924 0.29395
# Poissons Ratio (y) = 0.89219 -0.64268
# Poissons Ratio (z) = 0.68891 -0.31948
#
# Static dielectric constant tensor:
#      x y z
#    x 1.732000 0.000000 0.019730 
#    y 0.000000 1.745490 0.000000 
#    z 0.019730 0.000000 1.757080 
# 
# From -- ./inp_files/176820.got.cif
#   From: 2010.05.17/outbox.cif.g08.bks.cpg/sg15_89_cif.got.tgz:176820.got - 2010.06.03 18:47:42.
