data_PCOD9276309
_publ_section_title
;
Structure prediction by ZEFSAII (Michael W. Deem and Ramdas Pophale) SiO2 
 PCOD9276309
Probable space group: C 2/C
;
_chemical_formula_sum "Si O2"
_cell_formula_units_Z 52
_cell_length_a 15.385284
_cell_length_b 29.923055
_cell_length_c 9.171183
_cell_angle_alpha 90.000000
_cell_angle_beta 40.998129
_cell_angle_gamma 90.000000
_cell_volume 2769.895658
_symmetry_space_group_name_H-M "C 2/C"
_symmetry_group_IT_number 15
_symmetry_cell_setting 'monoclinic'
loop_
_space_group_symop_operation_xyz
x,y,z
-x,y,1/2-z
-x,-y,-z
x,-y,1/2+z
1/2+x,1/2+y,z
1/2-x,1/2+y,1/2-z
1/2-x,1/2-y,-z
1/2+x,1/2-y,1/2+z
loop_
_atom_site_type_symbol
_atom_site_label
_atom_site_fract_x
_atom_site_fract_y
_atom_site_fract_z
Si Si1 0.620131 0.193026 0.699681
Si Si2 0.062565 0.864771 0.328144
Si Si3 0.635664 0.046725 0.862720
Si Si4 0.871027 0.356445 0.004398
Si Si5 0.000000 0.523688 0.750000
Si Si6 0.946332 0.956666 0.981615
Si Si7 0.088133 0.799131 0.777317
O O1 0.500000 0.176904 0.750000
O O2 0.633308 0.169249 0.837330
O O3 0.759183 0.187430 0.439232
O O4 0.592187 0.245270 0.771128
O O5 0.222011 0.855174 0.124307
O O6 0.034305 0.909452 0.459251
O O7 0.000000 0.872818 0.250000
O O8 0.984379 0.822914 0.497302
O O9 0.603933 0.092269 0.985355
O O10 0.588326 0.050289 0.754483
O O11 0.790143 0.038268 0.665184
O O12 0.577515 0.007617 0.037663
O O13 0.000000 0.340697 0.750000
O O14 0.000000 0.954505 0.750000
O O15 0.000000 0.000000 0.000000
O O16 0.000000 0.813079 0.750000
#
# Coordination Sequence:
#
# PCOD9276309 Si02
#       7
#     8   8   8   8   4   8   8
#     4  10  23  39  68  95 122 161 207 257 318 376
#     4  11  25  42  65  91 127 173 211 260 316 374
#     4  10  22  39  60  87 120 159 199 249 303 362
#     4  11  24  43  59  93 130 162 207 262 308 373
#     4  10  20  40  60  84 118 162 200 242 302 364
#     4  11  23  41  63  93 123 161 209 260 308 369
#     4  10  20  44  65  92 125 160 209 261 311 380
#
# _framework density 18.77327
#
# number of rings (size 3 to 8) (size 9 to 14) (size 15 to 20)
#    0.000    1.538    2.308    1.846    5.385    1.846 
#    2.769    1.538    0.000    0.000    0.000    0.000 
#    0.000    0.000    0.000    0.000    0.000    0.000 
#
# Total GULP energy -145003.339982 kJ/mol
# GULP energy per Si atom -5577.051538 kJ/mol
# Density = 1.873054 g / cm^3
# Si number density = 18.773270 Si / 1000 Ang^3
#
#
#
# Elastic Constant Matrix: (Units=GPa)
#
#
# Indices 1 2 3 4 5 6 
#
# 1 156.1909 27.3632 53.7360 0.0000 -0.8291 0.0000
# 2 27.3632 28.1673 33.8860 0.0000 -11.5320 0.0000
# 3 53.7360 33.8860 101.3565 0.0000 7.8411 0.0000
# 4 0.0000 0.0000 0.0000 0.7046 0.0000 2.2813
# 5 -0.8291 -11.5320 7.8411 0.0000 22.7733 0.0000
# 6 0.0000 0.0000 0.0000 2.2813 0.0000 23.9950
#
#
#
# Elastic Compliance Matrix: (Units=1/GPa)
#
#
# Indices 1 2 3 4 5 6 
#
# 1 0.008222 -0.006549 -0.001989 0.000000 -0.002332 0.000000
# 2 -0.006549 0.133400 -0.047602 0.000000 0.083703 0.000000
# 3 -0.001989 -0.047602 0.029491 0.000000 -0.034331 0.000000
# 4 0.000000 0.000000 0.000000 2.050221 0.000000 -0.194921
# 5 -0.002332 0.083703 -0.034331 0.000000 0.098032 0.000000
# 6 0.000000 0.000000 0.000000 -0.194921 0.000000 0.060207
#
#
# Mechanical properties :
#
#
# Convention : Reuss Voigt Hill
#
# Bulk Modulus (GPa) = 16.99748 57.29835 37.14792
# Shear Modulus (GPa) = 1.99087 20.87656 11.43372
#
# Velocity S-wave (km/s) = 1.03091 3.33834 2.47056
# Velocity P-wave (km/s) = 3.23895 6.74143 5.28856
#
# Compressibility (1/GPa) = 0.05883225
#
# Stress axis : x y z
#
# Youngs Moduli (GPa) = 121.63014 7.49627 33.90851
#
# Poissons Ratio (x) = 0.04909 0.06744
# Poissons Ratio (y) = 0.79656 1.61412
# Poissons Ratio (z) = 0.24191 0.35684
#
# Static dielectric constant tensor:
#      x y z
#    x 1.640760 0.000000 -0.029290 
#    y 0.000000 1.689640 0.000000 
#    z -0.029290 0.000000 1.611440 
# 
# From -- ./inp_files/34094.got.cif
#   From: 2010.05.17/outbox.cif.g08.bks.cpg/sg15_18_cif.got.tgz:34094.got - 2010.06.03 18:47:42.
