data_PCOD9276207
_publ_section_title
;
Structure prediction by ZEFSAII (Michael W. Deem and Ramdas Pophale) SiO2 
 PCOD9276207
Probable space group: C 2/C
;
_chemical_formula_sum "Si O2"
_cell_formula_units_Z 40
_cell_length_a 16.025946
_cell_length_b 15.935122
_cell_length_c 11.146004
_cell_angle_alpha 90.000000
_cell_angle_beta 31.348788
_cell_angle_gamma 90.000000
_cell_volume 1480.837602
_symmetry_space_group_name_H-M "C 2/C"
_symmetry_group_IT_number 15
_symmetry_cell_setting 'monoclinic'
loop_
_space_group_symop_operation_xyz
x,y,z
-x,y,1/2-z
-x,-y,-z
x,-y,1/2+z
1/2+x,1/2+y,z
1/2-x,1/2+y,1/2-z
1/2-x,1/2-y,-z
1/2+x,1/2-y,1/2+z
loop_
_atom_site_type_symbol
_atom_site_label
_atom_site_fract_x
_atom_site_fract_y
_atom_site_fract_z
Si Si1 0.833661 0.959599 0.780890
Si Si2 0.472820 0.887024 0.451283
Si Si3 0.155029 0.284815 0.502680
Si Si4 0.482232 0.698256 0.496514
Si Si5 0.753148 0.016531 0.122356
O O1 0.645734 0.930263 0.998293
O O2 0.928804 0.873687 0.684871
O O3 0.164771 0.020325 0.607188
O O4 0.631839 0.907583 0.800344
O O5 0.484960 0.787739 0.426364
O O6 0.638760 0.935063 0.261847
O O7 0.135670 0.986841 0.895575
O O8 0.250000 0.250000 0.500000
O O9 0.299184 0.326305 0.251221
O O10 0.000000 0.329818 0.750000
O O11 0.078719 0.216852 0.503038
#
# Coordination Sequence:
#
# PCOD9276207 Si02
#       5
#     8   8   8   8   8
#     4  10  20  39  71 107 148 196 268 317 376 465
#     4   9  20  36  66 107 145 198 260 314 381 455
#     4   9  19  36  59 101 147 190 231 317 376 444
#     4  11  19  39  65 118 142 189 260 329 373 447
#     4   9  20  40  62 109 145 214 251 310 387 468
#
# _framework density 27.011742000000002
#
# number of rings (size 3 to 8) (size 9 to 14) (size 15 to 20)
#    1.200    1.200    2.000    0.600    0.000    0.800 
#   14.400    0.000    0.000    1.200   52.000    0.000 
#    0.000    0.000    0.000    0.000    0.000    0.000 
#
# Total GULP energy -111835.509606 kJ/mol
# GULP energy per Si atom -5591.775480 kJ/mol
# Density = 2.695026 g / cm^3
# Si number density = 27.011742 Si / 1000 Ang^3
#
#
#
# Elastic Constant Matrix: (Units=GPa)
#
#
# Indices 1 2 3 4 5 6 
#
# 1 163.8924 25.3471 27.6685 0.0000 -4.1291 0.0000
# 2 25.3471 81.9157 -5.8958 0.0001 9.8605 0.0000
# 3 27.6685 -5.8958 134.5354 0.0002 6.5451 0.0000
# 4 0.0000 0.0001 0.0002 4.1346 -0.0001 -18.7889
# 5 -4.1291 9.8605 6.5451 -0.0001 42.2784 0.0001
# 6 0.0000 0.0000 0.0000 -18.7889 0.0001 13.0813
#
#
#
# Elastic Compliance Matrix: (Units=1/GPa)
#
#
# Indices 1 2 3 4 5 6 
#
# 1 0.006772 -0.002384 -0.001568 0.000000 0.001460 0.000000
# 2 -0.002384 0.013465 0.001254 0.000000 -0.003567 0.000000
# 3 -0.001568 0.001254 0.007892 0.000000 -0.001667 0.000000
# 4 0.000000 0.000000 0.000000 -0.043759 0.000000 -0.062852
# 5 0.001460 -0.003567 -0.001667 0.000000 0.024885 0.000000
# 6 0.000000 0.000000 0.000000 -0.062852 0.000000 -0.013831
#
#
# Mechanical properties :
#
#
# Convention : Reuss Voigt Hill
#
# Bulk Modulus (GPa) = 43.99122 52.73146 48.36134
# Shear Modulus (GPa) = 595.44605 34.11379 314.77992
#
# Velocity S-wave (km/s) = 14.86332 3.55762 10.80682
# Velocity P-wave (km/s) = 17.63176 6.03652 13.17799
#
# Compressibility (1/GPa) = 0.02273181
#
# Stress axis : x y z
#
# Youngs Moduli (GPa) = 147.67121 74.26647 126.71754
#
# Poissons Ratio (x) = 0.17705 0.19872
# Poissons Ratio (y) = 0.35205 -0.15889
# Poissons Ratio (z) = 0.23158 -0.09312
#
# Static dielectric constant tensor:
#      x y z
#    x 2.147760 0.000000 0.029950 
#    y 0.000000 2.059940 0.000000 
#    z 0.029950 0.000000 2.175170 
# 
# From -- ./inp_files/65679.got.cif
#   From: 2010.05.17/outbox.cif.g08.bks.cpg/sg15_33_cif.got.tgz:65679.got - 2010.06.03 18:47:42.
