data_PCOD9276017
_publ_section_title
;
Structure prediction by ZEFSAII (Michael W. Deem and Ramdas Pophale) SiO2 
 PCOD9276017
Probable space group: C 2/C
;
_chemical_formula_sum "Si O2"
_cell_formula_units_Z 28
_cell_length_a 13.793228
_cell_length_b 12.032907
_cell_length_c 11.543951
_cell_angle_alpha 90.000000
_cell_angle_beta 142.737980
_cell_angle_gamma 90.000000
_cell_volume 1160.051046
_symmetry_space_group_name_H-M "C 2/C"
_symmetry_group_IT_number 15
_symmetry_cell_setting 'monoclinic'
loop_
_space_group_symop_operation_xyz
x,y,z
-x,y,1/2-z
-x,-y,-z
x,-y,1/2+z
1/2+x,1/2+y,z
1/2-x,1/2+y,1/2-z
1/2-x,1/2-y,-z
1/2+x,1/2-y,1/2+z
loop_
_atom_site_type_symbol
_atom_site_label
_atom_site_fract_x
_atom_site_fract_y
_atom_site_fract_z
Si Si1 0.736381 0.894378 0.427422
Si Si2 0.391728 0.293873 0.055612
Si Si3 0.000000 0.586807 0.250000
Si Si4 0.909929 0.178638 0.313476
O O1 0.647774 0.011420 0.350582
O O2 0.781478 0.874414 0.604723
O O3 0.613857 0.807144 0.250509
O O4 0.910613 0.869570 0.535180
O O5 0.500000 0.363025 0.250000
O O6 0.475786 0.172748 0.120312
O O7 0.250000 0.250000 0.000000
O O8 0.368493 0.339789 0.907547
#
# Coordination Sequence:
#
# PCOD9276017 Si02
#       4
#     8   8   4   8
#     4  10  20  39  67 101 123 170 219 274 310 379
#     4  10  23  44  64  90 134 179 205 259 336 392
#     4  10  24  42  64 100 132 158 224 268 324 370
#     4  10  20  39  70  90 133 171 216 255 334 384
#
# _framework density 24.136869999999998
#
# number of rings (size 3 to 8) (size 9 to 14) (size 15 to 20)
#    0.857    1.143    0.000    5.143    0.000    1.143 
#   10.286    1.429    0.000    5.143    0.000    0.000 
#    0.000    0.000    0.000    0.000    0.000    0.000 
#
# Total GULP energy -77960.008194 kJ/mol
# GULP energy per Si atom -5568.572014 kJ/mol
# Density = 2.408193 g / cm^3
# Si number density = 24.136870 Si / 1000 Ang^3
#
#
#
# Elastic Constant Matrix: (Units=GPa)
#
#
# Indices 1 2 3 4 5 6 
#
# 1 164.0350 5.6149 100.5606 0.0000 -27.0833 0.0000
# 2 5.6149 58.1632 -3.5243 0.0000 1.6570 0.0000
# 3 100.5606 -3.5243 100.1509 0.0000 -18.1311 0.0000
# 4 0.0000 0.0000 0.0000 46.2103 0.0000 65.6019
# 5 -27.0833 1.6570 -18.1311 0.0000 52.4161 0.0000
# 6 0.0000 0.0000 0.0000 65.6019 0.0000 98.4187
#
#
#
# Elastic Compliance Matrix: (Units=1/GPa)
#
#
# Indices 1 2 3 4 5 6 
#
# 1 0.016679 -0.002684 -0.016286 0.000000 0.003069 0.000000
# 2 -0.002684 0.017668 0.003163 0.000000 -0.000851 0.000000
# 3 -0.016286 0.003163 0.026571 0.000000 0.000676 0.000000
# 4 0.000000 0.000000 0.000000 0.402774 0.000000 -0.268473
# 5 0.003069 -0.000851 0.000676 0.000000 0.020925 0.000000
# 6 0.000000 0.000000 0.000000 -0.268473 0.000000 0.189114
#
#
# Mechanical properties :
#
#
# Convention : Reuss Voigt Hill
#
# Bulk Modulus (GPa) = 34.12562 58.62795 46.37678
# Shear Modulus (GPa) = 6.99190 54.05553 30.52371
#
# Velocity S-wave (km/s) = 1.70384 4.73751 3.55999
# Velocity P-wave (km/s) = 4.24733 7.36667 6.01281
#
# Compressibility (1/GPa) = 0.02930350
#
# Stress axis : x y z
#
# Youngs Moduli (GPa) = 59.95595 56.59927 37.63468
#
# Poissons Ratio (x) = 0.15194 0.61292
# Poissons Ratio (y) = 0.16095 -0.11904
# Poissons Ratio (z) = 0.97644 -0.17902
#
# Static dielectric constant tensor:
#      x y z
#    x 2.010120 0.000000 0.201000 
#    y 0.000000 2.069380 0.000000 
#    z 0.201000 0.000000 2.126040 
# 
# From -- ./inp_files/37085.got.cif
#   From: 2010.05.17/outbox.cif.g08.bks.cpg/sg15_19_cif.got.tgz:37085.got - 2010.06.03 18:47:42.
