data_PCOD9276080
_publ_section_title
;
Structure prediction by ZEFSAII (Michael W. Deem and Ramdas Pophale) SiO2 
 PCOD9276080
Probable space group: C 2/C
;
_chemical_formula_sum "Si O2"
_cell_formula_units_Z 32
_cell_length_a 11.412773
_cell_length_b 12.191603
_cell_length_c 25.854025
_cell_angle_alpha 90.000000
_cell_angle_beta 24.851933
_cell_angle_gamma 90.000000
_cell_volume 1511.866432
_symmetry_space_group_name_H-M "C 2/C"
_symmetry_group_IT_number 15
_symmetry_cell_setting 'monoclinic'
loop_
_space_group_symop_operation_xyz
x,y,z
-x,y,1/2-z
-x,-y,-z
x,-y,1/2+z
1/2+x,1/2+y,z
1/2-x,1/2+y,1/2-z
1/2-x,1/2-y,-z
1/2+x,1/2-y,1/2+z
loop_
_atom_site_type_symbol
_atom_site_label
_atom_site_fract_x
_atom_site_fract_y
_atom_site_fract_z
Si Si1 0.262101 0.767307 0.182827
Si Si2 0.465874 0.345813 0.404461
Si Si3 0.768016 0.569485 0.876863
Si Si4 0.755734 0.093613 0.497385
O O1 0.117012 0.818834 0.290928
O O2 0.044596 0.837535 0.879553
O O3 0.000000 0.745846 0.250000
O O4 0.503322 0.852102 0.065966
O O5 0.666740 0.344810 0.374440
O O6 0.250000 0.250000 0.500000
O O7 0.324525 0.466703 0.459350
O O8 0.000000 0.506913 0.750000
O O9 0.852300 0.607439 0.899833
O O10 0.500000 0.500000 0.000000
#
# Coordination Sequence:
#
# PCOD9276080 Si02
#       4
#     8   8   8   8
#     4  11  24  44  67  95 139 179 216 275 341 398
#     4  11  24  39  69 101 130 172 229 275 339 402
#     4  10  20  39  67  98 127 169 223 281 327 387
#     4  10  24  43  68  97 134 177 226 275 335 401
#
# _framework density 21.165890000000001
#
# number of rings (size 3 to 8) (size 9 to 14) (size 15 to 20)
#    0.000    1.500    2.500    1.500    3.500    7.000 
#    0.000    1.250    0.000    0.000    0.000    0.000 
#    0.000    0.000    0.000    0.000    0.000    0.000 
#
# Total GULP energy -89133.907221 kJ/mol
# GULP energy per Si atom -5570.869201 kJ/mol
# Density = 2.111772 g / cm^3
# Si number density = 21.165890 Si / 1000 Ang^3
#
#
#
# Elastic Constant Matrix: (Units=GPa)
#
#
# Indices 1 2 3 4 5 6 
#
# 1 80.7432 37.1361 55.5974 0.0003 -11.6703 0.0019
# 2 37.1361 166.9658 75.0644 -0.0069 -15.2711 -0.0025
# 3 55.5974 75.0644 148.4227 -0.0015 -15.7634 0.0273
# 4 0.0003 -0.0069 -0.0015 25.5406 0.0025 -18.2616
# 5 -11.6703 -15.2711 -15.7634 0.0025 48.8533 -0.0028
# 6 0.0019 -0.0025 0.0273 -18.2616 -0.0028 12.9700
#
#
#
# Elastic Compliance Matrix: (Units=1/GPa)
#
#
# Indices 1 2 3 4 5 6 
#
# 1 0.017037 -0.001083 -0.005631 -0.000860 0.001914 -0.001202
# 2 -0.001083 0.007889 -0.003468 -0.001252 0.001088 -0.001753
# 3 -0.005631 -0.003468 0.010709 0.002403 0.001026 0.003361
# 4 -0.000860 -0.001252 0.002403 -5.825521 0.000010 -8.202287
# 5 0.001914 0.001088 0.001026 0.000010 0.021598 0.000016
# 6 -0.001202 -0.001753 0.003361 -8.202287 0.000016-11.471654
#
#
# Mechanical properties :
#
#
# Convention : Reuss Voigt Hill
#
# Bulk Modulus (GPa) = 65.48201 81.30305 73.39253
# Shear Modulus (GPa) = -0.29045 32.69503 16.20229
#
# Velocity S-wave (km/s) = -0.37084 3.93454 2.76975
# Velocity P-wave (km/s) = 5.55169 7.69002 6.70663
#
# Compressibility (1/GPa) = 0.01527137
#
# Stress axis : x y z
#
# Youngs Moduli (GPa) = 58.69654 126.76220 93.37823
#
# Poissons Ratio (x) = 0.13726 0.52578
# Poissons Ratio (y) = 0.06356 0.32386
# Poissons Ratio (z) = 0.33050 0.43964
#
# Static dielectric constant tensor:
#      x y z
#    x 1.872090 -0.000010 -0.070010 
#    y -0.000010 1.805980 0.000000 
#    z -0.070010 0.000000 1.872090 
# 
# From -- ./inp_files/132952.got.cif
#   From: 2010.05.17/outbox.cif.g08.bks.cpg/sg15_67_cif.got.tgz:132952.got - 2010.06.03 18:47:42.
