data_PCOD9276265
_publ_section_title
;
Structure prediction by ZEFSAII (Michael W. Deem and Ramdas Pophale) SiO2 
 PCOD9276265
Probable space group: C 2/C
;
_chemical_formula_sum "Si O2"
_cell_formula_units_Z 60
_cell_length_a 5.581752
_cell_length_b 20.562093
_cell_length_c 19.853603
_cell_angle_alpha 90.000000
_cell_angle_beta 97.291927
_cell_angle_gamma 90.000000
_cell_volume 2260.218788
_symmetry_space_group_name_H-M "C 2/C"
_symmetry_group_IT_number 15
_symmetry_cell_setting 'monoclinic'
loop_
_space_group_symop_operation_xyz
x,y,z
-x,y,1/2-z
-x,-y,-z
x,-y,1/2+z
1/2+x,1/2+y,z
1/2-x,1/2+y,1/2-z
1/2-x,1/2-y,-z
1/2+x,1/2-y,1/2+z
loop_
_atom_site_type_symbol
_atom_site_label
_atom_site_fract_x
_atom_site_fract_y
_atom_site_fract_z
Si Si1 0.189376 0.964125 0.958126
Si Si2 0.685875 0.272830 0.399008
Si Si3 0.756922 0.073554 0.821288
Si Si4 0.218407 0.070777 0.157002
Si Si5 0.500000 0.673079 0.750000
Si Si6 0.194549 0.589157 0.599665
Si Si7 0.566770 0.849948 0.576408
Si Si8 0.987662 0.805040 0.680140
O O1 0.359884 0.023515 0.942848
O O2 0.299069 0.892414 0.976415
O O3 0.035225 0.945513 0.886695
O O4 0.000000 0.000000 0.000000
O O5 0.552205 0.288346 0.321421
O O6 0.753977 0.341714 0.433358
O O7 0.544560 0.221316 0.439638
O O8 0.919399 0.235552 0.379843
O O9 0.782913 0.123213 0.760612
O O10 0.542138 0.095984 0.862337
O O11 0.031950 0.077082 0.860943
O O12 0.707966 0.996901 0.806281
O O13 0.381667 0.097704 0.101813
O O14 0.171304 0.134512 0.199582
O O15 0.737068 0.832807 0.646238
O O16 0.000000 0.766095 0.750000
#
# Coordination Sequence:
#
# PCOD9276265 Si02
#       8
#     8   8   8   8   4   8   8   8
#     4  10  21  41  68  92 116 161 214 267 336 399
#     4  10  22  35  57  84 122 165 208 250 312 370
#     4  10  21  38  58  88 127 160 208 253 312 365
#     4   9  20  38  56  89 122 160 199 267 317 369
#     4  10  22  36  60  90 120 174 212 246 300 384
#     4  10  22  39  61  89 125 159 200 268 320 369
#     4  10  20  40  58  84 125 160 208 263 318 370
#     4  10  21  33  57  83 121 167 212 243 297 375
#
# _framework density 26.546102000000001
#
# number of rings (size 3 to 8) (size 9 to 14) (size 15 to 20)
#    0.000    2.133    1.333    0.800    6.533    3.733 
#    0.000    3.333    0.000    7.200    0.000    0.000 
#    0.000    0.000    0.000    0.000    0.000    0.000 
#
# Total GULP energy -167367.480094 kJ/mol
# GULP energy per Si atom -5578.916003 kJ/mol
# Density = 2.648568 g / cm^3
# Si number density = 26.546102 Si / 1000 Ang^3
#
#
#
# Elastic Constant Matrix: (Units=GPa)
#
#
# Indices 1 2 3 4 5 6 
#
# 1 83.7082 51.7596 20.0601 0.0000 -10.2143 0.0000
# 2 51.7596 217.1054 15.9048 0.0000 -11.3416 0.0000
# 3 20.0601 15.9048 47.8332 0.0000 6.7382 0.0000
# 4 0.0000 0.0000 0.0000 18.7826 0.0000 0.2664
# 5 -10.2143 -11.3416 6.7382 0.0000 48.9595 0.0000
# 6 0.0000 0.0000 0.0000 0.2664 0.0000 37.8174
#
#
#
# Elastic Compliance Matrix: (Units=1/GPa)
#
#
# Indices 1 2 3 4 5 6 
#
# 1 0.015745 -0.003134 -0.006038 0.000000 0.003390 0.000000
# 2 -0.003134 0.005432 -0.000588 0.000000 0.000685 0.000000
# 3 -0.006038 -0.000588 0.024302 0.000000 -0.004741 0.000000
# 4 0.000000 0.000000 0.000000 0.053246 0.000000 -0.000375
# 5 0.003390 0.000685 -0.004741 0.000000 0.021943 0.000000
# 6 0.000000 0.000000 0.000000 -0.000375 0.000000 0.026445
#
#
# Mechanical properties :
#
#
# Convention : Reuss Voigt Hill
#
# Bulk Modulus (GPa) = 38.52544 58.23285 48.37914
# Shear Modulus (GPa) = 28.52438 38.50672 33.51555
#
# Velocity S-wave (km/s) = 3.28155 3.81275 3.55708
# Velocity P-wave (km/s) = 5.37608 6.43171 5.92744
#
# Compressibility (1/GPa) = 0.02595688
#
# Stress axis : x y z
#
# Youngs Moduli (GPa) = 63.51219 184.08734 41.14919
#
# Poissons Ratio (x) = 0.57698 0.24848
# Poissons Ratio (y) = 0.19906 0.02421
# Poissons Ratio (z) = 0.38351 0.10831
#
# Static dielectric constant tensor:
#      x y z
#    x 2.234840 0.000000 0.117590 
#    y 0.000000 2.147290 0.000000 
#    z 0.117590 0.000000 2.297560 
# 
# From -- ./inp_files/261387.got.cif
#   From: 2010.05.17/outbox.cif.g08.bks.cpg/sg15_131_cif.got.tgz:261387.got - 2010.06.03 18:47:42.
