data_PCOD9276202
_publ_section_title
;
Structure prediction by ZEFSAII (Michael W. Deem and Ramdas Pophale) SiO2 
 PCOD9276202
Probable space group: C 2/C
;
_chemical_formula_sum "Si O2"
_cell_formula_units_Z 48
_cell_length_a 24.656148
_cell_length_b 16.460803
_cell_length_c 14.335554
_cell_angle_alpha 90.000000
_cell_angle_beta 18.749591
_cell_angle_gamma 90.000000
_cell_volume 1870.168728
_symmetry_space_group_name_H-M "C 2/C"
_symmetry_group_IT_number 15
_symmetry_cell_setting 'monoclinic'
loop_
_space_group_symop_operation_xyz
x,y,z
-x,y,1/2-z
-x,-y,-z
x,-y,1/2+z
1/2+x,1/2+y,z
1/2-x,1/2+y,1/2-z
1/2-x,1/2-y,-z
1/2+x,1/2-y,1/2+z
loop_
_atom_site_type_symbol
_atom_site_label
_atom_site_fract_x
_atom_site_fract_y
_atom_site_fract_z
Si Si1 0.592168 0.706470 0.698285
Si Si2 0.382620 0.569000 0.577052
Si Si3 0.015595 0.240213 0.320201
Si Si4 0.389787 0.799480 0.154973
Si Si5 0.197242 0.965569 0.075153
Si Si6 0.045144 0.541584 0.066864
O O1 0.500000 0.732862 0.750000
O O2 0.750000 0.750000 0.500000
O O3 0.659550 0.615277 0.578743
O O4 0.437314 0.716270 0.024050
O O5 0.390316 0.664005 0.536943
O O6 0.565131 0.533061 0.262405
O O7 0.343512 0.560535 0.750724
O O8 0.241436 0.518486 0.750389
O O9 0.997757 0.298011 0.435817
O O10 0.000000 0.288076 0.250000
O O11 0.201846 0.201734 0.002279
O O12 0.444774 0.869541 0.996010
O O13 0.388610 0.998407 0.768287
O O14 0.000000 0.546546 0.250000
#
# Coordination Sequence:
#
# PCOD9276202 Si02
#       6
#     8   8   8   8   8   8
#     4  12  26  42  71 104 143 172 227 300 350 408
#     4  10  21  42  67  95 138 181 224 279 348 417
#     4  11  23  38  65  91 135 181 218 275 339 414
#     4  11  23  38  63 102 129 175 227 272 341 414
#     4  10  22  41  68 100 134 177 231 286 343 408
#     4  10  20  39  70  99 130 180 226 284 350 412
#
# _framework density 25.666132999999999
#
# number of rings (size 3 to 8) (size 9 to 14) (size 15 to 20)
#    0.000    1.333    5.000    0.500    4.667    0.667 
#    0.000    2.500    0.000    0.000    0.000    0.000 
#    0.000    0.000    0.000    0.000    0.000    0.000 
#
# Total GULP energy -133929.404102 kJ/mol
# GULP energy per Si atom -5580.391838 kJ/mol
# Density = 2.560772 g / cm^3
# Si number density = 25.666133 Si / 1000 Ang^3
#
#
#
# Elastic Constant Matrix: (Units=GPa)
#
#
# Indices 1 2 3 4 5 6 
#
# 1 128.4829 8.7801 39.6030 -0.0001 -13.0836 0.0001
# 2 8.7801 24.4830 17.7000 -0.0027 -11.3414 0.0001
# 3 39.6030 17.7000 152.8163 -0.0030 -28.3296 0.0005
# 4 -0.0001 -0.0027 -0.0030 28.2899 -0.0001 -0.2109
# 5 -13.0836 -11.3414 -28.3296 -0.0001 55.7251 0.0002
# 6 0.0001 0.0001 0.0005 -0.2109 0.0002 17.0284
#
#
#
# Elastic Compliance Matrix: (Units=1/GPa)
#
#
# Indices 1 2 3 4 5 6 
#
# 1 0.008543 -0.001324 -0.001920 0.000000 0.000760 0.000000
# 2 -0.001324 0.047496 -0.003780 0.000004 0.007434 0.000000
# 3 -0.001920 -0.003780 0.008008 0.000000 0.002851 0.000000
# 4 0.000000 0.000004 0.000000 0.035352 0.000001 0.000438
# 5 0.000760 0.007434 0.002851 0.000001 0.021086 0.000000
# 6 0.000000 0.000000 0.000000 0.000438 0.000000 0.058731
#
#
# Mechanical properties :
#
#
# Convention : Reuss Voigt Hill
#
# Bulk Modulus (GPa) = 20.00010 48.66092 34.33051
# Shear Modulus (GPa) = 23.81772 36.18862 30.00317
#
# Velocity S-wave (km/s) = 3.04959 3.75904 3.42274
# Velocity P-wave (km/s) = 4.49547 6.15149 5.38749
#
# Compressibility (1/GPa) = 0.04999976
#
# Stress axis : x y z
#
# Youngs Moduli (GPa) = 117.05883 21.05446 124.88113
#
# Poissons Ratio (x) = 0.02787 0.23972
# Poissons Ratio (y) = 0.15493 0.47206
# Poissons Ratio (z) = 0.22471 0.07959
#
# Static dielectric constant tensor:
#      x y z
#    x 2.074820 0.000000 -0.092300 
#    y 0.000000 1.952700 0.000000 
#    z -0.092300 0.000000 2.094400 
# 
# From -- ./inp_files/174500.got.cif
#   From: 2010.05.17/outbox.cif.g08.bks.cpg/sg15_88_cif.got.tgz:174500.got - 2010.06.03 18:47:42.
