data_PCOD9276571
_publ_section_title
;
Structure prediction by ZEFSAII (Michael W. Deem and Ramdas Pophale) SiO2 
 PCOD9276571
Probable space group: C 2/C
;
_chemical_formula_sum "Si O2"
_cell_formula_units_Z 64
_cell_length_a 31.669596
_cell_length_b 9.049636
_cell_length_c 14.785491
_cell_angle_alpha 90.000000
_cell_angle_beta 46.156729
_cell_angle_gamma 90.000000
_cell_volume 3056.240771
_symmetry_space_group_name_H-M "C 2/C"
_symmetry_group_IT_number 15
_symmetry_cell_setting 'monoclinic'
loop_
_space_group_symop_operation_xyz
x,y,z
-x,y,1/2-z
-x,-y,-z
x,-y,1/2+z
1/2+x,1/2+y,z
1/2-x,1/2+y,1/2-z
1/2-x,1/2-y,-z
1/2+x,1/2-y,1/2+z
loop_
_atom_site_type_symbol
_atom_site_label
_atom_site_fract_x
_atom_site_fract_y
_atom_site_fract_z
Si Si1 0.889190 0.315784 0.179890
Si Si2 0.669516 0.741401 0.406612
Si Si3 0.215222 0.117626 0.093996
Si Si4 0.515339 0.724675 0.020777
Si Si5 0.478891 0.436793 0.179905
Si Si6 0.240209 0.472686 0.781614
Si Si7 0.847285 0.144102 0.877763
Si Si8 0.139558 0.642965 0.309314
O O1 0.884309 0.277123 0.079602
O O2 0.846500 0.191084 0.283977
O O3 0.865347 0.480837 0.228033
O O4 0.954511 0.311014 0.120599
O O5 0.697529 0.579611 0.350684
O O6 0.655846 0.751608 0.532026
O O7 0.718715 0.859607 0.303132
O O8 0.251127 0.060699 0.126436
O O9 0.203326 0.977894 0.048454
O O10 0.250000 0.250000 0.000000
O O11 0.509782 0.586271 0.097648
O O12 0.513794 0.670533 0.917982
O O13 0.575789 0.812445 0.942889
O O14 0.500000 0.396718 0.250000
O O15 0.408636 0.442632 0.292010
O O16 0.189139 0.376306 0.811145
O O17 0.844312 0.234933 0.789031
#
# Coordination Sequence:
#
# PCOD9276571 Si02
#       8
#     8   8   8   8   8   8   8   8
#     4  10  21  43  61  92 124 162 203 250 317 367
#     4  10  23  39  65  87 128 162 204 256 304 371
#     4  11  25  39  62  86 124 162 202 255 302 365
#     4  10  20  40  63  89 125 163 204 261 308 376
#     4  10  21  38  62  94 123 160 210 255 313 370
#     4  10  23  41  56  92 121 163 205 245 314 364
#     4  11  23  41  64  94 118 166 207 255 308 370
#     4  10  23  39  65  89 123 161 204 255 310 363
#
# _framework density 20.940759
#
# number of rings (size 3 to 8) (size 9 to 14) (size 15 to 20)
#    0.000    1.750    1.250    1.875    7.000    2.000 
#    0.000    0.000    0.000    1.500    0.000    0.000 
#    0.000    0.000    0.000    0.000    0.000    0.000 
#
# Total GULP energy -178553.683387 kJ/mol
# GULP energy per Si atom -5579.802606 kJ/mol
# Density = 2.089310 g / cm^3
# Si number density = 20.940759 Si / 1000 Ang^3
#
#
#
# Elastic Constant Matrix: (Units=GPa)
#
#
# Indices 1 2 3 4 5 6 
#
# 1 71.8607 16.5238 11.8513 0.0000 0.4369 0.0000
# 2 16.5238 51.4642 -0.5676 0.0000 -5.1693 -0.0001
# 3 11.8513 -0.5676 31.8913 0.0000 6.7920 0.0000
# 4 0.0000 0.0000 0.0000 24.4121 0.0000 -6.7340
# 5 0.4369 -5.1693 6.7920 0.0000 30.3115 0.0000
# 6 0.0000 -0.0001 0.0000 -6.7340 0.0000 25.0735
#
#
#
# Elastic Compliance Matrix: (Units=1/GPa)
#
#
# Indices 1 2 3 4 5 6 
#
# 1 0.016127 -0.005220 -0.006140 0.000000 0.000253 0.000000
# 2 -0.005220 0.021464 0.001603 0.000000 0.003377 0.000000
# 3 -0.006140 0.001603 0.035273 0.000000 -0.007542 0.000000
# 4 0.000000 0.000000 0.000000 0.044241 0.000000 0.011882
# 5 0.000253 0.003377 -0.007542 0.000000 0.035253 0.000000
# 6 0.000000 0.000000 0.000000 0.011882 0.000000 0.043074
#
#
# Mechanical properties :
#
#
# Convention : Reuss Voigt Hill
#
# Bulk Modulus (GPa) = 18.74440 23.42571 21.08506
# Shear Modulus (GPa) = 21.48414 24.45333 22.96873
#
# Velocity S-wave (km/s) = 3.20652 3.42093 3.31546
# Velocity P-wave (km/s) = 4.76231 5.17828 4.97465
#
# Compressibility (1/GPa) = 0.05334926
#
# Stress axis : x y z
#
# Youngs Moduli (GPa) = 62.00684 46.58979 28.35030
#
# Poissons Ratio (x) = 0.24321 0.17407
# Poissons Ratio (y) = 0.32370 -0.04544
# Poissons Ratio (z) = 0.38072 -0.07468
#
# Static dielectric constant tensor:
#      x y z
#    x 1.752170 0.000000 -0.007010 
#    y 0.000000 1.789250 0.000000 
#    z -0.007010 0.000000 1.777290 
# 
# From -- ./inp_files/181123.got.cif
#   From: 2010.05.17/outbox.cif.g08.bks.cpg/sg15_91_cif.got.tgz:181123.got - 2010.06.03 18:47:42.
