data_PCOD9276819
_publ_section_title
;
Structure prediction by ZEFSAII (Michael W. Deem and Ramdas Pophale) SiO2 
 PCOD9276819
Probable space group: C 2/C
;
_chemical_formula_sum "Si O2"
_cell_formula_units_Z 48
_cell_length_a 9.030902
_cell_length_b 27.654437
_cell_length_c 15.157875
_cell_angle_alpha 90.000000
_cell_angle_beta 36.586872
_cell_angle_gamma 90.000000
_cell_volume 2256.370136
_symmetry_space_group_name_H-M "C 2/C"
_symmetry_group_IT_number 15
_symmetry_cell_setting 'monoclinic'
loop_
_space_group_symop_operation_xyz
x,y,z
-x,y,1/2-z
-x,-y,-z
x,-y,1/2+z
1/2+x,1/2+y,z
1/2-x,1/2+y,1/2-z
1/2-x,1/2-y,-z
1/2+x,1/2-y,1/2+z
loop_
_atom_site_type_symbol
_atom_site_label
_atom_site_fract_x
_atom_site_fract_y
_atom_site_fract_z
Si Si1 0.078243 0.883781 0.949866
Si Si2 0.739536 0.093540 0.824723
Si Si3 0.236314 0.685916 0.698460
Si Si4 0.229203 0.968408 0.356320
Si Si5 0.497093 0.224396 0.147397
Si Si6 0.490843 0.884120 0.612296
O O1 0.238917 0.893115 0.786359
O O2 0.272521 0.895271 0.936741
O O3 0.969322 0.831162 0.025438
O O4 0.835227 0.917494 0.065602
O O5 0.703816 0.141977 0.783562
O O6 0.761478 0.047421 0.750221
O O7 0.000000 0.100033 0.750000
O O8 0.533094 0.090088 0.999444
O O9 0.291217 0.736079 0.721164
O O10 0.000000 0.690330 0.750000
O O11 0.500000 0.988228 0.250000
O O12 0.000000 0.000000 0.500000
O O13 0.500000 0.212879 0.250000
O O14 0.486270 0.173787 0.101678
O O15 0.750000 0.250000 0.000000
#
# Coordination Sequence:
#
# PCOD9276819 Si02
#       6
#     8   8   8   8   8   8
#     4  10  20  40  65  91 133 173 222 269 346 387
#     4  11  20  41  70  98 128 181 232 270 336 407
#     4  11  22  38  59  91 141 187 227 287 339 383
#     4  11  26  47  73 102 135 170 208 276 349 421
#     4  12  20  36  59  94 128 180 246 282 321 385
#     4  11  20  36  67  96 125 181 228 280 321 398
#
# _framework density 21.273105999999999
#
# number of rings (size 3 to 8) (size 9 to 14) (size 15 to 20)
#    0.000    1.000    6.667    3.500    2.333    0.000 
#    0.000   15.833    0.000    0.000    0.000    0.000 
#    0.000    0.000    0.000    0.000    0.000    0.000 
#
# Total GULP energy -134013.991947 kJ/mol
# GULP energy per Si atom -5583.916331 kJ/mol
# Density = 2.122469 g / cm^3
# Si number density = 21.273106 Si / 1000 Ang^3
#
#
#
# Elastic Constant Matrix: (Units=GPa)
#
#
# Indices 1 2 3 4 5 6 
#
# 1 95.7657 23.0941 39.0113 0.0000 0.5306 0.0000
# 2 23.0941 61.4838 18.3226 0.0000 8.1747 0.0000
# 3 39.0113 18.3226 165.7632 0.0000 19.6387 0.0000
# 4 0.0000 0.0000 0.0000 29.2422 0.0000 4.1415
# 5 0.5306 8.1747 19.6387 0.0000 36.4843 0.0000
# 6 0.0000 0.0000 0.0000 4.1415 0.0000 11.6224
#
#
#
# Elastic Compliance Matrix: (Units=1/GPa)
#
#
# Indices 1 2 3 4 5 6 
#
# 1 0.012565 -0.004196 -0.002759 0.000000 0.002242 0.000000
# 2 -0.004196 0.018523 -0.000615 0.000000 -0.003758 0.000000
# 3 -0.002759 -0.000615 0.007187 0.000000 -0.003691 0.000000
# 4 0.000000 0.000000 0.000000 0.036015 0.000000 -0.012833
# 5 0.002242 -0.003758 -0.003691 0.000000 0.030205 0.000000
# 6 0.000000 0.000000 0.000000 -0.012833 0.000000 0.090614
#
#
# Mechanical properties :
#
#
# Convention : Reuss Voigt Hill
#
# Bulk Modulus (GPa) = 43.22093 53.76317 48.49205
# Shear Modulus (GPa) = 22.93988 31.64211 27.29099
#
# Velocity S-wave (km/s) = 3.28739 3.86090 3.58563
# Velocity P-wave (km/s) = 5.89665 6.72332 6.32351
#
# Compressibility (1/GPa) = 0.02313694
#
# Stress axis : x y z
#
# Youngs Moduli (GPa) = 79.58315 53.98606 139.13498
#
# Poissons Ratio (x) = 0.22651 0.38389
# Poissons Ratio (y) = 0.33390 0.08554
# Poissons Ratio (z) = 0.21958 0.03319
#
# Static dielectric constant tensor:
#      x y z
#    x 1.760900 0.000000 0.003680 
#    y 0.000000 1.833780 0.000000 
#    z 0.003680 0.000000 1.812560 
# 
# From -- ./inp_files/139360.got.cif
#   From: 2010.05.17/outbox.cif.g08.bks.cpg/sg15_70_cif.got.tgz:139360.got - 2010.06.03 18:47:42.
