data_PCOD9276383
_publ_section_title
;
Structure prediction by ZEFSAII (Michael W. Deem and Ramdas Pophale) SiO2 
 PCOD9276383
Probable space group: C 2/C
;
_chemical_formula_sum "Si O2"
_cell_formula_units_Z 60
_cell_length_a 13.910836
_cell_length_b 22.562398
_cell_length_c 10.215266
_cell_angle_alpha 90.000000
_cell_angle_beta 73.223371
_cell_angle_gamma 90.000000
_cell_volume 3069.718246
_symmetry_space_group_name_H-M "C 2/C"
_symmetry_group_IT_number 15
_symmetry_cell_setting 'monoclinic'
loop_
_space_group_symop_operation_xyz
x,y,z
-x,y,1/2-z
-x,-y,-z
x,-y,1/2+z
1/2+x,1/2+y,z
1/2-x,1/2+y,1/2-z
1/2-x,1/2-y,-z
1/2+x,1/2-y,1/2+z
loop_
_atom_site_type_symbol
_atom_site_label
_atom_site_fract_x
_atom_site_fract_y
_atom_site_fract_z
Si Si1 0.357510 0.105257 0.016649
Si Si2 0.823941 0.153410 0.588424
Si Si3 0.500000 0.900596 0.250000
Si Si4 0.146660 0.281336 0.579959
Si Si5 0.926508 0.271520 0.595000
Si Si6 0.322936 0.876553 0.134559
Si Si7 0.392831 0.528549 0.518082
Si Si8 0.239104 0.006167 0.184909
O O1 0.415559 0.163289 0.040139
O O2 0.313472 0.061865 0.142768
O O3 0.263372 0.132823 0.975477
O O4 0.428867 0.069338 0.887025
O O5 0.868981 0.217928 0.546366
O O6 0.773578 0.150821 0.752370
O O7 0.900952 0.099025 0.543110
O O8 0.416676 0.866536 0.196300
O O9 0.250000 0.250000 0.500000
O O10 0.123843 0.278634 0.742218
O O11 0.157055 0.346258 0.511469
O O12 0.043948 0.255053 0.558906
O O13 0.300781 0.946137 0.133146
O O14 0.500000 0.500000 0.500000
O O15 0.345755 0.515666 0.393906
O O16 0.314043 0.502883 0.655158
#
# Coordination Sequence:
#
# PCOD9276383 Si02
#       8
#     8   8   4   8   8   8   8   8
#     4  10  21  39  62  89 121 157 206 255 305 376
#     4   9  20  39  62  85 117 162 204 249 309 378
#     4  10  20  40  62  82 120 166 206 240 318 382
#     4  11  23  39  58  87 125 157 207 253 301 372
#     4  11  22  39  60  90 122 161 203 253 310 364
#     4  10  20  40  61  86 121 165 202 255 314 372
#     4  10  21  41  64  90 126 166 213 260 316 376
#     4  10  23  39  63  94 125 163 209 261 318 373
#
# _framework density 19.545767999999999
#
# number of rings (size 3 to 8) (size 9 to 14) (size 15 to 20)
#    0.000    1.867    2.667    1.600    1.867    1.600 
#    2.400    0.000    2.933    0.000    0.000    0.000 
#    0.000    0.000    0.000    0.000    0.000    0.000 
#
# Total GULP energy -167151.413462 kJ/mol
# GULP energy per Si atom -5571.713782 kJ/mol
# Density = 1.950128 g / cm^3
# Si number density = 19.545768 Si / 1000 Ang^3
#
#
#
# Elastic Constant Matrix: (Units=GPa)
#
#
# Indices 1 2 3 4 5 6 
#
# 1 64.3616 23.1399 4.1592 0.0000 -17.7271 0.0000
# 2 23.1399 85.5370 11.9992 0.0000 -12.4867 0.0000
# 3 4.1592 11.9992 35.1223 0.0000 -12.2023 0.0000
# 4 0.0000 0.0000 0.0000 23.2600 0.0000 -5.9788
# 5 -17.7271 -12.4867 -12.2023 0.0000 28.8365 0.0000
# 6 0.0000 0.0000 0.0000 -5.9788 0.0000 22.0335
#
#
#
# Elastic Compliance Matrix: (Units=1/GPa)
#
#
# Indices 1 2 3 4 5 6 
#
# 1 0.020101 -0.004145 0.003172 0.000000 0.011904 0.000000
# 2 -0.004145 0.013573 -0.003505 0.000000 0.001846 0.000000
# 3 0.003172 -0.003505 0.034519 0.000000 0.015039 0.000000
# 4 0.000000 0.000000 0.000000 0.046216 0.000000 0.012541
# 5 0.011904 0.001846 0.015039 0.000000 0.049159 0.000000
# 6 0.000000 0.000000 0.000000 0.012541 0.000000 0.048788
#
#
# Mechanical properties :
#
#
# Convention : Reuss Voigt Hill
#
# Bulk Modulus (GPa) = 16.88148 29.29082 23.08615
# Shear Modulus (GPa) = 20.74182 24.54087 22.64134
#
# Velocity S-wave (km/s) = 3.26113 3.54723 3.40718
# Velocity P-wave (km/s) = 4.77866 5.63874 5.22642
#
# Compressibility (1/GPa) = 0.05923651
#
# Stress axis : x y z
#
# Youngs Moduli (GPa) = 49.74794 73.67367 28.96992
#
# Poissons Ratio (x) = 0.30538 -0.09188
# Poissons Ratio (y) = 0.20621 0.10154
# Poissons Ratio (z) = -0.15778 0.25822
#
# Static dielectric constant tensor:
#      x y z
#    x 1.710880 0.000000 0.004420 
#    y 0.000000 1.697840 0.000000 
#    z 0.004420 0.000000 1.694270 
# 
# From -- ./inp_files/99761.got.cif
#   From: 2010.05.17/outbox.cif.g08.bks.cpg/sg15_50_cif.got.tgz:99761.got - 2010.06.03 18:47:42.
