data_PCOD9276934
_publ_section_title
;
Structure prediction by ZEFSAII (Michael W. Deem and Ramdas Pophale) SiO2 
 PCOD9276934
Probable space group: C 2/C
;
_chemical_formula_sum "Si O2"
_cell_formula_units_Z 64
_cell_length_a 27.918499
_cell_length_b 5.541590
_cell_length_c 31.527532
_cell_angle_alpha 90.000000
_cell_angle_beta 143.167942
_cell_angle_gamma 90.000000
_cell_volume 2924.051332
_symmetry_space_group_name_H-M "C 2/C"
_symmetry_group_IT_number 15
_symmetry_cell_setting 'monoclinic'
loop_
_space_group_symop_operation_xyz
x,y,z
-x,y,1/2-z
-x,-y,-z
x,-y,1/2+z
1/2+x,1/2+y,z
1/2-x,1/2+y,1/2-z
1/2-x,1/2-y,-z
1/2+x,1/2-y,1/2+z
loop_
_atom_site_type_symbol
_atom_site_label
_atom_site_fract_x
_atom_site_fract_y
_atom_site_fract_z
Si Si1 0.439073 0.994993 0.745058
Si Si2 0.534522 0.717550 0.154089
Si Si3 0.582710 0.997043 0.532949
Si Si4 0.833892 0.899477 0.211067
Si Si5 0.361335 0.152807 0.843919
Si Si6 0.604210 0.495757 0.994744
Si Si7 0.735025 0.791304 0.382747
Si Si8 0.735322 0.499967 0.188309
O O1 0.500000 0.976460 0.750000
O O2 0.481131 0.124657 0.815180
O O3 0.355959 0.128341 0.672668
O O4 0.403829 0.745522 0.737051
O O5 0.616268 0.585706 0.225460
O O6 0.563267 0.873874 0.133686
O O7 0.464234 0.538390 0.089641
O O8 0.639946 0.993788 0.614939
O O9 0.596303 0.244835 0.514090
O O10 0.500000 0.000000 0.500000
O O11 0.588960 0.745894 0.512402
O O12 0.785560 0.735632 0.209081
O O13 0.775361 0.005122 0.132851
O O14 0.351573 0.420950 0.856857
O O15 0.284312 0.116350 0.760599
O O16 0.694472 0.428144 0.042213
O O17 0.757493 0.866355 0.350782
#
# Coordination Sequence:
#
# PCOD9276934 Si02
#       8
#     8   8   8   8   8   8   8   8
#     4  10  23  46  73 102 128 165 230 303 367 425
#     4  11  24  41  66  94 135 176 225 283 343 416
#     4  12  27  41  62  93 144 201 239 274 327 400
#     4  10  20  40  66  92 126 173 229 281 354 406
#     4  12  22  37  58  91 133 181 232 280 327 402
#     4  12  27  44  66  98 146 193 235 283 340 416
#     4  10  22  43  63  96 132 179 224 284 350 415
#     4  11  22  35  55  90 128 175 231 283 326 391
#
# _framework density 21.887440000000002
#
# number of rings (size 3 to 8) (size 9 to 14) (size 15 to 20)
#    0.000    1.000    6.250    1.875    7.000    2.000 
#    0.000    0.625    0.000    1.500    0.000    0.000 
#    0.000    0.000    0.000    0.000    0.000    0.000 
#
# Total GULP energy -178215.041220 kJ/mol
# GULP energy per Si atom -5569.220038 kJ/mol
# Density = 2.183762 g / cm^3
# Si number density = 21.887440 Si / 1000 Ang^3
#
#
#
# Elastic Constant Matrix: (Units=GPa)
#
#
# Indices 1 2 3 4 5 6 
#
# 1 136.4934 31.1908 10.1950 -0.0004 6.6754 -0.0057
# 2 31.1908 83.3484 1.4492 0.0072 -2.4076 0.0120
# 3 10.1950 1.4492 70.2308 0.0081 10.3917 -0.0186
# 4 -0.0004 0.0072 0.0081 24.1305 -0.0018 5.9660
# 5 6.6754 -2.4076 10.3917 -0.0018 24.4912 -0.0082
# 6 -0.0057 0.0120 -0.0186 5.9660 -0.0082 15.3049
#
#
#
# Elastic Compliance Matrix: (Units=1/GPa)
#
#
# Indices 1 2 3 4 5 6 
#
# 1 0.008207 -0.003121 -0.000801 0.000000 -0.002204 0.000003
# 2 -0.003121 0.013232 -0.000148 -0.000001 0.002214 -0.000010
# 3 -0.000801 -0.000148 0.015288 -0.000010 -0.006283 0.000019
# 4 0.000000 -0.000001 -0.000010 0.045861 0.000002 -0.017877
# 5 -0.002204 0.002214 -0.006283 0.000002 0.044315 0.000013
# 6 0.000003 -0.000010 0.000019 -0.017877 0.000013 0.072307
#
#
# Mechanical properties :
#
#
# Convention : Reuss Voigt Hill
#
# Bulk Modulus (GPa) = 34.97948 41.74918 38.36433
# Shear Modulus (GPa) = 23.05431 29.26784 26.16107
#
# Velocity S-wave (km/s) = 3.24900 3.66074 3.46100
# Velocity P-wave (km/s) = 5.48552 6.08144 5.79115
#
# Compressibility (1/GPa) = 0.02858819
#
# Stress axis : x y z
#
# Youngs Moduli (GPa) = 121.84458 75.57250 65.41194
#
# Poissons Ratio (x) = 0.23587 0.05239
# Poissons Ratio (y) = 0.38028 0.00965
# Poissons Ratio (z) = 0.09758 0.01115
#
# Static dielectric constant tensor:
#      x y z
#    x 1.768010 -0.000050 0.041200 
#    y -0.000050 1.977950 0.000010 
#    z 0.041200 0.000010 1.934430 
# 
# From -- ./inp_files/319328.got.cif
#   From: 2010.05.17/outbox.cif.g08.bks.cpg/sg15_160_cif.got.tgz:319328.got - 2010.06.03 18:47:42.
