data_PCOD9276745
_publ_section_title
;
Structure prediction by ZEFSAII (Michael W. Deem and Ramdas Pophale) SiO2 
 PCOD9276745
Probable space group: C 2/C
;
_chemical_formula_sum "Si O2"
_cell_formula_units_Z 60
_cell_length_a 17.612809
_cell_length_b 10.470635
_cell_length_c 19.668183
_cell_angle_alpha 90.000000
_cell_angle_beta 48.895614
_cell_angle_gamma 90.000000
_cell_volume 2733.107256
_symmetry_space_group_name_H-M "C 2/C"
_symmetry_group_IT_number 15
_symmetry_cell_setting 'monoclinic'
loop_
_space_group_symop_operation_xyz
x,y,z
-x,y,1/2-z
-x,-y,-z
x,-y,1/2+z
1/2+x,1/2+y,z
1/2-x,1/2+y,1/2-z
1/2-x,1/2-y,-z
1/2+x,1/2-y,1/2+z
loop_
_atom_site_type_symbol
_atom_site_label
_atom_site_fract_x
_atom_site_fract_y
_atom_site_fract_z
Si Si1 0.868901 0.710936 0.519707
Si Si2 0.704412 0.096920 0.799823
Si Si3 0.403699 0.622897 0.341874
Si Si4 0.169799 0.134606 0.567256
Si Si5 0.644602 0.193949 0.530489
Si Si6 0.498347 0.972730 0.628440
Si Si7 0.500000 0.788878 0.750000
Si Si8 0.745029 0.813570 0.831467
O O1 0.817263 0.682322 0.620707
O O2 0.875798 0.851330 0.482611
O O3 0.786987 0.665872 0.511506
O O4 0.966840 0.624735 0.451620
O O5 0.762480 0.192700 0.714542
O O6 0.594965 0.060148 0.835545
O O7 0.747927 0.955805 0.795210
O O8 0.500000 0.564090 0.250000
O O9 0.332911 0.510804 0.407777
O O10 0.431233 0.703775 0.391915
O O11 0.346797 0.701268 0.316497
O O12 0.092918 0.209042 0.663480
O O13 0.750000 0.250000 0.500000
O O14 0.659678 0.187168 0.440800
O O15 0.595488 0.062086 0.584679
O O16 0.467213 0.882275 0.708661
#
# Coordination Sequence:
#
# PCOD9276745 Si02
#       8
#     8   8   8   8   8   8   4   8
#     4  10  21  40  65  90 126 173 214 269 328 387
#     4  12  25  43  66  95 142 172 223 274 343 413
#     4  11  21  40  67  93 129 163 220 274 330 387
#     4  10  20  40  64  95 131 167 217 274 326 390
#     4  10  22  40  64  90 124 166 219 274 324 386
#     4  11  23  41  66  96 126 175 225 272 325 407
#     4  10  24  36  66 102 130 172 230 274 326 396
#     4  11  26  43  63  97 130 182 216 275 341 402
#
# _framework density 21.953035
#
# number of rings (size 3 to 8) (size 9 to 14) (size 15 to 20)
#    0.000    1.333    3.333    2.000    6.533    1.067 
#    0.000    0.000    0.000    3.200    0.000    0.000 
#    0.000    0.000    0.000    0.000    0.000    0.000 
#
# Total GULP energy -167002.718969 kJ/mol
# GULP energy per Si atom -5566.757299 kJ/mol
# Density = 2.190307 g / cm^3
# Si number density = 21.953035 Si / 1000 Ang^3
#
#
#
# Elastic Constant Matrix: (Units=GPa)
#
#
# Indices 1 2 3 4 5 6 
#
# 1 40.0789 21.6841 12.5742 0.0000 1.2065 0.0000
# 2 21.6841 63.0386 43.3084 0.0000 21.3819 0.0000
# 3 12.5742 43.3084 90.6533 0.0000 12.8716 0.0000
# 4 0.0000 0.0000 0.0000 24.5911 0.0000 2.3690
# 5 1.2065 21.3819 12.8716 0.0000 25.4870 0.0000
# 6 0.0000 0.0000 0.0000 2.3690 0.0000 30.9955
#
#
#
# Elastic Compliance Matrix: (Units=1/GPa)
#
#
# Indices 1 2 3 4 5 6 
#
# 1 0.032890 -0.016221 0.001590 0.000000 0.011249 0.000000
# 2 -0.016221 0.038731 -0.012656 0.000000 -0.025333 0.000000
# 3 0.001590 -0.012656 0.016546 0.000000 0.002186 0.000000
# 4 0.000000 0.000000 0.000000 0.040967 0.000000 -0.003131
# 5 0.011249 -0.025333 0.002186 0.000000 0.058852 0.000000
# 6 0.000000 0.000000 0.000000 -0.003131 0.000000 0.032502
#
#
# Mechanical properties :
#
#
# Convention : Reuss Voigt Hill
#
# Bulk Modulus (GPa) = 29.76860 38.76713 34.26786
# Shear Modulus (GPa) = 17.46669 23.96165 20.71417
#
# Velocity S-wave (km/s) = 2.82377 3.30736 3.07509
# Velocity P-wave (km/s) = 4.92150 5.68175 5.31524
#
# Compressibility (1/GPa) = 0.03359244
#
# Stress axis : x y z
#
# Youngs Moduli (GPa) = 30.40483 25.81928 60.43627
#
# Poissons Ratio (x) = 0.41882 -0.09612
# Poissons Ratio (y) = 0.49321 0.76489
# Poissons Ratio (z) = -0.04836 0.32677
#
# Static dielectric constant tensor:
#      x y z
#    x 1.839190 0.000000 0.010530 
#    y 0.000000 2.093910 0.000000 
#    z 0.010530 0.000000 1.877150 
# 
# From -- ./inp_files/210608.got.cif
#   From: 2010.05.17/outbox.cif.g08.bks.cpg/sg15_106_cif.got.tgz:210608.got - 2010.06.03 18:47:42.
