data_PCOD9276051
_publ_section_title
;
Structure prediction by ZEFSAII (Michael W. Deem and Ramdas Pophale) SiO2 
 PCOD9276051
Probable space group: C 2/C
;
_chemical_formula_sum "Si O2"
_cell_formula_units_Z 48
_cell_length_a 22.933047
_cell_length_b 7.254496
_cell_length_c 21.854775
_cell_angle_alpha 90.000000
_cell_angle_beta 31.570664
_cell_angle_gamma 90.000000
_cell_volume 1903.589491
_symmetry_space_group_name_H-M "C 2/C"
_symmetry_group_IT_number 15
_symmetry_cell_setting 'monoclinic'
loop_
_space_group_symop_operation_xyz
x,y,z
-x,y,1/2-z
-x,-y,-z
x,-y,1/2+z
1/2+x,1/2+y,z
1/2-x,1/2+y,1/2-z
1/2-x,1/2-y,-z
1/2+x,1/2-y,1/2+z
loop_
_atom_site_type_symbol
_atom_site_label
_atom_site_fract_x
_atom_site_fract_y
_atom_site_fract_z
Si Si1 0.614987 0.095037 0.675877
Si Si2 0.216010 0.568129 0.461541
Si Si3 0.713665 0.066311 0.257409
Si Si4 0.001779 0.479888 0.899308
Si Si5 0.848653 0.951034 0.244256
Si Si6 0.563079 0.431953 0.005158
O O1 0.500000 0.174167 0.750000
O O2 0.703115 0.255507 0.611469
O O3 0.674956 0.000285 0.564252
O O4 0.573399 0.978673 0.771452
O O5 0.291927 0.421376 0.359328
O O6 0.104412 0.603200 0.521826
O O7 0.773360 0.082429 0.269212
O O8 0.597728 0.953226 0.360380
O O9 0.666839 0.265075 0.280551
O O10 0.809445 0.018936 0.122365
O O11 0.946508 0.286502 0.970239
O O12 0.977000 0.010840 0.132754
O O13 0.500000 0.500000 0.000000
#
# Coordination Sequence:
#
# PCOD9276051 Si02
#       6
#     8   8   8   8   8   8
#     4   9  21  41  65  96 129 173 234 287 344 404
#     4  10  20  41  65  92 130 174 229 284 341 409
#     4  10  21  38  57  95 130 173 218 268 338 413
#     4  10  20  39  67  93 134 177 224 282 346 407
#     4  10  21  37  61  89 133 171 222 272 336 409
#     4   9  19  40  60  90 135 173 219 271 330 413
#
# _framework density 25.215522
#
# number of rings (size 3 to 8) (size 9 to 14) (size 15 to 20)
#    0.000    2.333    1.667    0.000    2.333    0.667 
#    9.000    3.333    0.000    0.000    0.000    0.000 
#    0.000    0.000    0.000    0.000    0.000    0.000 
#
# Total GULP energy -133747.996756 kJ/mol
# GULP energy per Si atom -5572.833198 kJ/mol
# Density = 2.515813 g / cm^3
# Si number density = 25.215522 Si / 1000 Ang^3
#
#
#
# Elastic Constant Matrix: (Units=GPa)
#
#
# Indices 1 2 3 4 5 6 
#
# 1 63.9305 38.0673 51.9185 -0.0007 -25.0784 0.0027
# 2 38.0673 59.0353 18.1211 -0.0017 2.5300 0.0040
# 3 51.9185 18.1211 213.6289 0.0024 -0.0363 -0.0003
# 4 -0.0007 -0.0017 0.0024 35.4901 -0.0010 0.4884
# 5 -25.0784 2.5300 -0.0363 -0.0010 53.1347 -0.0004
# 6 0.0027 0.0040 -0.0003 0.4884 -0.0004 25.8436
#
#
#
# Elastic Compliance Matrix: (Units=1/GPa)
#
#
# Indices 1 2 3 4 5 6 
#
# 1 0.054624 -0.033186 -0.010456 0.000001 0.027354 0.000000
# 2 -0.033186 0.037590 0.004874 0.000000 -0.017449 -0.000003
# 3 -0.010456 0.004874 0.006808 -0.000001 -0.005162 0.000000
# 4 0.000001 0.000000 -0.000001 0.028184 0.000001 -0.000533
# 5 0.027354 -0.017449 -0.005162 0.000001 0.032558 0.000000
# 6 0.000000 -0.000003 0.000000 -0.000533 0.000000 0.038704
#
#
# Mechanical properties :
#
#
# Convention : Reuss Voigt Hill
#
# Bulk Modulus (GPa) = 46.54192 61.42318 53.98255
# Shear Modulus (GPa) = 17.65754 38.12619 27.89186
#
# Velocity S-wave (km/s) = 2.64912 3.89268 3.32947
# Velocity P-wave (km/s) = 5.27777 6.67953 6.01959
#
# Compressibility (1/GPa) = 0.02148601
#
# Stress axis : x y z
#
# Youngs Moduli (GPa) = 18.30703 26.60305 146.89061
#
# Poissons Ratio (x) = 0.88284 1.53584
# Poissons Ratio (y) = 0.60753 -0.71589
# Poissons Ratio (z) = 0.19141 -0.12965
#
# Static dielectric constant tensor:
#      x y z
#    x 2.180140 0.000000 -0.041800 
#    y 0.000000 2.123820 0.000000 
#    z -0.041800 0.000000 2.073340 
# 
# From -- ./inp_files/283186.got.cif
#   From: 2010.05.17/outbox.cif.g08.bks.cpg/sg15_142_cif.got.tgz:283186.got - 2010.06.03 18:47:42.
