data_PCOD9276739
_publ_section_title
;
Structure prediction by ZEFSAII (Michael W. Deem and Ramdas Pophale) SiO2 
 PCOD9276739
Probable space group: C 2/C
;
_chemical_formula_sum "Si O2"
_cell_formula_units_Z 52
_cell_length_a 13.683640
_cell_length_b 26.629765
_cell_length_c 10.429284
_cell_angle_alpha 90.000000
_cell_angle_beta 48.087625
_cell_angle_gamma 90.000000
_cell_volume 2828.095318
_symmetry_space_group_name_H-M "C 2/C"
_symmetry_group_IT_number 15
_symmetry_cell_setting 'monoclinic'
loop_
_space_group_symop_operation_xyz
x,y,z
-x,y,1/2-z
-x,-y,-z
x,-y,1/2+z
1/2+x,1/2+y,z
1/2-x,1/2+y,1/2-z
1/2-x,1/2-y,-z
1/2+x,1/2-y,1/2+z
loop_
_atom_site_type_symbol
_atom_site_label
_atom_site_fract_x
_atom_site_fract_y
_atom_site_fract_z
Si Si1 0.360108 0.307966 0.801647
Si Si2 0.030211 0.893847 0.957260
Si Si3 0.000000 0.971415 0.750000
Si Si4 0.267873 0.108339 0.713295
Si Si5 0.207628 0.054679 0.508765
Si Si6 0.862377 0.307337 0.296270
Si Si7 0.412771 0.986427 0.200577
O O1 0.500000 0.308169 0.750000
O O2 0.380075 0.348901 0.674579
O O3 0.336168 0.250558 0.780564
O O4 0.248590 0.321868 0.001986
O O5 0.012929 0.935985 0.862398
O O6 0.100434 0.916891 0.018418
O O7 0.882680 0.878288 0.121934
O O8 0.871766 0.007003 0.864356
O O9 0.267005 0.089277 0.568043
O O10 0.353381 0.155575 0.683890
O O11 0.321164 0.060885 0.747259
O O12 0.320817 0.033017 0.318961
O O13 0.000000 0.310324 0.250000
O O14 0.500000 0.975310 0.250000
O O15 0.500000 0.000000 0.000000
#
# Coordination Sequence:
#
# PCOD9276739 Si02
#       7
#     8   8   4   8   8   8   8
#     4  10  20  40  64  95 121 159 213 288 324 379
#     4  12  22  37  66  92 122 162 216 270 326 371
#     4  12  20  36  62  96 118 158 208 268 316 364
#     4  12  22  41  62  91 127 171 214 262 326 383
#     4  12  25  38  60  94 129 166 213 264 311 391
#     4  10  22  39  65  93 125 159 218 273 335 385
#     4  12  26  43  61  89 134 179 213 256 319 393
#
# _framework density 18.386932000000002
#
# number of rings (size 3 to 8) (size 9 to 14) (size 15 to 20)
#    0.000    0.615    6.923    1.846    0.000    1.231 
#    0.000    0.769    0.000    0.000    0.000    0.000 
#    0.000    0.000    0.000    0.000    0.000    0.000 
#
# Total GULP energy -145266.755409 kJ/mol
# GULP energy per Si atom -5587.182900 kJ/mol
# Density = 1.834508 g / cm^3
# Si number density = 18.386932 Si / 1000 Ang^3
#
#
#
# Elastic Constant Matrix: (Units=GPa)
#
#
# Indices 1 2 3 4 5 6 
#
# 1 97.6851 20.6320 3.3315 0.0000 7.9703 0.0000
# 2 20.6320 71.2953 16.6102 0.0000 14.0311 0.0000
# 3 3.3315 16.6102 91.5894 0.0000 -7.0925 0.0000
# 4 0.0000 0.0000 0.0000 30.6911 0.0000 -8.8732
# 5 7.9703 14.0311 -7.0925 0.0000 29.6087 0.0000
# 6 0.0000 0.0000 0.0000 -8.8732 0.0000 16.6261
#
#
#
# Elastic Compliance Matrix: (Units=1/GPa)
#
#
# Indices 1 2 3 4 5 6 
#
# 1 0.010972 -0.002859 -0.000004 0.000000 -0.001600 0.000000
# 2 -0.002859 0.017354 -0.003689 0.000000 -0.008338 0.000000
# 3 -0.000004 -0.003689 0.011944 0.000000 0.004610 0.000000
# 4 0.000000 0.000000 0.000000 0.038527 0.000000 0.020562
# 5 -0.001600 -0.008338 0.004610 0.000000 0.039260 0.000000
# 6 0.000000 0.000000 0.000000 0.020562 0.000000 0.071120
#
#
# Mechanical properties :
#
#
# Convention : Reuss Voigt Hill
#
# Bulk Modulus (GPa) = 36.81218 37.96856 37.39037
# Shear Modulus (GPa) = 23.65893 30.05160 26.85527
#
# Velocity S-wave (km/s) = 3.59099 4.04716 3.82588
# Velocity P-wave (km/s) = 6.10392 6.52180 6.31632
#
# Compressibility (1/GPa) = 0.02716492
#
# Stress axis : x y z
#
# Youngs Moduli (GPa) = 91.14510 57.62396 83.72079
#
# Poissons Ratio (x) = 0.16476 0.00037
# Poissons Ratio (y) = 0.26060 0.30883
# Poissons Ratio (z) = 0.00040 0.21257
#
# Static dielectric constant tensor:
#      x y z
#    x 1.620700 0.000000 -0.005120 
#    y 0.000000 1.641680 0.000000 
#    z -0.005120 0.000000 1.656820 
# 
# From -- ./inp_files/91190.got.cif
#   From: 2010.05.17/outbox.cif.g08.bks.cpg/sg15_46_cif.got.tgz:91190.got - 2010.06.03 18:47:42.
