data_PCOD9276374
_publ_section_title
;
Structure prediction by ZEFSAII (Michael W. Deem and Ramdas Pophale) SiO2 
 PCOD9276374
Probable space group: C 2/C
;
_chemical_formula_sum "Si O2"
_cell_formula_units_Z 48
_cell_length_a 14.907576
_cell_length_b 22.130361
_cell_length_c 9.583697
_cell_angle_alpha 90.000000
_cell_angle_beta 137.913018
_cell_angle_gamma 90.000000
_cell_volume 2119.193553
_symmetry_space_group_name_H-M "C 2/C"
_symmetry_group_IT_number 15
_symmetry_cell_setting 'monoclinic'
loop_
_space_group_symop_operation_xyz
x,y,z
-x,y,1/2-z
-x,-y,-z
x,-y,1/2+z
1/2+x,1/2+y,z
1/2-x,1/2+y,1/2-z
1/2-x,1/2-y,-z
1/2+x,1/2-y,1/2+z
loop_
_atom_site_type_symbol
_atom_site_label
_atom_site_fract_x
_atom_site_fract_y
_atom_site_fract_z
Si Si1 0.608284 0.746284 0.765094
Si Si2 0.121774 0.896410 0.983998
Si Si3 0.399694 0.927627 0.763384
Si Si4 0.410906 0.065659 0.782765
Si Si5 0.620455 0.395655 0.299192
Si Si6 0.371076 0.252804 0.527932
O O1 0.500000 0.773572 0.750000
O O2 0.580999 0.674422 0.727911
O O3 0.631159 0.770777 0.634346
O O4 0.750000 0.750000 0.000000
O O5 0.268197 0.905290 0.088874
O O6 0.129546 0.920833 0.152050
O O7 0.104654 0.824159 0.966625
O O8 0.000000 0.921168 0.750000
O O9 0.500000 0.929151 0.750000
O O10 0.259586 0.900640 0.546140
O O11 0.374277 0.996643 0.783696
O O12 0.495477 0.901765 0.995154
O O13 0.500000 0.062157 0.750000
O O14 0.500000 0.423360 0.250000
O O15 0.500000 0.224474 0.750000
O O16 0.250000 0.250000 0.500000
#
# Coordination Sequence:
#
# PCOD9276374 Si02
#       6
#     8   8   8   8   8   8
#     4  10  21  39  59  86 116 150 196 244 292 348
#     4  10  22  40  59  85 119 153 195 242 289 351
#     4  10  20  40  61  83 120 154 195 246 290 344
#     4  10  22  38  59  88 118 154 195 242 295 345
#     4  10  22  39  61  85 115 157 196 240 293 344
#     4  10  21  39  60  83 117 155 192 241 295 350
#
# _framework density 22.650126
#
# number of rings (size 3 to 8) (size 9 to 14) (size 15 to 20)
#    0.000    2.000    1.667    1.000    2.333    3.333 
#    3.000    1.667    0.000    0.000    0.000    0.000 
#    0.000    0.000    0.000    0.000    0.000    0.000 
#
# Total GULP energy -133769.502724 kJ/mol
# GULP energy per Si atom -5573.729280 kJ/mol
# Density = 2.259857 g / cm^3
# Si number density = 22.650126 Si / 1000 Ang^3
#
#
#
# Elastic Constant Matrix: (Units=GPa)
#
#
# Indices 1 2 3 4 5 6 
#
# 1 186.5306 -8.6261 97.7358 0.0000 0.2693 0.0000
# 2 -8.6261 37.2042 -2.7800 0.0000 -5.5672 0.0000
# 3 97.7358 -2.7800 187.1440 0.0000 -2.3558 0.0000
# 4 0.0000 0.0000 0.0000 18.6639 0.0000 4.2524
# 5 0.2693 -5.5672 -2.3558 0.0000 41.5190 0.0000
# 6 0.0000 0.0000 0.0000 4.2524 0.0000 36.3572
#
#
#
# Elastic Compliance Matrix: (Units=1/GPa)
#
#
# Indices 1 2 3 4 5 6 
#
# 1 0.007457 0.001428 -0.003874 0.000000 -0.000077 0.000000
# 2 0.001428 0.027741 -0.000287 0.000000 0.003694 0.000000
# 3 -0.003874 -0.000287 0.007368 0.000000 0.000405 0.000000
# 4 0.000000 0.000000 0.000000 0.055046 0.000000 -0.006438
# 5 -0.000077 0.003694 0.000405 0.000000 0.024604 0.000000
# 6 0.000000 0.000000 0.000000 -0.006438 0.000000 0.028258
#
#
# Mechanical properties :
#
#
# Convention : Reuss Voigt Hill
#
# Bulk Modulus (GPa) = 26.95484 64.83756 45.89620
# Shear Modulus (GPa) = 29.70754 40.94464 35.32609
#
# Velocity S-wave (km/s) = 3.62551 4.25632 3.95351
# Velocity P-wave (km/s) = 5.42698 7.26931 6.41463
#
# Compressibility (1/GPa) = 0.03709909
#
# Stress axis : x y z
#
# Youngs Moduli (GPa) = 134.09886 36.04759 135.72878
#
# Poissons Ratio (x) = -0.05148 0.52585
# Poissons Ratio (y) = -0.19150 0.03898
# Poissons Ratio (z) = 0.51953 0.01035
#
# Static dielectric constant tensor:
#      x y z
#    x 1.861160 0.000000 -0.032610 
#    y 0.000000 2.491920 0.000000 
#    z -0.032610 0.000000 1.822000 
# 
# From -- ./inp_files/33785.got.cif
#   From: 2010.05.17/outbox.cif.g08.bks.cpg/sg15_17_cif.got.tgz:33785.got - 2010.06.03 18:47:42.
