data_PCOD9276714
_publ_section_title
;
Structure prediction by ZEFSAII (Michael W. Deem and Ramdas Pophale) SiO2 
 PCOD9276714
Probable space group: C 2/C
;
_chemical_formula_sum "Si O2"
_cell_formula_units_Z 44
_cell_length_a 7.604433
_cell_length_b 26.504356
_cell_length_c 12.603464
_cell_angle_alpha 90.000000
_cell_angle_beta 133.901375
_cell_angle_gamma 90.000000
_cell_volume 1830.327404
_symmetry_space_group_name_H-M "C 2/C"
_symmetry_group_IT_number 15
_symmetry_cell_setting 'monoclinic'
loop_
_space_group_symop_operation_xyz
x,y,z
-x,y,1/2-z
-x,-y,-z
x,-y,1/2+z
1/2+x,1/2+y,z
1/2-x,1/2+y,1/2-z
1/2-x,1/2-y,-z
1/2+x,1/2-y,1/2+z
loop_
_atom_site_type_symbol
_atom_site_label
_atom_site_fract_x
_atom_site_fract_y
_atom_site_fract_z
Si Si1 0.852737 0.905603 0.792532
Si Si2 0.679943 0.109784 0.915170
Si Si3 0.500000 0.615238 0.750000
Si Si4 0.905354 0.695913 0.868559
Si Si5 0.937795 0.555921 0.011618
Si Si6 0.142277 0.295262 0.696914
O O1 0.594322 0.933287 0.681994
O O2 0.794126 0.846706 0.754175
O O3 0.000000 0.924636 0.750000
O O4 0.043094 0.908527 0.968481
O O5 0.500000 0.090053 0.750000
O O6 0.638896 0.169956 0.909842
O O7 0.566628 0.090576 0.977220
O O8 0.684952 0.654388 0.769476
O O9 0.335823 0.577740 0.608917
O O10 0.813391 0.746650 0.776617
O O11 0.970661 0.705432 0.020226
O O12 0.000000 0.500000 0.000000
O O13 0.000000 0.296533 0.750000
#
# Coordination Sequence:
#
# PCOD9276714 Si02
#       6
#     8   8   4   8   8   8
#     4  10  21  44  63  93 136 168 223 270 325 392
#     4  10  23  43  65  93 133 173 219 269 331 392
#     4  10  20  40  64  92 130 160 218 258 338 376
#     4  11  24  40  61  94 132 177 215 272 319 395
#     4  10  22  41  73  92 123 173 211 280 336 385
#     4  12  24  38  63  95 133 178 223 265 332 390
#
# _framework density 24.039414000000001
#
# number of rings (size 3 to 8) (size 9 to 14) (size 15 to 20)
#    0.000    1.455    6.364    0.545    6.364    2.909 
#    0.000    1.818    0.000    0.000    0.000    0.000 
#    0.000    0.000    0.000    0.000    0.000    0.000 
#
# Total GULP energy -122778.653015 kJ/mol
# GULP energy per Si atom -5580.847864 kJ/mol
# Density = 2.398470 g / cm^3
# Si number density = 24.039414 Si / 1000 Ang^3
#
#
#
# Elastic Constant Matrix: (Units=GPa)
#
#
# Indices 1 2 3 4 5 6 
#
# 1 59.3992 -13.1451 42.6893 0.0000 -15.9069 0.0000
# 2 -13.1451 96.0126 48.2157 0.0000 7.9957 0.0000
# 3 42.6893 48.2157 247.1604 0.0000 22.5947 0.0000
# 4 0.0000 0.0000 0.0000 14.9355 0.0000 14.8841
# 5 -15.9069 7.9957 22.5947 0.0000 31.4320 0.0000
# 6 0.0000 0.0000 0.0000 14.8841 0.0000 8.9086
#
#
#
# Elastic Compliance Matrix: (Units=1/GPa)
#
#
# Indices 1 2 3 4 5 6 
#
# 1 0.029027 0.006418 -0.007984 0.000000 0.018796 0.000000
# 2 0.006418 0.013024 -0.003900 0.000000 0.002738 0.000000
# 3 -0.007984 -0.003900 0.006919 0.000000 -0.008022 0.000000
# 4 0.000000 0.000000 0.000000 -0.100681 0.000000 0.168215
# 5 0.018796 0.002738 -0.008022 0.000000 0.046397 0.000000
# 6 0.000000 0.000000 0.000000 0.168215 0.000000 -0.168795
#
#
# Mechanical properties :
#
#
# Convention : Reuss Voigt Hill
#
# Bulk Modulus (GPa) = 26.28832 62.01023 44.14928
# Shear Modulus (GPa) = -33.22303 32.70936 -0.25683
#
# Velocity S-wave (km/s) = -3.72159 3.69271 -0.32722
# Velocity P-wave (km/s) = 2.74002 6.63571 4.27346
#
# Compressibility (1/GPa) = 0.03803970
#
# Stress axis : x y z
#
# Youngs Moduli (GPa) = 34.45058 76.77961 144.52916
#
# Poissons Ratio (x) = -0.49278 1.15390
# Poissons Ratio (y) = -0.22111 0.56361
# Poissons Ratio (z) = 0.27505 0.29941
#
# Static dielectric constant tensor:
#      x y z
#    x 1.965520 0.000000 0.036790 
#    y 0.000000 1.952470 0.000000 
#    z 0.036790 0.000000 2.030780 
# 
# From -- ./inp_files/138805.got.cif
#   From: 2010.05.17/outbox.cif.g08.bks.cpg/sg15_70_cif.got.tgz:138805.got - 2010.06.03 18:47:42.
