data_PCOD9276360
_publ_section_title
;
Structure prediction by ZEFSAII (Michael W. Deem and Ramdas Pophale) SiO2 
 PCOD9276360
Probable space group: C 2/C
;
_chemical_formula_sum "Si O2"
_cell_formula_units_Z 52
_cell_length_a 27.359822
_cell_length_b 5.192640
_cell_length_c 17.879464
_cell_angle_alpha 90.000000
_cell_angle_beta 119.526962
_cell_angle_gamma 90.000000
_cell_volume 2210.227934
_symmetry_space_group_name_H-M "C 2/C"
_symmetry_group_IT_number 15
_symmetry_cell_setting 'monoclinic'
loop_
_space_group_symop_operation_xyz
x,y,z
-x,y,1/2-z
-x,-y,-z
x,-y,1/2+z
1/2+x,1/2+y,z
1/2-x,1/2+y,1/2-z
1/2-x,1/2-y,-z
1/2+x,1/2-y,1/2+z
loop_
_atom_site_type_symbol
_atom_site_label
_atom_site_fract_x
_atom_site_fract_y
_atom_site_fract_z
Si Si1 0.500000 0.040241 0.750000
Si Si2 0.894325 0.646124 0.587074
Si Si3 0.124526 0.526102 0.631540
Si Si4 0.349580 0.316103 0.703006
Si Si5 0.049084 0.164749 0.661459
Si Si6 0.255644 0.037466 0.802329
Si Si7 0.577598 0.378256 0.477095
O O1 0.454587 0.202331 0.671531
O O2 0.532677 0.868146 0.714146
O O3 0.851505 0.694800 0.622268
O O4 0.901977 0.357169 0.562079
O O5 0.890068 0.864222 0.521176
O O6 0.148277 0.599943 0.731166
O O7 0.080808 0.304583 0.616989
O O8 0.180630 0.476495 0.625875
O O9 0.092119 0.761642 0.568740
O O10 0.405981 0.476745 0.765731
O O11 0.294030 0.484823 0.676663
O O12 0.988755 0.077138 0.584634
O O13 0.244332 0.829324 0.727642
#
# Coordination Sequence:
#
# PCOD9276360 Si02
#       7
#     4   8   8   8   8   8   8
#     4  10  20  40  60  96 122 168 208 266 298 382
#     4  11  23  42  60  93 128 169 207 255 312 376
#     4  11  24  42  62  95 126 166 209 262 318 370
#     4  11  22  40  71  91 121 171 222 261 302 371
#     4  11  21  39  64  93 127 161 211 254 322 371
#     4  10  22  40  64  94 122 159 218 270 304 356
#     4  11  27  39  62  93 139 161 199 258 327 382
#
# _framework density 23.526983999999999
#
# number of rings (size 3 to 8) (size 9 to 14) (size 15 to 20)
#    0.000    1.231    3.077    3.231    4.308    1.231 
#    0.000    1.538    0.000    0.000    0.000    0.000 
#    0.000    0.000    0.000    0.000    0.000    0.000 
#
# Total GULP energy -145353.486205 kJ/mol
# GULP energy per Si atom -5590.518700 kJ/mol
# Density = 2.347344 g / cm^3
# Si number density = 23.526984 Si / 1000 Ang^3
#
#
#
# Elastic Constant Matrix: (Units=GPa)
#
#
# Indices 1 2 3 4 5 6 
#
# 1 143.3857 35.3628 30.1599 0.0000 -2.4691 0.0001
# 2 35.3628 68.9050 21.3584 -0.0007 -5.6725 0.0002
# 3 30.1599 21.3584 63.8673 0.0000 -11.2417 0.0000
# 4 0.0000 -0.0007 0.0000 42.4177 -0.0001 -3.7039
# 5 -2.4691 -5.6725 -11.2417 -0.0001 30.9801 0.0001
# 6 0.0001 0.0002 0.0000 -3.7039 0.0001 37.3059
#
#
#
# Elastic Compliance Matrix: (Units=1/GPa)
#
#
# Indices 1 2 3 4 5 6 
#
# 1 0.008450 -0.003491 -0.003009 0.000000 -0.001058 0.000000
# 2 -0.003491 0.017666 -0.003994 0.000000 0.001507 0.000000
# 3 -0.003009 -0.003994 0.019488 0.000000 0.006100 0.000000
# 4 0.000000 0.000000 0.000000 0.023781 0.000000 0.002361
# 5 -0.001058 0.001507 0.006100 0.000000 0.034684 0.000000
# 6 0.000000 0.000000 0.000000 0.002361 0.000000 0.027040
#
#
# Mechanical properties :
#
#
# Convention : Reuss Voigt Hill
#
# Bulk Modulus (GPa) = 40.62402 49.99114 45.30758
# Shear Modulus (GPa) = 31.19096 34.75921 32.97509
#
# Velocity S-wave (km/s) = 3.64504 3.84789 3.74784
# Velocity P-wave (km/s) = 5.91773 6.40595 6.16668
#
# Compressibility (1/GPa) = 0.02461598
#
# Stress axis : x y z
#
# Youngs Moduli (GPa) = 118.34528 56.60442 51.31398
#
# Poissons Ratio (x) = 0.19760 0.15440
# Poissons Ratio (y) = 0.41314 0.20496
# Poissons Ratio (z) = 0.35610 0.22609
#
# Static dielectric constant tensor:
#      x y z
#    x 1.928650 0.000000 -0.025560 
#    y 0.000000 1.901160 0.000000 
#    z -0.025560 0.000000 1.935630 
# 
# From -- ./inp_files/220880.got.cif
#   From: 2010.05.17/outbox.cif.g08.bks.cpg/sg15_111_cif.got.tgz:220880.got - 2010.06.03 18:47:42.
