data_PCOD9276642
_publ_section_title
;
Structure prediction by ZEFSAII (Michael W. Deem and Ramdas Pophale) SiO2 
 PCOD9276642
Probable space group: C 2/C
;
_chemical_formula_sum "Si O2"
_cell_formula_units_Z 64
_cell_length_a 9.431236
_cell_length_b 15.782625
_cell_length_c 25.906699
_cell_angle_alpha 90.000000
_cell_angle_beta 118.352996
_cell_angle_gamma 90.000000
_cell_volume 3393.607298
_symmetry_space_group_name_H-M "C 2/C"
_symmetry_group_IT_number 15
_symmetry_cell_setting 'monoclinic'
loop_
_space_group_symop_operation_xyz
x,y,z
-x,y,1/2-z
-x,-y,-z
x,-y,1/2+z
1/2+x,1/2+y,z
1/2-x,1/2+y,1/2-z
1/2-x,1/2-y,-z
1/2+x,1/2-y,1/2+z
loop_
_atom_site_type_symbol
_atom_site_label
_atom_site_fract_x
_atom_site_fract_y
_atom_site_fract_z
Si Si1 0.785468 0.361004 0.931334
Si Si2 0.755747 0.051491 0.595405
Si Si3 0.314328 0.676759 0.201104
Si Si4 0.307218 0.132722 0.710045
Si Si5 0.497357 0.375132 0.537181
Si Si6 0.693142 0.490680 0.280203
Si Si7 0.587560 0.554176 0.590466
Si Si8 0.119848 0.715737 0.518248
O O1 0.820351 0.461498 0.933980
O O2 0.699241 0.335437 0.862979
O O3 0.663283 0.355928 0.958111
O O4 0.944832 0.304986 0.964183
O O5 0.751802 0.050183 0.656350
O O6 0.670441 0.130070 0.554627
O O7 0.938131 0.056833 0.604772
O O8 0.500000 0.679406 0.250000
O O9 0.246555 0.769532 0.203817
O O10 0.245214 0.588517 0.212384
O O11 0.500000 0.133472 0.750000
O O12 0.241471 0.069387 0.742023
O O13 0.241606 0.094894 0.644634
O O14 0.593732 0.455078 0.576661
O O15 0.455587 0.398432 0.470485
O O16 0.601188 0.290966 0.555619
O O17 0.500000 0.496562 0.250000
O O18 0.250000 0.750000 0.500000
#
# Coordination Sequence:
#
# PCOD9276642 Si02
#       8
#     8   8   8   8   8   8   8   8
#     4  10  22  40  64  88 119 166 208 245 298 380
#     4  10  21  39  62  87 122 161 206 253 303 371
#     4   9  21  39  65  88 118 159 209 251 297 362
#     4  11  23  40  62  91 125 156 203 261 310 354
#     4  10  22  38  64  89 119 164 204 247 302 375
#     4  10  20  40  64  86 113 164 210 246 305 373
#     4  10  20  41  62  87 124 164 199 252 314 364
#     4  12  23  37  58  94 130 155 200 258 314 351
#
# _framework density 18.858989000000001
#
# number of rings (size 3 to 8) (size 9 to 14) (size 15 to 20)
#    0.000    1.750    2.500    1.500    1.750    3.000 
#    4.500    0.625    0.000    0.000    0.000    0.000 
#    0.000    0.000    0.000    0.000    0.000    0.000 
#
# Total GULP energy -178455.459966 kJ/mol
# GULP energy per Si atom -5576.733124 kJ/mol
# Density = 1.881606 g / cm^3
# Si number density = 18.858989 Si / 1000 Ang^3
#
#
#
# Elastic Constant Matrix: (Units=GPa)
#
#
# Indices 1 2 3 4 5 6 
#
# 1 39.7699 49.9257 13.8807 0.0000 -5.7639 0.0000
# 2 49.9257 148.9096 57.8570 0.0000 -4.9580 0.0000
# 3 13.8807 57.8570 77.9457 0.0000 -3.5623 0.0000
# 4 0.0000 0.0000 0.0000 3.8501 0.0000 0.0303
# 5 -5.7639 -4.9580 -3.5623 0.0000 27.2149 0.0000
# 6 0.0000 0.0000 0.0000 0.0303 0.0000 19.3512
#
#
#
# Elastic Compliance Matrix: (Units=1/GPa)
#
#
# Indices 1 2 3 4 5 6 
#
# 1 0.045853 -0.016987 0.004775 0.000000 0.007242 0.000000
# 2 -0.016987 0.015748 -0.008750 0.000000 -0.001874 0.000000
# 3 0.004775 -0.008750 0.018558 0.000000 0.001846 0.000000
# 4 0.000000 0.000000 0.000000 0.259740 0.000000 -0.000407
# 5 0.007242 -0.001874 0.001846 0.000000 0.038179 0.000000
# 6 0.000000 0.000000 0.000000 -0.000407 0.000000 0.051677
#
#
# Mechanical properties :
#
#
# Convention : Reuss Voigt Hill
#
# Bulk Modulus (GPa) = 26.15451 56.66133 41.40792
# Shear Modulus (GPa) = 10.32150 19.74735 15.03443
#
# Velocity S-wave (km/s) = 2.34198 3.23941 2.82654
# Velocity P-wave (km/s) = 4.60562 6.64091 5.71460
#
# Compressibility (1/GPa) = 0.03823432
#
# Stress axis : x y z
#
# Youngs Moduli (GPa) = 21.80876 63.49908 53.88382
#
# Poissons Ratio (x) = 1.07869 -0.25728
# Poissons Ratio (y) = 0.37048 0.47148
# Poissons Ratio (z) = -0.10413 0.55562
#
# Static dielectric constant tensor:
#      x y z
#    x 1.660820 0.000000 0.002070 
#    y 0.000000 1.683580 0.000000 
#    z 0.002070 0.000000 1.664060 
# 
# From -- ./inp_files/288826.got.cif
#   From: 2010.05.17/outbox.cif.g08.bks.cpg/sg15_145_cif.got.tgz:288826.got - 2010.06.03 18:47:42.
