data_PCOD9276523
_publ_section_title
;
Structure prediction by ZEFSAII (Michael W. Deem and Ramdas Pophale) SiO2 
 PCOD9276523
Probable space group: C 2/C
;
_chemical_formula_sum "Si O2"
_cell_formula_units_Z 48
_cell_length_a 9.034993
_cell_length_b 12.863548
_cell_length_c 16.248462
_cell_angle_alpha 90.000000
_cell_angle_beta 79.325154
_cell_angle_gamma 90.000000
_cell_volume 1855.749061
_symmetry_space_group_name_H-M "C 2/C"
_symmetry_group_IT_number 15
_symmetry_cell_setting 'monoclinic'
loop_
_space_group_symop_operation_xyz
x,y,z
-x,y,1/2-z
-x,-y,-z
x,-y,1/2+z
1/2+x,1/2+y,z
1/2-x,1/2+y,1/2-z
1/2-x,1/2-y,-z
1/2+x,1/2-y,1/2+z
loop_
_atom_site_type_symbol
_atom_site_label
_atom_site_fract_x
_atom_site_fract_y
_atom_site_fract_z
Si Si1 0.000000 0.765577 0.750000
Si Si2 0.163801 0.389850 0.661571
Si Si3 0.168315 0.922692 0.108605
Si Si4 0.057299 0.318086 0.499756
Si Si5 0.000000 0.783592 0.250000
Si Si6 0.985846 0.120087 0.411518
Si Si7 0.461803 0.930018 0.151348
O O1 0.926972 0.835842 0.828924
O O2 0.077031 0.679637 0.801413
O O3 0.066146 0.349142 0.593064
O O4 0.338151 0.399341 0.625044
O O5 0.134692 0.302097 0.733568
O O6 0.091118 0.502832 0.680210
O O7 0.270301 0.838107 0.050207
O O8 0.041025 0.862380 0.172312
O O9 0.296238 0.975914 0.153258
O O10 0.100626 0.014304 0.061818
O O11 0.986520 0.207976 0.481893
O O12 0.975908 0.399784 0.446495
#
# Coordination Sequence:
#
# PCOD9276523 Si02
#       7
#     4   8   8   8   4   8   8
#     4  10  20  40  62  94 140 172 228 270 356 400
#     4  12  23  42  72  98 138 178 234 285 361 405
#     4  10  24  44  65  99 136 173 239 272 356 411
#     4   9  22  48  67  96 139 181 228 290 348 427
#     4  12  24  38  62 104 128 178 230 290 326 428
#     4  11  23  41  75  96 134 186 225 292 351 410
#     4   9  22  42  68  93 135 185 222 290 345 421
#
# _framework density 25.865565
#
# number of rings (size 3 to 8) (size 9 to 14) (size 15 to 20)
#    1.000    0.667    1.667    2.000    0.000    8.667 
#    0.000    2.500    0.000    0.000    0.000    0.000 
#    0.000    0.000    0.000    0.000    0.000    0.000 
#
# Total GULP energy -133853.857655 kJ/mol
# GULP energy per Si atom -5577.244069 kJ/mol
# Density = 2.580669 g / cm^3
# Si number density = 25.865565 Si / 1000 Ang^3
#
#
#
# Elastic Constant Matrix: (Units=GPa)
#
#
# Indices 1 2 3 4 5 6 
#
# 1 74.4002 42.8982 11.3081 0.0000 14.8770 0.0000
# 2 42.8982 142.6600 12.8599 0.0000 0.7099 0.0000
# 3 11.3081 12.8599 90.5274 0.0000 9.0342 0.0000
# 4 0.0000 0.0000 0.0000 32.2559 0.0000 5.7444
# 5 14.8770 0.7099 9.0342 0.0000 31.8549 0.0000
# 6 0.0000 0.0000 0.0000 5.7444 0.0000 50.4574
#
#
#
# Elastic Compliance Matrix: (Units=1/GPa)
#
#
# Indices 1 2 3 4 5 6 
#
# 1 0.018307 -0.005401 -0.000698 0.000000 -0.008232 0.000000
# 2 -0.005401 0.008695 -0.000816 0.000000 0.002560 0.000000
# 3 -0.000698 -0.000816 0.011542 0.000000 -0.002929 0.000000
# 4 0.000000 0.000000 0.000000 0.031644 0.000000 -0.003602
# 5 -0.008232 0.002560 -0.002929 0.000000 0.036010 0.000000
# 6 0.000000 0.000000 0.000000 -0.003602 0.000000 0.020229
#
#
# Mechanical properties :
#
#
# Convention : Reuss Voigt Hill
#
# Bulk Modulus (GPa) = 40.46407 49.08000 44.77204
# Shear Modulus (GPa) = 33.67132 38.94839 36.30986
#
# Velocity S-wave (km/s) = 3.61194 3.88468 3.75079
# Velocity P-wave (km/s) = 5.75089 6.25597 6.00874
#
# Compressibility (1/GPa) = 0.02471328
#
# Stress axis : x y z
#
# Youngs Moduli (GPa) = 54.62361 115.01381 86.64167
#
# Poissons Ratio (x) = 0.62120 0.06048
# Poissons Ratio (y) = 0.29503 0.07069
# Poissons Ratio (z) = 0.03813 0.09384
#
# Static dielectric constant tensor:
#      x y z
#    x 2.069270 0.000000 0.079800 
#    y 0.000000 2.070420 0.000000 
#    z 0.079800 0.000000 2.158040 
# 
# From -- ./inp_files/196059.got.cif
#   From: 2010.05.17/outbox.cif.g08.bks.cpg/sg15_99_cif.got.tgz:196059.got - 2010.06.03 18:47:42.
