data_PCOD9276669
_publ_section_title
;
Structure prediction by ZEFSAII (Michael W. Deem and Ramdas Pophale) SiO2 
 PCOD9276669
Probable space group: C 2/C
;
_chemical_formula_sum "Si O2"
_cell_formula_units_Z 44
_cell_length_a 20.669720
_cell_length_b 9.570224
_cell_length_c 8.597934
_cell_angle_alpha 90.000000
_cell_angle_beta 81.796830
_cell_angle_gamma 90.000000
_cell_volume 1683.388518
_symmetry_space_group_name_H-M "C 2/C"
_symmetry_group_IT_number 15
_symmetry_cell_setting 'monoclinic'
loop_
_space_group_symop_operation_xyz
x,y,z
-x,y,1/2-z
-x,-y,-z
x,-y,1/2+z
1/2+x,1/2+y,z
1/2-x,1/2+y,1/2-z
1/2-x,1/2-y,-z
1/2+x,1/2-y,1/2+z
loop_
_atom_site_type_symbol
_atom_site_label
_atom_site_fract_x
_atom_site_fract_y
_atom_site_fract_z
Si Si1 0.031977 0.350962 0.977534
Si Si2 0.000000 0.141827 0.750000
Si Si3 0.870048 0.984193 0.154633
Si Si4 0.251253 0.183707 0.668107
Si Si5 0.127354 0.783974 0.643624
Si Si6 0.677633 0.095981 0.389768
O O1 0.986810 0.244711 0.899189
O O2 0.057820 0.285609 0.129282
O O3 0.102866 0.368368 0.863997
O O4 0.000000 0.500000 0.000000
O O5 0.060566 0.053786 0.791086
O O6 0.811543 0.911640 0.267248
O O7 0.867415 0.910646 0.986345
O O8 0.864852 0.149874 0.189801
O O9 0.250000 0.250000 0.500000
O O10 0.232811 0.316008 0.784105
O O11 0.307935 0.065942 0.633035
O O12 0.175907 0.661362 0.565634
#
# Coordination Sequence:
#
# PCOD9276669 Si02
#       6
#     8   4   8   8   8   8
#     4   9  20  39  63  87 127 166 218 281 328 398
#     4  10  20  40  64  88 136 162 218 270 340 402
#     4  10  21  39  64  93 132 171 216 273 333 403
#     4  11  24  41  66  90 136 176 218 282 337 398
#     4   8  20  41  61  96 127 171 219 269 337 396
#     4   9  23  44  60  99 127 175 226 271 342 395
#
# _framework density 26.137758000000002
#
# number of rings (size 3 to 8) (size 9 to 14) (size 15 to 20)
#    1.091    1.455    1.818    0.000    7.636    3.636 
#    0.000    4.545    0.000    0.000    0.000    0.000 
#    0.000    0.000    0.000    0.000    0.000    0.000 
#
# Total GULP energy -122784.296520 kJ/mol
# GULP energy per Si atom -5581.104387 kJ/mol
# Density = 2.607827 g / cm^3
# Si number density = 26.137758 Si / 1000 Ang^3
#
#
#
# Elastic Constant Matrix: (Units=GPa)
#
#
# Indices 1 2 3 4 5 6 
#
# 1 75.0583 12.6741 18.3649 0.0000 -0.8878 0.0000
# 2 12.6741 174.3697 52.8335 0.0000 1.9357 0.0000
# 3 18.3649 52.8335 82.3225 0.0000 -15.7992 0.0000
# 4 0.0000 0.0000 0.0000 41.8442 0.0000 -4.0683
# 5 -0.8878 1.9357 -15.7992 0.0000 28.7688 0.0000
# 6 0.0000 0.0000 0.0000 -4.0683 0.0000 42.2141
#
#
#
# Elastic Compliance Matrix: (Units=1/GPa)
#
#
# Indices 1 2 3 4 5 6 
#
# 1 0.014146 0.000037 -0.003461 0.000000 -0.001467 0.000000
# 2 0.000037 0.007419 -0.005438 0.000000 -0.003485 0.000000
# 3 -0.003461 -0.005438 0.018398 0.000000 0.010363 0.000000
# 4 0.000000 0.000000 0.000000 0.024124 0.000000 0.002325
# 5 -0.001467 -0.003485 0.010363 0.000000 0.040640 0.000000
# 6 0.000000 0.000000 0.000000 0.002325 0.000000 0.023913
#
#
# Mechanical properties :
#
#
# Convention : Reuss Voigt Hill
#
# Bulk Modulus (GPa) = 44.96653 55.49951 50.23302
# Shear Modulus (GPa) = 32.51438 39.09062 35.80250
#
# Velocity S-wave (km/s) = 3.53081 3.87144 3.70504
# Velocity P-wave (km/s) = 5.81921 6.42368 6.12890
#
# Compressibility (1/GPa) = 0.02223876
#
# Stress axis : x y z
#
# Youngs Moduli (GPa) = 70.69032 134.79444 54.35250
#
# Poissons Ratio (x) = -0.00494 0.18810
# Poissons Ratio (y) = -0.00259 0.29558
# Poissons Ratio (z) = 0.24464 0.73303
#
# Static dielectric constant tensor:
#      x y z
#    x 2.228740 0.000000 0.110290 
#    y 0.000000 2.070870 0.000000 
#    z 0.110290 0.000000 2.101630 
# 
# From -- ./inp_files/116240.got.cif
#   From: 2010.05.17/outbox.cif.g08.bks.cpg/sg15_59_cif.got.tgz:116240.got - 2010.06.03 18:47:42.
