data_PCOD9276911
_publ_section_title
;
Structure prediction by ZEFSAII (Michael W. Deem and Ramdas Pophale) SiO2 
 PCOD9276911
Probable space group: C 2/C
;
_chemical_formula_sum "Si O2"
_cell_formula_units_Z 56
_cell_length_a 16.044604
_cell_length_b 20.886628
_cell_length_c 19.023882
_cell_angle_alpha 90.000000
_cell_angle_beta 27.290636
_cell_angle_gamma 90.000000
_cell_volume 2923.074668
_symmetry_space_group_name_H-M "C 2/C"
_symmetry_group_IT_number 15
_symmetry_cell_setting 'monoclinic'
loop_
_space_group_symop_operation_xyz
x,y,z
-x,y,1/2-z
-x,-y,-z
x,-y,1/2+z
1/2+x,1/2+y,z
1/2-x,1/2+y,1/2-z
1/2-x,1/2-y,-z
1/2+x,1/2-y,1/2+z
loop_
_atom_site_type_symbol
_atom_site_label
_atom_site_fract_x
_atom_site_fract_y
_atom_site_fract_z
Si Si1 0.827288 0.437437 0.929134
Si Si2 0.040425 0.175265 0.302224
Si Si3 0.106404 0.192489 0.598233
Si Si4 0.746431 0.184310 0.781235
Si Si5 0.385656 0.742738 0.545290
Si Si6 0.153497 0.547295 0.916211
Si Si7 0.987625 0.031149 0.343816
O O1 0.000000 0.435481 0.750000
O O2 0.714712 0.372294 0.001352
O O3 0.867188 0.443445 0.983375
O O4 0.701547 0.496717 0.999876
O O5 0.248198 0.197892 0.155032
O O6 0.010764 0.103351 0.351391
O O7 0.000000 0.179511 0.250000
O O8 0.912314 0.219856 0.445608
O O9 0.250000 0.250000 0.500000
O O10 0.000000 0.181311 0.750000
O O11 0.939203 0.203394 0.670850
O O12 0.793214 0.188766 0.663346
O O13 0.673198 0.116549 0.864536
O O14 0.587391 0.235340 0.916859
O O15 0.345623 0.512709 0.758287
O O16 0.000000 0.500000 0.000000
O O17 0.000000 0.034023 0.250000
#
# Coordination Sequence:
#
# PCOD9276911 Si02
#       7
#     8   8   8   8   8   8   8
#     4  11  23  42  62  93 126 163 218 265 305 388
#     4  10  20  40  66  90 122 166 204 261 327 381
#     4  12  22  40  64  89 125 175 216 260 317 377
#     4  11  22  41  59  89 131 164 208 265 316 372
#     4  10  23  38  60  95 129 156 211 265 316 388
#     4  11  22  41  65  90 124 169 210 260 323 376
#     4   9  19  40  62  83 120 162 206 259 308 371
#
# _framework density 19.157910000000001
#
# number of rings (size 3 to 8) (size 9 to 14) (size 15 to 20)
#    0.000    1.429    2.857    3.000    0.000    1.143 
#    5.143    5.000    0.000    0.000    0.000    0.000 
#    0.000    0.000    0.000    0.000    0.000    0.000 
#
# Total GULP energy -156189.577964 kJ/mol
# GULP energy per Si atom -5578.199213 kJ/mol
# Density = 1.911431 g / cm^3
# Si number density = 19.157910 Si / 1000 Ang^3
#
#
#
# Elastic Constant Matrix: (Units=GPa)
#
#
# Indices 1 2 3 4 5 6 
#
# 1 67.9765 24.8097 42.9754 0.0023 0.8223 0.0008
# 2 24.8097 118.0452 64.0984 0.0045 4.5573 0.0033
# 3 42.9754 64.0984 163.0826 0.0100 6.2725 0.0020
# 4 0.0023 0.0045 0.0100 14.1631 -0.0051 -1.6415
# 5 0.8223 4.5573 6.2725 -0.0051 24.4608 0.0009
# 6 0.0008 0.0033 0.0020 -1.6415 0.0009 23.9476
#
#
#
# Elastic Compliance Matrix: (Units=1/GPa)
#
#
# Indices 1 2 3 4 5 6 
#
# 1 0.017878 -0.001541 -0.004134 0.000001 0.000746 0.000000
# 2 -0.001541 0.010924 -0.003849 -0.000001 -0.000996 -0.000001
# 3 -0.004134 -0.003849 0.008788 -0.000005 -0.001397 0.000000
# 4 0.000001 -0.000001 -0.000005 0.071171 0.000016 0.004878
# 5 0.000746 -0.000996 -0.001397 0.000016 0.041401 0.000000
# 6 0.000000 -0.000001 0.000000 0.004878 0.000000 0.042092
#
#
# Mechanical properties :
#
#
# Convention : Reuss Voigt Hill
#
# Bulk Modulus (GPa) = 53.93547 68.09681 61.01614
# Shear Modulus (GPa) = 22.99028 26.99568 24.99298
#
# Velocity S-wave (km/s) = 3.46792 3.75789 3.61581
# Velocity P-wave (km/s) = 6.65203 7.37910 7.02498
#
# Compressibility (1/GPa) = 0.01854068
#
# Stress axis : x y z
#
# Youngs Moduli (GPa) = 55.93425 91.54351 113.79374
#
# Poissons Ratio (x) = 0.14111 0.47043
# Poissons Ratio (y) = 0.08622 0.43799
# Poissons Ratio (z) = 0.23124 0.35235
#
# Static dielectric constant tensor:
#      x y z
#    x 1.837120 -0.000070 -0.018110 
#    y -0.000070 1.659020 0.000020 
#    z -0.018110 0.000020 1.637680 
# 
# From -- ./inp_files/250028.got.cif
#   From: 2010.05.17/outbox.cif.g08.bks.cpg/sg15_126_cif.got.tgz:250028.got - 2010.06.03 18:47:42.
