data_PCOD9276735
_publ_section_title
;
Structure prediction by ZEFSAII (Michael W. Deem and Ramdas Pophale) SiO2 
 PCOD9276735
Probable space group: C 2/C
;
_chemical_formula_sum "Si O2"
_cell_formula_units_Z 56
_cell_length_a 8.496321
_cell_length_b 12.096910
_cell_length_c 29.202667
_cell_angle_alpha 90.000000
_cell_angle_beta 126.023539
_cell_angle_gamma 90.000000
_cell_volume 2427.480975
_symmetry_space_group_name_H-M "C 2/C"
_symmetry_group_IT_number 15
_symmetry_cell_setting 'monoclinic'
loop_
_space_group_symop_operation_xyz
x,y,z
-x,y,1/2-z
-x,-y,-z
x,-y,1/2+z
1/2+x,1/2+y,z
1/2-x,1/2+y,1/2-z
1/2-x,1/2-y,-z
1/2+x,1/2-y,1/2+z
loop_
_atom_site_type_symbol
_atom_site_label
_atom_site_fract_x
_atom_site_fract_y
_atom_site_fract_z
Si Si1 0.896170 0.841579 0.859657
Si Si2 0.261268 0.516587 0.420953
Si Si3 0.880328 0.536712 0.796501
Si Si4 0.713015 0.278773 0.046239
Si Si5 0.993199 0.580877 0.042384
Si Si6 0.500000 0.843251 0.750000
Si Si7 0.000000 0.273238 0.250000
Si Si8 0.354549 0.432538 0.670976
O O1 0.688978 0.790654 0.807665
O O2 0.079247 0.758629 0.895413
O O3 0.868823 0.904904 0.903170
O O4 0.962536 0.930392 0.832069
O O5 0.350237 0.402563 0.453830
O O6 0.074114 0.471034 0.360485
O O7 0.187203 0.574176 0.454491
O O8 0.887480 0.643918 0.765127
O O9 0.695604 0.518646 0.797556
O O10 0.907509 0.425634 0.771447
O O11 0.539566 0.201956 0.033165
O O12 0.750000 0.250000 0.000000
O O13 0.176028 0.553182 0.105999
O O14 0.000000 0.500000 0.000000
O O15 0.132789 0.187899 0.301801
#
# Coordination Sequence:
#
# PCOD9276735 Si02
#       8
#     8   8   8   8   8   4   4   8
#     4  10  22  40  66  96 132 171 218 269 325 396
#     4  10  21  41  65  94 133 167 216 273 326 387
#     4   9  19  35  63  92 124 168 210 262 322 389
#     4  11  22  40  67  95 123 173 221 263 332 386
#     4  10  20  40  64  94 129 171 212 275 322 376
#     4   9  18  36  62  91 126 167 206 262 326 379
#     4  11  20  38  64  93 130 173 210 268 328 385
#     4  10  21  37  65  97 127 169 221 258 324 395
#
# _framework density 23.069182000000001
#
# number of rings (size 3 to 8) (size 9 to 14) (size 15 to 20)
#    0.000    2.000    1.429    2.571    0.000    0.571 
#    0.000    6.429    0.000  100.286    0.000    0.000 
#    0.000    0.000    0.000    0.000    0.000    0.000 
#
# Total GULP energy -156216.423224 kJ/mol
# GULP energy per Si atom -5579.157972 kJ/mol
# Density = 2.301668 g / cm^3
# Si number density = 23.069182 Si / 1000 Ang^3
#
#
#
# Elastic Constant Matrix: (Units=GPa)
#
#
# Indices 1 2 3 4 5 6 
#
# 1 148.0773 65.8158 43.7925 0.0000 -35.3506 0.0000
# 2 65.8158 106.4453 19.9520 0.0000 -17.3959 0.0000
# 3 43.7925 19.9520 105.8119 0.0000 -10.2831 0.0000
# 4 0.0000 0.0000 0.0000 33.5312 0.0000 -16.4529
# 5 -35.3506 -17.3959 -10.2831 0.0000 56.4717 0.0000
# 6 0.0000 0.0000 0.0000 -16.4529 0.0000 31.2025
#
#
#
# Elastic Compliance Matrix: (Units=1/GPa)
#
#
# Indices 1 2 3 4 5 6 
#
# 1 0.011335 -0.005634 -0.003164 0.000000 0.004784 0.000000
# 2 -0.005634 0.012965 -0.000069 0.000000 0.000455 0.000000
# 3 -0.003164 -0.000069 0.010769 0.000000 -0.000041 0.000000
# 4 0.000000 0.000000 0.000000 0.040232 0.000000 0.021214
# 5 0.004784 0.000455 -0.000041 0.000000 0.020835 0.000000
# 6 0.000000 0.000000 0.000000 0.021214 0.000000 0.043235
#
#
# Mechanical properties :
#
#
# Convention : Reuss Voigt Hill
#
# Bulk Modulus (GPa) = 57.68292 68.82837 63.25564
# Shear Modulus (GPa) = 30.69674 39.62603 35.16139
#
# Velocity S-wave (km/s) = 3.65175 4.14902 3.90830
# Velocity P-wave (km/s) = 6.54515 7.27000 6.91707
#
# Compressibility (1/GPa) = 0.01733616
#
# Stress axis : x y z
#
# Youngs Moduli (GPa) = 88.22205 77.13057 92.85682
#
# Poissons Ratio (x) = 0.43452 0.29380
# Poissons Ratio (y) = 0.49701 0.00640
# Poissons Ratio (z) = 0.27914 0.00532
#
# Static dielectric constant tensor:
#      x y z
#    x 1.897590 0.000000 0.037620 
#    y 0.000000 1.676960 0.000000 
#    z 0.037620 0.000000 1.970800 
# 
# From -- ./inp_files/307587.got.cif
#   From: 2010.05.17/outbox.cif.g08.bks.cpg/sg15_154_cif.got.tgz:307587.got - 2010.06.03 18:47:42.
