data_PCOD9276750
_publ_section_title
;
Structure prediction by ZEFSAII (Michael W. Deem and Ramdas Pophale) SiO2 
 PCOD9276750
Probable space group: C 2/C
;
_chemical_formula_sum "Si O2"
_cell_formula_units_Z 48
_cell_length_a 10.597244
_cell_length_b 16.436746
_cell_length_c 12.120557
_cell_angle_alpha 90.000000
_cell_angle_beta 91.104894
_cell_angle_gamma 90.000000
_cell_volume 2110.817081
_symmetry_space_group_name_H-M "C 2/C"
_symmetry_group_IT_number 15
_symmetry_cell_setting 'monoclinic'
loop_
_space_group_symop_operation_xyz
x,y,z
-x,y,1/2-z
-x,-y,-z
x,-y,1/2+z
1/2+x,1/2+y,z
1/2-x,1/2+y,1/2-z
1/2-x,1/2-y,-z
1/2+x,1/2-y,1/2+z
loop_
_atom_site_type_symbol
_atom_site_label
_atom_site_fract_x
_atom_site_fract_y
_atom_site_fract_z
Si Si1 0.637181 0.613000 0.292193
Si Si2 0.496477 0.810955 0.619478
Si Si3 0.273197 0.878872 0.011434
Si Si4 0.781330 0.442394 0.597176
Si Si5 0.177692 0.824540 0.439911
Si Si6 0.849665 0.304794 0.239522
O O1 0.500000 0.585584 0.250000
O O2 0.657202 0.612566 0.424037
O O3 0.738514 0.560849 0.224034
O O4 0.653253 0.706668 0.251862
O O5 0.500000 0.815051 0.750000
O O6 0.623920 0.835876 0.563818
O O7 0.397026 0.880634 0.583015
O O8 0.452939 0.719578 0.590079
O O9 0.281563 0.828128 0.124351
O O10 0.309130 0.969090 0.052346
O O11 0.672586 0.400596 0.520692
O O12 0.250000 0.750000 0.500000
O O13 0.264517 0.842198 0.335161
O O14 0.000000 0.327799 0.250000
#
# Coordination Sequence:
#
# PCOD9276750 Si02
#       6
#     8   8   8   8   8   8
#     4  11  25  46  68  93 137 187 240 293 348 419
#     4  11  21  41  69 104 139 176 231 294 354 420
#     4  12  26  41  72 104 139 180 244 291 354 427
#     4  11  24  43  65  99 146 182 223 298 367 414
#     4  10  20  40  64  95 137 183 225 276 354 416
#     4  11  22  41  71 104 136 183 239 291 346 426
#
# _framework density 22.740010000000002
#
# number of rings (size 3 to 8) (size 9 to 14) (size 15 to 20)
#    0.000    1.000    5.000    3.000    4.667    1.333 
#    0.000    0.833    0.000    0.000    0.000    0.000 
#    0.000    0.000    0.000    0.000    0.000    0.000 
#
# Total GULP energy -134129.147930 kJ/mol
# GULP energy per Si atom -5588.714497 kJ/mol
# Density = 2.268825 g / cm^3
# Si number density = 22.740010 Si / 1000 Ang^3
#
#
#
# Elastic Constant Matrix: (Units=GPa)
#
#
# Indices 1 2 3 4 5 6 
#
# 1 74.5727 6.5612 32.6480 0.0000 14.6418 0.0000
# 2 6.5612 69.3122 11.7400 0.0000 -1.3660 0.0000
# 3 32.6480 11.7400 153.0860 0.0000 0.9132 0.0000
# 4 0.0000 0.0000 0.0000 20.6949 0.0000 8.4889
# 5 14.6418 -1.3660 0.9132 0.0000 27.7989 0.0000
# 6 0.0000 0.0000 0.0000 8.4889 0.0000 10.4088
#
#
#
# Elastic Compliance Matrix: (Units=1/GPa)
#
#
# Indices 1 2 3 4 5 6 
#
# 1 0.016733 -0.001176 -0.003426 0.000000 -0.008758 0.000000
# 2 -0.001176 0.014716 -0.000886 0.000000 0.001372 0.000000
# 3 -0.003426 -0.000886 0.007322 0.000000 0.001520 0.000000
# 4 0.000000 0.000000 0.000000 0.072612 0.000000 -0.059219
# 5 -0.008758 0.001372 0.001520 0.000000 0.040603 0.000000
# 6 0.000000 0.000000 0.000000 -0.059219 0.000000 0.144368
#
#
# Mechanical properties :
#
#
# Convention : Reuss Voigt Hill
#
# Bulk Modulus (GPa) = 35.97887 44.31884 40.14885
# Shear Modulus (GPa) = 15.79305 28.18197 21.98751
#
# Velocity S-wave (km/s) = 2.63820 3.52421 3.11289
# Velocity P-wave (km/s) = 5.01362 6.00764 5.53299
#
# Compressibility (1/GPa) = 0.02779409
#
# Stress axis : x y z
#
# Youngs Moduli (GPa) = 59.76279 67.95365 136.57822
#
# Poissons Ratio (x) = 0.07993 0.46793
# Poissons Ratio (y) = 0.07030 0.12099
# Poissons Ratio (z) = 0.20475 0.06020
#
# Static dielectric constant tensor:
#      x y z
#    x 1.847960 0.000000 0.108940 
#    y 0.000000 1.804580 0.000000 
#    z 0.108940 0.000000 1.832540 
# 
# From -- ./inp_files/87358.got.cif
#   From: 2010.05.17/outbox.cif.g08.bks.cpg/sg15_44_cif.got.tgz:87358.got - 2010.06.03 18:47:42.
