data_PCOD9276468
_publ_section_title
;
Structure prediction by ZEFSAII (Michael W. Deem and Ramdas Pophale) SiO2 
 PCOD9276468
Probable space group: C 2/C
;
_chemical_formula_sum "Si O2"
_cell_formula_units_Z 56
_cell_length_a 13.559336
_cell_length_b 5.758848
_cell_length_c 30.996035
_cell_angle_alpha 90.000000
_cell_angle_beta 94.871906
_cell_angle_gamma 90.000000
_cell_volume 2411.616572
_symmetry_space_group_name_H-M "C 2/C"
_symmetry_group_IT_number 15
_symmetry_cell_setting 'monoclinic'
loop_
_space_group_symop_operation_xyz
x,y,z
-x,y,1/2-z
-x,-y,-z
x,-y,1/2+z
1/2+x,1/2+y,z
1/2-x,1/2+y,1/2-z
1/2-x,1/2-y,-z
1/2+x,1/2-y,1/2+z
loop_
_atom_site_type_symbol
_atom_site_label
_atom_site_fract_x
_atom_site_fract_y
_atom_site_fract_z
Si Si1 0.578943 0.529201 0.068854
Si Si2 0.798989 0.168705 0.153457
Si Si3 0.453613 0.717884 0.632548
Si Si4 0.553099 0.004007 0.788627
Si Si5 0.291077 0.995355 0.575201
Si Si6 0.420568 0.811705 0.011075
Si Si7 0.795494 0.292642 0.765414
O O1 0.540781 0.417156 0.111613
O O2 0.687805 0.647211 0.075383
O O3 0.482653 0.668767 0.049170
O O4 0.598348 0.343889 0.031457
O O5 0.868783 0.342071 0.182931
O O6 0.774189 0.288498 0.107125
O O7 0.709981 0.147093 0.183950
O O8 0.867041 0.946399 0.148141
O O9 0.494510 0.870636 0.673167
O O10 0.389986 0.867186 0.595837
O O11 0.500000 0.158895 0.750000
O O12 0.604639 0.823500 0.757853
O O13 0.323760 0.078722 0.529152
O O14 0.500000 0.000000 0.000000
O O15 0.736028 0.522937 0.744247
#
# Coordination Sequence:
#
# PCOD9276468 Si02
#       7
#     8   8   8   8   8   8   8
#     4  11  25  42  69 102 129 178 219 271 347 407
#     4  10  22  42  62  89 134 173 220 287 333 409
#     4  11  22  45  64  97 136 166 230 286 327 416
#     4  10  23  40  62  94 128 176 225 281 343 406
#     4  11  24  43  68  98 132 177 219 276 345 400
#     4  11  23  45  68  96 140 168 221 278 324 421
#     4  10  20  40  62  88 125 175 224 276 345 407
#
# _framework density 23.220938
#
# number of rings (size 3 to 8) (size 9 to 14) (size 15 to 20)
#    0.000    1.429    4.286    0.429    2.000    2.286 
#    2.571    0.000    0.000    0.000    0.000    0.000 
#    0.000    0.000    0.000    0.000    0.000    0.000 
#
# Total GULP energy -156022.929281 kJ/mol
# GULP energy per Si atom -5572.247474 kJ/mol
# Density = 2.316809 g / cm^3
# Si number density = 23.220938 Si / 1000 Ang^3
#
#
#
# Elastic Constant Matrix: (Units=GPa)
#
#
# Indices 1 2 3 4 5 6 
#
# 1 97.3582 -1.0828 16.2445 0.0000 -20.3201 0.0000
# 2 -1.0828 33.1907 4.1131 0.0000 -3.7619 0.0000
# 3 16.2445 4.1131 89.7574 0.0000 -18.2583 0.0000
# 4 0.0000 0.0000 0.0000 11.0888 0.0000 -21.5899
# 5 -20.3201 -3.7619 -18.2583 0.0000 35.2046 0.0000
# 6 0.0000 0.0000 0.0000 -21.5899 0.0000 7.8583
#
#
#
# Elastic Compliance Matrix: (Units=1/GPa)
#
#
# Indices 1 2 3 4 5 6 
#
# 1 0.011783 0.001227 -0.000870 0.000000 0.006481 0.000000
# 2 0.001227 0.030680 -0.000913 0.000000 0.003513 0.000000
# 3 -0.000870 -0.000913 0.012542 0.000000 0.005904 0.000000
# 4 0.000000 0.000000 0.000000 -0.020735 0.000000 -0.056968
# 5 0.006481 0.003513 0.005904 0.000000 0.035584 0.000000
# 6 0.000000 0.000000 0.000000 -0.056968 0.000000 -0.029259
#
#
# Mechanical properties :
#
#
# Convention : Reuss Voigt Hill
#
# Bulk Modulus (GPa) = 18.55604 28.76176 23.65890
# Shear Modulus (GPa) = 83.79183 24.23242 54.01212
#
# Velocity S-wave (km/s) = 6.01356 3.23392 4.82810
# Velocity P-wave (km/s) = 7.49838 5.13394 6.42585
#
# Compressibility (1/GPa) = 0.05389082
#
# Stress axis : x y z
#
# Youngs Moduli (GPa) = 84.86919 32.59418 79.73457
#
# Poissons Ratio (x) = -0.03999 0.06940
# Poissons Ratio (y) = -0.10412 0.07283
# Poissons Ratio (z) = 0.07387 0.02977
#
# Static dielectric constant tensor:
#      x y z
#    x 2.110770 0.000000 0.137680 
#    y 0.000000 1.945820 0.000000 
#    z 0.137680 0.000000 1.970720 
# 
# From -- ./inp_files/312359.got.cif
#   From: 2010.05.17/outbox.cif.g08.bks.cpg/sg15_157_cif.got.tgz:312359.got - 2010.06.03 18:47:42.
