data_PCOD9276267
_publ_section_title
;
Structure prediction by ZEFSAII (Michael W. Deem and Ramdas Pophale) SiO2 
 PCOD9276267
Probable space group: C 2/C
;
_chemical_formula_sum "Si O2"
_cell_formula_units_Z 36
_cell_length_a 16.685670
_cell_length_b 8.060543
_cell_length_c 22.353674
_cell_angle_alpha 90.000000
_cell_angle_beta 143.849759
_cell_angle_gamma 90.000000
_cell_volume 1773.530533
_symmetry_space_group_name_H-M "C 2/C"
_symmetry_group_IT_number 15
_symmetry_cell_setting 'monoclinic'
loop_
_space_group_symop_operation_xyz
x,y,z
-x,y,1/2-z
-x,-y,-z
x,-y,1/2+z
1/2+x,1/2+y,z
1/2-x,1/2+y,1/2-z
1/2-x,1/2-y,-z
1/2+x,1/2-y,1/2+z
loop_
_atom_site_type_symbol
_atom_site_label
_atom_site_fract_x
_atom_site_fract_y
_atom_site_fract_z
Si Si1 0.358831 0.500906 0.688247
Si Si2 0.676316 0.020525 0.785216
Si Si3 0.194945 0.226331 0.533805
Si Si4 0.116554 0.848663 0.673851
Si Si5 0.500000 0.815943 0.750000
O O1 0.500000 0.414379 0.750000
O O2 0.230589 0.399438 0.588262
O O3 0.369970 0.488796 0.766250
O O4 0.375083 0.685191 0.671701
O O5 0.727074 0.089186 0.879731
O O6 0.658394 0.178598 0.731868
O O7 0.785054 0.899671 0.820365
O O8 0.535698 0.927197 0.714644
O O9 0.250000 0.250000 0.500000
O O10 0.038239 0.176094 0.438791
#
# Coordination Sequence:
#
# PCOD9276267 Si02
#       5
#     8   8   8   8   4
#     4   9  20  38  63  84 125 160 203 246 312 354
#     4  11  24  39  65  88 124 165 203 252 312 352
#     4  11  20  38  65  93 121 161 206 250 305 370
#     4  11  22  41  61  91 124 160 206 256 302 368
#     4  10  20  40  58  86 120 160 204 244 304 364
#
# _framework density 20.298496
#
# number of rings (size 3 to 8) (size 9 to 14) (size 15 to 20)
#    0.667    0.889    2.222    3.333    3.111    0.000 
#    0.000   22.222    0.000    0.000    0.000    0.000 
#    0.000    0.000    0.000    0.000    0.000    0.000 
#
# Total GULP energy -100358.642384 kJ/mol
# GULP energy per Si atom -5575.480132 kJ/mol
# Density = 2.025230 g / cm^3
# Si number density = 20.298496 Si / 1000 Ang^3
#
#
#
# Elastic Constant Matrix: (Units=GPa)
#
#
# Indices 1 2 3 4 5 6 
#
# 1 140.7014 57.2262 28.2825 0.0000 3.4958 0.0000
# 2 57.2262 106.2289 30.3838 0.0000 1.0852 0.0000
# 3 28.2825 30.3838 77.5174 0.0000 -4.5155 0.0000
# 4 0.0000 0.0000 0.0000 3.0108 0.0000 5.0120
# 5 3.4958 1.0852 -4.5155 0.0000 23.9369 0.0000
# 6 0.0000 0.0000 0.0000 5.0120 0.0000 48.2775
#
#
#
# Elastic Compliance Matrix: (Units=1/GPa)
#
#
# Indices 1 2 3 4 5 6 
#
# 1 0.009327 -0.004518 -0.001718 0.000000 -0.001482 0.000000
# 2 -0.004518 0.012829 -0.003413 0.000000 -0.000566 0.000000
# 3 -0.001718 -0.003413 0.015054 0.000000 0.003246 0.000000
# 4 0.000000 0.000000 0.000000 0.401528 0.000000 -0.041685
# 5 -0.001482 -0.000566 0.003246 0.000000 0.042631 0.000000
# 6 0.000000 0.000000 0.000000 -0.041685 0.000000 0.025041
#
#
# Mechanical properties :
#
#
# Convention : Reuss Voigt Hill
#
# Bulk Modulus (GPa) = 55.82986 61.80365 58.81675
# Shear Modulus (GPa) = 9.40414 28.94873 19.17643
#
# Velocity S-wave (km/s) = 2.15476 3.78054 3.07697
# Velocity P-wave (km/s) = 5.80989 7.04061 6.45465
#
# Compressibility (1/GPa) = 0.01791156
#
# Stress axis : x y z
#
# Youngs Moduli (GPa) = 107.21565 77.94546 66.42641
#
# Poissons Ratio (x) = 0.35215 0.11415
# Poissons Ratio (y) = 0.48439 0.22673
# Poissons Ratio (z) = 0.18425 0.26605
#
# Static dielectric constant tensor:
#      x y z
#    x 1.731650 0.000000 -0.001630 
#    y 0.000000 1.783170 0.000000 
#    z -0.001630 0.000000 1.699300 
# 
# From -- ./inp_files/102438.got.cif
#   From: 2010.05.17/outbox.cif.g08.bks.cpg/sg15_52_cif.got.tgz:102438.got - 2010.06.03 18:47:42.
