data_PCOD9276248
_publ_section_title
;
Structure prediction by ZEFSAII (Michael W. Deem and Ramdas Pophale) SiO2 
 PCOD9276248
Probable space group: C 2/C
;
_chemical_formula_sum "Si O2"
_cell_formula_units_Z 52
_cell_length_a 14.056916
_cell_length_b 11.757615
_cell_length_c 16.187642
_cell_angle_alpha 90.000000
_cell_angle_beta 119.704889
_cell_angle_gamma 90.000000
_cell_volume 2323.845861
_symmetry_space_group_name_H-M "C 2/C"
_symmetry_group_IT_number 15
_symmetry_cell_setting 'monoclinic'
loop_
_space_group_symop_operation_xyz
x,y,z
-x,y,1/2-z
-x,-y,-z
x,-y,1/2+z
1/2+x,1/2+y,z
1/2-x,1/2+y,1/2-z
1/2-x,1/2-y,-z
1/2+x,1/2-y,1/2+z
loop_
_atom_site_type_symbol
_atom_site_label
_atom_site_fract_x
_atom_site_fract_y
_atom_site_fract_z
Si Si1 0.272497 0.145680 0.220180
Si Si2 0.104987 0.469754 0.451207
Si Si3 0.325683 0.535098 0.937422
Si Si4 0.593818 0.655230 0.931752
Si Si5 0.784460 0.667688 0.903713
Si Si6 0.000000 0.574512 0.250000
Si Si7 0.102403 0.283216 0.580871
O O1 0.218619 0.271246 0.185829
O O2 0.310815 0.142479 0.330703
O O3 0.202192 0.039983 0.156172
O O4 0.384823 0.138890 0.213803
O O5 0.217687 0.459437 0.448486
O O6 0.135360 0.569000 0.530614
O O7 0.072073 0.358734 0.488596
O O8 0.017901 0.504613 0.343213
O O9 0.353898 0.663239 0.930697
O O10 0.417316 0.466603 0.029430
O O11 0.660364 0.636628 0.876461
O O12 0.491396 0.739039 0.895415
O O13 0.679504 0.720620 0.028413
#
# Coordination Sequence:
#
# PCOD9276248 Si02
#       7
#     8   8   8   8   8   4   8
#     4  10  21  34  60  86 115 150 193 248 286 352
#     4  10  22  38  61  83 121 158 193 244 302 349
#     4   9  21  41  54  79 123 163 188 239 303 348
#     4   9  18  35  60  81 111 155 194 242 285 346
#     4   9  18  37  58  84 118 153 185 239 311 341
#     4  10  20  40  56  86 116 146 202 242 302 344
#     4  12  22  34  61  90 115 156 204 239 290 358
#
# _framework density 22.3767
#
# number of rings (size 3 to 8) (size 9 to 14) (size 15 to 20)
#    0.000    2.154    0.000    5.538    2.154    2.462 
#    8.308    0.000    0.000    0.000    0.000    1.077 
#    0.000    0.000    0.000    0.000    0.000    0.000 
#
# Total GULP energy -144841.274054 kJ/mol
# GULP energy per Si atom -5570.818233 kJ/mol
# Density = 2.232577 g / cm^3
# Si number density = 22.376700 Si / 1000 Ang^3
#
#
#
# Elastic Constant Matrix: (Units=GPa)
#
#
# Indices 1 2 3 4 5 6 
#
# 1 36.6333 30.1065 5.7739 0.0000 4.2787 0.0000
# 2 30.1065 147.5666 59.1993 0.0000 -0.1751 0.0000
# 3 5.7739 59.1993 102.5686 0.0000 4.9912 0.0000
# 4 0.0000 0.0000 0.0000 37.3827 0.0000 -4.9835
# 5 4.2787 -0.1751 4.9912 0.0000 13.9473 0.0000
# 6 0.0000 0.0000 0.0000 -4.9835 0.0000 13.2653
#
#
#
# Elastic Compliance Matrix: (Units=1/GPa)
#
#
# Indices 1 2 3 4 5 6 
#
# 1 0.035271 -0.008657 0.003606 0.000000 -0.012219 0.000000
# 2 -0.008657 0.010997 -0.006102 0.000000 0.004977 0.000000
# 3 0.003606 -0.006102 0.013359 0.000000 -0.005963 0.000000
# 4 0.000000 0.000000 0.000000 0.028161 0.000000 0.010579
# 5 -0.012219 0.004977 -0.005963 0.000000 0.077644 0.000000
# 6 0.000000 0.000000 0.000000 0.010579 0.000000 0.079359
#
#
# Mechanical properties :
#
#
# Convention : Reuss Voigt Hill
#
# Bulk Modulus (GPa) = 26.79529 52.99198 39.89363
# Shear Modulus (GPa) = 17.88680 25.69832 21.79256
#
# Velocity S-wave (km/s) = 2.83034 3.39254 3.12411
# Velocity P-wave (km/s) = 4.76254 6.25132 5.55701
#
# Compressibility (1/GPa) = 0.03732000
#
# Stress axis : x y z
#
# Youngs Moduli (GPa) = 28.35182 90.93778 74.85870
#
# Poissons Ratio (x) = 0.78725 -0.26991
# Poissons Ratio (y) = 0.24544 0.45677
# Poissons Ratio (z) = -0.10223 0.55488
#
# Static dielectric constant tensor:
#      x y z
#    x 1.871470 0.000000 0.014170 
#    y 0.000000 1.835480 0.000000 
#    z 0.014170 0.000000 1.872580 
# 
# From -- ./inp_files/161078.got.cif
#   From: 2010.05.17/outbox.cif.g08.bks.cpg/sg15_81_cif.got.tgz:161078.got - 2010.06.03 18:47:42.
