data_PCOD9276038
_publ_section_title
;
Structure prediction by ZEFSAII (Michael W. Deem and Ramdas Pophale) SiO2 
 PCOD9276038
Probable space group: C 2/C
;
_chemical_formula_sum "Si O2"
_cell_formula_units_Z 36
_cell_length_a 12.226426
_cell_length_b 10.827633
_cell_length_c 16.405828
_cell_angle_alpha 90.000000
_cell_angle_beta 142.924247
_cell_angle_gamma 90.000000
_cell_volume 1309.348241
_symmetry_space_group_name_H-M "C 2/C"
_symmetry_group_IT_number 15
_symmetry_cell_setting 'monoclinic'
loop_
_space_group_symop_operation_xyz
x,y,z
-x,y,1/2-z
-x,-y,-z
x,-y,1/2+z
1/2+x,1/2+y,z
1/2-x,1/2+y,1/2-z
1/2-x,1/2-y,-z
1/2+x,1/2-y,1/2+z
loop_
_atom_site_type_symbol
_atom_site_label
_atom_site_fract_x
_atom_site_fract_y
_atom_site_fract_z
Si Si1 0.674622 0.535284 0.015444
Si Si2 0.000000 0.395607 0.250000
Si Si3 0.424116 0.719940 0.792481
Si Si4 0.594888 0.319086 0.697199
Si Si5 0.801371 0.501333 0.416524
O O1 0.823408 0.478919 0.164041
O O2 0.430533 0.333505 0.054444
O O3 0.532204 0.422192 0.919571
O O4 0.795654 0.539070 0.005650
O O5 0.006577 0.304483 0.333196
O O6 0.500000 0.768442 0.750000
O O7 0.266280 0.796690 0.740448
O O8 0.322286 0.596291 0.703649
O O9 0.694416 0.372547 0.837086
O O10 0.000000 0.500000 0.500000
#
# Coordination Sequence:
#
# PCOD9276038 Si02
#       5
#     8   4   8   8   8
#     4  10  22  41  62  98 128 169 218 259 330 376
#     4  12  22  34  70  96 128 162 220 280 302 384
#     4   9  21  41  65  90 132 170 211 262 322 388
#     4  11  21  38  68  98 123 168 220 268 314 384
#     4  10  20  39  67  92 125 173 211 262 321 387
#
# _framework density 27.494596000000001
#
# number of rings (size 3 to 8) (size 9 to 14) (size 15 to 20)
#    0.000    1.778    2.222    3.333    3.111    0.889 
#    0.000    4.444   22.000    0.000    0.000    0.000 
#    0.000    0.000    0.000    0.000    0.000    0.000 
#
# Total GULP energy -100774.809087 kJ/mol
# GULP energy per Si atom -5598.600505 kJ/mol
# Density = 2.743202 g / cm^3
# Si number density = 27.494596 Si / 1000 Ang^3
#
#
#
# Elastic Constant Matrix: (Units=GPa)
#
#
# Indices 1 2 3 4 5 6 
#
# 1 142.5997 36.3376 9.2500 0.0000 37.0883 0.0000
# 2 36.3376 113.1903 41.1277 0.0001 19.2748 0.0000
# 3 9.2500 41.1277 94.3220 0.0002 21.5756 0.0001
# 4 0.0000 0.0001 0.0002 30.6478 0.0001 6.2304
# 5 37.0883 19.2748 21.5756 0.0001 41.8229 0.0001
# 6 0.0000 0.0000 0.0001 6.2304 0.0001 38.6463
#
#
#
# Elastic Compliance Matrix: (Units=1/GPa)
#
#
# Indices 1 2 3 4 5 6 
#
# 1 0.009723 -0.002409 0.002058 0.000000 -0.008574 0.000000
# 2 -0.002409 0.011394 -0.004557 0.000000 -0.000764 0.000000
# 3 0.002058 -0.004557 0.013973 0.000000 -0.006933 0.000000
# 4 0.000000 0.000000 0.000000 0.033734 0.000000 -0.005439
# 5 -0.008574 -0.000764 -0.006933 0.000000 0.035442 0.000000
# 6 0.000000 0.000000 0.000000 -0.005439 0.000000 0.026752
#
#
# Mechanical properties :
#
#
# Convention : Reuss Voigt Hill
#
# Bulk Modulus (GPa) = 39.56692 58.17140 48.86916
# Shear Modulus (GPa) = 33.49848 39.78317 36.64083
#
# Velocity S-wave (km/s) = 3.49430 3.80800 3.65452
# Velocity P-wave (km/s) = 5.54096 6.36693 5.96825
#
# Compressibility (1/GPa) = 0.02527364
#
# Stress axis : x y z
#
# Youngs Moduli (GPa) = 102.84928 87.76520 71.56534
#
# Poissons Ratio (x) = 0.21145 -0.14729
# Poissons Ratio (y) = 0.24779 0.32614
# Poissons Ratio (z) = -0.21168 0.39997
#
# Static dielectric constant tensor:
#      x y z
#    x 2.182580 0.000000 -0.060930 
#    y 0.000000 2.145150 0.000000 
#    z -0.060930 0.000000 2.266270 
# 
# From -- ./inp_files/144450.got.cif
#   From: 2010.05.17/outbox.cif.g08.bks.cpg/sg15_73_cif.got.tgz:144450.got - 2010.06.03 18:47:42.
