data_PCOD9276579
_publ_section_title
;
Structure prediction by ZEFSAII (Michael W. Deem and Ramdas Pophale) SiO2 
 PCOD9276579
Probable space group: C 2/C
;
_chemical_formula_sum "Si O2"
_cell_formula_units_Z 32
_cell_length_a 23.872382
_cell_length_b 8.063996
_cell_length_c 13.516204
_cell_angle_alpha 90.000000
_cell_angle_beta 29.275875
_cell_angle_gamma 90.000000
_cell_volume 1272.398558
_symmetry_space_group_name_H-M "C 2/C"
_symmetry_group_IT_number 15
_symmetry_cell_setting 'monoclinic'
loop_
_space_group_symop_operation_xyz
x,y,z
-x,y,1/2-z
-x,-y,-z
x,-y,1/2+z
1/2+x,1/2+y,z
1/2-x,1/2+y,1/2-z
1/2-x,1/2-y,-z
1/2+x,1/2-y,1/2+z
loop_
_atom_site_type_symbol
_atom_site_label
_atom_site_fract_x
_atom_site_fract_y
_atom_site_fract_z
Si Si1 0.489411 0.643199 0.384634
Si Si2 0.319236 0.598149 0.937328
Si Si3 0.730193 0.459794 0.773623
Si Si4 0.342657 0.168355 0.741113
O O1 0.500000 0.684164 0.250000
O O2 0.560826 0.470233 0.287904
O O3 0.358509 0.608018 0.613623
O O4 0.546646 0.773676 0.370596
O O5 0.250000 0.750000 0.000000
O O6 0.330695 0.625688 0.037321
O O7 0.237580 0.436800 0.062822
O O8 0.724701 0.328810 0.695775
O O9 0.844582 0.542350 0.642982
#
# Coordination Sequence:
#
# PCOD9276579 Si02
#       4
#     8   8   8   8
#     4  10  20  40  63  90 125 168 203 261 314 364
#     4   9  21  37  62  86 121 165 207 258 307 368
#     4   9  22  38  62  90 126 164 202 261 319 362
#     4  10  21  38  63  90 124 165 204 259 310 381
#
# _framework density 25.149353000000001
#
# number of rings (size 3 to 8) (size 9 to 14) (size 15 to 20)
#    1.500    1.000    0.000    1.500    3.500    0.000 
#    0.000    8.750    0.000    0.000    0.000    0.000 
#    0.000    0.000    0.000    0.000    0.000    0.000 
#
# Total GULP energy -89247.319929 kJ/mol
# GULP energy per Si atom -5577.957496 kJ/mol
# Density = 2.509211 g / cm^3
# Si number density = 25.149353 Si / 1000 Ang^3
#
#
#
# Elastic Constant Matrix: (Units=GPa)
#
#
# Indices 1 2 3 4 5 6 
#
# 1 181.3942 98.2216 25.0730 0.0000 -21.2630 0.0000
# 2 98.2216 117.8009 42.1918 0.0001 -13.5179 0.0000
# 3 25.0730 42.1918 50.5240 0.0001 -17.7898 0.0000
# 4 0.0000 0.0001 0.0001 35.1773 -0.0001 -7.2138
# 5 -21.2630 -13.5179 -17.7898 -0.0001 38.1293 0.0000
# 6 0.0000 0.0000 0.0000 -7.2138 0.0000 88.1096
#
#
#
# Elastic Compliance Matrix: (Units=1/GPa)
#
#
# Indices 1 2 3 4 5 6 
#
# 1 0.011022 -0.010393 0.004878 0.000000 0.004737 0.000000
# 2 -0.010393 0.021920 -0.014900 0.000000 -0.004976 0.000000
# 3 0.004878 -0.014900 0.034596 0.000000 0.013579 0.000000
# 4 0.000000 0.000000 0.000000 0.028913 0.000000 0.002367
# 5 0.004737 -0.004976 0.013579 0.000000 0.033440 0.000000
# 6 0.000000 0.000000 0.000000 0.002367 0.000000 0.011543
#
#
# Mechanical properties :
#
#
# Convention : Reuss Voigt Hill
#
# Bulk Modulus (GPa) = 37.44319 75.63245 56.53782
# Shear Modulus (GPa) = 26.15535 44.56542 35.36039
#
# Velocity S-wave (km/s) = 3.22840 4.21412 3.75376
# Velocity P-wave (km/s) = 5.36819 7.33600 6.42785
#
# Compressibility (1/GPa) = 0.02670712
#
# Stress axis : x y z
#
# Youngs Moduli (GPa) = 90.73058 45.62040 28.90545
#
# Poissons Ratio (x) = 0.47414 -0.14099
# Poissons Ratio (y) = 0.94297 0.43068
# Poissons Ratio (z) = -0.44254 0.67972
#
# Static dielectric constant tensor:
#      x y z
#    x 2.067450 0.000000 0.031540 
#    y 0.000000 2.036910 0.000000 
#    z 0.031540 0.000000 2.026370 
# 
# From -- ./inp_files/165173.got.cif
#   From: 2010.05.17/outbox.cif.g08.bks.cpg/sg15_83_cif.got.tgz:165173.got - 2010.06.03 18:47:42.
