data_PCOD9276465
_publ_section_title
;
Structure prediction by ZEFSAII (Michael W. Deem and Ramdas Pophale) SiO2 
 PCOD9276465
Probable space group: C 2/C
;
_chemical_formula_sum "Si O2"
_cell_formula_units_Z 60
_cell_length_a 26.009246
_cell_length_b 8.214021
_cell_length_c 27.047800
_cell_angle_alpha 90.000000
_cell_angle_beta 150.589629
_cell_angle_gamma 90.000000
_cell_volume 2837.601158
_symmetry_space_group_name_H-M "C 2/C"
_symmetry_group_IT_number 15
_symmetry_cell_setting 'monoclinic'
loop_
_space_group_symop_operation_xyz
x,y,z
-x,y,1/2-z
-x,-y,-z
x,-y,1/2+z
1/2+x,1/2+y,z
1/2-x,1/2+y,1/2-z
1/2-x,1/2-y,-z
1/2+x,1/2-y,1/2+z
loop_
_atom_site_type_symbol
_atom_site_label
_atom_site_fract_x
_atom_site_fract_y
_atom_site_fract_z
Si Si1 0.352030 0.449740 0.257276
Si Si2 0.500000 0.168541 0.750000
Si Si3 0.271004 0.810425 0.195489
Si Si4 0.107941 0.845988 0.314118
Si Si5 0.141576 0.380033 0.125273
Si Si6 0.426226 0.256967 0.417453
Si Si7 0.298473 0.986822 0.626340
Si Si8 0.843669 0.875708 0.568736
O O1 0.327205 0.641554 0.227975
O O2 0.413577 0.394675 0.260458
O O3 0.232125 0.384328 0.160166
O O4 0.403864 0.372081 0.350773
O O5 0.401488 0.068770 0.687705
O O6 0.452373 0.281287 0.666633
O O7 0.305719 0.819713 0.280944
O O8 0.144939 0.812364 0.095710
O O9 0.302801 0.957080 0.186614
O O10 0.188943 0.699902 0.376697
O O11 0.000000 0.796092 0.250000
O O12 0.154569 0.989878 0.386563
O O13 0.107055 0.564091 0.112079
O O14 0.048162 0.262068 0.031423
O O15 0.190505 0.049857 0.511906
O O16 0.750000 0.750000 0.500000
#
# Coordination Sequence:
#
# PCOD9276465 Si02
#       8
#     8   4   8   8   8   8   8   8
#     4  10  21  39  61  89 127 165 209 270 325 380
#     4  10  20  40  62  88 122 166 216 264 324 380
#     4  10  21  37  63  93 129 163 209 264 329 388
#     4  12  24  44  65  91 133 176 224 276 329 395
#     4   9  19  39  64  91 125 164 206 262 325 397
#     4   9  19  39  63  93 124 163 212 259 322 400
#     4  11  23  41  62  92 128 175 213 272 329 395
#     4  10  22  41  66  88 123 164 220 274 327 386
#
# _framework density 21.144621000000001
#
# number of rings (size 3 to 8) (size 9 to 14) (size 15 to 20)
#    0.000    1.867    1.333    2.800    0.000    2.667 
#    4.800    4.000    0.000    0.000    0.000    0.000 
#    0.000    0.000    0.000    0.000    0.000    0.000 
#
# Total GULP energy -167132.559724 kJ/mol
# GULP energy per Si atom -5571.085324 kJ/mol
# Density = 2.109649 g / cm^3
# Si number density = 21.144621 Si / 1000 Ang^3
#
#
#
# Elastic Constant Matrix: (Units=GPa)
#
#
# Indices 1 2 3 4 5 6 
#
# 1 77.4895 1.2552 -2.4972 0.0000 -1.0904 0.0000
# 2 1.2552 54.4273 8.4232 0.0000 -0.9907 0.0000
# 3 -2.4972 8.4232 64.6935 0.0000 -2.9646 0.0000
# 4 0.0000 0.0000 0.0000 27.2927 0.0000 -10.9862
# 5 -1.0904 -0.9907 -2.9646 0.0000 17.5133 0.0000
# 6 0.0000 0.0000 0.0000 -10.9862 0.0000 2.3963
#
#
#
# Elastic Compliance Matrix: (Units=1/GPa)
#
#
# Indices 1 2 3 4 5 6 
#
# 1 0.012942 -0.000373 0.000589 0.000000 0.000884 0.000000
# 2 -0.000373 0.018769 -0.002429 0.000000 0.000627 0.000000
# 3 0.000589 -0.002429 0.015915 0.000000 0.002593 0.000000
# 4 0.000000 0.000000 0.000000 -0.043338 0.000000 -0.198685
# 5 0.000884 0.000627 0.002593 0.000000 0.057629 0.000000
# 6 0.000000 0.000000 0.000000 -0.198685 0.000000 -0.493589
#
#
# Mechanical properties :
#
#
# Convention : Reuss Voigt Hill
#
# Bulk Modulus (GPa) = 23.14892 23.44141 23.29517
# Shear Modulus (GPa) = -12.11116 22.06906 4.97895
#
# Velocity S-wave (km/s) = -2.39587 3.23417 1.53617
# Velocity P-wave (km/s) = 1.82155 5.00567 3.76662
#
# Compressibility (1/GPa) = 0.04319857
#
# Stress axis : x y z
#
# Youngs Moduli (GPa) = 77.26516 53.27889 62.83224
#
# Poissons Ratio (x) = 0.01990 -0.03699
# Poissons Ratio (y) = 0.02886 0.15265
# Poissons Ratio (z) = -0.04549 0.12944
#
# Static dielectric constant tensor:
#      x y z
#    x 1.751200 0.000000 0.018500 
#    y 0.000000 1.835760 0.000000 
#    z 0.018500 0.000000 1.784640 
# 
# From -- ./inp_files/302093.got.cif
#   From: 2010.05.17/outbox.cif.g08.bks.cpg/sg15_152_cif.got.tgz:302093.got - 2010.06.03 18:47:42.
