data_PCOD9276990
_publ_section_title
;
Structure prediction by ZEFSAII (Michael W. Deem and Ramdas Pophale) SiO2 
 PCOD9276990
Probable space group: C 2/C
;
_chemical_formula_sum "Si O2"
_cell_formula_units_Z 24
_cell_length_a 13.762413
_cell_length_b 13.911667
_cell_length_c 7.798990
_cell_angle_alpha 90.000000
_cell_angle_beta 141.447825
_cell_angle_gamma 90.000000
_cell_volume 930.590067
_symmetry_space_group_name_H-M "C 2/C"
_symmetry_group_IT_number 15
_symmetry_cell_setting 'monoclinic'
loop_
_space_group_symop_operation_xyz
x,y,z
-x,y,1/2-z
-x,-y,-z
x,-y,1/2+z
1/2+x,1/2+y,z
1/2-x,1/2+y,1/2-z
1/2-x,1/2-y,-z
1/2+x,1/2-y,1/2+z
loop_
_atom_site_type_symbol
_atom_site_label
_atom_site_fract_x
_atom_site_fract_y
_atom_site_fract_z
Si Si1 0.582478 0.400818 0.679985
Si Si2 0.677721 0.967627 0.261212
Si Si3 0.815021 0.147001 0.626611
O O1 0.500000 0.381559 0.750000
O O2 0.500000 0.500000 0.500000
O O3 0.494889 0.331659 0.429148
O O4 0.761983 0.409572 0.985832
O O5 0.723514 0.901956 0.162486
O O6 0.778418 0.066729 0.428991
O O7 0.500000 0.000000 0.000000
O O8 0.750000 0.250000 0.500000
#
# Coordination Sequence:
#
# PCOD9276990 Si02
#       3
#     8   8   8
#     4   8  16  33  59  88 123 166 212 267 334 402
#     4  10  20  40  66  99 135 170 223 292 348 410
#     4  10  21  41  66  95 135 184 228 277 346 422
#
# _framework density 25.790091
#
# number of rings (size 3 to 8) (size 9 to 14) (size 15 to 20)
#    0.000    2.667    0.000    1.000    0.000    0.000 
#    0.000   46.667    0.000    0.000    0.000    0.000 
#    0.000    0.000    0.000    0.000    0.000    0.000 
#
# Total GULP energy -66868.726843 kJ/mol
# GULP energy per Si atom -5572.393904 kJ/mol
# Density = 2.573139 g / cm^3
# Si number density = 25.790091 Si / 1000 Ang^3
#
#
#
# Elastic Constant Matrix: (Units=GPa)
#
#
# Indices 1 2 3 4 5 6 
#
# 1 91.4804 45.1235 78.8547 0.0000 -0.1837 0.0000
# 2 45.1235 124.4802 66.5291 0.0000 -14.8423 0.0000
# 3 78.8547 66.5291 280.3865 0.0000 23.9445 0.0000
# 4 0.0000 0.0000 0.0000 51.0360 0.0000 8.7954
# 5 -0.1837 -14.8423 23.9445 0.0000 60.8686 0.0000
# 6 0.0000 0.0000 0.0000 8.7954 0.0000 28.0713
#
#
#
# Elastic Compliance Matrix: (Units=1/GPa)
#
#
# Indices 1 2 3 4 5 6 
#
# 1 0.015919 -0.003763 -0.003632 0.000000 0.000559 0.000000
# 2 -0.003763 0.010738 -0.001772 0.000000 0.003304 0.000000
# 3 -0.003632 -0.001772 0.005222 0.000000 -0.002497 0.000000
# 4 0.000000 0.000000 0.000000 0.020712 0.000000 -0.006490
# 5 0.000559 0.003304 -0.002497 0.000000 0.018219 0.000000
# 6 0.000000 0.000000 0.000000 -0.006490 0.000000 0.037657
#
#
# Mechanical properties :
#
#
# Convention : Reuss Voigt Hill
#
# Bulk Modulus (GPa) = 73.82359 97.48464 85.65411
# Shear Modulus (GPa) = 38.07622 48.38452 43.23037
#
# Velocity S-wave (km/s) = 3.84655 4.33608 4.09863
# Velocity P-wave (km/s) = 6.95808 7.93411 7.46207
#
# Compressibility (1/GPa) = 0.01354581
#
# Stress axis : x y z
#
# Youngs Moduli (GPa) = 62.81738 93.12402 191.51143
#
# Poissons Ratio (x) = 0.35041 0.69556
# Poissons Ratio (y) = 0.23637 0.33934
# Poissons Ratio (z) = 0.22815 0.16501
#
# Static dielectric constant tensor:
#      x y z
#    x 2.452190 0.000000 -0.040550 
#    y 0.000000 2.089260 0.000000 
#    z -0.040550 0.000000 2.229280 
# 
# From -- ./inp_files/46390.got.cif
#   From: 2010.05.17/outbox.cif.g08.bks.cpg/sg15_24_cif.got.tgz:46390.got - 2010.06.03 18:47:42.
