data_PCOD9276412
_publ_section_title
;
Structure prediction by ZEFSAII (Michael W. Deem and Ramdas Pophale) SiO2 
 PCOD9276412
Probable space group: C 2/C
;
_chemical_formula_sum "Si O2"
_cell_formula_units_Z 40
_cell_length_a 16.317304
_cell_length_b 25.004832
_cell_length_c 13.804522
_cell_angle_alpha 90.000000
_cell_angle_beta 19.968755
_cell_angle_gamma 90.000000
_cell_volume 1923.508712
_symmetry_space_group_name_H-M "C 2/C"
_symmetry_group_IT_number 15
_symmetry_cell_setting 'monoclinic'
loop_
_space_group_symop_operation_xyz
x,y,z
-x,y,1/2-z
-x,-y,-z
x,-y,1/2+z
1/2+x,1/2+y,z
1/2-x,1/2+y,1/2-z
1/2-x,1/2-y,-z
1/2+x,1/2-y,1/2+z
loop_
_atom_site_type_symbol
_atom_site_label
_atom_site_fract_x
_atom_site_fract_y
_atom_site_fract_z
Si Si1 0.500000 0.098164 0.250000
Si Si2 0.234007 0.435442 0.182885
Si Si3 0.907094 0.862704 0.169876
Si Si4 0.219598 0.447890 0.693709
Si Si5 0.928013 0.779968 0.662111
Si Si6 0.500000 0.637510 0.250000
O O1 0.303026 0.136101 0.518554
O O2 0.414944 0.059090 0.258505
O O3 0.326698 0.400244 0.169349
O O4 0.347335 0.494628 0.053137
O O5 0.956468 0.445307 0.517777
O O6 0.295705 0.400756 0.021095
O O7 0.120684 0.895565 0.979693
O O8 0.990444 0.807933 0.028740
O O9 0.167318 0.747467 0.433139
O O10 0.898462 0.825026 0.777731
#
# Coordination Sequence:
#
# PCOD9276412 Si02
#       6
#     4   8   8   8   8   4
#     4  10  22  36  62  95 123 168 218 270 332 388
#     4   9  21  38  60  96 132 175 216 260 330 406
#     4  10  22  40  66  88 131 170 220 278 333 393
#     4  10  20  40  61  91 136 174 213 265 331 401
#     4  11  26  47  71  97 133 178 227 288 343 392
#     4  10  22  42  66 101 135 168 226 274 332 408
#
# _framework density 20.795331000000001
#
# number of rings (size 3 to 8) (size 9 to 14) (size 15 to 20)
#    0.000    2.000    0.000    1.800   11.200    0.000 
#   10.800    1.000    0.000    0.000    0.000    0.000 
#    0.000    0.000    0.000    0.000    0.000    0.000 
#
# Total GULP energy -111521.523379 kJ/mol
# GULP energy per Si atom -5576.076169 kJ/mol
# Density = 2.074800 g / cm^3
# Si number density = 20.795331 Si / 1000 Ang^3
#
#
#
# Elastic Constant Matrix: (Units=GPa)
#
#
# Indices 1 2 3 4 5 6 
#
# 1 22.2502 45.5374 74.0543 -0.0792 25.3248 -0.0834
# 2 45.5374 94.5947 51.7872 0.0812 7.5943 -0.2055
# 3 74.0543 51.7872 86.7886 -0.2428 17.3721 -0.4802
# 4 -0.0792 0.0812 -0.2428 38.3806 0.0897 13.8293
# 5 25.3248 7.5943 17.3721 0.0897 35.3415 0.1644
# 6 -0.0834 -0.2055 -0.4802 13.8293 0.1644 2.9994
#
#
#
# Elastic Compliance Matrix: (Units=1/GPa)
#
#
# Indices 1 2 3 4 5 6 
#
# 1 -0.022493 0.000802 0.017202 0.000901 0.007499 -0.002380
# 2 0.000802 0.015732 -0.010292 -0.000181 0.001103 0.000227
# 3 0.017202 -0.010292 0.005550 0.000559 -0.012839 -0.001211
# 4 0.000901 -0.000181 0.000559 -0.039307 -0.001625 0.181425
# 5 0.007499 0.001103 -0.012839 -0.001625 0.028981 0.004133
# 6 -0.002380 0.000227 -0.001211 0.181425 0.004133 -0.503572
#
#
# Mechanical properties :
#
#
# Convention : Reuss Voigt Hill
#
# Bulk Modulus (GPa) = 70.35143 60.71013 65.53078
# Shear Modulus (GPa) = -9.50937 17.49460 3.99261
#
# Velocity S-wave (km/s) = -2.14074 2.90362 1.38713
# Velocity P-wave (km/s) = 5.27195 6.36387 5.84347
#
# Compressibility (1/GPa) = 0.01421435
#
# Stress axis : x y z
#
# Youngs Moduli (GPa) = -44.45801 63.56613 180.18068
#
# Poissons Ratio (x) = -0.05101 -3.09953
# Poissons Ratio (y) = 0.03568 1.85440
# Poissons Ratio (z) = 0.76478 0.65422
#
# Static dielectric constant tensor:
#      x y z
#    x 1.759950 -0.000160 -0.035530 
#    y -0.000160 1.768820 0.000300 
#    z -0.035530 0.000300 1.812590 
# 
# From -- ./inp_files/4938.got.cif
#   From: 2010.05.17/outbox.cif.g08.bks.cpg/sg15_3_cif.got.tgz:4938.got - 2010.06.03 18:47:42.
