data_PCOD9276520
_publ_section_title
;
Structure prediction by ZEFSAII (Michael W. Deem and Ramdas Pophale) SiO2 
 PCOD9276520
Probable space group: C 2/C
;
_chemical_formula_sum "Si O2"
_cell_formula_units_Z 56
_cell_length_a 11.632963
_cell_length_b 15.273774
_cell_length_c 18.287122
_cell_angle_alpha 90.000000
_cell_angle_beta 113.030547
_cell_angle_gamma 90.000000
_cell_volume 2990.265810
_symmetry_space_group_name_H-M "C 2/C"
_symmetry_group_IT_number 15
_symmetry_cell_setting 'monoclinic'
loop_
_space_group_symop_operation_xyz
x,y,z
-x,y,1/2-z
-x,-y,-z
x,-y,1/2+z
1/2+x,1/2+y,z
1/2-x,1/2+y,1/2-z
1/2-x,1/2-y,-z
1/2+x,1/2-y,1/2+z
loop_
_atom_site_type_symbol
_atom_site_label
_atom_site_fract_x
_atom_site_fract_y
_atom_site_fract_z
Si Si1 0.159660 0.827386 0.621519
Si Si2 0.596637 0.866236 0.060458
Si Si3 0.380307 0.635070 0.056502
Si Si4 0.996186 0.521875 0.665956
Si Si5 0.101885 0.327294 0.717969
Si Si6 0.250158 0.534637 0.474238
Si Si7 0.645272 0.782983 0.569636
O O1 0.156744 0.727546 0.592981
O O2 0.268079 0.837618 0.707725
O O3 0.188489 0.891633 0.561181
O O4 0.021944 0.850322 0.616423
O O5 0.572905 0.919608 0.128559
O O6 0.678036 0.920321 0.023432
O O7 0.461866 0.845559 0.990850
O O8 0.278726 0.672334 0.088082
O O9 0.347337 0.536024 0.028392
O O10 0.362231 0.694280 0.979010
O O11 0.051374 0.423409 0.682646
O O12 0.000000 0.555802 0.750000
O O13 0.855455 0.513916 0.600711
O O14 0.117820 0.272581 0.648161
O O15 0.000000 0.291209 0.750000
#
# Coordination Sequence:
#
# PCOD9276520 Si02
#       7
#     8   8   8   8   8   8   8
#     4  11  24  40  57  95 129 161 200 253 323 362
#     4  11  22  39  67  94 114 163 216 256 299 369
#     4  10  23  37  62  93 125 163 207 250 311 364
#     4  11  21  37  66  93 120 155 211 260 305 359
#     4  11  21  40  64  89 126 164 204 259 315 358
#     4  12  20  40  67  90 122 164 212 256 301 370
#     4  10  20  40  62  94 125 159 209 255 300 374
#
# _framework density 18.727432
#
# number of rings (size 3 to 8) (size 9 to 14) (size 15 to 20)
#    0.000    1.143    5.714    2.143    0.000    2.857 
#    0.000    0.000    0.000    0.000    0.000    0.000 
#    0.000    0.000    0.000    0.000    0.000    0.000 
#
# Total GULP energy -156478.726614 kJ/mol
# GULP energy per Si atom -5588.525950 kJ/mol
# Density = 1.868481 g / cm^3
# Si number density = 18.727432 Si / 1000 Ang^3
#
#
#
# Elastic Constant Matrix: (Units=GPa)
#
#
# Indices 1 2 3 4 5 6 
#
# 1 81.4148 14.5219 30.9030 0.0000 -9.9600 0.0000
# 2 14.5219 36.9916 -1.7625 0.0000 -11.0317 0.0000
# 3 30.9030 -1.7625 59.9560 0.0000 -4.5848 0.0000
# 4 0.0000 0.0000 0.0000 10.0131 0.0000 -1.8024
# 5 -9.9600 -11.0317 -4.5848 0.0000 41.8867 0.0000
# 6 0.0000 0.0000 0.0000 -1.8024 0.0000 33.9759
#
#
#
# Elastic Compliance Matrix: (Units=1/GPa)
#
#
# Indices 1 2 3 4 5 6 
#
# 1 0.017002 -0.006707 -0.008861 0.000000 0.001307 0.000000
# 2 -0.006707 0.032112 0.004967 0.000000 0.007406 0.000000
# 3 -0.008861 0.004967 0.021511 0.000000 0.001556 0.000000
# 4 0.000000 0.000000 0.000000 0.100832 0.000000 0.005349
# 5 0.001307 0.007406 0.001556 0.000000 0.026305 0.000000
# 6 0.000000 0.000000 0.000000 0.005349 0.000000 0.029716
#
#
# Mechanical properties :
#
#
# Convention : Reuss Voigt Hill
#
# Bulk Modulus (GPa) = 20.23317 29.52078 24.87697
# Shear Modulus (GPa) = 18.85694 26.15515 22.50604
#
# Velocity S-wave (km/s) = 3.17664 3.74120 3.47041
# Velocity P-wave (km/s) = 4.92769 5.87024 5.41949
#
# Compressibility (1/GPa) = 0.04942380
#
# Stress axis : x y z
#
# Youngs Moduli (GPa) = 58.81564 31.14146 46.48789
#
# Poissons Ratio (x) = 0.20887 0.41192
# Poissons Ratio (y) = 0.39449 -0.23092
# Poissons Ratio (z) = 0.52115 -0.15469
#
# Static dielectric constant tensor:
#      x y z
#    x 1.650400 0.000000 0.001640 
#    y 0.000000 1.640470 0.000000 
#    z 0.001640 0.000000 1.630340 
# 
# From -- ./inp_files/197961.got.cif
#   From: 2010.05.17/outbox.cif.g08.bks.cpg/sg15_99_cif.got.tgz:197961.got - 2010.06.03 18:47:42.
