data_PCOD9276058
_publ_section_title
;
Structure prediction by ZEFSAII (Michael W. Deem and Ramdas Pophale) SiO2 
 PCOD9276058
Probable space group: C 2/C
;
_chemical_formula_sum "Si O2"
_cell_formula_units_Z 40
_cell_length_a 11.986246
_cell_length_b 18.054507
_cell_length_c 8.686452
_cell_angle_alpha 90.000000
_cell_angle_beta 94.143533
_cell_angle_gamma 90.000000
_cell_volume 1874.884797
_symmetry_space_group_name_H-M "C 2/C"
_symmetry_group_IT_number 15
_symmetry_cell_setting 'monoclinic'
loop_
_space_group_symop_operation_xyz
x,y,z
-x,y,1/2-z
-x,-y,-z
x,-y,1/2+z
1/2+x,1/2+y,z
1/2-x,1/2+y,1/2-z
1/2-x,1/2-y,-z
1/2+x,1/2-y,1/2+z
loop_
_atom_site_type_symbol
_atom_site_label
_atom_site_fract_x
_atom_site_fract_y
_atom_site_fract_z
Si Si1 0.885186 0.802804 0.841876
Si Si2 0.259718 0.364897 0.547421
Si Si3 0.495331 0.416383 0.434341
Si Si4 0.631308 0.149583 0.735497
Si Si5 0.408988 0.988313 0.861021
O O1 0.790409 0.827669 0.712482
O O2 0.856294 0.717698 0.881946
O O3 0.000000 0.800813 0.750000
O O4 0.911759 0.862146 0.978201
O O5 0.376196 0.385819 0.479078
O O6 0.189425 0.327605 0.402270
O O7 0.185213 0.434230 0.588929
O O8 0.500000 0.416414 0.250000
O O9 0.500000 0.500000 0.500000
O O10 0.500000 0.143170 0.750000
O O11 0.655037 0.064666 0.691937
O O12 0.500000 0.956374 0.750000
O O13 0.500000 0.000000 0.000000
#
# Coordination Sequence:
#
# PCOD9276058 Si02
#       5
#     8   8   8   8   8
#     4   9  21  41  67  96 127 170 213 270 330 383
#     4  11  22  41  69  93 129 176 214 263 329 385
#     4  11  25  43  67  97 129 170 222 271 320 384
#     4  10  20  39  67  94 133 166 214 263 327 382
#     4  11  22  39  63  98 129 170 216 263 316 387
#
# _framework density 21.334644000000001
#
# number of rings (size 3 to 8) (size 9 to 14) (size 15 to 20)
#    0.000    1.600    4.000    2.400    5.600    0.000 
#    0.000    2.000    0.000    0.000    0.000    0.000 
#    0.000    0.000    0.000    0.000    0.000    0.000 
#
# Total GULP energy -111405.201261 kJ/mol
# GULP energy per Si atom -5570.260063 kJ/mol
# Density = 2.128609 g / cm^3
# Si number density = 21.334644 Si / 1000 Ang^3
#
#
#
# Elastic Constant Matrix: (Units=GPa)
#
#
# Indices 1 2 3 4 5 6 
#
# 1 60.8175 20.9342 24.9579 0.0000 17.6623 0.0000
# 2 20.9342 131.4145 47.4404 0.0000 8.8835 0.0000
# 3 24.9579 47.4404 113.5571 0.0000 10.9853 0.0000
# 4 0.0000 0.0000 0.0000 25.4145 0.0000 -28.0803
# 5 17.6623 8.8835 10.9853 0.0000 41.0437 0.0000
# 6 0.0000 0.0000 0.0000 -28.0803 0.0000 -67.7709
#
#
#
# Elastic Compliance Matrix: (Units=1/GPa)
#
#
# Indices 1 2 3 4 5 6 
#
# 1 0.020488 -0.001635 -0.003081 0.000000 -0.007638 0.000000
# 2 -0.001635 0.009129 -0.003420 0.000000 -0.000357 0.000000
# 3 -0.003081 -0.003420 0.010997 0.000000 -0.000877 0.000000
# 4 0.000000 0.000000 0.000000 0.026991 0.000000 -0.011184
# 5 -0.007638 -0.000357 -0.000877 0.000000 0.027963 0.000000
# 6 0.000000 0.000000 0.000000 -0.011184 0.000000 -0.010122
#
#
# Mechanical properties :
#
#
# Convention : Reuss Voigt Hill
#
# Bulk Modulus (GPa) = 41.08156 54.71712 47.89934
# Shear Modulus (GPa) = 45.52423 13.90121 29.71272
#
# Velocity S-wave (km/s) = 4.62434 2.55537 3.73594
# Velocity P-wave (km/s) = 6.91450 5.86595 6.41169
#
# Compressibility (1/GPa) = 0.02434182
#
# Stress axis : x y z
#
# Youngs Moduli (GPa) = 48.80896 109.54534 90.93559
#
# Poissons Ratio (x) = 0.17913 0.28016
# Poissons Ratio (y) = 0.07981 0.31098
# Poissons Ratio (z) = 0.15038 0.37462
#
# Static dielectric constant tensor:
#      x y z
#    x 1.731590 0.000000 0.029990 
#    y 0.000000 1.829540 0.000000 
#    z 0.029990 0.000000 1.739410 
# 
# From -- ./inp_files/29364.got.cif
#   From: 2010.05.17/outbox.cif.g08.bks.cpg/sg15_15_cif.got.tgz:29364.got - 2010.06.03 18:47:42.
