data_PCOD9276000
_publ_section_title
;
Structure prediction by ZEFSAII (Michael W. Deem and Ramdas Pophale) SiO2 
 PCOD9276000
Probable space group: C 2/C
;
_chemical_formula_sum "Si O2"
_cell_formula_units_Z 56
_cell_length_a 5.339559
_cell_length_b 18.329857
_cell_length_c 28.394450
_cell_angle_alpha 90.000000
_cell_angle_beta 110.152882
_cell_angle_gamma 90.000000
_cell_volume 2608.916706
_symmetry_space_group_name_H-M "C 2/C"
_symmetry_group_IT_number 15
_symmetry_cell_setting 'monoclinic'
loop_
_space_group_symop_operation_xyz
x,y,z
-x,y,1/2-z
-x,-y,-z
x,-y,1/2+z
1/2+x,1/2+y,z
1/2-x,1/2+y,1/2-z
1/2-x,1/2-y,-z
1/2+x,1/2-y,1/2+z
loop_
_atom_site_type_symbol
_atom_site_label
_atom_site_fract_x
_atom_site_fract_y
_atom_site_fract_z
Si Si1 0.500000 0.833760 0.750000
Si Si2 0.133121 0.920864 0.667143
Si Si3 0.887229 0.213154 0.115397
Si Si4 0.985436 0.296911 0.989831
Si Si5 0.000000 0.896712 0.250000
Si Si6 0.156635 0.355736 0.091722
Si Si7 0.621746 0.987309 0.159427
Si Si8 0.381332 0.715540 0.820163
O O1 0.254111 0.887407 0.723103
O O2 0.492842 0.780529 0.794472
O O3 0.089159 0.853823 0.628559
O O4 0.349787 0.976724 0.660173
O O5 0.842802 0.954642 0.656876
O O6 0.631055 0.186163 0.069308
O O7 0.841645 0.241211 0.165568
O O8 0.989098 0.286537 0.098352
O O9 0.750000 0.250000 0.000000
O O10 0.250000 0.250000 0.000000
O O11 0.084464 0.360078 0.031939
O O12 0.774125 0.943707 0.210373
O O13 0.850412 0.847341 0.279344
O O14 0.083479 0.427987 0.115545
O O15 0.447429 0.326379 0.127925
#
# Coordination Sequence:
#
# PCOD9276000 Si02
#       8
#     4   8   8   8   4   8   8   8
#     4  11  22  42  62  96 129 174 220 266 327 382
#     4  12  26  43  64  93 137 176 218 268 329 397
#     4  11  23  41  71  97 130 170 223 276 334 392
#     4  10  21  38  70 102 128 163 219 278 336 392
#     4   9  22  42  62  98 127 180 226 276 323 406
#     4  10  22  43  66  99 126 172 220 276 329 395
#     4  11  26  44  63  93 136 178 217 268 332 393
#     4  10  20  39  66  98 127 164 226 282 322 379
#
# _framework density 21.464849000000001
#
# number of rings (size 3 to 8) (size 9 to 14) (size 15 to 20)
#    0.000    1.429    2.857    1.714    4.000    1.714 
#    2.571    1.429    0.000    0.000    0.000    0.000 
#    0.000    0.000    0.000    0.000    0.000    0.000 
#
# Total GULP energy -156112.253470 kJ/mol
# GULP energy per Si atom -5575.437624 kJ/mol
# Density = 2.141599 g / cm^3
# Si number density = 21.464849 Si / 1000 Ang^3
#
#
#
# Elastic Constant Matrix: (Units=GPa)
#
#
# Indices 1 2 3 4 5 6 
#
# 1 54.8276 14.2238 18.7358 0.0000 0.9622 0.0000
# 2 14.2238 77.5424 27.7042 0.0000 3.3658 0.0000
# 3 18.7358 27.7042 57.4651 0.0000 14.2997 0.0000
# 4 0.0000 0.0000 0.0000 17.8210 0.0000 17.4011
# 5 0.9622 3.3658 14.2997 0.0000 26.0735 0.0000
# 6 0.0000 0.0000 0.0000 17.4011 0.0000 37.5456
#
#
#
# Elastic Compliance Matrix: (Units=1/GPa)
#
#
# Indices 1 2 3 4 5 6 
#
# 1 0.020931 -0.001517 -0.006890 0.000000 0.003202 0.000000
# 2 -0.001517 0.015825 -0.007690 0.000000 0.002231 0.000000
# 3 -0.006890 -0.007690 0.026687 0.000000 -0.013389 0.000000
# 4 0.000000 0.000000 0.000000 0.102499 0.000000 -0.047505
# 5 0.003202 0.002231 -0.013389 0.000000 0.045290 0.000000
# 6 0.000000 0.000000 0.000000 -0.047505 0.000000 0.048651
#
#
# Mechanical properties :
#
#
# Convention : Reuss Voigt Hill
#
# Bulk Modulus (GPa) = 31.99969 34.57362 33.28665
# Shear Modulus (GPa) = 16.52935 24.89945 20.71440
#
# Velocity S-wave (km/s) = 2.77802 3.40959 3.10988
# Velocity P-wave (km/s) = 5.02296 5.62516 5.33257
#
# Compressibility (1/GPa) = 0.03125031
#
# Stress axis : x y z
#
# Youngs Moduli (GPa) = 47.77684 63.19121 37.47101
#
# Poissons Ratio (x) = 0.09585 0.25816
# Poissons Ratio (y) = 0.07247 0.28814
# Poissons Ratio (z) = 0.32917 0.48593
#
# Static dielectric constant tensor:
#      x y z
#    x 1.813360 0.000000 0.039940 
#    y 0.000000 1.780660 0.000000 
#    z 0.039940 0.000000 1.811740 
# 
# From -- ./inp_files/305718.got.cif
#   From: 2010.05.17/outbox.cif.g08.bks.cpg/sg15_153_cif.got.tgz:305718.got - 2010.06.03 18:47:42.
