data_PCOD9276278
_publ_section_title
;
Structure prediction by ZEFSAII (Michael W. Deem and Ramdas Pophale) SiO2 
 PCOD9276278
Probable space group: C 2/C
;
_chemical_formula_sum "Si O2"
_cell_formula_units_Z 36
_cell_length_a 26.049745
_cell_length_b 14.664449
_cell_length_c 9.293501
_cell_angle_alpha 90.000000
_cell_angle_beta 151.900942
_cell_angle_gamma 90.000000
_cell_volume 1672.118552
_symmetry_space_group_name_H-M "C 2/C"
_symmetry_group_IT_number 15
_symmetry_cell_setting 'monoclinic'
loop_
_space_group_symop_operation_xyz
x,y,z
-x,y,1/2-z
-x,-y,-z
x,-y,1/2+z
1/2+x,1/2+y,z
1/2-x,1/2+y,1/2-z
1/2-x,1/2-y,-z
1/2+x,1/2-y,1/2+z
loop_
_atom_site_type_symbol
_atom_site_label
_atom_site_fract_x
_atom_site_fract_y
_atom_site_fract_z
Si Si1 0.436867 0.886267 0.289443
Si Si2 0.016726 0.905234 0.621065
Si Si3 0.000000 0.543210 0.250000
Si Si4 0.861715 0.735549 0.189880
Si Si5 0.718062 0.721949 0.579329
O O1 0.425208 0.976516 0.164689
O O2 0.555076 0.841272 0.549715
O O3 0.349186 0.810258 0.032393
O O4 0.437539 0.905305 0.464543
O O5 0.135390 0.862349 0.884053
O O6 0.000000 0.916436 0.750000
O O7 0.929804 0.828995 0.356328
O O8 0.000000 0.000000 0.500000
O O9 0.750000 0.750000 0.000000
O O10 0.823020 0.707443 0.936172
O O11 0.750000 0.750000 0.500000
#
# Coordination Sequence:
#
# PCOD9276278 Si02
#       5
#     8   8   4   8   8
#     4  10  22  40  63  89 134 160 209 270 322 374
#     4  11  26  48  68  99 139 177 227 287 332 402
#     4  10  20  40  58  90 122 164 204 264 322 362
#     4  11  22  44  69  92 129 182 220 262 340 396
#     4  11  24  44  68  98 131 178 223 265 337 399
#
# _framework density 21.529574
#
# number of rings (size 3 to 8) (size 9 to 14) (size 15 to 20)
#    0.000    1.333    2.222    2.667    6.222    1.778 
#   24.000    0.000    0.000    0.000    0.000    0.000 
#    0.000    0.000    0.000    0.000    0.000    0.000 
#
# Total GULP energy -100613.499282 kJ/mol
# GULP energy per Si atom -5589.638849 kJ/mol
# Density = 2.148057 g / cm^3
# Si number density = 21.529574 Si / 1000 Ang^3
#
#
#
# Elastic Constant Matrix: (Units=GPa)
#
#
# Indices 1 2 3 4 5 6 
#
# 1 127.6057 24.1533 34.5550 0.0000 -19.7975 0.0000
# 2 24.1533 119.7505 38.0804 0.0000 -4.3595 0.0000
# 3 34.5550 38.0804 102.5163 0.0000 -4.8373 0.0000
# 4 0.0000 0.0000 0.0000 11.3819 0.0000 -22.3705
# 5 -19.7975 -4.3595 -4.8373 0.0000 27.0078 0.0000
# 6 0.0000 0.0000 0.0000 -22.3705 0.0000 30.6317
#
#
#
# Elastic Compliance Matrix: (Units=1/GPa)
#
#
# Indices 1 2 3 4 5 6 
#
# 1 0.009731 -0.000885 -0.002644 0.000000 0.006517 0.000000
# 2 -0.000885 0.009572 -0.003242 0.000000 0.000316 0.000000
# 3 -0.002644 -0.003242 0.011834 0.000000 -0.000342 0.000000
# 4 0.000000 0.000000 0.000000 -0.201798 0.000000 -0.147375
# 5 0.006517 0.000316 -0.000342 0.000000 0.041793 0.000000
# 6 0.000000 0.000000 0.000000 -0.147375 0.000000 -0.074983
#
#
# Mechanical properties :
#
#
# Convention : Reuss Voigt Hill
#
# Bulk Modulus (GPa) = 56.83495 60.38331 58.60913
# Shear Modulus (GPa) = -27.10842 30.67655 1.78407
#
# Velocity S-wave (km/s) = -3.55226 3.77882 0.91129
# Velocity P-wave (km/s) = 3.10340 6.86636 5.32813
#
# Compressibility (1/GPa) = 0.01759481
#
# Stress axis : x y z
#
# Youngs Moduli (GPa) = 102.76307 104.47463 84.50236
#
# Poissons Ratio (x) = 0.09243 0.22342
# Poissons Ratio (y) = 0.09092 0.27399
# Poissons Ratio (z) = 0.27170 0.33874
#
# Static dielectric constant tensor:
#      x y z
#    x 1.813210 0.000000 -0.012780 
#    y 0.000000 1.775090 0.000000 
#    z -0.012780 0.000000 1.735040 
# 
# From -- ./inp_files/37657.got.cif
#   From: 2010.05.17/outbox.cif.g08.bks.cpg/sg15_19_cif.got.tgz:37657.got - 2010.06.03 18:47:42.
