data_PCOD9276201
_publ_section_title
;
Structure prediction by ZEFSAII (Michael W. Deem and Ramdas Pophale) SiO2 
 PCOD9276201
Probable space group: C 2/C
;
_chemical_formula_sum "Si O2"
_cell_formula_units_Z 60
_cell_length_a 11.442273
_cell_length_b 18.250636
_cell_length_c 18.043108
_cell_angle_alpha 90.000000
_cell_angle_beta 131.559358
_cell_angle_gamma 90.000000
_cell_volume 2819.417060
_symmetry_space_group_name_H-M "C 2/C"
_symmetry_group_IT_number 15
_symmetry_cell_setting 'monoclinic'
loop_
_space_group_symop_operation_xyz
x,y,z
-x,y,1/2-z
-x,-y,-z
x,-y,1/2+z
1/2+x,1/2+y,z
1/2-x,1/2+y,1/2-z
1/2-x,1/2-y,-z
1/2+x,1/2-y,1/2+z
loop_
_atom_site_type_symbol
_atom_site_label
_atom_site_fract_x
_atom_site_fract_y
_atom_site_fract_z
Si Si1 0.293329 0.081005 0.428779
Si Si2 0.400810 0.072225 0.308370
Si Si3 0.765739 0.572205 0.995688
Si Si4 0.487170 0.413124 0.483687
Si Si5 0.651081 0.690015 0.165587
Si Si6 0.615893 0.847430 0.099906
Si Si7 0.500000 0.672731 0.250000
Si Si8 0.839838 0.415332 0.222669
O O1 0.357231 0.052991 0.375761
O O2 0.430699 0.133934 0.515847
O O3 0.135229 0.122848 0.342657
O O4 0.263092 0.013620 0.471305
O O5 0.586654 0.081809 0.387489
O O6 0.310280 0.146018 0.248745
O O7 0.346546 0.003386 0.237313
O O8 0.609957 0.600449 0.968985
O O9 0.803192 0.615063 0.936206
O O10 0.500000 0.500000 0.500000
O O11 0.541991 0.368713 0.578275
O O12 0.311461 0.394322 0.387603
O O13 0.655453 0.761949 0.118004
O O14 0.578983 0.713700 0.214596
O O15 0.671106 0.881698 0.200330
O O16 0.000000 0.393607 0.250000
#
# Coordination Sequence:
#
# PCOD9276201 Si02
#       8
#     8   8   8   8   8   8   4   8
#     4  10  20  39  70  99 129 178 230 281 344 404
#     4  10  20  42  66  98 128 175 233 270 342 405
#     4  11  22  42  74  99 133 181 227 283 339 417
#     4  12  26  42  69 103 137 174 232 284 338 404
#     4  11  26  43  64 102 136 180 226 287 349 404
#     4  11  25  44  66  99 139 180 226 279 349 414
#     4  10  24  40  68  94 138 180 230 288 340 410
#     4  12  25  42  70 101 133 179 232 283 334 407
#
# _framework density 21.280995999999998
#
# number of rings (size 3 to 8) (size 9 to 14) (size 15 to 20)
#    0.000    1.067    4.000    2.400    4.667    4.800 
#    0.000    1.333    0.000    0.000    0.000    0.000 
#    0.000    0.000    0.000    0.000    0.000    0.000 
#
# Total GULP energy -167852.662918 kJ/mol
# GULP energy per Si atom -5595.088764 kJ/mol
# Density = 2.123256 g / cm^3
# Si number density = 21.280996 Si / 1000 Ang^3
#
#
#
# Elastic Constant Matrix: (Units=GPa)
#
#
# Indices 1 2 3 4 5 6 
#
# 1 92.5497 6.8747 26.8191 0.0000 4.6014 0.0000
# 2 6.8747 77.9393 16.3452 0.0000 -8.3141 0.0000
# 3 26.8191 16.3452 122.4850 0.0000 11.6913 0.0000
# 4 0.0000 0.0000 0.0000 26.2251 0.0000 -7.7238
# 5 4.6014 -8.3141 11.6913 0.0000 34.9529 0.0000
# 6 0.0000 0.0000 0.0000 -7.7238 0.0000 14.4517
#
#
#
# Elastic Compliance Matrix: (Units=1/GPa)
#
#
# Indices 1 2 3 4 5 6 
#
# 1 0.011581 -0.000618 -0.002369 0.000000 -0.000879 0.000000
# 2 -0.000618 0.013755 -0.002087 0.000000 0.004051 0.000000
# 3 -0.002369 -0.002087 0.009275 0.000000 -0.003287 0.000000
# 4 0.000000 0.000000 0.000000 0.045255 0.000000 0.024187
# 5 -0.000879 0.004051 -0.003287 0.000000 0.030789 0.000000
# 6 0.000000 0.000000 0.000000 0.024187 0.000000 0.082123
#
#
# Mechanical properties :
#
#
# Convention : Reuss Voigt Hill
#
# Bulk Modulus (GPa) = 40.87945 43.67244 42.27595
# Shear Modulus (GPa) = 23.68754 31.32159 27.50456
#
# Velocity S-wave (km/s) = 3.33991 3.84058 3.59896
# Velocity P-wave (km/s) = 5.84161 6.34296 6.09744
#
# Compressibility (1/GPa) = 0.02446217
#
# Stress axis : x y z
#
# Youngs Moduli (GPa) = 86.34641 72.70161 107.81352
#
# Poissons Ratio (x) = 0.04496 0.25545
# Poissons Ratio (y) = 0.05340 0.22499
# Poissons Ratio (z) = 0.20459 0.15172
#
# Static dielectric constant tensor:
#      x y z
#    x 1.801440 0.000000 -0.001830 
#    y 0.000000 1.733770 0.000000 
#    z -0.001830 0.000000 1.748280 
# 
# From -- ./inp_files/240004.got.cif
#   From: 2010.05.17/outbox.cif.g08.bks.cpg/sg15_121_cif.got.tgz:240004.got - 2010.06.03 18:47:42.
