data_PCOD9276730
_publ_section_title
;
Structure prediction by ZEFSAII (Michael W. Deem and Ramdas Pophale) SiO2 
 PCOD9276730
Probable space group: C 2/C
;
_chemical_formula_sum "Si O2"
_cell_formula_units_Z 44
_cell_length_a 19.176236
_cell_length_b 10.956900
_cell_length_c 17.901558
_cell_angle_alpha 90.000000
_cell_angle_beta 147.040508
_cell_angle_gamma 90.000000
_cell_volume 2046.338541
_symmetry_space_group_name_H-M "C 2/C"
_symmetry_group_IT_number 15
_symmetry_cell_setting 'monoclinic'
loop_
_space_group_symop_operation_xyz
x,y,z
-x,y,1/2-z
-x,-y,-z
x,-y,1/2+z
1/2+x,1/2+y,z
1/2-x,1/2+y,1/2-z
1/2-x,1/2-y,-z
1/2+x,1/2-y,1/2+z
loop_
_atom_site_type_symbol
_atom_site_label
_atom_site_fract_x
_atom_site_fract_y
_atom_site_fract_z
Si Si1 0.962799 0.363399 0.563790
Si Si2 0.319200 0.696948 0.683690
Si Si3 0.581020 0.395078 0.969748
Si Si4 0.675338 0.511412 0.188976
Si Si5 0.415958 0.127996 0.482905
Si Si6 0.000000 0.032827 0.750000
O O1 0.832374 0.291373 0.467767
O O2 0.818081 0.973550 0.391303
O O3 0.946985 0.508959 0.560196
O O4 0.979910 0.352088 0.489066
O O5 0.586532 0.190479 0.216193
O O6 0.327474 0.613971 0.766197
O O7 0.386927 0.616020 0.681261
O O8 0.452445 0.416219 0.903494
O O9 0.554422 0.450546 0.865585
O O10 0.607824 0.251820 0.994264
O O11 0.791334 0.590340 0.323640
#
# Coordination Sequence:
#
# PCOD9276730 Si02
#       6
#     8   8   8   8   8   4
#     4  10  22  37  64  97 133 163 222 278 335 383
#     4  10  21  42  62  96 129 175 220 267 327 404
#     4  10  20  40  64  93 131 173 218 270 327 404
#     4   9  20  37  64  91 122 167 225 272 331 372
#     4  10  21  36  64 104 123 161 225 293 324 369
#     4  10  24  42  64  92 138 184 216 254 340 408
#
# _framework density 21.501818
#
# number of rings (size 3 to 8) (size 9 to 14) (size 15 to 20)
#    0.000    2.182    1.818    0.000    2.545    2.182 
#    0.000    9.091    0.000    0.000    0.000    0.000 
#    0.000    0.000    0.000    0.000    0.000    0.000 
#
# Total GULP energy -122917.289682 kJ/mol
# GULP energy per Si atom -5587.149531 kJ/mol
# Density = 2.145288 g / cm^3
# Si number density = 21.501818 Si / 1000 Ang^3
#
#
#
# Elastic Constant Matrix: (Units=GPa)
#
#
# Indices 1 2 3 4 5 6 
#
# 1 72.2653 36.3994 51.9360 0.0000 -2.7142 0.0000
# 2 36.3994 140.0657 75.8873 0.0000 -6.6432 0.0000
# 3 51.9360 75.8873 85.3631 0.0000 11.4896 0.0000
# 4 0.0000 0.0000 0.0000 28.9707 0.0000 -2.1937
# 5 -2.7142 -6.6432 11.4896 0.0000 42.3800 0.0000
# 6 0.0000 0.0000 0.0000 -2.1937 0.0000 18.5988
#
#
#
# Elastic Compliance Matrix: (Units=1/GPa)
#
#
# Indices 1 2 3 4 5 6 
#
# 1 0.028194 0.005918 -0.023645 0.000000 0.009144 0.000000
# 2 0.005918 0.016476 -0.019352 0.000000 0.008208 0.000000
# 3 -0.023645 -0.019352 0.045580 0.000000 -0.016905 0.000000
# 4 0.000000 0.000000 0.000000 0.034829 0.000000 0.004108
# 5 0.009144 0.008208 -0.016905 0.000000 0.030051 0.000000
# 6 0.000000 0.000000 0.000000 0.004108 0.000000 0.054251
#
#
# Mechanical properties :
#
#
# Convention : Reuss Voigt Hill
#
# Bulk Modulus (GPa) = 62.14767 69.57107 65.85937
# Shear Modulus (GPa) = 17.30684 26.88800 22.09742
#
# Velocity S-wave (km/s) = 2.84016 3.54008 3.20925
# Velocity P-wave (km/s) = 6.30250 7.00968 6.66548
#
# Compressibility (1/GPa) = 0.01609071
#
# Stress axis : x y z
#
# Youngs Moduli (GPa) = 35.46865 60.69483 21.93962
#
# Poissons Ratio (x) = -0.35916 0.51876
# Poissons Ratio (y) = -0.20989 0.42458
# Poissons Ratio (z) = 0.83865 1.17457
#
# Static dielectric constant tensor:
#      x y z
#    x 1.788140 0.000000 0.042870 
#    y 0.000000 1.804580 0.000000 
#    z 0.042870 0.000000 1.824770 
# 
# From -- ./inp_files/248031.got.cif
#   From: 2010.05.17/outbox.cif.g08.bks.cpg/sg15_125_cif.got.tgz:248031.got - 2010.06.03 18:47:42.
