data_PCOD9276070
_publ_section_title
;
Structure prediction by ZEFSAII (Michael W. Deem and Ramdas Pophale) SiO2 
 PCOD9276070
Probable space group: C 2/C
;
_chemical_formula_sum "Si O2"
_cell_formula_units_Z 60
_cell_length_a 16.106239
_cell_length_b 12.238213
_cell_length_c 13.964328
_cell_angle_alpha 90.000000
_cell_angle_beta 83.789054
_cell_angle_gamma 90.000000
_cell_volume 2736.374311
_symmetry_space_group_name_H-M "C 2/C"
_symmetry_group_IT_number 15
_symmetry_cell_setting 'monoclinic'
loop_
_space_group_symop_operation_xyz
x,y,z
-x,y,1/2-z
-x,-y,-z
x,-y,1/2+z
1/2+x,1/2+y,z
1/2-x,1/2+y,1/2-z
1/2-x,1/2-y,-z
1/2+x,1/2-y,1/2+z
loop_
_atom_site_type_symbol
_atom_site_label
_atom_site_fract_x
_atom_site_fract_y
_atom_site_fract_z
Si Si1 0.263873 0.580238 0.641460
Si Si2 0.497418 0.015868 0.613723
Si Si3 0.289015 0.560944 0.860357
Si Si4 0.342800 0.112249 0.135525
Si Si5 0.886680 0.709865 0.924926
Si Si6 0.086635 0.046644 0.029367
Si Si7 0.250000 0.250000 0.500000
Si Si8 0.857074 0.631283 0.340458
O O1 0.288491 0.590097 0.749108
O O2 0.201699 0.677094 0.613707
O O3 0.343835 0.562224 0.563493
O O4 0.208585 0.469296 0.640997
O O5 0.402452 0.992609 0.652032
O O6 0.553199 0.919573 0.650797
O O7 0.500000 0.000000 0.500000
O O8 0.542699 0.129912 0.628420
O O9 0.245804 0.441090 0.873486
O O10 0.235434 0.642986 0.931946
O O11 0.377328 0.540797 0.899789
O O12 0.346957 0.176094 0.234340
O O13 0.374329 0.174658 0.038181
O O14 0.916933 0.834080 0.920905
O O15 0.000000 0.000000 0.000000
O O16 0.170373 0.282889 0.577578
#
# Coordination Sequence:
#
# PCOD9276070 Si02
#       8
#     8   8   8   8   8   8   4   8
#     4  10  22  45  68  95 130 184 236 279 339 424
#     4   9  18  36  62  95 128 164 222 290 341 403
#     4  11  25  41  68  96 136 179 232 288 348 409
#     4  10  20  39  67  97 126 171 232 292 331 416
#     4  10  21  41  73  96 131 180 230 274 354 426
#     4  12  26  44  66  98 142 185 230 292 349 424
#     4  12  22  40  62  94 132 168 222 282 352 400
#     4  10  21  36  62  95 130 170 217 287 353 402
#
# _framework density 21.926825999999998
#
# number of rings (size 3 to 8) (size 9 to 14) (size 15 to 20)
#    0.000    1.600    2.667    2.400    1.867    4.800 
#    0.000    0.000    8.800    0.000    0.000    0.000 
#    0.000    0.000    0.000    0.000    0.000    0.000 
#
# Total GULP energy -167062.668731 kJ/mol
# GULP energy per Si atom -5568.755624 kJ/mol
# Density = 2.187692 g / cm^3
# Si number density = 21.926826 Si / 1000 Ang^3
#
#
#
# Elastic Constant Matrix: (Units=GPa)
#
#
# Indices 1 2 3 4 5 6 
#
# 1 121.7416 33.6101 31.5409 0.0000 21.2765 0.0000
# 2 33.6101 101.4421 24.4591 0.0000 7.6239 0.0000
# 3 31.5409 24.4591 109.9368 0.0000 21.3416 0.0000
# 4 0.0000 0.0000 0.0000 0.3413 0.0000 0.3184
# 5 21.2765 7.6239 21.3416 0.0000 32.3335 0.0000
# 6 0.0000 0.0000 0.0000 0.3184 0.0000 20.9296
#
#
#
# Elastic Compliance Matrix: (Units=1/GPa)
#
#
# Indices 1 2 3 4 5 6 
#
# 1 0.010205 -0.002671 -0.001322 0.000000 -0.005213 0.000000
# 2 -0.002671 0.011147 -0.001772 0.000000 0.000298 0.000000
# 3 -0.001322 -0.001772 0.011033 0.000000 -0.005995 0.000000
# 4 0.000000 0.000000 0.000000 2.972007 0.000000 -0.045219
# 5 -0.005213 0.000298 -0.005995 0.000000 0.038245 0.000000
# 6 0.000000 0.000000 0.000000 -0.045219 0.000000 0.048467
#
#
# Mechanical properties :
#
#
# Convention : Reuss Voigt Hill
#
# Bulk Modulus (GPa) = 47.94443 56.92673 52.43558
# Shear Modulus (GPa) = 1.60793 26.95490 14.28142
#
# Velocity S-wave (km/s) = 0.85727 3.50996 2.55487
# Velocity P-wave (km/s) = 4.78466 6.51498 5.71568
#
# Compressibility (1/GPa) = 0.02085748
#
# Stress axis : x y z
#
# Youngs Moduli (GPa) = 97.99185 89.70638 90.63462
#
# Poissons Ratio (x) = 0.23958 0.11978
# Poissons Ratio (y) = 0.26170 0.16059
# Poissons Ratio (z) = 0.12951 0.15895
#
# Static dielectric constant tensor:
#      x y z
#    x 1.786840 0.000000 0.018050 
#    y 0.000000 1.879230 0.000000 
#    z 0.018050 0.000000 1.829720 
# 
# From -- ./inp_files/160934.got.cif
#   From: 2010.05.17/outbox.cif.g08.bks.cpg/sg15_81_cif.got.tgz:160934.got - 2010.06.03 18:47:42.
