data_PCOD9276658
_publ_section_title
;
Structure prediction by ZEFSAII (Michael W. Deem and Ramdas Pophale) SiO2 
 PCOD9276658
Probable space group: C 2/C
;
_chemical_formula_sum "Si O2"
_cell_formula_units_Z 52
_cell_length_a 7.636935
_cell_length_b 29.849005
_cell_length_c 12.868292
_cell_angle_alpha 90.000000
_cell_angle_beta 126.185440
_cell_angle_gamma 90.000000
_cell_volume 2367.569779
_symmetry_space_group_name_H-M "C 2/C"
_symmetry_group_IT_number 15
_symmetry_cell_setting 'monoclinic'
loop_
_space_group_symop_operation_xyz
x,y,z
-x,y,1/2-z
-x,-y,-z
x,-y,1/2+z
1/2+x,1/2+y,z
1/2-x,1/2+y,1/2-z
1/2-x,1/2-y,-z
1/2+x,1/2-y,1/2+z
loop_
_atom_site_type_symbol
_atom_site_label
_atom_site_fract_x
_atom_site_fract_y
_atom_site_fract_z
Si Si1 0.205017 0.451539 0.899030
Si Si2 0.119978 0.025603 0.398277
Si Si3 0.337224 0.623649 0.098238
Si Si4 0.161515 0.204180 0.697895
Si Si5 0.000000 0.287995 0.750000
Si Si6 0.885618 0.295752 0.058553
Si Si7 0.340768 0.645410 0.476225
O O1 0.419661 0.461770 0.904592
O O2 0.215635 0.401311 0.949611
O O3 0.000000 0.455621 0.750000
O O4 0.227432 0.488473 0.997132
O O5 0.245048 0.072732 0.425538
O O6 0.000000 0.011404 0.250000
O O7 0.500000 0.628689 0.250000
O O8 0.476409 0.630870 0.043034
O O9 0.173340 0.664777 0.040935
O O10 0.064460 0.253869 0.679068
O O11 0.356351 0.206855 0.849262
O O12 0.294794 0.193120 0.640998
O O13 0.964358 0.168810 0.616527
O O14 0.189854 0.319130 0.862319
O O15 0.750000 0.250000 0.000000
#
# Coordination Sequence:
#
# PCOD9276658 Si02
#       7
#     8   8   8   8   4   8   8
#     4  10  20  40  64  88 120 158 194 243 304 359
#     4   9  20  40  62  90 119 150 197 250 296 353
#     4   9  19  37  61  86 112 148 196 240 288 343
#     4  10  22  38  53  83 115 148 197 233 291 335
#     4  12  22  38  56  80 118 156 194 236 282 358
#     4  10  21  36  59  84 113 150 191 245 286 339
#     4  10  21  38  59  81 116 157 190 238 289 353
#
# _framework density 21.963448
#
# number of rings (size 3 to 8) (size 9 to 14) (size 15 to 20)
#    0.000    2.154    0.769    2.308    4.308    0.615 
#   12.462    0.000    0.000    0.000    0.000    0.000 
#    0.000    0.000    0.000    0.000    0.000    0.000 
#
# Total GULP energy -144887.033688 kJ/mol
# GULP energy per Si atom -5572.578219 kJ/mol
# Density = 2.191346 g / cm^3
# Si number density = 21.963448 Si / 1000 Ang^3
#
#
#
# Elastic Constant Matrix: (Units=GPa)
#
#
# Indices 1 2 3 4 5 6 
#
# 1 40.7228 11.4436 13.6395 0.0000 2.9855 0.0000
# 2 11.4436 196.5099 136.4856 0.0000 27.2030 0.0000
# 3 13.6395 136.4856 154.8864 0.0000 26.4290 0.0000
# 4 0.0000 0.0000 0.0000 62.2685 0.0000 7.5388
# 5 2.9855 27.2030 26.4290 0.0000 25.9160 0.0000
# 6 0.0000 0.0000 0.0000 7.5388 0.0000 22.3912
#
#
#
# Elastic Compliance Matrix: (Units=1/GPa)
#
#
# Indices 1 2 3 4 5 6 
#
# 1 0.025320 0.000233 -0.002295 0.000000 -0.000821 0.000000
# 2 0.000233 0.013243 -0.011276 0.000000 -0.002428 0.000000
# 3 -0.002295 -0.011276 0.017591 0.000000 -0.005839 0.000000
# 4 0.000000 0.000000 0.000000 0.016742 0.000000 -0.005637
# 5 -0.000821 -0.002428 -0.005839 0.000000 0.047184 0.000000
# 6 0.000000 0.000000 0.000000 -0.005637 0.000000 0.046558
#
#
# Mechanical properties :
#
#
# Convention : Reuss Voigt Hill
#
# Bulk Modulus (GPa) = 33.92326 79.47292 56.69809
# Shear Modulus (GPa) = 24.61355 37.48516 31.04936
#
# Velocity S-wave (km/s) = 3.35126 4.13571 3.76398
# Velocity P-wave (km/s) = 5.51846 7.68558 6.69035
#
# Compressibility (1/GPa) = 0.02947830
#
# Stress axis : x y z
#
# Youngs Moduli (GPa) = 39.49502 75.51127 56.84690
#
# Poissons Ratio (x) = -0.01762 0.13047
# Poissons Ratio (y) = -0.00921 0.64100
# Poissons Ratio (z) = 0.09065 0.85146
#
# Static dielectric constant tensor:
#      x y z
#    x 1.952780 0.000000 0.002050 
#    y 0.000000 1.853980 0.000000 
#    z 0.002050 0.000000 1.850100 
# 
# From -- ./inp_files/138770.got.cif
#   From: 2010.05.17/outbox.cif.g08.bks.cpg/sg15_70_cif.got.tgz:138770.got - 2010.06.03 18:47:42.
