data_PCOD9276910
_publ_section_title
;
Structure prediction by ZEFSAII (Michael W. Deem and Ramdas Pophale) SiO2 
 PCOD9276910
Probable space group: C 2/C
;
_chemical_formula_sum "Si O2"
_cell_formula_units_Z 52
_cell_length_a 25.146537
_cell_length_b 16.313982
_cell_length_c 9.160585
_cell_angle_alpha 90.000000
_cell_angle_beta 38.546204
_cell_angle_gamma 90.000000
_cell_volume 2341.805725
_symmetry_space_group_name_H-M "C 2/C"
_symmetry_group_IT_number 15
_symmetry_cell_setting 'monoclinic'
loop_
_space_group_symop_operation_xyz
x,y,z
-x,y,1/2-z
-x,-y,-z
x,-y,1/2+z
1/2+x,1/2+y,z
1/2-x,1/2+y,1/2-z
1/2-x,1/2-y,-z
1/2+x,1/2-y,1/2+z
loop_
_atom_site_type_symbol
_atom_site_label
_atom_site_fract_x
_atom_site_fract_y
_atom_site_fract_z
Si Si1 0.156279 0.521545 0.318955
Si Si2 0.980504 0.085560 0.618405
Si Si3 0.693775 0.115189 0.529483
Si Si4 0.877845 0.657942 0.316672
Si Si5 0.846574 0.194934 0.036725
Si Si6 0.051734 0.250844 0.409779
Si Si7 0.500000 0.048569 0.250000
O O1 0.172107 0.549759 0.449425
O O2 0.200068 0.439928 0.161789
O O3 0.172297 0.600716 0.186233
O O4 0.054718 0.505487 0.522599
O O5 0.000000 0.075578 0.750000
O O6 0.035873 0.154484 0.412185
O O7 0.886940 0.127621 0.840693
O O8 0.000000 0.000000 0.500000
O O9 0.780340 0.156725 0.290684
O O10 0.622515 0.186796 0.694754
O O11 0.815239 0.726339 0.516023
O O12 0.927256 0.601536 0.328391
O O13 0.960178 0.707095 0.077395
O O14 0.918421 0.237758 0.985663
#
# Coordination Sequence:
#
# PCOD9276910 Si02
#       7
#     8   8   8   8   8   8   4
#     4  12  25  38  63  96 136 162 208 265 330 384
#     4   9  20  41  65  91 117 165 219 269 306 364
#     4  12  25  41  60 100 131 173 208 259 334 397
#     4  11  19  39  65  89 121 163 214 264 308 375
#     4  10  22  40  66  88 127 168 214 259 319 386
#     4  10  20  40  66  90 121 166 218 257 316 389
#     4  12  18  38  66  94 116 166 206 266 308 384
#
# _framework density 22.205086000000001
#
# number of rings (size 3 to 8) (size 9 to 14) (size 15 to 20)
#    0.000    1.231    4.615    2.769    0.000    3.077 
#    8.308    0.000    0.000    0.000    0.000    0.000 
#    0.000    0.000    0.000    0.000    0.000    0.000 
#
# Total GULP energy -144800.810329 kJ/mol
# GULP energy per Si atom -5569.261936 kJ/mol
# Density = 2.215455 g / cm^3
# Si number density = 22.205086 Si / 1000 Ang^3
#
#
#
# Elastic Constant Matrix: (Units=GPa)
#
#
# Indices 1 2 3 4 5 6 
#
# 1 22.8305 8.1987 6.3071 0.0000 3.1650 0.0000
# 2 8.1987 159.2842 69.0059 0.0000 1.8539 0.0000
# 3 6.3071 69.0059 118.0221 0.0000 -11.3617 0.0000
# 4 0.0000 0.0000 0.0000 50.7733 0.0000 12.6426
# 5 3.1650 1.8539 -11.3617 0.0000 24.3135 0.0000
# 6 0.0000 0.0000 0.0000 12.6426 0.0000 20.5339
#
#
#
# Elastic Compliance Matrix: (Units=1/GPa)
#
#
# Indices 1 2 3 4 5 6 
#
# 1 0.045880 -0.001240 -0.002401 0.000000 -0.007000 0.000000
# 2 -0.001240 0.008667 -0.005287 0.000000 -0.002970 0.000000
# 3 -0.002401 -0.005287 0.012316 0.000000 0.006471 0.000000
# 4 0.000000 0.000000 0.000000 0.023262 0.000000 -0.014322
# 5 -0.007000 -0.002970 0.006471 0.000000 0.045291 0.000000
# 6 0.000000 0.000000 0.000000 -0.014322 0.000000 0.057518
#
#
# Mechanical properties :
#
#
# Convention : Reuss Voigt Hill
#
# Bulk Modulus (GPa) = 20.40530 51.90668 36.15599
# Shear Modulus (GPa) = 22.01441 33.56581 27.79011
#
# Velocity S-wave (km/s) = 3.15209 3.89218 3.54152
# Velocity P-wave (km/s) = 4.73888 6.60496 5.74815
#
# Compressibility (1/GPa) = 0.04900687
#
# Stress axis : x y z
#
# Youngs Moduli (GPa) = 21.79599 115.38014 81.19843
#
# Poissons Ratio (x) = 0.14308 0.19493
# Poissons Ratio (y) = 0.02703 0.42931
# Poissons Ratio (z) = 0.05232 0.61003
#
# Static dielectric constant tensor:
#      x y z
#    x 1.872230 0.000000 0.006820 
#    y 0.000000 1.905120 0.000000 
#    z 0.006820 0.000000 1.917420 
# 
# From -- ./inp_files/70083.got.cif
#   From: 2010.05.17/outbox.cif.g08.bks.cpg/sg15_36_cif.got.tgz:70083.got - 2010.06.03 18:47:42.
