data_PCOD9276858
_publ_section_title
;
Structure prediction by ZEFSAII (Michael W. Deem and Ramdas Pophale) SiO2 
 PCOD9276858
Probable space group: C 2/C
;
_chemical_formula_sum "Si O2"
_cell_formula_units_Z 40
_cell_length_a 23.710968
_cell_length_b 8.839120
_cell_length_c 10.043211
_cell_angle_alpha 90.000000
_cell_angle_beta 40.802906
_cell_angle_gamma 90.000000
_cell_volume 1375.464048
_symmetry_space_group_name_H-M "C 2/C"
_symmetry_group_IT_number 15
_symmetry_cell_setting 'monoclinic'
loop_
_space_group_symop_operation_xyz
x,y,z
-x,y,1/2-z
-x,-y,-z
x,-y,1/2+z
1/2+x,1/2+y,z
1/2-x,1/2+y,1/2-z
1/2-x,1/2-y,-z
1/2+x,1/2-y,1/2+z
loop_
_atom_site_type_symbol
_atom_site_label
_atom_site_fract_x
_atom_site_fract_y
_atom_site_fract_z
Si Si1 0.886513 0.244804 0.863661
Si Si2 0.648998 0.290142 0.356445
Si Si3 0.783407 0.992878 0.957570
Si Si4 0.000000 0.003468 0.250000
Si Si5 0.872321 0.311003 0.327115
Si Si6 0.000000 0.502080 0.250000
O O1 0.873859 0.301553 0.735806
O O2 0.961480 0.118768 0.716709
O O3 0.920486 0.376215 0.899137
O O4 0.808784 0.123096 0.019449
O O5 0.718440 0.408988 0.174828
O O6 0.569351 0.392730 0.552308
O O7 0.668004 0.194552 0.451694
O O8 0.858510 0.864132 0.809781
O O9 0.695994 0.903787 0.136591
O O10 0.036278 0.392673 0.303560
#
# Coordination Sequence:
#
# PCOD9276858 Si02
#       6
#     8   8   8   4   8   4
#     4   9  22  41  60  96 130 175 215 265 340 383
#     4  10  20  40  65  97 124 177 220 269 328 399
#     4   9  23  44  66  93 132 179 219 264 339 394
#     4  11  17  36  68  93 125 170 222 267 321 398
#     4  11  22  44  68 100 133 173 222 276 321 393
#     4  11  25  40  66 101 131 174 220 285 319 384
#
# _framework density 29.081094
#
# number of rings (size 3 to 8) (size 9 to 14) (size 15 to 20)
#    1.200    0.800    2.000    1.200    0.000    1.600 
#   14.400    0.000    0.000    0.000    0.000    0.000 
#    0.000    0.000    0.000    0.000    0.000    0.000 
#
# Total GULP energy -111480.079000 kJ/mol
# GULP energy per Si atom -5574.003950 kJ/mol
# Density = 2.901490 g / cm^3
# Si number density = 29.081094 Si / 1000 Ang^3
#
#
#
# Elastic Constant Matrix: (Units=GPa)
#
#
# Indices 1 2 3 4 5 6 
#
# 1 138.4233 64.8709 3.5557 0.0000 -21.0388 0.0000
# 2 64.8709 228.0305 14.5696 0.0000 -25.5781 0.0000
# 3 3.5557 14.5696 96.6886 0.0000 8.3311 0.0000
# 4 0.0000 0.0000 0.0000 38.1649 0.0000 -10.8613
# 5 -21.0388 -25.5781 8.3311 0.0000 23.8195 0.0000
# 6 0.0000 0.0000 0.0000 -10.8613 0.0000 81.5204
#
#
#
# Elastic Compliance Matrix: (Units=1/GPa)
#
#
# Indices 1 2 3 4 5 6 
#
# 1 0.009047 -0.001838 -0.000592 0.000000 0.006224 0.000000
# 2 -0.001838 0.005510 -0.001168 0.000000 0.004702 0.000000
# 3 -0.000592 -0.001168 0.011026 0.000000 -0.005633 0.000000
# 4 0.000000 0.000000 0.000000 0.027235 0.000000 0.003629
# 5 0.006224 0.004702 -0.005633 0.000000 0.054500 0.000000
# 6 0.000000 0.000000 0.000000 0.003629 0.000000 0.012750
#
#
# Mechanical properties :
#
#
# Convention : Reuss Voigt Hill
#
# Bulk Modulus (GPa) = 54.38545 69.90387 62.14466
# Shear Modulus (GPa) = 37.48348 54.04403 45.76375
#
# Velocity S-wave (km/s) = 3.59406 4.31558 3.97124
# Velocity P-wave (km/s) = 5.99708 6.99443 6.51487
#
# Compressibility (1/GPa) = 0.01838727
#
# Stress axis : x y z
#
# Youngs Moduli (GPa) = 110.53839 181.48013 90.69762
#
# Poissons Ratio (x) = 0.33349 0.05370
# Poissons Ratio (y) = 0.20313 0.10593
# Poissons Ratio (z) = 0.06545 0.21196
#
# Static dielectric constant tensor:
#      x y z
#    x 2.443720 0.000000 -0.182680 
#    y 0.000000 2.266090 0.000000 
#    z -0.182680 0.000000 2.230600 
# 
# From -- ./inp_files/121351.got.cif
#   From: 2010.05.17/outbox.cif.g08.bks.cpg/sg15_61_cif.got.tgz:121351.got - 2010.06.03 18:47:42.
