data_PCOD9276430
_publ_section_title
;
Structure prediction by ZEFSAII (Michael W. Deem and Ramdas Pophale) SiO2 
 PCOD9276430
Probable space group: C 2/C
;
_chemical_formula_sum "Si O2"
_cell_formula_units_Z 40
_cell_length_a 12.491797
_cell_length_b 32.818022
_cell_length_c 5.081126
_cell_angle_alpha 90.000000
_cell_angle_beta 113.877311
_cell_angle_gamma 90.000000
_cell_volume 1904.760176
_symmetry_space_group_name_H-M "C 2/C"
_symmetry_group_IT_number 15
_symmetry_cell_setting 'monoclinic'
loop_
_space_group_symop_operation_xyz
x,y,z
-x,y,1/2-z
-x,-y,-z
x,-y,1/2+z
1/2+x,1/2+y,z
1/2-x,1/2+y,1/2-z
1/2-x,1/2-y,-z
1/2+x,1/2-y,1/2+z
loop_
_atom_site_type_symbol
_atom_site_label
_atom_site_fract_x
_atom_site_fract_y
_atom_site_fract_z
Si Si1 0.320373 0.767072 0.820742
Si Si2 0.500000 0.284331 0.750000
Si Si3 0.362930 0.388310 0.159756
Si Si4 0.249961 0.529321 0.614728
Si Si5 0.287659 0.343463 0.608468
Si Si6 0.000000 0.529783 0.250000
O O1 0.250000 0.750000 0.500000
O O2 0.317454 0.815199 0.884091
O O3 0.250000 0.750000 0.000000
O O4 0.444721 0.745136 0.975324
O O5 0.400108 0.313970 0.760433
O O6 0.500000 0.379097 0.250000
O O7 0.345323 0.435336 0.213953
O O8 0.303289 0.359716 0.325747
O O9 0.301500 0.380636 0.819750
O O10 0.257079 0.495450 0.393331
O O11 0.124239 0.551287 0.422658
O O12 0.000000 0.500000 0.500000
#
# Coordination Sequence:
#
# PCOD9276430 Si02
#       6
#     8   4   8   8   8   4
#     4  10  22  36  60  88 113 149 201 254 300 358
#     4  10  20  40  62  83 118 160 202 250 302 365
#     4  12  23  38  58  85 122 164 197 250 309 359
#     4  10  21  38  61  87 117 154 205 249 297 363
#     4  11  22  38  58  86 119 157 207 245 303 373
#     4   8  16  34  58  81 104 142 190 242 294 355
#
# _framework density 21.000019000000002
#
# number of rings (size 3 to 8) (size 9 to 14) (size 15 to 20)
#    0.000    1.600    2.000    3.600    0.000    3.200 
#    0.000    2.000    0.000    0.000    0.000    0.000 
#    0.000    0.000    0.000    0.000    0.000    0.000 
#
# Total GULP energy -111356.724921 kJ/mol
# GULP energy per Si atom -5567.836246 kJ/mol
# Density = 2.095222 g / cm^3
# Si number density = 21.000019 Si / 1000 Ang^3
#
#
#
# Elastic Constant Matrix: (Units=GPa)
#
#
# Indices 1 2 3 4 5 6 
#
# 1 38.3091 14.8544 20.3185 0.0000 -12.9796 0.0000
# 2 14.8544 41.7367 -14.3691 0.0000 8.2296 0.0000
# 3 20.3185 -14.3691 94.7589 0.0000 -17.0966 0.0000
# 4 0.0000 0.0000 0.0000 22.4898 0.0000 2.7144
# 5 -12.9796 8.2296 -17.0966 0.0000 29.3859 0.0000
# 6 0.0000 0.0000 0.0000 2.7144 0.0000 40.7747
#
#
#
# Elastic Compliance Matrix: (Units=1/GPa)
#
#
# Indices 1 2 3 4 5 6 
#
# 1 0.049273 -0.025609 -0.010310 0.000000 0.022937 0.000000
# 2 -0.025609 0.039386 0.008304 0.000000 -0.017510 0.000000
# 3 -0.010310 0.008304 0.014281 0.000000 0.001429 0.000000
# 4 0.000000 0.000000 0.000000 0.044825 0.000000 -0.002984
# 5 0.022937 -0.017510 0.001429 0.000000 0.049896 0.000000
# 6 0.000000 0.000000 0.000000 -0.002984 0.000000 0.024724
#
#
# Mechanical properties :
#
#
# Convention : Reuss Voigt Hill
#
# Bulk Modulus (GPa) = 20.95990 24.04580 22.50285
# Shear Modulus (GPa) = 17.03482 28.79682 22.91582
#
# Velocity S-wave (km/s) = 2.85121 3.70709 3.30696
# Velocity P-wave (km/s) = 4.56528 5.45881 5.03192
#
# Compressibility (1/GPa) = 0.04771015
#
# Stress axis : x y z
#
# Youngs Moduli (GPa) = 20.29517 25.38996 70.02350
#
# Poissons Ratio (x) = 0.65021 0.72195
# Poissons Ratio (y) = 0.51973 -0.58150
# Poissons Ratio (z) = 0.20925 -0.21085
#
# Static dielectric constant tensor:
#      x y z
#    x 1.943630 0.000000 0.056090 
#    y 0.000000 1.778030 0.000000 
#    z 0.056090 0.000000 1.754580 
# 
# From -- ./inp_files/8158.got.cif
#   From: 2010.05.17/outbox.cif.g08.bks.cpg/sg15_5_cif.got.tgz:8158.got - 2010.06.03 18:47:42.
