data_PCOD9276262
_publ_section_title
;
Structure prediction by ZEFSAII (Michael W. Deem and Ramdas Pophale) SiO2 
 PCOD9276262
Probable space group: C 2/C
;
_chemical_formula_sum "Si O2"
_cell_formula_units_Z 60
_cell_length_a 8.593232
_cell_length_b 29.342414
_cell_length_c 12.686800
_cell_angle_alpha 90.000000
_cell_angle_beta 90.579501
_cell_angle_gamma 90.000000
_cell_volume 3198.764422
_symmetry_space_group_name_H-M "C 2/C"
_symmetry_group_IT_number 15
_symmetry_cell_setting 'monoclinic'
loop_
_space_group_symop_operation_xyz
x,y,z
-x,y,1/2-z
-x,-y,-z
x,-y,1/2+z
1/2+x,1/2+y,z
1/2-x,1/2+y,1/2-z
1/2-x,1/2-y,-z
1/2+x,1/2-y,1/2+z
loop_
_atom_site_type_symbol
_atom_site_label
_atom_site_fract_x
_atom_site_fract_y
_atom_site_fract_z
Si Si1 0.061382 0.836812 0.868096
Si Si2 0.529124 0.956894 0.364495
Si Si3 0.655195 0.857178 0.319877
Si Si4 0.500000 0.672274 0.750000
Si Si5 0.336318 0.203006 0.470488
Si Si6 0.474496 0.555954 0.124654
Si Si7 0.751031 0.984625 0.013388
Si Si8 0.411369 0.269617 0.042563
O O1 0.240418 0.822289 0.880600
O O2 0.000000 0.829649 0.750000
O O3 0.051288 0.890316 0.894941
O O4 0.974589 0.803939 0.951254
O O5 0.500000 0.978080 0.250000
O O6 0.615160 0.909176 0.347413
O O7 0.360914 0.952226 0.418691
O O8 0.637672 0.988598 0.434355
O O9 0.500000 0.842409 0.250000
O O10 0.834658 0.853240 0.277752
O O11 0.655545 0.827364 0.425499
O O12 0.557721 0.702293 0.850050
O O13 0.250000 0.250000 0.500000
O O14 0.499500 0.222110 0.438064
O O15 0.500000 0.549798 0.250000
O O16 0.336784 0.522439 0.085910
O O17 0.621777 0.541285 0.055151
O O18 0.250000 0.250000 0.000000
#
# Coordination Sequence:
#
# PCOD9276262 Si02
#       8
#     8   8   8   4   8   8   8   8
#     4  10  22  39  61  84 123 167 206 254 317 375
#     4  10  22  40  59  93 125 166 206 256 327 376
#     4  11  23  41  64  93 131 169 211 272 326 379
#     4  12  24  42  64  98 128 168 220 270 328 392
#     4  10  20  40  58  83 119 163 204 253 316 370
#     4  10  21  39  62  95 122 165 213 259 312 377
#     4  10  21  38  65  86 130 162 207 260 315 386
#     4  11  25  39  63  93 123 161 216 264 316 386
#
# _framework density 18.757242000000002
#
# number of rings (size 3 to 8) (size 9 to 14) (size 15 to 20)
#    0.000    1.600    2.667    2.400    1.867    5.333 
#    6.000    0.000    0.000    3.200    0.000    0.000 
#    0.000    0.000    0.000    0.000    0.000    0.000 
#
# Total GULP energy -167097.518263 kJ/mol
# GULP energy per Si atom -5569.917275 kJ/mol
# Density = 1.871455 g / cm^3
# Si number density = 18.757242 Si / 1000 Ang^3
#
#
#
# Elastic Constant Matrix: (Units=GPa)
#
#
# Indices 1 2 3 4 5 6 
#
# 1 157.8184 68.7269 61.3820 0.0000 9.0411 0.0000
# 2 68.7269 95.6796 58.9742 0.0000 6.4766 0.0000
# 3 61.3820 58.9742 108.2673 0.0000 10.5403 0.0000
# 4 0.0000 0.0000 0.0000 17.6810 0.0000 -9.7141
# 5 9.0411 6.4766 10.5403 0.0000 34.2136 0.0000
# 6 0.0000 0.0000 0.0000 -9.7141 0.0000 10.8202
#
#
#
# Elastic Compliance Matrix: (Units=1/GPa)
#
#
# Indices 1 2 3 4 5 6 
#
# 1 0.009689 -0.005371 -0.002492 0.000000 -0.000776 0.000000
# 2 -0.005371 0.018716 -0.007157 0.000000 0.000081 0.000000
# 3 -0.002492 -0.007157 0.014796 0.000000 -0.002545 0.000000
# 4 0.000000 0.000000 0.000000 0.111607 0.000000 0.100197
# 5 -0.000776 0.000081 -0.002545 0.000000 0.030202 0.000000
# 6 0.000000 0.000000 0.000000 0.100197 0.000000 0.182374
#
#
# Mechanical properties :
#
#
# Convention : Reuss Voigt Hill
#
# Bulk Modulus (GPa) = 75.99104 82.21463 79.10284
# Shear Modulus (GPa) = 12.44368 24.05510 18.24939
#
# Velocity S-wave (km/s) = 2.57846 3.58501 3.12256
# Velocity P-wave (km/s) = 7.03317 7.81424 7.43397
#
# Compressibility (1/GPa) = 0.01315945
#
# Stress axis : x y z
#
# Youngs Moduli (GPa) = 103.20831 53.43067 67.58738
#
# Poissons Ratio (x) = 0.28699 0.16842
# Poissons Ratio (y) = 0.55436 0.48375
# Poissons Ratio (z) = 0.25719 0.38243
#
# Static dielectric constant tensor:
#      x y z
#    x 1.660220 0.000000 -0.066020 
#    y 0.000000 1.623410 0.000000 
#    z -0.066020 0.000000 1.611000 
# 
# From -- ./inp_files/82240.got.cif
#   From: 2010.05.17/outbox.cif.g08.bks.cpg/sg15_42_cif.got.tgz:82240.got - 2010.06.03 18:47:42.
