data_PCOD9276045
_publ_section_title
;
Structure prediction by ZEFSAII (Michael W. Deem and Ramdas Pophale) SiO2 
 PCOD9276045
Probable space group: C 2/C
;
_chemical_formula_sum "Si O2"
_cell_formula_units_Z 56
_cell_length_a 12.177564
_cell_length_b 11.161328
_cell_length_c 25.115002
_cell_angle_alpha 90.000000
_cell_angle_beta 131.179244
_cell_angle_gamma 90.000000
_cell_volume 2569.239444
_symmetry_space_group_name_H-M "C 2/C"
_symmetry_group_IT_number 15
_symmetry_cell_setting 'monoclinic'
loop_
_space_group_symop_operation_xyz
x,y,z
-x,y,1/2-z
-x,-y,-z
x,-y,1/2+z
1/2+x,1/2+y,z
1/2-x,1/2+y,1/2-z
1/2-x,1/2-y,-z
1/2+x,1/2-y,1/2+z
loop_
_atom_site_type_symbol
_atom_site_label
_atom_site_fract_x
_atom_site_fract_y
_atom_site_fract_z
Si Si1 0.363816 0.054630 0.559582
Si Si2 0.034266 0.595410 0.198466
Si Si3 0.599620 0.383233 0.044420
Si Si4 0.351300 0.185177 0.988655
Si Si5 0.076679 0.144039 0.718684
Si Si6 0.144276 0.289008 0.128427
Si Si7 0.335704 0.480951 0.834006
O O1 0.423143 0.982396 0.630018
O O2 0.360749 0.951287 0.513210
O O3 0.215778 0.118495 0.532828
O O4 0.489552 0.147403 0.584481
O O5 0.033082 0.730745 0.177577
O O6 0.194863 0.541222 0.252268
O O7 0.000000 0.604841 0.250000
O O8 0.498614 0.267305 0.025860
O O9 0.682803 0.421685 0.125376
O O10 0.500000 0.500000 0.000000
O O11 0.250000 0.250000 0.000000
O O12 0.290104 0.184480 0.908906
O O13 0.244101 0.168034 0.790568
O O14 0.000000 0.123354 0.750000
O O15 0.048862 0.037175 0.669373
O O16 0.127940 0.146708 0.129544
#
# Coordination Sequence:
#
# PCOD9276045 Si02
#       7
#     8   8   8   8   8   8   8
#     4  12  24  45  68  99 141 178 229 290 347 412
#     4  10  20  39  67  93 123 171 219 275 335 396
#     4  12  24  42  70 103 126 185 234 278 344 407
#     4  12  26  45  70  97 135 181 235 282 339 421
#     4  10  23  38  67  96 132 175 225 278 339 405
#     4  11  25  44  64 101 136 178 224 283 350 409
#     4  11  21  43  65  94 135 164 228 276 332 422
#
# _framework density 21.796333000000001
#
# number of rings (size 3 to 8) (size 9 to 14) (size 15 to 20)
#    0.000    0.857    5.714    1.286    6.000    0.571 
#    2.571    0.714    0.000    0.000    0.000    0.000 
#    0.000    0.000    0.000    0.000    0.000    0.000 
#
# Total GULP energy -156328.072467 kJ/mol
# GULP energy per Si atom -5583.145445 kJ/mol
# Density = 2.174672 g / cm^3
# Si number density = 21.796333 Si / 1000 Ang^3
#
#
#
# Elastic Constant Matrix: (Units=GPa)
#
#
# Indices 1 2 3 4 5 6 
#
# 1 125.8193 53.2183 12.3054 0.0000 -1.2823 0.0000
# 2 53.2183 85.5002 23.2892 0.0000 -8.5298 0.0000
# 3 12.3054 23.2892 56.9281 0.0000 -7.6733 0.0000
# 4 0.0000 0.0000 0.0000 41.3159 0.0000 -1.7721
# 5 -1.2823 -8.5298 -7.6733 0.0000 33.1667 0.0000
# 6 0.0000 0.0000 0.0000 -1.7721 0.0000 38.3792
#
#
#
# Elastic Compliance Matrix: (Units=1/GPa)
#
#
# Indices 1 2 3 4 5 6 
#
# 1 0.010852 -0.006975 0.000333 0.000000 -0.001297 0.000000
# 2 -0.006975 0.017804 -0.005362 0.000000 0.003069 0.000000
# 3 0.000333 -0.005362 0.020131 0.000000 0.003291 0.000000
# 4 0.000000 0.000000 0.000000 0.024252 0.000000 0.001120
# 5 -0.001297 0.003069 0.003291 0.000000 0.031651 0.000000
# 6 0.000000 0.000000 0.000000 0.001120 0.000000 0.026108
#
#
# Mechanical properties :
#
#
# Convention : Reuss Voigt Hill
#
# Bulk Modulus (GPa) = 40.35697 49.54149 44.94923
# Shear Modulus (GPa) = 30.66226 34.53468 32.59847
#
# Velocity S-wave (km/s) = 3.75475 3.98480 3.87149
# Velocity P-wave (km/s) = 6.11173 6.62949 6.37587
#
# Compressibility (1/GPa) = 0.02477887
#
# Stress axis : x y z
#
# Youngs Moduli (GPa) = 92.14591 56.16694 49.67363
#
# Poissons Ratio (x) = 0.39176 -0.01653
# Poissons Ratio (y) = 0.64271 0.26636
# Poissons Ratio (z) = -0.03066 0.30118
#
# Static dielectric constant tensor:
#      x y z
#    x 1.899980 0.000000 0.037870 
#    y 0.000000 1.793620 0.000000 
#    z 0.037870 0.000000 1.840540 
# 
# From -- ./inp_files/268993.got.cif
#   From: 2010.05.17/outbox.cif.g08.bks.cpg/sg15_135_cif.got.tgz:268993.got - 2010.06.03 18:47:42.
