data_PCOD9276322
_publ_section_title
;
Structure prediction by ZEFSAII (Michael W. Deem and Ramdas Pophale) SiO2 
 PCOD9276322
Probable space group: C 2/C
;
_chemical_formula_sum "Si O2"
_cell_formula_units_Z 40
_cell_length_a 11.550369
_cell_length_b 9.087497
_cell_length_c 25.448642
_cell_angle_alpha 90.000000
_cell_angle_beta 42.139155
_cell_angle_gamma 90.000000
_cell_volume 1792.190782
_symmetry_space_group_name_H-M "C 2/C"
_symmetry_group_IT_number 15
_symmetry_cell_setting 'monoclinic'
loop_
_space_group_symop_operation_xyz
x,y,z
-x,y,1/2-z
-x,-y,-z
x,-y,1/2+z
1/2+x,1/2+y,z
1/2-x,1/2+y,1/2-z
1/2-x,1/2-y,-z
1/2+x,1/2-y,1/2+z
loop_
_atom_site_type_symbol
_atom_site_label
_atom_site_fract_x
_atom_site_fract_y
_atom_site_fract_z
Si Si1 0.545091 0.157269 0.415118
Si Si2 0.525173 0.712880 0.403447
Si Si3 0.929732 0.544591 0.688599
Si Si4 0.779675 0.552739 0.044755
Si Si5 0.726018 0.542458 0.866352
O O1 0.681488 0.069919 0.406841
O O2 0.589571 0.326143 0.409017
O O3 0.573393 0.099523 0.346685
O O4 0.358263 0.099697 0.497151
O O5 0.623778 0.817264 0.329367
O O6 0.409959 0.596044 0.409503
O O7 0.401696 0.822911 0.476725
O O8 0.640373 0.615674 0.402926
O O9 0.820201 0.534071 0.778109
O O10 0.128165 0.573630 0.639412
#
# Coordination Sequence:
#
# PCOD9276322 Si02
#       5
#     8   8   8   8   8
#     4  10  20  40  60  87 119 153 193 243 290 345
#     4  10  20  40  62  85 119 156 191 243 293 344
#     4  10  22  41  58  85 119 153 199 239 287 351
#     4   9  20  39  61  87 121 152 192 241 295 352
#     4  11  22  38  63  84 114 159 196 240 290 341
#
# _framework density 22.319053
#
# number of rings (size 3 to 8) (size 9 to 14) (size 15 to 20)
#    0.000    2.000    2.000    1.200    0.000    1.600 
#   10.800    0.000    0.000    0.000    0.000    0.000 
#    0.000    0.000    0.000    0.000    0.000    0.000 
#
# Total GULP energy -111796.601413 kJ/mol
# GULP energy per Si atom -5589.830071 kJ/mol
# Density = 2.226825 g / cm^3
# Si number density = 22.319053 Si / 1000 Ang^3
#
#
#
# Elastic Constant Matrix: (Units=GPa)
#
#
# Indices 1 2 3 4 5 6 
#
# 1 46.7516 21.5485 8.2726 0.0000 16.8299 0.0000
# 2 21.5485 95.0806 14.4256 0.0000 -0.7894 0.0000
# 3 8.2726 14.4256 44.9787 0.0000 18.3142 0.0000
# 4 0.0000 0.0000 0.0000 34.3987 0.0000 10.3507
# 5 16.8299 -0.7894 18.3142 0.0000 31.2354 0.0000
# 6 0.0000 0.0000 0.0000 10.3507 0.0000 39.7533
#
#
#
# Elastic Compliance Matrix: (Units=1/GPa)
#
#
# Indices 1 2 3 4 5 6 
#
# 1 0.031438 -0.008044 0.004962 0.000000 -0.020052 0.000000
# 2 -0.008044 0.013347 -0.006178 0.000000 0.008294 0.000000
# 3 0.004962 -0.006178 0.032123 0.000000 -0.021664 0.000000
# 4 0.000000 0.000000 0.000000 0.031542 0.000000 -0.008213
# 5 -0.020052 0.008294 -0.021664 0.000000 0.055731 0.000000
# 6 0.000000 0.000000 0.000000 -0.008213 0.000000 0.027293
#
#
# Mechanical properties :
#
#
# Convention : Reuss Voigt Hill
#
# Bulk Modulus (GPa) = 17.12706 30.58939 23.85822
# Shear Modulus (GPa) = 21.79066 30.58176 26.18621
#
# Velocity S-wave (km/s) = 3.12801 3.70565 3.42901
# Velocity P-wave (km/s) = 4.55372 5.66077 5.13715
#
# Compressibility (1/GPa) = 0.05838713
#
# Stress axis : x y z
#
# Youngs Moduli (GPa) = 31.80908 74.92491 31.13060
#
# Poissons Ratio (x) = 0.60271 -0.15448
# Poissons Ratio (y) = 0.25588 0.19233
# Poissons Ratio (z) = -0.15785 0.46290
#
# Static dielectric constant tensor:
#      x y z
#    x 1.839280 0.000000 -0.001310 
#    y 0.000000 1.820410 0.000000 
#    z -0.001310 0.000000 1.822980 
# 
# From -- ./inp_files/235697.got.cif
#   From: 2010.05.17/outbox.cif.g08.bks.cpg/sg15_118_cif.got.tgz:235697.got - 2010.06.03 18:47:42.
