data_PCOD9276054
_publ_section_title
;
Structure prediction by ZEFSAII (Michael W. Deem and Ramdas Pophale) SiO2 
 PCOD9276054
Probable space group: C 2/C
;
_chemical_formula_sum "Si O2"
_cell_formula_units_Z 60
_cell_length_a 17.779088
_cell_length_b 9.031474
_cell_length_c 16.930952
_cell_angle_alpha 90.000000
_cell_angle_beta 90.404900
_cell_angle_gamma 90.000000
_cell_volume 2718.558291
_symmetry_space_group_name_H-M "C 2/C"
_symmetry_group_IT_number 15
_symmetry_cell_setting 'monoclinic'
loop_
_space_group_symop_operation_xyz
x,y,z
-x,y,1/2-z
-x,-y,-z
x,-y,1/2+z
1/2+x,1/2+y,z
1/2-x,1/2+y,1/2-z
1/2-x,1/2-y,-z
1/2+x,1/2-y,1/2+z
loop_
_atom_site_type_symbol
_atom_site_label
_atom_site_fract_x
_atom_site_fract_y
_atom_site_fract_z
Si Si1 0.416500 0.497074 0.031343
Si Si2 0.858036 0.473888 0.706030
Si Si3 0.500000 0.762836 0.750000
Si Si4 0.840145 0.201958 0.146805
Si Si5 0.681239 0.947272 0.615323
Si Si6 0.664819 0.233106 0.525503
Si Si7 0.698005 0.398361 0.680531
Si Si8 0.891159 0.848896 0.371956
O O1 0.386422 0.328685 0.034034
O O2 0.378072 0.579685 0.957237
O O3 0.500000 0.500000 0.000000
O O4 0.402424 0.599174 0.106308
O O5 0.932776 0.372289 0.717117
O O6 0.861147 0.623102 0.652295
O O7 0.827650 0.512054 0.795358
O O8 0.787360 0.381302 0.671782
O O9 0.534036 0.655228 0.681626
O O10 0.761685 0.137750 0.107873
O O11 0.829561 0.160734 0.237255
O O12 0.619875 0.821716 0.613501
O O13 0.660035 0.061693 0.547048
O O14 0.750000 0.250000 0.500000
O O15 0.656170 0.313521 0.610247
O O16 0.674573 0.571385 0.678245
#
# Coordination Sequence:
#
# PCOD9276054 Si02
#       8
#     8   8   4   8   8   8   8   8
#     4  11  27  42  59  94 132 167 218 262 335 391
#     4  10  21  39  64 101 123 163 216 264 322 389
#     4  10  24  40  66  96 138 166 210 274 342 384
#     4  11  21  39  66  90 128 165 210 274 314 377
#     4  10  20  39  67  94 123 157 218 263 310 381
#     4  11  22  41  64  97 128 167 209 267 315 383
#     4  10  22  39  68  96 124 167 225 261 314 391
#     4  10  23  43  64  91 126 171 213 266 319 390
#
# _framework density 22.070523999999999
#
# number of rings (size 3 to 8) (size 9 to 14) (size 15 to 20)
#    0.000    1.600    4.000    0.000    1.867    4.800 
#    0.000    1.333    0.000    0.000    0.000    0.000 
#    0.000    0.000    0.000    0.000    0.000    0.000 
#
# Total GULP energy -167060.313302 kJ/mol
# GULP energy per Si atom -5568.677110 kJ/mol
# Density = 2.202029 g / cm^3
# Si number density = 22.070524 Si / 1000 Ang^3
#
#
#
# Elastic Constant Matrix: (Units=GPa)
#
#
# Indices 1 2 3 4 5 6 
#
# 1 65.0558 -8.4673 0.1395 0.0000 -14.7715 0.0000
# 2 -8.4673 49.0942 11.3682 0.0000 5.4608 0.0000
# 3 0.1395 11.3682 38.3636 0.0000 -8.1243 0.0000
# 4 0.0000 0.0000 0.0000 28.4442 0.0000 -5.4611
# 5 -14.7715 5.4608 -8.1243 0.0000 28.2096 0.0000
# 6 0.0000 0.0000 0.0000 -5.4611 0.0000 30.4606
#
#
#
# Elastic Compliance Matrix: (Units=1/GPa)
#
#
# Indices 1 2 3 4 5 6 
#
# 1 0.017712 0.001686 0.001418 0.000000 0.009357 0.000000
# 2 0.001686 0.023208 -0.008145 0.000000 -0.005955 0.000000
# 3 0.001418 -0.008145 0.030847 0.000000 0.011203 0.000000
# 4 0.000000 0.000000 0.000000 0.036410 0.000000 0.006528
# 5 0.009357 -0.005955 0.011203 0.000000 0.044728 0.000000
# 6 0.000000 0.000000 0.000000 0.006528 0.000000 0.034000
#
#
# Mechanical properties :
#
#
# Convention : Reuss Voigt Hill
#
# Bulk Modulus (GPa) = 16.21136 17.62161 16.91649
# Shear Modulus (GPa) = 22.98336 27.38777 25.18556
#
# Velocity S-wave (km/s) = 3.23051 3.52649 3.38174
# Velocity P-wave (km/s) = 4.61261 4.95813 4.78849
#
# Compressibility (1/GPa) = 0.06168514
#
# Stress axis : x y z
#
# Youngs Moduli (GPa) = 56.45792 43.08832 32.41795
#
# Poissons Ratio (x) = -0.07264 -0.04595
# Poissons Ratio (y) = -0.09518 0.26403
# Poissons Ratio (z) = -0.08003 0.35094
#
# Static dielectric constant tensor:
#      x y z
#    x 1.776370 0.000000 0.091160 
#    y 0.000000 1.897720 0.000000 
#    z 0.091160 0.000000 1.755210 
# 
# From -- ./inp_files/213876.got.cif
#   From: 2010.05.17/outbox.cif.g08.bks.cpg/sg15_107_cif.got.tgz:213876.got - 2010.06.03 18:47:42.
