data_PCOD9276503
_publ_section_title
;
Structure prediction by ZEFSAII (Michael W. Deem and Ramdas Pophale) SiO2 
 PCOD9276503
Probable space group: C 2/C
;
_chemical_formula_sum "Si O2"
_cell_formula_units_Z 44
_cell_length_a 29.656789
_cell_length_b 8.058491
_cell_length_c 9.566545
_cell_angle_alpha 90.000000
_cell_angle_beta 68.403351
_cell_angle_gamma 90.000000
_cell_volume 2125.796001
_symmetry_space_group_name_H-M "C 2/C"
_symmetry_group_IT_number 15
_symmetry_cell_setting 'monoclinic'
loop_
_space_group_symop_operation_xyz
x,y,z
-x,y,1/2-z
-x,-y,-z
x,-y,1/2+z
1/2+x,1/2+y,z
1/2-x,1/2+y,1/2-z
1/2-x,1/2-y,-z
1/2+x,1/2-y,1/2+z
loop_
_atom_site_type_symbol
_atom_site_label
_atom_site_fract_x
_atom_site_fract_y
_atom_site_fract_z
Si Si1 0.021897 0.772301 0.495168
Si Si2 0.500000 0.526739 0.750000
Si Si3 0.291936 0.306318 0.345179
Si Si4 0.861204 0.410653 0.911177
Si Si5 0.576249 0.930063 0.395805
Si Si6 0.234368 0.382696 0.904630
O O1 0.026492 0.856507 0.335610
O O2 0.966739 0.702690 0.570817
O O3 0.053743 0.606999 0.469952
O O4 0.029693 0.904699 0.610909
O O5 0.250000 0.250000 0.500000
O O6 0.343395 0.253466 0.349741
O O7 0.280164 0.496857 0.328631
O O8 0.282263 0.204548 0.216949
O O9 0.896277 0.522984 0.777095
O O10 0.886588 0.371937 0.028145
O O11 0.812105 0.513774 0.991934
O O12 0.250000 0.250000 0.000000
#
# Coordination Sequence:
#
# PCOD9276503 Si02
#       6
#     8   4   8   8   8   8
#     4  10  22  40  68  91 128 178 209 260 321 382
#     4  10  20  40  62  92 124 160 222 262 310 366
#     4  10  21  39  64  90 123 167 206 260 313 373
#     4  11  22  39  64  94 130 161 217 269 303 385
#     4  11  22  41  66  94 127 173 218 252 322 385
#     4  11  23  42  66  92 125 171 210 260 321 378
#
# _framework density 20.698128000000001
#
# number of rings (size 3 to 8) (size 9 to 14) (size 15 to 20)
#    0.000    1.455    1.818    4.364    2.545    2.909 
#    0.000   10.909    4.000    0.000    0.000    0.000 
#    0.000    0.000    0.000    0.000    0.000    0.000 
#
# Total GULP energy -122852.203644 kJ/mol
# GULP energy per Si atom -5584.191075 kJ/mol
# Density = 2.065102 g / cm^3
# Si number density = 20.698128 Si / 1000 Ang^3
#
#
#
# Elastic Constant Matrix: (Units=GPa)
#
#
# Indices 1 2 3 4 5 6 
#
# 1 61.2245 21.0154 9.2186 0.0000 -0.9075 0.0000
# 2 21.0154 90.4474 5.6832 0.0000 3.0482 0.0000
# 3 9.2186 5.6832 75.1684 0.0000 3.2935 0.0000
# 4 0.0000 0.0000 0.0000 36.6539 0.0000 1.2829
# 5 -0.9075 3.0482 3.2935 0.0000 24.5205 0.0000
# 6 0.0000 0.0000 0.0000 1.2829 0.0000 16.3303
#
#
#
# Elastic Compliance Matrix: (Units=1/GPa)
#
#
# Indices 1 2 3 4 5 6 
#
# 1 0.018066 -0.004123 -0.001967 0.000000 0.001445 0.000000
# 2 -0.004123 0.012090 -0.000338 0.000000 -0.001610 0.000000
# 3 -0.001967 -0.000338 0.013652 0.000000 -0.001864 0.000000
# 4 0.000000 0.000000 0.000000 0.027357 0.000000 -0.002149
# 5 0.001445 -0.001610 -0.001864 0.000000 0.041286 0.000000
# 6 0.000000 0.000000 0.000000 -0.002149 0.000000 0.061405
#
#
# Mechanical properties :
#
#
# Convention : Reuss Voigt Hill
#
# Bulk Modulus (GPa) = 32.30821 33.18607 32.74714
# Shear Modulus (GPa) = 25.37694 28.22913 26.80304
#
# Velocity S-wave (km/s) = 3.50530 3.69704 3.60245
# Velocity P-wave (km/s) = 5.65915 5.85596 5.75840
#
# Compressibility (1/GPa) = 0.03095189
#
# Stress axis : x y z
#
# Youngs Moduli (GPa) = 55.35226 82.71592 73.24955
#
# Poissons Ratio (x) = 0.34102 0.14410
# Poissons Ratio (y) = 0.22820 0.02475
# Poissons Ratio (z) = 0.10889 0.02795
#
# Static dielectric constant tensor:
#      x y z
#    x 1.716050 0.000000 -0.009360 
#    y 0.000000 1.748550 0.000000 
#    z -0.009360 0.000000 1.745120 
# 
# From -- ./inp_files/68316.got.cif
#   From: 2010.05.17/outbox.cif.g08.bks.cpg/sg15_35_cif.got.tgz:68316.got - 2010.06.03 18:47:42.
