data_PCOD9276864
_publ_section_title
;
Structure prediction by ZEFSAII (Michael W. Deem and Ramdas Pophale) SiO2 
 PCOD9276864
Probable space group: C 2/C
;
_chemical_formula_sum "Si O2"
_cell_formula_units_Z 52
_cell_length_a 12.356273
_cell_length_b 25.734480
_cell_length_c 9.241976
_cell_angle_alpha 90.000000
_cell_angle_beta 120.225708
_cell_angle_gamma 90.000000
_cell_volume 2539.253783
_symmetry_space_group_name_H-M "C 2/C"
_symmetry_group_IT_number 15
_symmetry_cell_setting 'monoclinic'
loop_
_space_group_symop_operation_xyz
x,y,z
-x,y,1/2-z
-x,-y,-z
x,-y,1/2+z
1/2+x,1/2+y,z
1/2-x,1/2+y,1/2-z
1/2-x,1/2-y,-z
1/2+x,1/2-y,1/2+z
loop_
_atom_site_type_symbol
_atom_site_label
_atom_site_fract_x
_atom_site_fract_y
_atom_site_fract_z
Si Si1 0.362197 0.965253 0.170518
Si Si2 0.858410 0.639671 0.163899
Si Si3 0.164543 0.815919 0.993878
Si Si4 0.617381 0.790862 0.570818
Si Si5 0.763404 0.948370 0.726222
Si Si6 0.871041 0.643076 0.844374
Si Si7 0.500000 0.405292 0.750000
O O1 0.500000 0.990167 0.250000
O O2 0.380811 0.913053 0.276653
O O3 0.270145 0.002949 0.195894
O O4 0.310486 0.953125 0.975891
O O5 0.868601 0.695348 0.250694
O O6 0.780912 0.602221 0.215309
O O7 0.000000 0.618528 0.250000
O O8 0.817985 0.640700 0.971407
O O9 0.085125 0.767070 0.997214
O O10 0.271494 0.825800 0.183625
O O11 0.247308 0.802069 0.908962
O O12 0.083404 0.866536 0.904641
O O13 0.507044 0.829292 0.441972
O O14 0.907273 0.940230 0.781635
#
# Coordination Sequence:
#
# PCOD9276864 Si02
#       7
#     8   8   8   8   8   8   4
#     4  12  23  42  71 101 128 167 226 281 337 385
#     4  10  20  40  65  99 136 165 218 286 330 380
#     4  11  23  41  65  95 132 183 220 265 324 400
#     4  10  22  38  68  98 131 172 225 274 327 380
#     4  12  25  44  67  97 133 177 216 277 334 399
#     4  11  22  41  68 100 132 172 223 280 330 387
#     4  12  26  46  64  94 142 174 226 262 328 404
#
# _framework density 20.478456000000001
#
# number of rings (size 3 to 8) (size 9 to 14) (size 15 to 20)
#    0.000    0.923    3.077    5.077    4.308    1.231 
#    0.000    3.846    0.000    0.000    0.000    0.000 
#    0.000    0.000    0.000    0.000    0.000    0.000 
#
# Total GULP energy -145319.073283 kJ/mol
# GULP energy per Si atom -5589.195126 kJ/mol
# Density = 2.043185 g / cm^3
# Si number density = 20.478456 Si / 1000 Ang^3
#
#
#
# Elastic Constant Matrix: (Units=GPa)
#
#
# Indices 1 2 3 4 5 6 
#
# 1 127.4131 38.6305 18.7729 0.0000 -14.0856 0.0000
# 2 38.6305 88.8715 1.0862 0.0000 -14.9764 0.0000
# 3 18.7729 1.0862 66.6833 0.0000 -27.1410 0.0000
# 4 0.0000 0.0000 0.0000 16.9773 0.0000 1.8639
# 5 -14.0856 -14.9764 -27.1410 0.0000 36.9336 0.0000
# 6 0.0000 0.0000 0.0000 1.8639 0.0000 53.2516
#
#
#
# Elastic Compliance Matrix: (Units=1/GPa)
#
#
# Indices 1 2 3 4 5 6 
#
# 1 0.009470 -0.004073 -0.002571 0.000000 0.000071 0.000000
# 2 -0.004073 0.014144 0.003736 0.000000 0.006927 0.000000
# 3 -0.002571 0.003736 0.022652 0.000000 0.017180 0.000000
# 4 0.000000 0.000000 0.000000 0.059129 0.000000 -0.002070
# 5 0.000071 0.006927 0.017180 0.000000 0.042537 0.000000
# 6 0.000000 0.000000 0.000000 -0.002070 0.000000 0.018851
#
#
# Mechanical properties :
#
#
# Convention : Reuss Voigt Hill
#
# Bulk Modulus (GPa) = 24.72190 44.43857 34.58024
# Shear Modulus (GPa) = 26.86972 36.39772 31.63372
#
# Velocity S-wave (km/s) = 3.62622 4.22046 3.93457
# Velocity P-wave (km/s) = 5.44343 6.74514 6.12894
#
# Compressibility (1/GPa) = 0.04044996
#
# Stress axis : x y z
#
# Youngs Moduli (GPa) = 105.59648 70.69938 44.14674
#
# Poissons Ratio (x) = 0.28796 0.11349
# Poissons Ratio (y) = 0.43010 -0.16492
# Poissons Ratio (z) = 0.27147 -0.26412
#
# Static dielectric constant tensor:
#      x y z
#    x 1.734970 0.000000 -0.014070 
#    y 0.000000 1.771000 0.000000 
#    z -0.014070 0.000000 1.748380 
# 
# From -- ./inp_files/34450.got.cif
#   From: 2010.05.17/outbox.cif.g08.bks.cpg/sg15_18_cif.got.tgz:34450.got - 2010.06.03 18:47:42.
