data_PCOD9276159
_publ_section_title
;
Structure prediction by ZEFSAII (Michael W. Deem and Ramdas Pophale) SiO2 
 PCOD9276159
Probable space group: C 2/C
;
_chemical_formula_sum "Si O2"
_cell_formula_units_Z 56
_cell_length_a 26.040535
_cell_length_b 5.707787
_cell_length_c 25.569589
_cell_angle_alpha 90.000000
_cell_angle_beta 141.068179
_cell_angle_gamma 90.000000
_cell_volume 2388.219580
_symmetry_space_group_name_H-M "C 2/C"
_symmetry_group_IT_number 15
_symmetry_cell_setting 'monoclinic'
loop_
_space_group_symop_operation_xyz
x,y,z
-x,y,1/2-z
-x,-y,-z
x,-y,1/2+z
1/2+x,1/2+y,z
1/2-x,1/2+y,1/2-z
1/2-x,1/2-y,-z
1/2+x,1/2-y,1/2+z
loop_
_atom_site_type_symbol
_atom_site_label
_atom_site_fract_x
_atom_site_fract_y
_atom_site_fract_z
Si Si1 0.495791 0.250588 0.888187
Si Si2 0.272945 0.353397 0.364612
Si Si3 0.901805 0.993114 0.681396
Si Si4 0.887816 0.494399 0.728450
Si Si5 0.365481 0.428661 0.037577
Si Si6 0.908231 0.072765 0.410830
Si Si7 0.361322 0.044244 0.958381
O O1 0.468651 0.057094 0.825112
O O2 0.543747 0.469018 0.901555
O O3 0.419312 0.343962 0.860529
O O4 0.562481 0.132059 0.978493
O O5 0.188778 0.485839 0.293054
O O6 0.308924 0.444503 0.449402
O O7 0.335831 0.393598 0.366720
O O8 0.276317 0.076776 0.376605
O O9 0.889031 0.239761 0.702604
O O10 0.852830 0.025497 0.588134
O O11 0.000000 0.983268 0.750000
O O12 0.879609 0.734755 0.686921
O O13 0.357871 0.163244 0.012408
O O14 0.883816 0.275742 0.431480
O O15 0.000000 0.000000 0.500000
#
# Coordination Sequence:
#
# PCOD9276159 Si02
#       7
#     8   8   8   8   8   8   8
#     4  11  22  41  67 100 130 181 226 285 339 408
#     4  10  25  43  64 103 141 176 224 292 344 412
#     4  12  26  47  73 100 135 185 237 283 338 414
#     4  12  29  46  68 103 146 178 226 289 351 401
#     4  10  22  41  71  98 131 176 237 280 339 408
#     4  11  20  40  68 101 130 176 235 277 337 408
#     4  10  20  39  69  95 135 169 232 281 334 405
#
# _framework density 23.448428
#
# number of rings (size 3 to 8) (size 9 to 14) (size 15 to 20)
#    0.000    1.143    5.714    1.714    8.000    1.143 
#    2.571    0.000    0.000    0.000    0.000    0.000 
#    0.000    0.000    0.000    0.000    0.000    0.000 
#
# Total GULP energy -156155.706517 kJ/mol
# GULP energy per Si atom -5576.989518 kJ/mol
# Density = 2.339506 g / cm^3
# Si number density = 23.448428 Si / 1000 Ang^3
#
#
#
# Elastic Constant Matrix: (Units=GPa)
#
#
# Indices 1 2 3 4 5 6 
#
# 1 42.1796 17.0295 -5.4554 0.0004 5.2803 -0.0034
# 2 17.0295 82.3799 -3.0900 0.0020 -1.6684 0.0024
# 3 -5.4554 -3.0900 18.0257 0.0012 -0.8621 0.0002
# 4 0.0004 0.0020 0.0012 24.6869 0.0004 -2.0391
# 5 5.2803 -1.6684 -0.8621 0.0004 32.2902 -0.0004
# 6 -0.0034 0.0024 0.0002 -2.0391 -0.0004 36.4562
#
#
#
# Elastic Compliance Matrix: (Units=1/GPa)
#
#
# Indices 1 2 3 4 5 6 
#
# 1 0.027422 -0.005494 0.007139 0.000000 -0.004578 0.000003
# 2 -0.005494 0.013333 0.000700 -0.000001 0.001606 -0.000001
# 3 0.007139 0.000700 0.057776 -0.000003 0.000411 0.000000
# 4 0.000000 -0.000001 -0.000003 0.040695 -0.000001 0.002276
# 5 -0.004578 0.001606 0.000411 -0.000001 0.031812 0.000000
# 6 0.000003 -0.000001 0.000000 0.002276 0.000000 0.027557
#
#
# Mechanical properties :
#
#
# Convention : Reuss Voigt Hill
#
# Bulk Modulus (GPa) = 9.68789 17.72816 13.70803
# Shear Modulus (GPa) = 21.89963 27.62675 24.76319
#
# Velocity S-wave (km/s) = 3.05937 3.43620 3.25325
# Velocity P-wave (km/s) = 4.07679 4.82910 4.46881
#
# Compressibility (1/GPa) = 0.10322163
#
# Stress axis : x y z
#
# Youngs Moduli (GPa) = 36.46642 75.00015 17.30811
#
# Poissons Ratio (x) = 0.41203 -0.12356
# Poissons Ratio (y) = 0.20034 -0.01211
# Poissons Ratio (z) = -0.26032 -0.05248
#
# Static dielectric constant tensor:
#      x y z
#    x 1.936710 -0.000010 0.003930 
#    y -0.000010 2.018180 0.000000 
#    z 0.003930 0.000000 1.921150 
# 
# From -- ./inp_files/302942.got.cif
#   From: 2010.05.17/outbox.cif.g08.bks.cpg/sg15_152_cif.got.tgz:302942.got - 2010.06.03 18:47:42.
