data_PCOD9276216
_publ_section_title
;
Structure prediction by ZEFSAII (Michael W. Deem and Ramdas Pophale) SiO2 
 PCOD9276216
Probable space group: C 2/C
;
_chemical_formula_sum "Si O2"
_cell_formula_units_Z 52
_cell_length_a 12.988113
_cell_length_b 25.139841
_cell_length_c 7.615929
_cell_angle_alpha 90.000000
_cell_angle_beta 61.361273
_cell_angle_gamma 90.000000
_cell_volume 2182.515775
_symmetry_space_group_name_H-M "C 2/C"
_symmetry_group_IT_number 15
_symmetry_cell_setting 'monoclinic'
loop_
_space_group_symop_operation_xyz
x,y,z
-x,y,1/2-z
-x,-y,-z
x,-y,1/2+z
1/2+x,1/2+y,z
1/2-x,1/2+y,1/2-z
1/2-x,1/2-y,-z
1/2+x,1/2-y,1/2+z
loop_
_atom_site_type_symbol
_atom_site_label
_atom_site_fract_x
_atom_site_fract_y
_atom_site_fract_z
Si Si1 0.692190 0.467170 0.466083
Si Si2 0.796767 0.673663 0.085896
Si Si3 0.086011 0.774996 0.536874
Si Si4 0.342412 0.884338 0.191865
Si Si5 0.000000 0.591266 0.250000
Si Si6 0.740917 0.930639 0.703225
Si Si7 0.421914 0.378508 0.146407
O O1 0.805408 0.445865 0.261350
O O2 0.723512 0.450613 0.634857
O O3 0.678165 0.530357 0.477056
O O4 0.588751 0.429631 0.474506
O O5 0.865290 0.724308 0.105986
O O6 0.858860 0.642166 0.870749
O O7 0.687349 0.698137 0.071042
O O8 0.757652 0.632519 0.267078
O O9 0.030638 0.824350 0.479956
O O10 0.000000 0.751031 0.750000
O O11 0.217232 0.865023 0.212333
O O12 0.443627 0.878725 0.965323
O O13 0.109876 0.559683 0.239396
O O14 0.500000 0.389090 0.250000
#
# Coordination Sequence:
#
# PCOD9276216 Si02
#       7
#     8   8   8   8   4   8   8
#     4   9  21  41  64  93 132 174 219 273 329 395
#     4   9  21  42  64  94 138 164 223 278 323 404
#     4  10  20  39  72  98 120 185 217 268 343 389
#     4   8  20  39  60  97 129 171 218 267 331 385
#     4  12  24  34  66  98 132 176 216 266 330 406
#     4  11  22  40  63  96 136 174 222 268 336 400
#     4   9  20  45  67  96 135 169 223 288 325 386
#
# _framework density 23.825714000000001
#
# number of rings (size 3 to 8) (size 9 to 14) (size 15 to 20)
#    0.923    1.538    1.538    0.923    2.154    5.538 
#    1.385    1.538    0.000    5.538    0.000    0.000 
#    0.000    0.000    0.000    0.000    0.000    0.000 
#
# Total GULP energy -144779.380875 kJ/mol
# GULP energy per Si atom -5568.437726 kJ/mol
# Density = 2.377149 g / cm^3
# Si number density = 23.825714 Si / 1000 Ang^3
#
#
#
# Elastic Constant Matrix: (Units=GPa)
#
#
# Indices 1 2 3 4 5 6 
#
# 1 100.5969 41.6882 8.4513 0.0000 37.9306 0.0000
# 2 41.6882 155.4175 5.0328 0.0000 4.7299 0.0000
# 3 8.4513 5.0328 43.0166 0.0000 1.4414 0.0000
# 4 0.0000 0.0000 0.0000 19.1782 0.0000 -5.7810
# 5 37.9306 4.7299 1.4414 0.0000 35.1058 0.0000
# 6 0.0000 0.0000 0.0000 -5.7810 0.0000 -12.2166
#
#
#
# Elastic Compliance Matrix: (Units=1/GPa)
#
#
# Indices 1 2 3 4 5 6 
#
# 1 0.019921 -0.004624 -0.002676 0.000000 -0.020791 0.000000
# 2 -0.004624 0.007557 -0.000109 0.000000 0.003983 0.000000
# 3 -0.002676 -0.000109 0.023721 0.000000 0.001932 0.000000
# 4 0.000000 0.000000 0.000000 0.045633 0.000000 -0.021594
# 5 -0.020791 0.003983 0.001932 0.000000 0.050334 0.000000
# 6 0.000000 0.000000 0.000000 -0.021594 0.000000 -0.071637
#
#
# Mechanical properties :
#
#
# Convention : Reuss Voigt Hill
#
# Bulk Modulus (GPa) = 27.48763 45.48619 36.48691
# Shear Modulus (GPa) = 48.79269 24.67070 36.73170
#
# Velocity S-wave (km/s) = 4.53028 3.22136 3.93069
# Velocity P-wave (km/s) = 6.23912 5.74185 5.99564
#
# Compressibility (1/GPa) = 0.03638000
#
# Stress axis : x y z
#
# Youngs Moduli (GPa) = 50.19758 132.32826 42.15741
#
# Poissons Ratio (x) = 0.61190 0.11282
# Poissons Ratio (y) = 0.23212 0.00460
# Poissons Ratio (z) = 0.13434 0.01444
#
# Static dielectric constant tensor:
#      x y z
#    x 1.918710 0.000000 -0.056610 
#    y 0.000000 1.995240 0.000000 
#    z -0.056610 0.000000 2.008760 
# 
# From -- ./inp_files/33502.got.cif
#   From: 2010.05.17/outbox.cif.g08.bks.cpg/sg15_17_cif.got.tgz:33502.got - 2010.06.03 18:47:42.
