data_PCOD9276762
_publ_section_title
;
Structure prediction by ZEFSAII (Michael W. Deem and Ramdas Pophale) SiO2 
 PCOD9276762
Probable space group: C 2/C
;
_chemical_formula_sum "Si O2"
_cell_formula_units_Z 44
_cell_length_a 9.248165
_cell_length_b 31.435932
_cell_length_c 7.540018
_cell_angle_alpha 90.000000
_cell_angle_beta 109.684437
_cell_angle_gamma 90.000000
_cell_volume 2063.969378
_symmetry_space_group_name_H-M "C 2/C"
_symmetry_group_IT_number 15
_symmetry_cell_setting 'monoclinic'
loop_
_space_group_symop_operation_xyz
x,y,z
-x,y,1/2-z
-x,-y,-z
x,-y,1/2+z
1/2+x,1/2+y,z
1/2-x,1/2+y,1/2-z
1/2-x,1/2-y,-z
1/2+x,1/2-y,1/2+z
loop_
_atom_site_type_symbol
_atom_site_label
_atom_site_fract_x
_atom_site_fract_y
_atom_site_fract_z
Si Si1 0.000000 0.512916 0.750000
Si Si2 0.500000 0.595987 0.250000
Si Si3 0.556399 0.148435 0.977549
Si Si4 0.666558 0.059647 0.097206
Si Si5 0.616675 0.667619 0.537942
Si Si6 0.794113 0.289121 0.390783
Si Si7 0.000000 0.237341 0.250000
O O1 0.097185 0.479872 0.673336
O O2 0.872203 0.544295 0.616807
O O3 0.344375 0.569130 0.203049
O O4 0.523343 0.626182 0.433975
O O5 0.500000 0.141815 0.750000
O O6 0.730886 0.164053 0.023762
O O7 0.438900 0.182292 0.013389
O O8 0.571804 0.103423 0.081464
O O9 0.669083 0.677562 0.760866
O O10 0.525165 0.708048 0.429609
O O11 0.750000 0.250000 0.500000
O O12 0.856428 0.266358 0.237938
#
# Coordination Sequence:
#
# PCOD9276762 Si02
#       7
#     4   4   8   8   8   8   4
#     4  10  22  37  66  95 138 156 211 254 329 406
#     4   9  20  38  72  87 126 168 219 254 330 386
#     4   9  17  37  61  80 115 167 210 252 318 383
#     4  10  20  40  64  97 123 171 201 265 319 399
#     4   9  19  38  58  79 117 167 207 263 323 374
#     4  11  22  35  59  88 118 166 224 274 319 381
#     4  11  20  37  54  76 120 156 204 278 311 374
#
# _framework density 21.318147
#
# number of rings (size 3 to 8) (size 9 to 14) (size 15 to 20)
#    0.000    2.182    3.636    0.545    0.000    1.455 
#    9.818    0.000    0.000    0.000    0.000    0.000 
#    0.000    0.000    0.000    0.000    0.000    0.000 
#
# Total GULP energy -122545.531508 kJ/mol
# GULP energy per Si atom -5570.251432 kJ/mol
# Density = 2.126963 g / cm^3
# Si number density = 21.318147 Si / 1000 Ang^3
#
#
#
# Elastic Constant Matrix: (Units=GPa)
#
#
# Indices 1 2 3 4 5 6 
#
# 1 90.9687 56.4267 38.7172 0.0000 28.6659 0.0000
# 2 56.4267 127.9131 34.5455 0.0000 17.0489 0.0000
# 3 38.7172 34.5455 67.6933 0.0000 22.8547 0.0000
# 4 0.0000 0.0000 0.0000 28.3193 0.0000 9.3616
# 5 28.6659 17.0489 22.8547 0.0000 34.4004 0.0000
# 6 0.0000 0.0000 0.0000 9.3616 0.0000 39.6659
#
#
#
# Elastic Compliance Matrix: (Units=1/GPa)
#
#
# Indices 1 2 3 4 5 6 
#
# 1 0.020234 -0.006212 -0.004834 0.000000 -0.010571 0.000000
# 2 -0.006212 0.011065 -0.002565 0.000000 0.001397 0.000000
# 3 -0.004834 -0.002565 0.021990 0.000000 -0.009310 0.000000
# 4 0.000000 0.000000 0.000000 0.038300 0.000000 -0.009039
# 5 -0.010571 0.001397 -0.009310 0.000000 0.043371 0.000000
# 6 0.000000 0.000000 0.000000 -0.009039 0.000000 0.027344
#
#
# Mechanical properties :
#
#
# Convention : Reuss Voigt Hill
#
# Bulk Modulus (GPa) = 38.36331 60.66155 49.51243
# Shear Modulus (GPa) = 25.22520 30.93617 28.08068
#
# Velocity S-wave (km/s) = 3.44361 3.81355 3.63329
# Velocity P-wave (km/s) = 5.81772 6.92156 6.39351
#
# Compressibility (1/GPa) = 0.02606658
#
# Stress axis : x y z
#
# Youngs Moduli (GPa) = 49.42093 90.37846 45.47580
#
# Poissons Ratio (x) = 0.56139 0.21983
# Poissons Ratio (y) = 0.30698 0.11667
# Poissons Ratio (z) = 0.23891 0.23186
#
# Static dielectric constant tensor:
#      x y z
#    x 1.822470 0.000000 -0.010540 
#    y 0.000000 1.761030 0.000000 
#    z -0.010540 0.000000 1.889120 
# 
# From -- ./inp_files/25519.got.cif
#   From: 2010.05.17/outbox.cif.g08.bks.cpg/sg15_13_cif.got.tgz:25519.got - 2010.06.03 18:47:42.
