data_PCOD9276212
_publ_section_title
;
Structure prediction by ZEFSAII (Michael W. Deem and Ramdas Pophale) SiO2 
 PCOD9276212
Probable space group: C 2/C
;
_chemical_formula_sum "Si O2"
_cell_formula_units_Z 48
_cell_length_a 13.640122
_cell_length_b 11.973435
_cell_length_c 14.634100
_cell_angle_alpha 90.000000
_cell_angle_beta 120.350054
_cell_angle_gamma 90.000000
_cell_volume 2062.485542
_symmetry_space_group_name_H-M "C 2/C"
_symmetry_group_IT_number 15
_symmetry_cell_setting 'monoclinic'
loop_
_space_group_symop_operation_xyz
x,y,z
-x,y,1/2-z
-x,-y,-z
x,-y,1/2+z
1/2+x,1/2+y,z
1/2-x,1/2+y,1/2-z
1/2-x,1/2-y,-z
1/2+x,1/2-y,1/2+z
loop_
_atom_site_type_symbol
_atom_site_label
_atom_site_fract_x
_atom_site_fract_y
_atom_site_fract_z
Si Si1 0.704562 0.194870 0.584049
Si Si2 0.986400 0.986773 0.852691
Si Si3 0.244845 0.558191 0.327449
Si Si4 0.376508 0.013864 0.399258
Si Si5 0.560141 0.285060 0.371146
Si Si6 0.229351 0.884744 0.997684
O O1 0.735003 0.321880 0.617338
O O2 0.603882 0.194271 0.462477
O O3 0.823637 0.151427 0.602593
O O4 0.667237 0.112164 0.644560
O O5 0.000000 0.989239 0.750000
O O6 0.862223 0.952225 0.825942
O O7 0.992997 0.116004 0.888448
O O8 0.093792 0.912651 0.934262
O O9 0.143314 0.572990 0.206434
O O10 0.229254 0.458065 0.393855
O O11 0.295992 0.066151 0.440190
O O12 0.500000 0.000000 0.500000
O O13 0.500000 0.249087 0.250000
O O14 0.250000 0.750000 0.000000
#
# Coordination Sequence:
#
# PCOD9276212 Si02
#       6
#     8   8   8   8   8   8
#     4  11  23  44  69 102 142 188 249 293 366 452
#     4  11  21  46  73 104 141 188 252 308 356 446
#     4  12  27  47  78 106 146 202 251 304 386 449
#     4  12  29  49  70 110 156 194 249 311 381 453
#     4  10  20  39  71  97 132 176 243 307 345 421
#     4  12  27  49  73 112 152 194 251 319 385 451
#
# _framework density 23.272891000000001
#
# number of rings (size 3 to 8) (size 9 to 14) (size 15 to 20)
#    0.000    0.667    5.000    2.500    7.000    0.667 
#    0.000    0.000    0.000    0.000    0.000    0.000 
#    0.000    0.000    0.000    0.000    0.000    0.000 
#
# Total GULP energy -133902.973586 kJ/mol
# GULP energy per Si atom -5579.290566 kJ/mol
# Density = 2.321992 g / cm^3
# Si number density = 23.272891 Si / 1000 Ang^3
#
#
#
# Elastic Constant Matrix: (Units=GPa)
#
#
# Indices 1 2 3 4 5 6 
#
# 1 61.5141 43.1482 38.0256 0.0000 0.7300 0.0000
# 2 43.1482 113.9636 43.5676 0.0000 -12.2966 0.0000
# 3 38.0256 43.5676 167.4155 0.0000 10.6901 0.0000
# 4 0.0000 0.0000 0.0000 27.4361 0.0000 -1.1440
# 5 0.7300 -12.2966 10.6901 0.0000 35.3617 0.0000
# 6 0.0000 0.0000 0.0000 -1.1440 0.0000 29.8618
#
#
#
# Elastic Compliance Matrix: (Units=1/GPa)
#
#
# Indices 1 2 3 4 5 6 
#
# 1 0.023929 -0.008099 -0.003178 0.000000 -0.002350 0.000000
# 2 -0.008099 0.013150 -0.001922 0.000000 0.005321 0.000000
# 3 -0.003178 -0.001922 0.007376 0.000000 -0.002833 0.000000
# 4 0.000000 0.000000 0.000000 0.036507 0.000000 0.001399
# 5 -0.002350 0.005321 -0.002833 0.000000 0.031034 0.000000
# 6 0.000000 0.000000 0.000000 0.001399 0.000000 0.033541
#
#
# Mechanical properties :
#
#
# Convention : Reuss Voigt Hill
#
# Bulk Modulus (GPa) = 55.37683 65.81954 60.59818
# Shear Modulus (GPa) = 28.09710 33.07538 30.58624
#
# Velocity S-wave (km/s) = 3.47838 3.77397 3.62918
# Velocity P-wave (km/s) = 6.32284 6.87993 6.60726
#
# Compressibility (1/GPa) = 0.01805810
#
# Stress axis : x y z
#
# Youngs Moduli (GPa) = 41.78983 76.04510 135.57410
#
# Poissons Ratio (x) = 0.61587 0.43079
# Poissons Ratio (y) = 0.33844 0.26063
# Poissons Ratio (z) = 0.13279 0.14619
#
# Static dielectric constant tensor:
#      x y z
#    x 1.908290 0.000000 0.012080 
#    y 0.000000 1.965180 0.000000 
#    z 0.012080 0.000000 1.944890 
# 
# From -- ./inp_files/152725.got.cif
#   From: 2010.05.17/outbox.cif.g08.bks.cpg/sg15_77_cif.got.tgz:152725.got - 2010.06.03 18:47:42.
