data_PCOD9276536
_publ_section_title
;
Structure prediction by ZEFSAII (Michael W. Deem and Ramdas Pophale) SiO2 
 PCOD9276536
Probable space group: C 2/C
;
_chemical_formula_sum "Si O2"
_cell_formula_units_Z 44
_cell_length_a 8.550998
_cell_length_b 10.354107
_cell_length_c 22.872577
_cell_angle_alpha 90.000000
_cell_angle_beta 70.271651
_cell_angle_gamma 90.000000
_cell_volume 1906.225567
_symmetry_space_group_name_H-M "C 2/C"
_symmetry_group_IT_number 15
_symmetry_cell_setting 'monoclinic'
loop_
_space_group_symop_operation_xyz
x,y,z
-x,y,1/2-z
-x,-y,-z
x,-y,1/2+z
1/2+x,1/2+y,z
1/2-x,1/2+y,1/2-z
1/2-x,1/2-y,-z
1/2+x,1/2-y,1/2+z
loop_
_atom_site_type_symbol
_atom_site_label
_atom_site_fract_x
_atom_site_fract_y
_atom_site_fract_z
Si Si1 0.147162 0.943744 0.605671
Si Si2 0.009298 0.424521 0.606115
Si Si3 0.442730 0.327956 0.191048
Si Si4 0.750000 0.250000 0.000000
Si Si5 0.331708 0.159982 0.854341
Si Si6 0.894653 0.158601 0.508004
O O1 0.345657 0.952736 0.588333
O O2 0.102918 0.804419 0.640050
O O3 0.099408 0.948544 0.543384
O O4 0.057020 0.059945 0.649276
O O5 0.972297 0.306724 0.654502
O O6 0.161123 0.371296 0.548583
O O7 0.044916 0.550549 0.639974
O O8 0.500000 0.316862 0.250000
O O9 0.249209 0.356111 0.199463
O O10 0.928241 0.225155 0.009976
O O11 0.175806 0.137258 0.918437
O O12 0.750000 0.250000 0.500000
#
# Coordination Sequence:
#
# PCOD9276536 Si02
#       6
#     8   8   8   4   8   8
#     4  10  23  45  64 101 137 178 233 282 344 424
#     4  11  25  41  69 104 138 180 230 284 353 416
#     4  11  25  46  67  92 135 183 237 294 343 409
#     4  12  20  38  70  98 146 188 208 280 354 414
#     4  10  23  44  63 100 138 173 229 283 340 415
#     4  10  20  40  63 101 145 177 225 276 341 427
#
# _framework density 23.082260999999999
#
# number of rings (size 3 to 8) (size 9 to 14) (size 15 to 20)
#    0.000    1.455    5.455    1.091    2.545    9.455 
#    0.000    0.909    0.000    0.000    0.000    0.000 
#    0.000    0.000    0.000    0.000    0.000    0.000 
#
# Total GULP energy -122480.497272 kJ/mol
# GULP energy per Si atom -5567.295331 kJ/mol
# Density = 2.302973 g / cm^3
# Si number density = 23.082261 Si / 1000 Ang^3
#
#
#
# Elastic Constant Matrix: (Units=GPa)
#
#
# Indices 1 2 3 4 5 6 
#
# 1 150.6272 44.3662 20.2048 0.0000 29.1301 0.0000
# 2 44.3662 86.4125 7.9514 0.0000 2.5145 0.0000
# 3 20.2048 7.9514 57.7821 0.0000 39.3458 0.0000
# 4 0.0000 0.0000 0.0000 14.4967 0.0000 6.7542
# 5 29.1301 2.5145 39.3458 0.0000 40.9871 0.0000
# 6 0.0000 0.0000 0.0000 6.7542 0.0000 31.6719
#
#
#
# Elastic Compliance Matrix: (Units=1/GPa)
#
#
# Indices 1 2 3 4 5 6 
#
# 1 0.009680 -0.005110 0.005167 0.000000 -0.011526 0.000000
# 2 -0.005110 0.014500 -0.005994 0.000000 0.008496 0.000000
# 3 0.005167 -0.005994 0.053632 0.000000 -0.054789 0.000000
# 4 0.000000 0.000000 0.000000 0.076591 0.000000 -0.016334
# 5 -0.011526 0.008496 -0.054789 0.000000 0.084664 0.000000
# 6 0.000000 0.000000 0.000000 -0.016334 0.000000 0.035057
#
#
# Mechanical properties :
#
#
# Convention : Reuss Voigt Hill
#
# Bulk Modulus (GPa) = 15.16540 48.87405 32.01973
# Shear Modulus (GPa) = 16.23493 32.25109 24.24301
#
# Velocity S-wave (km/s) = 2.65495 3.74200 3.24433
# Velocity P-wave (km/s) = 3.99785 6.31585 5.28549
#
# Compressibility (1/GPa) = 0.06593957
#
# Stress axis : x y z
#
# Youngs Moduli (GPa) = 103.30524 68.96409 18.64547
#
# Poissons Ratio (x) = 0.35241 -0.09634
# Poissons Ratio (y) = 0.52789 0.11175
# Poissons Ratio (z) = -0.53379 0.41335
#
# Static dielectric constant tensor:
#      x y z
#    x 1.870240 0.000000 0.012800 
#    y 0.000000 1.953090 0.000000 
#    z 0.012800 0.000000 1.912130 
# 
# From -- ./inp_files/263018.got.cif
#   From: 2010.05.17/outbox.cif.g08.bks.cpg/sg15_132_cif.got.tgz:263018.got - 2010.06.03 18:47:42.
