data_PCOD9276563
_publ_section_title
;
Structure prediction by ZEFSAII (Michael W. Deem and Ramdas Pophale) SiO2 
 PCOD9276563
Probable space group: C 2/C
;
_chemical_formula_sum "Si O2"
_cell_formula_units_Z 48
_cell_length_a 10.957707
_cell_length_b 18.116534
_cell_length_c 20.484106
_cell_angle_alpha 90.000000
_cell_angle_beta 143.866496
_cell_angle_gamma 90.000000
_cell_volume 2397.838403
_symmetry_space_group_name_H-M "C 2/C"
_symmetry_group_IT_number 15
_symmetry_cell_setting 'monoclinic'
loop_
_space_group_symop_operation_xyz
x,y,z
-x,y,1/2-z
-x,-y,-z
x,-y,1/2+z
1/2+x,1/2+y,z
1/2-x,1/2+y,1/2-z
1/2-x,1/2-y,-z
1/2+x,1/2-y,1/2+z
loop_
_atom_site_type_symbol
_atom_site_label
_atom_site_fract_x
_atom_site_fract_y
_atom_site_fract_z
Si Si1 0.083223 0.910906 0.964896
Si Si2 0.623228 0.337130 0.741754
Si Si3 0.664002 0.422213 0.507730
Si Si4 0.489376 0.830979 0.168546
Si Si5 0.451040 0.795789 0.612102
Si Si6 0.404593 0.353032 0.277410
O O1 0.920807 0.889743 0.838577
O O2 0.187277 0.991426 0.003757
O O3 0.266611 0.852038 0.045579
O O4 0.969692 0.911456 0.985170
O O5 0.500000 0.368567 0.750000
O O6 0.524647 0.256711 0.685460
O O7 0.866285 0.319795 0.858646
O O8 0.866073 0.371915 0.603787
O O9 0.540001 0.388861 0.393103
O O10 0.500000 0.855825 0.250000
O O11 0.668502 0.864479 0.199179
O O12 0.250000 0.750000 0.500000
O O13 0.562052 0.735892 0.705765
O O14 0.500000 0.378981 0.250000
#
# Coordination Sequence:
#
# PCOD9276563 Si02
#       6
#     8   8   8   8   8   8
#     4  11  23  39  62  89 127 169 205 255 321 384
#     4  10  23  39  63  93 121 164 212 265 312 372
#     4  10  23  40  58  90 128 164 208 258 313 391
#     4  10  20  40  63  88 123 164 212 258 309 373
#     4   9  21  40  62  87 126 160 208 260 315 369
#     4  10  21  38  63  91 118 160 213 263 309 366
#
# _framework density 20.018031000000001
#
# number of rings (size 3 to 8) (size 9 to 14) (size 15 to 20)
#    0.000    2.000    1.667    0.500    7.000    4.667 
#    0.000    1.667    0.000    0.000    0.000    0.000 
#    0.000    0.000    0.000    0.000    0.000    0.000 
#
# Total GULP energy -133720.748631 kJ/mol
# GULP energy per Si atom -5571.697860 kJ/mol
# Density = 1.997247 g / cm^3
# Si number density = 20.018031 Si / 1000 Ang^3
#
#
#
# Elastic Constant Matrix: (Units=GPa)
#
#
# Indices 1 2 3 4 5 6 
#
# 1 124.9080 22.9235 34.0679 0.0000 -5.1293 0.0000
# 2 22.9235 70.3086 9.7726 0.0001 10.7957 0.0001
# 3 34.0679 9.7726 58.6362 -0.0001 13.8934 0.0002
# 4 0.0000 0.0001 -0.0001 9.9385 0.0000 1.3115
# 5 -5.1293 10.7957 13.8934 0.0000 36.2559 0.0000
# 6 0.0000 0.0001 0.0002 1.3115 0.0000 20.6597
#
#
#
# Elastic Compliance Matrix: (Units=1/GPa)
#
#
# Indices 1 2 3 4 5 6 
#
# 1 0.010704 -0.003323 -0.006884 0.000000 0.005142 0.000000
# 2 -0.003323 0.016069 0.000547 0.000000 -0.005465 0.000000
# 3 -0.006884 0.000547 0.023352 0.000000 -0.010085 0.000000
# 4 0.000000 0.000000 0.000000 0.101469 0.000000 -0.006442
# 5 0.005142 -0.005465 -0.010085 0.000000 0.033801 0.000000
# 6 0.000000 0.000000 0.000000 -0.006442 0.000000 0.048812
#
#
# Mechanical properties :
#
#
# Convention : Reuss Voigt Hill
#
# Bulk Modulus (GPa) = 32.45987 43.04233 37.75110
# Shear Modulus (GPa) = 18.95403 25.84341 22.39872
#
# Velocity S-wave (km/s) = 3.08043 3.59696 3.34867
# Velocity P-wave (km/s) = 5.37611 6.22890 5.81815
#
# Compressibility (1/GPa) = 0.03080727
#
# Stress axis : x y z
#
# Youngs Moduli (GPa) = 93.42006 62.23014 42.82231
#
# Poissons Ratio (x) = 0.20677 0.29478
# Poissons Ratio (y) = 0.31041 -0.02343
# Poissons Ratio (z) = 0.64308 -0.03405
#
# Static dielectric constant tensor:
#      x y z
#    x 1.745510 0.000000 0.018190 
#    y 0.000000 1.722600 0.000000 
#    z 0.018190 0.000000 1.739410 
# 
# From -- ./inp_files/270656.got.cif
#   From: 2010.05.17/outbox.cif.g08.bks.cpg/sg15_136_cif.got.tgz:270656.got - 2010.06.03 18:47:42.
