data_PCOD9276798
_publ_section_title
;
Structure prediction by ZEFSAII (Michael W. Deem and Ramdas Pophale) SiO2 
 PCOD9276798
Probable space group: C 2/C
;
_chemical_formula_sum "Si O2"
_cell_formula_units_Z 48
_cell_length_a 13.983882
_cell_length_b 12.116307
_cell_length_c 22.043988
_cell_angle_alpha 90.000000
_cell_angle_beta 42.073393
_cell_angle_gamma 90.000000
_cell_volume 2502.742275
_symmetry_space_group_name_H-M "C 2/C"
_symmetry_group_IT_number 15
_symmetry_cell_setting 'monoclinic'
loop_
_space_group_symop_operation_xyz
x,y,z
-x,y,1/2-z
-x,-y,-z
x,-y,1/2+z
1/2+x,1/2+y,z
1/2-x,1/2+y,1/2-z
1/2-x,1/2-y,-z
1/2+x,1/2-y,1/2+z
loop_
_atom_site_type_symbol
_atom_site_label
_atom_site_fract_x
_atom_site_fract_y
_atom_site_fract_z
Si Si1 0.656123 0.655261 0.077254
Si Si2 0.761645 0.723645 0.842958
Si Si3 0.399439 0.999379 0.460582
Si Si4 0.661927 0.321127 0.821607
Si Si5 0.603864 0.006753 0.249570
Si Si6 0.531887 0.813004 0.485634
O O1 0.661273 0.694183 0.145213
O O2 0.499095 0.651569 0.123709
O O3 0.750000 0.750000 0.000000
O O4 0.738598 0.541315 0.026246
O O5 0.773029 0.764147 0.768545
O O6 0.836652 0.605081 0.808929
O O7 0.594373 0.727746 0.938796
O O8 0.410023 0.121504 0.483463
O O9 0.502334 0.984716 0.354871
O O10 0.456345 0.909448 0.482101
O O11 0.761741 0.422548 0.792346
O O12 0.645993 0.242945 0.887814
O O13 0.500000 0.064736 0.250000
#
# Coordination Sequence:
#
# PCOD9276798 Si02
#       6
#     8   8   8   8   8   8
#     4  11  20  38  65  96 123 160 210 264 313 370
#     4  11  21  40  65  93 124 159 212 264 311 373
#     4  10  20  40  65  88 124 168 209 250 321 370
#     4  12  23  40  64  95 125 163 218 259 313 382
#     4  12  25  40  63  94 127 166 210 266 320 367
#     4  10  21  39  65  89 123 171 202 255 314 381
#
# _framework density 19.178961000000001
#
# number of rings (size 3 to 8) (size 9 to 14) (size 15 to 20)
#    0.000    1.000    6.667    2.500    0.000    0.667 
#    0.000    2.500    0.000    0.000    0.000    0.000 
#    0.000    0.000    0.000    0.000    0.000    0.000 
#
# Total GULP energy -133950.182772 kJ/mol
# GULP energy per Si atom -5581.257616 kJ/mol
# Density = 1.913531 g / cm^3
# Si number density = 19.178961 Si / 1000 Ang^3
#
#
#
# Elastic Constant Matrix: (Units=GPa)
#
#
# Indices 1 2 3 4 5 6 
#
# 1 70.6449 28.1597 27.8009 0.0000 -5.5427 0.0000
# 2 28.1597 47.4452 28.9854 0.0000 -0.8599 0.0000
# 3 27.8009 28.9854 116.4635 0.0000 13.6687 0.0000
# 4 0.0000 0.0000 0.0000 26.4865 0.0000 6.2726
# 5 -5.5427 -0.8599 13.6687 0.0000 16.0929 0.0000
# 6 0.0000 0.0000 0.0000 6.2726 0.0000 22.9041
#
#
#
# Elastic Compliance Matrix: (Units=1/GPa)
#
#
# Indices 1 2 3 4 5 6 
#
# 1 0.020107 -0.009621 -0.003507 0.000000 0.009390 0.000000
# 2 -0.009621 0.030259 -0.005593 0.000000 0.003053 0.000000
# 3 -0.003507 -0.005593 0.012209 0.000000 -0.011877 0.000000
# 4 0.000000 0.000000 0.000000 0.040374 0.000000 -0.011057
# 5 0.009390 0.003053 -0.011877 0.000000 0.075625 0.000000
# 6 0.000000 0.000000 0.000000 -0.011057 0.000000 0.046688
#
#
# Mechanical properties :
#
#
# Convention : Reuss Voigt Hill
#
# Bulk Modulus (GPa) = 39.78711 44.93841 42.36276
# Shear Modulus (GPa) = 18.44451 23.07052 20.75752
#
# Velocity S-wave (km/s) = 3.10450 3.47206 3.29341
# Velocity P-wave (km/s) = 5.80007 6.28932 6.04964
#
# Compressibility (1/GPa) = 0.02513377
#
# Stress axis : x y z
#
# Youngs Moduli (GPa) = 49.73282 33.04763 81.90372
#
# Poissons Ratio (x) = 0.31796 0.28727
# Poissons Ratio (y) = 0.47849 0.45805
# Poissons Ratio (z) = 0.17443 0.18482
#
# Static dielectric constant tensor:
#      x y z
#    x 1.716720 0.000000 0.018750 
#    y 0.000000 1.671990 0.000000 
#    z 0.018750 0.000000 1.685060 
# 
# From -- ./inp_files/181810.got.cif
#   From: 2010.05.17/outbox.cif.g08.bks.cpg/sg15_91_cif.got.tgz:181810.got - 2010.06.03 18:47:42.
