data_PCOD9276178
_publ_section_title
;
Structure prediction by ZEFSAII (Michael W. Deem and Ramdas Pophale) SiO2 
 PCOD9276178
Probable space group: C 2/C
;
_chemical_formula_sum "Si O2"
_cell_formula_units_Z 40
_cell_length_a 18.046731
_cell_length_b 16.515649
_cell_length_c 11.431276
_cell_angle_alpha 90.000000
_cell_angle_beta 27.991084
_cell_angle_gamma 90.000000
_cell_volume 1599.083211
_symmetry_space_group_name_H-M "C 2/C"
_symmetry_group_IT_number 15
_symmetry_cell_setting 'monoclinic'
loop_
_space_group_symop_operation_xyz
x,y,z
-x,y,1/2-z
-x,-y,-z
x,-y,1/2+z
1/2+x,1/2+y,z
1/2-x,1/2+y,1/2-z
1/2-x,1/2-y,-z
1/2+x,1/2-y,1/2+z
loop_
_atom_site_type_symbol
_atom_site_label
_atom_site_fract_x
_atom_site_fract_y
_atom_site_fract_z
Si Si1 0.975566 0.597564 0.539407
Si Si2 0.777191 0.965398 0.959011
Si Si3 0.500000 0.072695 0.250000
Si Si4 0.139453 0.271944 0.960652
Si Si5 0.964597 0.157846 0.052014
Si Si6 0.000000 0.910419 0.250000
O O1 0.813650 0.601835 0.838339
O O2 0.980958 0.622255 0.396353
O O3 0.000000 0.500000 0.500000
O O4 0.102515 0.646459 0.437665
O O5 0.651213 0.013737 0.055567
O O6 0.909132 0.922621 0.696972
O O7 0.851923 0.029940 0.942495
O O8 0.000000 0.264749 0.250000
O O9 0.111592 0.198301 0.911071
O O10 0.313631 0.282336 0.768100
O O11 0.996101 0.140026 0.873495
#
# Coordination Sequence:
#
# PCOD9276178 Si02
#       6
#     8   8   4   8   8   4
#     4  10  21  38  71  99 133 174 229 283 333 404
#     4  11  22  43  69 102 140 179 234 280 342 410
#     4  10  20  39  70 105 132 178 228 288 342 397
#     4  12  26  47  71 101 138 184 233 283 343 422
#     4  12  27  46  71 102 142 186 231 283 350 409
#     4  12  28  45  68 105 144 180 228 296 346 403
#
# _framework density 25.014334000000002
#
# number of rings (size 3 to 8) (size 9 to 14) (size 15 to 20)
#    0.000    0.800    2.000    7.200    2.800    3.200 
#    0.000    0.000    0.000    0.000    0.000    0.000 
#    0.000    0.000    0.000    0.000    0.000    0.000 
#
# Total GULP energy -112126.148619 kJ/mol
# GULP energy per Si atom -5606.307431 kJ/mol
# Density = 2.495740 g / cm^3
# Si number density = 25.014334 Si / 1000 Ang^3
#
#
#
# Elastic Constant Matrix: (Units=GPa)
#
#
# Indices 1 2 3 4 5 6 
#
# 1 99.7759 13.6301 3.6140 0.0002 10.2806 0.0000
# 2 13.6301 63.5475 6.8655 0.0000 -1.1609 0.0000
# 3 3.6140 6.8655 49.6542 0.0003 12.4227 -0.0001
# 4 0.0002 0.0000 0.0003 5.1452 -0.0003 2.7856
# 5 10.2806 -1.1609 12.4227 -0.0003 64.2380 0.0001
# 6 0.0000 0.0000 -0.0001 2.7856 0.0001 59.6052
#
#
#
# Elastic Compliance Matrix: (Units=1/GPa)
#
#
# Indices 1 2 3 4 5 6 
#
# 1 0.010512 -0.002284 -0.000019 0.000000 -0.001720 0.000000
# 2 -0.002284 0.016506 -0.002398 0.000000 0.001128 0.000000
# 3 -0.000019 -0.002398 0.021524 -0.000001 -0.004203 0.000000
# 4 0.000000 0.000000 -0.000001 0.199399 0.000001 -0.009319
# 5 -0.001720 0.001128 -0.004203 0.000001 0.016675 0.000000
# 6 0.000000 0.000000 0.000000 -0.009319 0.000000 0.017213
#
#
# Mechanical properties :
#
#
# Convention : Reuss Voigt Hill
#
# Bulk Modulus (GPa) = 25.54963 29.02188 27.28575
# Shear Modulus (GPa) = 16.43234 38.38888 27.41061
#
# Velocity S-wave (km/s) = 2.56582 3.92174 3.31387
# Velocity P-wave (km/s) = 4.36051 5.66869 5.05708
#
# Compressibility (1/GPa) = 0.03913951
#
# Stress axis : x y z
#
# Youngs Moduli (GPa) = 95.12567 60.58451 46.46051
#
# Poissons Ratio (x) = 0.13838 0.00088
# Poissons Ratio (y) = 0.21728 0.11142
# Poissons Ratio (z) = 0.00181 0.14529
#
# Static dielectric constant tensor:
#      x y z
#    x 1.960370 0.000000 -0.000550 
#    y 0.000000 2.008630 0.000000 
#    z -0.000550 0.000000 2.031660 
# 
# From -- ./inp_files/106867.got.cif
#   From: 2010.05.17/outbox.cif.g08.bks.cpg/sg15_54_cif.got.tgz:106867.got - 2010.06.03 18:47:42.
