data_PCOD9276446
_publ_section_title
;
Structure prediction by ZEFSAII (Michael W. Deem and Ramdas Pophale) SiO2 
 PCOD9276446
Probable space group: C 2/C
;
_chemical_formula_sum "Si O2"
_cell_formula_units_Z 40
_cell_length_a 21.007529
_cell_length_b 16.539148
_cell_length_c 7.917347
_cell_angle_alpha 90.000000
_cell_angle_beta 131.056052
_cell_angle_gamma 90.000000
_cell_volume 2074.330493
_symmetry_space_group_name_H-M "C 2/C"
_symmetry_group_IT_number 15
_symmetry_cell_setting 'monoclinic'
loop_
_space_group_symop_operation_xyz
x,y,z
-x,y,1/2-z
-x,-y,-z
x,-y,1/2+z
1/2+x,1/2+y,z
1/2-x,1/2+y,1/2-z
1/2-x,1/2-y,-z
1/2+x,1/2-y,1/2+z
loop_
_atom_site_type_symbol
_atom_site_label
_atom_site_fract_x
_atom_site_fract_y
_atom_site_fract_z
Si Si1 0.917260 0.890301 0.408410
Si Si2 0.500000 0.754183 0.250000
Si Si3 0.419153 0.937092 0.726866
Si Si4 0.763490 0.345115 0.535463
Si Si5 0.000000 0.018706 0.750000
Si Si6 0.880915 0.605868 0.523364
O O1 0.823108 0.883587 0.176712
O O2 0.975606 0.925495 0.362705
O O3 0.955844 0.805284 0.538451
O O4 0.925265 0.956575 0.570976
O O5 0.575020 0.814809 0.324092
O O6 0.500000 0.924985 0.750000
O O7 0.342564 0.874805 0.559694
O O8 0.437084 0.921136 0.956242
O O9 0.380777 0.026997 0.638150
O O10 0.750000 0.250000 0.500000
O O11 0.793598 0.371481 0.776591
#
# Coordination Sequence:
#
# PCOD9276446 Si02
#       6
#     8   4   8   8   4   8
#     4  10  20  40  62  85 119 161 200 253 299 343
#     4  11  20  38  60  81 126 154 190 255 300 356
#     4  10  21  37  62  89 118 157 197 244 300 370
#     4  10  22  39  58  88 122 156 193 256 294 353
#     4   9  22  38  64  89 112 162 218 235 294 372
#     4  10  22  36  61  86 119 155 197 243 303 355
#
# _framework density 19.283329999999999
#
# number of rings (size 3 to 8) (size 9 to 14) (size 15 to 20)
#    1.200    0.800    3.000    0.600    2.800    0.000 
#    7.200    0.000    0.000    3.600    0.000    0.000 
#    0.000    0.000    0.000    0.000    0.000    0.000 
#
# Total GULP energy -111345.248797 kJ/mol
# GULP energy per Si atom -5567.262440 kJ/mol
# Density = 1.923944 g / cm^3
# Si number density = 19.283330 Si / 1000 Ang^3
#
#
#
# Elastic Constant Matrix: (Units=GPa)
#
#
# Indices 1 2 3 4 5 6 
#
# 1 30.4731 33.8052 11.9154 0.0000 12.3485 0.0000
# 2 33.8052 145.8666 47.5426 0.0000 15.2390 0.0000
# 3 11.9154 47.5426 105.2534 0.0000 35.3206 0.0000
# 4 0.0000 0.0000 0.0000 38.0619 0.0000 -0.9569
# 5 12.3485 15.2390 35.3206 0.0000 33.9211 0.0000
# 6 0.0000 0.0000 0.0000 -0.9569 0.0000 27.4971
#
#
#
# Elastic Compliance Matrix: (Units=1/GPa)
#
#
# Indices 1 2 3 4 5 6 
#
# 1 0.051694 -0.011926 0.006228 0.000000 -0.019946 0.000000
# 2 -0.011926 0.010792 -0.005156 0.000000 0.004862 0.000000
# 3 0.006228 -0.005156 0.017075 0.000000 -0.017730 0.000000
# 4 0.000000 0.000000 0.000000 0.026296 0.000000 0.000915
# 5 -0.019946 0.004862 -0.017730 0.000000 0.053018 0.000000
# 6 0.000000 0.000000 0.000000 0.000915 0.000000 0.036399
#
#
# Mechanical properties :
#
#
# Convention : Reuss Voigt Hill
#
# Bulk Modulus (GPa) = 17.28563 52.01329 34.64946
# Shear Modulus (GPa) = 21.16254 32.45134 26.80694
#
# Velocity S-wave (km/s) = 3.31638 4.10673 3.73253
# Velocity P-wave (km/s) = 4.86292 7.03695 6.04842
#
# Compressibility (1/GPa) = 0.05785153
#
# Stress axis : x y z
#
# Youngs Moduli (GPa) = 19.34478 92.65929 58.56635
#
# Poissons Ratio (x) = 1.10510 -0.36477
# Poissons Ratio (y) = 0.23071 0.30199
# Poissons Ratio (z) = -0.12049 0.47778
#
# Static dielectric constant tensor:
#      x y z
#    x 1.661250 0.000000 -0.000120 
#    y 0.000000 1.682120 0.000000 
#    z -0.000120 0.000000 1.750550 
# 
# From -- ./inp_files/61324.got.cif
#   From: 2010.05.17/outbox.cif.g08.bks.cpg/sg15_31_cif.got.tgz:61324.got - 2010.06.03 18:47:42.
