data_PCOD9276282
_publ_section_title
;
Structure prediction by ZEFSAII (Michael W. Deem and Ramdas Pophale) SiO2 
 PCOD9276282
Probable space group: C 2/C
;
_chemical_formula_sum "Si O2"
_cell_formula_units_Z 32
_cell_length_a 5.793036
_cell_length_b 29.438482
_cell_length_c 8.691467
_cell_angle_alpha 90.000000
_cell_angle_beta 87.346911
_cell_angle_gamma 90.000000
_cell_volume 1480.638230
_symmetry_space_group_name_H-M "C 2/C"
_symmetry_group_IT_number 15
_symmetry_cell_setting 'monoclinic'
loop_
_space_group_symop_operation_xyz
x,y,z
-x,y,1/2-z
-x,-y,-z
x,-y,1/2+z
1/2+x,1/2+y,z
1/2-x,1/2+y,1/2-z
1/2-x,1/2-y,-z
1/2+x,1/2-y,1/2+z
loop_
_atom_site_type_symbol
_atom_site_label
_atom_site_fract_x
_atom_site_fract_y
_atom_site_fract_z
Si Si1 0.500000 0.979654 0.750000
Si Si2 0.502658 0.234138 0.429574
Si Si3 0.000000 0.121588 0.750000
Si Si4 0.382730 0.853163 0.417289
Si Si5 0.651897 0.060338 0.955383
O O1 0.669317 0.950895 0.635108
O O2 0.628963 0.013471 0.863172
O O3 0.500000 0.244565 0.250000
O O4 0.750000 0.250000 0.500000
O O5 0.518640 0.179800 0.459138
O O6 0.250000 0.250000 0.500000
O O7 0.881735 0.151797 0.622254
O O8 0.836927 0.089484 0.856702
O O9 0.500000 0.841651 0.250000
O O10 0.429065 0.906292 0.449481
#
# Coordination Sequence:
#
# PCOD9276282 Si02
#       5
#     4   8   4   8   8
#     4  10  20  40  58  91 132 176 231 290 348 408
#     4  12  28  49  76 110 144 186 235 294 357 436
#     4  10  20  40  66  95 126 190 221 284 344 418
#     4  10  22  42  68  96 140 178 227 283 361 413
#     4  10  21  39  61  90 133 176 228 288 345 413
#
# _framework density 21.612303000000001
#
# number of rings (size 3 to 8) (size 9 to 14) (size 15 to 20)
#    0.000    1.500    3.750    2.250   10.500    1.000 
#    0.000    0.000    0.000    0.000    0.000    0.000 
#    0.000    0.000    0.000    0.000    0.000    0.000 
#
# Total GULP energy -89072.333705 kJ/mol
# GULP energy per Si atom -5567.020857 kJ/mol
# Density = 2.156311 g / cm^3
# Si number density = 21.612303 Si / 1000 Ang^3
#
#
#
# Elastic Constant Matrix: (Units=GPa)
#
#
# Indices 1 2 3 4 5 6 
#
# 1 100.8566 30.8716 54.4068 0.0000 6.1338 0.0000
# 2 30.8716 70.7038 39.1415 0.0000 7.7053 0.0000
# 3 54.4068 39.1415 159.5872 0.0000 -6.7087 0.0000
# 4 0.0000 0.0000 0.0000 16.9068 0.0000 6.0436
# 5 6.1338 7.7053 -6.7087 0.0000 26.5623 0.0000
# 6 0.0000 0.0000 0.0000 6.0436 0.0000 16.8108
#
#
#
# Elastic Compliance Matrix: (Units=1/GPa)
#
#
# Indices 1 2 3 4 5 6 
#
# 1 0.013166 -0.003311 -0.003804 0.000000 -0.003041 0.000000
# 2 -0.003311 0.018141 -0.003547 0.000000 -0.005394 0.000000
# 3 -0.003804 -0.003547 0.008605 0.000000 0.004081 0.000000
# 4 0.000000 0.000000 0.000000 0.067870 0.000000 -0.024400
# 5 -0.003041 -0.005394 0.004081 0.000000 0.040945 0.000000
# 6 0.000000 0.000000 0.000000 -0.024400 0.000000 0.068257
#
#
# Mechanical properties :
#
#
# Convention : Reuss Voigt Hill
#
# Bulk Modulus (GPa) = 53.80411 64.44305 59.12358
# Shear Modulus (GPa) = 20.44957 25.83781 23.14369
#
# Velocity S-wave (km/s) = 3.07937 3.46137 3.27595
# Velocity P-wave (km/s) = 6.13128 6.77180 6.45948
#
# Compressibility (1/GPa) = 0.01858594
#
# Stress axis : x y z
#
# Youngs Moduli (GPa) = 75.95506 55.12423 116.21627
#
# Poissons Ratio (x) = 0.18253 0.44210
# Poissons Ratio (y) = 0.25151 0.41224
# Poissons Ratio (z) = 0.28894 0.19554
#
# Static dielectric constant tensor:
#      x y z
#    x 2.038910 0.000000 0.025480 
#    y 0.000000 1.835460 0.000000 
#    z 0.025480 0.000000 1.796550 
# 
# From -- ./inp_files/19976.got.cif
#   From: 2010.05.17/outbox.cif.g08.bks.cpg/sg15_10_cif.got.tgz:19976.got - 2010.06.03 18:47:42.
