data_PCOD9276692
_publ_section_title
;
Structure prediction by ZEFSAII (Michael W. Deem and Ramdas Pophale) SiO2 
 PCOD9276692
Probable space group: C 2/C
;
_chemical_formula_sum "Si O2"
_cell_formula_units_Z 48
_cell_length_a 13.725965
_cell_length_b 12.212198
_cell_length_c 27.621999
_cell_angle_alpha 90.000000
_cell_angle_beta 29.560508
_cell_angle_gamma 90.000000
_cell_volume 2284.232486
_symmetry_space_group_name_H-M "C 2/C"
_symmetry_group_IT_number 15
_symmetry_cell_setting 'monoclinic'
loop_
_space_group_symop_operation_xyz
x,y,z
-x,y,1/2-z
-x,-y,-z
x,-y,1/2+z
1/2+x,1/2+y,z
1/2-x,1/2+y,1/2-z
1/2-x,1/2-y,-z
1/2+x,1/2-y,1/2+z
loop_
_atom_site_type_symbol
_atom_site_label
_atom_site_fract_x
_atom_site_fract_y
_atom_site_fract_z
Si Si1 0.611883 0.176556 0.439097
Si Si2 0.854346 0.837233 0.489719
Si Si3 0.500000 0.804744 0.250000
Si Si4 0.248664 0.062608 0.778428
Si Si5 0.878777 0.550482 0.613631
Si Si6 0.500000 0.338051 0.250000
Si Si7 0.979369 0.375466 0.704378
O O1 0.460580 0.271515 0.487680
O O2 0.827452 0.228517 0.345924
O O3 0.554846 0.120120 0.514256
O O4 0.593281 0.078447 0.407648
O O5 0.750000 0.750000 0.500000
O O6 0.672739 0.905927 0.590220
O O7 0.026821 0.901792 0.387329
O O8 0.608301 0.874225 0.245507
O O9 0.323337 0.081713 0.691872
O O10 0.284868 0.932256 0.768773
O O11 0.690297 0.587409 0.663080
O O12 0.524238 0.254783 0.284873
O O13 0.000000 0.417140 0.750000
#
# Coordination Sequence:
#
# PCOD9276692 Si02
#       7
#     8   8   4   8   8   4   8
#     4  10  22  41  65  90 132 166 215 264 320 377
#     4  11  22  40  68  94 127 170 213 264 322 383
#     4  10  22  46  60  90 132 164 206 272 318 378
#     4  11  24  41  65  95 128 166 217 265 318 383
#     4  11  22  39  65  93 124 170 216 263 319 381
#     4  10  20  40  64  90 130 162 216 264 316 384
#     4  10  21  41  62  90 129 162 213 259 321 371
#
# _framework density 21.013622000000002
#
# number of rings (size 3 to 8) (size 9 to 14) (size 15 to 20)
#    0.500    1.000    2.500    2.500    0.000    2.667 
#    6.000    0.000    0.000    0.000    0.000    0.000 
#    0.000    0.000    0.000    0.000    0.000    0.000 
#
# Total GULP energy -133885.470252 kJ/mol
# GULP energy per Si atom -5578.561261 kJ/mol
# Density = 2.096579 g / cm^3
# Si number density = 21.013622 Si / 1000 Ang^3
#
#
#
# Elastic Constant Matrix: (Units=GPa)
#
#
# Indices 1 2 3 4 5 6 
#
# 1 45.6435 11.7270 30.3194 -0.0004 11.2150 -0.0004
# 2 11.7270 57.2896 31.6091 -0.0003 -3.0286 -0.0001
# 3 30.3194 31.6091 129.9264 -0.0034 11.3047 -0.0016
# 4 -0.0004 -0.0003 -0.0034 21.6692 -0.0001 -16.3099
# 5 11.2150 -3.0286 11.3047 -0.0001 42.3760 0.0003
# 6 -0.0004 -0.0001 -0.0016 -16.3099 0.0003 16.8020
#
#
#
# Elastic Compliance Matrix: (Units=1/GPa)
#
#
# Indices 1 2 3 4 5 6 
#
# 1 0.027655 -0.003145 -0.005152 0.000000 -0.006169 0.000000
# 2 -0.003145 0.020852 -0.004649 -0.000003 0.003563 -0.000003
# 3 -0.005152 -0.004649 0.010176 0.000008 -0.001684 0.000008
# 4 0.000000 -0.000003 0.000008 0.171320 -0.000003 0.166303
# 5 -0.006169 0.003563 -0.001684 -0.000003 0.025935 -0.000004
# 6 0.000000 -0.000003 0.000008 0.166303 -0.000004 0.220949
#
#
# Mechanical properties :
#
#
# Convention : Reuss Voigt Hill
#
# Bulk Modulus (GPa) = 30.49465 42.24116 36.36790
# Shear Modulus (GPa) = 9.73313 26.78303 18.25808
#
# Velocity S-wave (km/s) = 2.15450 3.57397 2.95086
# Velocity P-wave (km/s) = 4.55330 6.09725 5.38094
#
# Compressibility (1/GPa) = 0.03279264
#
# Stress axis : x y z
#
# Youngs Moduli (GPa) = 36.16006 47.95610 98.26629
#
# Poissons Ratio (x) = 0.15080 0.50623
# Poissons Ratio (y) = 0.11371 0.45686
# Poissons Ratio (z) = 0.18628 0.22296
#
# Static dielectric constant tensor:
#      x y z
#    x 1.789060 0.000000 0.024440 
#    y 0.000000 1.795870 0.000000 
#    z 0.024440 0.000000 1.767800 
# 
# From -- ./inp_files/313553.got.cif
#   From: 2010.05.17/outbox.cif.g08.bks.cpg/sg15_157_cif.got.tgz:313553.got - 2010.06.03 18:47:42.
