data_PCOD9276092
_publ_section_title
;
Structure prediction by ZEFSAII (Michael W. Deem and Ramdas Pophale) SiO2 
 PCOD9276092
Probable space group: C 2/C
;
_chemical_formula_sum "Si O2"
_cell_formula_units_Z 44
_cell_length_a 6.276328
_cell_length_b 27.278046
_cell_length_c 11.755176
_cell_angle_alpha 90.000000
_cell_angle_beta 108.496438
_cell_angle_gamma 90.000000
_cell_volume 1908.594385
_symmetry_space_group_name_H-M "C 2/C"
_symmetry_group_IT_number 15
_symmetry_cell_setting 'monoclinic'
loop_
_space_group_symop_operation_xyz
x,y,z
-x,y,1/2-z
-x,-y,-z
x,-y,1/2+z
1/2+x,1/2+y,z
1/2-x,1/2+y,1/2-z
1/2-x,1/2-y,-z
1/2+x,1/2-y,1/2+z
loop_
_atom_site_type_symbol
_atom_site_label
_atom_site_fract_x
_atom_site_fract_y
_atom_site_fract_z
Si Si1 0.000000 0.677460 0.750000
Si Si2 0.552016 0.894171 0.057779
Si Si3 0.500000 0.194828 0.250000
Si Si4 0.000000 0.075542 0.750000
Si Si5 0.138640 0.950235 0.035676
Si Si6 0.889845 0.229847 0.914619
Si Si7 0.837066 0.142182 0.422215
O O1 0.956345 0.644425 0.631738
O O2 0.219819 0.710318 0.787863
O O3 0.392523 0.941560 0.035199
O O4 0.805749 0.898852 0.146708
O O5 0.602964 0.874981 0.942054
O O6 0.484034 0.227754 0.132725
O O7 0.736225 0.164938 0.289960
O O8 0.855678 0.052198 0.826221
O O9 0.000079 0.905298 0.953072
O O10 0.000000 0.000000 0.000000
O O11 0.750000 0.250000 0.000000
O O12 0.039731 0.185089 0.985906
#
# Coordination Sequence:
#
# PCOD9276092 Si02
#       7
#     4   8   4   4   8   8   8
#     4  12  18  36  69  95 124 181 219 294 348 410
#     4  11  20  42  69  99 137 175 238 292 354 435
#     4  12  26  45  63 104 142 189 240 295 370 434
#     4  10  20  39  68 101 130 180 231 283 360 430
#     4  11  24  45  69 104 140 185 239 302 363 441
#     4  12  24  42  68 104 142 187 245 297 362 444
#     4  11  25  45  67 100 141 186 237 298 366 433
#
# _framework density 23.053615000000001
#
# number of rings (size 3 to 8) (size 9 to 14) (size 15 to 20)
#    0.000    0.727    3.636    4.909    0.000    3.636 
#    6.545    0.000    0.000    0.000    0.000    0.000 
#    0.000    0.000    0.000    0.000    0.000    0.000 
#
# Total GULP energy -122607.621381 kJ/mol
# GULP energy per Si atom -5573.073699 kJ/mol
# Density = 2.300114 g / cm^3
# Si number density = 23.053615 Si / 1000 Ang^3
#
#
#
# Elastic Constant Matrix: (Units=GPa)
#
#
# Indices 1 2 3 4 5 6 
#
# 1 103.9223 39.2541 11.9719 0.0000 12.8504 0.0000
# 2 39.2541 101.9392 21.2883 0.0000 22.2142 0.0000
# 3 11.9719 21.2883 49.5149 0.0000 19.2319 0.0000
# 4 0.0000 0.0000 0.0000 15.6756 0.0000 17.9067
# 5 12.8504 22.2142 19.2319 0.0000 53.6651 0.0000
# 6 0.0000 0.0000 0.0000 17.9067 0.0000 27.0240
#
#
#
# Elastic Compliance Matrix: (Units=1/GPa)
#
#
# Indices 1 2 3 4 5 6 
#
# 1 0.011328 -0.004045 -0.000693 0.000000 -0.000790 0.000000
# 2 -0.004045 0.012734 -0.003283 0.000000 -0.003126 0.000000
# 3 -0.000693 -0.003283 0.024608 0.000000 -0.007294 0.000000
# 4 0.000000 0.000000 0.000000 0.262454 0.000000 -0.173909
# 5 -0.000790 -0.003126 -0.007294 0.000000 0.022731 0.000000
# 6 0.000000 0.000000 0.000000 -0.173909 0.000000 0.152240
#
#
# Mechanical properties :
#
#
# Convention : Reuss Voigt Hill
#
# Bulk Modulus (GPa) = 30.64826 44.48944 37.56885
# Shear Modulus (GPa) = 9.74632 31.46375 20.60504
#
# Velocity S-wave (km/s) = 2.05836 3.69834 2.99287
# Velocity P-wave (km/s) = 4.35572 6.13001 5.31740
#
# Compressibility (1/GPa) = 0.03262828
#
# Stress axis : x y z
#
# Youngs Moduli (GPa) = 88.27622 78.52813 40.63749
#
# Poissons Ratio (x) = 0.31767 0.02816
# Poissons Ratio (y) = 0.35711 0.13340
# Poissons Ratio (z) = 0.06117 0.25778
#
# Static dielectric constant tensor:
#      x y z
#    x 1.445360 0.000000 -0.386140 
#    y 0.000000 2.010660 0.000000 
#    z -0.386140 0.000000 1.952790 
# 
# From -- ./inp_files/74059.got.cif
#   From: 2010.05.17/outbox.cif.g08.bks.cpg/sg15_38_cif.got.tgz:74059.got - 2010.06.03 18:47:42.
