data_PCOD9276209
_publ_section_title
;
Structure prediction by ZEFSAII (Michael W. Deem and Ramdas Pophale) SiO2 
 PCOD9276209
Probable space group: C 2/C
;
_chemical_formula_sum "Si O2"
_cell_formula_units_Z 52
_cell_length_a 8.840918
_cell_length_b 12.391552
_cell_length_c 21.191345
_cell_angle_alpha 90.000000
_cell_angle_beta 62.277256
_cell_angle_gamma 90.000000
_cell_volume 2055.073813
_symmetry_space_group_name_H-M "C 2/C"
_symmetry_group_IT_number 15
_symmetry_cell_setting 'monoclinic'
loop_
_space_group_symop_operation_xyz
x,y,z
-x,y,1/2-z
-x,-y,-z
x,-y,1/2+z
1/2+x,1/2+y,z
1/2-x,1/2+y,1/2-z
1/2-x,1/2-y,-z
1/2+x,1/2-y,1/2+z
loop_
_atom_site_type_symbol
_atom_site_label
_atom_site_fract_x
_atom_site_fract_y
_atom_site_fract_z
Si Si1 0.955904 0.167609 0.686161
Si Si2 0.500000 0.682720 0.250000
Si Si3 0.395422 0.140432 0.691549
Si Si4 0.107530 0.081943 0.524858
Si Si5 0.719239 0.901453 0.957940
Si Si6 0.462894 0.265132 0.567995
Si Si7 0.133212 0.401976 0.828555
O O1 0.754432 0.142162 0.728697
O O2 0.967553 0.297458 0.675762
O O3 0.000000 0.133870 0.750000
O O4 0.026806 0.112536 0.608718
O O5 0.470964 0.769332 0.311921
O O6 0.668290 0.613791 0.232908
O O7 0.336671 0.198271 0.637832
O O8 0.445707 0.016931 0.674496
O O9 0.125577 0.184562 0.476049
O O10 0.277729 0.018584 0.510844
O O11 0.000000 0.000000 0.500000
O O12 0.915455 0.857960 0.925041
O O13 0.658780 0.901812 0.898444
O O14 0.599712 0.823623 0.020426
#
# Coordination Sequence:
#
# PCOD9276209 Si02
#       7
#     8   4   8   8   8   8   8
#     4  11  25  46  65 107 150 180 245 301 353 433
#     4  10  24  44  64 100 138 176 234 282 352 424
#     4  11  25  41  73  99 142 187 231 292 362 417
#     4  10  22  40  73 103 138 191 238 289 359 428
#     4  10  20  39  71  95 139 180 231 290 345 422
#     4  10  21  43  63 107 136 177 240 284 351 427
#     4  11  23  42  70 100 136 191 225 297 354 422
#
# _framework density 25.303225000000001
#
# number of rings (size 3 to 8) (size 9 to 14) (size 15 to 20)
#    0.000    1.538    3.077    0.923    4.308    1.846 
#    2.769    1.538    0.000    0.000    0.000    0.000 
#    0.000    0.000    0.000    0.000    0.000    0.000 
#
# Total GULP energy -145175.725835 kJ/mol
# GULP energy per Si atom -5583.681763 kJ/mol
# Density = 2.524563 g / cm^3
# Si number density = 25.303225 Si / 1000 Ang^3
#
#
#
# Elastic Constant Matrix: (Units=GPa)
#
#
# Indices 1 2 3 4 5 6 
#
# 1 43.8132 18.5825 25.4650 0.0000 13.4309 0.0000
# 2 18.5825 148.1461 65.4321 0.0000 5.2018 0.0000
# 3 25.4650 65.4321 127.0162 0.0000 23.1463 0.0000
# 4 0.0000 0.0000 0.0000 12.1382 0.0000 -3.0530
# 5 13.4309 5.2018 23.1463 0.0000 29.9107 0.0000
# 6 0.0000 0.0000 0.0000 -3.0530 0.0000 22.5841
#
#
#
# Elastic Compliance Matrix: (Units=1/GPa)
#
#
# Indices 1 2 3 4 5 6 
#
# 1 0.028437 -0.001959 -0.002825 0.000000 -0.010242 0.000000
# 2 -0.001959 0.009010 -0.004800 0.000000 0.003028 0.000000
# 3 -0.002825 -0.004800 0.012258 0.000000 -0.007382 0.000000
# 4 0.000000 0.000000 0.000000 0.085284 0.000000 0.011529
# 5 -0.010242 0.003028 -0.007382 0.000000 0.043218 0.000000
# 6 0.000000 0.000000 0.000000 0.011529 0.000000 0.045837
#
#
# Mechanical properties :
#
#
# Convention : Reuss Voigt Hill
#
# Bulk Modulus (GPa) = 32.75024 59.77052 46.26038
# Shear Modulus (GPa) = 19.73228 26.89300 23.31264
#
# Velocity S-wave (km/s) = 2.79558 3.26364 3.03864
# Velocity P-wave (km/s) = 4.83648 6.15425 5.53472
#
# Compressibility (1/GPa) = 0.03053412
#
# Stress axis : x y z
#
# Youngs Moduli (GPa) = 35.16538 110.99168 81.58268
#
# Poissons Ratio (x) = 0.21748 0.23051
# Poissons Ratio (y) = 0.06890 0.39161
# Poissons Ratio (z) = 0.09936 0.53278
#
# Static dielectric constant tensor:
#      x y z
#    x 2.131820 0.000000 0.062610 
#    y 0.000000 2.021100 0.000000 
#    z 0.062610 0.000000 2.078800 
# 
# From -- ./inp_files/236878.got.cif
#   From: 2010.05.17/outbox.cif.g08.bks.cpg/sg15_119_cif.got.tgz:236878.got - 2010.06.03 18:47:42.
