data_PCOD9276782
_publ_section_title
;
Structure prediction by ZEFSAII (Michael W. Deem and Ramdas Pophale) SiO2 
 PCOD9276782
Probable space group: C 2/C
;
_chemical_formula_sum "Si O2"
_cell_formula_units_Z 56
_cell_length_a 11.021912
_cell_length_b 20.343848
_cell_length_c 12.260796
_cell_angle_alpha 90.000000
_cell_angle_beta 75.688056
_cell_angle_gamma 90.000000
_cell_volume 2663.890990
_symmetry_space_group_name_H-M "C 2/C"
_symmetry_group_IT_number 15
_symmetry_cell_setting 'monoclinic'
loop_
_space_group_symop_operation_xyz
x,y,z
-x,y,1/2-z
-x,-y,-z
x,-y,1/2+z
1/2+x,1/2+y,z
1/2-x,1/2+y,1/2-z
1/2-x,1/2-y,-z
1/2+x,1/2-y,1/2+z
loop_
_atom_site_type_symbol
_atom_site_label
_atom_site_fract_x
_atom_site_fract_y
_atom_site_fract_z
Si Si1 0.515015 0.340975 0.617154
Si Si2 0.015101 0.460693 0.127464
Si Si3 0.914908 0.404366 0.947219
Si Si4 0.295477 0.413560 0.048065
Si Si5 0.142712 0.937268 0.996588
Si Si6 0.358593 0.361753 0.277253
Si Si7 0.853103 0.278283 0.060021
O O1 0.500000 0.347552 0.750000
O O2 0.656026 0.356055 0.543463
O O3 0.446806 0.397937 0.563445
O O4 0.445363 0.274466 0.593659
O O5 0.004104 0.540033 0.129388
O O6 0.149567 0.432164 0.061616
O O7 0.000000 0.434185 0.250000
O O8 0.911209 0.435631 0.069143
O O9 0.778836 0.411865 0.927688
O O10 0.936988 0.328927 0.969131
O O11 0.358383 0.484830 0.013945
O O12 0.328144 0.392099 0.165200
O O13 0.128920 0.913757 0.125067
O O14 0.500000 0.330195 0.250000
O O15 0.240121 0.315413 0.334365
O O16 0.750000 0.250000 0.000000
#
# Coordination Sequence:
#
# PCOD9276782 Si02
#       7
#     8   8   8   8   8   8   8
#     4  12  26  43  65  99 138 175 218 283 337 388
#     4  10  20  40  65 100 134 164 218 281 339 385
#     4   9  20  39  65  91 124 176 216 263 321 398
#     4  11  24  40  68 104 135 171 226 277 345 396
#     4  10  21  40  67  98 131 168 222 278 334 394
#     4  11  21  38  69  98 127 183 223 271 336 405
#     4  11  21  44  65  88 133 181 231 264 322 404
#
# _framework density 21.021882000000002
#
# number of rings (size 3 to 8) (size 9 to 14) (size 15 to 20)
#    0.000    1.429    4.286    2.143    2.000    1.714 
#    5.143    6.429    0.000    0.000    0.000    0.000 
#    0.000    0.000    0.000    0.000    0.000    0.000 
#
# Total GULP energy -155868.171921 kJ/mol
# GULP energy per Si atom -5566.720426 kJ/mol
# Density = 2.097403 g / cm^3
# Si number density = 21.021882 Si / 1000 Ang^3
#
#
#
# Elastic Constant Matrix: (Units=GPa)
#
#
# Indices 1 2 3 4 5 6 
#
# 1 72.1788 36.0361 16.7821 0.0000 -4.9386 0.0000
# 2 36.0361 112.2962 48.8058 0.0000 -10.3127 0.0000
# 3 16.7821 48.8058 109.0844 0.0000 18.9269 0.0000
# 4 0.0000 0.0000 0.0000-2273.3231 0.0000-1499.4597
# 5 -4.9386 -10.3127 18.9269 0.0000 27.6850 0.0000
# 6 0.0000 0.0000 0.0000-1499.4597 0.0000 -946.8164
#
#
#
# Elastic Compliance Matrix: (Units=1/GPa)
#
#
# Indices 1 2 3 4 5 6 
#
# 1 0.016551 -0.004896 -0.000626 0.000000 0.001556 0.000000
# 2 -0.004896 0.014606 -0.007459 0.000000 0.009666 0.000000
# 3 -0.000626 -0.007459 0.014865 0.000000 -0.013053 0.000000
# 4 0.000000 0.000000 0.000000 0.009867 0.000000 -0.015626
# 5 0.001556 0.009666 -0.013053 0.000000 0.048923 0.000000
# 6 0.000000 0.000000 0.000000 -0.015626 0.000000 0.023690
#
#
# Mechanical properties :
#
#
# Convention : Reuss Voigt Hill
#
# Bulk Modulus (GPa) = 49.84891 55.20083 52.52487
# Shear Modulus (GPa) = 31.02701 -625.69522 -297.33410
#
# Velocity S-wave (km/s) = 3.84596 -17.27096 -11.90577
# Velocity P-wave (km/s) = 6.59441 19.27172 12.80455
#
# Compressibility (1/GPa) = 0.02006062
#
# Stress axis : x y z
#
# Youngs Moduli (GPa) = 60.41914 68.46659 67.27094
#
# Poissons Ratio (x) = 0.33524 0.04208
# Poissons Ratio (y) = 0.29584 0.50175
# Poissons Ratio (z) = 0.03780 0.51067
#
# Static dielectric constant tensor:
#      x y z
#    x 1.900870 0.000000 -0.110030 
#    y 0.000000 1.813050 0.000000 
#    z -0.110030 0.000000 1.807440 
# 
# From -- ./inp_files/89562.got.cif
#   From: 2010.05.17/outbox.cif.g08.bks.cpg/sg15_45_cif.got.tgz:89562.got - 2010.06.03 18:47:42.
