data_PCOD9276672
_publ_section_title
;
Structure prediction by ZEFSAII (Michael W. Deem and Ramdas Pophale) SiO2 
 PCOD9276672
Probable space group: C 2/C
;
_chemical_formula_sum "Si O2"
_cell_formula_units_Z 24
_cell_length_a 15.002267
_cell_length_b 13.085401
_cell_length_c 9.234182
_cell_angle_alpha 90.000000
_cell_angle_beta 143.688603
_cell_angle_gamma 90.000000
_cell_volume 1073.473454
_symmetry_space_group_name_H-M "C 2/C"
_symmetry_group_IT_number 15
_symmetry_cell_setting 'monoclinic'
loop_
_space_group_symop_operation_xyz
x,y,z
-x,y,1/2-z
-x,-y,-z
x,-y,1/2+z
1/2+x,1/2+y,z
1/2-x,1/2+y,1/2-z
1/2-x,1/2-y,-z
1/2+x,1/2-y,1/2+z
loop_
_atom_site_type_symbol
_atom_site_label
_atom_site_fract_x
_atom_site_fract_y
_atom_site_fract_z
Si Si1 0.414249 0.916769 0.286770
Si Si2 0.345306 0.217721 0.949975
Si Si3 0.326972 0.580322 0.559619
O O1 0.500000 0.900794 0.250000
O O2 0.387604 0.816623 0.346217
O O3 0.500000 0.000000 0.500000
O O4 0.258892 0.974855 0.053804
O O5 0.224697 0.139152 0.861440
O O6 0.500000 0.211073 0.250000
O O7 0.282399 0.332064 0.883732
O O8 0.500000 0.563171 0.750000
#
# Coordination Sequence:
#
# PCOD9276672 Si02
#       3
#     8   8   8
#     4  12  21  40  66  90 119 164 205 244 301 366
#     4  10  20  40  64  89 119 165 202 240 303 371
#     4  10  21  36  65  90 121 159 204 246 299 362
#
# _framework density 22.357330000000001
#
# number of rings (size 3 to 8) (size 9 to 14) (size 15 to 20)
#    0.000    1.333    6.667    0.000    0.000    1.333 
#    0.000    1.667    0.000    2.000    0.000    0.000 
#    0.000    0.000    0.000    0.000    0.000    0.000 
#
# Total GULP energy -67056.786291 kJ/mol
# GULP energy per Si atom -5588.065524 kJ/mol
# Density = 2.230644 g / cm^3
# Si number density = 22.357330 Si / 1000 Ang^3
#
#
#
# Elastic Constant Matrix: (Units=GPa)
#
#
# Indices 1 2 3 4 5 6 
#
# 1 224.7680 56.2761 57.3290 0.0000 -10.2269 0.0000
# 2 56.2761 64.7010 11.9179 0.0000 -16.6803 0.0000
# 3 57.3290 11.9179 30.4716 0.0000 10.5695 0.0000
# 4 0.0000 0.0000 0.0000 1.0602 0.0000 -4.9827
# 5 -10.2269 -16.6803 10.5695 0.0000 47.7265 0.0000
# 6 0.0000 0.0000 0.0000 -4.9827 0.0000 42.1816
#
#
#
# Elastic Compliance Matrix: (Units=1/GPa)
#
#
# Indices 1 2 3 4 5 6 
#
# 1 0.011280 -0.004410 -0.021448 0.000000 0.005626 0.000000
# 2 -0.004410 0.021642 -0.002669 0.000000 0.007210 0.000000
# 3 -0.021448 -0.002669 0.082465 0.000000 -0.023791 0.000000
# 4 0.000000 0.000000 0.000000 2.120396 0.000000 0.250470
# 5 0.005626 0.007210 -0.023791 0.000000 0.029947 0.000000
# 6 0.000000 0.000000 0.000000 0.250470 0.000000 0.053294
#
#
# Mechanical properties :
#
#
# Convention : Reuss Voigt Hill
#
# Bulk Modulus (GPa) = 17.14270 63.44297 40.29284
# Shear Modulus (GPa) = 2.08723 31.15483 16.62103
#
# Velocity S-wave (km/s) = 0.96727 3.73700 2.72954
# Velocity P-wave (km/s) = 2.98860 6.85993 5.29105
#
# Compressibility (1/GPa) = 0.05833387
#
# Stress axis : x y z
#
# Youngs Moduli (GPa) = 88.65608 46.20735 12.12635
#
# Poissons Ratio (x) = 0.20377 0.26008
# Poissons Ratio (y) = 0.39096 0.03236
# Poissons Ratio (z) = 1.90148 0.12331
#
# Static dielectric constant tensor:
#      x y z
#    x 1.809700 0.000000 0.012670 
#    y 0.000000 1.835230 0.000000 
#    z 0.012670 0.000000 1.929160 
# 
# From -- ./inp_files/28288.got.cif
#   From: 2010.05.17/outbox.cif.g08.bks.cpg/sg15_15_cif.got.tgz:28288.got - 2010.06.03 18:47:42.
