data_PCOD9276464
_publ_section_title
;
Structure prediction by ZEFSAII (Michael W. Deem and Ramdas Pophale) SiO2 
 PCOD9276464
Probable space group: C 2/C
;
_chemical_formula_sum "Si O2"
_cell_formula_units_Z 44
_cell_length_a 15.379493
_cell_length_b 10.626920
_cell_length_c 17.499299
_cell_angle_alpha 90.000000
_cell_angle_beta 125.836160
_cell_angle_gamma 90.000000
_cell_volume 2318.607839
_symmetry_space_group_name_H-M "C 2/C"
_symmetry_group_IT_number 15
_symmetry_cell_setting 'monoclinic'
loop_
_space_group_symop_operation_xyz
x,y,z
-x,y,1/2-z
-x,-y,-z
x,-y,1/2+z
1/2+x,1/2+y,z
1/2-x,1/2+y,1/2-z
1/2-x,1/2-y,-z
1/2+x,1/2-y,1/2+z
loop_
_atom_site_type_symbol
_atom_site_label
_atom_site_fract_x
_atom_site_fract_y
_atom_site_fract_z
Si Si1 0.383299 0.435949 0.726055
Si Si2 0.332605 0.943161 0.383843
Si Si3 0.083543 0.066376 0.598104
Si Si4 0.500000 0.035567 0.250000
Si Si5 0.494331 0.157306 0.410017
Si Si6 0.814640 0.349207 0.203790
O O1 0.500000 0.456875 0.750000
O O2 0.284814 0.521093 0.645587
O O3 0.391339 0.472920 0.819253
O O4 0.347731 0.291412 0.698856
O O5 0.395671 0.071005 0.390990
O O6 0.406250 0.874263 0.483523
O O7 0.320353 0.863701 0.299278
O O8 0.196003 0.108309 0.618561
O O9 0.034535 0.196954 0.602719
O O10 0.000000 0.000000 0.500000
O O11 0.515371 0.115523 0.334353
O O12 0.398833 0.945768 0.211817
#
# Coordination Sequence:
#
# PCOD9276464 Si02
#       6
#     8   8   8   4   8   8
#     4  11  22  39  62  92 123 155 201 258 304 348
#     4   9  20  38  63  85 116 167 197 248 298 367
#     4  11  24  40  62  91 122 163 202 249 301 365
#     4  10  22  38  66  92 118 160 198 258 304 356
#     4  10  20  40  62  88 121 157 209 240 304 363
#     4  10  20  41  62  88 123 156 206 246 305 361
#
# _framework density 18.976904999999999
#
# number of rings (size 3 to 8) (size 9 to 14) (size 15 to 20)
#    0.000    1.818    2.727    1.091    1.273    1.455 
#    0.000    3.636    0.000    0.000    0.000    0.000 
#    0.000    0.000    0.000    0.000    0.000    0.000 
#
# Total GULP energy -122857.064626 kJ/mol
# GULP energy per Si atom -5584.412028 kJ/mol
# Density = 1.893371 g / cm^3
# Si number density = 18.976905 Si / 1000 Ang^3
#
#
#
# Elastic Constant Matrix: (Units=GPa)
#
#
# Indices 1 2 3 4 5 6 
#
# 1 130.7864 26.8466 30.2872 0.0000 23.9730 0.0000
# 2 26.8466 61.1924 4.8799 0.0000 3.1263 0.0000
# 3 30.2872 4.8799 69.3180 0.0000 21.0325 0.0000
# 4 0.0000 0.0000 0.0000 16.7974 0.0000 -0.6583
# 5 23.9730 3.1263 21.0325 0.0000 30.5727 0.0000
# 6 0.0000 0.0000 0.0000 -0.6583 0.0000 20.2339
#
#
#
# Elastic Compliance Matrix: (Units=1/GPa)
#
#
# Indices 1 2 3 4 5 6 
#
# 1 0.010074 -0.003932 -0.002338 0.000000 -0.005889 0.000000
# 2 -0.003932 0.018000 0.000093 0.000000 0.001179 0.000000
# 3 -0.002338 0.000093 0.018815 0.000000 -0.011120 0.000000
# 4 0.000000 0.000000 0.000000 0.059609 0.000000 0.001939
# 5 -0.005889 0.001179 -0.011120 0.000000 0.044856 0.000000
# 6 0.000000 0.000000 0.000000 0.001939 0.000000 0.049485
#
#
# Mechanical properties :
#
#
# Convention : Reuss Voigt Hill
#
# Bulk Modulus (GPa) = 28.95627 42.81378 35.88503
# Shear Modulus (GPa) = 22.25137 26.80633 24.52885
#
# Velocity S-wave (km/s) = 3.42797 3.76250 3.59912
# Velocity P-wave (km/s) = 5.56415 6.44090 6.01851
#
# Compressibility (1/GPa) = 0.03453483
#
# Stress axis : x y z
#
# Youngs Moduli (GPa) = 99.26406 55.55707 53.14799
#
# Poissons Ratio (x) = 0.21848 0.12426
# Poissons Ratio (y) = 0.39035 -0.00497
# Poissons Ratio (z) = 0.23209 -0.00519
#
# Static dielectric constant tensor:
#      x y z
#    x 1.662020 0.000000 0.016210 
#    y 0.000000 1.628750 0.000000 
#    z 0.016210 0.000000 1.640700 
# 
# From -- ./inp_files/151740.got.cif
#   From: 2010.05.17/outbox.cif.g08.bks.cpg/sg15_76_cif.got.tgz:151740.got - 2010.06.03 18:47:42.
