data_PCOD9276919
_publ_section_title
;
Structure prediction by ZEFSAII (Michael W. Deem and Ramdas Pophale) SiO2 
 PCOD9276919
Probable space group: C 2/C
;
_chemical_formula_sum "Si O2"
_cell_formula_units_Z 56
_cell_length_a 18.286403
_cell_length_b 10.876435
_cell_length_c 23.513368
_cell_angle_alpha 90.000000
_cell_angle_beta 142.226508
_cell_angle_gamma 90.000000
_cell_volume 2864.607722
_symmetry_space_group_name_H-M "C 2/C"
_symmetry_group_IT_number 15
_symmetry_cell_setting 'monoclinic'
loop_
_space_group_symop_operation_xyz
x,y,z
-x,y,1/2-z
-x,-y,-z
x,-y,1/2+z
1/2+x,1/2+y,z
1/2-x,1/2+y,1/2-z
1/2-x,1/2-y,-z
1/2+x,1/2-y,1/2+z
loop_
_atom_site_type_symbol
_atom_site_label
_atom_site_fract_x
_atom_site_fract_y
_atom_site_fract_z
Si Si1 0.646242 0.560235 0.939035
Si Si2 0.500000 0.462384 0.750000
Si Si3 0.743547 0.331239 0.859059
Si Si4 0.922137 0.530385 0.397063
Si Si5 0.589414 0.863785 0.214169
Si Si6 0.500000 0.938095 0.750000
Si Si7 0.894073 0.337705 0.571698
Si Si8 0.866459 0.214359 0.036533
O O1 0.541634 0.543847 0.828675
O O2 0.633709 0.695384 0.958396
O O3 0.778623 0.573291 0.992131
O O4 0.636057 0.434355 0.969196
O O5 0.621708 0.385957 0.811651
O O6 0.799403 0.418841 0.846498
O O7 0.704031 0.207731 0.804276
O O8 0.845184 0.290663 0.966051
O O9 0.896902 0.418553 0.339713
O O10 0.000000 0.500000 0.500000
O O11 0.999622 0.620040 0.404027
O O12 0.566001 0.968471 0.247092
O O13 0.479011 0.768231 0.140000
O O14 0.426400 0.857284 0.658788
O O15 0.750000 0.250000 0.000000
#
# Coordination Sequence:
#
# PCOD9276919 Si02
#       8
#     8   4   8   8   8   4   8   8
#     4  11  22  38  63  95 129 162 218 271 316 382
#     4  12  22  36  64  98 122 160 218 268 318 372
#     4  12  23  39  64  96 127 167 213 270 325 381
#     4  11  23  43  64  87 130 175 213 260 328 395
#     4  11  22  39  63  98 123 168 219 266 321 381
#     4  10  20  40  66  90 130 160 224 264 310 380
#     4  10  23  42  63  94 129 177 211 261 328 386
#     4  12  20  37  65  95 127 160 213 276 318 374
#
# _framework density 19.548925000000001
#
# number of rings (size 3 to 8) (size 9 to 14) (size 15 to 20)
#    0.000    0.857    4.286    5.143    0.000    1.143 
#    0.000    7.857    0.000    0.000    0.000    0.000 
#    0.000    0.000    0.000    0.000    0.000    0.000 
#
# Total GULP energy -156110.259065 kJ/mol
# GULP energy per Si atom -5575.366395 kJ/mol
# Density = 1.950443 g / cm^3
# Si number density = 19.548925 Si / 1000 Ang^3
#
#
#
# Elastic Constant Matrix: (Units=GPa)
#
#
# Indices 1 2 3 4 5 6 
#
# 1 79.3919 23.1327 10.1431 0.0000 -3.7359 0.0000
# 2 23.1327 86.9928 -2.7714 0.0000 2.2119 0.0000
# 3 10.1431 -2.7714 63.8400 0.0000 -7.5052 0.0000
# 4 0.0000 0.0000 0.0000 34.3437 0.0000 1.4495
# 5 -3.7359 2.2119 -7.5052 0.0000 28.6521 0.0000
# 6 0.0000 0.0000 0.0000 1.4495 0.0000 24.9491
#
#
#
# Elastic Compliance Matrix: (Units=1/GPa)
#
#
# Indices 1 2 3 4 5 6 
#
# 1 0.014075 -0.003853 -0.002221 0.000000 0.001551 0.000000
# 2 -0.003853 0.012583 0.001016 0.000000 -0.001208 0.000000
# 3 -0.002221 0.001016 0.016527 0.000000 0.003961 0.000000
# 4 0.000000 0.000000 0.000000 0.029189 0.000000 -0.001696
# 5 0.001551 -0.001208 0.003961 0.000000 0.036234 0.000000
# 6 0.000000 0.000000 0.000000 -0.001696 0.000000 0.040180
#
#
# Mechanical properties :
#
#
# Convention : Reuss Voigt Hill
#
# Bulk Modulus (GPa) = 30.23951 32.35928 31.29940
# Shear Modulus (GPa) = 29.42437 30.90366 30.16401
#
# Velocity S-wave (km/s) = 3.88386 3.98029 3.93237
# Velocity P-wave (km/s) = 5.96780 6.14105 6.05505
#
# Compressibility (1/GPa) = 0.03306932
#
# Stress axis : x y z
#
# Youngs Moduli (GPa) = 71.04710 79.47321 60.50749
#
# Poissons Ratio (x) = 0.30621 0.13440
# Poissons Ratio (y) = 0.27374 -0.06150
# Poissons Ratio (z) = 0.15781 -0.08078
#
# Static dielectric constant tensor:
#      x y z
#    x 1.688830 0.000000 -0.008270 
#    y 0.000000 1.738750 0.000000 
#    z -0.008270 0.000000 1.759910 
# 
# From -- ./inp_files/277151.got.cif
#   From: 2010.05.17/outbox.cif.g08.bks.cpg/sg15_139_cif.got.tgz:277151.got - 2010.06.03 18:47:42.
