data_PCOD9276952
_publ_section_title
;
Structure prediction by ZEFSAII (Michael W. Deem and Ramdas Pophale) SiO2 
 PCOD9276952
Probable space group: C 2/C
;
_chemical_formula_sum "Si O2"
_cell_formula_units_Z 60
_cell_length_a 21.571793
_cell_length_b 8.873447
_cell_length_c 17.535000
_cell_angle_alpha 90.000000
_cell_angle_beta 120.524450
_cell_angle_gamma 90.000000
_cell_volume 2891.315890
_symmetry_space_group_name_H-M "C 2/C"
_symmetry_group_IT_number 15
_symmetry_cell_setting 'monoclinic'
loop_
_space_group_symop_operation_xyz
x,y,z
-x,y,1/2-z
-x,-y,-z
x,-y,1/2+z
1/2+x,1/2+y,z
1/2-x,1/2+y,1/2-z
1/2-x,1/2-y,-z
1/2+x,1/2-y,1/2+z
loop_
_atom_site_type_symbol
_atom_site_label
_atom_site_fract_x
_atom_site_fract_y
_atom_site_fract_z
Si Si1 0.975644 0.336518 0.510512
Si Si2 0.167572 0.232089 0.142671
Si Si3 0.023576 0.835891 0.178007
Si Si4 0.809161 0.099165 0.911501
Si Si5 0.453512 0.357992 0.578177
Si Si6 0.825737 0.257671 0.768770
Si Si7 0.000000 0.654232 0.750000
Si Si8 0.649900 0.086208 0.778995
O O1 0.891068 0.313574 0.445564
O O2 0.997758 0.303802 0.610565
O O3 0.000000 0.500000 0.500000
O O4 0.014468 0.216287 0.478648
O O5 0.249194 0.288448 0.186021
O O6 0.146862 0.274070 0.217188
O O7 0.170395 0.057414 0.119386
O O8 0.000000 0.827506 0.250000
O O9 0.109382 0.836292 0.225755
O O10 0.988980 0.980906 0.116269
O O11 0.821482 0.226991 0.855766
O O12 0.723488 0.099024 0.874521
O O13 0.867661 0.122769 0.013836
O O14 0.476167 0.254973 0.663092
O O15 0.838318 0.433486 0.761354
O O16 0.073863 0.571138 0.773499
#
# Coordination Sequence:
#
# PCOD9276952 Si02
#       8
#     8   8   8   8   8   8   4   8
#     4  12  24  41  69 100 131 175 222 273 340 410
#     4  10  20  40  66  94 129 166 221 272 325 403
#     4  12  25  42  67  98 132 175 226 280 331 398
#     4  10  21  41  69  93 125 175 223 276 325 406
#     4  12  24  42  66  95 130 176 227 269 334 402
#     4  10  22  39  66  97 124 171 218 272 335 389
#     4  12  26  40  64  96 138 176 220 282 338 394
#     4  10  23  40  64  96 135 168 217 276 342 394
#
# _framework density 20.751795999999999
#
# number of rings (size 3 to 8) (size 9 to 14) (size 15 to 20)
#    0.000    1.067    4.667    2.000    0.933    0.533 
#    0.000    0.667    2.933    0.000    0.000    0.000 
#    0.000    0.000    0.000    0.000    0.000    0.000 
#
# Total GULP energy -167651.119979 kJ/mol
# GULP energy per Si atom -5588.370666 kJ/mol
# Density = 2.070456 g / cm^3
# Si number density = 20.751796 Si / 1000 Ang^3
#
#
#
# Elastic Constant Matrix: (Units=GPa)
#
#
# Indices 1 2 3 4 5 6 
#
# 1 133.6394 33.7932 64.9232 0.0000 34.7871 0.0000
# 2 33.7932 76.3207 35.8165 0.0000 7.4129 0.0000
# 3 64.9232 35.8165 119.9751 0.0000 30.8790 0.0000
# 4 0.0000 0.0000 0.0000 21.1515 0.0000 8.4193
# 5 34.7871 7.4129 30.8790 0.0000 44.3342 0.0000
# 6 0.0000 0.0000 0.0000 8.4193 0.0000 20.1940
#
#
#
# Elastic Compliance Matrix: (Units=1/GPa)
#
#
# Indices 1 2 3 4 5 6 
#
# 1 0.011635 -0.002718 -0.003962 0.000000 -0.005915 0.000000
# 2 -0.002718 0.015893 -0.003824 0.000000 0.002139 0.000000
# 3 -0.003962 -0.003824 0.012984 0.000000 -0.005295 0.000000
# 4 0.000000 0.000000 0.000000 0.056685 0.000000 -0.023633
# 5 -0.005915 0.002139 -0.005295 0.000000 0.030527 0.000000
# 6 0.000000 0.000000 0.000000 -0.023633 0.000000 0.059373
#
#
# Mechanical properties :
#
#
# Convention : Reuss Voigt Hill
#
# Bulk Modulus (GPa) = 51.27506 66.55567 58.91537
# Shear Modulus (GPa) = 23.29850 30.16277 26.73063
#
# Velocity S-wave (km/s) = 3.35434 3.81662 3.59292
# Velocity P-wave (km/s) = 6.30591 7.18081 6.75753
#
# Compressibility (1/GPa) = 0.01950266
#
# Stress axis : x y z
#
# Youngs Moduli (GPa) = 85.95012 62.92102 77.02001
#
# Poissons Ratio (x) = 0.17100 0.30517
# Poissons Ratio (y) = 0.23358 0.29456
# Poissons Ratio (z) = 0.34056 0.24064
#
# Static dielectric constant tensor:
#      x y z
#    x 1.755840 0.000000 0.035800 
#    y 0.000000 1.756410 0.000000 
#    z 0.035800 0.000000 1.746420 
# 
# From -- ./inp_files/214297.got.cif
#   From: 2010.05.17/outbox.cif.g08.bks.cpg/sg15_108_cif.got.tgz:214297.got - 2010.06.03 18:47:42.
