data_PCOD9276569
_publ_section_title
;
Structure prediction by ZEFSAII (Michael W. Deem and Ramdas Pophale) SiO2 
 PCOD9276569
Probable space group: C 2/C
;
_chemical_formula_sum "Si O2"
_cell_formula_units_Z 56
_cell_length_a 15.620531
_cell_length_b 9.232498
_cell_length_c 22.694896
_cell_angle_alpha 90.000000
_cell_angle_beta 62.045549
_cell_angle_gamma 90.000000
_cell_volume 2891.089515
_symmetry_space_group_name_H-M "C 2/C"
_symmetry_group_IT_number 15
_symmetry_cell_setting 'monoclinic'
loop_
_space_group_symop_operation_xyz
x,y,z
-x,y,1/2-z
-x,-y,-z
x,-y,1/2+z
1/2+x,1/2+y,z
1/2-x,1/2+y,1/2-z
1/2-x,1/2-y,-z
1/2+x,1/2-y,1/2+z
loop_
_atom_site_type_symbol
_atom_site_label
_atom_site_fract_x
_atom_site_fract_y
_atom_site_fract_z
Si Si1 0.699720 0.533974 0.234214
Si Si2 0.992447 0.125149 0.151025
Si Si3 0.176993 0.677783 0.572256
Si Si4 0.715930 0.138467 0.060820
Si Si5 0.905193 0.979019 0.567205
Si Si6 0.089990 0.850116 0.177788
Si Si7 0.783894 0.185585 0.663784
O O1 0.596503 0.622565 0.273727
O O2 0.673909 0.423841 0.190344
O O3 0.776640 0.657060 0.194254
O O4 0.729969 0.438359 0.281363
O O5 0.075168 0.242097 0.113863
O O6 0.931062 0.126270 0.111451
O O7 0.048283 0.974280 0.147468
O O8 0.250000 0.750000 0.500000
O O9 0.168488 0.511460 0.554776
O O10 0.217488 0.681814 0.626679
O O11 0.639816 0.219492 0.127458
O O12 0.813155 0.082163 0.062416
O O13 0.750000 0.250000 0.000000
O O14 0.884527 0.134837 0.603511
O O15 0.000000 0.000000 0.500000
O O16 0.000000 0.810267 0.250000
#
# Coordination Sequence:
#
# PCOD9276569 Si02
#       7
#     8   8   8   8   8   8   8
#     4  10  22  38  64  93 129 167 216 266 339 392
#     4  10  20  40  63  89 123 172 212 261 327 398
#     4  11  22  40  65  94 126 173 220 267 324 395
#     4  11  24  41  66  95 131 172 224 277 330 390
#     4  10  21  40  65  89 124 168 219 261 328 387
#     4  10  21  41  65  91 131 171 212 271 341 391
#     4  10  22  38  64  94 125 171 214 273 324 400
#
# _framework density 19.369859999999999
#
# number of rings (size 3 to 8) (size 9 to 14) (size 15 to 20)
#    0.000    1.714    1.429    3.429    6.000    0.000 
#    5.143    2.143    0.000    0.000    0.000    0.000 
#    0.000    0.000    0.000    0.000    0.000    0.000 
#
# Total GULP energy -155885.648726 kJ/mol
# GULP energy per Si atom -5567.344597 kJ/mol
# Density = 1.932577 g / cm^3
# Si number density = 19.369860 Si / 1000 Ang^3
#
#
#
# Elastic Constant Matrix: (Units=GPa)
#
#
# Indices 1 2 3 4 5 6 
#
# 1 66.7130 22.9304 11.7416 0.0000 -2.5882 0.0000
# 2 22.9304 133.0872 77.2494 0.0000 -19.0477 0.0000
# 3 11.7416 77.2494 84.3627 0.0000 -13.9768 0.0000
# 4 0.0000 0.0000 0.0000 27.4229 0.0000 -13.9257
# 5 -2.5882 -19.0477 -13.9768 0.0000 23.2285 0.0000
# 6 0.0000 0.0000 0.0000 -13.9257 0.0000 31.8349
#
#
#
# Elastic Compliance Matrix: (Units=1/GPa)
#
#
# Indices 1 2 3 4 5 6 
#
# 1 0.015953 -0.003162 0.000599 0.000000 -0.000454 0.000000
# 2 -0.003162 0.017160 -0.014440 0.000000 0.005031 0.000000
# 3 0.000599 -0.014440 0.025593 0.000000 0.003626 0.000000
# 4 0.000000 0.000000 0.000000 0.046879 0.000000 0.020507
# 5 -0.000454 0.005031 0.003626 0.000000 0.049307 0.000000
# 6 0.000000 0.000000 0.000000 0.020507 0.000000 0.040382
#
#
# Mechanical properties :
#
#
# Convention : Reuss Voigt Hill
#
# Bulk Modulus (GPa) = 40.48187 56.44507 48.46347
# Shear Modulus (GPa) = 21.05158 27.98005 24.51581
#
# Velocity S-wave (km/s) = 3.30027 3.80480 3.56148
# Velocity P-wave (km/s) = 5.95543 6.96462 6.47970
#
# Compressibility (1/GPa) = 0.02470242
#
# Stress axis : x y z
#
# Youngs Moduli (GPa) = 62.68350 58.27540 39.07346
#
# Poissons Ratio (x) = 0.18424 -0.02342
# Poissons Ratio (y) = 0.19818 0.56420
# Poissons Ratio (z) = -0.03757 0.84147
#
# Static dielectric constant tensor:
#      x y z
#    x 1.711340 0.000000 0.055240 
#    y 0.000000 1.700640 0.000000 
#    z 0.055240 0.000000 1.630520 
# 
# From -- ./inp_files/273044.got.cif
#   From: 2010.05.17/outbox.cif.g08.bks.cpg/sg15_137_cif.got.tgz:273044.got - 2010.06.03 18:47:42.
