data_PCOD9276184
_publ_section_title
;
Structure prediction by ZEFSAII (Michael W. Deem and Ramdas Pophale) SiO2 
 PCOD9276184
Probable space group: C 2/C
;
_chemical_formula_sum "Si O2"
_cell_formula_units_Z 48
_cell_length_a 14.064805
_cell_length_b 14.402354
_cell_length_c 14.828128
_cell_angle_alpha 90.000000
_cell_angle_beta 40.893360
_cell_angle_gamma 90.000000
_cell_volume 1966.368132
_symmetry_space_group_name_H-M "C 2/C"
_symmetry_group_IT_number 15
_symmetry_cell_setting 'monoclinic'
loop_
_space_group_symop_operation_xyz
x,y,z
-x,y,1/2-z
-x,-y,-z
x,-y,1/2+z
1/2+x,1/2+y,z
1/2-x,1/2+y,1/2-z
1/2-x,1/2-y,-z
1/2+x,1/2-y,1/2+z
loop_
_atom_site_type_symbol
_atom_site_label
_atom_site_fract_x
_atom_site_fract_y
_atom_site_fract_z
Si Si1 0.612969 0.995770 0.537588
Si Si2 0.916175 0.223333 0.400023
Si Si3 0.127089 0.244772 0.881252
Si Si4 0.209226 0.553144 0.280782
Si Si5 0.907194 0.285440 0.906161
Si Si6 0.709118 0.569103 0.921551
O O1 0.439541 0.001952 0.643611
O O2 0.621935 0.884875 0.529397
O O3 0.712172 0.032182 0.384732
O O4 0.670554 0.038403 0.590566
O O5 0.750000 0.250000 0.500000
O O6 0.949656 0.275427 0.469309
O O7 0.919143 0.114247 0.425106
O O8 0.000000 0.244080 0.250000
O O9 0.200285 0.335056 0.784876
O O10 0.226843 0.159713 0.842350
O O11 0.001590 0.218728 0.901986
O O12 0.318547 0.514233 0.127732
O O13 0.000000 0.301642 0.750000
O O14 0.750000 0.250000 0.000000
#
# Coordination Sequence:
#
# PCOD9276184 Si02
#       6
#     8   8   8   8   8   8
#     4  10  21  39  70 106 145 198 258 309 362 455
#     4  10  23  41  70 109 152 197 243 306 383 447
#     4   9  23  43  72 113 144 197 249 310 376 450
#     4  10  20  39  70 109 148 188 260 305 366 454
#     4  11  25  45  72 101 143 197 252 305 369 454
#     4  10  22  41  71 105 147 192 244 323 375 432
#
# _framework density 24.410485000000001
#
# number of rings (size 3 to 8) (size 9 to 14) (size 15 to 20)
#    1.000    1.000    0.000    3.500    2.333    6.667 
#    0.000    4.167    3.667    0.000    0.000    0.000 
#    0.000    0.000    0.000    0.000    0.000    0.000 
#
# Total GULP energy -133811.040588 kJ/mol
# GULP energy per Si atom -5575.460025 kJ/mol
# Density = 2.435493 g / cm^3
# Si number density = 24.410485 Si / 1000 Ang^3
#
#
#
# Elastic Constant Matrix: (Units=GPa)
#
#
# Indices 1 2 3 4 5 6 
#
# 1 116.4586 31.8703 11.1768 0.0000 25.8594 0.0000
# 2 31.8703 88.2556 8.8682 0.0000 4.8601 0.0000
# 3 11.1768 8.8682 57.0362 0.0000 9.0363 0.0000
# 4 0.0000 0.0000 0.0000 33.8604 0.0000 13.3160
# 5 25.8594 4.8601 9.0363 0.0000 34.4484 0.0000
# 6 0.0000 0.0000 0.0000 13.3160 0.0000 51.0839
#
#
#
# Elastic Compliance Matrix: (Units=1/GPa)
#
#
# Indices 1 2 3 4 5 6 
#
# 1 0.011379 -0.003632 -0.000410 0.000000 -0.007922 0.000000
# 2 -0.003632 0.012718 -0.001475 0.000000 0.001319 0.000000
# 3 -0.000410 -0.001475 0.018531 0.000000 -0.004345 0.000000
# 4 0.000000 0.000000 0.000000 0.032906 0.000000 -0.008578
# 5 -0.007922 0.001319 -0.004345 0.000000 0.035929 0.000000
# 6 0.000000 0.000000 0.000000 -0.008578 0.000000 0.021812
#
#
# Mechanical properties :
#
#
# Convention : Reuss Voigt Hill
#
# Bulk Modulus (GPa) = 31.65091 40.62010 36.13551
# Shear Modulus (GPa) = 32.29160 37.86755 35.07958
#
# Velocity S-wave (km/s) = 3.64106 3.94291 3.79498
# Velocity P-wave (km/s) = 5.53811 6.11598 5.83420
#
# Compressibility (1/GPa) = 0.03159466
#
# Stress axis : x y z
#
# Youngs Moduli (GPa) = 87.88120 78.63038 53.96440
#
# Poissons Ratio (x) = 0.28556 0.02213
# Poissons Ratio (y) = 0.31915 0.07958
# Poissons Ratio (z) = 0.03604 0.11595
#
# Static dielectric constant tensor:
#      x y z
#    x 1.709450 0.000000 0.191900 
#    y 0.000000 1.972830 0.000000 
#    z 0.191900 0.000000 1.828980 
# 
# From -- ./inp_files/155065.got.cif
#   From: 2010.05.17/outbox.cif.g08.bks.cpg/sg15_78_cif.got.tgz:155065.got - 2010.06.03 18:47:42.
