data_PCOD9276960
_publ_section_title
;
Structure prediction by ZEFSAII (Michael W. Deem and Ramdas Pophale) SiO2 
 PCOD9276960
Probable space group: C 2/C
;
_chemical_formula_sum "Si O2"
_cell_formula_units_Z 44
_cell_length_a 8.601095
_cell_length_b 19.585862
_cell_length_c 17.164390
_cell_angle_alpha 90.000000
_cell_angle_beta 38.552688
_cell_angle_gamma 90.000000
_cell_volume 1802.087925
_symmetry_space_group_name_H-M "C 2/C"
_symmetry_group_IT_number 15
_symmetry_cell_setting 'monoclinic'
loop_
_space_group_symop_operation_xyz
x,y,z
-x,y,1/2-z
-x,-y,-z
x,-y,1/2+z
1/2+x,1/2+y,z
1/2-x,1/2+y,1/2-z
1/2-x,1/2-y,-z
1/2+x,1/2-y,1/2+z
loop_
_atom_site_type_symbol
_atom_site_label
_atom_site_fract_x
_atom_site_fract_y
_atom_site_fract_z
Si Si1 0.631323 0.893260 0.872333
Si Si2 0.500000 0.281642 0.250000
Si Si3 0.050198 0.034446 0.127205
Si Si4 0.465589 0.207211 0.953128
Si Si5 0.557277 0.614275 0.587005
Si Si6 0.673954 0.097400 0.614709
O O1 0.735244 0.950025 0.892977
O O2 0.837698 0.908086 0.725374
O O3 0.621230 0.824643 0.929786
O O4 0.348965 0.898839 0.954116
O O5 0.456772 0.328376 0.342325
O O6 0.775305 0.250910 0.149672
O O7 0.962554 0.956734 0.162710
O O8 0.175513 0.044322 0.995016
O O9 0.480123 0.143414 0.886150
O O10 0.250000 0.250000 0.000000
O O11 0.386776 0.635796 0.581414
O O12 0.500000 0.067714 0.750000
#
# Coordination Sequence:
#
# PCOD9276960 Si02
#       6
#     8   4   8   8   8   8
#     4   9  21  39  61  93 123 166 221 248 307 387
#     4  10  20  40  66  96 118 160 218 254 320 400
#     4  10  21  38  59  93 132 171 203 257 308 373
#     4  10  22  45  68  89 123 165 212 273 322 369
#     4  11  21  36  64  91 130 169 201 257 314 382
#     4  11  23  40  59  95 129 162 213 256 317 375
#
# _framework density 24.416122999999999
#
# number of rings (size 3 to 8) (size 9 to 14) (size 15 to 20)
#    0.000    1.818    1.818    2.182    2.545    0.727 
#    6.545    9.091    0.000    0.000    0.000    0.000 
#    0.000    0.000    0.000    0.000    0.000    0.000 
#
# Total GULP energy -122777.013607 kJ/mol
# GULP energy per Si atom -5580.773346 kJ/mol
# Density = 2.436055 g / cm^3
# Si number density = 24.416123 Si / 1000 Ang^3
#
#
#
# Elastic Constant Matrix: (Units=GPa)
#
#
# Indices 1 2 3 4 5 6 
#
# 1 80.8431 -8.6389 35.2163 -0.0020 -32.1973 -0.0016
# 2 -8.6389 30.4611 25.1069 -0.0010 -5.4770 -0.0014
# 3 35.2163 25.1069 159.1631 -0.0109 -18.6784 -0.0156
# 4 -0.0020 -0.0010 -0.0109 74.5465 0.0021 75.3815
# 5 -32.1973 -5.4770 -18.6784 0.0021 58.8885 0.0023
# 6 -0.0016 -0.0014 -0.0156 75.3815 0.0023 146.7749
#
#
#
# Elastic Compliance Matrix: (Units=1/GPa)
#
#
# Indices 1 2 3 4 5 6 
#
# 1 0.019953 0.011680 -0.005037 0.000000 0.010398 0.000000
# 2 0.011680 0.044734 -0.008728 0.000000 0.007778 0.000000
# 3 -0.005037 -0.008728 0.008679 0.000000 -0.000813 0.000001
# 4 0.000000 0.000000 0.000000 0.027908 0.000000 -0.014333
# 5 0.010398 0.007778 -0.000813 0.000000 0.023132 0.000000
# 6 0.000000 0.000000 0.000001 -0.014333 0.000000 0.014175
#
#
# Mechanical properties :
#
#
# Convention : Reuss Voigt Hill
#
# Bulk Modulus (GPa) = 14.45178 41.53732 27.99455
# Shear Modulus (GPa) = 30.15405 70.62751 50.39078
#
# Velocity S-wave (km/s) = 3.51808 5.38418 4.54787
# Velocity P-wave (km/s) = 4.73648 7.46336 6.25044
#
# Compressibility (1/GPa) = 0.06919565
#
# Stress axis : x y z
#
# Youngs Moduli (GPa) = 50.11736 22.35457 115.22448
#
# Poissons Ratio (x) = -0.26110 0.58039
# Poissons Ratio (y) = -0.58537 1.00567
# Poissons Ratio (z) = 0.25244 0.19511
#
# Static dielectric constant tensor:
#      x y z
#    x 1.977110 0.000000 -0.018380 
#    y 0.000000 1.974310 0.000000 
#    z -0.018380 0.000000 2.015170 
# 
# From -- ./inp_files/193152.got.cif
#   From: 2010.05.17/outbox.cif.g08.bks.cpg/sg15_97_cif.got.tgz:193152.got - 2010.06.03 18:47:42.
