data_PCOD9276927
_publ_section_title
;
Structure prediction by ZEFSAII (Michael W. Deem and Ramdas Pophale) SiO2 
 PCOD9276927
Probable space group: C 2/C
;
_chemical_formula_sum "Si O2"
_cell_formula_units_Z 56
_cell_length_a 11.469829
_cell_length_b 14.583557
_cell_length_c 28.792037
_cell_angle_alpha 90.000000
_cell_angle_beta 30.850399
_cell_angle_gamma 90.000000
_cell_volume 2469.672227
_symmetry_space_group_name_H-M "C 2/C"
_symmetry_group_IT_number 15
_symmetry_cell_setting 'monoclinic'
loop_
_space_group_symop_operation_xyz
x,y,z
-x,y,1/2-z
-x,-y,-z
x,-y,1/2+z
1/2+x,1/2+y,z
1/2-x,1/2+y,1/2-z
1/2-x,1/2-y,-z
1/2+x,1/2-y,1/2+z
loop_
_atom_site_type_symbol
_atom_site_label
_atom_site_fract_x
_atom_site_fract_y
_atom_site_fract_z
Si Si1 0.096516 0.759654 0.824108
Si Si2 0.735778 0.770966 0.828421
Si Si3 0.745075 0.141763 0.853113
Si Si4 0.414724 0.255355 0.022102
Si Si5 0.296494 0.952446 0.782418
Si Si6 0.416512 0.456873 0.980630
Si Si7 0.086809 0.524642 0.361677
O O1 0.226776 0.722366 0.733847
O O2 0.090513 0.682979 0.864885
O O3 0.243777 0.845149 0.791302
O O4 0.834238 0.787999 0.904266
O O5 0.613180 0.722566 0.913514
O O6 0.000000 0.791197 0.750000
O O7 0.614539 0.867945 0.861802
O O8 0.716939 0.033077 0.856766
O O9 0.000000 0.166721 0.750000
O O10 0.628137 0.189333 0.937582
O O11 0.433263 0.347706 0.985353
O O12 0.500000 0.963449 0.750000
O O13 0.328200 0.992802 0.720295
O O14 0.078501 0.987513 0.883835
O O15 0.170450 0.492265 0.051950
O O16 0.500000 0.500000 0.000000
#
# Coordination Sequence:
#
# PCOD9276927 Si02
#       7
#     8   8   8   8   8   8   8
#     4  10  20  40  66  91 125 171 212 259 320 385
#     4   9  22  42  67  94 132 172 212 268 328 384
#     4  12  24  38  66  96 129 169 226 261 319 390
#     4  11  23  43  66  95 129 174 216 262 326 391
#     4  11  22  40  64  89 127 168 210 265 322 376
#     4  12  24  40  65  94 126 167 214 267 323 383
#     4  11  24  42  63  96 132 170 216 269 324 378
#
# _framework density 22.675075
#
# number of rings (size 3 to 8) (size 9 to 14) (size 15 to 20)
#    0.000    1.143    4.286    2.143    0.000    2.857 
#    2.571    1.429    0.000    0.000    0.000    0.000 
#    0.000    0.000    0.000    0.000    0.000    0.000 
#
# Total GULP energy -156337.303254 kJ/mol
# GULP energy per Si atom -5583.475116 kJ/mol
# Density = 2.262347 g / cm^3
# Si number density = 22.675075 Si / 1000 Ang^3
#
#
#
# Elastic Constant Matrix: (Units=GPa)
#
#
# Indices 1 2 3 4 5 6 
#
# 1 24.1009 -15.4109 16.6449 0.0057 14.1164 -0.0048
# 2 -15.4109 37.5655 -1.8952 -0.0028 -2.6580 0.0012
# 3 16.6449 -1.8952 156.7845 0.0220 16.5881 0.0042
# 4 0.0057 -0.0028 0.0220 22.7970 -0.0147 4.1463
# 5 14.1164 -2.6580 16.5881 -0.0147 31.1389 -0.0030
# 6 -0.0048 0.0012 0.0042 4.1463 -0.0030 20.7431
#
#
#
# Elastic Compliance Matrix: (Units=1/GPa)
#
#
# Indices 1 2 3 4 5 6 
#
# 1 0.085062 0.032297 -0.005142 -0.000038 -0.033066 0.000022
# 2 0.032297 0.039046 -0.001865 -0.000009 -0.010315 0.000006
# 3 -0.005142 -0.001865 0.007070 -0.000007 -0.001595 -0.000001
# 4 -0.000038 -0.000009 -0.000007 0.045520 0.000040 -0.009099
# 5 -0.033066 -0.010315 -0.001595 0.000040 0.047073 -0.000008
# 6 0.000022 0.000006 -0.000001 -0.009099 -0.000008 0.050028
#
#
# Mechanical properties :
#
#
# Convention : Reuss Voigt Hill
#
# Bulk Modulus (GPa) = 5.50184 24.12542 14.81363
# Shear Modulus (GPa) = 17.61768 29.54328 23.58048
#
# Velocity S-wave (km/s) = 2.79043 3.61348 3.22829
# Velocity P-wave (km/s) = 3.57961 5.29834 4.52139
#
# Compressibility (1/GPa) = 0.18175742
#
# Stress axis : x y z
#
# Youngs Moduli (GPa) = 11.75609 25.61106 141.43823
#
# Poissons Ratio (x) = -0.82716 0.72724
# Poissons Ratio (y) = -0.37968 0.26385
# Poissons Ratio (z) = 0.06045 0.04778
#
# Static dielectric constant tensor:
#      x y z
#    x 1.872200 -0.000020 0.020000 
#    y -0.000020 1.874340 0.000030 
#    z 0.020000 0.000030 1.833700 
# 
# From -- ./inp_files/311304.got.cif
#   From: 2010.05.17/outbox.cif.g08.bks.cpg/sg15_156_cif.got.tgz:311304.got - 2010.06.03 18:47:42.
