data_PCOD9276880
_publ_section_title
;
Structure prediction by ZEFSAII (Michael W. Deem and Ramdas Pophale) SiO2 
 PCOD9276880
Probable space group: C 2/C
;
_chemical_formula_sum "Si O2"
_cell_formula_units_Z 56
_cell_length_a 14.189170
_cell_length_b 11.243955
_cell_length_c 29.232659
_cell_angle_alpha 90.000000
_cell_angle_beta 29.513478
_cell_angle_gamma 90.000000
_cell_volume 2297.543566
_symmetry_space_group_name_H-M "C 2/C"
_symmetry_group_IT_number 15
_symmetry_cell_setting 'monoclinic'
loop_
_space_group_symop_operation_xyz
x,y,z
-x,y,1/2-z
-x,-y,-z
x,-y,1/2+z
1/2+x,1/2+y,z
1/2-x,1/2+y,1/2-z
1/2-x,1/2-y,-z
1/2+x,1/2-y,1/2+z
loop_
_atom_site_type_symbol
_atom_site_label
_atom_site_fract_x
_atom_site_fract_y
_atom_site_fract_z
Si Si1 0.000000 0.000000 0.000000
Si Si2 0.500000 0.076495 0.750000
Si Si3 0.476289 0.117384 0.613581
Si Si4 0.489449 0.726359 0.190067
Si Si5 0.080500 0.717472 0.473524
Si Si6 0.329055 0.934817 0.901925
Si Si7 0.736628 0.688938 0.555141
Si Si8 0.562527 0.466217 0.276485
O O1 0.968859 0.856463 0.997531
O O2 0.896226 0.047277 0.996574
O O3 0.597655 0.159074 0.747108
O O4 0.349549 0.000126 0.843125
O O5 0.533111 0.229265 0.620941
O O6 0.540527 0.138637 0.535067
O O7 0.248389 0.109630 0.708666
O O8 0.559442 0.002729 0.605628
O O9 0.692704 0.707330 0.129535
O O10 0.383497 0.603177 0.237127
O O11 0.943420 0.674007 0.490746
O O12 0.375175 0.798665 0.872889
O O13 0.750000 0.750000 0.500000
O O14 0.610411 0.574189 0.617820
O O15 0.500000 0.452823 0.250000
#
# Coordination Sequence:
#
# PCOD9276880 Si02
#       8
#     4   4   8   8   8   8   8   8
#     4  10  20  40  66 108 132 176 234 296 358 426
#     4  10  20  44  68 102 140 184 240 294 358 436
#     4  11  25  46  72 108 142 197 247 304 364 448
#     4  11  25  44  74 108 142 193 245 302 372 445
#     4  11  23  45  75 103 149 187 249 306 370 436
#     4  10  24  43  70 102 141 188 242 298 360 436
#     4  11  28  46  70 110 146 194 245 305 373 438
#     4  12  27  49  70 104 152 198 242 306 373 435
#
# _framework density 24.373857999999998
#
# number of rings (size 3 to 8) (size 9 to 14) (size 15 to 20)
#    0.000    1.143    5.000    0.429    5.000    5.143 
#    5.143    0.000    0.000    0.000    0.000    0.000 
#    0.000    0.000    0.000    0.000    0.000    0.000 
#
# Total GULP energy -156000.446029 kJ/mol
# GULP energy per Si atom -5571.444501 kJ/mol
# Density = 2.431838 g / cm^3
# Si number density = 24.373858 Si / 1000 Ang^3
#
#
#
# Elastic Constant Matrix: (Units=GPa)
#
#
# Indices 1 2 3 4 5 6 
#
# 1 120.3336 1.4205 16.6393 0.0000 3.3796 0.0001
# 2 1.4205 79.4462 5.4429 -0.0002 2.0040 0.0000
# 3 16.6393 5.4429 39.4853 0.0022 8.4941 0.0000
# 4 0.0000 -0.0002 0.0022 30.5247 -0.0003 0.3003
# 5 3.3796 2.0040 8.4941 -0.0003 40.4590 0.0001
# 6 0.0001 0.0000 0.0000 0.3003 0.0001 30.9265
#
#
#
# Elastic Compliance Matrix: (Units=1/GPa)
#
#
# Indices 1 2 3 4 5 6 
#
# 1 0.008825 0.000097 -0.003742 0.000000 0.000044 0.000000
# 2 0.000097 0.012711 -0.001734 0.000000 -0.000274 0.000000
# 3 -0.003742 -0.001734 0.028336 -0.000002 -0.005550 0.000000
# 4 0.000000 0.000000 -0.000002 0.032763 0.000001 -0.000318
# 5 0.000044 -0.000274 -0.005550 0.000001 0.025892 0.000000
# 6 0.000000 0.000000 0.000000 -0.000318 0.000000 0.032338
#
#
# Mechanical properties :
#
#
# Convention : Reuss Voigt Hill
#
# Bulk Modulus (GPa) = 25.56584 31.80783 28.68684
# Shear Modulus (GPa) = 30.36548 34.76622 32.56585
#
# Velocity S-wave (km/s) = 3.53345 3.78083 3.65923
# Velocity P-wave (km/s) = 5.21141 5.66903 5.44503
#
# Compressibility (1/GPa) = 0.03911469
#
# Stress axis : x y z
#
# Youngs Moduli (GPa) = 113.31116 78.67128 35.29111
#
# Poissons Ratio (x) = -0.00767 0.13205
# Poissons Ratio (y) = -0.01104 0.06121
# Poissons Ratio (z) = 0.42399 0.13645
#
# Static dielectric constant tensor:
#      x y z
#    x 1.944250 0.000000 0.140830 
#    y 0.000000 2.040910 0.000000 
#    z 0.140830 0.000000 1.812490 
# 
# From -- ./inp_files/313750.got.cif
#   From: 2010.05.17/outbox.cif.g08.bks.cpg/sg15_157_cif.got.tgz:313750.got - 2010.06.03 18:47:42.
