data_PCOD9276085
_publ_section_title
;
Structure prediction by ZEFSAII (Michael W. Deem and Ramdas Pophale) SiO2 
 PCOD9276085
Probable space group: C 2/C
;
_chemical_formula_sum "Si O2"
_cell_formula_units_Z 32
_cell_length_a 27.214276
_cell_length_b 4.911777
_cell_length_c 13.175063
_cell_angle_alpha 90.000000
_cell_angle_beta 46.140100
_cell_angle_gamma 90.000000
_cell_volume 1269.828923
_symmetry_space_group_name_H-M "C 2/C"
_symmetry_group_IT_number 15
_symmetry_cell_setting 'monoclinic'
loop_
_space_group_symop_operation_xyz
x,y,z
-x,y,1/2-z
-x,-y,-z
x,-y,1/2+z
1/2+x,1/2+y,z
1/2-x,1/2+y,1/2-z
1/2-x,1/2-y,-z
1/2+x,1/2-y,1/2+z
loop_
_atom_site_type_symbol
_atom_site_label
_atom_site_fract_x
_atom_site_fract_y
_atom_site_fract_z
Si Si1 0.378099 0.135423 0.571305
Si Si2 0.616475 0.818121 0.200922
Si Si3 0.471367 0.606656 0.432638
Si Si4 0.685044 0.314100 0.024691
O O1 0.366165 0.217326 0.705077
O O2 0.434495 0.340760 0.443796
O O3 0.313825 0.196689 0.591200
O O4 0.413666 0.840500 0.522814
O O5 0.539656 0.729420 0.287773
O O6 0.626277 0.132252 0.161180
O O7 0.666410 0.629249 0.063650
O O8 0.500000 0.500000 0.500000
O O9 0.750000 0.250000 0.000000
#
# Coordination Sequence:
#
# PCOD9276085 Si02
#       4
#     8   8   8   8
#     4  11  23  41  66  95 129 163 204 267 325 377
#     4  11  23  42  65  90 127 163 203 270 323 369
#     4  10  20  39  67  99 125 156 205 260 332 395
#     4  12  27  42  61  92 125 172 226 252 300 386
#
# _framework density 25.200246
#
# number of rings (size 3 to 8) (size 9 to 14) (size 15 to 20)
#    0.000    1.000    0.000    9.750    0.000    8.000 
#    0.000    0.000    0.000    0.000    0.000    0.000 
#    0.000    0.000    0.000    0.000    0.000    0.000 
#
# Total GULP energy -89540.938146 kJ/mol
# GULP energy per Si atom -5596.308634 kJ/mol
# Density = 2.514289 g / cm^3
# Si number density = 25.200246 Si / 1000 Ang^3
#
#
#
# Elastic Constant Matrix: (Units=GPa)
#
#
# Indices 1 2 3 4 5 6 
#
# 1 224.6901 36.9789 12.2532 -0.0010 13.3137 0.0032
# 2 36.9789 121.1489 10.1098 -0.0063 -6.0647 0.0097
# 3 12.2532 10.1098 16.3763 0.0000 10.8326 0.0000
# 4 -0.0010 -0.0063 0.0000 31.1564 -0.0005 7.7293
# 5 13.3137 -6.0647 10.8326 -0.0005 28.6289 -0.0011
# 6 0.0032 0.0097 0.0000 7.7293 -0.0011 34.0701
#
#
#
# Elastic Compliance Matrix: (Units=1/GPa)
#
#
# Indices 1 2 3 4 5 6 
#
# 1 0.004892 -0.001482 -0.001378 0.000000 -0.002068 0.000000
# 2 -0.001482 0.009766 -0.008996 0.000003 0.006162 -0.000003
# 3 -0.001378 -0.008996 0.091349 -0.000003 -0.035829 0.000002
# 4 0.000000 0.000003 -0.000003 0.034010 0.000002 -0.007716
# 5 -0.002068 0.006162 -0.035829 0.000002 0.050753 0.000000
# 6 0.000000 -0.000003 0.000002 -0.007716 0.000000 0.031102
#
#
# Mechanical properties :
#
#
# Convention : Reuss Voigt Hill
#
# Bulk Modulus (GPa) = 12.15142 53.43324 32.79233
# Shear Modulus (GPa) = 18.31402 38.96265 28.63834
#
# Velocity S-wave (km/s) = 2.69874 3.93634 3.37476
# Velocity P-wave (km/s) = 3.81357 6.47373 5.31284
#
# Compressibility (1/GPa) = 0.08229489
#
# Stress axis : x y z
#
# Youngs Moduli (GPa) = 204.41151 102.39874 10.94708
#
# Poissons Ratio (x) = 0.15173 0.01509
# Poissons Ratio (y) = 0.30288 0.09848
# Poissons Ratio (z) = 0.28169 0.92118
#
# Static dielectric constant tensor:
#      x y z
#    x 2.129590 0.000000 0.026010 
#    y 0.000000 1.918380 0.000000 
#    z 0.026010 0.000000 2.049930 
# 
# From -- ./inp_files/220600.got.cif
#   From: 2010.05.17/outbox.cif.g08.bks.cpg/sg15_111_cif.got.tgz:220600.got - 2010.06.03 18:47:42.
