data_PCOD9276860
_publ_section_title
;
Structure prediction by ZEFSAII (Michael W. Deem and Ramdas Pophale) SiO2 
 PCOD9276860
Probable space group: C 2/C
;
_chemical_formula_sum "Si O2"
_cell_formula_units_Z 52
_cell_length_a 16.342649
_cell_length_b 9.521538
_cell_length_c 18.198453
_cell_angle_alpha 90.000000
_cell_angle_beta 131.347074
_cell_angle_gamma 90.000000
_cell_volume 2125.900606
_symmetry_space_group_name_H-M "C 2/C"
_symmetry_group_IT_number 15
_symmetry_cell_setting 'monoclinic'
loop_
_space_group_symop_operation_xyz
x,y,z
-x,y,1/2-z
-x,-y,-z
x,-y,1/2+z
1/2+x,1/2+y,z
1/2-x,1/2+y,1/2-z
1/2-x,1/2-y,-z
1/2+x,1/2-y,1/2+z
loop_
_atom_site_type_symbol
_atom_site_label
_atom_site_fract_x
_atom_site_fract_y
_atom_site_fract_z
Si Si1 0.180451 0.551310 0.466835
Si Si2 0.000000 0.346143 0.750000
Si Si3 0.638753 0.688502 0.028198
Si Si4 0.548227 0.598347 0.671818
Si Si5 0.710825 0.805349 0.321940
Si Si6 0.500000 0.633336 0.250000
Si Si7 0.250000 0.250000 0.500000
Si Si8 0.249512 0.068662 0.237547
O O1 0.286052 0.621155 0.491362
O O2 0.148585 0.646624 0.517623
O O3 0.198107 0.393435 0.501207
O O4 0.084552 0.568511 0.349380
O O5 0.942509 0.236293 0.771937
O O6 0.683911 0.642256 0.132479
O O7 0.516358 0.639288 0.939295
O O8 0.479190 0.474582 0.671435
O O9 0.663502 0.528005 0.729500
O O10 0.603286 0.728077 0.291510
O O11 0.774051 0.834376 0.434643
O O12 0.678245 0.947817 0.258920
O O13 0.775285 0.696168 0.307823
#
# Coordination Sequence:
#
# PCOD9276860 Si02
#       8
#     8   4   8   8   8   4   4   8
#     4  10  22  38  69  95 136 177 239 273 343 421
#     4   9  20  39  66 104 131 183 226 296 334 428
#     4  10  20  40  65  97 128 180 227 283 339 417
#     4   9  19  38  69  98 135 173 240 280 353 413
#     4  11  26  43  69  97 140 177 239 282 361 404
#     4   9  20  41  66  96 133 191 228 282 340 446
#     4  12  24  44  62  98 130 192 218 282 328 444
#     4  11  24  41  67 102 137 177 222 305 348 411
#
# _framework density 24.460222999999999
#
# number of rings (size 3 to 8) (size 9 to 14) (size 15 to 20)
#    0.000    1.846    1.538    1.385    4.308    3.077 
#    0.000    0.000    0.000    3.692    0.000    0.000 
#    0.000    0.000    0.000    0.000    0.000    0.000 
#
# Total GULP energy -144891.365266 kJ/mol
# GULP energy per Si atom -5572.744818 kJ/mol
# Density = 2.440455 g / cm^3
# Si number density = 24.460223 Si / 1000 Ang^3
#
#
#
# Elastic Constant Matrix: (Units=GPa)
#
#
# Indices 1 2 3 4 5 6 
#
# 1 42.2738 13.3347 9.6950 0.0000 -9.0201 0.0000
# 2 13.3347 170.5332 18.1437 0.0000 0.5557 0.0000
# 3 9.6950 18.1437 43.9528 0.0000 -6.7712 0.0000
# 4 0.0000 0.0000 0.0000 16.7442 0.0000 33.5122
# 5 -9.0201 0.5557 -6.7712 0.0000 35.3670 0.0000
# 6 0.0000 0.0000 0.0000 33.5122 0.0000 -105.5327
#
#
#
# Elastic Compliance Matrix: (Units=1/GPa)
#
#
# Indices 1 2 3 4 5 6 
#
# 1 0.026412 -0.001634 -0.004234 0.000000 0.005951 0.000000
# 2 -0.001634 0.006247 -0.002367 0.000000 -0.000968 0.000000
# 3 -0.004234 -0.002367 0.025247 0.000000 0.003791 0.000000
# 4 0.000000 0.000000 0.000000 0.036515 0.000000 0.011595
# 5 0.005951 -0.000968 0.003791 0.000000 0.030534 0.000000
# 6 0.000000 0.000000 0.000000 0.011595 0.000000 -0.005794
#
#
# Mechanical properties :
#
#
# Convention : Reuss Voigt Hill
#
# Bulk Modulus (GPa) = 24.13505 37.67853 30.90679
# Shear Modulus (GPa) = 33.45746 3.68815 18.57281
#
# Velocity S-wave (km/s) = 3.70243 1.22926 2.75854
# Velocity P-wave (km/s) = 5.30715 4.17759 4.77588
#
# Compressibility (1/GPa) = 0.04143351
#
# Stress axis : x y z
#
# Youngs Moduli (GPa) = 37.86199 160.08284 39.60875
#
# Poissons Ratio (x) = 0.26159 0.16772
# Poissons Ratio (y) = 0.06187 0.09377
# Poissons Ratio (z) = 0.16033 0.37897
#
# Static dielectric constant tensor:
#      x y z
#    x 2.008880 0.000000 -0.020390 
#    y 0.000000 1.932850 0.000000 
#    z -0.020390 0.000000 2.115520 
# 
# From -- ./inp_files/209731.got.cif
#   From: 2010.05.17/outbox.cif.g08.bks.cpg/sg15_105_cif.got.tgz:209731.got - 2010.06.03 18:47:42.
