data_PCOD9276606
_publ_section_title
;
Structure prediction by ZEFSAII (Michael W. Deem and Ramdas Pophale) SiO2 
 PCOD9276606
Probable space group: C 2/C
;
_chemical_formula_sum "Si O2"
_cell_formula_units_Z 48
_cell_length_a 5.343555
_cell_length_b 29.027164
_cell_length_c 14.982970
_cell_angle_alpha 90.000000
_cell_angle_beta 70.545340
_cell_angle_gamma 90.000000
_cell_volume 2191.295261
_symmetry_space_group_name_H-M "C 2/C"
_symmetry_group_IT_number 15
_symmetry_cell_setting 'monoclinic'
loop_
_space_group_symop_operation_xyz
x,y,z
-x,y,1/2-z
-x,-y,-z
x,-y,1/2+z
1/2+x,1/2+y,z
1/2-x,1/2+y,1/2-z
1/2-x,1/2-y,-z
1/2+x,1/2-y,1/2+z
loop_
_atom_site_type_symbol
_atom_site_label
_atom_site_fract_x
_atom_site_fract_y
_atom_site_fract_z
Si Si1 0.792860 0.213304 0.698876
Si Si2 0.697754 0.986286 0.556990
Si Si3 0.836003 0.422143 0.354957
Si Si4 0.225261 0.604438 0.967924
Si Si5 0.881268 0.201582 0.007620
Si Si6 0.218187 0.183641 0.279061
O O1 0.500000 0.195940 0.750000
O O2 0.781211 0.268796 0.716847
O O3 0.000000 0.196271 0.750000
O O4 0.870089 0.201536 0.588824
O O5 0.688327 0.930960 0.555320
O O6 0.500000 0.000000 0.500000
O O7 0.639715 0.021949 0.642634
O O8 0.000000 0.000000 0.500000
O O9 0.525459 0.406832 0.394964
O O10 0.000000 0.406465 0.250000
O O11 0.996986 0.404473 0.422466
O O12 0.215098 0.657083 0.998560
O O13 0.750000 0.250000 0.000000
O O14 0.902452 0.197528 0.111165
O O15 0.500000 0.159431 0.250000
O O16 0.000000 0.156643 0.250000
#
# Coordination Sequence:
#
# PCOD9276606 Si02
#       6
#     8   8   8   8   8   8
#     4  10  22  39  59  85 113 159 221 266 305 362
#     4   8  16  35  61  82 118 152 184 238 307 367
#     4  10  20  40  63  94 123 153 198 266 326 376
#     4  10  23  38  59  95 124 161 211 252 305 390
#     4  12  24  44  66  91 130 184 215 261 327 366
#     4  10  22  41  60  84 114 161 223 267 302 367
#
# _framework density 21.904851000000001
#
# number of rings (size 3 to 8) (size 9 to 14) (size 15 to 20)
#    0.000    2.000    3.333    0.500    0.000    8.667 
#    0.000    0.833    0.000    6.000    0.000    0.000 
#    0.000    0.000    0.000    0.000    0.000    0.000 
#
# Total GULP energy -133827.935480 kJ/mol
# GULP energy per Si atom -5576.163978 kJ/mol
# Density = 2.185499 g / cm^3
# Si number density = 21.904851 Si / 1000 Ang^3
#
#
#
# Elastic Constant Matrix: (Units=GPa)
#
#
# Indices 1 2 3 4 5 6 
#
# 1 157.6261 -10.5301 30.5372 0.0000 -5.7830 0.0000
# 2 -10.5301 114.0676 -2.3591 0.0000 -4.5390 0.0000
# 3 30.5372 -2.3591 98.5788 0.0000 -5.2984 0.0000
# 4 0.0000 0.0000 0.0000 98.5188 0.0000 26.2431
# 5 -5.7830 -4.5390 -5.2984 0.0000 19.7621 0.0000
# 6 0.0000 0.0000 0.0000 26.2431 0.0000 1.8422
#
#
#
# Elastic Compliance Matrix: (Units=1/GPa)
#
#
# Indices 1 2 3 4 5 6 
#
# 1 0.006837 0.000654 -0.002016 0.000000 0.001610 0.000000
# 2 0.000654 0.008920 0.000133 0.000000 0.002276 0.000000
# 3 -0.002016 0.000133 0.010899 0.000000 0.002363 0.000000
# 4 0.000000 0.000000 0.000000 -0.003632 0.000000 0.051741
# 5 0.001610 0.002276 0.002363 0.000000 0.052229 0.000000
# 6 0.000000 0.000000 0.000000 0.051741 0.000000 -0.194239
#
#
# Mechanical properties :
#
#
# Convention : Reuss Voigt Hill
#
# Bulk Modulus (GPa) = 41.32448 45.06319 43.19384
# Shear Modulus (GPa) = -46.09966 47.53291 0.71662
#
# Velocity S-wave (km/s) = -4.59250 4.66335 0.57259
# Velocity P-wave (km/s) = 3.03563 7.04363 4.49431
#
# Compressibility (1/GPa) = 0.02419873
#
# Stress axis : x y z
#
# Youngs Moduli (GPa) = 146.25423 112.10278 91.75307
#
# Poissons Ratio (x) = -0.07327 0.18496
# Poissons Ratio (y) = -0.09559 -0.01223
# Poissons Ratio (z) = 0.29483 -0.01495
#
# Static dielectric constant tensor:
#      x y z
#    x 1.868330 0.000000 -0.018700 
#    y 0.000000 1.872360 0.000000 
#    z -0.018700 0.000000 1.842060 
# 
# From -- ./inp_files/130309.got.cif
#   From: 2010.05.17/outbox.cif.g08.bks.cpg/sg15_66_cif.got.tgz:130309.got - 2010.06.03 18:47:42.
