data_PCOD9276631
_publ_section_title
;
Structure prediction by ZEFSAII (Michael W. Deem and Ramdas Pophale) SiO2 
 PCOD9276631
Probable space group: C 2/C
;
_chemical_formula_sum "Si O2"
_cell_formula_units_Z 60
_cell_length_a 14.856242
_cell_length_b 25.099345
_cell_length_c 16.806618
_cell_angle_alpha 90.000000
_cell_angle_beta 149.075621
_cell_angle_gamma 90.000000
_cell_volume 3220.591408
_symmetry_space_group_name_H-M "C 2/C"
_symmetry_group_IT_number 15
_symmetry_cell_setting 'monoclinic'
loop_
_space_group_symop_operation_xyz
x,y,z
-x,y,1/2-z
-x,-y,-z
x,-y,1/2+z
1/2+x,1/2+y,z
1/2-x,1/2+y,1/2-z
1/2-x,1/2-y,-z
1/2+x,1/2-y,1/2+z
loop_
_atom_site_type_symbol
_atom_site_label
_atom_site_fract_x
_atom_site_fract_y
_atom_site_fract_z
Si Si1 0.028654 0.577030 0.865683
Si Si2 0.353041 0.811393 0.992926
Si Si3 0.797451 0.017351 0.596534
Si Si4 0.000000 0.247137 0.250000
Si Si5 0.326176 0.214569 0.162661
Si Si6 0.952090 0.307995 0.517708
Si Si7 0.754930 0.409630 0.296450
Si Si8 0.901183 0.123760 0.591864
O O1 0.134903 0.625778 0.985283
O O2 0.000000 0.587055 0.750000
O O3 0.851805 0.577034 0.786706
O O4 0.148527 0.524648 0.962731
O O5 0.454263 0.784534 0.142148
O O6 0.159388 0.790121 0.848873
O O7 0.443300 0.792139 0.981385
O O8 0.756422 0.040091 0.653296
O O9 0.804351 0.068463 0.542013
O O10 0.000000 0.996916 0.750000
O O11 0.500000 0.234143 0.250000
O O12 0.407461 0.189923 0.304826
O O13 0.194364 0.263348 0.076423
O O14 0.227585 0.169192 0.036833
O O15 0.862938 0.363961 0.426124
O O16 0.555043 0.387510 0.144009
O O17 0.000000 0.137893 0.750000
#
# Coordination Sequence:
#
# PCOD9276631 Si02
#       8
#     8   8   8   4   8   8   8   8
#     4  11  22  38  59  91 117 153 200 247 295 359
#     4  10  22  40  59  87 113 156 192 244 293 346
#     4   9  20  39  62  83 114 154 199 248 303 351
#     4  10  20  40  64  78 116 146 196 236 298 342
#     4  12  23  36  58  90 123 162 198 242 300 365
#     4  11  23  36  55  88 121 155 200 240 293 359
#     4   9  20  41  60  81 119 160 197 249 301 350
#     4   9  20  41  61  86 118 160 200 249 302 356
#
# _framework density 18.630119000000001
#
# number of rings (size 3 to 8) (size 9 to 14) (size 15 to 20)
#    0.000    2.133    0.667    4.000    0.933    5.333 
#    2.400    2.667    0.000    0.000    0.000    0.000 
#    0.000    0.000    0.000    0.000    0.000    0.000 
#
# Total GULP energy -167368.502334 kJ/mol
# GULP energy per Si atom -5578.950078 kJ/mol
# Density = 1.858772 g / cm^3
# Si number density = 18.630119 Si / 1000 Ang^3
#
#
#
# Elastic Constant Matrix: (Units=GPa)
#
#
# Indices 1 2 3 4 5 6 
#
# 1 149.2241 48.9311 60.6702 0.0000 13.5113 0.0000
# 2 48.9311 86.9752 51.0904 0.0000 14.7481 0.0000
# 3 60.6702 51.0904 90.7776 0.0000 13.0571 0.0000
# 4 0.0000 0.0000 0.0000 21.1730 0.0000 15.4685
# 5 13.5113 14.7481 13.0571 0.0000 34.8953 0.0000
# 6 0.0000 0.0000 0.0000 15.4685 0.0000 21.4685
#
#
#
# Elastic Compliance Matrix: (Units=1/GPa)
#
#
# Indices 1 2 3 4 5 6 
#
# 1 0.009555 -0.002317 -0.004958 0.000000 -0.000866 0.000000
# 2 -0.002317 0.018241 -0.008178 0.000000 -0.003752 0.000000
# 3 -0.004958 -0.008178 0.019192 0.000000 -0.001805 0.000000
# 4 0.000000 0.000000 0.000000 0.099725 0.000000 -0.071854
# 5 -0.000866 -0.003752 -0.001805 0.000000 0.031254 0.000000
# 6 0.000000 0.000000 0.000000 -0.071854 0.000000 0.098352
#
#
# Mechanical properties :
#
#
# Convention : Reuss Voigt Hill
#
# Bulk Modulus (GPa) = 62.17821 72.04006 67.10913
# Shear Modulus (GPa) = 15.99569 26.59304 21.29436
#
# Velocity S-wave (km/s) = 2.93335 3.78222 3.38451
# Velocity P-wave (km/s) = 6.70226 7.60435 7.16751
#
# Compressibility (1/GPa) = 0.01608281
#
# Stress axis : x y z
#
# Youngs Moduli (GPa) = 104.65785 54.82134 52.10555
#
# Poissons Ratio (x) = 0.12699 0.25832
# Poissons Ratio (y) = 0.24244 0.42614
# Poissons Ratio (z) = 0.51886 0.44835
#
# Static dielectric constant tensor:
#      x y z
#    x 1.666660 0.000000 0.007520 
#    y 0.000000 1.638580 0.000000 
#    z 0.007520 0.000000 1.665270 
# 
# From -- ./inp_files/207255.got.cif
#   From: 2010.05.17/outbox.cif.g08.bks.cpg/sg15_104_cif.got.tgz:207255.got - 2010.06.03 18:47:42.
