data_PCOD9276002
_publ_section_title
;
Structure prediction by ZEFSAII (Michael W. Deem and Ramdas Pophale) SiO2 
 PCOD9276002
Probable space group: C 2/C
;
_chemical_formula_sum "Si O2"
_cell_formula_units_Z 52
_cell_length_a 12.651916
_cell_length_b 13.422144
_cell_length_c 18.048901
_cell_angle_alpha 90.000000
_cell_angle_beta 126.740783
_cell_angle_gamma 90.000000
_cell_volume 2456.129303
_symmetry_space_group_name_H-M "C 2/C"
_symmetry_group_IT_number 15
_symmetry_cell_setting 'monoclinic'
loop_
_space_group_symop_operation_xyz
x,y,z
-x,y,1/2-z
-x,-y,-z
x,-y,1/2+z
1/2+x,1/2+y,z
1/2-x,1/2+y,1/2-z
1/2-x,1/2-y,-z
1/2+x,1/2-y,1/2+z
loop_
_atom_site_type_symbol
_atom_site_label
_atom_site_fract_x
_atom_site_fract_y
_atom_site_fract_z
Si Si1 0.388200 0.696113 0.547608
Si Si2 0.753262 0.948422 0.217449
Si Si3 0.552080 0.129031 0.516802
Si Si4 0.742776 0.632844 0.365193
Si Si5 0.247042 0.997751 0.996474
Si Si6 0.657811 0.863079 0.328163
Si Si7 0.000000 0.836898 0.250000
O O1 0.250000 0.750000 0.500000
O O2 0.440938 0.753759 0.498813
O O3 0.360439 0.580013 0.524658
O O4 0.464181 0.716293 0.657084
O O5 0.738561 0.912571 0.294483
O O6 0.872139 0.898886 0.221110
O O7 0.771732 0.067005 0.215093
O O8 0.622525 0.905982 0.121121
O O9 0.396735 0.116184 0.448883
O O10 0.633333 0.065263 0.488808
O O11 0.678663 0.570459 0.405100
O O12 0.697828 0.746238 0.346176
O O13 0.301452 0.924836 0.082018
O O14 0.500000 0.870927 0.250000
#
# Coordination Sequence:
#
# PCOD9276002 Si02
#       7
#     8   8   8   8   8   8   4
#     4  10  20  39  66  98 130 171 217 279 327 392
#     4  11  24  41  68  97 133 179 225 280 336 402
#     4  10  20  43  67  95 129 177 226 273 339 394
#     4  11  22  42  67  88 132 189 215 272 345 402
#     4  10  21  42  64  88 138 172 219 272 341 400
#     4  12  26  42  63 103 134 173 235 280 329 407
#     4  12  20  42  70  98 138 166 236 272 342 390
#
# _framework density 21.171523000000001
#
# number of rings (size 3 to 8) (size 9 to 14) (size 15 to 20)
#    0.000    1.231    4.615    5.077    1.077    1.231 
#   11.077    3.077    0.000    0.000    0.000    0.000 
#    0.000    0.000    0.000    0.000    0.000    0.000 
#
# Total GULP energy -144933.872013 kJ/mol
# GULP energy per Si atom -5574.379693 kJ/mol
# Density = 2.112334 g / cm^3
# Si number density = 21.171523 Si / 1000 Ang^3
#
#
#
# Elastic Constant Matrix: (Units=GPa)
#
#
# Indices 1 2 3 4 5 6 
#
# 1 35.9088 17.1097 -12.2838 0.0000 -12.9682 0.0000
# 2 17.1097 166.2682 40.5170 0.0000 -30.6430 0.0000
# 3 -12.2838 40.5170 70.8972 0.0000 -15.9230 0.0000
# 4 0.0000 0.0000 0.0000 24.8135 0.0000 -11.4924
# 5 -12.9682 -30.6430 -15.9230 0.0000 29.7176 0.0000
# 6 0.0000 0.0000 0.0000 -11.4924 0.0000 15.9450
#
#
#
# Elastic Compliance Matrix: (Units=1/GPa)
#
#
# Indices 1 2 3 4 5 6 
#
# 1 0.042875 -0.003820 0.014698 0.000000 0.022646 0.000000
# 2 -0.003820 0.008317 -0.004392 0.000000 0.004556 0.000000
# 3 0.014698 -0.004392 0.022264 0.000000 0.013814 0.000000
# 4 0.000000 0.000000 0.000000 0.060495 0.000000 0.043602
# 5 0.022646 0.004556 0.013814 0.000000 0.055632 0.000000
# 6 0.000000 0.000000 0.000000 0.043602 0.000000 0.094142
#
#
# Mechanical properties :
#
#
# Convention : Reuss Voigt Hill
#
# Bulk Modulus (GPa) = 11.57031 40.41775 25.99403
# Shear Modulus (GPa) = 16.69096 29.27731 22.98413
#
# Velocity S-wave (km/s) = 2.81084 3.72272 3.29844
# Velocity P-wave (km/s) = 4.00141 6.13272 5.17791
#
# Compressibility (1/GPa) = 0.08642809
#
# Stress axis : x y z
#
# Youngs Moduli (GPa) = 23.32374 120.22974 44.91547
#
# Poissons Ratio (x) = 0.45928 -0.66016
# Poissons Ratio (y) = 0.08910 0.19726
# Poissons Ratio (z) = -0.34281 0.52803
#
# Static dielectric constant tensor:
#      x y z
#    x 1.708630 0.000000 0.021920 
#    y 0.000000 0.922280 0.000000 
#    z 0.021920 0.000000 1.798600 
# 
# From -- ./inp_files/243797.got.cif
#   From: 2010.05.17/outbox.cif.g08.bks.cpg/sg15_122_cif.got.tgz:243797.got - 2010.06.03 18:47:42.
