data_PCOD9276827
_publ_section_title
;
Structure prediction by ZEFSAII (Michael W. Deem and Ramdas Pophale) SiO2 
 PCOD9276827
Probable space group: C 2/C
;
_chemical_formula_sum "Si O2"
_cell_formula_units_Z 48
_cell_length_a 14.013419
_cell_length_b 13.988702
_cell_length_c 12.055401
_cell_angle_alpha 90.000000
_cell_angle_beta 71.638644
_cell_angle_gamma 90.000000
_cell_volume 2242.900383
_symmetry_space_group_name_H-M "C 2/C"
_symmetry_group_IT_number 15
_symmetry_cell_setting 'monoclinic'
loop_
_space_group_symop_operation_xyz
x,y,z
-x,y,1/2-z
-x,-y,-z
x,-y,1/2+z
1/2+x,1/2+y,z
1/2-x,1/2+y,1/2-z
1/2-x,1/2-y,-z
1/2+x,1/2-y,1/2+z
loop_
_atom_site_type_symbol
_atom_site_label
_atom_site_fract_x
_atom_site_fract_y
_atom_site_fract_z
Si Si1 0.851914 0.655036 0.068014
Si Si2 0.454111 0.827541 0.147772
Si Si3 0.563551 0.428346 0.136323
Si Si4 0.298243 0.356409 0.080107
Si Si5 0.019473 0.121251 0.410413
Si Si6 0.266301 0.036576 0.692418
O O1 0.814541 0.754691 0.135107
O O2 0.819362 0.564857 0.152516
O O3 0.791289 0.649008 0.974068
O O4 0.966589 0.658105 0.982392
O O5 0.500000 0.860722 0.250000
O O6 0.437296 0.713206 0.166756
O O7 0.353379 0.883602 0.154809
O O8 0.500000 0.368195 0.250000
O O9 0.486995 0.518679 0.144961
O O10 0.674406 0.451518 0.139989
O O11 0.569556 0.383849 0.012581
O O12 0.280300 0.443238 0.169483
O O13 0.400819 0.363809 0.974558
#
# Coordination Sequence:
#
# PCOD9276827 Si02
#       6
#     8   8   8   8   8   8
#     4  10  22  41  65  92 128 168 213 264 316 385
#     4  11  23  41  66  91 127 169 219 259 318 391
#     4  11  22  37  62  91 130 164 211 271 327 374
#     4  10  20  40  65  92 123 170 214 259 318 386
#     4  10  22  40  61  92 124 168 216 265 315 384
#     4  12  23  39  67  97 126 165 217 268 323 378
#
# _framework density 21.400860999999999
#
# number of rings (size 3 to 8) (size 9 to 14) (size 15 to 20)
#    0.000    1.333    5.000    1.000    0.000    2.000 
#    0.000    1.667    3.667    0.000    0.000    0.000 
#    0.000    0.000    0.000    0.000    0.000    0.000 
#
# Total GULP energy -133946.762675 kJ/mol
# GULP energy per Si atom -5581.115111 kJ/mol
# Density = 2.135215 g / cm^3
# Si number density = 21.400861 Si / 1000 Ang^3
#
#
#
# Elastic Constant Matrix: (Units=GPa)
#
#
# Indices 1 2 3 4 5 6 
#
# 1 95.1462 19.5592 12.1437 0.0000 -4.3122 0.0000
# 2 19.5592 85.5259 22.1995 0.0000 -5.9114 0.0000
# 3 12.1437 22.1995 58.3864 0.0000 1.9692 0.0000
# 4 0.0000 0.0000 0.0000 9.8613 0.0000 -1.9208
# 5 -4.3122 -5.9114 1.9692 0.0000 34.9564 0.0000
# 6 0.0000 0.0000 0.0000 -1.9208 0.0000 21.2288
#
#
#
# Elastic Compliance Matrix: (Units=1/GPa)
#
#
# Indices 1 2 3 4 5 6 
#
# 1 0.011188 -0.002072 -0.001577 0.000000 0.001119 0.000000
# 2 -0.002072 0.013574 -0.004808 0.000000 0.002311 0.000000
# 3 -0.001577 -0.004808 0.019354 0.000000 -0.002098 0.000000
# 4 0.000000 0.000000 0.000000 0.103226 0.000000 0.009340
# 5 0.001119 0.002311 -0.002098 0.000000 0.029254 0.000000
# 6 0.000000 0.000000 0.000000 0.009340 0.000000 0.047951
#
#
# Mechanical properties :
#
#
# Convention : Reuss Voigt Hill
#
# Bulk Modulus (GPa) = 36.76171 38.54038 37.65105
# Shear Modulus (GPa) = 19.95783 25.55303 22.75543
#
# Velocity S-wave (km/s) = 3.05712 3.45921 3.26436
# Velocity P-wave (km/s) = 5.44759 5.83118 5.64265
#
# Compressibility (1/GPa) = 0.02720221
#
# Stress axis : x y z
#
# Youngs Moduli (GPa) = 89.38113 73.67069 51.66863
#
# Poissons Ratio (x) = 0.15265 0.08148
# Poissons Ratio (y) = 0.18520 0.24842
# Poissons Ratio (z) = 0.14095 0.35421
#
# Static dielectric constant tensor:
#      x y z
#    x 1.749690 0.000000 -0.016200 
#    y 0.000000 1.876710 0.000000 
#    z -0.016200 0.000000 1.852860 
# 
# From -- ./inp_files/96185.got.cif
#   From: 2010.05.17/outbox.cif.g08.bks.cpg/sg15_49_cif.got.tgz:96185.got - 2010.06.03 18:47:42.
