data_PCOD9276814
_publ_section_title
;
Structure prediction by ZEFSAII (Michael W. Deem and Ramdas Pophale) SiO2 
 PCOD9276814
Probable space group: C 2/C
;
_chemical_formula_sum "Si O2"
_cell_formula_units_Z 48
_cell_length_a 19.212426
_cell_length_b 9.413055
_cell_length_c 29.763474
_cell_angle_alpha 90.000000
_cell_angle_beta 151.921343
_cell_angle_gamma 90.000000
_cell_volume 2533.524857
_symmetry_space_group_name_H-M "C 2/C"
_symmetry_group_IT_number 15
_symmetry_cell_setting 'monoclinic'
loop_
_space_group_symop_operation_xyz
x,y,z
-x,y,1/2-z
-x,-y,-z
x,-y,1/2+z
1/2+x,1/2+y,z
1/2-x,1/2+y,1/2-z
1/2-x,1/2-y,-z
1/2+x,1/2-y,1/2+z
loop_
_atom_site_type_symbol
_atom_site_label
_atom_site_fract_x
_atom_site_fract_y
_atom_site_fract_z
Si Si1 0.672281 0.159472 0.835349
Si Si2 0.806549 0.340561 0.990097
Si Si3 0.168994 0.850771 0.419155
Si Si4 0.179024 0.654809 0.345586
Si Si5 0.648998 0.242415 0.233147
Si Si6 0.865213 0.590222 0.792357
O O1 0.500000 0.180458 0.750000
O O2 0.763738 0.272940 0.917137
O O3 0.665339 0.142886 0.776755
O O4 0.729700 0.004575 0.884800
O O5 0.723139 0.489847 0.948832
O O6 0.750000 0.250000 0.000000
O O7 0.980537 0.356816 0.098815
O O8 0.250000 0.750000 0.500000
O O9 0.216535 0.780626 0.399642
O O10 0.997479 0.824910 0.333365
O O11 0.229751 0.701969 0.325530
O O12 0.000000 0.641341 0.250000
O O13 0.736914 0.342186 0.249544
O O14 0.622364 0.082328 0.199273
#
# Coordination Sequence:
#
# PCOD9276814 Si02
#       6
#     8   8   8   8   8   8
#     4  10  20  40  65  90 129 168 209 264 316 373
#     4  12  24  39  67  97 125 165 220 262 308 385
#     4  11  21  40  66  93 121 162 216 261 312 374
#     4   8  18  39  63  84 121 168 208 252 316 376
#     4  10  23  43  64  90 132 169 203 269 320 374
#     4  11  24  44  62  95 133 168 212 260 325 376
#
# _framework density 18.945937000000001
#
# number of rings (size 3 to 8) (size 9 to 14) (size 15 to 20)
#    0.000    1.667    3.333    2.000    2.333    3.333 
#    3.000    3.333    0.000    0.000    0.000    0.000 
#    0.000    0.000    0.000    0.000    0.000    0.000 
#
# Total GULP energy -133630.372599 kJ/mol
# GULP energy per Si atom -5567.932192 kJ/mol
# Density = 1.890281 g / cm^3
# Si number density = 18.945937 Si / 1000 Ang^3
#
#
#
# Elastic Constant Matrix: (Units=GPa)
#
#
# Indices 1 2 3 4 5 6 
#
# 1 100.7330 48.4438 28.4452 0.0000 -1.4666 0.0000
# 2 48.4438 138.8121 49.0997 0.0000 -20.7867 0.0000
# 3 28.4452 49.0997 66.9476 -0.0001 -9.1592 0.0000
# 4 0.0000 0.0000 -0.0001 33.0626 0.0000 -6.5317
# 5 -1.4666 -20.7867 -9.1592 0.0000 15.8732 0.0000
# 6 0.0000 0.0000 0.0000 -6.5317 0.0000 33.8654
#
#
#
# Elastic Compliance Matrix: (Units=1/GPa)
#
#
# Indices 1 2 3 4 5 6 
#
# 1 0.012785 -0.004285 -0.003144 0.000000 -0.006244 0.000000
# 2 -0.004285 0.012639 -0.005688 0.000000 0.012873 0.000000
# 3 -0.003144 -0.005688 0.021047 0.000000 0.004406 0.000000
# 4 0.000000 0.000000 0.000000 0.031444 0.000000 0.006065
# 5 -0.006244 0.012873 0.004406 0.000000 0.081823 0.000000
# 6 0.000000 0.000000 0.000000 0.006065 0.000000 0.030698
#
#
# Mechanical properties :
#
#
# Convention : Reuss Voigt Hill
#
# Bulk Modulus (GPa) = 49.41182 62.05224 55.73203
# Shear Modulus (GPa) = 22.38000 28.59383 25.48691
#
# Velocity S-wave (km/s) = 3.44067 3.88910 3.67174
# Velocity P-wave (km/s) = 6.47467 7.27943 6.88881
#
# Compressibility (1/GPa) = 0.02023807
#
# Stress axis : x y z
#
# Youngs Moduli (GPa) = 78.21878 79.12123 47.51272
#
# Poissons Ratio (x) = 0.33901 0.14937
# Poissons Ratio (y) = 0.33514 0.27024
# Poissons Ratio (z) = 0.24591 0.45002
#
# Static dielectric constant tensor:
#      x y z
#    x 1.703220 -0.000020 0.104350 
#    y -0.000020 2.094430 -0.000030 
#    z 0.104350 -0.000030 1.864810 
# 
# From -- ./inp_files/315620.got.cif
#   From: 2010.05.17/outbox.cif.g08.bks.cpg/sg15_158_cif.got.tgz:315620.got - 2010.06.03 18:47:42.
