data_PCOD9276334
_publ_section_title
;
Structure prediction by ZEFSAII (Michael W. Deem and Ramdas Pophale) SiO2 
 PCOD9276334
Probable space group: C 2/C
;
_chemical_formula_sum "Si O2"
_cell_formula_units_Z 60
_cell_length_a 10.961034
_cell_length_b 15.783480
_cell_length_c 16.413360
_cell_angle_alpha 90.000000
_cell_angle_beta 99.269938
_cell_angle_gamma 90.000000
_cell_volume 2802.481140
_symmetry_space_group_name_H-M "C 2/C"
_symmetry_group_IT_number 15
_symmetry_cell_setting 'monoclinic'
loop_
_space_group_symop_operation_xyz
x,y,z
-x,y,1/2-z
-x,-y,-z
x,-y,1/2+z
1/2+x,1/2+y,z
1/2-x,1/2+y,1/2-z
1/2-x,1/2-y,-z
1/2+x,1/2-y,1/2+z
loop_
_atom_site_type_symbol
_atom_site_label
_atom_site_fract_x
_atom_site_fract_y
_atom_site_fract_z
Si Si1 0.310692 0.451577 0.117155
Si Si2 0.750839 0.769947 0.596341
Si Si3 0.522748 0.398884 0.848060
Si Si4 0.685801 0.288837 0.620795
Si Si5 0.924475 0.423978 0.898221
Si Si6 0.145597 0.346108 0.990732
Si Si7 0.730603 0.852346 0.258998
Si Si8 0.000000 0.478509 0.250000
O O1 0.424250 0.512940 0.113054
O O2 0.191518 0.513722 0.104402
O O3 0.318794 0.404099 0.205629
O O4 0.269694 0.385093 0.044284
O O5 0.750000 0.750000 0.500000
O O6 0.877135 0.823118 0.627993
O O7 0.639930 0.832095 0.611677
O O8 0.736388 0.685748 0.649651
O O9 0.500000 0.408818 0.750000
O O10 0.393257 0.371364 0.871151
O O11 0.815998 0.313205 0.593999
O O12 0.615447 0.231247 0.546743
O O13 0.695128 0.230800 0.701763
O O14 0.032230 0.410410 0.975862
O O15 0.992863 0.460815 0.826899
O O16 0.617201 0.916281 0.260588
#
# Coordination Sequence:
#
# PCOD9276334 Si02
#       8
#     8   8   8   8   8   8   8   4
#     4   9  22  39  60  92 126 163 205 259 318 368
#     4  11  23  39  66  96 122 161 216 265 310 369
#     4  11  21  39  63  90 125 169 206 255 313 380
#     4  10  21  37  64  88 120 170 213 247 313 374
#     4  10  22  38  61  91 128 160 210 263 312 365
#     4  10  21  39  61  91 126 163 209 258 309 370
#     4  10  20  40  60  89 125 163 210 260 307 377
#     4  10  22  36  64  92 120 170 210 248 322 366
#
# _framework density 21.409600000000001
#
# number of rings (size 3 to 8) (size 9 to 14) (size 15 to 20)
#    0.000    1.867    1.333    2.000    1.867    5.867 
#    0.000    5.333    0.000    0.000    0.000    0.000 
#    0.000    0.000    0.000    0.000    0.000    0.000 
#
# Total GULP energy -167361.367755 kJ/mol
# GULP energy per Si atom -5578.712258 kJ/mol
# Density = 2.136087 g / cm^3
# Si number density = 21.409600 Si / 1000 Ang^3
#
#
#
# Elastic Constant Matrix: (Units=GPa)
#
#
# Indices 1 2 3 4 5 6 
#
# 1 24.8132 14.0368 13.0119 0.0000 -6.7160 0.0000
# 2 14.0368 97.4613 35.7055 0.0000 -3.3173 0.0000
# 3 13.0119 35.7055 80.4524 0.0000 -3.1897 0.0000
# 4 0.0000 0.0000 0.0000 33.3127 0.0000 3.8414
# 5 -6.7160 -3.3173 -3.1897 0.0000 25.2409 0.0000
# 6 0.0000 0.0000 0.0000 3.8414 0.0000 23.3600
#
#
#
# Elastic Compliance Matrix: (Units=1/GPa)
#
#
# Indices 1 2 3 4 5 6 
#
# 1 0.048941 -0.004681 -0.005373 0.000000 0.011728 0.000000
# 2 -0.004681 0.012722 -0.004897 0.000000 -0.000192 0.000000
# 3 -0.005373 -0.004897 0.015467 0.000000 -0.000119 0.000000
# 4 0.000000 0.000000 0.000000 0.030599 0.000000 -0.005032
# 5 0.011728 -0.000192 -0.000119 0.000000 0.042698 0.000000
# 6 0.000000 0.000000 0.000000 -0.005032 0.000000 0.043636
#
#
# Mechanical properties :
#
#
# Convention : Reuss Voigt Hill
#
# Bulk Modulus (GPa) = 21.17347 36.47058 28.82202
# Shear Modulus (GPa) = 20.85872 25.71424 23.28648
#
# Velocity S-wave (km/s) = 3.12472 3.46939 3.30156
# Velocity P-wave (km/s) = 4.78849 5.75505 5.29387
#
# Compressibility (1/GPa) = 0.04722891
#
# Stress axis : x y z
#
# Youngs Moduli (GPa) = 20.43271 78.60354 64.65294
#
# Poissons Ratio (x) = 0.36795 0.34738
# Poissons Ratio (y) = 0.09565 0.31659
# Poissons Ratio (z) = 0.10978 0.38490
#
# Static dielectric constant tensor:
#      x y z
#    x 1.781540 0.000000 0.022590 
#    y 0.000000 1.789140 0.000000 
#    z 0.022590 0.000000 1.810920 
# 
# From -- ./inp_files/197919.got.cif
#   From: 2010.05.17/outbox.cif.g08.bks.cpg/sg15_99_cif.got.tgz:197919.got - 2010.06.03 18:47:42.
