data_PCOD9276061
_publ_section_title
;
Structure prediction by ZEFSAII (Michael W. Deem and Ramdas Pophale) SiO2 
 PCOD9276061
Probable space group: C 2/C
;
_chemical_formula_sum "Si O2"
_cell_formula_units_Z 64
_cell_length_a 29.486819
_cell_length_b 9.112901
_cell_length_c 17.997350
_cell_angle_alpha 90.000000
_cell_angle_beta 143.520417
_cell_angle_gamma 90.000000
_cell_volume 2875.222872
_symmetry_space_group_name_H-M "C 2/C"
_symmetry_group_IT_number 15
_symmetry_cell_setting 'monoclinic'
loop_
_space_group_symop_operation_xyz
x,y,z
-x,y,1/2-z
-x,-y,-z
x,-y,1/2+z
1/2+x,1/2+y,z
1/2-x,1/2+y,1/2-z
1/2-x,1/2-y,-z
1/2+x,1/2-y,1/2+z
loop_
_atom_site_type_symbol
_atom_site_label
_atom_site_fract_x
_atom_site_fract_y
_atom_site_fract_z
Si Si1 0.849671 0.027504 0.359950
Si Si2 0.554230 0.501004 0.251364
Si Si3 0.749110 0.892248 0.107140
Si Si4 0.893404 0.473610 0.482244
Si Si5 0.718550 0.921842 0.794732
Si Si6 0.053936 0.770927 0.969551
Si Si7 0.998871 0.777528 0.063278
Si Si8 0.728368 0.412453 0.999850
O O1 0.807520 0.998458 0.227836
O O2 0.871314 0.872782 0.426209
O O3 0.790919 0.105547 0.336553
O O4 0.928128 0.112595 0.454516
O O5 0.500000 0.462054 0.250000
O O6 0.512547 0.634377 0.154611
O O7 0.637820 0.553309 0.385216
O O8 0.553213 0.365170 0.191934
O O9 0.668164 0.906315 0.042743
O O10 0.784469 0.730019 0.163360
O O11 0.741302 0.962415 0.016453
O O12 0.847695 0.524101 0.347570
O O13 0.929289 0.626775 0.555264
O O14 0.960402 0.362116 0.550740
O O15 0.734934 0.053551 0.872543
O O16 0.033247 0.740385 0.028496
O O17 0.750000 0.250000 0.000000
#
# Coordination Sequence:
#
# PCOD9276061 Si02
#       8
#     8   8   8   8   8   8   8   8
#     4  10  20  39  67  95 126 174 229 269 339 403
#     4  11  26  46  71  95 139 186 225 272 350 419
#     4  11  23  42  66  98 139 179 222 280 349 404
#     4  11  25  40  71 103 131 174 230 293 340 394
#     4  11  24  43  67  97 138 175 219 283 343 411
#     4  11  22  41  67  98 134 168 229 291 334 394
#     4  11  22  43  67  99 131 178 232 278 340 408
#     4  12  28  44  72 101 136 181 232 281 339 417
#
# _framework density 22.259145
#
# number of rings (size 3 to 8) (size 9 to 14) (size 15 to 20)
#    0.000    1.000    2.500    5.250    7.000    0.000 
#    0.000    0.625    0.000    0.000    0.000    0.000 
#    0.000    0.000    0.000    0.000    0.000    0.000 
#
# Total GULP energy -179001.299010 kJ/mol
# GULP energy per Si atom -5593.790594 kJ/mol
# Density = 2.220848 g / cm^3
# Si number density = 22.259145 Si / 1000 Ang^3
#
#
#
# Elastic Constant Matrix: (Units=GPa)
#
#
# Indices 1 2 3 4 5 6 
#
# 1 75.7589 15.6486 20.6899 0.0000 -3.6164 0.0000
# 2 15.6486 60.1761 6.8951 0.0000 16.3091 0.0000
# 3 20.6899 6.8951 40.5855 0.0000 2.8903 0.0000
# 4 0.0000 0.0000 0.0000 17.3894 0.0000 0.3992
# 5 -3.6164 16.3091 2.8903 0.0000 22.1416 0.0000
# 6 0.0000 0.0000 0.0000 0.3992 0.0000 33.8420
#
#
#
# Elastic Compliance Matrix: (Units=1/GPa)
#
#
# Indices 1 2 3 4 5 6 
#
# 1 0.017012 -0.005648 -0.008284 0.000000 0.008020 0.000000
# 2 -0.005648 0.022885 0.000260 0.000000 -0.017813 0.000000
# 3 -0.008284 0.000260 0.029200 0.000000 -0.005356 0.000000
# 4 0.000000 0.000000 0.000000 0.057522 0.000000 -0.000679
# 5 0.008020 -0.017813 -0.005356 0.000000 0.060294 0.000000
# 6 0.000000 0.000000 0.000000 -0.000679 0.000000 0.029557
#
#
# Mechanical properties :
#
#
# Convention : Reuss Voigt Hill
#
# Bulk Modulus (GPa) = 23.95113 29.22084 26.58599
# Shear Modulus (GPa) = 19.40015 23.56039 21.48027
#
# Velocity S-wave (km/s) = 2.95542 3.25693 3.10983
# Velocity P-wave (km/s) = 4.73598 5.22489 4.98643
#
# Compressibility (1/GPa) = 0.04175169
#
# Stress axis : x y z
#
# Youngs Moduli (GPa) = 58.78316 43.69745 34.24700
#
# Poissons Ratio (x) = 0.24682 0.28370
# Poissons Ratio (y) = 0.33203 -0.00891
# Poissons Ratio (z) = 0.48695 -0.01137
#
# Static dielectric constant tensor:
#      x y z
#    x 1.827670 0.000000 -0.003760 
#    y 0.000000 1.848240 0.000000 
#    z -0.003760 0.000000 1.812390 
# 
# From -- ./inp_files/224613.got.cif
#   From: 2010.05.17/outbox.cif.g08.bks.cpg/sg15_113_cif.got.tgz:224613.got - 2010.06.03 18:47:42.
