data_PCOD9276892
_publ_section_title
;
Structure prediction by ZEFSAII (Michael W. Deem and Ramdas Pophale) SiO2 
 PCOD9276892
Probable space group: C 2/C
;
_chemical_formula_sum "Si O2"
_cell_formula_units_Z 64
_cell_length_a 16.937542
_cell_length_b 30.471390
_cell_length_c 11.821967
_cell_angle_alpha 90.000000
_cell_angle_beta 149.906999
_cell_angle_gamma 90.000000
_cell_volume 3059.293173
_symmetry_space_group_name_H-M "C 2/C"
_symmetry_group_IT_number 15
_symmetry_cell_setting 'monoclinic'
loop_
_space_group_symop_operation_xyz
x,y,z
-x,y,1/2-z
-x,-y,-z
x,-y,1/2+z
1/2+x,1/2+y,z
1/2-x,1/2+y,1/2-z
1/2-x,1/2-y,-z
1/2+x,1/2-y,1/2+z
loop_
_atom_site_type_symbol
_atom_site_label
_atom_site_fract_x
_atom_site_fract_y
_atom_site_fract_z
Si Si1 0.229086 0.366882 0.802879
Si Si2 0.194845 0.301955 0.165623
Si Si3 0.671302 0.585695 0.445432
Si Si4 0.630556 0.446052 0.652686
Si Si5 0.663260 0.228420 0.285500
Si Si6 0.070758 0.655921 0.722290
Si Si7 0.721767 0.462384 0.243488
Si Si8 0.824478 0.384788 0.509977
O O1 0.332839 0.398619 0.853924
O O2 0.255779 0.315219 0.859260
O O3 0.060952 0.364151 0.527267
O O4 0.242146 0.386822 0.945797
O O5 0.319738 0.264855 0.290129
O O6 0.173368 0.312564 0.270455
O O7 0.240347 0.346645 0.153600
O O8 0.017657 0.284732 0.913673
O O9 0.500000 0.607849 0.250000
O O10 0.650896 0.554893 0.312600
O O11 0.812389 0.617981 0.594051
O O12 0.711355 0.559929 0.608644
O O13 0.448182 0.456931 0.405642
O O14 0.742642 0.485727 0.751997
O O15 0.750000 0.250000 0.500000
O O16 0.000000 0.675203 0.750000
O O17 0.830626 0.431423 0.454527
O O18 0.000000 0.369087 0.750000
#
# Coordination Sequence:
#
# PCOD9276892 Si02
#       8
#     8   8   8   8   8   8   8   8
#     4  11  23  38  66  92 132 164 215 264 326 391
#     4  11  23  41  65  95 133 166 208 261 329 387
#     4  10  20  40  66  88 121 172 217 259 312 383
#     4  10  23  42  60  96 126 171 218 271 324 384
#     4  11  21  40  63  94 130 165 202 264 323 389
#     4  11  21  42  67  87 128 173 208 264 316 376
#     4  10  23  40  64  90 133 168 217 273 328 382
#     4  12  20  40  62  94 130 168 204 268 332 382
#
# _framework density 20.919865000000001
#
# number of rings (size 3 to 8) (size 9 to 14) (size 15 to 20)
#    0.000    1.250    6.250    0.375    1.750    1.500 
#    4.500    3.750    0.000    0.000    0.000    0.000 
#    0.000    0.000    0.000    0.000    0.000    0.000 
#
# Total GULP energy -178351.744158 kJ/mol
# GULP energy per Si atom -5573.492005 kJ/mol
# Density = 2.087225 g / cm^3
# Si number density = 20.919865 Si / 1000 Ang^3
#
#
#
# Elastic Constant Matrix: (Units=GPa)
#
#
# Indices 1 2 3 4 5 6 
#
# 1 77.5607 3.9594 5.1467 0.0000 -25.4290 0.0000
# 2 3.9594 68.2251 6.3428 0.0000 -2.4261 0.0000
# 3 5.1467 6.3428 37.5347 0.0000 -16.7014 0.0000
# 4 0.0000 0.0000 0.0000 16.9614 0.0000 -3.8250
# 5 -25.4290 -2.4261 -16.7014 0.0000 27.0133 0.0000
# 6 0.0000 0.0000 0.0000 -3.8250 0.0000 19.0241
#
#
#
# Elastic Compliance Matrix: (Units=1/GPa)
#
#
# Indices 1 2 3 4 5 6 
#
# 1 0.020274 -0.001074 0.008071 0.000000 0.023978 0.000000
# 2 -0.001074 0.014950 -0.003078 0.000000 -0.001572 0.000000
# 3 0.008071 -0.003078 0.040438 0.000000 0.032323 0.000000
# 4 0.000000 0.000000 0.000000 0.061758 0.000000 0.012417
# 5 0.023978 -0.001572 0.032323 0.000000 0.079434 0.000000
# 6 0.000000 0.000000 0.000000 0.012417 0.000000 0.055061
#
#
# Mechanical properties :
#
#
# Convention : Reuss Voigt Hill
#
# Bulk Modulus (GPa) = 11.97628 23.80205 17.88916
# Shear Modulus (GPa) = 17.12852 23.79117 20.45985
#
# Velocity S-wave (km/s) = 2.86452 3.37598 3.13071
# Velocity P-wave (km/s) = 4.08386 5.15739 4.65170
#
# Compressibility (1/GPa) = 0.08349838
#
# Stress axis : x y z
#
# Youngs Moduli (GPa) = 49.32438 66.88953 24.72933
#
# Poissons Ratio (x) = 0.07186 -0.19959
# Poissons Ratio (y) = 0.05299 0.07613
# Poissons Ratio (z) = -0.39810 0.20592
#
# Static dielectric constant tensor:
#      x y z
#    x 2.031570 0.000000 -0.077700 
#    y 0.000000 1.786590 0.000000 
#    z -0.077700 0.000000 1.826480 
# 
# From -- ./inp_files/108656.got.cif
#   From: 2010.05.17/outbox.cif.g08.bks.cpg/sg15_55_cif.got.tgz:108656.got - 2010.06.03 18:47:42.
