data_PCOD9276003
_publ_section_title
;
Structure prediction by ZEFSAII (Michael W. Deem and Ramdas Pophale) SiO2 
 PCOD9276003
Probable space group: C 2/C
;
_chemical_formula_sum "Si O2"
_cell_formula_units_Z 56
_cell_length_a 18.462671
_cell_length_b 26.550359
_cell_length_c 9.766653
_cell_angle_alpha 90.000000
_cell_angle_beta 144.343790
_cell_angle_gamma 90.000000
_cell_volume 2790.743535
_symmetry_space_group_name_H-M "C 2/C"
_symmetry_group_IT_number 15
_symmetry_cell_setting 'monoclinic'
loop_
_space_group_symop_operation_xyz
x,y,z
-x,y,1/2-z
-x,-y,-z
x,-y,1/2+z
1/2+x,1/2+y,z
1/2-x,1/2+y,1/2-z
1/2-x,1/2-y,-z
1/2+x,1/2-y,1/2+z
loop_
_atom_site_type_symbol
_atom_site_label
_atom_site_fract_x
_atom_site_fract_y
_atom_site_fract_z
Si Si1 0.885996 0.873383 0.485107
Si Si2 0.737652 0.997025 0.028937
Si Si3 0.951927 0.856611 0.029588
Si Si4 0.900686 0.402183 0.216052
Si Si5 0.606439 0.915677 0.996950
Si Si6 0.878518 0.970667 0.982643
Si Si7 0.775032 0.808695 0.545872
O O1 0.854845 0.826392 0.536634
O O2 0.940722 0.862562 0.419592
O O3 0.747933 0.896520 0.246218
O O4 0.000000 0.898948 0.750000
O O5 0.853714 0.995931 0.311356
O O6 0.702945 0.055668 0.972806
O O7 0.633401 0.964288 0.944394
O O8 0.769135 0.977925 0.926198
O O9 0.897565 0.912316 0.974809
O O10 0.849986 0.822579 0.798535
O O11 0.000000 0.837555 0.250000
O O12 0.950265 0.420300 0.439114
O O13 0.842985 0.346382 0.136455
O O14 0.000000 0.404162 0.250000
O O15 0.500000 0.885319 0.750000
O O16 0.000000 0.986945 0.250000
O O17 0.750000 0.750000 0.500000
#
# Coordination Sequence:
#
# PCOD9276003 Si02
#       7
#     8   8   8   8   8   8   8
#     4   9  21  42  69  93 131 170 216 271 329 390
#     4  12  23  40  58  91 135 174 220 260 311 387
#     4  10  20  39  66  98 131 165 213 277 329 384
#     4  11  25  41  60  86 125 171 217 263 317 397
#     4  11  24  39  61  91 130 177 219 261 317 382
#     4  11  23  37  61  95 133 176 220 266 317 385
#     4  10  22  44  69  94 122 164 220 274 340 399
#
# _framework density 20.066337999999998
#
# number of rings (size 3 to 8) (size 9 to 14) (size 15 to 20)
#    0.000    1.429    2.857    2.571    2.000    4.571 
#    0.000    3.571    0.000    0.000    0.000    0.000 
#    0.000    0.000    0.000    0.000    0.000    0.000 
#
# Total GULP energy -156104.424377 kJ/mol
# GULP energy per Si atom -5575.158013 kJ/mol
# Density = 2.002067 g / cm^3
# Si number density = 20.066338 Si / 1000 Ang^3
#
#
#
# Elastic Constant Matrix: (Units=GPa)
#
#
# Indices 1 2 3 4 5 6 
#
# 1 144.2522 32.9681 31.8718 0.0000 -22.8470 0.0000
# 2 32.9681 113.9477 15.5700 0.0000 -0.3411 0.0000
# 3 31.8718 15.5700 118.1777 0.0000 -13.0635 0.0000
# 4 0.0000 0.0000 0.0000 21.2739 0.0000 -2.0460
# 5 -22.8470 -0.3411 -13.0635 0.0000 38.3011 0.0000
# 6 0.0000 0.0000 0.0000 -2.0460 0.0000 18.7644
#
#
#
# Elastic Compliance Matrix: (Units=1/GPa)
#
#
# Indices 1 2 3 4 5 6 
#
# 1 0.008493 -0.002239 -0.001494 0.000000 0.004536 0.000000
# 2 -0.002239 0.009531 -0.000821 0.000000 -0.001531 0.000000
# 3 -0.001494 -0.000821 0.009221 0.000000 0.002247 0.000000
# 4 0.000000 0.000000 0.000000 0.047504 0.000000 0.005180
# 5 0.004536 -0.001531 0.002247 0.000000 0.029568 0.000000
# 6 0.000000 0.000000 0.000000 0.005180 0.000000 0.053857
#
#
# Mechanical properties :
#
#
# Convention : Reuss Voigt Hill
#
# Bulk Modulus (GPa) = 55.13708 59.68860 57.41284
# Shear Modulus (GPa) = 28.84692 35.39905 32.12299
#
# Velocity S-wave (km/s) = 3.79565 4.20468 4.00539
# Velocity P-wave (km/s) = 6.83713 7.30634 7.07563
#
# Compressibility (1/GPa) = 0.01813661
#
# Stress axis : x y z
#
# Youngs Moduli (GPa) = 117.74835 104.91529 108.44506
#
# Poissons Ratio (x) = 0.23495 0.16201
# Poissons Ratio (y) = 0.26369 0.08904
# Poissons Ratio (z) = 0.17591 0.08614
#
# Static dielectric constant tensor:
#      x y z
#    x 1.741760 0.000000 0.022710 
#    y 0.000000 1.689110 0.000000 
#    z 0.022710 0.000000 1.836610 
# 
# From -- ./inp_files/52381.got.cif
#   From: 2010.05.17/outbox.cif.g08.bks.cpg/sg15_27_cif.got.tgz:52381.got - 2010.06.03 18:47:42.
