data_PCOD9276754
_publ_section_title
;
Structure prediction by ZEFSAII (Michael W. Deem and Ramdas Pophale) SiO2 
 PCOD9276754
Probable space group: C 2/C
;
_chemical_formula_sum "Si O2"
_cell_formula_units_Z 40
_cell_length_a 16.796712
_cell_length_b 12.015158
_cell_length_c 20.123672
_cell_angle_alpha 90.000000
_cell_angle_beta 154.966322
_cell_angle_gamma 90.000000
_cell_volume 1718.526646
_symmetry_space_group_name_H-M "C 2/C"
_symmetry_group_IT_number 15
_symmetry_cell_setting 'monoclinic'
loop_
_space_group_symop_operation_xyz
x,y,z
-x,y,1/2-z
-x,-y,-z
x,-y,1/2+z
1/2+x,1/2+y,z
1/2-x,1/2+y,1/2-z
1/2-x,1/2-y,-z
1/2+x,1/2-y,1/2+z
loop_
_atom_site_type_symbol
_atom_site_label
_atom_site_fract_x
_atom_site_fract_y
_atom_site_fract_z
Si Si1 0.888980 0.677338 0.909702
Si Si2 0.262081 0.333470 0.623574
Si Si3 0.416177 0.887778 0.283341
Si Si4 0.141967 0.923693 0.563487
Si Si5 0.931226 0.944269 0.268952
O O1 0.829401 0.642181 0.790381
O O2 0.840663 0.804015 0.889406
O O3 0.780696 0.598095 0.878109
O O4 0.112590 0.662185 0.071721
O O5 0.337535 0.208829 0.676594
O O6 0.422214 0.421770 0.760448
O O7 0.137138 0.372828 0.466176
O O8 0.336254 0.007464 0.204633
O O9 0.055921 0.907564 0.425182
O O10 0.000000 0.000000 0.500000
O O11 0.000000 0.903034 0.250000
#
# Coordination Sequence:
#
# PCOD9276754 Si02
#       5
#     8   8   8   8   8
#     4  10  22  37  69  95 125 167 220 268 313 378
#     4  10  20  40  64  96 125 167 222 263 315 378
#     4  10  21  36  71  98 123 159 228 272 309 368
#     4  12  20  42  68  96 129 168 220 272 313 379
#     4  12  26  42  64  98 137 173 209 265 333 390
#
# _framework density 23.275752000000001
#
# number of rings (size 3 to 8) (size 9 to 14) (size 15 to 20)
#    1.200    0.000    4.000    3.000    0.000    2.400 
#    0.000    5.000    0.000    0.000    0.000    0.000 
#    0.000    0.000    0.000    0.000    0.000    0.000 
#
# Total GULP energy -111766.874632 kJ/mol
# GULP energy per Si atom -5588.343732 kJ/mol
# Density = 2.322278 g / cm^3
# Si number density = 23.275752 Si / 1000 Ang^3
#
#
#
# Elastic Constant Matrix: (Units=GPa)
#
#
# Indices 1 2 3 4 5 6 
#
# 1 116.8272 5.7558 23.2450 0.0006 -8.3577 0.0001
# 2 5.7558 94.2961 -2.9414 0.0000 0.5635 0.0004
# 3 23.2450 -2.9414 71.8243 0.0010 -9.1858 0.0013
# 4 0.0006 0.0000 0.0010 30.7447 0.0001 -10.2559
# 5 -8.3577 0.5635 -9.1858 0.0001 26.7894 0.0009
# 6 0.0001 0.0004 0.0013 -10.2559 0.0009 -7.8929
#
#
#
# Elastic Compliance Matrix: (Units=1/GPa)
#
#
# Indices 1 2 3 4 5 6 
#
# 1 0.009286 -0.000665 -0.002782 0.000000 0.001957 0.000000
# 2 -0.000665 0.010666 0.000624 0.000000 -0.000218 0.000000
# 3 -0.002782 0.000624 0.015412 0.000000 0.004403 0.000003
# 4 0.000000 0.000000 0.000000 0.022691 0.000001 -0.029484
# 5 0.001957 -0.000218 0.004403 0.000001 0.039453 0.000004
# 6 0.000000 0.000000 0.000003 -0.029484 0.000004 -0.088385
#
#
# Mechanical properties :
#
#
# Convention : Reuss Voigt Hill
#
# Bulk Modulus (GPa) = 33.64992 37.22960 35.43976
# Shear Modulus (GPa) = 202.63167 27.05413 114.84290
#
# Velocity S-wave (km/s) = 9.34056 3.41300 7.03187
# Velocity P-wave (km/s) = 11.43750 5.61793 9.01048
#
# Compressibility (1/GPa) = 0.02971775
#
# Stress axis : x y z
#
# Youngs Moduli (GPa) = 107.68881 93.75342 64.88433
#
# Poissons Ratio (x) = 0.06237 0.18052
# Poissons Ratio (y) = 0.07164 -0.04050
# Poissons Ratio (z) = 0.29962 -0.05853
#
# Static dielectric constant tensor:
#      x y z
#    x 1.945260 0.000000 -0.033130 
#    y 0.000000 1.817970 0.000000 
#    z -0.033130 0.000000 1.940200 
# 
# From -- ./inp_files/248705.got.cif
#   From: 2010.05.17/outbox.cif.g08.bks.cpg/sg15_125_cif.got.tgz:248705.got - 2010.06.03 18:47:42.
