data_PCOD9276875
_publ_section_title
;
Structure prediction by ZEFSAII (Michael W. Deem and Ramdas Pophale) SiO2 
 PCOD9276875
Probable space group: C 2/C
;
_chemical_formula_sum "Si O2"
_cell_formula_units_Z 64
_cell_length_a 5.895585
_cell_length_b 22.740491
_cell_length_c 22.293669
_cell_angle_alpha 90.000000
_cell_angle_beta 115.520645
_cell_angle_gamma 90.000000
_cell_volume 2697.254121
_symmetry_space_group_name_H-M "C 2/C"
_symmetry_group_IT_number 15
_symmetry_cell_setting 'monoclinic'
loop_
_space_group_symop_operation_xyz
x,y,z
-x,y,1/2-z
-x,-y,-z
x,-y,1/2+z
1/2+x,1/2+y,z
1/2-x,1/2+y,1/2-z
1/2-x,1/2-y,-z
1/2+x,1/2-y,1/2+z
loop_
_atom_site_type_symbol
_atom_site_label
_atom_site_fract_x
_atom_site_fract_y
_atom_site_fract_z
Si Si1 0.183710 0.313205 0.018759
Si Si2 0.224824 0.973196 0.378989
Si Si3 0.330475 0.157705 0.376960
Si Si4 0.985655 0.915800 0.578094
Si Si5 0.302255 0.253200 0.281266
Si Si6 0.376382 0.630911 0.850533
Si Si7 0.363818 0.120174 0.560655
Si Si8 0.466365 0.946181 0.816433
O O1 0.061969 0.349762 0.949730
O O2 0.250000 0.250000 0.000000
O O3 0.417586 0.339634 0.081224
O O4 0.959793 0.319062 0.042475
O O5 0.980637 0.932430 0.344452
O O6 0.435934 0.930799 0.430445
O O7 0.177106 0.029840 0.414700
O O8 0.321961 0.998958 0.327572
O O9 0.086495 0.141165 0.389099
O O10 0.376650 0.219857 0.351027
O O11 0.321968 0.112315 0.320988
O O12 0.890598 0.900389 0.500992
O O13 0.265438 0.937666 0.620782
O O14 0.500000 0.235982 0.250000
O O15 0.330862 0.323068 0.293123
O O16 0.000000 0.240300 0.250000
O O17 0.144594 0.624829 0.869102
O O18 0.500000 0.949351 0.750000
#
# Coordination Sequence:
#
# PCOD9276875 Si02
#       8
#     8   8   8   8   8   8   8   8
#     4  10  20  40  66 101 138 173 228 298 365 430
#     4  10  23  42  66  95 136 175 231 294 357 434
#     4  10  23  42  70 103 138 180 233 301 366 437
#     4  10  22  42  66 104 133 175 226 293 377 429
#     4  12  30  50  73 103 146 202 244 298 356 436
#     4  11  24  45  67 100 138 183 241 289 359 429
#     4  10  22  40  68  99 133 178 222 300 362 437
#     4  11  24  42  65  97 136 184 238 292 358 429
#
# _framework density 23.727834000000001
#
# number of rings (size 3 to 8) (size 9 to 14) (size 15 to 20)
#    0.000    1.500    1.250    2.250    7.000    6.000 
#    4.500    0.000    0.000    0.000    0.000    0.000 
#    0.000    0.000    0.000    0.000    0.000    0.000 
#
# Total GULP energy -178638.356928 kJ/mol
# GULP energy per Si atom -5582.448654 kJ/mol
# Density = 2.367383 g / cm^3
# Si number density = 23.727834 Si / 1000 Ang^3
#
#
#
# Elastic Constant Matrix: (Units=GPa)
#
#
# Indices 1 2 3 4 5 6 
#
# 1 80.7055 23.3547 21.3704 0.0000 -10.5961 0.0000
# 2 23.3547 78.8709 4.0604 0.0000 -18.0752 0.0000
# 3 21.3704 4.0604 45.1052 0.0000 -11.8064 0.0000
# 4 0.0000 0.0000 0.0000 24.8793 0.0000 -4.2972
# 5 -10.5961 -18.0752 -11.8064 0.0000 29.0781 0.0000
# 6 0.0000 0.0000 0.0000 -4.2972 0.0000 31.3703
#
#
#
# Elastic Compliance Matrix: (Units=1/GPa)
#
#
# Indices 1 2 3 4 5 6 
#
# 1 0.015450 -0.004164 -0.006880 0.000000 0.000248 0.000000
# 2 -0.004164 0.015966 0.003062 0.000000 0.009650 0.000000
# 3 -0.006880 0.003062 0.027969 0.000000 0.010752 0.000000
# 4 0.000000 0.000000 0.000000 0.041168 0.000000 0.005639
# 5 0.000248 0.009650 0.010752 0.000000 0.044845 0.000000
# 6 0.000000 0.000000 0.000000 0.005639 0.000000 0.032650
#
#
# Mechanical properties :
#
#
# Convention : Reuss Voigt Hill
#
# Bulk Modulus (GPa) = 23.03109 33.58363 28.30736
# Shear Modulus (GPa) = 23.98238 27.45860 25.72049
#
# Velocity S-wave (km/s) = 3.18264 3.40550 3.29596
# Velocity P-wave (km/s) = 4.82007 5.44497 5.14202
#
# Compressibility (1/GPa) = 0.04341956
#
# Stress axis : x y z
#
# Youngs Moduli (GPa) = 64.72429 62.63349 35.75391
#
# Poissons Ratio (x) = 0.26080 0.24600
# Poissons Ratio (y) = 0.26950 -0.10946
# Poissons Ratio (z) = 0.44532 -0.19175
#
# Static dielectric constant tensor:
#      x y z
#    x 2.023580 0.000000 -0.004260 
#    y 0.000000 1.898160 0.000000 
#    z -0.004260 0.000000 1.889490 
# 
# From -- ./inp_files/261813.got.cif
#   From: 2010.05.17/outbox.cif.g08.bks.cpg/sg15_131_cif.got.tgz:261813.got - 2010.06.03 18:47:42.
