data_PCOD9276450
_publ_section_title
;
Structure prediction by ZEFSAII (Michael W. Deem and Ramdas Pophale) SiO2 
 PCOD9276450
Probable space group: C 2/C
;
_chemical_formula_sum "Si O2"
_cell_formula_units_Z 44
_cell_length_a 7.054249
_cell_length_b 28.160776
_cell_length_c 9.311137
_cell_angle_alpha 90.000000
_cell_angle_beta 115.980505
_cell_angle_gamma 90.000000
_cell_volume 1662.762984
_symmetry_space_group_name_H-M "C 2/C"
_symmetry_group_IT_number 15
_symmetry_cell_setting 'monoclinic'
loop_
_space_group_symop_operation_xyz
x,y,z
-x,y,1/2-z
-x,-y,-z
x,-y,1/2+z
1/2+x,1/2+y,z
1/2-x,1/2+y,1/2-z
1/2-x,1/2-y,-z
1/2+x,1/2-y,1/2+z
loop_
_atom_site_type_symbol
_atom_site_label
_atom_site_fract_x
_atom_site_fract_y
_atom_site_fract_z
Si Si1 0.847054 0.108231 0.458403
Si Si2 0.500000 0.238709 0.750000
Si Si3 0.500000 0.347010 0.250000
Si Si4 0.000000 0.320601 0.750000
Si Si5 0.464817 0.270009 0.430427
Si Si6 0.795435 0.532423 0.285833
Si Si7 0.576322 0.069983 0.623691
O O1 0.050234 0.121954 0.622694
O O2 0.704329 0.144914 0.320007
O O3 0.871172 0.062955 0.361428
O O4 0.697847 0.102188 0.550812
O O5 0.521775 0.269367 0.614227
O O6 0.278001 0.212481 0.659032
O O7 0.609425 0.304737 0.384216
O O8 0.975610 0.283133 0.872611
O O9 0.774325 0.476236 0.299392
O O10 0.000000 0.537046 0.250000
O O11 0.872178 0.552295 0.464221
O O12 0.500000 0.088831 0.750000
#
# Coordination Sequence:
#
# PCOD9276450 Si02
#       7
#     8   4   4   4   8   8   8
#     4  11  20  36  56  87 114 159 199 243 274 364
#     4  10  20  40  62  86 108 144 204 248 302 332
#     4  11  24  40  56  82 125 164 197 226 296 367
#     4  11  20  38  62  82 115 160 209 228 290 365
#     4  10  22  40  61  85 117 161 191 245 297 350
#     4   8  15  31  55  80 110 145 190 238 288 344
#     4   9  16  31  55  85 109 139 188 247 296 328
#
# _framework density 26.461980000000001
#
# number of rings (size 3 to 8) (size 9 to 14) (size 15 to 20)
#    0.000    2.182    2.727    3.273    0.000    2.909 
#    9.818    0.909    0.000    0.000    0.000    0.000 
#    0.000    0.000    0.000    0.000    0.000    0.000 
#
# Total GULP energy -122497.809828 kJ/mol
# GULP energy per Si atom -5568.082265 kJ/mol
# Density = 2.640175 g / cm^3
# Si number density = 26.461980 Si / 1000 Ang^3
#
#
#
# Elastic Constant Matrix: (Units=GPa)
#
#
# Indices 1 2 3 4 5 6 
#
# 1 84.2084 32.2015 28.9020 0.0000 5.2564 0.0000
# 2 32.2015 116.4562 57.7665 0.0000 1.8072 0.0000
# 3 28.9020 57.7665 196.5591 0.0000 -16.6663 0.0000
# 4 0.0000 0.0000 0.0000 23.6742 0.0000 1.9676
# 5 5.2564 1.8072 -16.6663 0.0000 51.5845 0.0000
# 6 0.0000 0.0000 0.0000 1.9676 0.0000 10.7267
#
#
#
# Elastic Compliance Matrix: (Units=1/GPa)
#
#
# Indices 1 2 3 4 5 6 
#
# 1 0.013595 -0.003127 -0.001222 0.000000 -0.001670 0.000000
# 2 -0.003127 0.010863 -0.002815 0.000000 -0.000971 0.000000
# 3 -0.001222 -0.002815 0.006286 0.000000 0.002254 0.000000
# 4 0.000000 0.000000 0.000000 0.042894 0.000000 -0.007868
# 5 -0.001670 -0.000971 0.002254 0.000000 0.020318 0.000000
# 6 0.000000 0.000000 0.000000 -0.007868 0.000000 0.094669
#
#
# Mechanical properties :
#
#
# Convention : Reuss Voigt Hill
#
# Bulk Modulus (GPa) = 60.91750 70.55152 65.73451
# Shear Modulus (GPa) = 23.98959 35.75399 29.87179
#
# Velocity S-wave (km/s) = 3.01419 3.67978 3.36349
# Velocity P-wave (km/s) = 5.93166 6.69132 6.32291
#
# Compressibility (1/GPa) = 0.01641565
#
# Stress axis : x y z
#
# Youngs Moduli (GPa) = 73.55815 92.05480 159.09464
#
# Poissons Ratio (x) = 0.28788 0.19434
# Poissons Ratio (y) = 0.23003 0.44786
# Poissons Ratio (z) = 0.08985 0.25914
#
# Static dielectric constant tensor:
#      x y z
#    x 2.437580 0.000000 0.319630 
#    y 0.000000 2.257270 0.000000 
#    z 0.319630 0.000000 2.286820 
# 
# From -- ./inp_files/26287.got.cif
#   From: 2010.05.17/outbox.cif.g08.bks.cpg/sg15_14_cif.got.tgz:26287.got - 2010.06.03 18:47:42.
