data_PCOD9276732
_publ_section_title
;
Structure prediction by ZEFSAII (Michael W. Deem and Ramdas Pophale) SiO2 
 PCOD9276732
Probable space group: C 2/C
;
_chemical_formula_sum "Si O2"
_cell_formula_units_Z 44
_cell_length_a 23.075713
_cell_length_b 8.578174
_cell_length_c 10.668651
_cell_angle_alpha 90.000000
_cell_angle_beta 90.734697
_cell_angle_gamma 90.000000
_cell_volume 2111.658976
_symmetry_space_group_name_H-M "C 2/C"
_symmetry_group_IT_number 15
_symmetry_cell_setting 'monoclinic'
loop_
_space_group_symop_operation_xyz
x,y,z
-x,y,1/2-z
-x,-y,-z
x,-y,1/2+z
1/2+x,1/2+y,z
1/2-x,1/2+y,1/2-z
1/2-x,1/2-y,-z
1/2+x,1/2-y,1/2+z
loop_
_atom_site_type_symbol
_atom_site_label
_atom_site_fract_x
_atom_site_fract_y
_atom_site_fract_z
Si Si1 0.711021 0.574814 0.908087
Si Si2 0.940613 0.557203 0.569380
Si Si3 0.500000 0.866409 0.750000
Si Si4 0.337629 0.858390 0.455897
Si Si5 0.456861 0.365644 0.456173
Si Si6 0.151734 0.040940 0.156981
O O1 0.779799 0.572256 0.892562
O O2 0.677458 0.497501 0.792577
O O3 0.687079 0.752532 0.927895
O O4 0.696663 0.503762 0.044522
O O5 0.885480 0.479907 0.500648
O O6 0.937958 0.744372 0.564281
O O7 0.000000 0.500000 0.500000
O O8 0.948165 0.479921 0.706019
O O9 0.512277 0.748636 0.639178
O O10 0.361892 0.723775 0.364917
O O11 0.500000 0.500000 0.500000
O O12 0.403997 0.442007 0.380989
#
# Coordination Sequence:
#
# PCOD9276732 Si02
#       6
#     8   8   4   8   8   8
#     4   9  21  40  67  91 126 175 215 272 330 393
#     4  10  21  41  59  95 121 172 210 266 331 392
#     4  10  22  42  64  86 134 170 214 270 334 396
#     4   9  20  42  64  85 134 172 213 269 336 388
#     4  11  24  39  65  95 131 171 220 273 337 399
#     4  10  20  40  64  94 123 167 220 263 331 392
#
# _framework density 20.8367
#
# number of rings (size 3 to 8) (size 9 to 14) (size 15 to 20)
#    1.091    1.091    0.000    3.273    2.545    2.182 
#   13.091    1.818    0.000    0.000    0.000    0.000 
#    0.000    0.000    0.000    0.000    0.000    0.000 
#
# Total GULP energy -122563.609663 kJ/mol
# GULP energy per Si atom -5571.073167 kJ/mol
# Density = 2.078927 g / cm^3
# Si number density = 20.836700 Si / 1000 Ang^3
#
#
#
# Elastic Constant Matrix: (Units=GPa)
#
#
# Indices 1 2 3 4 5 6 
#
# 1 69.2756 45.9558 13.8321 0.0000 28.8029 0.0000
# 2 45.9558 107.6795 40.6917 0.0000 23.8505 0.0000
# 3 13.8321 40.6917 78.0313 0.0000 9.9460 0.0000
# 4 0.0000 0.0000 0.0000 0.0146 0.0000 -19.6869
# 5 28.8029 23.8505 9.9460 0.0000 29.1246 0.0000
# 6 0.0000 0.0000 0.0000 -19.6869 0.0000 -24.0469
#
#
#
# Elastic Compliance Matrix: (Units=1/GPa)
#
#
# Indices 1 2 3 4 5 6 
#
# 1 0.028716 -0.008009 0.001955 0.000000 -0.022508 0.000000
# 2 -0.008009 0.015755 -0.006442 0.000000 -0.002782 0.000000
# 3 0.001955 -0.006442 0.016103 0.000000 -0.002157 0.000000
# 4 0.000000 0.000000 0.000000 0.061989 0.000000 -0.050749
# 5 -0.022508 -0.002782 -0.002157 0.000000 0.059609 0.000000
# 6 0.000000 0.000000 0.000000 -0.050749 0.000000 -0.000038
#
#
# Mechanical properties :
#
#
# Convention : Reuss Voigt Hill
#
# Bulk Modulus (GPa) = 28.10342 50.66064 39.38203
# Shear Modulus (GPa) = 22.83246 11.31892 17.07569
#
# Velocity S-wave (km/s) = 3.31385 2.33324 2.86580
# Velocity P-wave (km/s) = 5.30649 5.62358 5.46733
#
# Compressibility (1/GPa) = 0.03558286
#
# Stress axis : x y z
#
# Youngs Moduli (GPa) = 34.82426 63.47019 62.09995
#
# Poissons Ratio (x) = 0.50832 -0.12141
# Poissons Ratio (y) = 0.27890 0.40004
# Poissons Ratio (z) = -0.06808 0.40887
#
# Static dielectric constant tensor:
#      x y z
#    x 1.742990 0.000000 -0.068980 
#    y 0.000000 1.786400 0.000000 
#    z -0.068980 0.000000 1.882220 
# 
# From -- ./inp_files/116531.got.cif
#   From: 2010.05.17/outbox.cif.g08.bks.cpg/sg15_59_cif.got.tgz:116531.got - 2010.06.03 18:47:42.
