data_PCOD9276312
_publ_section_title
;
Structure prediction by ZEFSAII (Michael W. Deem and Ramdas Pophale) SiO2 
 PCOD9276312
Probable space group: C 2/C
;
_chemical_formula_sum "Si O2"
_cell_formula_units_Z 60
_cell_length_a 11.766718
_cell_length_b 22.580060
_cell_length_c 11.541780
_cell_angle_alpha 90.000000
_cell_angle_beta 114.387101
_cell_angle_gamma 90.000000
_cell_volume 2792.962547
_symmetry_space_group_name_H-M "C 2/C"
_symmetry_group_IT_number 15
_symmetry_cell_setting 'monoclinic'
loop_
_space_group_symop_operation_xyz
x,y,z
-x,y,1/2-z
-x,-y,-z
x,-y,1/2+z
1/2+x,1/2+y,z
1/2-x,1/2+y,1/2-z
1/2-x,1/2-y,-z
1/2+x,1/2-y,1/2+z
loop_
_atom_site_type_symbol
_atom_site_label
_atom_site_fract_x
_atom_site_fract_y
_atom_site_fract_z
Si Si1 0.210950 0.771181 0.823759
Si Si2 0.665605 0.894157 0.925492
Si Si3 0.606670 0.120148 0.128784
Si Si4 0.000000 0.973587 0.250000
Si Si5 0.582791 0.559861 0.553125
Si Si6 0.094977 0.190753 0.506072
Si Si7 0.242405 0.479551 0.541940
Si Si8 0.842036 0.208677 0.468388
O O1 0.315384 0.823049 0.880309
O O2 0.111954 0.783179 0.884228
O O3 0.171247 0.779019 0.674735
O O4 0.275490 0.708186 0.877653
O O5 0.541223 0.867628 0.931795
O O6 0.639371 0.896333 0.776191
O O7 0.791365 0.855881 0.982510
O O8 0.686743 0.956297 0.996474
O O9 0.653435 0.064976 0.071791
O O10 0.058065 0.931770 0.176864
O O11 0.120282 0.013307 0.338966
O O12 0.500000 0.500000 0.500000
O O13 0.558284 0.621691 0.479149
O O14 0.721000 0.543959 0.570287
O O15 0.988429 0.216468 0.545157
O O16 0.750000 0.250000 0.500000
#
# Coordination Sequence:
#
# PCOD9276312 Si02
#       8
#     8   8   8   4   8   8   8   8
#     4  10  23  40  63  91 121 166 208 255 314 382
#     4  10  22  37  60  88 119 156 208 256 308 373
#     4  10  20  40  60  85 119 159 207 252 306 373
#     4  10  22  34  54  88 128 152 206 256 316 382
#     4  10  21  37  57  89 123 162 202 255 315 372
#     4  11  22  41  64  90 127 162 209 259 316 381
#     4  11  20  36  57  86 120 165 201 252 312 374
#     4  11  23  40  63  92 120 160 207 261 316 372
#
# _framework density 21.482565000000001
#
# number of rings (size 3 to 8) (size 9 to 14) (size 15 to 20)
#    0.000    1.600    1.333    4.000    0.000    6.933 
#    0.000    0.000    0.000    0.000    0.000    0.000 
#    0.000    0.000    0.000    0.000    0.000    0.000 
#
# Total GULP energy -167201.129263 kJ/mol
# GULP energy per Si atom -5573.370975 kJ/mol
# Density = 2.143367 g / cm^3
# Si number density = 21.482565 Si / 1000 Ang^3
#
#
#
# Elastic Constant Matrix: (Units=GPa)
#
#
# Indices 1 2 3 4 5 6 
#
# 1 147.7865 28.5785 11.7846 0.0000 -26.9103 0.0000
# 2 28.5785 77.5229 -3.1393 0.0000 -2.5654 0.0000
# 3 11.7846 -3.1393 12.7629 0.0000 -10.7592 0.0000
# 4 0.0000 0.0000 0.0000 23.2985 0.0000 -5.2339
# 5 -26.9103 -2.5654 -10.7592 0.0000 33.2661 0.0000
# 6 0.0000 0.0000 0.0000 -5.2339 0.0000 30.5541
#
#
#
# Elastic Compliance Matrix: (Units=1/GPa)
#
#
# Indices 1 2 3 4 5 6 
#
# 1 0.008714 -0.003205 -0.004263 0.000000 0.005423 0.000000
# 2 -0.003205 0.014402 0.007221 0.000000 0.000853 0.000000
# 3 -0.004263 0.007221 0.112225 0.000000 0.033405 0.000000
# 4 0.000000 0.000000 0.000000 0.044639 0.000000 0.007647
# 5 0.005423 0.000853 0.033405 0.000000 0.045318 0.000000
# 6 0.000000 0.000000 0.000000 0.007647 0.000000 0.034039
#
#
# Mechanical properties :
#
#
# Convention : Reuss Voigt Hill
#
# Bulk Modulus (GPa) = 7.41582 34.72444 21.07013
# Shear Modulus (GPa) = 16.40541 30.81366 23.60954
#
# Velocity S-wave (km/s) = 2.76644 3.79140 3.31873
# Velocity P-wave (km/s) = 3.69645 5.94688 4.95122
#
# Compressibility (1/GPa) = 0.13484678
#
# Stress axis : x y z
#
# Youngs Moduli (GPa) = 114.76105 69.43605 8.91070
#
# Poissons Ratio (x) = 0.22257 0.03798
# Poissons Ratio (y) = 0.36786 -0.06435
# Poissons Ratio (z) = 0.48917 -0.50142
#
# Static dielectric constant tensor:
#      x y z
#    x 1.789480 0.000000 0.011670 
#    y 0.000000 1.864590 0.000000 
#    z 0.011670 0.000000 1.872840 
# 
# From -- ./inp_files/90876.got.cif
#   From: 2010.05.17/outbox.cif.g08.bks.cpg/sg15_46_cif.got.tgz:90876.got - 2010.06.03 18:47:42.
