data_PCOD9276241
_publ_section_title
;
Structure prediction by ZEFSAII (Michael W. Deem and Ramdas Pophale) SiO2 
 PCOD9276241
Probable space group: C 2/C
;
_chemical_formula_sum "Si O2"
_cell_formula_units_Z 60
_cell_length_a 32.979624
_cell_length_b 5.204285
_cell_length_c 17.767939
_cell_angle_alpha 90.000000
_cell_angle_beta 116.291066
_cell_angle_gamma 90.000000
_cell_volume 2734.141636
_symmetry_space_group_name_H-M "C 2/C"
_symmetry_group_IT_number 15
_symmetry_cell_setting 'monoclinic'
loop_
_space_group_symop_operation_xyz
x,y,z
-x,y,1/2-z
-x,-y,-z
x,-y,1/2+z
1/2+x,1/2+y,z
1/2-x,1/2+y,1/2-z
1/2-x,1/2-y,-z
1/2+x,1/2-y,1/2+z
loop_
_atom_site_type_symbol
_atom_site_label
_atom_site_fract_x
_atom_site_fract_y
_atom_site_fract_z
Si Si1 0.622522 0.314097 0.286153
Si Si2 0.500000 0.038392 0.250000
Si Si3 0.208209 0.024274 0.284248
Si Si4 0.400004 0.966425 0.880656
Si Si5 0.439398 0.617292 0.030902
Si Si6 0.958959 0.163979 0.341428
Si Si7 0.303793 0.023469 0.326914
Si Si8 0.415693 0.857631 0.596247
O O1 0.668791 0.472530 0.311798
O O2 0.619910 0.104517 0.217635
O O3 0.578106 0.483181 0.228981
O O4 0.619412 0.187084 0.365423
O O5 0.536289 0.202579 0.324011
O O6 0.473295 0.867204 0.288457
O O7 0.261327 0.997357 0.348505
O O8 0.202548 0.299808 0.240387
O O9 0.200250 0.804670 0.214110
O O10 0.355448 0.007409 0.894930
O O11 0.434064 0.192744 0.889769
O O12 0.427667 0.733283 0.939908
O O13 0.492722 0.571264 0.087145
O O14 0.412566 0.362137 0.031118
O O15 0.423086 0.854370 0.071763
#
# Coordination Sequence:
#
# PCOD9276241 Si02
#       8
#     8   4   8   8   8   8   8   8
#     4  11  21  36  65  86 113 148 206 241 281 338
#     4  10  20  40  56  82 112 154 198 242 284 326
#     4   9  18  32  56  87 111 140 183 246 291 330
#     4  11  23  38  58  87 115 152 195 236 285 346
#     4  11  27  38  56  81 125 158 186 232 293 340
#     4  11  21  37  58  84 117 149 195 238 281 339
#     4   9  18  34  54  83 118 141 179 240 300 332
#     4  11  23  41  56  82 115 158 193 236 285 340
#
# _framework density 21.944728000000001
#
# number of rings (size 3 to 8) (size 9 to 14) (size 15 to 20)
#    0.000    1.600    2.667    2.800    3.733    1.067 
#    0.000    0.000    0.000    1.600    0.000    0.000 
#    0.000    0.000    0.000    0.000    0.000    0.000 
#
# Total GULP energy -167446.249332 kJ/mol
# GULP energy per Si atom -5581.541644 kJ/mol
# Density = 2.189478 g / cm^3
# Si number density = 21.944728 Si / 1000 Ang^3
#
#
#
# Elastic Constant Matrix: (Units=GPa)
#
#
# Indices 1 2 3 4 5 6 
#
# 1 166.4236 33.6784 26.0487 -0.0001 5.8423 -0.0001
# 2 33.6784 74.2319 15.7727 0.0014 -3.0738 0.0008
# 3 26.0487 15.7727 49.7422 -0.0001 -12.7531 0.0000
# 4 -0.0001 0.0014 -0.0001 33.2847 0.0000 -2.8306
# 5 5.8423 -3.0738 -12.7531 0.0000 24.5160 -0.0001
# 6 -0.0001 0.0008 0.0000 -2.8306 -0.0001 24.9528
#
#
#
# Elastic Compliance Matrix: (Units=1/GPa)
#
#
# Indices 1 2 3 4 5 6 
#
# 1 0.007327 -0.002631 -0.004079 0.000000 -0.004198 0.000000
# 2 -0.002631 0.015399 -0.003287 -0.000001 0.000848 -0.000001
# 3 -0.004079 -0.003287 0.027031 0.000000 0.014621 0.000000
# 4 0.000000 -0.000001 0.000000 0.030336 0.000000 0.003441
# 5 -0.004198 0.000848 0.014621 0.000000 0.049502 0.000000
# 6 0.000000 -0.000001 0.000000 0.003441 0.000000 0.040466
#
#
# Mechanical properties :
#
#
# Convention : Reuss Voigt Hill
#
# Bulk Modulus (GPa) = 33.60097 49.04416 41.32257
# Shear Modulus (GPa) = 25.00292 30.87724 27.94008
#
# Velocity S-wave (km/s) = 3.37910 3.75513 3.57207
# Velocity P-wave (km/s) = 5.52895 6.41863 5.99033
#
# Compressibility (1/GPa) = 0.02976104
#
# Stress axis : x y z
#
# Youngs Moduli (GPa) = 136.48057 64.94039 36.99507
#
# Poissons Ratio (x) = 0.17088 0.15090
# Poissons Ratio (y) = 0.35913 0.12162
# Poissons Ratio (z) = 0.55668 0.21349
#
# Static dielectric constant tensor:
#      x y z
#    x 1.878550 0.000000 -0.014670 
#    y 0.000000 1.814190 0.000000 
#    z -0.014670 0.000000 1.842410 
# 
# From -- ./inp_files/223663.got.cif
#   From: 2010.05.17/outbox.cif.g08.bks.cpg/sg15_112_cif.got.tgz:223663.got - 2010.06.03 18:47:42.
