data_PCOD9276056
_publ_section_title
;
Structure prediction by ZEFSAII (Michael W. Deem and Ramdas Pophale) SiO2 
 PCOD9276056
Probable space group: C 2/C
;
_chemical_formula_sum "Si O2"
_cell_formula_units_Z 56
_cell_length_a 28.634940
_cell_length_b 10.292747
_cell_length_c 31.409862
_cell_angle_alpha 90.000000
_cell_angle_beta 17.066508
_cell_angle_gamma 90.000000
_cell_volume 2716.904905
_symmetry_space_group_name_H-M "C 2/C"
_symmetry_group_IT_number 15
_symmetry_cell_setting 'monoclinic'
loop_
_space_group_symop_operation_xyz
x,y,z
-x,y,1/2-z
-x,-y,-z
x,-y,1/2+z
1/2+x,1/2+y,z
1/2-x,1/2+y,1/2-z
1/2-x,1/2-y,-z
1/2+x,1/2-y,1/2+z
loop_
_atom_site_type_symbol
_atom_site_label
_atom_site_fract_x
_atom_site_fract_y
_atom_site_fract_z
Si Si1 0.767753 0.601992 0.126284
Si Si2 0.100987 0.056538 0.704271
Si Si3 0.356242 0.364421 0.082858
Si Si4 0.829119 0.234084 0.977390
Si Si5 0.262786 0.636052 0.123644
Si Si6 0.492739 0.869375 0.584959
Si Si7 0.205989 0.175615 0.271251
O O1 0.642301 0.560024 0.200055
O O2 0.823581 0.751186 0.076394
O O3 0.699204 0.590660 0.233919
O O4 0.916191 0.505150 0.995033
O O5 0.270542 0.125234 0.546287
O O6 0.000000 0.021736 0.750000
O O7 0.995044 0.164856 0.820704
O O8 0.326353 0.502210 0.088177
O O9 0.242660 0.320301 0.220881
O O10 0.537052 0.343119 0.940249
O O11 0.758151 0.139205 0.076231
O O12 0.750000 0.250000 0.000000
O O13 0.095912 0.654717 0.293031
O O14 0.380613 0.754417 0.032482
O O15 0.353390 0.863464 0.671632
#
# Coordination Sequence:
#
# PCOD9276056 Si02
#       7
#     8   8   8   8   8   8   8
#     4  10  23  41  63  94 131 177 213 272 325 400
#     4  10  20  39  67  94 126 166 214 272 333 390
#     4  10  24  41  64  90 137 174 219 265 331 387
#     4  10  21  38  63  95 125 163 211 272 332 380
#     4  12  25  41  65  99 128 171 221 280 321 395
#     4  12  25  39  67  95 133 171 232 266 328 389
#     4  10  23  42  63  91 134 182 216 266 324 390
#
# _framework density 20.611688000000001
#
# number of rings (size 3 to 8) (size 9 to 14) (size 15 to 20)
#    0.857    0.571    1.429    3.857    2.000    3.429 
#    0.000    0.000    0.000   12.000    0.000    0.000 
#    0.000    0.000    0.000    0.000    0.000    0.000 
#
# Total GULP energy -156059.861027 kJ/mol
# GULP energy per Si atom -5573.566465 kJ/mol
# Density = 2.056478 g / cm^3
# Si number density = 20.611688 Si / 1000 Ang^3
#
#
#
# Elastic Constant Matrix: (Units=GPa)
#
#
# Indices 1 2 3 4 5 6 
#
# 1 108.3202 11.0507 5.1537 -0.0072 -3.0349 0.0005
# 2 11.0507 54.0050 5.2928 0.0448 -13.2789 -0.0155
# 3 5.1537 5.2928 84.4709 -0.0697 -8.0672 -0.0254
# 4 -0.0072 0.0448 -0.0697 27.3430 -0.0119 -0.2768
# 5 -3.0349 -13.2789 -8.0672 -0.0119 33.2135 0.0035
# 6 0.0005 -0.0155 -0.0254 -0.2768 0.0035 19.2235
#
#
#
# Elastic Compliance Matrix: (Units=1/GPa)
#
#
# Indices 1 2 3 4 5 6 
#
# 1 0.009446 -0.001889 -0.000458 0.000004 -0.000003 -0.000002
# 2 -0.001889 0.020935 -0.000423 -0.000032 0.008094 0.000014
# 3 -0.000458 -0.000423 0.012155 0.000033 0.002741 0.000016
# 4 0.000004 -0.000032 0.000033 0.036578 0.000009 0.000527
# 5 -0.000003 0.008094 0.002741 0.000009 0.034010 0.000004
# 6 -0.000002 0.000014 0.000016 0.000527 0.000004 0.052027
#
#
# Mechanical properties :
#
#
# Convention : Reuss Voigt Hill
#
# Bulk Modulus (GPa) = 27.03077 32.19895 29.61486
# Shear Modulus (GPa) = 27.31880 30.97593 29.14737
#
# Velocity S-wave (km/s) = 3.64456 3.88084 3.76456
# Velocity P-wave (km/s) = 5.55456 5.97803 5.77018
#
# Compressibility (1/GPa) = 0.03699488
#
# Stress axis : x y z
#
# Youngs Moduli (GPa) = 105.86157 47.76664 82.27267
#
# Poissons Ratio (x) = 0.09022 0.03771
# Poissons Ratio (y) = 0.19996 0.03484
# Poissons Ratio (z) = 0.04852 0.02023
#
# Static dielectric constant tensor:
#      x y z
#    x 1.823280 0.000030 -0.009850 
#    y 0.000030 1.758410 0.000050 
#    z -0.009850 0.000050 1.789020 
# 
# From -- ./inp_files/319513.got.cif
#   From: 2010.05.17/outbox.cif.g08.bks.cpg/sg15_160_cif.got.tgz:319513.got - 2010.06.03 18:47:42.
