data_PCOD9276318
_publ_section_title
;
Structure prediction by ZEFSAII (Michael W. Deem and Ramdas Pophale) SiO2 
 PCOD9276318
Probable space group: C 2/C
;
_chemical_formula_sum "Si O2"
_cell_formula_units_Z 56
_cell_length_a 19.632580
_cell_length_b 9.219849
_cell_length_c 14.110830
_cell_angle_alpha 90.000000
_cell_angle_beta 73.090915
_cell_angle_gamma 90.000000
_cell_volume 2443.768982
_symmetry_space_group_name_H-M "C 2/C"
_symmetry_group_IT_number 15
_symmetry_cell_setting 'monoclinic'
loop_
_space_group_symop_operation_xyz
x,y,z
-x,y,1/2-z
-x,-y,-z
x,-y,1/2+z
1/2+x,1/2+y,z
1/2-x,1/2+y,1/2-z
1/2-x,1/2-y,-z
1/2+x,1/2-y,1/2+z
loop_
_atom_site_type_symbol
_atom_site_label
_atom_site_fract_x
_atom_site_fract_y
_atom_site_fract_z
Si Si1 0.334723 0.397852 0.078692
Si Si2 0.282192 0.902228 0.232166
Si Si3 0.500000 0.262277 0.250000
Si Si4 0.518852 0.657757 0.950570
Si Si5 0.906053 0.186208 0.125645
Si Si6 0.243005 0.578457 0.971783
Si Si7 0.500000 0.787351 0.250000
Si Si8 0.117972 0.527053 0.157818
O O1 0.274833 0.335323 0.171799
O O2 0.404194 0.298158 0.039486
O O3 0.367827 0.535016 0.121457
O O4 0.299536 0.472492 0.001340
O O5 0.343090 0.791202 0.178805
O O6 0.324048 0.019184 0.279837
O O7 0.249598 0.942717 0.143782
O O8 0.480962 0.344147 0.161923
O O9 0.567764 0.163820 0.195743
O O10 0.500000 0.500000 0.000000
O O11 0.451121 0.745124 0.017461
O O12 0.963902 0.190230 0.184988
O O13 0.166070 0.532403 0.044525
O O14 0.250000 0.750000 0.000000
O O15 0.563216 0.891711 0.185599
#
# Coordination Sequence:
#
# PCOD9276318 Si02
#       8
#     8   8   4   8   8   8   4   8
#     4  10  23  36  57  97 121 155 217 248 301 374
#     4  10  21  38  63  87 125 158 207 258 295 370
#     4  11  22  39  66  84 126 157 202 265 300 366
#     4  10  24  38  58  91 123 159 209 245 307 371
#     4  10  20  40  60  86 124 168 199 251 316 358
#     4  11  21  37  64  83 122 166 200 248 310 358
#     4   9  20  39  62  82 130 157 196 263 308 370
#     4   9  22  39  59  98 111 159 215 246 312 368
#
# _framework density 22.915424999999999
#
# number of rings (size 3 to 8) (size 9 to 14) (size 15 to 20)
#    0.000    2.000    1.429    0.857    4.000    4.571 
#    0.000    4.286    0.000    6.000    0.000    0.000 
#    0.000    0.000    0.000    0.000    0.000    0.000 
#
# Total GULP energy -156319.109413 kJ/mol
# GULP energy per Si atom -5582.825336 kJ/mol
# Density = 2.286327 g / cm^3
# Si number density = 22.915425 Si / 1000 Ang^3
#
#
#
# Elastic Constant Matrix: (Units=GPa)
#
#
# Indices 1 2 3 4 5 6 
#
# 1 101.8282 6.5758 19.2703 0.0000 -7.1045 0.0000
# 2 6.5758 21.9203 -1.2682 0.0000 2.5582 0.0000
# 3 19.2703 -1.2682 58.5610 0.0000 4.2443 0.0000
# 4 0.0000 0.0000 0.0000 22.9637 0.0000 4.9528
# 5 -7.1045 2.5582 4.2443 0.0000 53.1708 0.0000
# 6 0.0000 0.0000 0.0000 4.9528 0.0000 17.0196
#
#
#
# Elastic Compliance Matrix: (Units=1/GPa)
#
#
# Indices 1 2 3 4 5 6 
#
# 1 0.010918 -0.003723 -0.003814 0.000000 0.001942 0.000000
# 2 -0.003723 0.047225 0.002463 0.000000 -0.002966 0.000000
# 3 -0.003814 0.002463 0.018537 0.000000 -0.002108 0.000000
# 4 0.000000 0.000000 0.000000 0.046463 0.000000 -0.013521
# 5 0.001942 -0.002966 -0.002108 0.000000 0.019378 0.000000
# 6 0.000000 0.000000 0.000000 -0.013521 0.000000 0.062691
#
#
# Mechanical properties :
#
#
# Convention : Reuss Voigt Hill
#
# Bulk Modulus (GPa) = 15.03025 25.71837 20.37431
# Shear Modulus (GPa) = 21.04922 29.14624 25.09773
#
# Velocity S-wave (km/s) = 3.03407 3.57025 3.31302
# Velocity P-wave (km/s) = 4.34135 5.31442 4.85234
#
# Compressibility (1/GPa) = 0.06653250
#
# Stress axis : x y z
#
# Youngs Moduli (GPa) = 91.59027 21.17510 53.94500
#
# Poissons Ratio (x) = 0.07883 0.20576
# Poissons Ratio (y) = 0.34096 -0.13285
# Poissons Ratio (z) = 0.34934 -0.05215
#
# Static dielectric constant tensor:
#      x y z
#    x 1.937910 0.000000 -0.047210 
#    y 0.000000 1.918770 0.000000 
#    z -0.047210 0.000000 1.916980 
# 
# From -- ./inp_files/111145.got.cif
#   From: 2010.05.17/outbox.cif.g08.bks.cpg/sg15_56_cif.got.tgz:111145.got - 2010.06.03 18:47:42.
