data_PCOD9276697
_publ_section_title
;
Structure prediction by ZEFSAII (Michael W. Deem and Ramdas Pophale) SiO2 
 PCOD9276697
Probable space group: C 2/C
;
_chemical_formula_sum "Si O2"
_cell_formula_units_Z 44
_cell_length_a 16.759226
_cell_length_b 7.124918
_cell_length_c 19.847193
_cell_angle_alpha 90.000000
_cell_angle_beta 51.277828
_cell_angle_gamma 90.000000
_cell_volume 1848.980826
_symmetry_space_group_name_H-M "C 2/C"
_symmetry_group_IT_number 15
_symmetry_cell_setting 'monoclinic'
loop_
_space_group_symop_operation_xyz
x,y,z
-x,y,1/2-z
-x,-y,-z
x,-y,1/2+z
1/2+x,1/2+y,z
1/2-x,1/2+y,1/2-z
1/2-x,1/2-y,-z
1/2+x,1/2-y,1/2+z
loop_
_atom_site_type_symbol
_atom_site_label
_atom_site_fract_x
_atom_site_fract_y
_atom_site_fract_z
Si Si1 0.354352 0.441350 0.218559
Si Si2 0.840521 0.810547 0.369771
Si Si3 0.500000 0.018994 0.250000
Si Si4 0.509251 0.714882 0.448908
Si Si5 0.147510 0.936485 0.986214
Si Si6 0.383452 0.995602 0.686979
O O1 0.360485 0.448752 0.296812
O O2 0.424377 0.585020 0.139537
O O3 0.235201 0.456793 0.261671
O O4 0.386188 0.227999 0.187420
O O5 0.929704 0.658669 0.330134
O O6 0.834654 0.914635 0.443768
O O7 0.743885 0.675434 0.404707
O O8 0.573781 0.922636 0.264544
O O9 0.390875 0.650098 0.506871
O O10 0.554773 0.669589 0.497829
O O11 0.542209 0.919443 0.408335
#
# Coordination Sequence:
#
# PCOD9276697 Si02
#       6
#     8   8   4   8   8   8
#     4  11  21  40  68  91 125 166 220 258 306 371
#     4  10  20  40  64  91 126 175 207 259 317 376
#     4  10  22  38  62  96 126 156 222 266 298 372
#     4  11  22  40  63  96 126 168 209 264 314 377
#     4  10  21  38  64  89 133 169 206 253 330 377
#     4  11  21  38  62  93 120 162 210 264 306 365
#
# _framework density 23.796893000000001
#
# number of rings (size 3 to 8) (size 9 to 14) (size 15 to 20)
#    0.000    1.455    3.636    3.273    0.000    1.455 
#    0.000    9.091    0.000    0.000    0.000    0.000 
#    0.000    0.000    0.000    0.000    0.000    0.000 
#
# Total GULP energy -122805.717374 kJ/mol
# GULP energy per Si atom -5582.078062 kJ/mol
# Density = 2.374273 g / cm^3
# Si number density = 23.796893 Si / 1000 Ang^3
#
#
#
# Elastic Constant Matrix: (Units=GPa)
#
#
# Indices 1 2 3 4 5 6 
#
# 1 117.5706 15.8035 22.2523 0.0002 6.0641 0.0008
# 2 15.8035 53.6557 8.6484 0.0003 -1.6195 0.0017
# 3 22.2523 8.6484 70.2423 -0.0001 14.2498 0.0001
# 4 0.0002 0.0003 -0.0001 29.2536 0.0000 -18.2169
# 5 6.0641 -1.6195 14.2498 0.0000 40.1172 0.0001
# 6 0.0008 0.0017 0.0001 -18.2169 0.0001 13.3991
#
#
#
# Elastic Compliance Matrix: (Units=1/GPa)
#
#
# Indices 1 2 3 4 5 6 
#
# 1 0.009335 -0.002358 -0.002545 -0.000001 -0.000602 -0.000002
# 2 -0.002358 0.019721 -0.002064 -0.000011 0.001886 -0.000018
# 3 -0.002545 -0.002064 0.016419 0.000002 -0.005531 0.000003
# 4 -0.000001 -0.000011 0.000002 0.222882 -0.000001 0.303021
# 5 -0.000602 0.001886 -0.005531 -0.000001 0.027059 -0.000002
# 6 -0.000002 -0.000018 0.000003 0.303021 -0.000002 0.486607
#
#
# Mechanical properties :
#
#
# Convention : Reuss Voigt Hill
#
# Bulk Modulus (GPa) = 31.70300 37.20858 34.45579
# Shear Modulus (GPa) = 6.19986 29.53828 17.86907
#
# Velocity S-wave (km/s) = 1.61585 3.52698 2.74323
# Velocity P-wave (km/s) = 4.10275 5.67944 4.95422
#
# Compressibility (1/GPa) = 0.03154276
#
# Stress axis : x y z
#
# Youngs Moduli (GPa) = 107.12211 50.70658 60.90613
#
# Poissons Ratio (x) = 0.11954 0.15500
# Poissons Ratio (y) = 0.25254 0.12570
# Poissons Ratio (z) = 0.27261 0.10465
#
# Static dielectric constant tensor:
#      x y z
#    x 1.949000 0.000000 -0.019510 
#    y 0.000000 1.944000 0.000000 
#    z -0.019510 0.000000 1.990960 
# 
# From -- ./inp_files/202930.got.cif
#   From: 2010.05.17/outbox.cif.g08.bks.cpg/sg15_102_cif.got.tgz:202930.got - 2010.06.03 18:47:42.
