data_PCOD9276246
_publ_section_title
;
Structure prediction by ZEFSAII (Michael W. Deem and Ramdas Pophale) SiO2 
 PCOD9276246
Probable space group: C 2/C
;
_chemical_formula_sum "Si O2"
_cell_formula_units_Z 60
_cell_length_a 29.447163
_cell_length_b 14.291203
_cell_length_c 25.161268
_cell_angle_alpha 90.000000
_cell_angle_beta 162.213602
_cell_angle_gamma 90.000000
_cell_volume 3234.538215
_symmetry_space_group_name_H-M "C 2/C"
_symmetry_group_IT_number 15
_symmetry_cell_setting 'monoclinic'
loop_
_space_group_symop_operation_xyz
x,y,z
-x,y,1/2-z
-x,-y,-z
x,-y,1/2+z
1/2+x,1/2+y,z
1/2-x,1/2+y,1/2-z
1/2-x,1/2-y,-z
1/2+x,1/2-y,1/2+z
loop_
_atom_site_type_symbol
_atom_site_label
_atom_site_fract_x
_atom_site_fract_y
_atom_site_fract_z
Si Si1 0.910068 0.763502 0.911444
Si Si2 0.648509 0.426342 0.296772
Si Si3 0.202357 0.937038 0.576033
Si Si4 0.154079 0.033984 0.198365
Si Si5 0.846596 0.444298 0.326350
Si Si6 0.721200 0.740069 0.798977
Si Si7 0.725757 0.882284 0.949972
Si Si8 0.000000 0.260212 0.750000
O O1 0.833017 0.856650 0.802864
O O2 0.869669 0.664777 0.841084
O O3 0.867234 0.747896 0.925590
O O4 0.086607 0.777589 0.107963
O O5 0.660457 0.511377 0.267971
O O6 0.706398 0.337200 0.327722
O O7 0.735668 0.425068 0.449466
O O8 0.473958 0.418634 0.116776
O O9 0.290896 0.842927 0.690073
O O10 0.258391 0.957219 0.579091
O O11 0.244370 0.012641 0.666593
O O12 0.273009 0.969530 0.300764
O O13 0.000000 0.000000 0.000000
O O14 0.000000 0.500000 0.500000
O O15 0.857510 0.807093 0.082275
O O16 0.569011 0.827787 0.781400
#
# Coordination Sequence:
#
# PCOD9276246 Si02
#       8
#     8   8   8   8   8   8   8   4
#     4  12  22  37  56  88 116 152 196 244 298 354
#     4  12  23  37  60  84 120 165 199 240 292 366
#     4  12  23  38  57  86 124 157 200 245 294 356
#     4  12  21  40  58  82 116 161 197 237 304 357
#     4  12  23  38  58  88 119 154 197 255 302 348
#     4  12  20  33  58  80 117 157 186 235 295 356
#     4  11  24  38  57  87 122 164 203 243 297 359
#     4  10  20  40  56  84 128 154 202 240 296 362
#
# _framework density 18.549787999999999
#
# number of rings (size 3 to 8) (size 9 to 14) (size 15 to 20)
#    0.000    0.267    9.333    1.600    0.000    2.133 
#    0.000    0.000    0.000    0.800    0.000    0.000 
#    0.000    0.000    0.000    0.000    0.000    0.000 
#
# Total GULP energy -167465.054540 kJ/mol
# GULP energy per Si atom -5582.168485 kJ/mol
# Density = 1.850757 g / cm^3
# Si number density = 18.549788 Si / 1000 Ang^3
#
#
#
# Elastic Constant Matrix: (Units=GPa)
#
#
# Indices 1 2 3 4 5 6 
#
# 1 112.6976 26.7465 14.3247 -0.0060 -0.5001 -0.0029
# 2 26.7465 101.1932 4.1356 -0.0213 -7.8731 -0.0175
# 3 14.3247 4.1356 45.1251 -0.0074 13.6487 -0.0062
# 4 -0.0060 -0.0213 -0.0074 15.8012 -0.0060 3.7824
# 5 -0.5001 -7.8731 13.6487 -0.0060 38.6340 -0.0047
# 6 -0.0029 -0.0175 -0.0062 3.7824 -0.0047 21.9679
#
#
#
# Elastic Compliance Matrix: (Units=1/GPa)
#
#
# Indices 1 2 3 4 5 6 
#
# 1 0.009848 -0.002417 -0.003128 0.000000 0.000740 -0.000001
# 2 -0.002417 0.010756 -0.000976 0.000013 0.002505 0.000006
# 3 -0.003128 -0.000976 0.026105 0.000005 -0.009462 0.000003
# 4 0.000000 0.000013 0.000005 0.066007 0.000009 -0.011365
# 5 0.000740 0.002505 -0.009462 0.000009 0.029747 0.000004
# 6 -0.000001 0.000006 0.000003 -0.011365 0.000004 0.047478
#
#
# Mechanical properties :
#
#
# Convention : Reuss Voigt Hill
#
# Bulk Modulus (GPa) = 29.70470 38.82550 34.26510
# Shear Modulus (GPa) = 23.34200 29.53455 26.43828
#
# Velocity S-wave (km/s) = 3.55116 3.99454 3.77936
# Velocity P-wave (km/s) = 5.73259 6.50008 6.12836
#
# Compressibility (1/GPa) = 0.03366471
#
# Stress axis : x y z
#
# Youngs Moduli (GPa) = 101.54371 92.97230 38.30678
#
# Poissons Ratio (x) = 0.22476 0.11984
# Poissons Ratio (y) = 0.24548 0.03739
# Poissons Ratio (z) = 0.31767 0.09076
#
# Static dielectric constant tensor:
#      x y z
#    x 1.691410 0.000000 -0.004050 
#    y 0.000000 1.650010 0.000000 
#    z -0.004050 0.000000 1.675280 
# 
# From -- ./inp_files/61573.got.cif
#   From: 2010.05.17/outbox.cif.g08.bks.cpg/sg15_31_cif.got.tgz:61573.got - 2010.06.03 18:47:42.
