data_PCOD9276276
_publ_section_title
;
Structure prediction by ZEFSAII (Michael W. Deem and Ramdas Pophale) SiO2 
 PCOD9276276
Probable space group: C 2/C
;
_chemical_formula_sum "Si O2"
_cell_formula_units_Z 64
_cell_length_a 8.150515
_cell_length_b 22.477475
_cell_length_c 16.018466
_cell_angle_alpha 90.000000
_cell_angle_beta 95.410372
_cell_angle_gamma 90.000000
_cell_volume 2921.556942
_symmetry_space_group_name_H-M "C 2/C"
_symmetry_group_IT_number 15
_symmetry_cell_setting 'monoclinic'
loop_
_space_group_symop_operation_xyz
x,y,z
-x,y,1/2-z
-x,-y,-z
x,-y,1/2+z
1/2+x,1/2+y,z
1/2-x,1/2+y,1/2-z
1/2-x,1/2-y,-z
1/2+x,1/2-y,1/2+z
loop_
_atom_site_type_symbol
_atom_site_label
_atom_site_fract_x
_atom_site_fract_y
_atom_site_fract_z
Si Si1 0.320600 0.447349 0.781709
Si Si2 0.330500 0.258386 0.913061
Si Si3 0.336620 0.461805 0.977566
Si Si4 0.201786 0.184094 0.256298
Si Si5 0.694973 0.878816 0.101354
Si Si6 0.807045 0.804154 0.559609
Si Si7 0.171489 0.417815 0.455848
Si Si8 0.809023 0.574773 0.730034
O O1 0.500000 0.458359 0.750000
O O2 0.334738 0.441254 0.881918
O O3 0.256251 0.385488 0.743498
O O4 0.208861 0.504172 0.759673
O O5 0.240472 0.285939 0.827223
O O6 0.357581 0.189492 0.892809
O O7 0.495191 0.297630 0.929946
O O8 0.250000 0.250000 0.000000
O O9 0.203881 0.514588 0.985124
O O10 0.500000 0.500000 0.000000
O O11 0.313897 0.405103 0.035815
O O12 0.256861 0.207105 0.349127
O O13 0.000000 0.189048 0.250000
O O14 0.522042 0.909611 0.068829
O O15 0.774019 0.896438 0.193697
O O16 0.750000 0.750000 0.500000
O O17 0.743865 0.867159 0.520248
O O18 0.248702 0.410371 0.366011
O O19 0.000000 0.592565 0.750000
#
# Coordination Sequence:
#
# PCOD9276276 Si02
#       8
#     8   8   8   8   8   8   8   8
#     4  10  20  40  58  89 124 159 212 255 322 383
#     4  11  24  42  65  93 127 167 217 265 323 381
#     4  11  24  37  65  96 126 164 210 270 326 380
#     4   9  22  38  66  89 120 171 214 258 310 393
#     4  11  22  40  65  89 128 167 210 262 322 387
#     4  11  23  42  67  92 125 172 218 263 318 387
#     4  10  23  40  63  93 127 164 214 260 319 389
#     4   9  21  38  61  90 121 163 206 261 314 383
#
# _framework density 21.906127999999999
#
# number of rings (size 3 to 8) (size 9 to 14) (size 15 to 20)
#    0.000    1.750    1.250    1.875   10.500    1.500 
#    0.000    0.625    0.000    0.000    0.000    0.000 
#    0.000    0.000    0.000    0.000    0.000    0.000 
#
# Total GULP energy -178536.192017 kJ/mol
# GULP energy per Si atom -5579.256001 kJ/mol
# Density = 2.185627 g / cm^3
# Si number density = 21.906128 Si / 1000 Ang^3
#
#
#
# Elastic Constant Matrix: (Units=GPa)
#
#
# Indices 1 2 3 4 5 6 
#
# 1 23.8227 3.9873 13.5457 0.0000 -4.5045 0.0000
# 2 3.9873 64.3120 39.3533 0.0000 3.1141 0.0000
# 3 13.5457 39.3533 148.7647 0.0000 -6.3757 0.0000
# 4 0.0000 0.0000 0.0000 35.9902 0.0000 -20.1629
# 5 -4.5045 3.1141 -6.3757 0.0000 24.6936 0.0000
# 6 0.0000 0.0000 0.0000 -20.1629 0.0000 -92.3294
#
#
#
# Elastic Compliance Matrix: (Units=1/GPa)
#
#
# Indices 1 2 3 4 5 6 
#
# 1 0.045594 -0.001012 -0.003561 0.000000 0.007525 0.000000
# 2 -0.001012 0.018905 -0.005075 0.000000 -0.003879 0.000000
# 3 -0.003561 -0.005075 0.008482 0.000000 0.002180 0.000000
# 4 0.000000 0.000000 0.000000 0.024757 0.000000 -0.005406
# 5 0.007525 -0.003879 0.002180 0.000000 0.042921 0.000000
# 6 0.000000 0.000000 0.000000 -0.005406 0.000000 -0.009650
#
#
# Mechanical properties :
#
#
# Convention : Reuss Voigt Hill
#
# Bulk Modulus (GPa) = 18.62728 38.96356 28.79542
# Shear Modulus (GPa) = 29.72630 5.67175 17.69902
#
# Velocity S-wave (km/s) = 3.68772 1.61082 2.84553
# Velocity P-wave (km/s) = 5.16276 4.61355 4.89586
#
# Compressibility (1/GPa) = 0.05368470
#
# Stress axis : x y z
#
# Youngs Moduli (GPa) = 21.93266 52.89512 117.89242
#
# Poissons Ratio (x) = 0.05353 0.41986
# Poissons Ratio (y) = 0.02220 0.59833
# Poissons Ratio (z) = 0.07811 0.26845
#
# Static dielectric constant tensor:
#      x y z
#    x 1.877990 0.000000 -0.036910 
#    y 0.000000 -0.965290 0.000000 
#    z -0.036910 0.000000 1.876470 
# 
# From -- ./inp_files/137823.got.cif
#   From: 2010.05.17/outbox.cif.g08.bks.cpg/sg15_69_cif.got.tgz:137823.got - 2010.06.03 18:47:42.
