data_PCOD9276296
_publ_section_title
;
Structure prediction by ZEFSAII (Michael W. Deem and Ramdas Pophale) SiO2 
 PCOD9276296
Probable space group: C 2/C
;
_chemical_formula_sum "Si O2"
_cell_formula_units_Z 52
_cell_length_a 13.578258
_cell_length_b 27.114317
_cell_length_c 13.668758
_cell_angle_alpha 90.000000
_cell_angle_beta 149.537459
_cell_angle_gamma 90.000000
_cell_volume 2551.280851
_symmetry_space_group_name_H-M "C 2/C"
_symmetry_group_IT_number 15
_symmetry_cell_setting 'monoclinic'
loop_
_space_group_symop_operation_xyz
x,y,z
-x,y,1/2-z
-x,-y,-z
x,-y,1/2+z
1/2+x,1/2+y,z
1/2-x,1/2+y,1/2-z
1/2-x,1/2-y,-z
1/2+x,1/2-y,1/2+z
loop_
_atom_site_type_symbol
_atom_site_label
_atom_site_fract_x
_atom_site_fract_y
_atom_site_fract_z
Si Si1 0.330494 0.018554 0.681687
Si Si2 0.000000 0.365905 0.750000
Si Si3 0.324926 0.417299 0.897757
Si Si4 0.209018 0.202927 0.895217
Si Si5 0.190204 0.120831 0.477428
Si Si6 0.935712 0.594575 0.508028
Si Si7 0.808777 0.845973 0.308531
O O1 0.500000 0.002987 0.750000
O O2 0.209603 0.065158 0.536933
O O3 0.459917 0.042714 0.878584
O O4 0.183892 0.975297 0.584920
O O5 0.162216 0.395868 0.831086
O O6 0.883274 0.332289 0.574376
O O7 0.241444 0.411271 0.716951
O O8 0.518982 0.384599 0.071698
O O9 0.186859 0.202277 0.757705
O O10 0.000000 0.183127 0.750000
O O11 0.250000 0.250000 0.000000
O O12 0.364292 0.120121 0.547385
O O13 0.188149 0.156690 0.570147
O O14 0.000000 0.128010 0.250000
O O15 0.105431 0.627985 0.611423
#
# Coordination Sequence:
#
# PCOD9276296 Si02
#       7
#     8   4   8   8   8   8   8
#     4   9  20  35  51  83 130 181 217 270 309 346
#     4  12  24  40  62  94 126 164 208 260 314 388
#     4  12  21  37  60  88 129 170 222 262 316 368
#     4  12  25  44  67  95 125 158 198 257 335 411
#     4  10  20  40  59  88 128 173 226 261 308 358
#     4  10  21  38  59  86 129 172 224 266 307 360
#     4  11  23  38  64  94 118 165 219 260 325 383
#
# _framework density 20.381920000000001
#
# number of rings (size 3 to 8) (size 9 to 14) (size 15 to 20)
#    0.000    1.231    6.154    1.846    0.000    2.462 
#    8.308    0.000    0.000    0.000    0.000   15.077 
#    0.000    0.000    0.000    0.000    0.000    0.000 
#
# Total GULP energy -144841.026581 kJ/mol
# GULP energy per Si atom -5570.808715 kJ/mol
# Density = 2.033553 g / cm^3
# Si number density = 20.381920 Si / 1000 Ang^3
#
#
#
# Elastic Constant Matrix: (Units=GPa)
#
#
# Indices 1 2 3 4 5 6 
#
# 1 115.8064 40.0877 34.6530 0.0000 -14.7668 0.0000
# 2 40.0877 47.8571 29.7725 0.0000 -14.9133 0.0000
# 3 34.6530 29.7725 104.0966 0.0000 -15.9274 0.0000
# 4 0.0000 0.0000 0.0000 15.4462 0.0000 -5.9011
# 5 -14.7668 -14.9133 -15.9274 0.0000 45.9262 0.0000
# 6 0.0000 0.0000 0.0000 -5.9011 0.0000 18.8481
#
#
#
# Elastic Compliance Matrix: (Units=1/GPa)
#
#
# Indices 1 2 3 4 5 6 
#
# 1 0.012335 -0.009341 -0.001365 0.000000 0.000460 0.000000
# 2 -0.009341 0.034192 -0.005735 0.000000 0.006111 0.000000
# 3 -0.001365 -0.005735 0.011985 0.000000 0.001855 0.000000
# 4 0.000000 0.000000 0.000000 0.073537 0.000000 0.023024
# 5 0.000460 0.006111 0.001855 0.000000 0.024550 0.000000
# 6 0.000000 0.000000 0.000000 0.023024 0.000000 0.060264
#
#
# Mechanical properties :
#
#
# Convention : Reuss Voigt Hill
#
# Bulk Modulus (GPa) = 39.01351 52.97628 45.99490
# Shear Modulus (GPa) = 19.35835 26.92722 23.14279
#
# Velocity S-wave (km/s) = 3.08519 3.63868 3.37331
# Velocity P-wave (km/s) = 5.64571 6.61072 6.14718
#
# Compressibility (1/GPa) = 0.02563214
#
# Stress axis : x y z
#
# Youngs Moduli (GPa) = 81.06738 29.24694 83.43934
#
# Poissons Ratio (x) = 0.27318 0.11385
# Poissons Ratio (y) = 0.75722 0.47850
# Poissons Ratio (z) = 0.11062 0.16772
#
# Static dielectric constant tensor:
#      x y z
#    x 1.785540 0.000000 -0.023150 
#    y 0.000000 1.742760 0.000000 
#    z -0.023150 0.000000 1.711770 
# 
# From -- ./inp_files/92659.got.cif
#   From: 2010.05.17/outbox.cif.g08.bks.cpg/sg15_47_cif.got.tgz:92659.got - 2010.06.03 18:47:42.
