data_PCOD9276075
_publ_section_title
;
Structure prediction by ZEFSAII (Michael W. Deem and Ramdas Pophale) SiO2 
 PCOD9276075
Probable space group: C 2/C
;
_chemical_formula_sum "Si O2"
_cell_formula_units_Z 40
_cell_length_a 19.939443
_cell_length_b 10.093200
_cell_length_c 7.596456
_cell_angle_alpha 90.000000
_cell_angle_beta 112.700975
_cell_angle_gamma 90.000000
_cell_volume 1410.373511
_symmetry_space_group_name_H-M "C 2/C"
_symmetry_group_IT_number 15
_symmetry_cell_setting 'monoclinic'
loop_
_space_group_symop_operation_xyz
x,y,z
-x,y,1/2-z
-x,-y,-z
x,-y,1/2+z
1/2+x,1/2+y,z
1/2-x,1/2+y,1/2-z
1/2-x,1/2-y,-z
1/2+x,1/2-y,1/2+z
loop_
_atom_site_type_symbol
_atom_site_label
_atom_site_fract_x
_atom_site_fract_y
_atom_site_fract_z
Si Si1 0.031683 0.312045 0.085211
Si Si2 0.918034 0.090675 0.599385
Si Si3 0.181608 0.099998 0.689406
Si Si4 0.387564 0.090713 0.315248
Si Si5 0.215056 0.418841 0.496969
O O1 0.081934 0.441097 0.119098
O O2 0.000000 0.305992 0.250000
O O3 0.073905 0.185552 0.060109
O O4 0.963612 0.334051 0.884255
O O5 0.860815 0.155353 0.682133
O O6 0.000000 0.067143 0.750000
O O7 0.882510 0.954322 0.499035
O O8 0.248303 0.150642 0.634144
O O9 0.221648 0.970514 0.812903
O O10 0.326090 0.053585 0.112131
O O11 0.345919 0.148306 0.443555
#
# Coordination Sequence:
#
# PCOD9276075 Si02
#       5
#     8   8   8   8   8
#     4  11  24  38  62 105 140 169 222 270 330 409
#     4  11  24  41  69  95 130 170 230 281 331 384
#     4   9  21  43  65  94 121 179 223 271 330 383
#     4  10  20  39  67  97 137 178 208 271 340 388
#     4   9  18  38  73  88 129 178 213 267 336 392
#
# _framework density 28.361281999999999
#
# number of rings (size 3 to 8) (size 9 to 14) (size 15 to 20)
#    0.000    2.000    2.000    0.600    2.800    4.000 
#    0.000   10.000    0.000    0.000    0.000    0.000 
#    0.000    0.000    0.000    0.000    0.000    0.000 
#
# Total GULP energy -111911.962421 kJ/mol
# GULP energy per Si atom -5595.598121 kJ/mol
# Density = 2.829673 g / cm^3
# Si number density = 28.361282 Si / 1000 Ang^3
#
#
#
# Elastic Constant Matrix: (Units=GPa)
#
#
# Indices 1 2 3 4 5 6 
#
# 1 243.7847 28.6401 70.5989 0.0000 -53.3755 0.0000
# 2 28.6401 29.4665 12.9294 0.0000 -6.9944 0.0000
# 3 70.5989 12.9294 88.3774 0.0000 10.6419 0.0000
# 4 0.0000 0.0000 0.0000 17.5388 0.0000 17.0552
# 5 -53.3755 -6.9944 10.6419 0.0000 78.5624 0.0000
# 6 0.0000 0.0000 0.0000 17.0552 0.0000 64.2440
#
#
#
# Elastic Compliance Matrix: (Units=1/GPa)
#
#
# Indices 1 2 3 4 5 6 
#
# 1 0.007524 -0.003239 -0.006219 0.000000 0.005666 0.000000
# 2 -0.003239 0.038948 -0.003317 0.000000 0.001716 0.000000
# 3 -0.006219 -0.003317 0.017599 0.000000 -0.006904 0.000000
# 4 0.000000 0.000000 0.000000 0.076858 0.000000 -0.020404
# 5 0.005666 0.001716 -0.006904 0.000000 0.017666 0.000000
# 6 0.000000 0.000000 0.000000 -0.020404 0.000000 0.020982
#
#
# Mechanical properties :
#
#
# Convention : Reuss Voigt Hill
#
# Bulk Modulus (GPa) = 25.95949 65.10727 45.53338
# Shear Modulus (GPa) = 22.93911 48.69970 35.81941
#
# Velocity S-wave (km/s) = 2.84706 4.14831 3.55768
# Velocity P-wave (km/s) = 4.46997 6.77871 5.74158
#
# Compressibility (1/GPa) = 0.03852155
#
# Stress axis : x y z
#
# Youngs Moduli (GPa) = 132.90879 25.67514 56.81993
#
# Poissons Ratio (x) = 0.08317 0.35335
# Poissons Ratio (y) = 0.43055 0.18847
# Poissons Ratio (z) = 0.82652 0.08516
#
# Static dielectric constant tensor:
#      x y z
#    x 2.119360 0.000000 -0.068420 
#    y 0.000000 2.318090 0.000000 
#    z -0.068420 0.000000 2.202890 
# 
# From -- ./inp_files/55056.got.cif
#   From: 2010.05.17/outbox.cif.g08.bks.cpg/sg15_28_cif.got.tgz:55056.got - 2010.06.03 18:47:42.
