data_PCOD9276089
_publ_section_title
;
Structure prediction by ZEFSAII (Michael W. Deem and Ramdas Pophale) SiO2 
 PCOD9276089
Probable space group: C 2/C
;
_chemical_formula_sum "Si O2"
_cell_formula_units_Z 40
_cell_length_a 10.939894
_cell_length_b 18.272904
_cell_length_c 17.281953
_cell_angle_alpha 90.000000
_cell_angle_beta 146.458091
_cell_angle_gamma 90.000000
_cell_volume 1908.897290
_symmetry_space_group_name_H-M "C 2/C"
_symmetry_group_IT_number 15
_symmetry_cell_setting 'monoclinic'
loop_
_space_group_symop_operation_xyz
x,y,z
-x,y,1/2-z
-x,-y,-z
x,-y,1/2+z
1/2+x,1/2+y,z
1/2-x,1/2+y,1/2-z
1/2-x,1/2-y,-z
1/2+x,1/2-y,1/2+z
loop_
_atom_site_type_symbol
_atom_site_label
_atom_site_fract_x
_atom_site_fract_y
_atom_site_fract_z
Si Si1 0.377016 0.013014 0.548208
Si Si2 0.885943 0.650209 0.887109
Si Si3 0.500000 0.555770 0.750000
Si Si4 0.335276 0.120962 0.320589
Si Si5 0.506896 0.731719 0.342332
Si Si6 0.500000 0.076281 0.250000
O O1 0.454835 0.095256 0.577471
O O2 0.581951 0.962738 0.622756
O O3 0.351059 0.979788 0.620724
O O4 0.158097 0.992458 0.386865
O O5 0.660289 0.608482 0.785709
O O6 0.852601 0.721319 0.817871
O O7 0.012408 0.663189 0.035902
O O8 0.088591 0.149338 0.203889
O O9 0.389577 0.125789 0.257903
O O10 0.500000 0.755021 0.250000
O O11 0.750000 0.750000 0.500000
#
# Coordination Sequence:
#
# PCOD9276089 Si02
#       6
#     8   8   4   8   8   4
#     4   9  21  41  66  97 127 162 215 268 327 375
#     4  11  23  42  68  96 135 168 217 269 325 389
#     4  10  20  39  68 100 117 176 218 258 332 387
#     4   9  20  43  63  91 131 167 209 266 327 370
#     4  12  26  43  63  96 130 178 217 258 330 391
#     4   8  20  39  68  92 127 162 212 266 332 359
#
# _framework density 20.954505000000001
#
# number of rings (size 3 to 8) (size 9 to 14) (size 15 to 20)
#    1.200    0.800    2.000    2.400    1.400    5.600 
#    1.800    4.000    0.000    0.000    0.000    0.000 
#    0.000    0.000    0.000    0.000    0.000    0.000 
#
# Total GULP energy -111363.088544 kJ/mol
# GULP energy per Si atom -5568.154427 kJ/mol
# Density = 2.090681 g / cm^3
# Si number density = 20.954505 Si / 1000 Ang^3
#
#
#
# Elastic Constant Matrix: (Units=GPa)
#
#
# Indices 1 2 3 4 5 6 
#
# 1 103.0842 33.6245 46.3700 -0.0001 -23.7308 -0.0005
# 2 33.6245 72.6330 36.9795 -0.0001 1.9139 -0.0003
# 3 46.3700 36.9795 123.4352 -0.0006 -9.8903 -0.0045
# 4 -0.0001 -0.0001 -0.0006 14.0836 0.0001 7.6536
# 5 -23.7308 1.9139 -9.8903 0.0001 46.5039 -0.0007
# 6 -0.0005 -0.0003 -0.0045 7.6536 -0.0007 25.2294
#
#
#
# Elastic Compliance Matrix: (Units=1/GPa)
#
#
# Indices 1 2 3 4 5 6 
#
# 1 0.014479 -0.005188 -0.003333 0.000000 0.006893 0.000000
# 2 -0.005188 0.018243 -0.003854 0.000000 -0.004218 -0.000001
# 3 -0.003333 -0.003854 0.010565 -0.000001 0.000705 0.000002
# 4 0.000000 0.000000 -0.000001 0.085021 -0.000001 -0.025792
# 5 0.006893 -0.004218 0.000705 -0.000001 0.025345 0.000001
# 6 0.000000 -0.000001 0.000002 -0.025792 0.000001 0.047461
#
#
# Mechanical properties :
#
#
# Convention : Reuss Voigt Hill
#
# Bulk Modulus (GPa) = 53.94680 59.23337 56.59009
# Shear Modulus (GPa) = 21.54788 29.30863 25.42825
#
# Velocity S-wave (km/s) = 3.21022 3.74395 3.48731
# Velocity P-wave (km/s) = 6.28819 6.85700 6.57875
#
# Compressibility (1/GPa) = 0.01853678
#
# Stress axis : x y z
#
# Youngs Moduli (GPa) = 69.06550 54.81554 94.65563
#
# Poissons Ratio (x) = 0.28437 0.31546
# Poissons Ratio (y) = 0.35829 0.36485
# Poissons Ratio (z) = 0.23018 0.21129
#
# Static dielectric constant tensor:
#      x y z
#    x 1.763120 0.000000 -0.016990 
#    y 0.000000 1.749930 0.000000 
#    z -0.016990 0.000000 1.747170 
# 
# From -- ./inp_files/199763.got.cif
#   From: 2010.05.17/outbox.cif.g08.bks.cpg/sg15_100_cif.got.tgz:199763.got - 2010.06.03 18:47:42.
