data_PCOD9276448
_publ_section_title
;
Structure prediction by ZEFSAII (Michael W. Deem and Ramdas Pophale) SiO2 
 PCOD9276448
Probable space group: C 2/C
;
_chemical_formula_sum "Si O2"
_cell_formula_units_Z 52
_cell_length_a 11.603045
_cell_length_b 28.222186
_cell_length_c 11.166272
_cell_angle_alpha 90.000000
_cell_angle_beta 140.757185
_cell_angle_gamma 90.000000
_cell_volume 2313.159901
_symmetry_space_group_name_H-M "C 2/C"
_symmetry_group_IT_number 15
_symmetry_cell_setting 'monoclinic'
loop_
_space_group_symop_operation_xyz
x,y,z
-x,y,1/2-z
-x,-y,-z
x,-y,1/2+z
1/2+x,1/2+y,z
1/2-x,1/2+y,1/2-z
1/2-x,1/2-y,-z
1/2+x,1/2-y,1/2+z
loop_
_atom_site_type_symbol
_atom_site_label
_atom_site_fract_x
_atom_site_fract_y
_atom_site_fract_z
Si Si1 0.675582 0.403641 0.670581
Si Si2 0.575787 0.278550 0.987853
Si Si3 0.729468 0.636410 0.712218
Si Si4 0.711308 0.521444 0.380016
Si Si5 0.500000 0.913345 0.250000
Si Si6 0.739592 0.184325 0.110605
Si Si7 0.720318 0.586812 0.939044
O O1 0.459735 0.390735 0.480637
O O2 0.707252 0.456883 0.743228
O O3 0.756196 0.369150 0.839338
O O4 0.763728 0.399870 0.610380
O O5 0.674005 0.308591 0.168390
O O6 0.578859 0.222156 0.980456
O O7 0.667039 0.303776 0.942535
O O8 0.368385 0.293031 0.815529
O O9 0.792580 0.620274 0.893471
O O10 0.885702 0.620714 0.746078
O O11 0.500000 0.526653 0.250000
O O12 0.766477 0.467028 0.440644
O O13 0.851672 0.552603 0.569081
O O14 0.500000 0.589740 0.750000
#
# Coordination Sequence:
#
# PCOD9276448 Si02
#       7
#     8   8   8   8   4   8   8
#     4  10  20  40  62  85 122 162 203 251 306 361
#     4   9  18  33  56  84 118 150 196 249 298 362
#     4  10  21  38  59  90 121 157 203 250 307 364
#     4  11  23  39  64  88 120 162 208 253 304 359
#     4  12  24  36  64  92 122 156 204 262 302 360
#     4   9  18  31  55  85 115 153 193 250 303 355
#     4   9  22  39  62  85 117 165 206 249 301 369
#
# _framework density 22.480072
#
# number of rings (size 3 to 8) (size 9 to 14) (size 15 to 20)
#    0.000    2.154    1.538    0.923    4.308    6.154 
#    0.000    0.769    0.000    0.000    0.000    0.000 
#    0.000    0.000    0.000    4.769    0.000    0.615 
#
# Total GULP energy -144995.672698 kJ/mol
# GULP energy per Si atom -5576.756642 kJ/mol
# Density = 2.242891 g / cm^3
# Si number density = 22.480072 Si / 1000 Ang^3
#
#
#
# Elastic Constant Matrix: (Units=GPa)
#
#
# Indices 1 2 3 4 5 6 
#
# 1 67.8605 10.8923 10.6662 0.0000 -21.3541 0.0000
# 2 10.8923 62.4274 18.9975 0.0000 -10.2297 0.0000
# 3 10.6662 18.9975 73.2914 0.0000 -1.4679 0.0000
# 4 0.0000 0.0000 0.0000 16.9224 0.0000 -1.3339
# 5 -21.3541 -10.2297 -1.4679 0.0000 33.8121 0.0000
# 6 0.0000 0.0000 0.0000 -1.3339 0.0000 2.4150
#
#
#
# Elastic Compliance Matrix: (Units=1/GPa)
#
#
# Indices 1 2 3 4 5 6 
#
# 1 0.018865 -0.000678 -0.002337 0.000000 0.011608 0.000000
# 2 -0.000678 0.018329 -0.004554 0.000000 0.004919 0.000000
# 3 -0.002337 -0.004554 0.015121 0.000000 -0.002197 0.000000
# 4 0.000000 0.000000 0.000000 0.061783 0.000000 0.034126
# 5 0.011608 0.004919 -0.002197 0.000000 0.038299 0.000000
# 6 0.000000 0.000000 0.000000 0.034126 0.000000 0.432921
#
#
# Mechanical properties :
#
#
# Convention : Reuss Voigt Hill
#
# Bulk Modulus (GPa) = 26.89896 31.63238 29.26567
# Shear Modulus (GPa) = 8.15864 21.49813 14.82838
#
# Velocity S-wave (km/s) = 1.90713 3.09580 2.57110
# Velocity P-wave (km/s) = 4.10380 5.18464 4.67556
#
# Compressibility (1/GPa) = 0.03717616
#
# Stress axis : x y z
#
# Youngs Moduli (GPa) = 53.00839 54.55901 66.13484
#
# Poissons Ratio (x) = 0.03700 0.15457
# Poissons Ratio (y) = 0.03595 0.30116
# Poissons Ratio (z) = 0.12389 0.24844
#
# Static dielectric constant tensor:
#      x y z
#    x 1.853730 0.000000 0.023490 
#    y 0.000000 1.902350 0.000000 
#    z 0.023490 0.000000 1.931240 
# 
# From -- ./inp_files/92638.got.cif
#   From: 2010.05.17/outbox.cif.g08.bks.cpg/sg15_47_cif.got.tgz:92638.got - 2010.06.03 18:47:42.
