data_PCOD9276110
_publ_section_title
;
Structure prediction by ZEFSAII (Michael W. Deem and Ramdas Pophale) SiO2 
 PCOD9276110
Probable space group: C 2/C
;
_chemical_formula_sum "Si O2"
_cell_formula_units_Z 60
_cell_length_a 12.405931
_cell_length_b 13.846454
_cell_length_c 16.158901
_cell_angle_alpha 90.000000
_cell_angle_beta 82.401900
_cell_angle_gamma 90.000000
_cell_volume 2751.374909
_symmetry_space_group_name_H-M "C 2/C"
_symmetry_group_IT_number 15
_symmetry_cell_setting 'monoclinic'
loop_
_space_group_symop_operation_xyz
x,y,z
-x,y,1/2-z
-x,-y,-z
x,-y,1/2+z
1/2+x,1/2+y,z
1/2-x,1/2+y,1/2-z
1/2-x,1/2-y,-z
1/2+x,1/2-y,1/2+z
loop_
_atom_site_type_symbol
_atom_site_label
_atom_site_fract_x
_atom_site_fract_y
_atom_site_fract_z
Si Si1 0.500000 0.576491 0.250000
Si Si2 0.990417 0.929844 0.578009
Si Si3 0.794219 0.780313 0.750104
Si Si4 0.347576 0.753295 0.426202
Si Si5 0.848948 0.824583 0.481930
Si Si6 0.599523 0.922987 0.802548
Si Si7 0.198083 0.397439 0.376083
Si Si8 0.990290 0.648539 0.481894
O O1 0.502922 0.518700 0.334651
O O2 0.603468 0.646624 0.254539
O O3 0.082810 0.846521 0.575605
O O4 0.877130 0.877182 0.564824
O O5 0.000000 0.000000 0.500000
O O6 0.802930 0.729951 0.839286
O O7 0.681068 0.839845 0.760521
O O8 0.808374 0.701349 0.676631
O O9 0.250000 0.750000 0.500000
O O10 0.426098 0.836274 0.451637
O O11 0.750000 0.750000 0.500000
O O12 0.812430 0.895547 0.412858
O O13 0.950734 0.754808 0.455728
O O14 0.500000 0.941482 0.750000
O O15 0.545185 0.897074 0.896562
O O16 0.673831 0.015535 0.816633
O O17 0.111010 0.400745 0.460962
#
# Coordination Sequence:
#
# PCOD9276110 Si02
#       8
#     4   8   8   8   8   8   8   8
#     4  10  22  42  70  94 132 184 226 270 350 400
#     4  10  22  38  64  95 130 167 220 279 322 399
#     4  11  23  45  70  98 141 181 228 289 332 418
#     4  10  20  39  68  93 129 178 221 266 355 389
#     4   9  19  38  66  91 124 177 221 260 339 398
#     4  12  27  42  66 106 142 176 228 291 349 409
#     4  11  24  42  71 100 135 184 230 279 344 417
#     4  10  21  43  68  99 132 180 220 289 343 418
#
# _framework density 21.807279000000001
#
# number of rings (size 3 to 8) (size 9 to 14) (size 15 to 20)
#    0.000    1.600    1.333    4.400    6.533    1.067 
#    2.400    0.000    4.400    0.000    0.000    0.000 
#    0.000    0.000    0.000    0.000    0.000    0.000 
#
# Total GULP energy -167326.823689 kJ/mol
# GULP energy per Si atom -5577.560790 kJ/mol
# Density = 2.175764 g / cm^3
# Si number density = 21.807279 Si / 1000 Ang^3
#
#
#
# Elastic Constant Matrix: (Units=GPa)
#
#
# Indices 1 2 3 4 5 6 
#
# 1 87.1511 19.5853 34.8131 0.0000 21.4741 0.0000
# 2 19.5853 57.6147 42.1178 0.0000 10.5544 0.0000
# 3 34.8131 42.1178 138.6044 0.0000 25.9960 0.0000
# 4 0.0000 0.0000 0.0000 30.5522 0.0000 -1.8772
# 5 21.4741 10.5544 25.9960 0.0000 45.7557 0.0000
# 6 0.0000 0.0000 0.0000 -1.8772 0.0000 22.9424
#
#
#
# Elastic Compliance Matrix: (Units=1/GPa)
#
#
# Indices 1 2 3 4 5 6 
#
# 1 0.013987 -0.002518 -0.001820 0.000000 -0.004950 0.000000
# 2 -0.002518 0.022853 -0.006206 0.000000 -0.000564 0.000000
# 3 -0.001820 -0.006206 0.010218 0.000000 -0.003520 0.000000
# 4 0.000000 0.000000 0.000000 0.032896 0.000000 0.002692
# 5 -0.004950 -0.000564 -0.003520 0.000000 0.026308 0.000000
# 6 0.000000 0.000000 0.000000 0.002692 0.000000 0.043808
#
#
# Mechanical properties :
#
#
# Convention : Reuss Voigt Hill
#
# Bulk Modulus (GPa) = 38.50563 52.93361 45.71962
# Shear Modulus (GPa) = 27.80677 32.30700 30.05688
#
# Velocity S-wave (km/s) = 3.57475 3.85317 3.71657
# Velocity P-wave (km/s) = 5.89356 6.64244 6.27917
#
# Compressibility (1/GPa) = 0.02597023
#
# Stress axis : x y z
#
# Youngs Moduli (GPa) = 71.49723 43.75862 97.86835
#
# Poissons Ratio (x) = 0.11017 0.17808
# Poissons Ratio (y) = 0.18000 0.60739
# Poissons Ratio (z) = 0.13010 0.27157
#
# Static dielectric constant tensor:
#      x y z
#    x 2.162050 0.000000 0.012570 
#    y 0.000000 1.892430 0.000000 
#    z 0.012570 0.000000 1.853390 
# 
# From -- ./inp_files/197863.got.cif
#   From: 2010.05.17/outbox.cif.g08.bks.cpg/sg15_99_cif.got.tgz:197863.got - 2010.06.03 18:47:42.
