data_PCOD9276315
_publ_section_title
;
Structure prediction by ZEFSAII (Michael W. Deem and Ramdas Pophale) SiO2 
 PCOD9276315
Probable space group: C 2/C
;
_chemical_formula_sum "Si O2"
_cell_formula_units_Z 48
_cell_length_a 16.624591
_cell_length_b 11.996001
_cell_length_c 15.020512
_cell_angle_alpha 90.000000
_cell_angle_beta 127.874420
_cell_angle_gamma 90.000000
_cell_volume 2364.538315
_symmetry_space_group_name_H-M "C 2/C"
_symmetry_group_IT_number 15
_symmetry_cell_setting 'monoclinic'
loop_
_space_group_symop_operation_xyz
x,y,z
-x,y,1/2-z
-x,-y,-z
x,-y,1/2+z
1/2+x,1/2+y,z
1/2-x,1/2+y,1/2-z
1/2-x,1/2-y,-z
1/2+x,1/2-y,1/2+z
loop_
_atom_site_type_symbol
_atom_site_label
_atom_site_fract_x
_atom_site_fract_y
_atom_site_fract_z
Si Si1 0.962675 0.335826 0.405157
Si Si2 0.500000 0.717063 0.250000
Si Si3 0.392283 0.077040 0.343816
Si Si4 0.123198 0.877601 0.400835
Si Si5 0.408236 0.492365 0.776074
Si Si6 0.178207 0.132151 0.131587
Si Si7 0.000000 0.673544 0.250000
O O1 0.889325 0.443200 0.346401
O O2 0.896863 0.235604 0.402484
O O3 0.011296 0.294163 0.344693
O O4 0.051666 0.373740 0.532196
O O5 0.582791 0.627144 0.268661
O O6 0.285986 0.138194 0.253786
O O7 0.459865 0.102422 0.303648
O O8 0.189947 0.882707 0.534065
O O9 0.086341 0.755304 0.348901
O O10 0.162293 0.933757 0.336414
O O11 0.018494 0.946526 0.352732
O O12 0.373479 0.471912 0.852339
#
# Coordination Sequence:
#
# PCOD9276315 Si02
#       7
#     8   4   8   8   8   8   4
#     4  10  22  43  59  87 124 157 197 250 299 355
#     4   8  16  38  64  78 116 168 186 238 304 356
#     4  11  24  40  61  89 122 159 199 247 304 356
#     4   9  18  36  61  91 120 155 196 249 304 343
#     4   8  18  35  59  92 122 150 200 249 298 345
#     4  11  21  40  63  89 116 163 203 243 299 364
#     4  10  20  40  60  86 120 164 192 244 306 352
#
# _framework density 20.299945999999998
#
# number of rings (size 3 to 8) (size 9 to 14) (size 15 to 20)
#    0.000    2.667    1.667    1.000    0.000    3.333 
#   18.000    1.667    0.000    0.000    0.000    0.000 
#    0.000    0.000    0.000    0.000    0.000    0.000 
#
# Total GULP energy -133723.048961 kJ/mol
# GULP energy per Si atom -5571.793707 kJ/mol
# Density = 2.025374 g / cm^3
# Si number density = 20.299946 Si / 1000 Ang^3
#
#
#
# Elastic Constant Matrix: (Units=GPa)
#
#
# Indices 1 2 3 4 5 6 
#
# 1 15.1324 4.3346 9.6970 0.0000 -6.4494 0.0000
# 2 4.3346 55.7666 20.7856 0.0000 1.1996 0.0000
# 3 9.6970 20.7856 101.7528 0.0000 -8.6208 0.0000
# 4 0.0000 0.0000 0.0000 9.1030 0.0000 8.2017
# 5 -6.4494 1.1996 -8.6208 0.0000 23.5013 0.0000
# 6 0.0000 0.0000 0.0000 8.2017 0.0000 -7.0851
#
#
#
# Elastic Compliance Matrix: (Units=1/GPa)
#
#
# Indices 1 2 3 4 5 6 
#
# 1 0.079169 -0.004777 -0.004859 0.000000 0.020188 0.000000
# 2 -0.004777 0.019844 -0.003917 0.000000 -0.003761 0.000000
# 3 -0.004859 -0.003917 0.011348 0.000000 0.003029 0.000000
# 4 0.000000 0.000000 0.000000 0.053771 0.000000 0.062246
# 5 0.020188 -0.003761 0.003029 0.000000 0.049394 0.000000
# 6 0.000000 0.000000 0.000000 0.062246 0.000000 -0.069086
#
#
# Mechanical properties :
#
#
# Convention : Reuss Voigt Hill
#
# Bulk Modulus (GPa) = 12.01122 26.92069 19.46596
# Shear Modulus (GPa) = 25.08813 14.29281 19.69047
#
# Velocity S-wave (km/s) = 3.51931 2.65633 3.11782
# Velocity P-wave (km/s) = 4.73749 4.76428 4.75090
#
# Compressibility (1/GPa) = 0.08325549
#
# Stress axis : x y z
#
# Youngs Moduli (GPa) = 12.63118 50.39291 88.12467
#
# Poissons Ratio (x) = 0.24073 0.42816
# Poissons Ratio (y) = 0.06034 0.34519
# Poissons Ratio (z) = 0.06137 0.19739
#
# Static dielectric constant tensor:
#      x y z
#    x 1.774440 0.000000 0.009090 
#    y 0.000000 1.740580 0.000000 
#    z 0.009090 0.000000 1.736880 
# 
# From -- ./inp_files/167396.got.cif
#   From: 2010.05.17/outbox.cif.g08.bks.cpg/sg15_84_cif.got.tgz:167396.got - 2010.06.03 18:47:42.
