data_PCOD9276757
_publ_section_title
;
Structure prediction by ZEFSAII (Michael W. Deem and Ramdas Pophale) SiO2 
 PCOD9276757
Probable space group: C 2/C
;
_chemical_formula_sum "Si O2"
_cell_formula_units_Z 44
_cell_length_a 16.933386
_cell_length_b 8.719006
_cell_length_c 14.150574
_cell_angle_alpha 90.000000
_cell_angle_beta 61.725271
_cell_angle_gamma 90.000000
_cell_volume 1839.950404
_symmetry_space_group_name_H-M "C 2/C"
_symmetry_group_IT_number 15
_symmetry_cell_setting 'monoclinic'
loop_
_space_group_symop_operation_xyz
x,y,z
-x,y,1/2-z
-x,-y,-z
x,-y,1/2+z
1/2+x,1/2+y,z
1/2-x,1/2+y,1/2-z
1/2-x,1/2-y,-z
1/2+x,1/2-y,1/2+z
loop_
_atom_site_type_symbol
_atom_site_label
_atom_site_fract_x
_atom_site_fract_y
_atom_site_fract_z
Si Si1 0.598091 0.343592 0.822913
Si Si2 0.335576 0.070627 0.364682
Si Si3 0.099041 0.793121 0.322600
Si Si4 0.259758 0.716311 0.605105
Si Si5 0.000000 0.654960 0.750000
Si Si6 0.433840 0.128319 0.489192
O O1 0.591257 0.524827 0.830031
O O2 0.679345 0.300167 0.706714
O O3 0.505787 0.270093 0.834027
O O4 0.606852 0.245972 0.912772
O O5 0.347894 0.224382 0.297439
O O6 0.352329 0.078363 0.467294
O O7 0.250907 0.969239 0.382654
O O8 0.416717 0.957237 0.289043
O O9 0.151409 0.741174 0.387905
O O10 0.001016 0.720046 0.382186
O O11 0.250000 0.750000 0.500000
O O12 0.500000 0.000000 0.500000
#
# Coordination Sequence:
#
# PCOD9276757 Si02
#       6
#     8   8   8   8   4   8
#     4  11  26  41  68 101 142 172 238 288 346 409
#     4  11  22  44  71 100 136 187 229 281 355 426
#     4  12  25  43  69 105 140 178 235 292 349 420
#     4  11  26  47  68  96 141 188 231 287 361 415
#     4  10  20  40  64  96 132 178 220 280 338 406
#     4  12  22  43  72 103 136 187 236 284 348 425
#
# _framework density 23.913689000000002
#
# number of rings (size 3 to 8) (size 9 to 14) (size 15 to 20)
#    0.000    0.727    3.636    3.818    5.091    2.909 
#    0.000    2.727    0.000    0.000    0.000    0.000 
#    0.000    0.000    0.000    0.000    0.000    0.000 
#
# Total GULP energy -122948.119708 kJ/mol
# GULP energy per Si atom -5588.550896 kJ/mol
# Density = 2.385926 g / cm^3
# Si number density = 23.913689 Si / 1000 Ang^3
#
#
#
# Elastic Constant Matrix: (Units=GPa)
#
#
# Indices 1 2 3 4 5 6 
#
# 1 71.4772 7.1875 -10.7164 0.0000 18.0267 0.0000
# 2 7.1875 137.5664 34.2950 0.0000 10.2839 0.0000
# 3 -10.7164 34.2950 83.9025 0.0000 13.3406 0.0000
# 4 0.0000 0.0000 0.0000 27.7779 0.0000 8.3543
# 5 18.0267 10.2839 13.3406 0.0000 34.9213 0.0000
# 6 0.0000 0.0000 0.0000 8.3543 0.0000 29.4258
#
#
#
# Elastic Compliance Matrix: (Units=1/GPa)
#
#
# Indices 1 2 3 4 5 6 
#
# 1 0.017352 -0.001224 0.004347 0.000000 -0.010258 0.000000
# 2 -0.001224 0.008227 -0.003443 0.000000 -0.000476 0.000000
# 3 0.004347 -0.003443 0.014987 0.000000 -0.006956 0.000000
# 4 0.000000 0.000000 0.000000 0.039361 0.000000 -0.011175
# 5 -0.010258 -0.000476 -0.006956 0.000000 0.036728 0.000000
# 6 0.000000 0.000000 0.000000 -0.011175 0.000000 0.037157
#
#
# Mechanical properties :
#
#
# Convention : Reuss Voigt Hill
#
# Bulk Modulus (GPa) = 25.04525 39.38649 32.21587
# Shear Modulus (GPa) = 29.80432 35.90366 32.85399
#
# Velocity S-wave (km/s) = 3.53417 3.87898 3.71058
# Velocity P-wave (km/s) = 5.21054 6.04714 5.64436
#
# Compressibility (1/GPa) = 0.03992773
#
# Stress axis : x y z
#
# Youngs Moduli (GPa) = 57.62892 121.54859 66.72297
#
# Poissons Ratio (x) = 0.14873 -0.29008
# Poissons Ratio (y) = 0.07051 0.22976
# Poissons Ratio (z) = -0.25054 0.41855
#
# Static dielectric constant tensor:
#      x y z
#    x 1.976600 0.000000 0.022280 
#    y 0.000000 1.915250 0.000000 
#    z 0.022280 0.000000 1.939020 
# 
# From -- ./inp_files/159638.got.cif
#   From: 2010.05.17/outbox.cif.g08.bks.cpg/sg15_80_cif.got.tgz:159638.got - 2010.06.03 18:47:42.
