data_PCOD9276917
_publ_section_title
;
Structure prediction by ZEFSAII (Michael W. Deem and Ramdas Pophale) SiO2 
 PCOD9276917
Probable space group: C 2/C
;
_chemical_formula_sum "Si O2"
_cell_formula_units_Z 52
_cell_length_a 8.601056
_cell_length_b 15.590033
_cell_length_c 19.946118
_cell_angle_alpha 90.000000
_cell_angle_beta 76.188686
_cell_angle_gamma 90.000000
_cell_volume 2597.259867
_symmetry_space_group_name_H-M "C 2/C"
_symmetry_group_IT_number 15
_symmetry_cell_setting 'monoclinic'
loop_
_space_group_symop_operation_xyz
x,y,z
-x,y,1/2-z
-x,-y,-z
x,-y,1/2+z
1/2+x,1/2+y,z
1/2-x,1/2+y,1/2-z
1/2-x,1/2-y,-z
1/2+x,1/2-y,1/2+z
loop_
_atom_site_type_symbol
_atom_site_label
_atom_site_fract_x
_atom_site_fract_y
_atom_site_fract_z
Si Si1 0.614251 0.457886 0.433310
Si Si2 0.029629 0.497788 0.577053
Si Si3 0.229129 0.902944 0.649855
Si Si4 0.895455 0.811626 0.970237
Si Si5 0.000000 0.225504 0.250000
Si Si6 0.387151 0.182858 0.626390
Si Si7 0.577505 0.415658 0.174548
O O1 0.500000 0.500000 0.500000
O O2 0.783799 0.504995 0.423634
O O3 0.601034 0.361390 0.460908
O O4 0.551602 0.450210 0.364929
O O5 0.000000 0.500000 0.500000
O O6 0.918503 0.421602 0.618577
O O7 0.978030 0.592631 0.606733
O O8 0.155163 0.876274 0.584881
O O9 0.147290 0.833308 0.707197
O O10 0.172607 0.996452 0.679972
O O11 0.046080 0.755273 0.931059
O O12 0.750000 0.750000 0.000000
O O13 0.068389 0.281591 0.304422
O O14 0.202973 0.155098 0.635613
O O15 0.500000 0.381946 0.250000
#
# Coordination Sequence:
#
# PCOD9276917 Si02
#       7
#     8   8   8   8   4   8   8
#     4  12  23  39  67  96 130 170 220 269 337 392
#     4  11  20  40  68  99 123 168 226 274 321 400
#     4  10  20  40  66  90 128 172 214 265 331 403
#     4  11  20  38  65  94 125 162 213 274 332 382
#     4  10  22  40  70  92 130 182 216 272 354 400
#     4  10  23  39  64  95 130 168 222 268 334 398
#     4  11  24  41  62  92 135 175 214 276 326 401
#
# _framework density 20.021100000000001
#
# number of rings (size 3 to 8) (size 9 to 14) (size 15 to 20)
#    0.000    1.231    5.385    0.923    2.154    0.615 
#    0.000    1.538    0.000    0.000    0.000    0.000 
#    0.000    0.000    0.000    0.000    0.000    0.000 
#
# Total GULP energy -144858.101078 kJ/mol
# GULP energy per Si atom -5571.465426 kJ/mol
# Density = 1.997553 g / cm^3
# Si number density = 20.021100 Si / 1000 Ang^3
#
#
#
# Elastic Constant Matrix: (Units=GPa)
#
#
# Indices 1 2 3 4 5 6 
#
# 1 140.7431 26.3714 46.6520 0.0000 -14.9600 0.0000
# 2 26.3714 70.2499 15.8522 0.0000 -8.4066 0.0000
# 3 46.6520 15.8522 83.4475 0.0000 -7.0806 0.0000
# 4 0.0000 0.0000 0.0000 37.8650 0.0000 -6.1561
# 5 -14.9600 -8.4066 -7.0806 0.0000 28.7920 0.0000
# 6 0.0000 0.0000 0.0000 -6.1561 0.0000 43.8014
#
#
#
# Elastic Compliance Matrix: (Units=1/GPa)
#
#
# Indices 1 2 3 4 5 6 
#
# 1 0.009342 -0.002105 -0.004558 0.000000 0.003118 0.000000
# 2 -0.002105 0.015749 -0.001550 0.000000 0.003123 0.000000
# 3 -0.004558 -0.001550 0.014898 0.000000 0.000843 0.000000
# 4 0.000000 0.000000 0.000000 0.027027 0.000000 0.003799
# 5 0.003118 0.003123 0.000843 0.000000 0.037471 0.000000
# 6 0.000000 0.000000 0.000000 0.003799 0.000000 0.023364
#
#
# Mechanical properties :
#
#
# Convention : Reuss Voigt Hill
#
# Bulk Modulus (GPa) = 42.44106 52.46576 47.45341
# Shear Modulus (GPa) = 32.86631 35.79600 34.33115
#
# Velocity S-wave (km/s) = 4.05604 4.23296 4.14544
# Velocity P-wave (km/s) = 6.57111 7.08186 6.83126
#
# Compressibility (1/GPa) = 0.02356209
#
# Stress axis : x y z
#
# Youngs Moduli (GPa) = 107.04393 63.49756 67.12398
#
# Poissons Ratio (x) = 0.13367 0.30596
# Poissons Ratio (y) = 0.22535 0.10403
# Poissons Ratio (z) = 0.48793 0.09841
#
# Static dielectric constant tensor:
#      x y z
#    x 1.111290 0.000000 -0.007500 
#    y 0.000000 1.647860 0.000000 
#    z -0.007500 0.000000 1.686560 
# 
# From -- ./inp_files/231161.got.cif
#   From: 2010.05.17/outbox.cif.g08.bks.cpg/sg15_116_cif.got.tgz:231161.got - 2010.06.03 18:47:42.
