data_PCOD9276545
_publ_section_title
;
Structure prediction by ZEFSAII (Michael W. Deem and Ramdas Pophale) SiO2 
 PCOD9276545
Probable space group: C 2/C
;
_chemical_formula_sum "Si O2"
_cell_formula_units_Z 44
_cell_length_a 22.256610
_cell_length_b 12.770379
_cell_length_c 10.156480
_cell_angle_alpha 90.000000
_cell_angle_beta 40.900275
_cell_angle_gamma 90.000000
_cell_volume 1890.069788
_symmetry_space_group_name_H-M "C 2/C"
_symmetry_group_IT_number 15
_symmetry_cell_setting 'monoclinic'
loop_
_space_group_symop_operation_xyz
x,y,z
-x,y,1/2-z
-x,-y,-z
x,-y,1/2+z
1/2+x,1/2+y,z
1/2-x,1/2+y,1/2-z
1/2-x,1/2-y,-z
1/2+x,1/2-y,1/2+z
loop_
_atom_site_type_symbol
_atom_site_label
_atom_site_fract_x
_atom_site_fract_y
_atom_site_fract_z
Si Si1 0.500000 0.382655 0.250000
Si Si2 0.568992 0.892707 0.280233
Si Si3 0.000000 0.574012 0.250000
Si Si4 0.131865 0.278261 0.423825
Si Si5 0.348354 0.541968 0.438319
Si Si6 0.000000 0.790372 0.750000
Si Si7 0.249980 0.408319 0.822336
O O1 0.445091 0.312895 0.445269
O O2 0.425881 0.452134 0.296853
O O3 0.627120 0.855136 0.308426
O O4 0.505505 0.791504 0.360682
O O5 0.510707 0.997427 0.355323
O O6 0.644876 0.906233 0.039086
O O7 0.909322 0.646807 0.395439
O O8 0.222250 0.208158 0.275144
O O9 0.408821 0.639005 0.392448
O O10 0.279615 0.493042 0.662420
O O11 0.304391 0.568326 0.369695
#
# Coordination Sequence:
#
# PCOD9276545 Si02
#       7
#     4   8   4   8   8   4   8
#     4   8  20  36  64  90 124 154 210 256 312 362
#     4  11  23  38  62  90 120 166 207 259 303 372
#     4  10  24  40  60  88 122 164 210 260 306 368
#     4  10  20  40  63  85 120 166 205 252 311 365
#     4  10  22  40  63  96 125 165 203 259 312 371
#     4  10  22  38  64  90 120 158 218 244 304 376
#     4  11  24  39  67  92 130 160 207 258 316 365
#
# _framework density 23.279563
#
# number of rings (size 3 to 8) (size 9 to 14) (size 15 to 20)
#    0.000    1.818    1.818    1.091    5.091    2.182 
#    0.000    0.000    0.000    4.364    0.000    0.000 
#    0.000    0.000    0.000    0.000    0.000    0.000 
#
# Total GULP energy -122589.898438 kJ/mol
# GULP energy per Si atom -5572.268111 kJ/mol
# Density = 2.322658 g / cm^3
# Si number density = 23.279563 Si / 1000 Ang^3
#
#
#
# Elastic Constant Matrix: (Units=GPa)
#
#
# Indices 1 2 3 4 5 6 
#
# 1 73.3047 37.5770 20.7358 0.0000 4.1947 0.0000
# 2 37.5770 119.5668 14.3390 0.0000 -0.8420 0.0000
# 3 20.7358 14.3390 64.8558 0.0000 -3.0682 0.0000
# 4 0.0000 0.0000 0.0000 -3.5328 0.0000 -31.2388
# 5 4.1947 -0.8420 -3.0682 0.0000 27.0055 0.0000
# 6 0.0000 0.0000 0.0000 -31.2388 0.0000 -13.4109
#
#
#
# Elastic Compliance Matrix: (Units=1/GPa)
#
#
# Indices 1 2 3 4 5 6 
#
# 1 0.017759 -0.005039 -0.004727 0.000000 -0.003453 0.000000
# 2 -0.005039 0.010021 -0.000556 0.000000 0.001032 0.000000
# 3 -0.004727 -0.000556 0.017179 0.000000 0.002669 0.000000
# 4 0.000000 0.000000 0.000000 0.014444 0.000000 -0.033645
# 5 -0.003453 0.001032 0.002669 0.000000 0.037901 0.000000
# 6 0.000000 0.000000 0.000000 -0.033645 0.000000 0.003805
#
#
# Mechanical properties :
#
#
# Convention : Reuss Voigt Hill
#
# Bulk Modulus (GPa) = 41.12508 44.78123 42.95315
# Shear Modulus (GPa) = 38.50335 14.35073 26.42704
#
# Velocity S-wave (km/s) = 4.07130 2.48554 3.37293
# Velocity P-wave (km/s) = 6.30910 5.24550 5.80172
#
# Compressibility (1/GPa) = 0.02431606
#
# Stress axis : x y z
#
# Youngs Moduli (GPa) = 56.30811 99.79048 58.20932
#
# Poissons Ratio (x) = 0.50282 0.27518
# Poissons Ratio (y) = 0.28372 0.03235
# Poissons Ratio (z) = 0.26619 0.05546
#
# Static dielectric constant tensor:
#      x y z
#    x 1.871830 0.000000 0.021060 
#    y 0.000000 1.926850 0.000000 
#    z 0.021060 0.000000 1.961760 
# 
# From -- ./inp_files/95031.got.cif
#   From: 2010.05.17/outbox.cif.g08.bks.cpg/sg15_48_cif.got.tgz:95031.got - 2010.06.03 18:47:42.
