data_PCOD9276506
_publ_section_title
;
Structure prediction by ZEFSAII (Michael W. Deem and Ramdas Pophale) SiO2 
 PCOD9276506
Probable space group: C 2/C
;
_chemical_formula_sum "Si O2"
_cell_formula_units_Z 36
_cell_length_a 12.259801
_cell_length_b 6.737039
_cell_length_c 15.044823
_cell_angle_alpha 90.000000
_cell_angle_beta 81.472941
_cell_angle_gamma 90.000000
_cell_volume 1228.887481
_symmetry_space_group_name_H-M "C 2/C"
_symmetry_group_IT_number 15
_symmetry_cell_setting 'monoclinic'
loop_
_space_group_symop_operation_xyz
x,y,z
-x,y,1/2-z
-x,-y,-z
x,-y,1/2+z
1/2+x,1/2+y,z
1/2-x,1/2+y,1/2-z
1/2-x,1/2-y,-z
1/2+x,1/2-y,1/2+z
loop_
_atom_site_type_symbol
_atom_site_label
_atom_site_fract_x
_atom_site_fract_y
_atom_site_fract_z
Si Si1 0.102700 0.341054 0.329099
Si Si2 0.327144 0.872412 0.845977
Si Si3 0.374641 0.258996 0.911227
Si Si4 0.500000 0.612386 0.750000
Si Si5 0.867573 0.735453 0.106370
O O1 0.207536 0.218840 0.347238
O O2 0.133895 0.474595 0.238415
O O3 0.073167 0.522699 0.396739
O O4 0.987880 0.213598 0.341035
O O5 0.416256 0.699498 0.836942
O O6 0.339204 0.025725 0.924754
O O7 0.262749 0.329353 0.877138
O O8 0.390151 0.335008 0.008836
O O9 0.604374 0.632333 0.811234
#
# Coordination Sequence:
#
# PCOD9276506 Si02
#       5
#     8   8   8   4   8
#     4  11  23  42  64  98 132 175 216 273 325 394
#     4  11  21  39  68  90 133 172 220 263 331 383
#     4  11  22  45  67  95 132 175 216 274 325 390
#     4  10  20  40  62  92 126 172 208 264 320 388
#     4  10  23  43  69  94 134 172 217 272 332 386
#
# _framework density 29.294789000000002
#
# number of rings (size 3 to 8) (size 9 to 14) (size 15 to 20)
#    0.000    1.333    4.444    3.333    0.000    0.889 
#    8.000    2.222    0.000    0.000    0.000    0.000 
#    0.000    0.000    0.000    0.000    0.000    0.000 
#
# Total GULP energy -100205.387311 kJ/mol
# GULP energy per Si atom -5566.965962 kJ/mol
# Density = 2.922811 g / cm^3
# Si number density = 29.294789 Si / 1000 Ang^3
#
#
#
# Elastic Constant Matrix: (Units=GPa)
#
#
# Indices 1 2 3 4 5 6 
#
# 1 190.1252 22.2108 1.8879 0.0000 -17.9369 0.0000
# 2 22.2108 52.0082 -30.7546 0.0000 2.0349 0.0000
# 3 1.8879 -30.7546 132.1777 0.0000 18.7591 0.0000
# 4 0.0000 0.0000 0.0000 192.6573 0.0000 134.1293
# 5 -17.9369 2.0349 18.7591 0.0000 55.4236 0.0000
# 6 0.0000 0.0000 0.0000 134.1293 0.0000 184.2050
#
#
#
# Elastic Compliance Matrix: (Units=1/GPa)
#
#
# Indices 1 2 3 4 5 6 
#
# 1 0.005889 -0.003322 -0.001203 0.000000 0.002435 0.000000
# 2 -0.003322 0.024561 0.006348 0.000000 -0.004125 0.000000
# 3 -0.001203 0.006348 0.009610 0.000000 -0.003875 0.000000
# 4 0.000000 0.000000 0.000000 0.010527 0.000000 -0.007666
# 5 0.002435 -0.004125 -0.003875 0.000000 0.020294 0.000000
# 6 0.000000 0.000000 0.000000 -0.007666 0.000000 0.011010
#
#
# Mechanical properties :
#
#
# Convention : Reuss Voigt Hill
#
# Bulk Modulus (GPa) = 22.87926 40.11103 31.49515
# Shear Modulus (GPa) = 53.87133 111.85500 82.86316
#
# Velocity S-wave (km/s) = 4.29294 6.18591 5.32423
# Velocity P-wave (km/s) = 5.69205 8.04627 6.96929
#
# Compressibility (1/GPa) = 0.04370770
#
# Stress axis : x y z
#
# Youngs Moduli (GPa) = 169.79716 40.71446 104.06215
#
# Poissons Ratio (x) = 0.13523 0.12514
# Poissons Ratio (y) = 0.56398 -0.66056
# Poissons Ratio (z) = 0.20419 -0.25844
#
# Static dielectric constant tensor:
#      x y z
#    x 2.299430 0.000000 0.111200 
#    y 0.000000 2.656530 0.000000 
#    z 0.111200 0.000000 2.645320 
# 
# From -- ./inp_files/194896.got.cif
#   From: 2010.05.17/outbox.cif.g08.bks.cpg/sg15_98_cif.got.tgz:194896.got - 2010.06.03 18:47:42.
