data_PCOD9276897
_publ_section_title
;
Structure prediction by ZEFSAII (Michael W. Deem and Ramdas Pophale) SiO2 
 PCOD9276897
Probable space group: C 2/C
;
_chemical_formula_sum "Si O2"
_cell_formula_units_Z 40
_cell_length_a 13.933647
_cell_length_b 8.097829
_cell_length_c 14.230422
_cell_angle_alpha 90.000000
_cell_angle_beta 112.856468
_cell_angle_gamma 90.000000
_cell_volume 1479.576651
_symmetry_space_group_name_H-M "C 2/C"
_symmetry_group_IT_number 15
_symmetry_cell_setting 'monoclinic'
loop_
_space_group_symop_operation_xyz
x,y,z
-x,y,1/2-z
-x,-y,-z
x,-y,1/2+z
1/2+x,1/2+y,z
1/2-x,1/2+y,1/2-z
1/2-x,1/2-y,-z
1/2+x,1/2-y,1/2+z
loop_
_atom_site_type_symbol
_atom_site_label
_atom_site_fract_x
_atom_site_fract_y
_atom_site_fract_z
Si Si1 0.567088 0.293307 0.647873
Si Si2 0.109364 0.554004 0.231981
Si Si3 0.871286 0.938306 0.646084
Si Si4 0.518288 0.730147 0.921381
Si Si5 0.799805 0.570479 0.039086
O O1 0.617480 0.114990 0.678233
O O2 0.448031 0.292345 0.641901
O O3 0.630433 0.412864 0.742895
O O4 0.547424 0.344067 0.533608
O O5 0.195386 0.553930 0.346792
O O6 0.000000 0.557341 0.250000
O O7 0.094748 0.710071 0.156538
O O8 0.933139 0.103531 0.636303
O O9 0.765677 0.943999 0.547528
O O10 0.582790 0.902343 0.950230
O O11 0.750000 0.750000 0.000000
#
# Coordination Sequence:
#
# PCOD9276897 Si02
#       5
#     8   8   8   8   8
#     4  11  22  40  65  98 130 169 224 274 332 397
#     4  10  20  40  66  88 129 174 215 271 333 394
#     4  10  22  41  63  94 135 169 216 278 339 387
#     4  10  22  41  67  94 124 181 225 263 331 417
#     4   9  21  40  64  89 127 172 219 269 330 391
#
# _framework density 27.034759999999999
#
# number of rings (size 3 to 8) (size 9 to 14) (size 15 to 20)
#    0.000    2.000    2.000    1.200   14.000    0.800 
#    7.200    2.000    0.000    0.000    0.000    0.000 
#    0.000    0.000    0.000    0.000    0.000    0.000 
#
# Total GULP energy -111705.624096 kJ/mol
# GULP energy per Si atom -5585.281205 kJ/mol
# Density = 2.697323 g / cm^3
# Si number density = 27.034760 Si / 1000 Ang^3
#
#
#
# Elastic Constant Matrix: (Units=GPa)
#
#
# Indices 1 2 3 4 5 6 
#
# 1 30.2252 -2.1456 36.5876 0.0000 9.9681 0.0000
# 2 -2.1456 120.3327 86.0041 0.0000 17.3289 0.0000
# 3 36.5876 86.0041 317.2498 0.0000 31.9450 0.0000
# 4 0.0000 0.0000 0.0000 54.9132 0.0000 15.3948
# 5 9.9681 17.3289 31.9450 0.0000 45.5951 0.0000
# 6 0.0000 0.0000 0.0000 15.3948 0.0000 17.8606
#
#
#
# Elastic Compliance Matrix: (Units=1/GPa)
#
#
# Indices 1 2 3 4 5 6 
#
# 1 0.043098 0.006041 -0.005840 0.000000 -0.007626 0.000000
# 2 0.006041 0.011346 -0.003449 0.000000 -0.003217 0.000000
# 3 -0.005840 -0.003449 0.004842 0.000000 -0.000805 0.000000
# 4 0.000000 0.000000 0.000000 0.024013 0.000000 -0.020698
# 5 -0.007626 -0.003217 -0.000805 0.000000 0.025386 0.000000
# 6 0.000000 0.000000 0.000000 -0.020698 0.000000 0.073830
#
#
# Mechanical properties :
#
#
# Convention : Reuss Voigt Hill
#
# Bulk Modulus (GPa) = 18.94296 78.74442 48.84369
# Shear Modulus (GPa) = 24.20053 46.83121 35.51587
#
# Velocity S-wave (km/s) = 2.99517 4.16656 3.62845
# Velocity P-wave (km/s) = 4.35701 7.23445 5.97163
#
# Compressibility (1/GPa) = 0.05279005
#
# Stress axis : x y z
#
# Youngs Moduli (GPa) = 23.20274 88.13676 206.54665
#
# Poissons Ratio (x) = -0.53241 1.20625
# Poissons Ratio (y) = -0.14016 0.71229
# Poissons Ratio (z) = 0.13551 0.30395
#
# Static dielectric constant tensor:
#      x y z
#    x 2.290030 0.000000 -0.006220 
#    y 0.000000 2.152870 0.000000 
#    z -0.006220 0.000000 2.242020 
# 
# From -- ./inp_files/158850.got.cif
#   From: 2010.05.17/outbox.cif.g08.bks.cpg/sg15_80_cif.got.tgz:158850.got - 2010.06.03 18:47:42.
