data_PCOD9276664
_publ_section_title
;
Structure prediction by ZEFSAII (Michael W. Deem and Ramdas Pophale) SiO2 
 PCOD9276664
Probable space group: C 2/C
;
_chemical_formula_sum "Si O2"
_cell_formula_units_Z 40
_cell_length_a 11.328192
_cell_length_b 12.183011
_cell_length_c 17.995528
_cell_angle_alpha 90.000000
_cell_angle_beta 141.694279
_cell_angle_gamma 90.000000
_cell_volume 1539.471360
_symmetry_space_group_name_H-M "C 2/C"
_symmetry_group_IT_number 15
_symmetry_cell_setting 'monoclinic'
loop_
_space_group_symop_operation_xyz
x,y,z
-x,y,1/2-z
-x,-y,-z
x,-y,1/2+z
1/2+x,1/2+y,z
1/2-x,1/2+y,1/2-z
1/2-x,1/2-y,-z
1/2+x,1/2-y,1/2+z
loop_
_atom_site_type_symbol
_atom_site_label
_atom_site_fract_x
_atom_site_fract_y
_atom_site_fract_z
Si Si1 0.690166 0.619598 0.030526
Si Si2 0.372303 0.896998 0.095968
Si Si3 0.223137 0.159993 0.875118
Si Si4 0.769329 0.921102 0.641276
Si Si5 0.282721 0.690938 0.842900
O O1 0.759142 0.645829 0.980878
O O2 0.461164 0.616286 0.908568
O O3 0.810475 0.511335 0.105864
O O4 0.708401 0.715401 0.101371
O O5 0.245491 0.814987 0.082293
O O6 0.586757 0.854480 0.212284
O O7 0.308276 0.906667 0.980241
O O8 0.000000 0.165281 0.750000
O O9 0.286755 0.047058 0.867665
O O10 0.696917 0.822724 0.658494
O O11 0.000000 0.914568 0.750000
#
# Coordination Sequence:
#
# PCOD9276664 Si02
#       5
#     8   8   8   8   8
#     4  10  22  41  61  94 122 163 210 253 318 368
#     4  10  22  40  62  90 131 159 209 259 306 374
#     4   9  21  41  62  85 130 163 198 262 310 376
#     4  10  20  40  64  88 124 168 203 255 314 367
#     4  11  22  36  66  93 120 165 211 254 312 367
#
# _framework density 25.982945000000001
#
# number of rings (size 3 to 8) (size 9 to 14) (size 15 to 20)
#    0.000    2.000    2.000    1.200    2.800    2.400 
#    0.000   14.000    0.000    0.000    0.000    0.000 
#    0.000    0.000    0.000    0.000    0.000    0.000 
#
# Total GULP energy -111655.835979 kJ/mol
# GULP energy per Si atom -5582.791799 kJ/mol
# Density = 2.592381 g / cm^3
# Si number density = 25.982945 Si / 1000 Ang^3
#
#
#
# Elastic Constant Matrix: (Units=GPa)
#
#
# Indices 1 2 3 4 5 6 
#
# 1 71.9343 24.0387 39.1528 0.0000 16.0124 0.0000
# 2 24.0387 198.2341 75.9364 0.0000 15.1649 0.0000
# 3 39.1528 75.9364 118.0363 0.0000 18.6567 0.0000
# 4 0.0000 0.0000 0.0000 33.9749 0.0000 13.8986
# 5 16.0124 15.1649 18.6567 0.0000 39.9044 0.0000
# 6 0.0000 0.0000 0.0000 13.8986 0.0000 1.1001
#
#
#
# Elastic Compliance Matrix: (Units=1/GPa)
#
#
# Indices 1 2 3 4 5 6 
#
# 1 0.017759 0.000237 -0.005294 0.000000 -0.004741 0.000000
# 2 0.000237 0.006710 -0.004294 0.000000 -0.000637 0.000000
# 3 -0.005294 -0.004294 0.013386 0.000000 -0.002502 0.000000
# 4 0.000000 0.000000 0.000000 -0.007062 0.000000 0.089212
# 5 -0.004741 -0.000637 -0.002502 0.000000 0.028374 0.000000
# 6 0.000000 0.000000 0.000000 0.089212 0.000000 -0.218077
#
#
# Mechanical properties :
#
#
# Convention : Reuss Voigt Hill
#
# Bulk Modulus (GPa) = 52.21255 74.05117 63.13186
# Shear Modulus (GPa) = -37.36280 31.60102 -2.88089
#
# Velocity S-wave (km/s) = -3.79618 3.49122 -1.05412
# Velocity P-wave (km/s) = 0.96122 6.69427 4.78211
#
# Compressibility (1/GPa) = 0.01915248
#
# Stress axis : x y z
#
# Youngs Moduli (GPa) = 56.30919 149.04098 74.70416
#
# Poissons Ratio (x) = -0.03533 0.39547
# Poissons Ratio (y) = -0.01335 0.32081
# Poissons Ratio (z) = 0.29809 0.64004
#
# Static dielectric constant tensor:
#      x y z
#    x 2.018350 0.000000 0.015910 
#    y 0.000000 2.223630 0.000000 
#    z 0.015910 0.000000 2.008200 
# 
# From -- ./inp_files/273933.got.cif
#   From: 2010.05.17/outbox.cif.g08.bks.cpg/sg15_137_cif.got.tgz:273933.got - 2010.06.03 18:47:42.
