data_PCOD9276623
_publ_section_title
;
Structure prediction by ZEFSAII (Michael W. Deem and Ramdas Pophale) SiO2 
 PCOD9276623
Probable space group: C 2/C
;
_chemical_formula_sum "Si O2"
_cell_formula_units_Z 44
_cell_length_a 18.615462
_cell_length_b 7.475169
_cell_length_c 17.307719
_cell_angle_alpha 90.000000
_cell_angle_beta 125.897940
_cell_angle_gamma 90.000000
_cell_volume 1950.982247
_symmetry_space_group_name_H-M "C 2/C"
_symmetry_group_IT_number 15
_symmetry_cell_setting 'monoclinic'
loop_
_space_group_symop_operation_xyz
x,y,z
-x,y,1/2-z
-x,-y,-z
x,-y,1/2+z
1/2+x,1/2+y,z
1/2-x,1/2+y,1/2-z
1/2-x,1/2-y,-z
1/2+x,1/2-y,1/2+z
loop_
_atom_site_type_symbol
_atom_site_label
_atom_site_fract_x
_atom_site_fract_y
_atom_site_fract_z
Si Si1 0.264372 0.252420 0.213098
Si Si2 0.584609 0.177676 0.074834
Si Si3 0.742743 0.058101 0.077784
Si Si4 0.559729 0.791946 0.124107
Si Si5 0.500000 0.137171 0.750000
Si Si6 0.308502 0.039784 0.619000
O O1 0.340951 0.269679 0.325342
O O2 0.274116 0.415308 0.159642
O O3 0.163637 0.250338 0.180725
O O4 0.277368 0.070729 0.172910
O O5 0.641862 0.104041 0.038538
O O6 0.553313 0.007072 0.105075
O O7 0.502410 0.280261 0.984504
O O8 0.792946 0.246638 0.113236
O O9 0.742190 0.984249 0.990748
O O10 0.522778 0.753769 0.186136
O O11 0.413700 0.018418 0.679109
#
# Coordination Sequence:
#
# PCOD9276623 Si02
#       6
#     8   8   8   8   4   8
#     4  11  23  42  70 100 130 180 232 283 342 412
#     4  10  20  40  63  99 132 180 226 283 341 417
#     4  10  23  42  64  94 137 172 229 284 340 408
#     4  10  22  39  68  98 139 180 230 281 350 415
#     4  12  20  42  66  98 134 184 226 280 344 414
#     4  11  23  42  69  94 131 183 224 279 350 409
#
# _framework density 22.552741999999999
#
# number of rings (size 3 to 8) (size 9 to 14) (size 15 to 20)
#    0.000    1.455    3.636    1.636    2.545    0.000 
#    0.000    5.455    0.000    0.000    0.000    0.000 
#    0.000    0.000    0.000    0.000    0.000    0.000 
#
# Total GULP energy -122933.774536 kJ/mol
# GULP energy per Si atom -5587.898843 kJ/mol
# Density = 2.250141 g / cm^3
# Si number density = 22.552742 Si / 1000 Ang^3
#
#
#
# Elastic Constant Matrix: (Units=GPa)
#
#
# Indices 1 2 3 4 5 6 
#
# 1 115.8787 29.1626 71.4902 0.0000 -2.0432 0.0000
# 2 29.1626 67.2497 42.3311 0.0000 0.7248 0.0000
# 3 71.4902 42.3311 221.0701 0.0000 -1.0876 0.0000
# 4 0.0000 0.0000 0.0000 30.7305 0.0000 -4.2110
# 5 -2.0432 0.7248 -1.0876 0.0000 38.7454 0.0000
# 6 0.0000 0.0000 0.0000 -4.2110 0.0000 28.0850
#
#
#
# Elastic Compliance Matrix: (Units=1/GPa)
#
#
# Indices 1 2 3 4 5 6 
#
# 1 0.011285 -0.002961 -0.003079 0.000000 0.000564 0.000000
# 2 -0.002961 0.017691 -0.002433 0.000000 -0.000555 0.000000
# 3 -0.003079 -0.002433 0.005985 0.000000 0.000051 0.000000
# 4 0.000000 0.000000 0.000000 0.033224 0.000000 0.004981
# 5 0.000564 -0.000555 0.000051 0.000000 0.025851 0.000000
# 6 0.000000 0.000000 0.000000 0.004981 0.000000 0.036353
#
#
# Mechanical properties :
#
#
# Convention : Reuss Voigt Hill
#
# Bulk Modulus (GPa) = 55.51048 76.68514 66.09781
# Shear Modulus (GPa) = 32.60704 36.92648 34.76676
#
# Velocity S-wave (km/s) = 3.80651 4.05079 3.93055
# Velocity P-wave (km/s) = 6.63223 7.48031 7.06900
#
# Compressibility (1/GPa) = 0.01801461
#
# Stress axis : x y z
#
# Youngs Moduli (GPa) = 88.61504 56.52469 167.07386
#
# Poissons Ratio (x) = 0.16738 0.51450
# Poissons Ratio (y) = 0.26241 0.40644
# Poissons Ratio (z) = 0.27289 0.13751
#
# Static dielectric constant tensor:
#      x y z
#    x 1.835780 0.000000 -0.018060 
#    y 0.000000 1.856530 0.000000 
#    z -0.018060 0.000000 1.916100 
# 
# From -- ./inp_files/176432.got.cif
#   From: 2010.05.17/outbox.cif.g08.bks.cpg/sg15_89_cif.got.tgz:176432.got - 2010.06.03 18:47:42.
